DiffSBDD_68
     RDKit          3D

  0  0  0  0  0  0  0  0  0  0999 V3000
M  V30 BEGIN CTAB
M  V30 COUNTS 77 79 0 0 1
M  V30 BEGIN ATOM
M  V30 1 C 42.199696 27.315821 66.716411 0 CFG=2
M  V30 2 O 41.612190 30.586222 66.879514 0
M  V30 3 C 39.009131 28.981771 53.616587 0 CFG=2
M  V30 4 O 42.045162 27.359269 69.773676 0
M  V30 5 C 40.871088 34.035867 62.541798 0 CFG=1
M  V30 6 C 40.015447 35.009011 61.714783 0
M  V30 7 C 41.297615 34.632062 63.896066 0
M  V30 8 C 38.291766 30.136210 59.225171 0 CFG=1
M  V30 9 C 42.012659 25.971499 66.016095 0
M  V30 10 O 40.045160 29.327820 55.763177 0
M  V30 11 C 38.885557 28.802606 55.149219 0 CFG=2
M  V30 12 C 41.390228 30.245913 65.718302 0
M  V30 13 C 39.568652 30.349992 53.172614 0
M  V30 14 C 42.930304 28.343196 65.847982 0
M  V30 15 C 42.274337 26.154469 69.072691 0
M  V30 16 C 38.398462 27.136398 57.101803 0
M  V30 17 C 40.401535 31.027356 64.864337 0
M  V30 18 O 38.845098 31.406029 53.767809 0
M  V30 19 O 39.245137 31.135435 59.536916 0
M  V30 20 C 41.049398 32.193146 64.084792 0 CFG=2
M  V30 21 C 41.269606 33.474504 64.907650 0 CFG=1
M  V30 22 O 42.557032 33.737558 66.758544 0
M  V30 23 F 39.735548 26.587881 55.233697 0
M  V30 24 C 42.960659 26.442229 67.728270 0 CFG=2
M  V30 25 C 37.658887 31.170942 61.266706 0 CFG=2
M  V30 26 O 36.781212 32.147004 61.767813 0
M  V30 27 O 41.402305 25.588429 65.019810 0
M  V30 28 N 41.978663 29.188351 65.139957 0
M  V30 29 C 44.468447 26.655527 67.911352 0
M  V30 30 N 42.614498 33.407393 65.592747 0
M  V30 31 F 37.617943 26.849555 54.962218 0
M  V30 32 O 42.780990 25.256952 66.877704 0
M  V30 33 S 38.845103 28.488566 59.768038 0
M  V30 34 C 38.687150 27.329219 55.596793 0
M  V30 35 C 40.131256 31.683983 61.730647 0
M  V30 36 O 40.983683 30.807619 61.590381 0
M  V30 37 O 36.294108 31.592521 59.367758 0
M  V30 38 C 38.951511 31.809812 60.757451 0 CFG=1
M  V30 39 F 37.823121 28.793703 53.035478 0
M  V30 40 S 39.776273 27.613958 58.191124 0
M  V30 41 C 40.201619 32.690314 62.895054 0 CFG=2
M  V30 42 C 37.050666 30.572474 60.006587 0 CFG=1
M  V30 43 H 41.274472 27.694026 67.152038 0
M  V30 44 H 39.645080 28.199847 53.204475 0
M  V30 45 H 41.216895 27.720904 69.478717 0
M  V30 46 H 41.779633 33.822551 61.975608 0
M  V30 47 H 39.021081 35.131219 62.147245 0
M  V30 48 H 40.482050 35.994332 61.673860 0
M  V30 49 H 39.901706 34.673488 60.684465 0
M  V30 50 H 42.279293 35.102285 63.814772 0
M  V30 51 H 40.604342 35.408903 64.222988 0
M  V30 52 H 38.097714 30.106399 58.152235 0
M  V30 53 H 40.026946 29.101076 56.682695 0
M  V30 54 H 38.042661 29.398135 55.502131 0
M  V30 55 H 40.609891 30.454756 53.473543 0
M  V30 56 H 39.550319 30.445913 52.086679 0
M  V30 57 H 43.596000 28.958258 66.456101 0
M  V30 58 H 43.569090 27.858656 65.107319 0
M  V30 59 H 42.873726 25.482399 69.687965 0
M  V30 60 H 41.308378 25.667942 68.927313 0
M  V30 61 H 38.157161 26.092675 57.306033 0
M  V30 62 H 37.514597 27.712675 57.376103 0
M  V30 63 H 39.895781 30.329886 64.195051 0
M  V30 64 H 39.645140 31.415723 65.537800 0
M  V30 65 H 39.199283 32.228616 53.462662 0
M  V30 66 H 42.017403 31.866984 63.695521 0
M  V30 67 H 40.484748 33.625414 65.651741 0
M  V30 68 H 37.868924 30.406698 62.016307 0
M  V30 69 H 36.335082 32.482439 60.994262 0
M  V30 70 H 41.754543 28.956003 64.182271 0
M  V30 71 H 44.669174 27.533423 68.526046 0
M  V30 72 H 44.936407 25.800900 68.399603 0
M  V30 73 H 44.980266 26.798165 66.958818 0
M  V30 74 H 36.047788 31.366888 58.466558 0
M  V30 75 H 38.779815 32.855726 60.509999 0
M  V30 76 H 39.187886 32.881144 63.245503 0
M  V30 77 H 36.374153 29.737616 60.171921 0
M  V30 END ATOM
M  V30 BEGIN BOND
M  V30 1 1 6 5
M  V30 2 1 7 5
M  V30 3 1 9 1
M  V30 4 1 11 3
M  V30 5 1 11 10
M  V30 6 2 12 2
M  V30 7 1 13 3
M  V30 8 1 14 1
M  V30 9 1 15 4
M  V30 10 1 17 12
M  V30 11 1 18 13
M  V30 12 1 19 8
M  V30 13 1 20 17
M  V30 14 1 21 7
M  V30 15 1 21 20
M  V30 16 1 24 1
M  V30 17 1 24 15 CFG=1
M  V30 18 1 26 25
M  V30 19 2 27 9
M  V30 20 1 28 12
M  V30 21 1 28 14
M  V30 22 1 29 24
M  V30 23 1 30 21
M  V30 24 2 30 22
M  V30 25 1 32 9
M  V30 26 1 32 24
M  V30 27 1 33 8
M  V30 28 1 34 11
M  V30 29 1 34 16
M  V30 30 1 34 23
M  V30 31 1 34 31
M  V30 32 2 36 35
M  V30 33 1 38 19
M  V30 34 1 38 25
M  V30 35 1 38 35
M  V30 36 1 39 3
M  V30 37 1 40 16
M  V30 38 1 40 33
M  V30 39 1 41 5
M  V30 40 1 41 20
M  V30 41 1 41 35
M  V30 42 1 42 8
M  V30 43 1 42 25
M  V30 44 1 42 37
M  V30 45 1 1 43 CFG=1
M  V30 46 1 3 44 CFG=3
M  V30 47 1 45 4
M  V30 48 1 5 46 CFG=3
M  V30 49 1 47 6
M  V30 50 1 48 6
M  V30 51 1 49 6
M  V30 52 1 50 7
M  V30 53 1 51 7
M  V30 54 1 8 52 CFG=3
M  V30 55 1 53 10
M  V30 56 1 11 54 CFG=1
M  V30 57 1 55 13
M  V30 58 1 56 13
M  V30 59 1 57 14
M  V30 60 1 58 14
M  V30 61 1 59 15
M  V30 62 1 60 15
M  V30 63 1 61 16
M  V30 64 1 62 16
M  V30 65 1 63 17
M  V30 66 1 64 17
M  V30 67 1 65 18
M  V30 68 1 20 66 CFG=3
M  V30 69 1 21 67 CFG=1
M  V30 70 1 25 68 CFG=1
M  V30 71 1 69 26
M  V30 72 1 70 28
M  V30 73 1 71 29
M  V30 74 1 72 29
M  V30 75 1 73 29
M  V30 76 1 74 37
M  V30 77 1 38 75 CFG=3
M  V30 78 1 41 76 CFG=1
M  V30 79 1 42 77 CFG=1
M  V30 END BOND
M  V30 END CTAB
M  END
>  <i_epik_Tot_Q>  (1) 
0

>  <i_epik_Tot_abs_Q>  (1) 
0

>  <i_i_glide_confnum>  (1) 
4807

>  <i_i_glide_lignum>  (1) 
152

>  <i_i_glide_posenum>  (1) 
220

>  <i_i_glide_rotatable_bonds>  (1) 
21

>  <i_lp_mmshare_version>  (1) 
72125

>  <i_m_source_file_index>  (1) 
69

>  <i_f3d_flags>  (1) 
0

>  <num_sample>  (1) 
100

>  <b_lp_Chiralities_Consistent>  (1) 
1

>  <r_epik_Charging_Adjusted_Penalty>  (1) 
0.055139977008856429

>  <r_epik_Ionization_Penalty>  (1) 
0.055151113316776565

>  <r_epik_Ionization_Penalty_Charging>  (1) 
0

>  <r_epik_Ionization_Penalty_Neutral>  (1) 
0.055151113316776565

>  <r_epik_State_Penalty>  (1) 
0.055139977008856429

>  <r_glide_ring_energy>  (1) 
0

>  <r_i_docking_score>  (1) 
-10.076299229836602

>  <r_i_glide_ecoul>  (1) 
-13.566917852584121

>  <r_i_glide_eff_state_penalty>  (1) 
0.055139977008856429

>  <r_i_glide_einternal>  (1) 
7.2704066592290957

>  <r_i_glide_emodel>  (1) 
-86.820351986943592

>  <r_i_glide_emodel_strain>  (1) 
2.1827080615125851

>  <r_i_glide_energy>  (1) 
-59.18197293434126

>  <r_i_glide_erotb>  (1) 
0.60671089225908026

>  <r_i_glide_esite>  (1) 
0

>  <r_i_glide_evdw>  (1) 
-45.615055081757141

>  <r_i_glide_gscore>  (1) 
-10.131439206845458

>  <r_i_glide_gscore_strain>  (1) 
0

>  <r_i_glide_hbond>  (1) 
-0.99372845491744655

>  <r_i_glide_ligand_efficiency>  (1) 
-0.239911886424681

>  <r_i_glide_ligand_efficiency_ln>  (1) 
-2.1268471720676074

>  <r_i_glide_ligand_efficiency_sa>  (1) 
-0.83394010963716303

>  <r_i_glide_lipo>  (1) 
-3.1390337063347014

>  <r_i_glide_metal>  (1) 
-0

>  <r_i_glide_rewards>  (1) 
-2.289597505876916

>  <r_lp_Energy>  (1) 
-0.130936

>  <r_lp_tautomer_probability>  (1) 
0.99999996000000102

>  <s_epik_Chemistry_Notes>  (1) 
This compound has an ester and may undergo hydrolysis at high or low pH. This compound contains an acetal/aminal-like group ( X-CH(R)-Y where X, Y are N, S, or O) that may be acid/base labile, releasing an aldehyde.

>  <s_epik_cmdline>  (1) 
J2VwaWtfcHl0aG9uJywgJy1waHQnLCAnMS4wJywgJy1waCcsICc3LjQnLCAnLXRuJywgJzgnLCAnLW1hJywgJzUwMCcsICctaW1hZScsICc8aW5maWxlLm1hZT4nLCAnLW9tYWUnLCAnPG91dGZpbGUubWFlPic=

>  <s_epik_input>  (1) 
W09IXVtDSDJdW0NAXTEoW0NIM10pW0NASF0oQyg9TylPMSlbQ0gyXVtOSF1DKD1PKVtDSDJdW0NASF0oW0NAQEhdKE49TylbQ0gyXVtDQEBIXTJbQ0gzXSlbQ0BASF0yQyg9TylbQ0BIXShbQ0BASF0oW09IXSlbQ0BIXTNbT0hdKU9bQ0BIXTNTU1tDSDJdQyhGKShGKVtDQEBIXShbT0hdKVtDQEBIXShGKVtDSDJdW09IXQ==

>  <s_glide_docking_method>  (1) 
confgen

>  <s_i_glide_gridfile>  (1) 
gpcr_5ht2c_6bqh_protein_autoprepared_prepared

>  <s_lp_Force_Field>  (1) 
S-OPLS

>  <s_lp_Variant>  (1) 
DiffSBDD_68-1

>  <s_m_source_file>  (1) 
generated_GPCR_5HT2C_ligand_DiffSBDD_2026-06-23_prepared.sdf

>  <GenAI_Model>  (1) 
DiffSBDD

>  <Protein>  (1) 
GPCR_5HT2C

$$$$
DiffSBDD_28
     RDKit          3D

  0  0  0  0  0  0  0  0  0  0999 V3000
M  V30 BEGIN CTAB
M  V30 COUNTS 60 64 0 0 1
M  V30 BEGIN ATOM
M  V30 1 O 38.845144 26.164207 58.964101 0
M  V30 2 O 40.045113 31.747715 63.537886 0
M  V30 3 C 38.831933 33.705241 60.685220 0
M  V30 4 C 38.056150 33.465274 59.388564 0
M  V30 5 C 39.697386 30.418586 52.373602 0
M  V30 6 C 37.645151 26.212068 53.994413 0
M  V30 7 C 37.872663 35.738356 61.913155 0
M  V30 8 C 37.688293 25.453153 56.314860 0
M  V30 9 C 39.098055 26.793889 57.944021 0
M  V30 10 C 39.245140 29.600092 53.423925 0
M  V30 11 C 37.245149 25.296613 54.994401 0
M  V30 12 C 40.322994 35.647912 61.433480 0
M  V30 13 C 37.585145 32.017632 59.198218 0
M  V30 14 N 37.293910 24.538687 57.293820 0
M  V30 15 C 38.520868 29.787817 59.012646 0
M  V30 16 C 38.938639 27.426521 55.664432 0
M  V30 17 C 39.868056 29.030460 59.046669 0
M  V30 18 C 38.972345 31.234092 60.947046 0
M  V30 19 C 39.511790 28.561250 50.826412 0
M  V30 20 S 40.045131 28.669612 56.214425 0
M  V30 21 C 40.091410 27.974264 57.948240 0 CFG=2
M  V30 22 C 39.063911 27.731992 51.869410 0
M  V30 23 C 38.503380 27.302591 54.299091 0
M  V30 24 C 38.940095 28.228805 53.195928 0
M  V30 25 C 39.835336 29.898380 51.079274 0
M  V30 26 C 38.541653 26.533879 56.622824 0
M  V30 27 C 40.840983 33.860439 63.075690 0
M  V30 28 N 38.708003 31.148856 59.510721 0
M  V30 29 C 40.053134 32.799289 62.706486 0
M  V30 30 C 38.994368 35.152026 61.042462 0 CFG=1
M  V30 31 F 40.271606 30.691229 50.073439 0
M  V30 32 C 41.107494 35.095921 62.347704 0
M  V30 33 C 39.277764 32.658686 61.435217 0
M  V30 34 H 39.507410 31.074106 63.151358 0
M  V30 35 H 37.190084 34.126606 59.342852 0
M  V30 36 H 38.704729 33.737740 58.555489 0
M  V30 37 H 39.933841 31.454672 52.563098 0
M  V30 38 H 37.287978 26.079211 52.985374 0
M  V30 39 H 38.138130 35.737772 62.967793 0
M  V30 40 H 36.930031 35.206036 61.780772 0
M  V30 41 H 37.694207 36.781881 61.651258 0
M  V30 42 H 39.128700 30.029963 54.398646 0
M  V30 43 H 36.592417 24.474163 54.738532 0
M  V30 44 H 40.638272 36.568655 60.968619 0
M  V30 45 H 36.729485 31.787138 59.835357 0
M  V30 46 H 37.260926 31.878738 58.166425 0
M  V30 47 H 37.722407 24.559182 58.210801 0
M  V30 48 H 36.825858 23.680600 57.040404 0
M  V30 49 H 37.746686 29.260904 59.572412 0
M  V30 50 H 38.173709 29.855030 57.980793 0
M  V30 51 H 40.691850 29.737731 58.959340 0
M  V30 52 H 39.991964 28.565038 60.025048 0
M  V30 53 H 38.119821 30.841301 61.503326 0
M  V30 54 H 39.828908 30.604261 61.185814 0
M  V30 55 H 39.610524 28.164532 49.828004 0
M  V30 56 H 41.082619 27.541968 58.088833 0
M  V30 57 H 38.835156 26.699401 51.657703 0
M  V30 58 H 41.378902 33.742776 64.006119 0
M  V30 59 H 38.857575 35.660043 60.094398 0
M  V30 60 H 42.023124 35.617821 62.586147 0
M  V30 END ATOM
M  V30 BEGIN BOND
M  V30 1 1 4 3
M  V30 2 2 9 1
M  V30 3 2 10 5
M  V30 4 2 11 6
M  V30 5 1 11 8
M  V30 6 1 13 4
M  V30 7 1 14 8
M  V30 8 1 17 15
M  V30 9 1 20 16
M  V30 10 1 21 9
M  V30 11 1 21 17
M  V30 12 1 21 20
M  V30 13 1 22 19
M  V30 14 1 23 6
M  V30 15 2 23 16
M  V30 16 1 24 10
M  V30 17 2 24 22
M  V30 18 1 24 23
M  V30 19 1 25 5
M  V30 20 2 25 19
M  V30 21 2 26 8
M  V30 22 1 26 9
M  V30 23 1 26 16
M  V30 24 1 28 13
M  V30 25 1 28 15
M  V30 26 1 28 18
M  V30 27 1 29 2
M  V30 28 2 29 27
M  V30 29 1 30 3
M  V30 30 1 30 7
M  V30 31 1 30 12
M  V30 32 1 31 25
M  V30 33 2 32 12
M  V30 34 1 32 27
M  V30 35 2 33 3
M  V30 36 1 33 18
M  V30 37 1 33 29
M  V30 38 1 34 2
M  V30 39 1 35 4
M  V30 40 1 36 4
M  V30 41 1 37 5
M  V30 42 1 38 6
M  V30 43 1 39 7
M  V30 44 1 40 7
M  V30 45 1 41 7
M  V30 46 1 42 10
M  V30 47 1 43 11
M  V30 48 1 44 12
M  V30 49 1 45 13
M  V30 50 1 46 13
M  V30 51 1 47 14
M  V30 52 1 48 14
M  V30 53 1 49 15
M  V30 54 1 50 15
M  V30 55 1 51 17
M  V30 56 1 52 17
M  V30 57 1 53 18
M  V30 58 1 54 18
M  V30 59 1 55 19
M  V30 60 1 21 56 CFG=1
M  V30 61 1 57 22
M  V30 62 1 58 27
M  V30 63 1 30 59 CFG=3
M  V30 64 1 60 32
M  V30 END BOND
M  V30 END CTAB
M  END
>  <i_epik_Tot_Q>  (1) 
0

>  <i_epik_Tot_abs_Q>  (1) 
0

>  <i_i_glide_confnum>  (1) 
50

>  <i_i_glide_lignum>  (1) 
70

>  <i_i_glide_posenum>  (1) 
65

>  <i_i_glide_rotatable_bonds>  (1) 
5

>  <i_lp_mmshare_version>  (1) 
72125

>  <i_m_source_file_index>  (1) 
29

>  <i_f3d_flags>  (1) 
0

>  <num_sample>  (1) 
100

>  <b_lp_Chiralities_Consistent>  (1) 
1

>  <r_epik_Charging_Adjusted_Penalty>  (1) 
0.015364548353272162

>  <r_epik_Ionization_Penalty>  (1) 
0.015367332939937649

>  <r_epik_Ionization_Penalty_Charging>  (1) 
0

>  <r_epik_Ionization_Penalty_Neutral>  (1) 
0.015367332939937649

>  <r_epik_State_Penalty>  (1) 
0.015364548353272162

>  <r_glide_ring_energy>  (1) 
0

>  <r_i_docking_score>  (1) 
-9.9330504888445699

>  <r_i_glide_ecoul>  (1) 
-2.6932338912752947

>  <r_i_glide_eff_state_penalty>  (1) 
0.015364548353272162

>  <r_i_glide_einternal>  (1) 
3.1220074129623203

>  <r_i_glide_emodel>  (1) 
-72.637560297601311

>  <r_i_glide_emodel_strain>  (1) 
1.0590280896310844

>  <r_i_glide_energy>  (1) 
-49.509685209646335

>  <r_i_glide_erotb>  (1) 
0.37656191168379749

>  <r_i_glide_esite>  (1) 
0

>  <r_i_glide_evdw>  (1) 
-46.816451318371044

>  <r_i_glide_gscore>  (1) 
-9.9484150371978419

>  <r_i_glide_gscore_strain>  (1) 
0

>  <r_i_glide_hbond>  (1) 
0

>  <r_i_glide_ligand_efficiency>  (1) 
-0.30100152996498697

>  <r_i_glide_ligand_efficiency_ln>  (1) 
-2.2090589981361068

>  <r_i_glide_ligand_efficiency_sa>  (1) 
-0.96547274074396328

>  <r_i_glide_lipo>  (1) 
-5.622303032227312

>  <r_i_glide_metal>  (1) 
-0

>  <r_i_glide_rewards>  (1) 
-1.9578662670444817

>  <r_lp_Energy>  (1) 
35.127381999999997

>  <r_lp_tautomer_probability>  (1) 
0.99995000000000001

>  <s_epik_cmdline>  (1) 
J2VwaWtfcHl0aG9uJywgJy1waHQnLCAnMS4wJywgJy1waCcsICc3LjQnLCAnLXRuJywgJzgnLCAnLW1hJywgJzUwMCcsICctaW1hZScsICc8aW5maWxlLm1hZT4nLCAnLW9tYWUnLCAnPG91dGZpbGUubWFlPic=

>  <s_epik_input>  (1) 
W2NIXTFbY0hdYyhGKVtjSF1bY0hdYzEtYzJbY0hdW2NIXWMoW05IMl0pYyhjMjMpQyg9TylbQ0BASF0oUzMpW0NIMl1bQ0gyXU4oW0NIMl1bQ0gyXTQpW0NIMl1DKD1DNDUpQyhbT0hdKT1bQ0hdW0NIXT1bQ0hdW0NAQEhdNVtDSDNd

>  <s_glide_docking_method>  (1) 
confgen

>  <s_i_glide_gridfile>  (1) 
gpcr_5ht2c_6bqh_protein_autoprepared_prepared

>  <s_lp_Force_Field>  (1) 
S-OPLS

>  <s_lp_Variant>  (1) 
DiffSBDD_28-1

>  <s_m_source_file>  (1) 
generated_GPCR_5HT2C_ligand_DiffSBDD_2026-06-23_prepared.sdf

>  <GenAI_Model>  (1) 
DiffSBDD

>  <Protein>  (1) 
GPCR_5HT2C

$$$$
DiffSBDD_28
     RDKit          3D

  0  0  0  0  0  0  0  0  0  0999 V3000
M  V30 BEGIN CTAB
M  V30 COUNTS 60 64 0 0 1
M  V30 BEGIN ATOM
M  V30 1 O 38.845183 26.137760 58.942206 0
M  V30 2 O 40.045134 31.761636 63.422682 0
M  V30 3 C 38.758528 33.671259 60.558728 0
M  V30 4 C 37.996532 33.379448 59.263004 0
M  V30 5 C 39.708294 30.440189 52.391920 0
M  V30 6 C 37.646649 26.225457 53.976688 0
M  V30 7 C 37.629234 35.761851 61.492468 0
M  V30 8 C 37.686322 25.452548 56.291293 0
M  V30 9 C 39.102785 26.771490 57.926046 0
M  V30 10 C 39.245141 29.615287 53.432708 0
M  V30 11 C 37.245103 25.304481 54.970064 0
M  V30 12 C 40.132197 35.711843 61.379077 0
M  V30 13 C 37.555612 31.921177 59.104401 0
M  V30 14 N 37.286173 24.537498 57.265600 0
M  V30 15 C 38.515205 29.703873 59.013509 0
M  V30 16 C 38.940583 27.424408 55.654216 0
M  V30 17 C 39.880944 28.985084 59.041697 0
M  V30 18 C 38.954444 31.213918 60.878212 0
M  V30 19 C 39.548513 28.588262 50.834611 0
M  V30 20 S 40.045152 28.660774 56.211949 0
M  V30 21 C 40.105866 27.941875 57.936332 0 CFG=2
M  V30 22 C 39.089864 27.752551 51.868401 0
M  V30 23 C 38.506450 27.311305 54.289391 0
M  V30 24 C 38.948865 28.243430 53.195021 0
M  V30 25 C 39.865022 29.925583 51.097263 0
M  V30 26 C 38.542816 26.525975 56.605462 0
M  V30 27 C 40.702414 33.928350 63.010378 0
M  V30 28 N 38.691575 31.085139 59.445813 0
M  V30 29 C 39.989646 32.827207 62.610626 0
M  V30 30 C 38.881949 35.128721 60.869419 0 CFG=1
M  V30 31 F 40.312405 30.723521 50.100385 0
M  V30 32 C 40.899310 35.197763 62.326655 0
M  V30 33 C 39.226094 32.652956 61.335921 0
M  V30 34 H 40.573236 31.994557 64.170392 0
M  V30 35 H 37.114405 34.016537 59.194997 0
M  V30 36 H 38.640289 33.653822 58.427005 0
M  V30 37 H 39.939878 31.476376 52.589667 0
M  V30 38 H 37.289784 26.100706 52.967792 0
M  V30 39 H 37.663854 35.737721 62.574526 0
M  V30 40 H 36.712693 35.268871 61.168607 0
M  V30 41 H 37.548429 36.812164 61.207597 0
M  V30 42 H 39.116449 30.040157 54.408999 0
M  V30 43 H 36.590296 24.485583 54.708845 0
M  V30 44 H 40.403017 36.668296 60.967892 0
M  V30 45 H 36.700346 31.688644 59.740279 0
M  V30 46 H 37.245183 31.750856 58.073189 0
M  V30 47 H 37.707518 24.557593 58.186612 0
M  V30 48 H 36.815309 23.681530 57.009337 0
M  V30 49 H 37.770397 29.185531 59.619500 0
M  V30 50 H 38.136207 29.716615 57.991523 0
M  V30 51 H 40.686433 29.713589 58.949518 0
M  V30 52 H 40.022167 28.519090 60.017758 0
M  V30 53 H 38.112539 30.819350 61.449242 0
M  V30 54 H 39.822272 30.606794 61.135153 0
M  V30 55 H 39.661714 28.196457 49.836028 0
M  V30 56 H 41.096441 27.506080 58.068130 0
M  V30 57 H 38.866990 26.720348 51.649911 0
M  V30 58 H 41.234693 33.823756 63.944573 0
M  V30 59 H 38.882805 35.548864 59.871161 0
M  V30 60 H 41.750964 35.788128 62.633786 0
M  V30 END ATOM
M  V30 BEGIN BOND
M  V30 1 1 4 3
M  V30 2 2 9 1
M  V30 3 2 10 5
M  V30 4 2 11 6
M  V30 5 1 11 8
M  V30 6 1 13 4
M  V30 7 1 14 8
M  V30 8 1 17 15
M  V30 9 1 20 16
M  V30 10 1 21 9
M  V30 11 1 21 17
M  V30 12 1 21 20
M  V30 13 1 22 19
M  V30 14 1 23 6
M  V30 15 2 23 16
M  V30 16 1 24 10
M  V30 17 2 24 22
M  V30 18 1 24 23
M  V30 19 1 25 5
M  V30 20 2 25 19
M  V30 21 2 26 8
M  V30 22 1 26 9
M  V30 23 1 26 16
M  V30 24 1 28 13
M  V30 25 1 28 15
M  V30 26 1 28 18
M  V30 27 1 29 2
M  V30 28 2 29 27
M  V30 29 1 30 3
M  V30 30 1 30 7
M  V30 31 1 30 12
M  V30 32 1 31 25
M  V30 33 2 32 12
M  V30 34 1 32 27
M  V30 35 2 33 3
M  V30 36 1 33 18
M  V30 37 1 33 29
M  V30 38 1 34 2
M  V30 39 1 35 4
M  V30 40 1 36 4
M  V30 41 1 37 5
M  V30 42 1 38 6
M  V30 43 1 39 7
M  V30 44 1 40 7
M  V30 45 1 41 7
M  V30 46 1 42 10
M  V30 47 1 43 11
M  V30 48 1 44 12
M  V30 49 1 45 13
M  V30 50 1 46 13
M  V30 51 1 47 14
M  V30 52 1 48 14
M  V30 53 1 49 15
M  V30 54 1 50 15
M  V30 55 1 51 17
M  V30 56 1 52 17
M  V30 57 1 53 18
M  V30 58 1 54 18
M  V30 59 1 55 19
M  V30 60 1 21 56 CFG=1
M  V30 61 1 57 22
M  V30 62 1 58 27
M  V30 63 1 30 59 CFG=3
M  V30 64 1 60 32
M  V30 END BOND
M  V30 END CTAB
M  END
>  <i_epik_Tot_Q>  (1) 
0

>  <i_epik_Tot_abs_Q>  (1) 
0

>  <i_i_glide_confnum>  (1) 
25

>  <i_i_glide_lignum>  (1) 
70

>  <i_i_glide_posenum>  (1) 
198

>  <i_i_glide_rotatable_bonds>  (1) 
5

>  <i_lp_mmshare_version>  (1) 
72125

>  <i_m_source_file_index>  (1) 
29

>  <i_f3d_flags>  (1) 
0

>  <num_sample>  (1) 
100

>  <b_lp_Chiralities_Consistent>  (1) 
1

>  <r_epik_Charging_Adjusted_Penalty>  (1) 
0.015364548353272162

>  <r_epik_Ionization_Penalty>  (1) 
0.015367332939937649

>  <r_epik_Ionization_Penalty_Charging>  (1) 
0

>  <r_epik_Ionization_Penalty_Neutral>  (1) 
0.015367332939937649

>  <r_epik_State_Penalty>  (1) 
0.015364548353272162

>  <r_glide_ring_energy>  (1) 
0

>  <r_i_docking_score>  (1) 
-9.9175760797999484

>  <r_i_glide_ecoul>  (1) 
-2.7885890012044285

>  <r_i_glide_eff_state_penalty>  (1) 
0.015364548353272162

>  <r_i_glide_einternal>  (1) 
7.0803472088371446

>  <r_i_glide_emodel>  (1) 
-69.930559790121634

>  <r_i_glide_emodel_strain>  (1) 
1.1540746801360626

>  <r_i_glide_energy>  (1) 
-48.916951152505206

>  <r_i_glide_erotb>  (1) 
0.37656191168379749

>  <r_i_glide_esite>  (1) 
0

>  <r_i_glide_evdw>  (1) 
-46.128362151300777

>  <r_i_glide_gscore>  (1) 
-9.9329406281532204

>  <r_i_glide_gscore_strain>  (1) 
0

>  <r_i_glide_hbond>  (1) 
0

>  <r_i_glide_ligand_efficiency>  (1) 
-0.30053260847878632

>  <r_i_glide_ligand_efficiency_ln>  (1) 
-2.205617569686785

>  <r_i_glide_ligand_efficiency_sa>  (1) 
-0.96396865897890194

>  <r_i_glide_lipo>  (1) 
-5.6249359535529804

>  <r_i_glide_metal>  (1) 
-0

>  <r_i_glide_rewards>  (1) 
-1.9598601285383346

>  <r_lp_Energy>  (1) 
35.127381999999997

>  <r_lp_tautomer_probability>  (1) 
0.99995000000000001

>  <s_epik_cmdline>  (1) 
J2VwaWtfcHl0aG9uJywgJy1waHQnLCAnMS4wJywgJy1waCcsICc3LjQnLCAnLXRuJywgJzgnLCAnLW1hJywgJzUwMCcsICctaW1hZScsICc8aW5maWxlLm1hZT4nLCAnLW9tYWUnLCAnPG91dGZpbGUubWFlPic=

>  <s_epik_input>  (1) 
W2NIXTFbY0hdYyhGKVtjSF1bY0hdYzEtYzJbY0hdW2NIXWMoW05IMl0pYyhjMjMpQyg9TylbQ0BASF0oUzMpW0NIMl1bQ0gyXU4oW0NIMl1bQ0gyXTQpW0NIMl1DKD1DNDUpQyhbT0hdKT1bQ0hdW0NIXT1bQ0hdW0NAQEhdNVtDSDNd

>  <s_glide_docking_method>  (1) 
confgen

>  <s_i_glide_gridfile>  (1) 
gpcr_5ht2c_6bqh_protein_autoprepared_prepared

>  <s_lp_Force_Field>  (1) 
S-OPLS

>  <s_lp_Variant>  (1) 
DiffSBDD_28-1

>  <s_m_source_file>  (1) 
generated_GPCR_5HT2C_ligand_DiffSBDD_2026-06-23_prepared.sdf

>  <GenAI_Model>  (1) 
DiffSBDD

>  <Protein>  (1) 
GPCR_5HT2C

$$$$
DiffSBDD_66
     RDKit          3D

  0  0  0  0  0  0  0  0  0  0999 V3000
M  V30 BEGIN CTAB
M  V30 COUNTS 62 65 0 0 1
M  V30 BEGIN ATOM
M  V30 1 C 38.536813 28.849918 58.668406 0
M  V30 2 C 38.129540 30.168250 57.828214 0
M  V30 3 C 38.841223 26.269820 56.325471 0 CFG=1
M  V30 4 N 40.569117 30.181094 62.309064 0
M  V30 5 O 40.445176 36.772224 61.767814 0 CHG=-1
M  V30 6 O 39.245013 24.165096 57.367736 0
M  V30 7 O 37.433197 26.224920 56.422135 0
M  V30 8 C 40.998403 35.093858 63.378163 0
M  V30 9 C 39.912887 28.506485 56.867983 0
M  V30 10 C 38.898443 28.330327 54.778903 0
M  V30 11 N 39.850344 28.386335 58.198590 0
M  V30 12 C 38.304078 28.230299 52.289439 0
M  V30 13 C 40.552945 32.727551 62.874951 0
M  V30 14 N 40.749687 30.353758 60.976317 0
M  V30 15 C 39.645183 28.537716 50.213812 0
M  V30 16 C 39.317113 27.695002 55.981060 0
M  V30 17 C 38.407775 29.796052 54.907632 0 CFG=1
M  V30 18 C 37.635964 30.144623 56.287315 0
M  V30 19 C 39.863046 30.662691 53.148948 0
M  V30 20 C 40.744753 29.103823 60.486098 0
M  V30 21 C 40.975753 28.861755 59.012459 0
M  V30 22 C 39.465561 25.552633 57.532289 0
M  V30 23 C 40.517826 28.137832 61.497072 0
M  V30 24 C 40.013193 34.477356 61.240726 0
M  V30 25 C 39.419293 30.770416 54.373064 0
M  V30 26 C 40.536637 31.256408 63.307002 0
M  V30 27 C 41.034147 33.741937 63.767697 0
M  V30 28 O 40.499860 30.921537 64.490951 0
M  V30 29 Cl 41.673649 33.337949 65.329959 0
M  V30 30 C 40.445097 28.861315 62.640614 0
M  V30 31 C 40.045240 30.149178 51.959320 0
M  V30 32 C 38.808409 27.642002 53.610431 0
M  V30 33 C 40.042885 33.117979 61.606304 0
M  V30 34 C 39.358776 28.966831 51.446525 0
M  V30 35 C 40.487073 35.459291 62.124444 0
M  V30 36 H 38.476079 29.053494 59.734336 0
M  V30 37 H 38.926807 30.906730 57.920549 0
M  V30 38 H 39.107040 25.659709 55.463686 0
M  V30 39 H 39.862373 23.693573 57.909310 0
M  V30 40 H 37.178525 26.680904 57.209077 0
M  V30 41 H 41.361859 35.856927 64.052005 0
M  V30 42 H 40.207071 29.503086 56.578253 0
M  V30 43 H 37.297801 30.611638 58.376968 0
M  V30 44 H 37.440756 28.876023 52.424714 0
M  V30 45 H 37.915215 27.390886 51.712650 0
M  V30 46 H 40.373628 29.045225 49.599601 0
M  V30 47 H 39.150061 27.674126 49.801378 0
M  V30 48 H 37.796951 28.070155 58.487442 0
M  V30 49 H 37.579323 29.898624 54.209975 0
M  V30 50 H 37.245195 31.144095 56.113874 0
M  V30 51 H 36.778867 29.487802 56.302050 0
M  V30 52 H 41.420896 29.737734 58.564317 0
M  V30 53 H 41.749567 28.098494 58.926168 0
M  V30 54 H 40.540893 25.728287 57.562922 0
M  V30 55 H 39.043985 25.881974 58.482455 0
M  V30 56 H 40.445234 27.074794 61.393606 0
M  V30 57 H 39.614726 34.768208 60.280075 0
M  V30 58 H 39.751552 31.557444 55.033977 0
M  V30 59 H 40.303566 28.544015 63.663377 0
M  V30 60 H 40.752863 30.628221 51.296805 0
M  V30 61 H 39.118885 26.609054 53.575909 0
M  V30 62 H 39.647461 32.388547 60.924768 0
M  V30 END ATOM
M  V30 BEGIN BOND
M  V30 1 1 2 1
M  V30 2 1 7 3
M  V30 3 1 11 1
M  V30 4 1 11 9
M  V30 5 1 14 4
M  V30 6 1 16 3
M  V30 7 2 16 9
M  V30 8 1 16 10
M  V30 9 1 17 10
M  V30 10 1 18 2
M  V30 11 1 18 17
M  V30 12 2 20 14
M  V30 13 1 21 11
M  V30 14 1 21 20
M  V30 15 1 22 3
M  V30 16 1 22 6
M  V30 17 1 23 20
M  V30 18 1 25 17
M  V30 19 2 25 19
M  V30 20 1 26 4
M  V30 21 1 26 13
M  V30 22 1 27 8
M  V30 23 2 27 13
M  V30 24 2 28 26
M  V30 25 1 29 27
M  V30 26 1 30 4
M  V30 27 2 30 23
M  V30 28 2 31 19
M  V30 29 2 32 10
M  V30 30 1 32 12
M  V30 31 1 33 13
M  V30 32 2 33 24
M  V30 33 1 34 12
M  V30 34 2 34 15
M  V30 35 1 34 31
M  V30 36 1 35 5
M  V30 37 2 35 8
M  V30 38 1 35 24
M  V30 39 1 36 1
M  V30 40 1 37 2
M  V30 41 1 3 38 CFG=3
M  V30 42 1 39 6
M  V30 43 1 40 7
M  V30 44 1 41 8
M  V30 45 1 42 9
M  V30 46 1 43 2
M  V30 47 1 44 12
M  V30 48 1 45 12
M  V30 49 1 46 15
M  V30 50 1 47 15
M  V30 51 1 48 1
M  V30 52 1 17 49 CFG=3
M  V30 53 1 50 18
M  V30 54 1 51 18
M  V30 55 1 52 21
M  V30 56 1 53 21
M  V30 57 1 54 22
M  V30 58 1 55 22
M  V30 59 1 56 23
M  V30 60 1 57 24
M  V30 61 1 58 25
M  V30 62 1 59 30
M  V30 63 1 60 31
M  V30 64 1 61 32
M  V30 65 1 62 33
M  V30 END BOND
M  V30 END CTAB
M  END
>  <i_epik_Tot_Q>  (1) 
-1

>  <i_epik_Tot_abs_Q>  (1) 
1

>  <i_i_glide_confnum>  (1) 
194

>  <i_i_glide_lignum>  (1) 
146

>  <i_i_glide_posenum>  (1) 
39

>  <i_i_glide_rotatable_bonds>  (1) 
8

>  <i_lp_mmshare_version>  (1) 
72125

>  <i_m_source_file_index>  (1) 
67

>  <i_f3d_flags>  (1) 
0

>  <num_sample>  (1) 
100

>  <b_lp_Chiralities_Consistent>  (1) 
1

>  <r_epik_Charging_Adjusted_Penalty>  (1) 
0.13314888727576835

>  <r_epik_Ionization_Penalty>  (1) 
0.066709733675270222

>  <r_epik_Ionization_Penalty_Charging>  (1) 
0.066574443637884173

>  <r_epik_Ionization_Penalty_Neutral>  (1) 
0.00013529003738605556

>  <r_epik_State_Penalty>  (1) 
0.066574443637884159

>  <r_glide_ring_energy>  (1) 
0

>  <r_i_docking_score>  (1) 
-9.8691938064362734

>  <r_i_glide_ecoul>  (1) 
-4.0297041147318922

>  <r_i_glide_eff_state_penalty>  (1) 
0.066574443637884159

>  <r_i_glide_einternal>  (1) 
21.033807473794106

>  <r_i_glide_emodel>  (1) 
-66.069961568974577

>  <r_i_glide_emodel_strain>  (1) 
0.078840094615173939

>  <r_i_glide_energy>  (1) 
-48.742012926218273

>  <r_i_glide_erotb>  (1) 
0.50284807503681039

>  <r_i_glide_esite>  (1) 
-0.029517902381595958

>  <r_i_glide_evdw>  (1) 
-44.71230881148638

>  <r_i_glide_gscore>  (1) 
-9.9357682500741582

>  <r_i_glide_gscore_strain>  (1) 
0

>  <r_i_glide_hbond>  (1) 
-0.58237028073149066

>  <r_i_glide_ligand_efficiency>  (1) 
-0.28197696589817922

>  <r_i_glide_ligand_efficiency_ln>  (1) 
-2.1665070754680049

>  <r_i_glide_ligand_efficiency_sa>  (1) 
-0.92236535339873105

>  <r_i_glide_lipo>  (1) 
-5.4142553095213088

>  <r_i_glide_metal>  (1) 
-0

>  <r_i_glide_rewards>  (1) 
-1.5724017746924712

>  <r_lp_Energy>  (1) 
66.601000999999997

>  <r_lp_tautomer_probability>  (1) 
0.99999944244275329

>  <s_epik_cmdline>  (1) 
J2VwaWtfcHl0aG9uJywgJy1waHQnLCAnMS4wJywgJy1waCcsICc3LjQnLCAnLXRuJywgJzgnLCAnLW1hJywgJzUwMCcsICctaW1hZScsICc8aW5maWxlLm1hZT4nLCAnLW9tYWUnLCAnPG91dGZpbGUubWFlPic=

>  <s_epik_input>  (1) 
W0NIXTEvW0NIMl1DKD1bQ0gyXSlbQ0hdPUM9W0NIXVtDQEBIXShDPTFcMilbQ0gyXS9bQ0hdPVtDSF1cTihbQ0gyXVtDQEBIXTJbQ0BASF0oW09IXSlbQ0gyXVtPSF0pW0NIMl1jKFtjSF1bY0hdMylubjNDKD1PKWM0YyhDbClbY0hdYyhbT0hdKVtjSF1bY0hdNA==

>  <s_glide_docking_method>  (1) 
confgen

>  <s_i_glide_gridfile>  (1) 
gpcr_5ht2c_6bqh_protein_autoprepared_prepared

>  <s_lp_Force_Field>  (1) 
S-OPLS

>  <s_lp_Variant>  (1) 
DiffSBDD_66-2

>  <s_m_source_file>  (1) 
generated_GPCR_5HT2C_ligand_DiffSBDD_2026-06-23_prepared.sdf

>  <GenAI_Model>  (1) 
DiffSBDD

>  <Protein>  (1) 
GPCR_5HT2C

$$$$
DiffSBDD_96
     RDKit          3D

  0  0  0  0  0  0  0  0  0  0999 V3000
M  V30 BEGIN CTAB
M  V30 COUNTS 67 70 0 0 1
M  V30 BEGIN ATOM
M  V30 1 F 39.250690 36.229396 63.954195 0
M  V30 2 C 40.783066 34.979500 61.322943 0 CFG=1
M  V30 3 C 41.510349 33.847896 61.993205 0
M  V30 4 O 41.645136 30.318037 62.567864 0
M  V30 5 C 38.334675 31.590718 57.906037 0
M  V30 6 C 39.504465 34.937630 60.461000 0 CFG=2
M  V30 7 N 37.249294 32.355011 58.567760 0 CHG=1
M  V30 8 F 39.645244 29.198788 50.452530 0
M  V30 9 C 38.860761 27.602186 53.652446 0
M  V30 10 C 41.130490 32.610244 66.165812 0
M  V30 11 C 39.444518 29.926253 54.055497 0
M  V30 12 O 39.245159 33.730604 62.582729 0
M  V30 13 O 36.387262 25.337756 56.884386 0
M  V30 14 C 38.525705 27.059944 56.100826 0
M  V30 15 F 39.382689 37.342281 62.124986 0
M  V30 16 C 39.645130 30.097950 52.665314 0
M  V30 17 C 39.423500 35.003970 61.950760 0 CFG=1
M  V30 18 C 37.878401 30.345274 57.136292 0
M  V30 19 C 41.842324 31.092027 63.533195 0
M  V30 20 S 38.389032 26.147040 54.564944 0
M  V30 21 C 40.423918 32.923631 62.522457 0 CFG=2
M  V30 22 C 39.112135 33.738356 59.601328 0
M  V30 23 C 39.053943 28.655283 54.597776 0
M  V30 24 O 38.045139 24.158624 57.766649 0 CHG=-1
M  V30 25 N 38.870632 28.369068 55.885663 0 CHG=1
M  V30 26 C 41.061500 33.808206 67.113957 0
M  V30 27 O 41.104628 33.102483 64.831499 0
M  V30 28 C 40.750359 32.153571 63.819510 0 CFG=2
M  V30 29 C 37.530523 25.227218 57.368741 0
M  V30 30 F 37.561237 36.275785 62.567396 0
M  V30 31 N 39.643843 26.233305 58.149537 0
M  V30 32 C 39.447512 29.026206 51.778976 0
M  V30 33 C 37.654166 33.701711 59.071358 0
M  V30 34 C 39.047681 27.779917 52.271196 0
M  V30 35 O 42.844557 31.084150 64.276625 0 CHG=-1
M  V30 36 C 39.102428 29.447035 56.869921 0
M  V30 37 C 38.364066 26.512286 57.498327 0 CFG=1
M  V30 38 C 38.889082 36.232494 62.675365 0
M  V30 39 H 41.353030 35.904962 61.257255 0
M  V30 40 H 42.234031 33.337611 61.362889 0
M  V30 41 H 42.045131 34.277109 62.839050 0
M  V30 42 H 39.033104 31.261712 58.675188 0
M  V30 43 H 38.880507 32.241638 57.222172 0
M  V30 44 H 39.197804 35.883658 60.031442 0
M  V30 45 H 36.475545 32.423179 57.898686 0
M  V30 46 H 40.297980 31.931479 66.346072 0
M  V30 47 H 42.042636 32.051457 66.368382 0
M  V30 48 H 39.603060 30.768045 54.710251 0
M  V30 49 H 39.951771 31.061254 52.280905 0
M  V30 50 H 37.394317 30.642847 56.204787 0
M  V30 51 H 37.136758 29.786181 57.709410 0
M  V30 52 H 40.232298 32.163915 61.772583 0
M  V30 53 H 39.284381 32.828934 60.152272 0
M  V30 54 H 39.799108 33.720833 58.756910 0
M  V30 55 H 41.058292 33.483405 68.154179 0
M  V30 56 H 41.921055 34.462310 66.970026 0
M  V30 57 H 40.160045 34.396213 66.939316 0
M  V30 58 H 39.851761 31.615848 64.122493 0
M  V30 59 H 39.598088 25.270692 58.470206 0
M  V30 60 H 37.537501 34.427150 58.265006 0
M  V30 61 H 36.956211 33.994553 59.856806 0
M  V30 62 H 38.892752 26.953312 51.591115 0
M  V30 63 H 39.387855 28.975024 57.810006 0
M  V30 64 H 39.992720 30.012672 56.600078 0
M  V30 65 H 36.916033 31.803574 59.344223 0
M  V30 66 H 40.414460 26.257256 57.498642 0
M  V30 67 H 37.796820 27.214570 58.108537 0
M  V30 END ATOM
M  V30 BEGIN BOND
M  V30 1 1 3 2
M  V30 2 1 6 2
M  V30 3 1 7 5
M  V30 4 2 16 11
M  V30 5 1 17 2
M  V30 6 1 17 6
M  V30 7 1 17 12
M  V30 8 1 18 5
M  V30 9 2 19 4
M  V30 10 1 20 9
M  V30 11 1 20 14
M  V30 12 1 21 3
M  V30 13 1 21 12
M  V30 14 1 22 6
M  V30 15 2 23 9
M  V30 16 1 23 11
M  V30 17 2 25 14
M  V30 18 1 25 23
M  V30 19 1 26 10
M  V30 20 1 27 10
M  V30 21 1 28 19
M  V30 22 1 28 21
M  V30 23 1 28 27
M  V30 24 2 29 13
M  V30 25 1 29 24
M  V30 26 1 32 8
M  V30 27 1 32 16
M  V30 28 1 33 7
M  V30 29 1 33 22
M  V30 30 1 34 9
M  V30 31 2 34 32
M  V30 32 1 35 19
M  V30 33 1 36 18
M  V30 34 1 36 25
M  V30 35 1 37 14
M  V30 36 1 37 29
M  V30 37 1 37 31
M  V30 38 1 38 1
M  V30 39 1 38 15
M  V30 40 1 17 38 CFG=3
M  V30 41 1 38 30
M  V30 42 1 2 39 CFG=3
M  V30 43 1 40 3
M  V30 44 1 41 3
M  V30 45 1 42 5
M  V30 46 1 43 5
M  V30 47 1 6 44 CFG=3
M  V30 48 1 45 7
M  V30 49 1 46 10
M  V30 50 1 47 10
M  V30 51 1 48 11
M  V30 52 1 49 16
M  V30 53 1 50 18
M  V30 54 1 51 18
M  V30 55 1 21 52 CFG=3
M  V30 56 1 53 22
M  V30 57 1 54 22
M  V30 58 1 55 26
M  V30 59 1 56 26
M  V30 60 1 57 26
M  V30 61 1 28 58 CFG=1
M  V30 62 1 59 31
M  V30 63 1 60 33
M  V30 64 1 61 33
M  V30 65 1 62 34
M  V30 66 1 63 36
M  V30 67 1 64 36
M  V30 68 1 65 7
M  V30 69 1 66 31
M  V30 70 1 37 67 CFG=1
M  V30 END BOND
M  V30 END CTAB
M  END
>  <i_epik_Tot_Q>  (1) 
0

>  <i_epik_Tot_abs_Q>  (1) 
4

>  <i_i_glide_confnum>  (1) 
2750

>  <i_i_glide_lignum>  (1) 
228

>  <i_i_glide_posenum>  (1) 
340

>  <i_i_glide_rotatable_bonds>  (1) 
14

>  <i_lp_mmshare_version>  (1) 
72125

>  <i_m_source_file_index>  (1) 
97

>  <i_f3d_flags>  (1) 
0

>  <num_sample>  (1) 
100

>  <b_lp_Chiralities_Consistent>  (1) 
1

>  <r_epik_Charging_Adjusted_Penalty>  (1) 
0.0011493244952256365

>  <r_epik_Ionization_Penalty>  (1) 
0.16754632311336878

>  <r_epik_Ionization_Penalty_Charging>  (1) 
0.0011493244952256365

>  <r_epik_Ionization_Penalty_Neutral>  (1) 
0.16639699861814314

>  <r_epik_State_Penalty>  (1) 
-0

>  <r_glide_ring_energy>  (1) 
0

>  <r_i_docking_score>  (1) 
-9.7461228298631966

>  <r_i_glide_ecoul>  (1) 
-7.4491899708378604

>  <r_i_glide_eff_state_penalty>  (1) 
-0

>  <r_i_glide_einternal>  (1) 
18.849585856157855

>  <r_i_glide_emodel>  (1) 
-76.58889649540572

>  <r_i_glide_emodel_strain>  (1) 
4.1995292116108587

>  <r_i_glide_energy>  (1) 
-51.167719216752459

>  <r_i_glide_erotb>  (1) 
0.57183300328268483

>  <r_i_glide_esite>  (1) 
-0.10000000000000001

>  <r_i_glide_evdw>  (1) 
-43.718529245914596

>  <r_i_glide_gscore>  (1) 
-9.7461228298631966

>  <r_i_glide_gscore_strain>  (1) 
0.04988230290271467

>  <r_i_glide_hbond>  (1) 
-0.35999999999999999

>  <r_i_glide_ligand_efficiency>  (1) 
-0.25647691657534727

>  <r_i_glide_ligand_efficiency_ln>  (1) 
-2.1015507840048864

>  <r_i_glide_ligand_efficiency_sa>  (1) 
-0.86226908593794716

>  <r_i_glide_lipo>  (1) 
-4.1924847661678504

>  <r_i_glide_metal>  (1) 
-0

>  <r_i_glide_rewards>  (1) 
-2.4120484119593386

>  <r_lp_Energy>  (1) 
45.686198999999995

>  <r_lp_tautomer_probability>  (1) 
1

>  <s_epik_cmdline>  (1) 
J2VwaWtfcHl0aG9uJywgJy1waHQnLCAnMS4wJywgJy1waCcsICc3LjQnLCAnLXRuJywgJzgnLCAnLW1hJywgJzUwMCcsICctaW1hZScsICc8aW5maWxlLm1hZT4nLCAnLW9tYWUnLCAnPG91dGZpbGUubWFlPic=

>  <s_epik_input>  (1) 
W0NIM11bQ0gyXU9bQ0BIXShDKD1PKVtPSF0pW0NAQEhdKE8xKVtDSDJdW0NASF0oW0NAXTEyQyhGKShGKUYpW0NASF0yW0NIMl1bQ0gyXVtOSF1bQ0gyXVtDSDJdW0NIMl1OKFtDQEBIXShTMylcQyg9TlxbSF0pQyg9TylbT0hdKWMoYzM0KVtjSF1bY0hdYyhGKVtjSF00

>  <s_glide_docking_method>  (1) 
confgen

>  <s_i_glide_gridfile>  (1) 
gpcr_5ht2c_6bqh_protein_autoprepared_prepared

>  <s_lp_Force_Field>  (1) 
S-OPLS

>  <s_lp_Variant>  (1) 
DiffSBDD_96-1

>  <s_m_source_file>  (1) 
generated_GPCR_5HT2C_ligand_DiffSBDD_2026-06-23_prepared.sdf

>  <GenAI_Model>  (1) 
DiffSBDD

>  <Protein>  (1) 
GPCR_5HT2C

$$$$
DiffSBDD_28
     RDKit          3D

  0  0  0  0  0  0  0  0  0  0999 V3000
M  V30 BEGIN CTAB
M  V30 COUNTS 60 64 0 0 1
M  V30 BEGIN ATOM
M  V30 1 O 38.845136 27.183964 59.205535 0
M  V30 2 O 40.594410 31.962055 64.628750 0
M  V30 3 C 39.666072 34.169277 61.838986 0
M  V30 4 C 38.931262 34.044557 60.505670 0
M  V30 5 C 39.645139 28.277424 50.800839 0
M  V30 6 C 37.850323 26.300859 54.251435 0
M  V30 7 C 38.749208 36.279240 62.950993 0
M  V30 8 C 37.830487 25.946874 56.668503 0
M  V30 9 C 38.980022 27.713880 58.109957 0
M  V30 10 C 39.194478 27.599229 51.945346 0
M  V30 11 C 37.482911 25.526265 55.375460 0
M  V30 12 C 41.212245 35.990860 62.842252 0
M  V30 13 C 38.273235 32.678764 60.291639 0
M  V30 14 N 37.479186 25.166211 57.767759 0
M  V30 15 C 38.895671 30.327646 60.117812 0
M  V30 16 C 38.901167 27.915383 55.746658 0
M  V30 17 C 38.858354 30.246077 58.573765 0
M  V30 18 C 39.576849 31.685137 61.999670 0
M  V30 19 C 39.710172 30.353809 52.038150 0
M  V30 20 S 39.830687 29.337753 56.125766 0
M  V30 21 C 39.672489 29.087590 57.961480 0 CFG=2
M  V30 22 C 39.245135 29.693875 53.185933 0
M  V30 23 C 38.575371 27.517549 54.402209 0
M  V30 24 C 39.003185 28.288148 53.172590 0
M  V30 25 C 39.914474 29.647915 50.852231 0
M  V30 26 C 38.540419 27.158902 56.824605 0
M  V30 27 C 41.505004 34.059363 64.379468 0
M  V30 28 N 39.280383 31.665468 60.567762 0
M  V30 29 C 40.699587 33.069458 63.879433 0
M  V30 30 C 39.931405 35.585872 62.251497 0 CFG=1
M  V30 31 F 40.365681 30.290737 49.754266 0
M  V30 32 C 41.872037 35.337756 63.787346 0
M  V30 33 C 39.984943 33.057798 62.563572 0
M  V30 34 H 40.042671 31.349866 64.167864 0
M  V30 35 H 38.162557 34.814567 60.432853 0
M  V30 36 H 39.645558 34.238621 59.706188 0
M  V30 37 H 39.796608 27.737751 49.884402 0
M  V30 38 H 37.575124 25.959386 53.270366 0
M  V30 39 H 38.764128 36.137260 64.030926 0
M  V30 40 H 37.788075 35.936713 62.567714 0
M  V30 41 H 38.793844 37.355858 62.787398 0
M  V30 42 H 39.018126 26.537772 51.889361 0
M  V30 43 H 36.937263 24.604219 55.236368 0
M  V30 44 H 41.604390 36.937753 62.502877 0
M  V30 45 H 37.409800 32.549373 60.946287 0
M  V30 46 H 37.907319 32.615245 59.266410 0
M  V30 47 H 37.850595 25.383703 58.684215 0
M  V30 48 H 37.122396 24.229936 57.642822 0
M  V30 49 H 39.628669 29.613510 60.495961 0
M  V30 50 H 37.932945 30.042496 60.543956 0
M  V30 51 H 37.820062 30.194921 58.240730 0
M  V30 52 H 39.245055 31.167789 58.138550 0
M  V30 53 H 38.708289 31.329038 62.555999 0
M  V30 54 H 40.387831 30.980279 62.187616 0
M  V30 55 H 39.902441 31.416198 52.070085 0
M  V30 56 H 40.671358 29.046516 58.396490 0
M  V30 57 H 39.071898 30.271694 54.065946 0
M  V30 58 H 41.973669 33.840471 65.328623 0
M  V30 59 H 40.008016 36.089142 61.285999 0
M  V30 60 H 42.767386 35.809873 64.167671 0
M  V30 END ATOM
M  V30 BEGIN BOND
M  V30 1 1 4 3
M  V30 2 2 9 1
M  V30 3 2 10 5
M  V30 4 2 11 6
M  V30 5 1 11 8
M  V30 6 1 13 4
M  V30 7 1 14 8
M  V30 8 1 17 15
M  V30 9 1 20 16
M  V30 10 1 21 9
M  V30 11 1 21 17
M  V30 12 1 21 20
M  V30 13 1 22 19
M  V30 14 1 23 6
M  V30 15 2 23 16
M  V30 16 1 24 10
M  V30 17 2 24 22
M  V30 18 1 24 23
M  V30 19 1 25 5
M  V30 20 2 25 19
M  V30 21 2 26 8
M  V30 22 1 26 9
M  V30 23 1 26 16
M  V30 24 1 28 13
M  V30 25 1 28 15
M  V30 26 1 28 18
M  V30 27 1 29 2
M  V30 28 2 29 27
M  V30 29 1 30 3
M  V30 30 1 30 7
M  V30 31 1 30 12
M  V30 32 1 31 25
M  V30 33 2 32 12
M  V30 34 1 32 27
M  V30 35 2 33 3
M  V30 36 1 33 18
M  V30 37 1 33 29
M  V30 38 1 34 2
M  V30 39 1 35 4
M  V30 40 1 36 4
M  V30 41 1 37 5
M  V30 42 1 38 6
M  V30 43 1 39 7
M  V30 44 1 40 7
M  V30 45 1 41 7
M  V30 46 1 42 10
M  V30 47 1 43 11
M  V30 48 1 44 12
M  V30 49 1 45 13
M  V30 50 1 46 13
M  V30 51 1 47 14
M  V30 52 1 48 14
M  V30 53 1 49 15
M  V30 54 1 50 15
M  V30 55 1 51 17
M  V30 56 1 52 17
M  V30 57 1 53 18
M  V30 58 1 54 18
M  V30 59 1 55 19
M  V30 60 1 21 56 CFG=1
M  V30 61 1 57 22
M  V30 62 1 58 27
M  V30 63 1 30 59 CFG=3
M  V30 64 1 60 32
M  V30 END BOND
M  V30 END CTAB
M  END
>  <i_epik_Tot_Q>  (1) 
0

>  <i_epik_Tot_abs_Q>  (1) 
0

>  <i_i_glide_confnum>  (1) 
16

>  <i_i_glide_lignum>  (1) 
70

>  <i_i_glide_posenum>  (1) 
289

>  <i_i_glide_rotatable_bonds>  (1) 
5

>  <i_lp_mmshare_version>  (1) 
72125

>  <i_m_source_file_index>  (1) 
29

>  <i_f3d_flags>  (1) 
0

>  <num_sample>  (1) 
100

>  <b_lp_Chiralities_Consistent>  (1) 
1

>  <r_epik_Charging_Adjusted_Penalty>  (1) 
0.015364548353272162

>  <r_epik_Ionization_Penalty>  (1) 
0.015367332939937649

>  <r_epik_Ionization_Penalty_Charging>  (1) 
0

>  <r_epik_Ionization_Penalty_Neutral>  (1) 
0.015367332939937649

>  <r_epik_State_Penalty>  (1) 
0.015364548353272162

>  <r_glide_ring_energy>  (1) 
0

>  <r_i_docking_score>  (1) 
-9.660487372245413

>  <r_i_glide_ecoul>  (1) 
-1.9204521051051708

>  <r_i_glide_eff_state_penalty>  (1) 
0.015364548353272162

>  <r_i_glide_einternal>  (1) 
5.4297694922645636

>  <r_i_glide_emodel>  (1) 
-69.251110284278539

>  <r_i_glide_emodel_strain>  (1) 
0.8000840537674776

>  <r_i_glide_energy>  (1) 
-47.723604142785938

>  <r_i_glide_erotb>  (1) 
0.37656191168379749

>  <r_i_glide_esite>  (1) 
0

>  <r_i_glide_evdw>  (1) 
-45.803152037680768

>  <r_i_glide_gscore>  (1) 
-9.675851920598685

>  <r_i_glide_gscore_strain>  (1) 
0

>  <r_i_glide_hbond>  (1) 
0

>  <r_i_glide_ligand_efficiency>  (1) 
-0.29274204158319433

>  <r_i_glide_ligand_efficiency_ln>  (1) 
-2.1484423722607433

>  <r_i_glide_ligand_efficiency_sa>  (1) 
-0.93898014821116171

>  <r_i_glide_lipo>  (1) 
-5.5952966849884609

>  <r_i_glide_metal>  (1) 
-0

>  <r_i_glide_rewards>  (1) 
-1.8788917296442063

>  <r_lp_Energy>  (1) 
35.127381999999997

>  <r_lp_tautomer_probability>  (1) 
0.99995000000000001

>  <s_epik_cmdline>  (1) 
J2VwaWtfcHl0aG9uJywgJy1waHQnLCAnMS4wJywgJy1waCcsICc3LjQnLCAnLXRuJywgJzgnLCAnLW1hJywgJzUwMCcsICctaW1hZScsICc8aW5maWxlLm1hZT4nLCAnLW9tYWUnLCAnPG91dGZpbGUubWFlPic=

>  <s_epik_input>  (1) 
W2NIXTFbY0hdYyhGKVtjSF1bY0hdYzEtYzJbY0hdW2NIXWMoW05IMl0pYyhjMjMpQyg9TylbQ0BASF0oUzMpW0NIMl1bQ0gyXU4oW0NIMl1bQ0gyXTQpW0NIMl1DKD1DNDUpQyhbT0hdKT1bQ0hdW0NIXT1bQ0hdW0NAQEhdNVtDSDNd

>  <s_glide_docking_method>  (1) 
confgen

>  <s_i_glide_gridfile>  (1) 
gpcr_5ht2c_6bqh_protein_autoprepared_prepared

>  <s_lp_Force_Field>  (1) 
S-OPLS

>  <s_lp_Variant>  (1) 
DiffSBDD_28-1

>  <s_m_source_file>  (1) 
generated_GPCR_5HT2C_ligand_DiffSBDD_2026-06-23_prepared.sdf

>  <GenAI_Model>  (1) 
DiffSBDD

>  <Protein>  (1) 
GPCR_5HT2C

$$$$
DiffSBDD_96
     RDKit          3D

  0  0  0  0  0  0  0  0  0  0999 V3000
M  V30 BEGIN CTAB
M  V30 COUNTS 67 70 0 0 1
M  V30 BEGIN ATOM
M  V30 1 F 39.589837 36.137097 63.850028 0
M  V30 2 C 41.004082 34.573024 61.419171 0 CFG=1
M  V30 3 C 41.522012 33.285116 61.976038 0
M  V30 4 O 41.245132 29.766371 62.200357 0
M  V30 5 C 38.151649 32.179015 57.007930 0
M  V30 6 C 39.853163 34.702690 60.424695 0 CFG=2
M  V30 7 N 37.645137 32.239726 58.394033 0 CHG=1
M  V30 8 F 39.721193 29.078965 50.098829 0
M  V30 9 C 38.845165 27.723645 53.381119 0
M  V30 10 C 40.949980 31.482272 66.024385 0
M  V30 11 C 39.484795 30.051379 53.636866 0
M  V30 12 O 39.245149 33.529849 62.567797 0
M  V30 13 O 38.469781 24.517253 57.367820 0
M  V30 14 C 38.445161 27.356175 55.856102 0
M  V30 15 F 39.638079 37.113968 61.943833 0
M  V30 16 C 39.708926 30.123542 52.243703 0
M  V30 17 C 39.604196 34.763476 61.916204 0 CFG=1
M  V30 18 C 37.861969 30.814772 56.356041 0
M  V30 19 C 41.535928 30.514979 63.162436 0
M  V30 20 S 38.306818 26.353442 54.374893 0
M  V30 21 C 40.270275 32.535040 62.442374 0 CFG=2
M  V30 22 C 39.453809 33.583785 59.462530 0
M  V30 23 C 39.047203 28.832096 54.255550 0
M  V30 24 O 36.445146 25.337747 56.967738 0 CHG=-1
M  V30 25 N 38.823426 28.644639 55.554596 0 CHG=1
M  V30 26 C 40.012729 30.276010 66.225765 0
M  V30 27 O 40.749476 32.235901 64.822251 0
M  V30 28 C 40.458112 31.535458 63.605722 0 CFG=2
M  V30 29 C 37.664571 25.461857 57.205437 0
M  V30 30 F 37.824164 36.138934 62.567733 0
M  V30 31 N 39.477884 26.880945 58.058581 0
M  V30 32 C 39.499950 29.000743 51.429480 0
M  V30 33 C 37.954078 33.485880 59.138284 0
M  V30 34 C 39.062808 27.801904 51.996626 0
M  V30 35 O 42.626289 30.525459 63.773505 0 CHG=-1
M  V30 36 C 39.023458 29.804817 56.454982 0
M  V30 37 C 38.235752 26.891086 57.282652 0 CFG=1
M  V30 38 C 39.152908 36.056811 62.595238 0
M  V30 39 H 41.685867 35.418925 61.471798 0
M  V30 40 H 42.107526 32.727055 61.245393 0
M  V30 41 H 42.164994 33.508911 62.828687 0
M  V30 42 H 39.217643 32.398455 56.957578 0
M  V30 43 H 37.645390 32.961776 56.440075 0
M  V30 44 H 39.806240 35.673246 59.948782 0
M  V30 45 H 36.636030 32.142553 58.293340 0
M  V30 46 H 41.986235 31.153238 66.091534 0
M  V30 47 H 40.819404 32.177364 66.853342 0
M  V30 48 H 39.658087 30.930882 54.237244 0
M  V30 49 H 40.045297 31.050640 51.800732 0
M  V30 50 H 37.616756 31.006059 55.311981 0
M  V30 51 H 36.961890 30.358129 56.769706 0
M  V30 52 H 39.916580 31.898236 61.640298 0
M  V30 53 H 39.800023 32.623428 59.806781 0
M  V30 54 H 40.012840 33.737760 58.544714 0
M  V30 55 H 40.107011 29.875964 67.235835 0
M  V30 56 H 38.969787 30.537736 66.067137 0
M  V30 57 H 40.249615 29.464857 65.537873 0
M  V30 58 H 39.521039 30.992571 63.730500 0
M  V30 59 H 39.579668 25.944425 58.437982 0
M  V30 60 H 37.617891 34.355963 58.572145 0
M  V30 61 H 37.382239 33.471105 60.067124 0
M  V30 62 H 38.896984 26.937780 51.371040 0
M  V30 63 H 39.098551 29.446804 57.481255 0
M  V30 64 H 39.994619 30.254474 56.244042 0
M  V30 65 H 37.989342 31.446702 58.914586 0
M  V30 66 H 40.286389 27.001326 57.467318 0
M  V30 67 H 37.503592 27.531624 57.774197 0
M  V30 END ATOM
M  V30 BEGIN BOND
M  V30 1 1 3 2
M  V30 2 1 6 2
M  V30 3 1 7 5
M  V30 4 2 16 11
M  V30 5 1 17 2
M  V30 6 1 17 6
M  V30 7 1 17 12
M  V30 8 1 18 5
M  V30 9 2 19 4
M  V30 10 1 20 9
M  V30 11 1 20 14
M  V30 12 1 21 3
M  V30 13 1 21 12
M  V30 14 1 22 6
M  V30 15 2 23 9
M  V30 16 1 23 11
M  V30 17 2 25 14
M  V30 18 1 25 23
M  V30 19 1 26 10
M  V30 20 1 27 10
M  V30 21 1 28 19
M  V30 22 1 28 21
M  V30 23 1 28 27
M  V30 24 2 29 13
M  V30 25 1 29 24
M  V30 26 1 32 8
M  V30 27 1 32 16
M  V30 28 1 33 7
M  V30 29 1 33 22
M  V30 30 1 34 9
M  V30 31 2 34 32
M  V30 32 1 35 19
M  V30 33 1 36 18
M  V30 34 1 36 25
M  V30 35 1 37 14
M  V30 36 1 37 29
M  V30 37 1 37 31
M  V30 38 1 38 1
M  V30 39 1 38 15
M  V30 40 1 17 38 CFG=3
M  V30 41 1 38 30
M  V30 42 1 2 39 CFG=3
M  V30 43 1 40 3
M  V30 44 1 41 3
M  V30 45 1 42 5
M  V30 46 1 43 5
M  V30 47 1 6 44 CFG=3
M  V30 48 1 45 7
M  V30 49 1 46 10
M  V30 50 1 47 10
M  V30 51 1 48 11
M  V30 52 1 49 16
M  V30 53 1 50 18
M  V30 54 1 51 18
M  V30 55 1 21 52 CFG=3
M  V30 56 1 53 22
M  V30 57 1 54 22
M  V30 58 1 55 26
M  V30 59 1 56 26
M  V30 60 1 57 26
M  V30 61 1 28 58 CFG=1
M  V30 62 1 59 31
M  V30 63 1 60 33
M  V30 64 1 61 33
M  V30 65 1 62 34
M  V30 66 1 63 36
M  V30 67 1 64 36
M  V30 68 1 65 7
M  V30 69 1 66 31
M  V30 70 1 37 67 CFG=1
M  V30 END BOND
M  V30 END CTAB
M  END
>  <i_epik_Tot_Q>  (1) 
0

>  <i_epik_Tot_abs_Q>  (1) 
4

>  <i_i_glide_confnum>  (1) 
564

>  <i_i_glide_lignum>  (1) 
228

>  <i_i_glide_posenum>  (1) 
107

>  <i_i_glide_rotatable_bonds>  (1) 
14

>  <i_lp_mmshare_version>  (1) 
72125

>  <i_m_source_file_index>  (1) 
97

>  <i_f3d_flags>  (1) 
0

>  <num_sample>  (1) 
100

>  <b_lp_Chiralities_Consistent>  (1) 
1

>  <r_epik_Charging_Adjusted_Penalty>  (1) 
0.0011493244952256365

>  <r_epik_Ionization_Penalty>  (1) 
0.16754632311336878

>  <r_epik_Ionization_Penalty_Charging>  (1) 
0.0011493244952256365

>  <r_epik_Ionization_Penalty_Neutral>  (1) 
0.16639699861814314

>  <r_epik_State_Penalty>  (1) 
-0

>  <r_glide_ring_energy>  (1) 
0

>  <r_i_docking_score>  (1) 
-9.5514372619437662

>  <r_i_glide_ecoul>  (1) 
-6.6942346027105719

>  <r_i_glide_eff_state_penalty>  (1) 
-0

>  <r_i_glide_einternal>  (1) 
18.992648964761308

>  <r_i_glide_emodel>  (1) 
-76.205380204943708

>  <r_i_glide_emodel_strain>  (1) 
3.224541496310664

>  <r_i_glide_energy>  (1) 
-50.660707716088311

>  <r_i_glide_erotb>  (1) 
0.57183300328268483

>  <r_i_glide_esite>  (1) 
-0.1163938694177012

>  <r_i_glide_evdw>  (1) 
-43.966473113377738

>  <r_i_glide_gscore>  (1) 
-9.5514372619437662

>  <r_i_glide_gscore_strain>  (1) 
0

>  <r_i_glide_hbond>  (1) 
-0.31916945985225836

>  <r_i_glide_ligand_efficiency>  (1) 
-0.25135361215641489

>  <r_i_glide_ligand_efficiency_ln>  (1) 
-2.0595708484922888

>  <r_i_glide_ligand_efficiency_sa>  (1) 
-0.84504466247995202

>  <r_i_glide_lipo>  (1) 
-3.9753144659265374

>  <r_i_glide_metal>  (1) 
-0

>  <r_i_glide_rewards>  (1) 
-2.5099336239544816

>  <r_lp_Energy>  (1) 
45.686198999999995

>  <r_lp_tautomer_probability>  (1) 
1

>  <s_epik_cmdline>  (1) 
J2VwaWtfcHl0aG9uJywgJy1waHQnLCAnMS4wJywgJy1waCcsICc3LjQnLCAnLXRuJywgJzgnLCAnLW1hJywgJzUwMCcsICctaW1hZScsICc8aW5maWxlLm1hZT4nLCAnLW9tYWUnLCAnPG91dGZpbGUubWFlPic=

>  <s_epik_input>  (1) 
W0NIM11bQ0gyXU9bQ0BIXShDKD1PKVtPSF0pW0NAQEhdKE8xKVtDSDJdW0NASF0oW0NAXTEyQyhGKShGKUYpW0NASF0yW0NIMl1bQ0gyXVtOSF1bQ0gyXVtDSDJdW0NIMl1OKFtDQEBIXShTMylcQyg9TlxbSF0pQyg9TylbT0hdKWMoYzM0KVtjSF1bY0hdYyhGKVtjSF00

>  <s_glide_docking_method>  (1) 
confgen

>  <s_i_glide_gridfile>  (1) 
gpcr_5ht2c_6bqh_protein_autoprepared_prepared

>  <s_lp_Force_Field>  (1) 
S-OPLS

>  <s_lp_Variant>  (1) 
DiffSBDD_96-1

>  <s_m_source_file>  (1) 
generated_GPCR_5HT2C_ligand_DiffSBDD_2026-06-23_prepared.sdf

>  <GenAI_Model>  (1) 
DiffSBDD

>  <Protein>  (1) 
GPCR_5HT2C

$$$$
DiffSBDD_28
     RDKit          3D

  0  0  0  0  0  0  0  0  0  0999 V3000
M  V30 BEGIN CTAB
M  V30 COUNTS 60 64 0 0 1
M  V30 BEGIN ATOM
M  V30 1 O 38.845148 27.337743 59.367744 0
M  V30 2 O 36.972031 35.241121 59.629331 0
M  V30 3 C 39.446105 34.119470 62.098413 0
M  V30 4 C 40.153896 32.830027 62.492655 0
M  V30 5 C 39.649430 28.259500 50.900058 0
M  V30 6 C 38.043416 26.280713 54.412941 0
M  V30 7 C 41.060014 36.022204 61.787505 0
M  V30 8 C 38.000186 25.981311 56.832420 0
M  V30 9 C 38.948545 27.870551 58.267567 0
M  V30 10 C 39.243264 27.605198 52.072587 0
M  V30 11 C 37.721936 25.504756 55.545623 0
M  V30 12 C 39.155427 36.347857 63.336843 0
M  V30 13 C 40.032601 31.734099 61.437613 0
M  V30 14 N 37.704653 25.188213 57.937398 0
M  V30 15 C 38.401579 30.331175 60.293899 0
M  V30 16 C 38.893065 28.032690 55.891984 0
M  V30 17 C 38.708245 30.439483 58.770855 0
M  V30 18 C 37.985877 32.759400 60.593971 0
M  V30 19 C 39.664434 30.375043 52.069370 0
M  V30 20 S 39.645147 29.563875 56.269432 0
M  V30 21 C 39.530627 29.298929 58.115025 0 CFG=2
M  V30 22 C 39.242629 29.738019 53.249459 0
M  V30 23 C 38.649636 27.566147 54.543100 0
M  V30 24 C 39.042141 28.325352 53.284659 0
M  V30 25 C 39.869168 29.637918 50.900295 0
M  V30 26 C 38.585187 27.260638 56.979294 0
M  V30 27 C 37.518844 36.503594 61.476859 0
M  V30 28 N 38.631965 31.540755 61.102857 0
M  V30 29 C 37.654802 35.328482 60.780102 0
M  V30 30 C 40.038059 35.352209 62.712170 0 CFG=1
M  V30 31 F 40.273842 30.260057 49.768473 0
M  V30 32 C 38.071780 36.867214 62.776765 0
M  V30 33 C 38.410127 34.107566 61.212335 0
M  V30 34 H 37.102792 34.376500 59.271773 0
M  V30 35 H 41.214685 33.025712 62.653883 0
M  V30 36 H 39.748362 32.492514 63.446922 0
M  V30 37 H 39.804510 27.693224 50.000085 0
M  V30 38 H 37.825728 25.884903 53.436952 0
M  V30 39 H 40.566427 36.537755 60.967722 0
M  V30 40 H 41.748936 35.296146 61.358207 0
M  V30 41 H 41.645133 36.761116 62.334170 0
M  V30 42 H 39.106420 26.537755 52.048214 0
M  V30 43 H 37.270081 24.531979 55.417565 0
M  V30 44 H 39.465285 36.710917 64.307054 0
M  V30 45 H 40.614228 32.014005 60.567699 0
M  V30 46 H 40.456863 30.808191 61.828007 0
M  V30 47 H 38.027672 25.457276 58.858862 0
M  V30 48 H 37.433100 24.222121 57.823246 0
M  V30 49 H 38.959765 29.508371 60.742145 0
M  V30 50 H 37.350430 30.063462 60.404189 0
M  V30 51 H 37.759219 30.542826 58.241725 0
M  V30 52 H 39.245069 31.359104 58.552433 0
M  V30 53 H 38.170040 32.862217 59.526789 0
M  V30 54 H 36.907268 32.643710 60.708947 0
M  V30 55 H 39.820972 31.443830 52.063340 0
M  V30 56 H 40.540038 29.294725 58.526489 0
M  V30 57 H 39.068137 30.339522 54.108419 0
M  V30 58 H 36.872303 37.242216 61.024292 0
M  V30 59 H 40.605522 34.993244 63.572466 0
M  V30 60 H 37.559190 37.642130 63.327345 0
M  V30 END ATOM
M  V30 BEGIN BOND
M  V30 1 1 4 3
M  V30 2 2 9 1
M  V30 3 2 10 5
M  V30 4 2 11 6
M  V30 5 1 11 8
M  V30 6 1 13 4
M  V30 7 1 14 8
M  V30 8 1 17 15
M  V30 9 1 20 16
M  V30 10 1 21 9
M  V30 11 1 21 17
M  V30 12 1 21 20
M  V30 13 1 22 19
M  V30 14 1 23 6
M  V30 15 2 23 16
M  V30 16 1 24 10
M  V30 17 2 24 22
M  V30 18 1 24 23
M  V30 19 1 25 5
M  V30 20 2 25 19
M  V30 21 2 26 8
M  V30 22 1 26 9
M  V30 23 1 26 16
M  V30 24 1 28 13
M  V30 25 1 28 15
M  V30 26 1 28 18
M  V30 27 1 29 2
M  V30 28 2 29 27
M  V30 29 1 30 3
M  V30 30 1 30 7
M  V30 31 1 30 12
M  V30 32 1 31 25
M  V30 33 2 32 12
M  V30 34 1 32 27
M  V30 35 2 33 3
M  V30 36 1 33 18
M  V30 37 1 33 29
M  V30 38 1 34 2
M  V30 39 1 35 4
M  V30 40 1 36 4
M  V30 41 1 37 5
M  V30 42 1 38 6
M  V30 43 1 39 7
M  V30 44 1 40 7
M  V30 45 1 41 7
M  V30 46 1 42 10
M  V30 47 1 43 11
M  V30 48 1 44 12
M  V30 49 1 45 13
M  V30 50 1 46 13
M  V30 51 1 47 14
M  V30 52 1 48 14
M  V30 53 1 49 15
M  V30 54 1 50 15
M  V30 55 1 51 17
M  V30 56 1 52 17
M  V30 57 1 53 18
M  V30 58 1 54 18
M  V30 59 1 55 19
M  V30 60 1 21 56 CFG=1
M  V30 61 1 57 22
M  V30 62 1 58 27
M  V30 63 1 30 59 CFG=1
M  V30 64 1 60 32
M  V30 END BOND
M  V30 END CTAB
M  END
>  <i_epik_Tot_Q>  (1) 
0

>  <i_epik_Tot_abs_Q>  (1) 
0

>  <i_i_glide_confnum>  (1) 
35

>  <i_i_glide_lignum>  (1) 
70

>  <i_i_glide_posenum>  (1) 
143

>  <i_i_glide_rotatable_bonds>  (1) 
5

>  <i_lp_mmshare_version>  (1) 
72125

>  <i_m_source_file_index>  (1) 
29

>  <i_f3d_flags>  (1) 
0

>  <num_sample>  (1) 
100

>  <b_lp_Chiralities_Consistent>  (1) 
1

>  <r_epik_Charging_Adjusted_Penalty>  (1) 
0.015364548353272162

>  <r_epik_Ionization_Penalty>  (1) 
0.015367332939937649

>  <r_epik_Ionization_Penalty_Charging>  (1) 
0

>  <r_epik_Ionization_Penalty_Neutral>  (1) 
0.015367332939937649

>  <r_epik_State_Penalty>  (1) 
0.015364548353272162

>  <r_glide_ring_energy>  (1) 
0

>  <r_i_docking_score>  (1) 
-9.5062388083743645

>  <r_i_glide_ecoul>  (1) 
-0.995596200802077

>  <r_i_glide_eff_state_penalty>  (1) 
0.015364548353272162

>  <r_i_glide_einternal>  (1) 
7.3135193603610258

>  <r_i_glide_emodel>  (1) 
-68.848696753217709

>  <r_i_glide_emodel_strain>  (1) 
0.28201652608152017

>  <r_i_glide_energy>  (1) 
-48.144215144102219

>  <r_i_glide_erotb>  (1) 
0.37656191168379749

>  <r_i_glide_esite>  (1) 
0

>  <r_i_glide_evdw>  (1) 
-47.148618943300143

>  <r_i_glide_gscore>  (1) 
-9.5216033567276366

>  <r_i_glide_gscore_strain>  (1) 
0

>  <r_i_glide_hbond>  (1) 
0

>  <r_i_glide_ligand_efficiency>  (1) 
-0.28806784267801105

>  <r_i_glide_ligand_efficiency_ln>  (1) 
-2.1141382903121424

>  <r_i_glide_ligand_efficiency_sa>  (1) 
-0.92398749475755737

>  <r_i_glide_lipo>  (1) 
-5.5450772382496476

>  <r_i_glide_metal>  (1) 
-0

>  <r_i_glide_rewards>  (1) 
-1.8463176528764684

>  <r_lp_Energy>  (1) 
35.127381999999997

>  <r_lp_tautomer_probability>  (1) 
0.99995000000000001

>  <s_epik_cmdline>  (1) 
J2VwaWtfcHl0aG9uJywgJy1waHQnLCAnMS4wJywgJy1waCcsICc3LjQnLCAnLXRuJywgJzgnLCAnLW1hJywgJzUwMCcsICctaW1hZScsICc8aW5maWxlLm1hZT4nLCAnLW9tYWUnLCAnPG91dGZpbGUubWFlPic=

>  <s_epik_input>  (1) 
W2NIXTFbY0hdYyhGKVtjSF1bY0hdYzEtYzJbY0hdW2NIXWMoW05IMl0pYyhjMjMpQyg9TylbQ0BASF0oUzMpW0NIMl1bQ0gyXU4oW0NIMl1bQ0gyXTQpW0NIMl1DKD1DNDUpQyhbT0hdKT1bQ0hdW0NIXT1bQ0hdW0NAQEhdNVtDSDNd

>  <s_glide_docking_method>  (1) 
confgen

>  <s_i_glide_gridfile>  (1) 
gpcr_5ht2c_6bqh_protein_autoprepared_prepared

>  <s_lp_Force_Field>  (1) 
S-OPLS

>  <s_lp_Variant>  (1) 
DiffSBDD_28-1

>  <s_m_source_file>  (1) 
generated_GPCR_5HT2C_ligand_DiffSBDD_2026-06-23_prepared.sdf

>  <GenAI_Model>  (1) 
DiffSBDD

>  <Protein>  (1) 
GPCR_5HT2C

$$$$
DiffSBDD_68
     RDKit          3D

  0  0  0  0  0  0  0  0  0  0999 V3000
M  V30 BEGIN CTAB
M  V30 COUNTS 77 79 0 0 1
M  V30 BEGIN ATOM
M  V30 1 C 42.174262 26.987553 66.740317 0 CFG=2
M  V30 2 O 40.994947 30.131127 66.631811 0
M  V30 3 C 38.851635 31.655234 55.686322 0 CFG=2
M  V30 4 O 41.035093 25.337743 68.947585 0
M  V30 5 C 41.039784 33.741715 62.488479 0 CFG=1
M  V30 6 C 40.314749 34.871063 61.738692 0
M  V30 7 C 41.439706 34.132095 63.920155 0
M  V30 8 C 37.817291 30.518659 58.936887 0 CFG=1
M  V30 9 C 41.996883 25.734649 65.879434 0
M  V30 10 O 36.771728 30.537745 54.967771 0
M  V30 11 C 38.152411 30.670633 54.723598 0 CFG=2
M  V30 12 C 41.118898 29.787515 65.456338 0
M  V30 13 C 38.299366 33.092419 55.736807 0
M  V30 14 C 42.857655 28.131580 65.982627 0
M  V30 15 C 42.442941 25.483960 68.938411 0
M  V30 16 C 38.509229 28.381111 56.001330 0
M  V30 17 C 40.297168 30.467501 64.363268 0
M  V30 18 O 37.645139 33.337733 56.965867 0
M  V30 19 O 38.845098 31.462063 59.222158 0
M  V30 20 C 41.022935 31.702202 63.768195 0 CFG=2
M  V30 21 C 41.339807 32.844274 64.758649 0 CFG=1
M  V30 22 O 42.797725 33.124154 66.477099 0
M  V30 23 F 40.045064 29.327109 54.495081 0
M  V30 24 C 43.002726 26.008267 67.599181 0 CFG=2
M  V30 25 C 37.562072 31.225312 61.179929 0 CFG=2
M  V30 26 O 36.845159 32.137956 61.959637 0
M  V30 27 O 41.342104 25.456543 64.878228 0
M  V30 28 N 41.967559 28.827661 65.059006 0
M  V30 29 C 44.512832 26.243531 67.737593 0
M  V30 30 N 42.690457 32.596852 65.390088 0
M  V30 31 F 38.205658 28.585231 53.701958 0
M  V30 32 O 42.845067 24.948283 66.594869 0
M  V30 33 S 38.445190 28.820524 59.007211 0
M  V30 34 C 38.744814 29.239816 54.733296 0
M  V30 35 C 40.033485 31.639809 61.367710 0
M  V30 36 O 40.845133 30.793977 60.997788 0
M  V30 37 O 35.891991 31.858005 59.573396 0
M  V30 38 C 38.762419 31.930898 60.564778 0 CFG=1
M  V30 39 F 40.108361 31.737790 55.284841 0
M  V30 40 S 39.656318 28.707429 57.371517 0
M  V30 41 C 40.238907 32.438774 62.665524 0 CFG=2
M  V30 42 C 36.740742 30.791933 59.982951 0 CFG=1
M  V30 43 H 41.254862 27.288187 67.242921 0
M  V30 44 H 38.952894 31.258789 56.684651 0
M  V30 45 H 40.614764 26.192141 68.967136 0
M  V30 46 H 41.954884 33.506126 61.942266 0
M  V30 47 H 39.354616 35.103277 62.201774 0
M  V30 48 H 40.913929 35.783218 61.740358 0
M  V30 49 H 40.132691 34.608243 60.696515 0
M  V30 50 H 42.436088 34.576867 63.937385 0
M  V30 51 H 40.755145 34.877182 64.326552 0
M  V30 52 H 37.385205 30.662837 57.948993 0
M  V30 53 H 36.460572 31.218896 55.560027 0
M  V30 54 H 38.257184 31.082565 53.720794 0
M  V30 55 H 39.122503 33.803668 55.676928 0
M  V30 56 H 37.645124 33.311821 54.893690 0
M  V30 57 H 43.297933 28.842055 66.684670 0
M  V30 58 H 43.692437 27.762090 65.386373 0
M  V30 59 H 42.707112 26.161921 69.751125 0
M  V30 60 H 42.885298 24.518065 69.186449 0
M  V30 61 H 38.612061 27.324380 55.754421 0
M  V30 62 H 37.495695 28.508207 56.370332 0
M  V30 63 H 40.080175 29.739564 63.580203 0
M  V30 64 H 39.334510 30.742658 64.787265 0
M  V30 65 H 36.759958 32.979297 56.916429 0
M  V30 66 H 41.965015 31.360997 63.334059 0
M  V30 67 H 40.584924 32.937712 65.542673 0
M  V30 68 H 37.864914 30.364269 61.777698 0
M  V30 69 H 36.296818 32.612235 61.342292 0
M  V30 70 H 42.018184 28.585955 64.079605 0
M  V30 71 H 44.725379 27.052533 68.437133 0
M  V30 72 H 45.022183 25.350583 68.104073 0
M  V30 73 H 44.979143 26.501469 66.787057 0
M  V30 74 H 35.645045 31.737768 58.657193 0
M  V30 75 H 38.589026 33.005420 60.514685 0
M  V30 76 H 39.253004 32.689853 63.058756 0
M  V30 77 H 36.119914 29.916567 60.167755 0
M  V30 END ATOM
M  V30 BEGIN BOND
M  V30 1 1 6 5
M  V30 2 1 7 5
M  V30 3 1 9 1
M  V30 4 1 11 3
M  V30 5 1 11 10
M  V30 6 2 12 2
M  V30 7 1 13 3
M  V30 8 1 14 1
M  V30 9 1 15 4
M  V30 10 1 17 12
M  V30 11 1 18 13
M  V30 12 1 19 8
M  V30 13 1 20 17
M  V30 14 1 21 7
M  V30 15 1 21 20
M  V30 16 1 24 1
M  V30 17 1 24 15 CFG=1
M  V30 18 1 26 25
M  V30 19 2 27 9
M  V30 20 1 28 12
M  V30 21 1 28 14
M  V30 22 1 29 24
M  V30 23 1 30 21
M  V30 24 2 30 22
M  V30 25 1 32 9
M  V30 26 1 32 24
M  V30 27 1 33 8
M  V30 28 1 34 11
M  V30 29 1 34 16
M  V30 30 1 34 23
M  V30 31 1 34 31
M  V30 32 2 36 35
M  V30 33 1 38 19
M  V30 34 1 38 25
M  V30 35 1 38 35
M  V30 36 1 39 3
M  V30 37 1 40 16
M  V30 38 1 40 33
M  V30 39 1 41 5
M  V30 40 1 41 20
M  V30 41 1 41 35
M  V30 42 1 42 8
M  V30 43 1 42 25
M  V30 44 1 42 37
M  V30 45 1 1 43 CFG=1
M  V30 46 1 3 44 CFG=1
M  V30 47 1 45 4
M  V30 48 1 5 46 CFG=3
M  V30 49 1 47 6
M  V30 50 1 48 6
M  V30 51 1 49 6
M  V30 52 1 50 7
M  V30 53 1 51 7
M  V30 54 1 8 52 CFG=3
M  V30 55 1 53 10
M  V30 56 1 11 54 CFG=3
M  V30 57 1 55 13
M  V30 58 1 56 13
M  V30 59 1 57 14
M  V30 60 1 58 14
M  V30 61 1 59 15
M  V30 62 1 60 15
M  V30 63 1 61 16
M  V30 64 1 62 16
M  V30 65 1 63 17
M  V30 66 1 64 17
M  V30 67 1 65 18
M  V30 68 1 20 66 CFG=3
M  V30 69 1 21 67 CFG=1
M  V30 70 1 25 68 CFG=1
M  V30 71 1 69 26
M  V30 72 1 70 28
M  V30 73 1 71 29
M  V30 74 1 72 29
M  V30 75 1 73 29
M  V30 76 1 74 37
M  V30 77 1 38 75 CFG=3
M  V30 78 1 41 76 CFG=1
M  V30 79 1 42 77 CFG=1
M  V30 END BOND
M  V30 END CTAB
M  END
>  <i_epik_Tot_Q>  (1) 
0

>  <i_epik_Tot_abs_Q>  (1) 
0

>  <i_i_glide_confnum>  (1) 
11753

>  <i_i_glide_lignum>  (1) 
152

>  <i_i_glide_posenum>  (1) 
370

>  <i_i_glide_rotatable_bonds>  (1) 
21

>  <i_lp_mmshare_version>  (1) 
72125

>  <i_m_source_file_index>  (1) 
69

>  <i_f3d_flags>  (1) 
0

>  <num_sample>  (1) 
100

>  <b_lp_Chiralities_Consistent>  (1) 
1

>  <r_epik_Charging_Adjusted_Penalty>  (1) 
0.055139977008856429

>  <r_epik_Ionization_Penalty>  (1) 
0.055151113316776565

>  <r_epik_Ionization_Penalty_Charging>  (1) 
0

>  <r_epik_Ionization_Penalty_Neutral>  (1) 
0.055151113316776565

>  <r_epik_State_Penalty>  (1) 
0.055139977008856429

>  <r_glide_ring_energy>  (1) 
0

>  <r_i_docking_score>  (1) 
-9.5055538654062222

>  <r_i_glide_ecoul>  (1) 
-20.460357613146503

>  <r_i_glide_eff_state_penalty>  (1) 
0.055139977008856429

>  <r_i_glide_einternal>  (1) 
7.5047289515344566

>  <r_i_glide_emodel>  (1) 
-87.831477284139396

>  <r_i_glide_emodel_strain>  (1) 
2.4930162764865784

>  <r_i_glide_energy>  (1) 
-62.505297125353735

>  <r_i_glide_erotb>  (1) 
0.60671089225908026

>  <r_i_glide_esite>  (1) 
0

>  <r_i_glide_evdw>  (1) 
-42.044939512207229

>  <r_i_glide_gscore>  (1) 
-9.5606938424150787

>  <r_i_glide_gscore_strain>  (1) 
0

>  <r_i_glide_hbond>  (1) 
-1.4238497479817775

>  <r_i_glide_ligand_efficiency>  (1) 
-0.22632271108110052

>  <r_i_glide_ligand_efficiency_ln>  (1) 
-2.006377529729571

>  <r_i_glide_ligand_efficiency_sa>  (1) 
-0.78670377406084335

>  <r_i_glide_lipo>  (1) 
-2.1347821994689329

>  <r_i_glide_metal>  (1) 
-0

>  <r_i_glide_rewards>  (1) 
-1.4374721696411137

>  <r_lp_Energy>  (1) 
-0.130936

>  <r_lp_tautomer_probability>  (1) 
0.99999996000000102

>  <s_epik_Chemistry_Notes>  (1) 
This compound has an ester and may undergo hydrolysis at high or low pH. This compound contains an acetal/aminal-like group ( X-CH(R)-Y where X, Y are N, S, or O) that may be acid/base labile, releasing an aldehyde.

>  <s_epik_cmdline>  (1) 
J2VwaWtfcHl0aG9uJywgJy1waHQnLCAnMS4wJywgJy1waCcsICc3LjQnLCAnLXRuJywgJzgnLCAnLW1hJywgJzUwMCcsICctaW1hZScsICc8aW5maWxlLm1hZT4nLCAnLW9tYWUnLCAnPG91dGZpbGUubWFlPic=

>  <s_epik_input>  (1) 
W09IXVtDSDJdW0NAXTEoW0NIM10pW0NASF0oQyg9TylPMSlbQ0gyXVtOSF1DKD1PKVtDSDJdW0NASF0oW0NAQEhdKE49TylbQ0gyXVtDQEBIXTJbQ0gzXSlbQ0BASF0yQyg9TylbQ0BIXShbQ0BASF0oW09IXSlbQ0BIXTNbT0hdKU9bQ0BIXTNTU1tDSDJdQyhGKShGKVtDQEBIXShbT0hdKVtDQEBIXShGKVtDSDJdW09IXQ==

>  <s_glide_docking_method>  (1) 
confgen

>  <s_i_glide_gridfile>  (1) 
gpcr_5ht2c_6bqh_protein_autoprepared_prepared

>  <s_lp_Force_Field>  (1) 
S-OPLS

>  <s_lp_Variant>  (1) 
DiffSBDD_68-1

>  <s_m_source_file>  (1) 
generated_GPCR_5HT2C_ligand_DiffSBDD_2026-06-23_prepared.sdf

>  <GenAI_Model>  (1) 
DiffSBDD

>  <Protein>  (1) 
GPCR_5HT2C

$$$$
DiffSBDD_28
     RDKit          3D

  0  0  0  0  0  0  0  0  0  0999 V3000
M  V30 BEGIN CTAB
M  V30 COUNTS 60 64 0 0 1
M  V30 BEGIN ATOM
M  V30 1 O 38.708444 27.379137 59.249225 0
M  V30 2 O 36.869154 35.214932 59.424823 0
M  V30 3 C 39.264597 34.141948 61.989770 0
M  V30 4 C 39.960525 32.853213 62.410171 0
M  V30 5 C 39.727049 28.460547 50.821462 0
M  V30 6 C 37.945993 26.475506 54.261011 0
M  V30 7 C 40.991595 35.966870 61.804030 0
M  V30 8 C 37.841907 26.125428 56.677102 0
M  V30 9 C 38.844293 27.935411 58.163697 0
M  V30 10 C 39.246136 27.801125 51.966000 0
M  V30 11 C 37.568826 25.688105 55.373051 0
M  V30 12 C 38.955773 36.416781 63.165593 0
M  V30 13 C 39.877046 31.770461 61.339134 0
M  V30 14 N 37.489070 25.325675 57.766038 0
M  V30 15 C 38.286054 30.354353 60.185997 0
M  V30 16 C 38.839343 28.154581 55.794717 0
M  V30 17 C 38.660445 30.492103 58.686242 0
M  V30 18 C 37.847111 32.770016 60.459349 0
M  V30 19 C 39.852131 30.537720 52.050832 0
M  V30 20 S 39.645139 29.639956 56.220748 0
M  V30 21 C 39.476496 29.343374 58.052274 0 CFG=2
M  V30 22 C 39.353774 29.898655 53.201317 0
M  V30 23 C 38.604543 27.729956 54.430667 0
M  V30 24 C 39.064119 28.499403 53.194913 0
M  V30 25 C 40.040193 29.820773 50.868227 0
M  V30 26 C 38.478152 27.372368 56.859489 0
M  V30 27 C 37.378490 36.530953 61.248997 0
M  V30 28 N 38.480728 31.559927 61.003453 0
M  V30 29 C 37.521317 35.334687 60.591578 0
M  V30 30 C 39.838351 35.373533 62.620875 0 CFG=1
M  V30 31 F 40.517271 30.444555 49.767738 0
M  V30 32 C 37.901439 36.932401 62.549325 0
M  V30 33 C 38.256550 34.123305 61.071155 0
M  V30 34 H 36.451691 36.038734 59.227790 0
M  V30 35 H 41.016264 33.048186 62.602296 0
M  V30 36 H 39.530490 32.509106 63.351135 0
M  V30 37 H 39.867906 27.911212 49.907152 0
M  V30 38 H 37.732358 26.111273 53.272932 0
M  V30 39 H 40.612590 36.537730 60.962715 0
M  V30 40 H 41.645644 35.189165 61.411939 0
M  V30 41 H 41.600519 36.636686 62.412208 0
M  V30 42 H 39.041510 26.746646 51.907371 0
M  V30 43 H 37.078003 24.738905 55.214831 0
M  V30 44 H 39.240114 36.816378 64.129972 0
M  V30 45 H 40.444241 32.077112 60.464990 0
M  V30 46 H 40.320461 30.848298 61.715808 0
M  V30 47 H 37.804735 25.565243 58.698191 0
M  V30 48 H 37.176288 24.375153 57.630803 0
M  V30 49 H 38.844980 29.539885 60.648214 0
M  V30 50 H 37.236505 30.065959 60.250184 0
M  V30 51 H 37.741526 30.645470 58.116420 0
M  V30 52 H 39.245134 31.393776 58.517834 0
M  V30 53 H 38.047039 32.867612 59.394779 0
M  V30 54 H 36.766089 32.657163 60.549806 0
M  V30 55 H 40.078980 31.593297 52.079216 0
M  V30 56 H 40.471080 29.308825 58.497573 0
M  V30 57 H 39.196687 30.488911 54.069852 0
M  V30 58 H 36.750480 37.261776 60.759341 0
M  V30 59 H 40.296370 34.999277 63.537955 0
M  V30 60 H 37.389271 37.737766 63.052097 0
M  V30 END ATOM
M  V30 BEGIN BOND
M  V30 1 1 4 3
M  V30 2 2 9 1
M  V30 3 2 10 5
M  V30 4 2 11 6
M  V30 5 1 11 8
M  V30 6 1 13 4
M  V30 7 1 14 8
M  V30 8 1 17 15
M  V30 9 1 20 16
M  V30 10 1 21 9
M  V30 11 1 21 17
M  V30 12 1 21 20
M  V30 13 1 22 19
M  V30 14 1 23 6
M  V30 15 2 23 16
M  V30 16 1 24 10
M  V30 17 2 24 22
M  V30 18 1 24 23
M  V30 19 1 25 5
M  V30 20 2 25 19
M  V30 21 2 26 8
M  V30 22 1 26 9
M  V30 23 1 26 16
M  V30 24 1 28 13
M  V30 25 1 28 15
M  V30 26 1 28 18
M  V30 27 1 29 2
M  V30 28 2 29 27
M  V30 29 1 30 3
M  V30 30 1 30 7
M  V30 31 1 30 12
M  V30 32 1 31 25
M  V30 33 2 32 12
M  V30 34 1 32 27
M  V30 35 2 33 3
M  V30 36 1 33 18
M  V30 37 1 33 29
M  V30 38 1 34 2
M  V30 39 1 35 4
M  V30 40 1 36 4
M  V30 41 1 37 5
M  V30 42 1 38 6
M  V30 43 1 39 7
M  V30 44 1 40 7
M  V30 45 1 41 7
M  V30 46 1 42 10
M  V30 47 1 43 11
M  V30 48 1 44 12
M  V30 49 1 45 13
M  V30 50 1 46 13
M  V30 51 1 47 14
M  V30 52 1 48 14
M  V30 53 1 49 15
M  V30 54 1 50 15
M  V30 55 1 51 17
M  V30 56 1 52 17
M  V30 57 1 53 18
M  V30 58 1 54 18
M  V30 59 1 55 19
M  V30 60 1 21 56 CFG=1
M  V30 61 1 57 22
M  V30 62 1 58 27
M  V30 63 1 30 59 CFG=1
M  V30 64 1 60 32
M  V30 END BOND
M  V30 END CTAB
M  END
>  <i_epik_Tot_Q>  (1) 
0

>  <i_epik_Tot_abs_Q>  (1) 
0

>  <i_i_glide_confnum>  (1) 
86

>  <i_i_glide_lignum>  (1) 
70

>  <i_i_glide_posenum>  (1) 
115

>  <i_i_glide_rotatable_bonds>  (1) 
5

>  <i_lp_mmshare_version>  (1) 
72125

>  <i_m_source_file_index>  (1) 
29

>  <i_f3d_flags>  (1) 
0

>  <num_sample>  (1) 
100

>  <b_lp_Chiralities_Consistent>  (1) 
1

>  <r_epik_Charging_Adjusted_Penalty>  (1) 
0.015364548353272162

>  <r_epik_Ionization_Penalty>  (1) 
0.015367332939937649

>  <r_epik_Ionization_Penalty_Charging>  (1) 
0

>  <r_epik_Ionization_Penalty_Neutral>  (1) 
0.015367332939937649

>  <r_epik_State_Penalty>  (1) 
0.015364548353272162

>  <r_glide_ring_energy>  (1) 
0

>  <r_i_docking_score>  (1) 
-9.445975933699815

>  <r_i_glide_ecoul>  (1) 
-1.1216378764870687

>  <r_i_glide_eff_state_penalty>  (1) 
0.015364548353272162

>  <r_i_glide_einternal>  (1) 
7.0932511377067744

>  <r_i_glide_emodel>  (1) 
-68.429223748925665

>  <r_i_glide_emodel_strain>  (1) 
1.3941990644577231

>  <r_i_glide_energy>  (1) 
-48.882759420177571

>  <r_i_glide_erotb>  (1) 
0.37656191168379749

>  <r_i_glide_esite>  (1) 
0

>  <r_i_glide_evdw>  (1) 
-47.7611215436905

>  <r_i_glide_gscore>  (1) 
-9.4613404820530871

>  <r_i_glide_gscore_strain>  (1) 
0

>  <r_i_glide_hbond>  (1) 
0

>  <r_i_glide_ligand_efficiency>  (1) 
-0.28624169496060048

>  <r_i_glide_ligand_efficiency_ln>  (1) 
-2.1007361390089887

>  <r_i_glide_ligand_efficiency_sa>  (1) 
-0.91813006326231938

>  <r_i_glide_lipo>  (1) 
-5.4251064550469126

>  <r_i_glide_metal>  (1) 
-0

>  <r_i_glide_rewards>  (1) 
-1.8564941800323855

>  <r_lp_Energy>  (1) 
35.127381999999997

>  <r_lp_tautomer_probability>  (1) 
0.99995000000000001

>  <s_epik_cmdline>  (1) 
J2VwaWtfcHl0aG9uJywgJy1waHQnLCAnMS4wJywgJy1waCcsICc3LjQnLCAnLXRuJywgJzgnLCAnLW1hJywgJzUwMCcsICctaW1hZScsICc8aW5maWxlLm1hZT4nLCAnLW9tYWUnLCAnPG91dGZpbGUubWFlPic=

>  <s_epik_input>  (1) 
W2NIXTFbY0hdYyhGKVtjSF1bY0hdYzEtYzJbY0hdW2NIXWMoW05IMl0pYyhjMjMpQyg9TylbQ0BASF0oUzMpW0NIMl1bQ0gyXU4oW0NIMl1bQ0gyXTQpW0NIMl1DKD1DNDUpQyhbT0hdKT1bQ0hdW0NIXT1bQ0hdW0NAQEhdNVtDSDNd

>  <s_glide_docking_method>  (1) 
confgen

>  <s_i_glide_gridfile>  (1) 
gpcr_5ht2c_6bqh_protein_autoprepared_prepared

>  <s_lp_Force_Field>  (1) 
S-OPLS

>  <s_lp_Variant>  (1) 
DiffSBDD_28-1

>  <s_m_source_file>  (1) 
generated_GPCR_5HT2C_ligand_DiffSBDD_2026-06-23_prepared.sdf

>  <GenAI_Model>  (1) 
DiffSBDD

>  <Protein>  (1) 
GPCR_5HT2C

$$$$
DiffSBDD_66
     RDKit          3D

  0  0  0  0  0  0  0  0  0  0999 V3000
M  V30 BEGIN CTAB
M  V30 COUNTS 62 65 0 0 1
M  V30 BEGIN ATOM
M  V30 1 C 38.421913 29.092170 58.611617 0
M  V30 2 C 38.000121 30.343165 57.665662 0
M  V30 3 C 38.825493 26.335201 56.239781 0 CFG=1
M  V30 4 N 40.540580 30.179133 62.296252 0
M  V30 5 O 40.445058 36.769516 61.767757 0 CHG=-1
M  V30 6 O 38.864986 24.314915 57.367763 0
M  V30 7 O 37.431275 26.157990 56.053291 0
M  V30 8 C 41.018086 35.086492 63.363718 0
M  V30 9 C 39.783450 28.619979 56.819839 0
M  V30 10 C 38.856652 28.394544 54.694558 0
M  V30 11 N 39.698139 28.512360 58.151085 0
M  V30 12 C 38.321376 28.250210 52.203235 0
M  V30 13 C 40.544500 32.724289 62.868265 0
M  V30 14 N 40.672584 30.360144 60.962328 0
M  V30 15 C 39.709255 28.537743 50.167780 0
M  V30 16 C 39.251825 27.780427 55.917540 0
M  V30 17 C 38.333538 29.849739 54.785815 0 CFG=1
M  V30 18 C 37.506625 30.159587 56.132990 0
M  V30 19 C 39.824243 30.723576 53.061923 0
M  V30 20 C 40.668614 29.114421 60.460564 0
M  V30 21 C 40.855539 28.888558 58.973367 0
M  V30 22 C 39.218219 25.668288 57.560789 0
M  V30 23 C 40.496347 28.137795 61.473397 0
M  V30 24 C 39.984919 34.479823 61.247226 0
M  V30 25 C 39.334577 30.843837 54.267312 0
M  V30 26 C 40.532534 31.250824 63.298125 0
M  V30 27 C 41.052669 33.733990 63.750600 0
M  V30 28 O 40.523102 30.912638 64.482494 0
M  V30 29 Cl 41.724845 33.322682 65.296192 0
M  V30 30 C 40.445114 28.855064 62.623849 0
M  V30 31 C 40.045140 30.189004 51.887617 0
M  V30 32 C 38.806395 27.689305 53.538002 0
M  V30 33 C 40.009981 33.120207 61.611502 0
M  V30 34 C 39.386927 28.986725 51.379564 0
M  V30 35 C 40.484659 35.456715 62.121631 0
M  V30 36 H 38.426696 29.418573 59.649123 0
M  V30 37 H 38.777037 31.108233 57.701817 0
M  V30 38 H 39.316074 25.739038 55.469033 0
M  V30 39 H 38.021909 24.325475 56.933752 0
M  V30 40 H 36.978996 26.772608 56.611448 0
M  V30 41 H 41.400602 35.846719 64.029998 0
M  V30 42 H 40.045169 29.626607 56.527874 0
M  V30 43 H 37.157704 30.808442 58.178155 0
M  V30 44 H 37.438767 28.877671 52.298913 0
M  V30 45 H 37.964172 27.391640 51.633129 0
M  V30 46 H 40.445164 29.040660 49.559653 0
M  V30 47 H 39.237196 27.657046 49.767763 0
M  V30 48 H 37.651225 28.324246 58.552728 0
M  V30 49 H 37.521524 29.923646 54.066805 0
M  V30 50 H 36.879125 30.999266 55.851083 0
M  V30 51 H 36.823468 29.337885 56.214405 0
M  V30 52 H 41.357998 29.737756 58.533421 0
M  V30 53 H 41.574718 28.077070 58.853472 0
M  V30 54 H 40.287712 25.747816 57.759274 0
M  V30 55 H 38.670733 26.072112 58.412820 0
M  V30 56 H 40.445143 27.074080 61.367912 0
M  V30 57 H 39.570048 34.774293 60.293969 0
M  V30 58 H 39.624624 31.650821 54.924366 0
M  V30 59 H 40.342971 28.529537 63.648395 0
M  V30 60 H 40.763146 30.664406 51.234774 0
M  V30 61 H 39.133131 26.661057 53.526417 0
M  V30 62 H 39.595286 32.395009 60.936999 0
M  V30 END ATOM
M  V30 BEGIN BOND
M  V30 1 1 2 1
M  V30 2 1 7 3
M  V30 3 1 11 1
M  V30 4 1 11 9
M  V30 5 1 14 4
M  V30 6 1 16 3
M  V30 7 2 16 9
M  V30 8 1 16 10
M  V30 9 1 17 10
M  V30 10 1 18 2
M  V30 11 1 18 17
M  V30 12 2 20 14
M  V30 13 1 21 11
M  V30 14 1 21 20
M  V30 15 1 22 3
M  V30 16 1 22 6
M  V30 17 1 23 20
M  V30 18 1 25 17
M  V30 19 2 25 19
M  V30 20 1 26 4
M  V30 21 1 26 13
M  V30 22 1 27 8
M  V30 23 2 27 13
M  V30 24 2 28 26
M  V30 25 1 29 27
M  V30 26 1 30 4
M  V30 27 2 30 23
M  V30 28 2 31 19
M  V30 29 2 32 10
M  V30 30 1 32 12
M  V30 31 1 33 13
M  V30 32 2 33 24
M  V30 33 1 34 12
M  V30 34 2 34 15
M  V30 35 1 34 31
M  V30 36 1 35 5
M  V30 37 2 35 8
M  V30 38 1 35 24
M  V30 39 1 36 1
M  V30 40 1 37 2
M  V30 41 1 3 38 CFG=3
M  V30 42 1 39 6
M  V30 43 1 40 7
M  V30 44 1 41 8
M  V30 45 1 42 9
M  V30 46 1 43 2
M  V30 47 1 44 12
M  V30 48 1 45 12
M  V30 49 1 46 15
M  V30 50 1 47 15
M  V30 51 1 48 1
M  V30 52 1 17 49 CFG=3
M  V30 53 1 50 18
M  V30 54 1 51 18
M  V30 55 1 52 21
M  V30 56 1 53 21
M  V30 57 1 54 22
M  V30 58 1 55 22
M  V30 59 1 56 23
M  V30 60 1 57 24
M  V30 61 1 58 25
M  V30 62 1 59 30
M  V30 63 1 60 31
M  V30 64 1 61 32
M  V30 65 1 62 33
M  V30 END BOND
M  V30 END CTAB
M  END
>  <i_epik_Tot_Q>  (1) 
-1

>  <i_epik_Tot_abs_Q>  (1) 
1

>  <i_i_glide_confnum>  (1) 
194

>  <i_i_glide_lignum>  (1) 
146

>  <i_i_glide_posenum>  (1) 
49

>  <i_i_glide_rotatable_bonds>  (1) 
8

>  <i_lp_mmshare_version>  (1) 
72125

>  <i_m_source_file_index>  (1) 
67

>  <i_f3d_flags>  (1) 
0

>  <num_sample>  (1) 
100

>  <b_lp_Chiralities_Consistent>  (1) 
1

>  <r_epik_Charging_Adjusted_Penalty>  (1) 
0.13314888727576835

>  <r_epik_Ionization_Penalty>  (1) 
0.066709733675270222

>  <r_epik_Ionization_Penalty_Charging>  (1) 
0.066574443637884173

>  <r_epik_Ionization_Penalty_Neutral>  (1) 
0.00013529003738605556

>  <r_epik_State_Penalty>  (1) 
0.066574443637884159

>  <r_glide_ring_energy>  (1) 
0

>  <r_i_docking_score>  (1) 
-9.4277193606722829

>  <r_i_glide_ecoul>  (1) 
-2.9421474596564678

>  <r_i_glide_eff_state_penalty>  (1) 
0.066574443637884159

>  <r_i_glide_einternal>  (1) 
22.317121560518657

>  <r_i_glide_emodel>  (1) 
-63.781004720103709

>  <r_i_glide_emodel_strain>  (1) 
0.29123021617502332

>  <r_i_glide_energy>  (1) 
-48.54783232818292

>  <r_i_glide_erotb>  (1) 
0.50284807503681039

>  <r_i_glide_esite>  (1) 
-0.028808858273032451

>  <r_i_glide_evdw>  (1) 
-45.605684868526453

>  <r_i_glide_gscore>  (1) 
-9.4942938043101677

>  <r_i_glide_gscore_strain>  (1) 
0

>  <r_i_glide_hbond>  (1) 
-0.28898120344419714

>  <r_i_glide_ligand_efficiency>  (1) 
-0.26936341030492239

>  <r_i_glide_ligand_efficiency_ln>  (1) 
-2.0695936366253873

>  <r_i_glide_ligand_efficiency_sa>  (1) 
-0.88110557664593769

>  <r_i_glide_lipo>  (1) 
-5.3845833547463764

>  <r_i_glide_metal>  (1) 
-0

>  <r_i_glide_rewards>  (1) 
-1.5731621005085801

>  <r_lp_Energy>  (1) 
66.601000999999997

>  <r_lp_tautomer_probability>  (1) 
0.99999944244275329

>  <s_epik_cmdline>  (1) 
J2VwaWtfcHl0aG9uJywgJy1waHQnLCAnMS4wJywgJy1waCcsICc3LjQnLCAnLXRuJywgJzgnLCAnLW1hJywgJzUwMCcsICctaW1hZScsICc8aW5maWxlLm1hZT4nLCAnLW9tYWUnLCAnPG91dGZpbGUubWFlPic=

>  <s_epik_input>  (1) 
W0NIXTEvW0NIMl1DKD1bQ0gyXSlbQ0hdPUM9W0NIXVtDQEBIXShDPTFcMilbQ0gyXS9bQ0hdPVtDSF1cTihbQ0gyXVtDQEBIXTJbQ0BASF0oW09IXSlbQ0gyXVtPSF0pW0NIMl1jKFtjSF1bY0hdMylubjNDKD1PKWM0YyhDbClbY0hdYyhbT0hdKVtjSF1bY0hdNA==

>  <s_glide_docking_method>  (1) 
confgen

>  <s_i_glide_gridfile>  (1) 
gpcr_5ht2c_6bqh_protein_autoprepared_prepared

>  <s_lp_Force_Field>  (1) 
S-OPLS

>  <s_lp_Variant>  (1) 
DiffSBDD_66-2

>  <s_m_source_file>  (1) 
generated_GPCR_5HT2C_ligand_DiffSBDD_2026-06-23_prepared.sdf

>  <GenAI_Model>  (1) 
DiffSBDD

>  <Protein>  (1) 
GPCR_5HT2C

$$$$
DiffSBDD_41
     RDKit          3D

  0  0  0  0  0  0  0  0  0  0999 V3000
M  V30 BEGIN CTAB
M  V30 COUNTS 52 53 0 0 1
M  V30 BEGIN ATOM
M  V30 1 C 38.845503 29.372793 53.895014 0
M  V30 2 C 38.238981 28.111347 57.798430 0 CFG=1
M  V30 3 C 37.986665 33.231795 58.109145 0
M  V30 4 C 38.707609 30.130586 60.303047 0
M  V30 5 C 38.413291 32.092021 61.744835 0
M  V30 6 C 38.168549 32.899884 60.624704 0
M  V30 7 C 38.690789 30.724461 61.586297 0
M  V30 8 O 39.152339 27.159702 50.967662 0
M  V30 9 C 38.876633 27.813583 59.159087 0
M  V30 10 S 39.415550 28.670178 56.514037 0
M  V30 11 N 37.645233 32.549668 56.863885 0 CHG=1
M  V30 12 C 39.925918 29.405509 51.292069 0
M  V30 13 C 40.045128 30.537820 52.117764 0
M  V30 14 C 37.894288 34.384174 60.812180 0
M  V30 15 C 37.474764 26.842867 57.287843 0
M  V30 16 C 39.267085 28.255230 51.766390 0
M  V30 17 C 39.039692 28.666310 60.211502 0
M  V30 18 C 39.508996 30.522699 53.420153 0
M  V30 19 C 39.481971 25.246784 56.832186 0
M  V30 20 C 38.447227 30.945302 59.166990 0
M  V30 21 C 38.098179 25.436086 57.468001 0
M  V30 22 F 40.445026 29.422333 50.040961 0
M  V30 23 C 38.726315 28.237717 53.066374 0
M  V30 24 C 38.193404 32.334815 59.328548 0
M  V30 25 C 38.251979 29.358709 55.287109 0
M  V30 26 H 37.453474 28.853219 57.918606 0
M  V30 27 H 37.221102 33.985477 58.293463 0
M  V30 28 H 38.931238 33.738762 57.934264 0
M  V30 29 H 38.402359 32.525675 62.733835 0
M  V30 30 H 38.891378 30.118169 62.459124 0
M  V30 31 H 39.515630 27.288978 50.104343 0
M  V30 32 H 39.214122 26.801172 59.292824 0
M  V30 33 H 37.574549 33.217198 56.109721 0
M  V30 34 H 38.318874 31.834167 56.647075 0
M  V30 35 H 40.550377 31.418589 51.752491 0
M  V30 36 H 38.554603 34.986636 60.188236 0
M  V30 37 H 36.859808 34.617880 60.558295 0
M  V30 38 H 38.057252 34.688819 61.845648 0
M  V30 39 H 36.498154 26.817806 57.768030 0
M  V30 40 H 37.245306 26.937496 56.230222 0
M  V30 41 H 39.470637 28.248068 61.110667 0
M  V30 42 H 39.603066 31.393723 54.051553 0
M  V30 43 H 39.826899 24.222008 56.967770 0
M  V30 44 H 39.457903 25.453833 55.762046 0
M  V30 45 H 40.229290 25.899123 57.283118 0
M  V30 46 H 38.487497 30.533064 58.185385 0
M  V30 47 H 38.128758 25.153522 58.519694 0
M  V30 48 H 37.422238 24.710702 57.013163 0
M  V30 49 H 38.218581 27.354628 53.427737 0
M  V30 50 H 37.975112 30.366091 55.575418 0
M  V30 51 H 37.318558 28.804533 55.249668 0
M  V30 52 H 36.691329 32.139115 56.967451 0
M  V30 END ATOM
M  V30 BEGIN BOND
M  V30 1 1 6 5
M  V30 2 1 7 4
M  V30 3 2 7 5
M  V30 4 1 9 2
M  V30 5 1 10 2
M  V30 6 1 11 3
M  V30 7 1 13 12
M  V30 8 1 14 6
M  V30 9 1 15 2
M  V30 10 1 16 8
M  V30 11 2 16 12
M  V30 12 1 17 4
M  V30 13 2 17 9
M  V30 14 1 18 1
M  V30 15 2 18 13
M  V30 16 2 20 4
M  V30 17 1 21 15
M  V30 18 1 21 19
M  V30 19 1 22 12
M  V30 20 2 23 1
M  V30 21 1 23 16
M  V30 22 1 24 3
M  V30 23 2 24 6
M  V30 24 1 24 20
M  V30 25 1 25 1
M  V30 26 1 25 10
M  V30 27 1 2 26 CFG=1
M  V30 28 1 27 3
M  V30 29 1 28 3
M  V30 30 1 29 5
M  V30 31 1 30 7
M  V30 32 1 31 8
M  V30 33 1 32 9
M  V30 34 1 33 11
M  V30 35 1 34 11
M  V30 36 1 35 13
M  V30 37 1 36 14
M  V30 38 1 37 14
M  V30 39 1 38 14
M  V30 40 1 39 15
M  V30 41 1 40 15
M  V30 42 1 41 17
M  V30 43 1 42 18
M  V30 44 1 43 19
M  V30 45 1 44 19
M  V30 46 1 45 19
M  V30 47 1 46 20
M  V30 48 1 47 21
M  V30 49 1 48 21
M  V30 50 1 49 23
M  V30 51 1 50 25
M  V30 52 1 51 25
M  V30 53 1 52 11
M  V30 END BOND
M  V30 END CTAB
M  END
>  <i_epik_Tot_Q>  (1) 
1

>  <i_epik_Tot_abs_Q>  (1) 
1

>  <i_i_glide_confnum>  (1) 
119

>  <i_i_glide_lignum>  (1) 
89

>  <i_i_glide_posenum>  (1) 
364

>  <i_i_glide_rotatable_bonds>  (1) 
9

>  <i_lp_mmshare_version>  (1) 
72125

>  <i_m_source_file_index>  (1) 
42

>  <i_f3d_flags>  (1) 
0

>  <num_sample>  (1) 
100

>  <b_lp_Chiralities_Consistent>  (1) 
1

>  <r_epik_Charging_Adjusted_Penalty>  (1) 
0.19353898929150365

>  <r_epik_Ionization_Penalty>  (1) 
0.13216089294123454

>  <r_epik_Ionization_Penalty_Charging>  (1) 
0.06151586109146627

>  <r_epik_Ionization_Penalty_Neutral>  (1) 
0.070645031849768267

>  <r_epik_State_Penalty>  (1) 
0.13202312820003739

>  <r_glide_ring_energy>  (1) 
0

>  <r_i_docking_score>  (1) 
-9.4070577854288757

>  <r_i_glide_ecoul>  (1) 
-9.7482728790126654

>  <r_i_glide_eff_state_penalty>  (1) 
0.13202312820003739

>  <r_i_glide_einternal>  (1) 
6.9113823559557588

>  <r_i_glide_emodel>  (1) 
-72.735834847367926

>  <r_i_glide_emodel_strain>  (1) 
0.91608711392960629

>  <r_i_glide_energy>  (1) 
-47.841439158517957

>  <r_i_glide_erotb>  (1) 
0.61978656144485655

>  <r_i_glide_esite>  (1) 
-0.10000000000000001

>  <r_i_glide_evdw>  (1) 
-38.09316627950529

>  <r_i_glide_gscore>  (1) 
-9.5390809136289132

>  <r_i_glide_gscore_strain>  (1) 
0

>  <r_i_glide_hbond>  (1) 
-0.12625978813733046

>  <r_i_glide_ligand_efficiency>  (1) 
-0.37628231141715501

>  <r_i_glide_ligand_efficiency_ln>  (1) 
-2.2297546019199928

>  <r_i_glide_ligand_efficiency_sa>  (1) 
-1.100256153159499

>  <r_i_glide_lipo>  (1) 
-3.9989584507470775

>  <r_i_glide_metal>  (1) 
-0

>  <r_i_glide_rewards>  (1) 
-2.566749990362196

>  <r_lp_Energy>  (1) 
22.904637999999998

>  <r_lp_tautomer_probability>  (1) 
0.99999999999736477

>  <s_epik_cmdline>  (1) 
J2VwaWtfcHl0aG9uJywgJy1waHQnLCAnMS4wJywgJy1waCcsICc3LjQnLCAnLXRuJywgJzgnLCAnLW1hJywgJzUwMCcsICctaW1hZScsICc8aW5maWxlLm1hZT4nLCAnLW9tYWUnLCAnPG91dGZpbGUubWFlPic=

>  <s_epik_input>  (1) 
W09IXWMoW2NIXTEpYyhGKVtjSF1bY0hdYzFbQ0gyXVNbQ0BASF0oW0NIMl1bQ0gyXVtDSDNdKS9bQ0hdPVtDSF1cYzJbY0hdW2NIXWMoW0NIM10pYyhbY0hdMilbQ0gyXVtOSDJd

>  <s_glide_docking_method>  (1) 
confgen

>  <s_i_glide_gridfile>  (1) 
gpcr_5ht2c_6bqh_protein_autoprepared_prepared

>  <s_lp_Force_Field>  (1) 
S-OPLS

>  <s_lp_Variant>  (1) 
DiffSBDD_41-2

>  <s_m_source_file>  (1) 
generated_GPCR_5HT2C_ligand_DiffSBDD_2026-06-23_prepared.sdf

>  <GenAI_Model>  (1) 
DiffSBDD

>  <Protein>  (1) 
GPCR_5HT2C

$$$$
DiffSBDD_50
     RDKit          3D

  0  0  0  0  0  0  0  0  0  0999 V3000
M  V30 BEGIN CTAB
M  V30 COUNTS 66 69 0 0 1
M  V30 BEGIN ATOM
M  V30 1 C 38.957379 27.775573 57.527025 0 CFG=1
M  V30 2 F 39.483008 26.537780 51.128652 0
M  V30 3 C 38.845103 30.751476 59.537283 0
M  V30 4 O 37.645155 30.477532 56.395441 0
M  V30 5 O 37.122637 31.858688 62.167713 0
M  V30 6 O 38.299380 32.010529 59.735047 0
M  V30 7 S 39.993656 28.397400 60.152447 0
M  V30 8 C 39.595834 27.481663 56.156158 0
M  V30 9 C 36.529924 33.500889 58.966873 0 CFG=2
M  V30 10 O 37.022257 25.076591 55.036036 0
M  V30 11 C 36.506161 32.636257 61.193586 0 CFG=1
M  V30 12 C 37.108443 36.006819 59.620663 0
M  V30 13 C 37.617465 25.673489 57.302412 0
M  V30 14 C 38.467801 26.964460 55.227487 0 CFG=2
M  V30 15 C 39.926998 28.868906 50.922249 0
M  V30 16 C 38.833281 30.904423 57.024274 0
M  V30 17 C 38.069307 25.598762 55.825864 0 CFG=2
M  V30 18 C 37.047580 23.672404 54.991129 0
M  V30 19 F 39.629565 31.528006 53.416838 0
M  V30 20 C 39.194410 29.212520 53.612749 0
M  V30 21 C 36.437376 34.671314 59.982207 0 CFG=2
M  V30 22 C 38.636422 26.420735 58.181018 0
M  V30 23 C 39.981468 30.143773 51.508647 0
M  V30 24 C 36.915744 34.096853 61.305105 0
M  V30 25 C 39.762161 28.823925 58.330059 0 CFG=2
M  V30 26 C 39.177389 27.920742 53.046134 0
M  V30 27 C 36.893901 32.219783 59.772581 0 CFG=2
M  V30 28 C 39.093374 30.210524 58.354649 0
M  V30 29 N 38.833309 26.786274 53.815534 0
M  V30 30 C 39.526123 27.758906 51.689922 0
M  V30 31 C 39.606113 30.310215 52.854541 0
M  V30 32 O 36.093584 31.128524 59.367763 0
M  V30 33 O 39.195529 30.301096 61.817293 0
M  V30 34 O 37.386120 33.737762 57.876090 0
M  V30 35 C 39.271716 29.963354 60.642332 0
M  V30 36 H 37.977392 28.224535 57.367979 0
M  V30 37 H 36.932477 31.088948 56.567861 0
M  V30 38 H 37.998700 31.625260 61.877030 0
M  V30 39 H 40.136062 28.350050 55.799134 0
M  V30 40 H 40.383905 26.732523 56.255888 0
M  V30 41 H 35.523908 33.370970 58.567883 0
M  V30 42 H 35.423190 32.561533 61.307553 0
M  V30 43 H 38.185406 35.950530 59.767759 0
M  V30 44 H 36.908668 36.294314 58.587811 0
M  V30 45 H 36.743446 36.810549 60.261341 0
M  V30 46 H 37.451858 24.673264 57.702629 0
M  V30 47 H 36.655730 26.183754 57.356532 0
M  V30 48 H 37.608825 27.635250 55.257829 0
M  V30 49 H 40.197797 28.738388 49.885133 0
M  V30 50 H 39.671344 30.690642 56.363959 0
M  V30 51 H 38.848838 31.981378 57.138727 0
M  V30 52 H 38.955710 24.961042 55.772002 0
M  V30 53 H 36.445114 23.337738 54.167743 0
M  V30 54 H 38.045137 23.336727 54.752010 0
M  V30 55 H 36.706063 23.213848 55.920307 0
M  V30 56 H 38.902482 29.365989 54.627949 0
M  V30 57 H 35.372797 34.879341 60.093603 0
M  V30 58 H 39.543328 25.827048 58.306713 0
M  V30 59 H 38.208252 26.550873 59.170495 0
M  V30 60 H 40.295039 30.997449 50.923852 0
M  V30 61 H 38.000172 34.187276 61.397759 0
M  V30 62 H 36.451185 34.599493 62.154969 0
M  V30 63 H 40.764718 28.936923 57.916565 0
M  V30 64 H 38.750408 25.875288 53.385939 0
M  V30 65 H 35.825371 31.294637 58.459276 0
M  V30 66 H 37.022883 33.273155 57.131887 0
M  V30 END ATOM
M  V30 BEGIN BOND
M  V30 1 1 6 3
M  V30 2 1 8 1
M  V30 3 1 11 5
M  V30 4 1 14 8
M  V30 5 1 16 4
M  V30 6 1 17 10
M  V30 7 1 17 13
M  V30 8 1 17 14
M  V30 9 1 18 10
M  V30 10 1 21 9
M  V30 11 1 21 12
M  V30 12 1 22 1
M  V30 13 1 22 13
M  V30 14 2 23 15
M  V30 15 1 24 11
M  V30 16 1 24 21
M  V30 17 1 25 1
M  V30 18 1 25 7
M  V30 19 1 26 20
M  V30 20 1 27 6 CFG=1
M  V30 21 1 27 9
M  V30 22 1 27 11
M  V30 23 2 28 3
M  V30 24 1 28 16
M  V30 25 1 28 25
M  V30 26 1 29 14
M  V30 27 1 29 26
M  V30 28 1 30 2
M  V30 29 1 30 15
M  V30 30 2 30 26
M  V30 31 1 31 19
M  V30 32 2 31 20
M  V30 33 1 31 23
M  V30 34 1 32 27
M  V30 35 1 34 9
M  V30 36 1 35 3
M  V30 37 1 35 7
M  V30 38 2 35 33
M  V30 39 1 1 36 CFG=3
M  V30 40 1 37 4
M  V30 41 1 38 5
M  V30 42 1 39 8
M  V30 43 1 40 8
M  V30 44 1 9 41 CFG=3
M  V30 45 1 11 42 CFG=3
M  V30 46 1 43 12
M  V30 47 1 44 12
M  V30 48 1 45 12
M  V30 49 1 46 13
M  V30 50 1 47 13
M  V30 51 1 14 48 CFG=3
M  V30 52 1 49 15
M  V30 53 1 50 16
M  V30 54 1 51 16
M  V30 55 1 17 52 CFG=1
M  V30 56 1 53 18
M  V30 57 1 54 18
M  V30 58 1 55 18
M  V30 59 1 56 20
M  V30 60 1 21 57 CFG=1
M  V30 61 1 58 22
M  V30 62 1 59 22
M  V30 63 1 60 23
M  V30 64 1 61 24
M  V30 65 1 62 24
M  V30 66 1 25 63 CFG=3
M  V30 67 1 64 29
M  V30 68 1 65 32
M  V30 69 1 66 34
M  V30 END BOND
M  V30 END CTAB
M  END
>  <i_epik_Tot_Q>  (1) 
0

>  <i_epik_Tot_abs_Q>  (1) 
0

>  <i_i_glide_confnum>  (1) 
397

>  <i_i_glide_lignum>  (1) 
103

>  <i_i_glide_posenum>  (1) 
187

>  <i_i_glide_rotatable_bonds>  (1) 
11

>  <i_lp_mmshare_version>  (1) 
72125

>  <i_m_source_file_index>  (1) 
51

>  <i_f3d_flags>  (1) 
0

>  <num_sample>  (1) 
100

>  <b_lp_Chiralities_Consistent>  (1) 
1

>  <r_epik_Charging_Adjusted_Penalty>  (1) 
0.32088234562257889

>  <r_epik_Ionization_Penalty>  (1) 
0.32096673837562456

>  <r_epik_Ionization_Penalty_Charging>  (1) 
0

>  <r_epik_Ionization_Penalty_Neutral>  (1) 
0.32096673837562456

>  <r_epik_State_Penalty>  (1) 
0.32088234562257889

>  <r_glide_ring_energy>  (1) 
0

>  <r_i_docking_score>  (1) 
-9.3929773508430792

>  <r_i_glide_ecoul>  (1) 
-12.843359342574564

>  <r_i_glide_eff_state_penalty>  (1) 
0.32088234562257889

>  <r_i_glide_einternal>  (1) 
15.015525633926506

>  <r_i_glide_emodel>  (1) 
-70.352030708332805

>  <r_i_glide_emodel_strain>  (1) 
4.5643092029465748

>  <r_i_glide_energy>  (1) 
-49.35406299998693

>  <r_i_glide_erotb>  (1) 
0.46316945766964901

>  <r_i_glide_esite>  (1) 
-0.061984620930353965

>  <r_i_glide_evdw>  (1) 
-36.510703657412364

>  <r_i_glide_gscore>  (1) 
-9.7138596964656578

>  <r_i_glide_gscore_strain>  (1) 
0.14107730073664371

>  <r_i_glide_hbond>  (1) 
-0.61871149364724898

>  <r_i_glide_ligand_efficiency>  (1) 
-0.26837078145265941

>  <r_i_glide_ligand_efficiency_ln>  (1) 
-2.0619669944105126

>  <r_i_glide_ligand_efficiency_sa>  (1) 
-0.87785862184877916

>  <r_i_glide_lipo>  (1) 
-4.2882163181739994

>  <r_i_glide_metal>  (1) 
-0

>  <r_i_glide_rewards>  (1) 
-1.597154937863545

>  <r_lp_Energy>  (1) 
64.880727999999991

>  <r_lp_tautomer_probability>  (1) 
0.99999998906363929

>  <s_epik_cmdline>  (1) 
J2VwaWtfcHl0aG9uJywgJy1waHQnLCAnMS4wJywgJy1waCcsICc3LjQnLCAnLXRuJywgJzgnLCAnLW1hJywgJzUwMCcsICctaW1hZScsICc8aW5maWxlLm1hZT4nLCAnLW9tYWUnLCAnPG91dGZpbGUubWFlPic=

>  <s_epik_input>  (1) 
W09IXVtDQEhdMVtDSDJdW0NAQEhdKFtDSDNdKVtDQEBIXShbT0hdKVtDQEBdMShbT0hdKU9DMj1DKFtDSDJdW09IXSlbQ0BASF0oU0MyPU8pW0NASF0zW0NIMl1bQ0BIXShbQ0BIXShPW0NIM10pW0NIMl1bQ0gyXTMpW05IXWM0W2NIXWMoRilbY0hdW2NIXWM0Rg==

>  <s_glide_docking_method>  (1) 
confgen

>  <s_i_glide_gridfile>  (1) 
gpcr_5ht2c_6bqh_protein_autoprepared_prepared

>  <s_lp_Force_Field>  (1) 
S-OPLS

>  <s_lp_Variant>  (1) 
DiffSBDD_50-1

>  <s_m_source_file>  (1) 
generated_GPCR_5HT2C_ligand_DiffSBDD_2026-06-23_prepared.sdf

>  <GenAI_Model>  (1) 
DiffSBDD

>  <Protein>  (1) 
GPCR_5HT2C

$$$$
DiffSBDD_50
     RDKit          3D

  0  0  0  0  0  0  0  0  0  0999 V3000
M  V30 BEGIN CTAB
M  V30 COUNTS 66 69 0 0 1
M  V30 BEGIN ATOM
M  V30 1 C 38.874950 27.663071 57.566281 0 CFG=1
M  V30 2 F 39.360394 26.537781 51.211707 0
M  V30 3 C 38.845137 30.740042 59.516491 0
M  V30 4 O 39.349821 31.126725 56.218285 0
M  V30 5 O 37.243418 31.747006 62.167754 0
M  V30 6 O 38.259762 31.971042 59.738098 0
M  V30 7 S 40.168452 28.463985 60.068751 0
M  V30 8 C 39.402463 27.424414 56.138774 0
M  V30 9 C 36.493791 33.450729 59.000656 0 CFG=2
M  V30 10 O 36.801514 24.937861 55.266414 0
M  V30 11 C 36.519058 32.514639 61.238238 0 CFG=1
M  V30 12 C 36.957222 35.954280 59.708916 0
M  V30 13 C 37.725535 25.456245 57.439124 0
M  V30 14 C 38.245719 26.835675 55.291719 0 CFG=2
M  V30 15 C 39.749734 28.871273 51.059969 0
M  V30 16 C 38.320168 30.684135 57.063270 0
M  V30 17 C 37.966338 25.428222 55.899446 0 CFG=2
M  V30 18 C 36.590474 23.544092 55.368003 0
M  V30 19 F 39.199215 31.512315 53.530062 0
M  V30 20 C 38.803210 29.168478 53.690465 0
M  V30 21 C 36.353823 34.580305 60.040659 0 CFG=2
M  V30 22 C 38.765266 26.283733 58.223930 0
M  V30 23 C 39.725466 30.137728 51.654970 0
M  V30 24 C 36.870947 33.994255 61.338298 0
M  V30 25 C 39.662176 28.791633 58.279081 0 CFG=2
M  V30 26 C 38.869516 27.880477 53.114821 0
M  V30 27 C 36.860380 32.155812 59.790083 0 CFG=2
M  V30 28 C 38.905542 30.129917 58.346943 0
M  V30 29 N 38.503368 26.720814 53.844841 0
M  V30 30 C 39.324331 27.745907 51.785603 0
M  V30 31 C 39.245177 30.287309 52.967762 0
M  V30 32 O 36.064552 31.067824 59.367762 0
M  V30 33 O 39.610933 30.475836 61.720355 0
M  V30 34 O 37.401527 33.739257 57.960670 0
M  V30 35 C 39.494472 30.051636 60.573754 0
M  V30 36 H 37.843818 28.012960 57.516961 0
M  V30 37 H 39.585051 32.009455 56.465983 0
M  V30 38 H 38.138758 31.654262 61.860667 0
M  V30 39 H 39.840029 28.338613 55.757797 0
M  V30 40 H 40.248597 26.735259 56.150041 0
M  V30 41 H 35.501154 33.337669 58.567756 0
M  V30 42 H 35.446749 32.384108 61.399042 0
M  V30 43 H 38.044773 35.926511 59.767717 0
M  V30 44 H 36.668367 36.292753 58.713874 0
M  V30 45 H 36.617691 36.703282 60.425032 0
M  V30 46 H 37.703835 24.445990 57.845723 0
M  V30 47 H 36.736449 25.876559 57.629000 0
M  V30 48 H 37.350931 27.448658 55.400448 0
M  V30 49 H 40.102836 28.757730 50.046163 0
M  V30 50 H 37.645150 31.503216 57.236241 0
M  V30 51 H 37.704953 29.940832 56.564516 0
M  V30 52 H 38.812740 24.775867 55.675872 0
M  V30 53 H 35.601200 23.337800 54.973891 0
M  V30 54 H 37.320999 22.991538 54.778665 0
M  V30 55 H 36.605963 23.184096 56.395343 0
M  V30 56 H 38.427559 29.301759 54.682535 0
M  V30 57 H 35.280768 34.730497 60.167620 0
M  V30 58 H 39.731493 25.776175 58.236009 0
M  V30 59 H 38.445056 26.375921 59.259267 0
M  V30 60 H 40.060290 31.002845 51.100732 0
M  V30 61 H 37.949489 34.133254 61.429052 0
M  V30 62 H 36.380470 34.485959 62.167764 0
M  V30 63 H 40.597346 28.978848 57.750145 0
M  V30 64 H 38.612302 25.804976 53.431486 0
M  V30 65 H 35.806623 31.242867 58.457305 0
M  V30 66 H 37.081795 33.291389 57.186450 0
M  V30 END ATOM
M  V30 BEGIN BOND
M  V30 1 1 6 3
M  V30 2 1 8 1
M  V30 3 1 11 5
M  V30 4 1 14 8
M  V30 5 1 16 4
M  V30 6 1 17 10
M  V30 7 1 17 13
M  V30 8 1 17 14
M  V30 9 1 18 10
M  V30 10 1 21 9
M  V30 11 1 21 12
M  V30 12 1 22 1
M  V30 13 1 22 13
M  V30 14 2 23 15
M  V30 15 1 24 11
M  V30 16 1 24 21
M  V30 17 1 25 1
M  V30 18 1 25 7
M  V30 19 1 26 20
M  V30 20 1 27 6 CFG=1
M  V30 21 1 27 9
M  V30 22 1 27 11
M  V30 23 2 28 3
M  V30 24 1 28 16
M  V30 25 1 28 25
M  V30 26 1 29 14
M  V30 27 1 29 26
M  V30 28 1 30 2
M  V30 29 1 30 15
M  V30 30 2 30 26
M  V30 31 1 31 19
M  V30 32 2 31 20
M  V30 33 1 31 23
M  V30 34 1 32 27
M  V30 35 1 34 9
M  V30 36 1 35 3
M  V30 37 1 35 7
M  V30 38 2 35 33
M  V30 39 1 1 36 CFG=3
M  V30 40 1 37 4
M  V30 41 1 38 5
M  V30 42 1 39 8
M  V30 43 1 40 8
M  V30 44 1 9 41 CFG=3
M  V30 45 1 11 42 CFG=3
M  V30 46 1 43 12
M  V30 47 1 44 12
M  V30 48 1 45 12
M  V30 49 1 46 13
M  V30 50 1 47 13
M  V30 51 1 14 48 CFG=3
M  V30 52 1 49 15
M  V30 53 1 50 16
M  V30 54 1 51 16
M  V30 55 1 17 52 CFG=1
M  V30 56 1 53 18
M  V30 57 1 54 18
M  V30 58 1 55 18
M  V30 59 1 56 20
M  V30 60 1 21 57 CFG=1
M  V30 61 1 58 22
M  V30 62 1 59 22
M  V30 63 1 60 23
M  V30 64 1 61 24
M  V30 65 1 62 24
M  V30 66 1 25 63 CFG=3
M  V30 67 1 64 29
M  V30 68 1 65 32
M  V30 69 1 66 34
M  V30 END BOND
M  V30 END CTAB
M  END
>  <i_epik_Tot_Q>  (1) 
0

>  <i_epik_Tot_abs_Q>  (1) 
0

>  <i_i_glide_confnum>  (1) 
62

>  <i_i_glide_lignum>  (1) 
103

>  <i_i_glide_posenum>  (1) 
38

>  <i_i_glide_rotatable_bonds>  (1) 
11

>  <i_lp_mmshare_version>  (1) 
72125

>  <i_m_source_file_index>  (1) 
51

>  <i_f3d_flags>  (1) 
0

>  <num_sample>  (1) 
100

>  <b_lp_Chiralities_Consistent>  (1) 
1

>  <r_epik_Charging_Adjusted_Penalty>  (1) 
0.32088234562257889

>  <r_epik_Ionization_Penalty>  (1) 
0.32096673837562456

>  <r_epik_Ionization_Penalty_Charging>  (1) 
0

>  <r_epik_Ionization_Penalty_Neutral>  (1) 
0.32096673837562456

>  <r_epik_State_Penalty>  (1) 
0.32088234562257889

>  <r_glide_ring_energy>  (1) 
0

>  <r_i_docking_score>  (1) 
-9.2764617848138755

>  <r_i_glide_ecoul>  (1) 
-9.9848017633642172

>  <r_i_glide_eff_state_penalty>  (1) 
0.32088234562257889

>  <r_i_glide_einternal>  (1) 
17.186009864554144

>  <r_i_glide_emodel>  (1) 
-72.9493032626212

>  <r_i_glide_emodel_strain>  (1) 
3.9778900585279473

>  <r_i_glide_energy>  (1) 
-52.846826226573278

>  <r_i_glide_erotb>  (1) 
0.46316945766964901

>  <r_i_glide_esite>  (1) 
-0.063973790780497822

>  <r_i_glide_evdw>  (1) 
-42.86202446320906

>  <r_i_glide_gscore>  (1) 
-9.5973441304364542

>  <r_i_glide_gscore_strain>  (1) 
0

>  <r_i_glide_hbond>  (1) 
-0.48364032260496936

>  <r_i_glide_ligand_efficiency>  (1) 
-0.26504176528039647

>  <r_i_glide_ligand_efficiency_ln>  (1) 
-2.0363892417434402

>  <r_i_glide_ligand_efficiency_sa>  (1) 
-0.86696918920161681

>  <r_i_glide_lipo>  (1) 
-4.4147766742149495

>  <r_i_glide_metal>  (1) 
-0

>  <r_i_glide_rewards>  (1) 
-1.4573013128406003

>  <r_lp_Energy>  (1) 
64.880727999999991

>  <r_lp_tautomer_probability>  (1) 
0.99999998906363929

>  <s_epik_cmdline>  (1) 
J2VwaWtfcHl0aG9uJywgJy1waHQnLCAnMS4wJywgJy1waCcsICc3LjQnLCAnLXRuJywgJzgnLCAnLW1hJywgJzUwMCcsICctaW1hZScsICc8aW5maWxlLm1hZT4nLCAnLW9tYWUnLCAnPG91dGZpbGUubWFlPic=

>  <s_epik_input>  (1) 
W09IXVtDQEhdMVtDSDJdW0NAQEhdKFtDSDNdKVtDQEBIXShbT0hdKVtDQEBdMShbT0hdKU9DMj1DKFtDSDJdW09IXSlbQ0BASF0oU0MyPU8pW0NASF0zW0NIMl1bQ0BIXShbQ0BIXShPW0NIM10pW0NIMl1bQ0gyXTMpW05IXWM0W2NIXWMoRilbY0hdW2NIXWM0Rg==

>  <s_glide_docking_method>  (1) 
confgen

>  <s_i_glide_gridfile>  (1) 
gpcr_5ht2c_6bqh_protein_autoprepared_prepared

>  <s_lp_Force_Field>  (1) 
S-OPLS

>  <s_lp_Variant>  (1) 
DiffSBDD_50-1

>  <s_m_source_file>  (1) 
generated_GPCR_5HT2C_ligand_DiffSBDD_2026-06-23_prepared.sdf

>  <GenAI_Model>  (1) 
DiffSBDD

>  <Protein>  (1) 
GPCR_5HT2C

$$$$
DiffSBDD_96
     RDKit          3D

  0  0  0  0  0  0  0  0  0  0999 V3000
M  V30 BEGIN CTAB
M  V30 COUNTS 67 70 0 0 1
M  V30 BEGIN ATOM
M  V30 1 F 40.044743 35.905057 64.034445 0
M  V30 2 C 41.011987 34.503943 61.368593 0 CFG=1
M  V30 3 C 41.472129 33.144679 61.807219 0
M  V30 4 O 42.042693 30.179758 64.663818 0
M  V30 5 C 38.544213 31.805764 57.515232 0
M  V30 6 C 39.779753 34.778536 60.504245 0 CFG=2
M  V30 7 N 37.645176 32.956015 57.768097 0 CHG=1
M  V30 8 F 40.024131 29.376174 49.645363 0
M  V30 9 C 38.816848 28.060838 52.841434 0
M  V30 10 C 41.745270 33.228526 65.134278 0
M  V30 11 C 39.758090 30.267805 53.203371 0
M  V30 12 O 39.245146 33.529344 62.568984 0
M  V30 13 O 39.640820 25.338125 56.221751 0
M  V30 14 C 38.315826 27.650875 55.284662 0
M  V30 15 F 40.045033 37.070962 62.226635 0
M  V30 16 C 40.045168 30.352495 51.821345 0
M  V30 17 C 39.688540 34.765196 62.006804 0 CFG=1
M  V30 18 C 38.193591 30.997023 56.263501 0
M  V30 19 C 41.459804 30.553448 63.622206 0
M  V30 20 S 38.046018 26.751041 53.767861 0
M  V30 21 C 40.234151 32.501504 62.454751 0 CFG=2
M  V30 22 C 39.360864 33.722011 59.483451 0
M  V30 23 C 39.148559 29.097397 53.764258 0
M  V30 24 O 39.900058 26.609087 58.031519 0 CHG=-1
M  V30 25 N 38.882885 28.884068 55.052223 0 CHG=1
M  V30 26 C 41.806880 33.665513 66.598704 0
M  V30 27 O 40.558677 32.464994 64.954322 0
M  V30 28 C 40.413811 31.680442 63.762287 0 CFG=2
M  V30 29 C 39.298567 26.263707 56.989515 0
M  V30 30 F 38.181349 36.304636 62.967360 0
M  V30 31 N 37.645102 27.955747 57.718260 0
M  V30 32 C 39.726117 29.292711 50.962039 0
M  V30 33 C 37.872342 33.682969 59.054724 0
M  V30 34 C 39.100013 28.149781 51.468929 0
M  V30 35 O 41.645085 30.090327 62.475856 0 CHG=-1
M  V30 36 C 39.279766 29.932807 56.016494 0
M  V30 37 C 38.019754 27.041222 56.637965 0 CFG=1
M  V30 38 C 39.477207 36.029509 62.836718 0
M  V30 39 H 41.766350 35.287833 61.371680 0
M  V30 40 H 41.842142 32.554998 60.967905 0
M  V30 41 H 42.296931 33.254637 62.506971 0
M  V30 42 H 38.544067 31.150083 58.387602 0
M  V30 43 H 39.557949 32.173847 57.367670 0
M  V30 44 H 39.687418 35.785120 60.122247 0
M  V30 45 H 37.765337 33.611797 57.008670 0
M  V30 46 H 42.645355 32.664218 64.891453 0
M  V30 47 H 41.725095 34.107280 64.493813 0
M  V30 48 H 40.023291 31.096527 53.838065 0
M  V30 49 H 40.518511 31.238265 51.424702 0
M  V30 50 H 38.108235 31.653093 55.396188 0
M  V30 51 H 37.222278 30.522351 56.392298 0
M  V30 52 H 39.817930 31.803319 61.729603 0
M  V30 53 H 39.644710 32.734999 59.828506 0
M  V30 54 H 39.987729 33.900450 58.613388 0
M  V30 55 H 42.697416 34.263563 66.789816 0
M  V30 56 H 40.933586 34.261256 66.865144 0
M  V30 57 H 41.838062 32.798416 67.259427 0
M  V30 58 H 39.481884 31.135295 63.902118 0
M  V30 59 H 38.301169 27.788936 58.477175 0
M  V30 60 H 37.475430 34.693386 58.948393 0
M  V30 61 H 37.288162 33.201749 59.839933 0
M  V30 62 H 38.844466 27.334111 50.808351 0
M  V30 63 H 39.530881 29.429117 56.948041 0
M  V30 64 H 40.234909 30.374348 55.740133 0
M  V30 65 H 36.681079 32.617673 57.704034 0
M  V30 66 H 37.763328 28.918851 57.450865 0
M  V30 67 H 37.219417 26.310671 56.519606 0
M  V30 END ATOM
M  V30 BEGIN BOND
M  V30 1 1 3 2
M  V30 2 1 6 2
M  V30 3 1 7 5
M  V30 4 2 16 11
M  V30 5 1 17 2
M  V30 6 1 17 6
M  V30 7 1 17 12
M  V30 8 1 18 5
M  V30 9 2 19 4
M  V30 10 1 20 9
M  V30 11 1 20 14
M  V30 12 1 21 3
M  V30 13 1 21 12
M  V30 14 1 22 6
M  V30 15 2 23 9
M  V30 16 1 23 11
M  V30 17 2 25 14
M  V30 18 1 25 23
M  V30 19 1 26 10
M  V30 20 1 27 10
M  V30 21 1 28 19
M  V30 22 1 28 21
M  V30 23 1 28 27
M  V30 24 2 29 13
M  V30 25 1 29 24
M  V30 26 1 32 8
M  V30 27 1 32 16
M  V30 28 1 33 7
M  V30 29 1 33 22
M  V30 30 1 34 9
M  V30 31 2 34 32
M  V30 32 1 35 19
M  V30 33 1 36 18
M  V30 34 1 36 25
M  V30 35 1 37 14
M  V30 36 1 37 29
M  V30 37 1 37 31
M  V30 38 1 38 1
M  V30 39 1 38 15
M  V30 40 1 17 38 CFG=1
M  V30 41 1 38 30
M  V30 42 1 2 39 CFG=1
M  V30 43 1 40 3
M  V30 44 1 41 3
M  V30 45 1 42 5
M  V30 46 1 43 5
M  V30 47 1 6 44 CFG=3
M  V30 48 1 45 7
M  V30 49 1 46 10
M  V30 50 1 47 10
M  V30 51 1 48 11
M  V30 52 1 49 16
M  V30 53 1 50 18
M  V30 54 1 51 18
M  V30 55 1 21 52 CFG=3
M  V30 56 1 53 22
M  V30 57 1 54 22
M  V30 58 1 55 26
M  V30 59 1 56 26
M  V30 60 1 57 26
M  V30 61 1 28 58 CFG=1
M  V30 62 1 59 31
M  V30 63 1 60 33
M  V30 64 1 61 33
M  V30 65 1 62 34
M  V30 66 1 63 36
M  V30 67 1 64 36
M  V30 68 1 65 7
M  V30 69 1 66 31
M  V30 70 1 37 67 CFG=3
M  V30 END BOND
M  V30 END CTAB
M  END
>  <i_epik_Tot_Q>  (1) 
0

>  <i_epik_Tot_abs_Q>  (1) 
4

>  <i_i_glide_confnum>  (1) 
2849

>  <i_i_glide_lignum>  (1) 
228

>  <i_i_glide_posenum>  (1) 
90

>  <i_i_glide_rotatable_bonds>  (1) 
14

>  <i_lp_mmshare_version>  (1) 
72125

>  <i_m_source_file_index>  (1) 
97

>  <i_f3d_flags>  (1) 
0

>  <num_sample>  (1) 
100

>  <b_lp_Chiralities_Consistent>  (1) 
1

>  <r_epik_Charging_Adjusted_Penalty>  (1) 
0.0011493244952256365

>  <r_epik_Ionization_Penalty>  (1) 
0.16754632311336878

>  <r_epik_Ionization_Penalty_Charging>  (1) 
0.0011493244952256365

>  <r_epik_Ionization_Penalty_Neutral>  (1) 
0.16639699861814314

>  <r_epik_State_Penalty>  (1) 
-0

>  <r_glide_ring_energy>  (1) 
0

>  <r_i_docking_score>  (1) 
-9.2399717132998784

>  <r_i_glide_ecoul>  (1) 
-7.1832353799590276

>  <r_i_glide_eff_state_penalty>  (1) 
-0

>  <r_i_glide_einternal>  (1) 
19.019685061151964

>  <r_i_glide_emodel>  (1) 
-75.658786471357061

>  <r_i_glide_emodel_strain>  (1) 
2.24105292511004

>  <r_i_glide_energy>  (1) 
-50.391955344356383

>  <r_i_glide_erotb>  (1) 
0.57183300328268483

>  <r_i_glide_esite>  (1) 
-0.10000000000000001

>  <r_i_glide_evdw>  (1) 
-43.208719964397353

>  <r_i_glide_gscore>  (1) 
-9.2399717132998784

>  <r_i_glide_gscore_strain>  (1) 
0

>  <r_i_glide_hbond>  (1) 
-0.35999999999999999

>  <r_i_glide_ligand_efficiency>  (1) 
-0.2431571503499968

>  <r_i_glide_ligand_efficiency_ln>  (1) 
-1.9924097138165149

>  <r_i_glide_ligand_efficiency_sa>  (1) 
-0.81748835946400733

>  <r_i_glide_lipo>  (1) 
-4.0574287061343419

>  <r_i_glide_metal>  (1) 
-0

>  <r_i_glide_rewards>  (1) 
-2.0564547052345006

>  <r_lp_Energy>  (1) 
45.686198999999995

>  <r_lp_tautomer_probability>  (1) 
1

>  <s_epik_cmdline>  (1) 
J2VwaWtfcHl0aG9uJywgJy1waHQnLCAnMS4wJywgJy1waCcsICc3LjQnLCAnLXRuJywgJzgnLCAnLW1hJywgJzUwMCcsICctaW1hZScsICc8aW5maWxlLm1hZT4nLCAnLW9tYWUnLCAnPG91dGZpbGUubWFlPic=

>  <s_epik_input>  (1) 
W0NIM11bQ0gyXU9bQ0BIXShDKD1PKVtPSF0pW0NAQEhdKE8xKVtDSDJdW0NASF0oW0NAXTEyQyhGKShGKUYpW0NASF0yW0NIMl1bQ0gyXVtOSF1bQ0gyXVtDSDJdW0NIMl1OKFtDQEBIXShTMylcQyg9TlxbSF0pQyg9TylbT0hdKWMoYzM0KVtjSF1bY0hdYyhGKVtjSF00

>  <s_glide_docking_method>  (1) 
confgen

>  <s_i_glide_gridfile>  (1) 
gpcr_5ht2c_6bqh_protein_autoprepared_prepared

>  <s_lp_Force_Field>  (1) 
S-OPLS

>  <s_lp_Variant>  (1) 
DiffSBDD_96-1

>  <s_m_source_file>  (1) 
generated_GPCR_5HT2C_ligand_DiffSBDD_2026-06-23_prepared.sdf

>  <GenAI_Model>  (1) 
DiffSBDD

>  <Protein>  (1) 
GPCR_5HT2C

$$$$
DiffSBDD_50
     RDKit          3D

  0  0  0  0  0  0  0  0  0  0999 V3000
M  V30 BEGIN CTAB
M  V30 COUNTS 66 69 0 0 1
M  V30 BEGIN ATOM
M  V30 1 C 38.713260 27.874666 57.610520 0 CFG=1
M  V30 2 F 39.640499 26.537374 51.385542 0
M  V30 3 C 38.803625 30.970954 59.540666 0
M  V30 4 O 39.357842 31.178172 56.174187 0
M  V30 5 O 37.240479 32.137085 62.167648 0
M  V30 6 O 38.280986 32.231671 59.746314 0
M  V30 7 S 39.983755 28.624174 60.133863 0
M  V30 8 C 39.288354 27.620599 56.205272 0
M  V30 9 C 36.589862 33.778055 58.938673 0 CFG=2
M  V30 10 O 36.861761 25.005311 55.227761 0
M  V30 11 C 36.546851 32.891978 61.209288 0 CFG=1
M  V30 12 C 36.681970 36.328588 59.593968 0
M  V30 13 C 37.548138 25.661851 57.460555 0
M  V30 14 C 38.179223 26.989454 55.326148 0 CFG=2
M  V30 15 C 39.993769 28.881144 51.174196 0
M  V30 16 C 38.305913 30.927057 57.074568 0
M  V30 17 C 37.916468 25.601513 55.958426 0 CFG=2
M  V30 18 C 37.017725 23.616186 55.044731 0
M  V30 19 F 39.152631 31.603626 53.479668 0
M  V30 20 C 38.785529 29.259373 53.684864 0
M  V30 21 C 36.305870 34.886728 59.973849 0 CFG=2
M  V30 22 C 38.554776 26.499765 58.278470 0
M  V30 23 C 39.887569 30.170866 51.713457 0
M  V30 24 C 36.901166 34.374508 61.275632 0
M  V30 25 C 39.528963 28.971805 58.333610 0 CFG=2
M  V30 26 C 38.932303 27.952488 53.169219 0
M  V30 27 C 36.890671 32.486177 59.769224 0 CFG=2
M  V30 28 C 38.845106 30.349299 58.376354 0
M  V30 29 N 38.514240 26.820180 53.903616 0
M  V30 30 C 39.520644 27.773791 51.900342 0
M  V30 31 C 39.276940 30.359072 52.967978 0
M  V30 32 O 36.054226 31.418990 59.367782 0
M  V30 33 O 39.513027 30.678251 61.760294 0
M  V30 34 O 37.645121 34.137637 58.074011 0
M  V30 35 C 39.393640 30.253185 60.614562 0
M  V30 36 H 37.697480 28.259391 57.520337 0
M  V30 37 H 39.016680 31.664679 55.434817 0
M  V30 38 H 38.130491 31.999775 61.863074 0
M  V30 39 H 39.719331 28.536724 55.822471 0
M  V30 40 H 40.150657 26.953607 56.261712 0
M  V30 41 H 35.691438 33.648456 58.338086 0
M  V30 42 H 35.473349 32.774152 61.368590 0
M  V30 43 H 37.750403 36.437555 59.419417 0
M  V30 44 H 36.157784 36.644361 58.692326 0
M  V30 45 H 36.410517 37.020894 60.390933 0
M  V30 46 H 37.485475 24.653725 57.871430 0
M  V30 47 H 36.553053 26.094583 57.566218 0
M  V30 48 H 37.266362 27.581988 55.366453 0
M  V30 49 H 40.444974 28.737692 50.205710 0
M  V30 50 H 37.775036 31.854740 57.238725 0
M  V30 51 H 37.577545 30.257334 56.621139 0
M  V30 52 H 38.840175 25.027174 55.859682 0
M  V30 53 H 36.445152 23.337563 54.173124 0
M  V30 54 H 38.045095 23.338604 54.819533 0
M  V30 55 H 36.666273 23.055497 55.911259 0
M  V30 56 H 38.308960 29.421239 54.633610 0
M  V30 57 H 35.231023 34.881741 60.118484 0
M  V30 58 H 39.517161 25.990562 58.341344 0
M  V30 59 H 38.200110 26.602630 59.299124 0
M  V30 60 H 40.259193 31.020971 51.159473 0
M  V30 61 H 37.982124 34.524189 61.290343 0
M  V30 62 H 36.466405 34.867240 62.146445 0
M  V30 63 H 40.485377 29.112792 57.828901 0
M  V30 64 H 38.701225 25.892849 53.548449 0
M  V30 65 H 35.844490 31.542412 58.433514 0
M  V30 66 H 37.336501 34.847868 57.526494 0
M  V30 END ATOM
M  V30 BEGIN BOND
M  V30 1 1 6 3
M  V30 2 1 8 1
M  V30 3 1 11 5
M  V30 4 1 14 8
M  V30 5 1 16 4
M  V30 6 1 17 10
M  V30 7 1 17 13
M  V30 8 1 17 14
M  V30 9 1 18 10
M  V30 10 1 21 9
M  V30 11 1 21 12
M  V30 12 1 22 1
M  V30 13 1 22 13
M  V30 14 2 23 15
M  V30 15 1 24 11
M  V30 16 1 24 21
M  V30 17 1 25 1
M  V30 18 1 25 7
M  V30 19 1 26 20
M  V30 20 1 27 6 CFG=1
M  V30 21 1 27 9
M  V30 22 1 27 11
M  V30 23 2 28 3
M  V30 24 1 28 16
M  V30 25 1 28 25
M  V30 26 1 29 14
M  V30 27 1 29 26
M  V30 28 1 30 2
M  V30 29 1 30 15
M  V30 30 2 30 26
M  V30 31 1 31 19
M  V30 32 2 31 20
M  V30 33 1 31 23
M  V30 34 1 32 27
M  V30 35 1 34 9
M  V30 36 1 35 3
M  V30 37 1 35 7
M  V30 38 2 35 33
M  V30 39 1 1 36 CFG=3
M  V30 40 1 37 4
M  V30 41 1 38 5
M  V30 42 1 39 8
M  V30 43 1 40 8
M  V30 44 1 9 41 CFG=3
M  V30 45 1 11 42 CFG=1
M  V30 46 1 43 12
M  V30 47 1 44 12
M  V30 48 1 45 12
M  V30 49 1 46 13
M  V30 50 1 47 13
M  V30 51 1 14 48 CFG=3
M  V30 52 1 49 15
M  V30 53 1 50 16
M  V30 54 1 51 16
M  V30 55 1 17 52 CFG=1
M  V30 56 1 53 18
M  V30 57 1 54 18
M  V30 58 1 55 18
M  V30 59 1 56 20
M  V30 60 1 21 57 CFG=1
M  V30 61 1 58 22
M  V30 62 1 59 22
M  V30 63 1 60 23
M  V30 64 1 61 24
M  V30 65 1 62 24
M  V30 66 1 25 63 CFG=3
M  V30 67 1 64 29
M  V30 68 1 65 32
M  V30 69 1 66 34
M  V30 END BOND
M  V30 END CTAB
M  END
>  <i_epik_Tot_Q>  (1) 
0

>  <i_epik_Tot_abs_Q>  (1) 
0

>  <i_i_glide_confnum>  (1) 
318

>  <i_i_glide_lignum>  (1) 
103

>  <i_i_glide_posenum>  (1) 
287

>  <i_i_glide_rotatable_bonds>  (1) 
11

>  <i_lp_mmshare_version>  (1) 
72125

>  <i_m_source_file_index>  (1) 
51

>  <i_f3d_flags>  (1) 
0

>  <num_sample>  (1) 
100

>  <b_lp_Chiralities_Consistent>  (1) 
1

>  <r_epik_Charging_Adjusted_Penalty>  (1) 
0.32088234562257889

>  <r_epik_Ionization_Penalty>  (1) 
0.32096673837562456

>  <r_epik_Ionization_Penalty_Charging>  (1) 
0

>  <r_epik_Ionization_Penalty_Neutral>  (1) 
0.32096673837562456

>  <r_epik_State_Penalty>  (1) 
0.32088234562257889

>  <r_glide_ring_energy>  (1) 
0

>  <r_i_docking_score>  (1) 
-9.1913308890055312

>  <r_i_glide_ecoul>  (1) 
-10.478551934399974

>  <r_i_glide_eff_state_penalty>  (1) 
0.32088234562257889

>  <r_i_glide_einternal>  (1) 
18.715417368804275

>  <r_i_glide_emodel>  (1) 
-68.506832682215503

>  <r_i_glide_emodel_strain>  (1) 
3.4543466392657649

>  <r_i_glide_energy>  (1) 
-48.935337141210553

>  <r_i_glide_erotb>  (1) 
0.46316945766964901

>  <r_i_glide_esite>  (1) 
-0.05631444115542325

>  <r_i_glide_evdw>  (1) 
-38.456785206810579

>  <r_i_glide_gscore>  (1) 
-9.5122132346281099

>  <r_i_glide_gscore_strain>  (1) 
0

>  <r_i_glide_hbond>  (1) 
-0.69364904516830872

>  <r_i_glide_ligand_efficiency>  (1) 
-0.26260945397158658

>  <r_i_glide_ligand_efficiency_ln>  (1) 
-2.0177011207350732

>  <r_i_glide_ligand_efficiency_sa>  (1) 
-0.85901293762347819

>  <r_i_glide_lipo>  (1) 
-4.3274867749278387

>  <r_i_glide_metal>  (1) 
-0

>  <r_i_glide_rewards>  (1) 
-1.4033103805456639

>  <r_lp_Energy>  (1) 
64.880727999999991

>  <r_lp_tautomer_probability>  (1) 
0.99999998906363929

>  <s_epik_cmdline>  (1) 
J2VwaWtfcHl0aG9uJywgJy1waHQnLCAnMS4wJywgJy1waCcsICc3LjQnLCAnLXRuJywgJzgnLCAnLW1hJywgJzUwMCcsICctaW1hZScsICc8aW5maWxlLm1hZT4nLCAnLW9tYWUnLCAnPG91dGZpbGUubWFlPic=

>  <s_epik_input>  (1) 
W09IXVtDQEhdMVtDSDJdW0NAQEhdKFtDSDNdKVtDQEBIXShbT0hdKVtDQEBdMShbT0hdKU9DMj1DKFtDSDJdW09IXSlbQ0BASF0oU0MyPU8pW0NASF0zW0NIMl1bQ0BIXShbQ0BIXShPW0NIM10pW0NIMl1bQ0gyXTMpW05IXWM0W2NIXWMoRilbY0hdW2NIXWM0Rg==

>  <s_glide_docking_method>  (1) 
confgen

>  <s_i_glide_gridfile>  (1) 
gpcr_5ht2c_6bqh_protein_autoprepared_prepared

>  <s_lp_Force_Field>  (1) 
S-OPLS

>  <s_lp_Variant>  (1) 
DiffSBDD_50-1

>  <s_m_source_file>  (1) 
generated_GPCR_5HT2C_ligand_DiffSBDD_2026-06-23_prepared.sdf

>  <GenAI_Model>  (1) 
DiffSBDD

>  <Protein>  (1) 
GPCR_5HT2C

$$$$
DiffSBDD_96
     RDKit          3D

  0  0  0  0  0  0  0  0  0  0999 V3000
M  V30 BEGIN CTAB
M  V30 COUNTS 67 70 0 0 1
M  V30 BEGIN ATOM
M  V30 1 F 36.987567 37.744874 61.903484 0
M  V30 2 C 38.894942 35.856938 60.658693 0 CFG=1
M  V30 3 C 39.835323 34.724716 60.890755 0
M  V30 4 O 37.522292 31.199384 61.767799 0
M  V30 5 C 38.671551 31.828679 57.118345 0
M  V30 6 C 37.553432 35.799080 59.884292 0 CFG=2
M  V30 7 N 37.645138 32.585608 57.830920 0 CHG=1
M  V30 8 F 40.039362 29.432596 49.698859 0
M  V30 9 C 38.815745 27.918777 52.809941 0
M  V30 10 C 41.868162 32.501017 62.731341 0
M  V30 11 C 39.688419 30.132303 53.297950 0
M  V30 12 O 37.757283 34.189058 61.767718 0
M  V30 13 O 40.387339 26.731720 56.939284 0
M  V30 14 C 38.291791 27.367807 55.221082 0
M  V30 15 F 36.045141 36.137559 62.971573 0
M  V30 16 C 39.999748 30.295251 51.926843 0
M  V30 17 C 37.646819 35.566152 61.378355 0 CFG=1
M  V30 18 C 38.087536 30.677468 56.301262 0
M  V30 19 C 38.768172 31.124353 61.882337 0
M  V30 20 S 38.070601 26.537755 53.665887 0
M  V30 21 C 38.929930 33.558104 61.245721 0 CFG=2
M  V30 22 C 36.969127 34.647884 59.051947 0
M  V30 23 C 39.102874 28.913758 53.787349 0
M  V30 24 O 39.292288 24.808081 57.164268 0 CHG=-1
M  V30 25 N 38.825597 28.624147 55.057300 0 CHG=1
M  V30 26 C 41.978203 31.281675 63.656030 0
M  V30 27 O 40.901231 32.296946 61.710797 0
M  V30 28 C 39.535668 32.442358 62.115782 0 CFG=2
M  V30 29 C 39.348880 26.036268 56.921242 0
M  V30 30 F 38.105382 36.646813 63.398715 0
M  V30 31 N 36.943804 25.737409 56.556296 0
M  V30 32 C 39.720873 29.272856 51.006476 0
M  V30 33 C 37.934105 34.012466 58.027902 0
M  V30 34 C 39.115533 28.087306 51.445331 0
M  V30 35 O 39.445075 30.076706 61.812543 0 CHG=-1
M  V30 36 C 39.173592 29.626038 56.074139 0
M  V30 37 C 38.021327 26.734834 56.566254 0 CFG=2
M  V30 38 C 37.184777 36.540663 62.441554 0
M  V30 39 H 39.297402 36.820710 60.967804 0
M  V30 40 H 40.445093 34.539589 60.016976 0
M  V30 41 H 40.488984 34.978002 61.727122 0
M  V30 42 H 39.296082 31.423836 57.904937 0
M  V30 43 H 39.282441 32.472888 56.483534 0
M  V30 44 H 37.185996 36.773145 59.558941 0
M  V30 45 H 36.739175 32.463815 57.358318 0
M  V30 46 H 42.830437 32.675372 62.247943 0
M  V30 47 H 41.646900 33.403004 63.302183 0
M  V30 48 H 39.921246 30.933286 53.981337 0
M  V30 49 H 40.455297 31.212624 51.585156 0
M  V30 50 H 37.690906 31.060677 55.361447 0
M  V30 51 H 37.249353 30.211023 56.823734 0
M  V30 52 H 38.649629 33.078240 60.316330 0
M  V30 53 H 36.067975 35.011588 58.567757 0
M  V30 54 H 36.585349 33.874192 59.719470 0
M  V30 55 H 42.759296 31.442547 64.396922 0
M  V30 56 H 41.047028 31.097609 64.193245 0
M  V30 57 H 42.224764 30.379057 63.097063 0
M  V30 58 H 39.450243 32.718458 63.169312 0
M  V30 59 H 36.694301 25.458126 55.621569 0
M  V30 60 H 38.949824 34.041130 58.407522 0
M  V30 61 H 37.936036 34.536855 57.071482 0
M  V30 62 H 38.890326 27.301371 50.740892 0
M  V30 63 H 39.358109 29.100430 57.010024 0
M  V30 64 H 40.142536 30.062000 55.844033 0
M  V30 65 H 37.532282 32.161743 58.741770 0
M  V30 66 H 37.337454 24.901233 56.985406 0
M  V30 67 H 37.804557 27.496037 57.316284 0
M  V30 END ATOM
M  V30 BEGIN BOND
M  V30 1 1 3 2
M  V30 2 1 6 2
M  V30 3 1 7 5
M  V30 4 2 16 11
M  V30 5 1 17 2
M  V30 6 1 17 6
M  V30 7 1 17 12
M  V30 8 1 18 5
M  V30 9 2 19 4
M  V30 10 1 20 9
M  V30 11 1 20 14
M  V30 12 1 21 3
M  V30 13 1 21 12
M  V30 14 1 22 6
M  V30 15 2 23 9
M  V30 16 1 23 11
M  V30 17 2 25 14
M  V30 18 1 25 23
M  V30 19 1 26 10
M  V30 20 1 27 10
M  V30 21 1 28 19
M  V30 22 1 28 21
M  V30 23 1 28 27
M  V30 24 2 29 13
M  V30 25 1 29 24
M  V30 26 1 32 8
M  V30 27 1 32 16
M  V30 28 1 33 7
M  V30 29 1 33 22
M  V30 30 1 34 9
M  V30 31 2 34 32
M  V30 32 1 35 19
M  V30 33 1 36 18
M  V30 34 1 36 25
M  V30 35 1 37 14
M  V30 36 1 37 29
M  V30 37 1 37 31
M  V30 38 1 38 1
M  V30 39 1 38 15
M  V30 40 1 17 38 CFG=1
M  V30 41 1 38 30
M  V30 42 1 2 39 CFG=1
M  V30 43 1 40 3
M  V30 44 1 41 3
M  V30 45 1 42 5
M  V30 46 1 43 5
M  V30 47 1 6 44 CFG=1
M  V30 48 1 45 7
M  V30 49 1 46 10
M  V30 50 1 47 10
M  V30 51 1 48 11
M  V30 52 1 49 16
M  V30 53 1 50 18
M  V30 54 1 51 18
M  V30 55 1 21 52 CFG=3
M  V30 56 1 53 22
M  V30 57 1 54 22
M  V30 58 1 55 26
M  V30 59 1 56 26
M  V30 60 1 57 26
M  V30 61 1 28 58 CFG=1
M  V30 62 1 59 31
M  V30 63 1 60 33
M  V30 64 1 61 33
M  V30 65 1 62 34
M  V30 66 1 63 36
M  V30 67 1 64 36
M  V30 68 1 65 7
M  V30 69 1 66 31
M  V30 70 1 37 67 CFG=1
M  V30 END BOND
M  V30 END CTAB
M  END
>  <i_epik_Tot_Q>  (1) 
0

>  <i_epik_Tot_abs_Q>  (1) 
4

>  <i_i_glide_confnum>  (1) 
1862

>  <i_i_glide_lignum>  (1) 
229

>  <i_i_glide_posenum>  (1) 
51

>  <i_i_glide_rotatable_bonds>  (1) 
14

>  <i_lp_mmshare_version>  (1) 
72125

>  <i_m_source_file_index>  (1) 
97

>  <i_f3d_flags>  (1) 
0

>  <num_sample>  (1) 
100

>  <b_lp_Chiralities_Consistent>  (1) 
1

>  <r_epik_Charging_Adjusted_Penalty>  (1) 
0.0011493244952256365

>  <r_epik_Ionization_Penalty>  (1) 
0.16754632311336878

>  <r_epik_Ionization_Penalty_Charging>  (1) 
0.0011493244952256365

>  <r_epik_Ionization_Penalty_Neutral>  (1) 
0.16639699861814314

>  <r_epik_State_Penalty>  (1) 
-0

>  <r_glide_ring_energy>  (1) 
0

>  <r_i_docking_score>  (1) 
-9.1912471046320139

>  <r_i_glide_ecoul>  (1) 
-8.3064275239966712

>  <r_i_glide_eff_state_penalty>  (1) 
-0

>  <r_i_glide_einternal>  (1) 
24.039178069817815

>  <r_i_glide_emodel>  (1) 
-63.901800641727306

>  <r_i_glide_emodel_strain>  (1) 
4.9262506142372331

>  <r_i_glide_energy>  (1) 
-47.182188708691342

>  <r_i_glide_erotb>  (1) 
0.57183300328268483

>  <r_i_glide_esite>  (1) 
-0.10001394573293937

>  <r_i_glide_evdw>  (1) 
-38.875761184694674

>  <r_i_glide_gscore>  (1) 
-9.1912471046320139

>  <r_i_glide_gscore_strain>  (1) 
0.23156265355930827

>  <r_i_glide_hbond>  (1) 
-0.35945049190522627

>  <r_i_glide_ligand_efficiency>  (1) 
-0.24187492380610562

>  <r_i_glide_ligand_efficiency_ln>  (1) 
-1.9819032548549547

>  <r_i_glide_ligand_efficiency_sa>  (1) 
-0.81317754535750042

>  <r_i_glide_lipo>  (1) 
-3.8804663464251181

>  <r_i_glide_metal>  (1) 
-0

>  <r_i_glide_rewards>  (1) 
-2.4649597895764894

>  <r_lp_Energy>  (1) 
52.570133999999996

>  <r_lp_tautomer_probability>  (1) 
1

>  <s_epik_cmdline>  (1) 
J2VwaWtfcHl0aG9uJywgJy1waHQnLCAnMS4wJywgJy1waCcsICc3LjQnLCAnLXRuJywgJzgnLCAnLW1hJywgJzUwMCcsICctaW1hZScsICc8aW5maWxlLm1hZT4nLCAnLW9tYWUnLCAnPG91dGZpbGUubWFlPic=

>  <s_epik_input>  (1) 
W0NIM11bQ0gyXU9bQ0BIXShDKD1PKVtPSF0pW0NAQEhdKE8xKVtDSDJdW0NASF0oW0NAXTEyQyhGKShGKUYpW0NASF0yW0NIMl1bQ0gyXVtOSF1bQ0gyXVtDSDJdW0NIMl1OKFtDQEBIXShTMylcQyg9TlxbSF0pQyg9TylbT0hdKWMoYzM0KVtjSF1bY0hdYyhGKVtjSF00

>  <s_glide_docking_method>  (1) 
confgen

>  <s_i_glide_gridfile>  (1) 
gpcr_5ht2c_6bqh_protein_autoprepared_prepared

>  <s_lp_Force_Field>  (1) 
S-OPLS

>  <s_lp_Variant>  (1) 
DiffSBDD_96-2

>  <s_m_source_file>  (1) 
generated_GPCR_5HT2C_ligand_DiffSBDD_2026-06-23_prepared.sdf

>  <GenAI_Model>  (1) 
DiffSBDD

>  <Protein>  (1) 
GPCR_5HT2C

$$$$
DiffSBDD_59
     RDKit          3D

  0  0  0  0  0  0  0  0  0  0999 V3000
M  V30 BEGIN CTAB
M  V30 COUNTS 70 72 0 0 1
M  V30 BEGIN ATOM
M  V30 1 C 39.458794 28.572339 50.866320 0
M  V30 2 O 40.535612 29.930576 60.848384 0
M  V30 3 C 37.881596 27.318228 57.957644 0
M  V30 4 C 37.895331 26.789230 55.441723 0
M  V30 5 C 38.309098 30.612865 60.130262 0 CFG=1
M  V30 6 O 39.245057 32.937730 56.827573 0
M  V30 7 C 39.298095 29.262222 53.923634 0
M  V30 8 C 38.637261 32.114529 59.775405 0 CFG=2
M  V30 9 C 38.488096 28.167573 59.092747 0
M  V30 10 C 39.217280 34.378377 60.567819 0 CFG=1
M  V30 11 C 38.492872 28.074226 51.875659 0
M  V30 12 C 37.988636 32.415257 57.191667 0
M  V30 13 C 38.650945 26.833204 54.100669 0 CFG=1
M  V30 14 C 40.388317 35.007551 61.393111 0
M  V30 15 N 38.736198 33.016045 60.955881 0
M  V30 16 C 37.646309 32.650993 58.683214 0
M  V30 17 C 38.845134 28.144286 53.323832 0
M  V30 18 F 40.845730 30.070492 49.837721 0
M  V30 19 O 41.576005 35.573856 64.183142 0 CHG=-1
M  V30 20 C 39.544307 32.422693 62.037292 0
M  V30 21 O 37.694315 36.859290 62.957557 0
M  V30 22 C 40.439494 35.889955 63.769760 0
M  V30 23 C 40.088719 29.751355 50.898805 0
M  V30 24 O 39.827082 30.537762 63.562901 0
M  V30 25 N 39.697474 36.537759 64.736352 0
M  V30 26 C 38.393943 36.142491 62.237755 0
M  V30 27 C 38.318001 29.687563 58.883050 0
M  V30 28 C 39.645142 30.532474 53.276672 0
M  V30 29 S 37.781947 35.537846 60.688408 0
M  V30 30 C 39.192115 30.076982 61.281334 0 CFG=2
M  V30 31 Cl 40.251039 26.137753 54.393186 0
M  V30 32 C 39.083059 31.033480 62.467524 0 CFG=2
M  V30 33 C 38.403563 27.697954 56.574247 0
M  V30 34 C 39.761112 35.715239 62.562149 0
M  V30 35 C 40.006436 30.736470 51.975726 0
M  V30 36 H 39.597190 27.939080 50.005566 0
M  V30 37 H 40.558532 29.254783 60.187951 0
M  V30 38 H 38.080726 26.265054 58.158110 0
M  V30 39 H 36.800005 27.432985 57.940187 0
M  V30 40 H 37.947649 25.759170 55.796991 0
M  V30 41 H 36.845141 26.937785 55.243965 0
M  V30 42 H 37.287192 30.593085 60.512737 0
M  V30 43 H 39.921960 32.486174 57.306880 0
M  V30 44 H 39.483196 29.212626 54.975938 0
M  V30 45 H 39.639185 32.121077 59.365465 0
M  V30 46 H 39.548340 27.930930 59.183692 0
M  V30 47 H 38.045148 27.862927 60.035482 0
M  V30 48 H 39.553948 34.357092 59.532299 0
M  V30 49 H 38.301746 27.041975 51.584022 0
M  V30 50 H 37.541512 28.586382 51.737941 0
M  V30 51 H 37.247061 32.936681 56.583778 0
M  V30 52 H 37.926894 31.373702 56.888420 0
M  V30 53 H 38.133674 26.121739 53.460308 0
M  V30 54 H 41.196604 34.337315 61.680507 0
M  V30 55 H 40.864062 35.779101 60.786655 0
M  V30 56 H 37.509169 33.723718 58.754985 0
M  V30 57 H 36.650947 32.256972 58.890333 0
M  V30 58 H 40.586811 32.346752 61.730148 0
M  V30 59 H 39.512356 33.066698 62.916108 0
M  V30 60 H 39.463671 29.695771 63.812661 0
M  V30 61 H 38.754711 36.875704 64.585671 0
M  V30 62 H 40.049264 36.764919 65.653651 0
M  V30 63 H 37.372630 29.847028 58.363109 0
M  V30 64 H 39.110620 30.007236 58.206737 0
M  V30 65 H 39.699751 31.395516 53.923934 0
M  V30 66 H 38.845183 29.101709 61.617090 0
M  V30 67 H 38.044985 31.090545 62.793601 0
M  V30 68 H 38.073040 28.715516 56.373165 0
M  V30 69 H 39.493257 27.692906 56.604754 0
M  V30 70 H 40.300877 31.737755 51.718965 0
M  V30 END ATOM
M  V30 BEGIN BOND
M  V30 1 1 8 5
M  V30 2 1 9 3
M  V30 3 1 11 1
M  V30 4 1 12 6
M  V30 5 1 13 4
M  V30 6 1 14 10
M  V30 7 1 15 8
M  V30 8 1 15 10
M  V30 9 1 16 8
M  V30 10 1 16 12
M  V30 11 2 17 7
M  V30 12 1 17 11
M  V30 13 1 17 13
M  V30 14 1 20 15
M  V30 15 1 22 19
M  V30 16 2 23 1
M  V30 17 1 23 18
M  V30 18 1 25 22
M  V30 19 2 26 21
M  V30 20 1 27 5
M  V30 21 1 27 9
M  V30 22 1 28 7
M  V30 23 1 29 10
M  V30 24 1 29 26
M  V30 25 1 30 2
M  V30 26 1 30 5
M  V30 27 1 31 13
M  V30 28 1 32 20
M  V30 29 1 32 24
M  V30 30 1 32 30
M  V30 31 1 33 3
M  V30 32 1 33 4
M  V30 33 1 34 14
M  V30 34 2 34 22
M  V30 35 1 34 26
M  V30 36 1 35 23
M  V30 37 2 35 28
M  V30 38 1 36 1
M  V30 39 1 37 2
M  V30 40 1 38 3
M  V30 41 1 39 3
M  V30 42 1 40 4
M  V30 43 1 41 4
M  V30 44 1 5 42 CFG=1
M  V30 45 1 43 6
M  V30 46 1 44 7
M  V30 47 1 8 45 CFG=3
M  V30 48 1 46 9
M  V30 49 1 47 9
M  V30 50 1 10 48 CFG=3
M  V30 51 1 49 11
M  V30 52 1 50 11
M  V30 53 1 51 12
M  V30 54 1 52 12
M  V30 55 1 13 53 CFG=3
M  V30 56 1 54 14
M  V30 57 1 55 14
M  V30 58 1 56 16
M  V30 59 1 57 16
M  V30 60 1 58 20
M  V30 61 1 59 20
M  V30 62 1 60 24
M  V30 63 1 61 25
M  V30 64 1 62 25
M  V30 65 1 63 27
M  V30 66 1 64 27
M  V30 67 1 65 28
M  V30 68 1 30 66 CFG=1
M  V30 69 1 32 67 CFG=1
M  V30 70 1 68 33
M  V30 71 1 69 33
M  V30 72 1 70 35
M  V30 END BOND
M  V30 END CTAB
M  END
>  <i_epik_Tot_Q>  (1) 
-1

>  <i_epik_Tot_abs_Q>  (1) 
1

>  <i_i_glide_confnum>  (1) 
880

>  <i_i_glide_lignum>  (1) 
131

>  <i_i_glide_posenum>  (1) 
90

>  <i_i_glide_rotatable_bonds>  (1) 
13

>  <i_lp_mmshare_version>  (1) 
72125

>  <i_m_source_file_index>  (1) 
60

>  <i_f3d_flags>  (1) 
0

>  <num_sample>  (1) 
100

>  <b_lp_Chiralities_Consistent>  (1) 
1

>  <r_epik_Charging_Adjusted_Penalty>  (1) 
0.0074905743673960735

>  <r_epik_Ionization_Penalty>  (1) 
0.0074913792642442509

>  <r_epik_Ionization_Penalty_Charging>  (1) 
4.9207863050936644e-05

>  <r_epik_Ionization_Penalty_Neutral>  (1) 
0.0074421714011933138

>  <r_epik_State_Penalty>  (1) 
0.0074413665043451364

>  <r_glide_ring_energy>  (1) 
0

>  <r_i_docking_score>  (1) 
-9.1315859213208164

>  <r_i_glide_ecoul>  (1) 
-5.6408537970848442

>  <r_i_glide_eff_state_penalty>  (1) 
0.0074413665043451364

>  <r_i_glide_einternal>  (1) 
19.477122686913692

>  <r_i_glide_emodel>  (1) 
-58.322808373039173

>  <r_i_glide_emodel_strain>  (1) 
3.2595857482598376

>  <r_i_glide_energy>  (1) 
-49.446108097874209

>  <r_i_glide_erotb>  (1) 
0.46213008343226208

>  <r_i_glide_esite>  (1) 
-0.026985318195381042

>  <r_i_glide_evdw>  (1) 
-43.805254300789365

>  <r_i_glide_gscore>  (1) 
-9.1390272878251615

>  <r_i_glide_gscore_strain>  (1) 
0

>  <r_i_glide_hbond>  (1) 
-0.51154343882830566

>  <r_i_glide_ligand_efficiency>  (1) 
-0.26090245489488045

>  <r_i_glide_ligand_efficiency_ln>  (1) 
-2.0045857743601618

>  <r_i_glide_ligand_efficiency_sa>  (1) 
-0.8534292304521417

>  <r_i_glide_lipo>  (1) 
-4.4852860533945709

>  <r_i_glide_metal>  (1) 
-0

>  <r_i_glide_rewards>  (1) 
-1.5409517762369713

>  <r_lp_Energy>  (1) 
21.219953

>  <s_epik_Chemistry_Notes>  (1) 
This compound contains an acetal/aminal-like group ( X-CH(R)-Y where X, Y are N, S, or O) that may be acid/base labile, releasing an aldehyde.

>  <s_epik_cmdline>  (1) 
J2VwaWtfcHl0aG9uJywgJy1waHQnLCAnMS4wJywgJy1waCcsICc3LjQnLCAnLXRuJywgJzgnLCAnLW1hJywgJzUwMCcsICctaW1hZScsICc8aW5maWxlLm1hZT4nLCAnLW9tYWUnLCAnPG91dGZpbGUubWFlPic=

>  <s_epik_input>  (1) 
W0NIMl0xW0NIXT1DKEYpW0NIXT1bQ0hdW0NIXT1DMVtDQEBIXShDbClbQ0gyXVtDSDJdW0NIMl1bQ0gyXVtDSDJdW0NAQEhdMltDQEBIXShbQ0gyXVtDSDJdW09IXSlOKFtDSDJdW0NASF0oW09IXSlbQ0BASF0yW09IXSlbQ0BASF0zW0NIMl1bQ0BIXShDKD1PKVMzKUMoPU8pW05IMl0=

>  <s_glide_docking_method>  (1) 
confgen

>  <s_i_glide_gridfile>  (1) 
gpcr_5ht2c_6bqh_protein_autoprepared_prepared

>  <s_lp_Force_Field>  (1) 
S-OPLS

>  <s_lp_Variant>  (1) 
DiffSBDD_59-1

>  <s_m_source_file>  (1) 
generated_GPCR_5HT2C_ligand_DiffSBDD_2026-06-23_prepared.sdf

>  <GenAI_Model>  (1) 
DiffSBDD

>  <Protein>  (1) 
GPCR_5HT2C

$$$$
DiffSBDD_96
     RDKit          3D

  0  0  0  0  0  0  0  0  0  0999 V3000
M  V30 BEGIN CTAB
M  V30 COUNTS 67 70 0 0 1
M  V30 BEGIN ATOM
M  V30 1 F 38.403112 37.076989 62.916335 0
M  V30 2 C 38.714364 35.570739 60.225217 0 CFG=1
M  V30 3 C 40.006741 34.898091 60.568014 0
M  V30 4 O 40.968574 31.089438 62.171321 0
M  V30 5 C 38.246603 32.933726 56.622872 0
M  V30 6 C 37.307193 34.984971 60.022347 0 CFG=2
M  V30 7 N 37.645138 32.211240 57.753558 0 CHG=1
M  V30 8 F 39.943127 28.652799 49.767758 0
M  V30 9 C 38.847519 28.163690 53.197544 0
M  V30 10 C 41.948301 34.219940 64.468541 0
M  V30 11 C 39.794604 30.385229 52.971977 0
M  V30 12 O 38.445130 34.409447 62.167760 0
M  V30 13 O 40.326479 27.266478 57.409617 0
M  V30 14 C 38.404449 28.394154 55.667711 0
M  V30 15 F 37.023569 37.633931 61.346229 0
M  V30 16 C 40.043587 30.124897 51.613339 0
M  V30 17 C 37.819487 35.425547 61.383780 0 CFG=1
M  V30 18 C 38.316719 31.954619 55.450790 0
M  V30 19 C 41.461306 32.238550 62.171348 0
M  V30 20 S 38.124619 27.119977 54.446851 0
M  V30 21 C 39.610427 33.855827 61.611465 0 CFG=2
M  V30 22 C 36.927101 33.527793 59.776509 0
M  V30 23 C 39.195325 29.399492 53.817652 0
M  V30 24 O 39.734665 29.005531 58.675709 0 CHG=-1
M  V30 25 N 38.950467 29.530004 55.109039 0 CHG=1
M  V30 26 C 42.303167 35.560536 65.097200 0
M  V30 27 O 41.299387 34.487347 63.235341 0
M  V30 28 C 40.576579 33.381345 62.706350 0 CFG=2
M  V30 29 C 39.516937 28.132177 57.804244 0
M  V30 30 F 36.355556 36.369824 62.967755 0
M  V30 31 N 37.245150 29.130983 57.767805 0
M  V30 32 C 39.692608 28.892562 51.055629 0
M  V30 33 C 37.994462 32.653323 59.096739 0
M  V30 34 C 39.086248 27.912162 51.842719 0
M  V30 35 O 42.600615 32.539285 61.767753 0 CHG=-1
M  V30 36 C 39.323613 30.814727 55.740343 0
M  V30 37 C 38.136139 28.166276 57.133220 0 CFG=1
M  V30 38 C 37.383573 36.650708 62.173167 0
M  V30 39 H 38.818928 36.537751 59.774088 0
M  V30 40 H 40.445135 34.536218 59.656110 0
M  V30 41 H 40.681578 35.639458 60.997565 0
M  V30 42 H 39.250347 33.287750 56.860282 0
M  V30 43 H 37.644076 33.809080 56.381029 0
M  V30 44 H 36.601818 35.667548 59.551300 0
M  V30 45 H 36.629212 32.137755 57.588819 0
M  V30 46 H 41.299810 33.669238 65.151293 0
M  V30 47 H 42.845093 33.624338 64.307023 0
M  V30 48 H 40.078637 31.337768 53.375257 0
M  V30 49 H 40.509816 30.880409 50.996058 0
M  V30 50 H 38.588037 32.493053 54.543587 0
M  V30 51 H 37.318984 31.549873 55.266979 0
M  V30 52 H 39.275348 32.944845 61.139219 0
M  V30 53 H 35.998906 33.505408 59.202991 0
M  V30 54 H 36.669101 33.085941 60.740019 0
M  V30 55 H 42.844517 35.437933 66.032880 0
M  V30 56 H 42.922031 36.137760 64.416134 0
M  V30 57 H 41.402732 36.137754 65.304305 0
M  V30 58 H 39.964878 32.949602 63.501340 0
M  V30 59 H 37.738111 29.533589 58.558297 0
M  V30 60 H 38.106339 31.737482 59.679199 0
M  V30 61 H 38.978563 33.099826 59.044057 0
M  V30 62 H 38.812795 26.960431 51.408599 0
M  V30 63 H 39.406337 30.639780 56.806449 0
M  V30 64 H 40.341020 31.088373 55.460820 0
M  V30 65 H 38.011222 31.273945 57.697149 0
M  V30 66 H 36.920524 29.857961 57.146959 0
M  V30 67 H 37.697667 27.174495 57.252522 0
M  V30 END ATOM
M  V30 BEGIN BOND
M  V30 1 1 3 2
M  V30 2 1 6 2
M  V30 3 1 7 5
M  V30 4 2 16 11
M  V30 5 1 17 2
M  V30 6 1 17 6
M  V30 7 1 17 12
M  V30 8 1 18 5
M  V30 9 2 19 4
M  V30 10 1 20 9
M  V30 11 1 20 14
M  V30 12 1 21 3
M  V30 13 1 21 12
M  V30 14 1 22 6
M  V30 15 2 23 9
M  V30 16 1 23 11
M  V30 17 2 25 14
M  V30 18 1 25 23
M  V30 19 1 26 10
M  V30 20 1 27 10
M  V30 21 1 28 19
M  V30 22 1 28 21
M  V30 23 1 28 27
M  V30 24 2 29 13
M  V30 25 1 29 24
M  V30 26 1 32 8
M  V30 27 1 32 16
M  V30 28 1 33 7
M  V30 29 1 33 22
M  V30 30 1 34 9
M  V30 31 2 34 32
M  V30 32 1 35 19
M  V30 33 1 36 18
M  V30 34 1 36 25
M  V30 35 1 37 14
M  V30 36 1 37 29
M  V30 37 1 37 31
M  V30 38 1 38 1
M  V30 39 1 38 15
M  V30 40 1 17 38 CFG=1
M  V30 41 1 38 30
M  V30 42 1 2 39 CFG=3
M  V30 43 1 40 3
M  V30 44 1 41 3
M  V30 45 1 42 5
M  V30 46 1 43 5
M  V30 47 1 6 44 CFG=3
M  V30 48 1 45 7
M  V30 49 1 46 10
M  V30 50 1 47 10
M  V30 51 1 48 11
M  V30 52 1 49 16
M  V30 53 1 50 18
M  V30 54 1 51 18
M  V30 55 1 21 52 CFG=3
M  V30 56 1 53 22
M  V30 57 1 54 22
M  V30 58 1 55 26
M  V30 59 1 56 26
M  V30 60 1 57 26
M  V30 61 1 28 58 CFG=1
M  V30 62 1 59 31
M  V30 63 1 60 33
M  V30 64 1 61 33
M  V30 65 1 62 34
M  V30 66 1 63 36
M  V30 67 1 64 36
M  V30 68 1 65 7
M  V30 69 1 66 31
M  V30 70 1 37 67 CFG=3
M  V30 END BOND
M  V30 END CTAB
M  END
>  <i_epik_Tot_Q>  (1) 
0

>  <i_epik_Tot_abs_Q>  (1) 
4

>  <i_i_glide_confnum>  (1) 
2629

>  <i_i_glide_lignum>  (1) 
228

>  <i_i_glide_posenum>  (1) 
30

>  <i_i_glide_rotatable_bonds>  (1) 
14

>  <i_lp_mmshare_version>  (1) 
72125

>  <i_m_source_file_index>  (1) 
97

>  <i_f3d_flags>  (1) 
0

>  <num_sample>  (1) 
100

>  <b_lp_Chiralities_Consistent>  (1) 
1

>  <r_epik_Charging_Adjusted_Penalty>  (1) 
0.0011493244952256365

>  <r_epik_Ionization_Penalty>  (1) 
0.16754632311336878

>  <r_epik_Ionization_Penalty_Charging>  (1) 
0.0011493244952256365

>  <r_epik_Ionization_Penalty_Neutral>  (1) 
0.16639699861814314

>  <r_epik_State_Penalty>  (1) 
-0

>  <r_glide_ring_energy>  (1) 
0

>  <r_i_docking_score>  (1) 
-9.0667660317062513

>  <r_i_glide_ecoul>  (1) 
-9.62615237429846

>  <r_i_glide_eff_state_penalty>  (1) 
-0

>  <r_i_glide_einternal>  (1) 
21.954026483355342

>  <r_i_glide_emodel>  (1) 
-69.345664377065106

>  <r_i_glide_emodel_strain>  (1) 
4.5801373495337714

>  <r_i_glide_energy>  (1) 
-48.578995332790981

>  <r_i_glide_erotb>  (1) 
0.57183300328268483

>  <r_i_glide_esite>  (1) 
-0.10000000000000001

>  <r_i_glide_evdw>  (1) 
-38.952842958492525

>  <r_i_glide_gscore>  (1) 
-9.0667660317062513

>  <r_i_glide_gscore_strain>  (1) 
0.14503433738344285

>  <r_i_glide_hbond>  (1) 
-0.23874342224430428

>  <r_i_glide_ligand_efficiency>  (1) 
-0.23859910609753293

>  <r_i_glide_ligand_efficiency_ln>  (1) 
-1.9550614736699974

>  <r_i_glide_ligand_efficiency_sa>  (1) 
-0.80216432678412242

>  <r_i_glide_lipo>  (1) 
-3.6761025767437978

>  <r_i_glide_metal>  (1) 
-0

>  <r_i_glide_rewards>  (1) 
-2.3772223693148802

>  <r_lp_Energy>  (1) 
45.686198999999995

>  <r_lp_tautomer_probability>  (1) 
1

>  <s_epik_cmdline>  (1) 
J2VwaWtfcHl0aG9uJywgJy1waHQnLCAnMS4wJywgJy1waCcsICc3LjQnLCAnLXRuJywgJzgnLCAnLW1hJywgJzUwMCcsICctaW1hZScsICc8aW5maWxlLm1hZT4nLCAnLW9tYWUnLCAnPG91dGZpbGUubWFlPic=

>  <s_epik_input>  (1) 
W0NIM11bQ0gyXU9bQ0BIXShDKD1PKVtPSF0pW0NAQEhdKE8xKVtDSDJdW0NASF0oW0NAXTEyQyhGKShGKUYpW0NASF0yW0NIMl1bQ0gyXVtOSF1bQ0gyXVtDSDJdW0NIMl1OKFtDQEBIXShTMylcQyg9TlxbSF0pQyg9TylbT0hdKWMoYzM0KVtjSF1bY0hdYyhGKVtjSF00

>  <s_glide_docking_method>  (1) 
confgen

>  <s_i_glide_gridfile>  (1) 
gpcr_5ht2c_6bqh_protein_autoprepared_prepared

>  <s_lp_Force_Field>  (1) 
S-OPLS

>  <s_lp_Variant>  (1) 
DiffSBDD_96-1

>  <s_m_source_file>  (1) 
generated_GPCR_5HT2C_ligand_DiffSBDD_2026-06-23_prepared.sdf

>  <GenAI_Model>  (1) 
DiffSBDD

>  <Protein>  (1) 
GPCR_5HT2C

$$$$
DiffSBDD_56
     RDKit          3D

  0  0  0  0  0  0  0  0  0  0999 V3000
M  V30 BEGIN CTAB
M  V30 COUNTS 72 77 0 0 1
M  V30 BEGIN ATOM
M  V30 1 C 39.789048 27.222071 56.466695 0 CFG=1
M  V30 2 C 37.782744 25.092436 54.654167 0
M  V30 3 C 38.184962 25.592777 57.099006 0
M  V30 4 C 35.882743 34.094653 60.349174 0
M  V30 5 C 41.813438 28.082715 57.753729 0
M  V30 6 C 38.114479 28.128370 53.316318 0
M  V30 7 C 37.736871 26.177492 55.738455 0 CFG=1
M  V30 8 C 40.739879 28.408765 56.704073 0
M  V30 9 C 39.262321 28.705548 51.218494 0
M  V30 10 C 36.838858 34.681446 61.150724 0
M  V30 11 C 39.724576 32.554734 60.714685 0
M  V30 12 C 36.183016 32.938532 59.605526 0
M  V30 13 C 38.828151 29.189907 53.974381 0
M  V30 14 C 41.545041 28.641339 59.161106 0
M  V30 15 C 38.150674 34.112087 61.236560 0
M  V30 16 C 39.644993 30.042172 53.189506 0
M  V30 17 N 39.131159 27.842901 54.233757 0
M  V30 18 N 39.116578 28.695720 59.165171 0
M  V30 19 F 40.817178 30.505671 51.161582 0
M  V30 20 C 39.152679 26.601258 57.711098 0 CFG=2
M  V30 21 C 39.944151 29.736917 51.856063 0
M  V30 22 C 39.521349 35.615696 62.835668 0
M  V30 23 F 39.469936 28.471106 49.902980 0
M  V30 24 C 38.245488 29.625756 59.871061 0
M  V30 25 C 37.430783 32.385332 59.674168 0
M  V30 26 C 38.591714 27.469461 55.544646 0 CFG=2
M  V30 27 C 38.281657 27.984237 51.915568 0
M  V30 28 S 37.876933 30.962260 58.724590 0
M  V30 29 C 39.298606 34.445034 61.915088 0
M  V30 30 C 40.247273 33.471376 61.576467 0
M  V30 31 C 40.272470 28.251222 59.921362 0
M  V30 32 O 36.528269 35.805293 61.865450 0
M  V30 33 N 38.397594 32.931411 60.464524 0
M  V30 34 C 38.370638 27.569497 58.622272 0
M  V30 35 C 36.831161 23.917009 54.956868 0
M  V30 36 C 36.848195 37.003348 61.172903 0
M  V30 37 O 40.647944 35.333921 63.638210 0
M  V30 38 H 40.399629 26.438853 56.010581 0
M  V30 39 H 37.504165 25.526283 53.696777 0
M  V30 40 H 38.804396 24.723212 54.568091 0
M  V30 41 H 37.338860 25.368192 57.750396 0
M  V30 42 H 38.726320 24.656536 56.959503 0
M  V30 43 H 34.892482 34.533644 60.285652 0
M  V30 44 H 42.757097 28.511971 57.416214 0
M  V30 45 H 42.000461 27.008875 57.796137 0
M  V30 46 H 36.702053 26.490367 55.821725 0
M  V30 47 H 41.243968 28.631375 55.767706 0
M  V30 48 H 40.201885 29.324813 56.945288 0
M  V30 49 H 40.139285 31.678614 60.243807 0
M  V30 50 H 35.427622 32.488064 58.968197 0
M  V30 51 H 42.337468 28.235833 59.763914 0
M  V30 52 H 41.643368 29.725332 59.151632 0
M  V30 53 H 40.050556 30.940662 53.631713 0
M  V30 54 H 39.899355 26.062896 58.293778 0
M  V30 55 H 39.704800 36.529441 62.270782 0
M  V30 56 H 38.655115 35.798665 63.469034 0
M  V30 57 H 37.305884 29.164342 60.162115 0
M  V30 58 H 38.708497 30.033314 60.768978 0
M  V30 59 H 38.013785 28.298999 55.961424 0
M  V30 60 H 37.645370 27.306942 51.374495 0
M  V30 61 H 41.257871 33.469001 61.960708 0
M  V30 62 H 40.235469 27.184267 60.114441 0
M  V30 63 H 40.299249 28.711525 60.909222 0
M  V30 64 H 37.482426 27.942288 58.109173 0
M  V30 65 H 38.045481 26.978676 59.471961 0
M  V30 66 H 36.851897 23.168693 54.167943 0
M  V30 67 H 35.799022 24.247806 55.044812 0
M  V30 68 H 37.086968 23.407465 55.885025 0
M  V30 69 H 36.707784 37.854658 61.837305 0
M  V30 70 H 36.204961 37.141032 60.304891 0
M  V30 71 H 37.886724 37.018111 60.828760 0
M  V30 72 H 40.437070 34.601867 64.196963 0
M  V30 END ATOM
M  V30 BEGIN BOND
M  V30 1 1 7 2
M  V30 2 1 7 3
M  V30 3 1 8 1
M  V30 4 1 8 5
M  V30 5 2 10 4
M  V30 6 1 12 4
M  V30 7 2 13 6
M  V30 8 1 14 5
M  V30 9 1 15 10
M  V30 10 1 16 13
M  V30 11 1 17 6
M  V30 12 1 17 13
M  V30 13 1 20 1
M  V30 14 1 20 3
M  V30 15 1 21 9
M  V30 16 2 21 16
M  V30 17 1 21 19
M  V30 18 1 23 9
M  V30 19 1 24 18
M  V30 20 2 25 12
M  V30 21 1 26 1
M  V30 22 1 26 7
M  V30 23 1 26 17
M  V30 24 1 27 6
M  V30 25 2 27 9
M  V30 26 1 28 24
M  V30 27 1 28 25
M  V30 28 2 29 15
M  V30 29 1 29 22
M  V30 30 2 30 11
M  V30 31 1 30 29
M  V30 32 1 31 14
M  V30 33 1 31 18
M  V30 34 1 32 10
M  V30 35 1 33 11
M  V30 36 1 33 15
M  V30 37 1 33 25
M  V30 38 1 34 18
M  V30 39 1 34 20
M  V30 40 1 35 2
M  V30 41 1 36 32
M  V30 42 1 37 22
M  V30 43 1 1 38 CFG=3
M  V30 44 1 39 2
M  V30 45 1 40 2
M  V30 46 1 41 3
M  V30 47 1 42 3
M  V30 48 1 43 4
M  V30 49 1 44 5
M  V30 50 1 45 5
M  V30 51 1 7 46 CFG=1
M  V30 52 1 47 8
M  V30 53 1 48 8
M  V30 54 1 49 11
M  V30 55 1 50 12
M  V30 56 1 51 14
M  V30 57 1 52 14
M  V30 58 1 53 16
M  V30 59 1 20 54 CFG=1
M  V30 60 1 55 22
M  V30 61 1 56 22
M  V30 62 1 57 24
M  V30 63 1 58 24
M  V30 64 1 26 59 CFG=1
M  V30 65 1 60 27
M  V30 66 1 61 30
M  V30 67 1 62 31
M  V30 68 1 63 31
M  V30 69 1 64 34
M  V30 70 1 65 34
M  V30 71 1 66 35
M  V30 72 1 67 35
M  V30 73 1 68 35
M  V30 74 1 69 36
M  V30 75 1 70 36
M  V30 76 1 71 36
M  V30 77 1 72 37
M  V30 END BOND
M  V30 END CTAB
M  END
>  <i_epik_Tot_Q>  (1) 
0

>  <i_epik_Tot_abs_Q>  (1) 
0

>  <i_i_glide_confnum>  (1) 
50

>  <i_i_glide_lignum>  (1) 
122

>  <i_i_glide_posenum>  (1) 
151

>  <i_i_glide_rotatable_bonds>  (1) 
8

>  <i_lp_mmshare_version>  (1) 
72125

>  <i_m_source_file_index>  (1) 
57

>  <i_f3d_flags>  (1) 
0

>  <num_sample>  (1) 
100

>  <b_lp_Chiralities_Consistent>  (1) 
1

>  <r_epik_Charging_Adjusted_Penalty>  (1) 
0.12519281595075751

>  <r_epik_Ionization_Penalty>  (1) 
0.12878356589467399

>  <r_epik_Ionization_Penalty_Charging>  (1) 
0

>  <r_epik_Ionization_Penalty_Neutral>  (1) 
0.12878356589467399

>  <r_epik_State_Penalty>  (1) 
0.12519281595075751

>  <r_glide_ring_energy>  (1) 
0

>  <r_i_docking_score>  (1) 
-9.0663054933790761

>  <r_i_glide_ecoul>  (1) 
0.380916930543162

>  <r_i_glide_eff_state_penalty>  (1) 
0.12519281595075751

>  <r_i_glide_einternal>  (1) 
12.770994998195352

>  <r_i_glide_emodel>  (1) 
-52.464851468767051

>  <r_i_glide_emodel_strain>  (1) 
0.48132887715382822

>  <r_i_glide_energy>  (1) 
-40.40897663984903

>  <r_i_glide_erotb>  (1) 
0.36984873200181739

>  <r_i_glide_esite>  (1) 
0

>  <r_i_glide_evdw>  (1) 
-40.789893570392195

>  <r_i_glide_gscore>  (1) 
-9.1914983093298339

>  <r_i_glide_gscore_strain>  (1) 
0

>  <r_i_glide_hbond>  (1) 
0

>  <r_i_glide_ligand_efficiency>  (1) 
-0.24503528360483989

>  <r_i_glide_ligand_efficiency_ln>  (1) 
-1.9662691171571562

>  <r_i_glide_ligand_efficiency_sa>  (1) 
-0.81651192645231097

>  <r_i_glide_lipo>  (1) 
-6.3027343095577812

>  <r_i_glide_metal>  (1) 
-0

>  <r_i_glide_rewards>  (1) 
-1.2762555928357364

>  <r_lp_Energy>  (1) 
101.182165

>  <s_epik_Chemistry_Notes>  (1) 
This compound contains an acetal/aminal-like group ( X-CH(R)-Y where X, Y are N, S, or O) that may be acid/base labile, releasing an aldehyde.

>  <s_epik_cmdline>  (1) 
J2VwaWtfcHl0aG9uJywgJy1waHQnLCAnMS4wJywgJy1waCcsICc3LjQnLCAnLXRuJywgJzgnLCAnLW1hJywgJzUwMCcsICctaW1hZScsICc8aW5maWxlLm1hZT4nLCAnLW9tYWUnLCAnPG91dGZpbGUubWFlPic=

>  <s_epik_input>  (1) 
RmMoW2NIXTEpYyhGKVtjSF1jKGMxMilOMltDQEhdM1tDQEBIXShbQ0gyXVtDSDNdKVtDSDJdW0NAQEhdKFtDQEBIXTM0KVtDSDJdTihbQ0gyXVtDSDJdW0NIMl1bQ0gyXTQpW0NIMl1TYyhbY0hdW2NIXWM1T1tDSDNdKW4oYzU2KVtjSF1bY0hdYzZbQ0gyXVtPSF0=

>  <s_glide_docking_method>  (1) 
confgen

>  <s_i_glide_gridfile>  (1) 
gpcr_5ht2c_6bqh_protein_autoprepared_prepared

>  <s_lp_Force_Field>  (1) 
S-OPLS

>  <s_lp_Variant>  (1) 
DiffSBDD_56-1

>  <s_m_source_file>  (1) 
generated_GPCR_5HT2C_ligand_DiffSBDD_2026-06-23_prepared.sdf

>  <GenAI_Model>  (1) 
DiffSBDD

>  <Protein>  (1) 
GPCR_5HT2C

$$$$
DiffSBDD_93
     RDKit          3D

  0  0  0  0  0  0  0  0  0  0999 V3000
M  V30 BEGIN CTAB
M  V30 COUNTS 83 84 0 0 1
M  V30 BEGIN ATOM
M  V30 1 C 38.633175 32.859607 58.356778 0
M  V30 2 O 37.645137 33.542258 57.616629 0
M  V30 3 C 39.274756 29.287942 55.194114 0
M  V30 4 C 39.932847 36.915249 65.023614 0
M  V30 5 O 37.134045 32.003056 61.544896 0
M  V30 6 C 36.234129 37.124254 62.965342 0
M  V30 7 N 36.045136 35.828273 62.967961 0
M  V30 8 O 35.560582 37.905589 63.628476 0
M  V30 9 O 41.041391 29.908900 61.725872 0
M  V30 10 C 39.863085 37.669506 66.344507 0
M  V30 11 C 39.825407 29.409865 56.600720 0
M  V30 12 C 37.779432 34.193372 60.764864 0
M  V30 13 C 37.927614 30.619420 59.238969 0
M  V30 14 C 38.768441 37.187938 62.643388 0 CFG=2
M  V30 15 C 37.350974 37.604755 62.070032 0 CFG=2
M  V30 16 C 39.014904 27.295895 56.591778 0 CFG=1
M  V30 17 C 39.411448 28.463378 58.843484 0 CFG=1
M  V30 18 C 40.846344 27.904628 59.035136 0
M  V30 19 C 38.937436 34.586952 61.724227 0
M  V30 20 S 39.383871 29.770191 61.440752 0 CHG=1
M  V30 21 O 41.642961 35.429148 60.971105 0
M  V30 22 N 38.055661 32.077277 59.462733 0
M  V30 23 O 39.246142 28.137772 61.774974 0
M  V30 24 O 37.665510 27.637709 54.498914 0
M  V30 25 F 38.238996 25.778121 58.206839 0
M  V30 26 C 39.980832 36.174362 66.345475 0
M  V30 27 C 40.956366 36.005352 62.045346 0
M  V30 28 C 39.451699 36.075205 61.738398 0 CFG=2
M  V30 29 C 37.626532 32.656824 60.621603 0
M  V30 30 C 37.036269 39.011497 61.516909 0
M  V30 31 C 38.191355 24.906569 56.094856 0
M  V30 32 C 39.218659 29.833079 59.612190 0 CFG=2
M  V30 33 O 38.045144 38.936647 59.407697 0
M  V30 34 C 38.720695 36.784280 64.158277 0
M  V30 35 C 38.020935 26.171673 56.956454 0 CFG=2
M  V30 36 C 38.109830 39.423450 60.553272 0
M  V30 37 C 38.927747 27.796418 55.118801 0 CFG=1
M  V30 38 O 38.982907 40.217315 60.967709 0 CHG=-1
M  V30 39 N 39.015550 28.524875 57.408497 0
M  V30 40 H 39.399358 33.553157 58.714274 0
M  V30 41 H 39.161346 32.213390 57.662286 0
M  V30 42 H 36.952856 32.934407 57.366790 0
M  V30 43 H 38.382163 29.908590 55.100240 0
M  V30 44 H 39.988721 29.607844 54.436451 0
M  V30 45 H 40.846351 36.878307 64.468276 0
M  V30 46 H 36.629168 35.234853 62.399102 0
M  V30 47 H 35.323480 35.424004 63.563086 0
M  V30 48 H 41.341811 29.013670 61.800432 0
M  V30 49 H 40.734423 38.225263 66.680445 0
M  V30 50 H 38.905729 38.094293 66.639255 0
M  V30 51 H 39.834376 30.433651 56.951407 0
M  V30 52 H 40.845345 29.038049 56.591542 0
M  V30 53 H 37.885985 34.723918 59.822921 0
M  V30 54 H 36.812449 34.524041 61.113410 0
M  V30 55 H 37.674489 30.495572 58.186463 0
M  V30 56 H 37.068000 30.196521 59.763725 0
M  V30 57 H 39.396412 38.077526 62.587519 0
M  V30 58 H 37.217922 36.999584 61.171840 0
M  V30 59 H 40.004355 26.846709 56.671970 0
M  V30 60 H 38.730571 27.763957 59.326743 0
M  V30 61 H 41.100740 27.755704 60.081091 0
M  V30 62 H 40.966074 26.929035 58.567619 0
M  V30 63 H 41.608474 28.563283 58.619493 0
M  V30 64 H 38.843125 34.186543 62.727757 0
M  V30 65 H 39.752956 33.971015 61.346090 0
M  V30 66 H 41.918974 36.134083 60.396518 0
M  V30 67 H 38.852379 28.096296 62.645895 0
M  V30 68 H 37.539668 26.723113 54.300791 0
M  V30 69 H 39.101019 35.621599 66.668559 0
M  V30 70 H 40.935947 35.747327 66.647216 0
M  V30 71 H 41.388723 36.982009 62.217311 0
M  V30 72 H 41.150780 35.401662 62.931760 0
M  V30 73 H 39.349647 36.430059 60.714488 0
M  V30 74 H 36.098588 38.943685 60.968959 0
M  V30 75 H 36.844502 39.818485 62.216045 0
M  V30 76 H 37.958903 25.069532 55.042553 0
M  V30 77 H 39.216708 24.534793 56.146917 0
M  V30 78 H 37.534671 24.110620 56.447702 0
M  V30 79 H 40.044167 30.467752 59.351550 0
M  V30 80 H 37.969714 37.335904 64.712199 0
M  V30 81 H 38.454487 35.744976 64.167770 0
M  V30 82 H 36.993892 26.532134 56.915796 0
M  V30 83 H 39.665452 27.270824 54.511872 0
M  V30 END ATOM
M  V30 BEGIN BOND
M  V30 1 1 2 1
M  V30 2 1 7 6
M  V30 3 2 8 6
M  V30 4 1 10 4
M  V30 5 1 11 3
M  V30 6 1 15 6
M  V30 7 1 15 14
M  V30 8 1 18 17
M  V30 9 1 19 12
M  V30 10 1 20 9
M  V30 11 1 22 1
M  V30 12 1 22 13
M  V30 13 1 23 20
M  V30 14 1 26 4
M  V30 15 1 26 10
M  V30 16 1 27 21
M  V30 17 1 28 14
M  V30 18 1 28 19
M  V30 19 1 28 27
M  V30 20 2 29 5
M  V30 21 1 29 12
M  V30 22 1 29 22
M  V30 23 1 30 15
M  V30 24 1 32 13
M  V30 25 1 32 17
M  V30 26 1 32 20
M  V30 27 1 34 4
M  V30 28 1 34 14
M  V30 29 1 35 16
M  V30 30 1 35 25
M  V30 31 1 35 31
M  V30 32 1 36 30
M  V30 33 2 36 33
M  V30 34 1 37 3
M  V30 35 1 37 16
M  V30 36 1 37 24
M  V30 37 1 38 36
M  V30 38 1 39 11
M  V30 39 1 39 16
M  V30 40 1 39 17
M  V30 41 1 40 1
M  V30 42 1 41 1
M  V30 43 1 42 2
M  V30 44 1 43 3
M  V30 45 1 44 3
M  V30 46 1 45 4
M  V30 47 1 46 7
M  V30 48 1 47 7
M  V30 49 1 48 9
M  V30 50 1 49 10
M  V30 51 1 50 10
M  V30 52 1 51 11
M  V30 53 1 52 11
M  V30 54 1 53 12
M  V30 55 1 54 12
M  V30 56 1 55 13
M  V30 57 1 56 13
M  V30 58 1 14 57 CFG=1
M  V30 59 1 15 58 CFG=3
M  V30 60 1 16 59 CFG=3
M  V30 61 1 17 60 CFG=1
M  V30 62 1 61 18
M  V30 63 1 62 18
M  V30 64 1 63 18
M  V30 65 1 64 19
M  V30 66 1 65 19
M  V30 67 1 66 21
M  V30 68 1 67 23
M  V30 69 1 68 24
M  V30 70 1 69 26
M  V30 71 1 70 26
M  V30 72 1 71 27
M  V30 73 1 72 27
M  V30 74 1 28 73 CFG=3
M  V30 75 1 74 30
M  V30 76 1 75 30
M  V30 77 1 76 31
M  V30 78 1 77 31
M  V30 79 1 78 31
M  V30 80 1 32 79 CFG=3
M  V30 81 1 80 34
M  V30 82 1 81 34
M  V30 83 1 35 82 CFG=1
M  V30 84 1 37 83 CFG=3
M  V30 END BOND
M  V30 END CTAB
M  END
>  <i_epik_Tot_Q>  (1) 
0

>  <i_epik_Tot_abs_Q>  (1) 
2

>  <i_i_glide_confnum>  (1) 
3331

>  <i_i_glide_lignum>  (1) 
214

>  <i_i_glide_posenum>  (1) 
256

>  <i_i_glide_rotatable_bonds>  (1) 
24

>  <i_lp_mmshare_version>  (1) 
72125

>  <i_m_source_file_index>  (1) 
94

>  <i_f3d_flags>  (1) 
0

>  <num_sample>  (1) 
100

>  <b_lp_Chiralities_Consistent>  (1) 
1

>  <r_epik_Charging_Adjusted_Penalty>  (1) 
0.37121505818338452

>  <r_epik_Ionization_Penalty>  (1) 
0.37121789513022985

>  <r_epik_Ionization_Penalty_Charging>  (1) 
0.00098257200063165957

>  <r_epik_Ionization_Penalty_Neutral>  (1) 
0.37023532312959817

>  <r_epik_State_Penalty>  (1) 
0.37023248618275284

>  <r_glide_ring_energy>  (1) 
0

>  <r_i_docking_score>  (1) 
-9.0014040190718809

>  <r_i_glide_ecoul>  (1) 
-21.371738582299198

>  <r_i_glide_eff_state_penalty>  (1) 
0.37023248618275284

>  <r_i_glide_einternal>  (1) 
22.278134875588403

>  <r_i_glide_emodel>  (1) 
-51.342320392406627

>  <r_i_glide_emodel_strain>  (1) 
4.0656048171447452

>  <r_i_glide_energy>  (1) 
-30.665743181315811

>  <r_i_glide_erotb>  (1) 
0.82577533054746977

>  <r_i_glide_esite>  (1) 
-0.08660502004081766

>  <r_i_glide_evdw>  (1) 
-9.2940045990166116

>  <r_i_glide_gscore>  (1) 
-9.3716365052546333

>  <r_i_glide_gscore_strain>  (1) 
0.016401204286186299

>  <r_i_glide_hbond>  (1) 
-1.6811732179968346

>  <r_i_glide_ligand_efficiency>  (1) 
-0.23080523125825336

>  <r_i_glide_ligand_efficiency_ln>  (1) 
-1.9301565417372084

>  <r_i_glide_ligand_efficiency_sa>  (1) 
-0.78270934135051995

>  <r_i_glide_lipo>  (1) 
-3.5478606509416601

>  <r_i_glide_metal>  (1) 
-0

>  <r_i_glide_rewards>  (1) 
-1.2277131338132687

>  <r_lp_Energy>  (1) 
19.498639999999998

>  <s_epik_Chemistry_Notes>  (1) 
This compound contains an acetal/aminal-like group ( X-CH(R)-Y where X, Y are N, S, or O) that may be acid/base labile, releasing an aldehyde.

>  <s_epik_cmdline>  (1) 
J2VwaWtfcHl0aG9uJywgJy1waHQnLCAnMS4wJywgJy1waCcsICc3LjQnLCAnLXRuJywgJzgnLCAnLW1hJywgJzUwMCcsICctaW1hZScsICc8aW5maWxlLm1hZT4nLCAnLW9tYWUnLCAnPG91dGZpbGUubWFlPic=

>  <s_epik_input>  (1) 
W0NIMl0xW0NIMl1bQ0hdMVtDSDJdW0NAQEhdKFtDQEBIXShDKD1PKVtOSDJdKVtDSDJdQyg9TylbT0hdKVtDQEBIXShbQ0gyXVtPSF0pW0NIMl1bQ0gyXUMoPU8pTihbQ0gyXVtPSF0pW0NIMl1bQ0BASF0oW1MrXShbT0hdKVtPSF0pW0NASF0oW0NIM10pTjJbQ0gyXVtDSDJdW0NASF0oW09IXSlbQ0BASF0yW0NASF0oRilbQ0gzXQ==

>  <s_glide_docking_method>  (1) 
confgen

>  <s_i_glide_gridfile>  (1) 
gpcr_5ht2c_6bqh_protein_autoprepared_prepared

>  <s_lp_Force_Field>  (1) 
S-OPLS

>  <s_lp_Variant>  (1) 
DiffSBDD_93-2

>  <s_m_source_file>  (1) 
generated_GPCR_5HT2C_ligand_DiffSBDD_2026-06-23_prepared.sdf

>  <GenAI_Model>  (1) 
DiffSBDD

>  <Protein>  (1) 
GPCR_5HT2C

$$$$
DiffSBDD_68
     RDKit          3D

  0  0  0  0  0  0  0  0  0  0999 V3000
M  V30 BEGIN CTAB
M  V30 COUNTS 77 79 0 0 1
M  V30 BEGIN ATOM
M  V30 1 C 42.112434 26.985065 66.689576 0 CFG=2
M  V30 2 O 40.951659 30.135294 66.676970 0
M  V30 3 C 38.746017 30.442725 55.114046 0 CFG=2
M  V30 4 O 41.044521 25.337834 68.940062 0
M  V30 5 C 40.932512 33.978068 62.814108 0 CFG=1
M  V30 6 C 40.246527 35.169850 62.126686 0
M  V30 7 C 41.305492 34.262570 64.274903 0
M  V30 8 C 37.840218 30.950283 59.064392 0 CFG=1
M  V30 9 C 41.955529 25.724547 65.836055 0
M  V30 10 O 37.245147 28.791212 54.162586 0
M  V30 11 C 38.600765 29.045058 54.467396 0 CFG=2
M  V30 12 C 41.043753 29.826394 65.489306 0
M  V30 13 C 38.062816 31.591921 54.355277 0
M  V30 14 C 42.774964 28.139032 65.926850 0
M  V30 15 C 42.450657 25.489452 68.889465 0
M  V30 16 C 38.605576 27.804298 56.789954 0
M  V30 17 C 40.211453 30.557057 64.434741 0
M  V30 18 O 38.045211 32.765872 55.140554 0
M  V30 19 O 38.845072 31.922929 59.333928 0
M  V30 20 C 40.916928 31.844540 63.922575 0 CFG=2
M  V30 21 C 41.277549 32.900327 64.992663 0 CFG=1
M  V30 22 O 42.833505 32.964165 66.651247 0
M  V30 23 F 40.445554 27.873713 55.367760 0
M  V30 24 C 42.974465 26.028484 67.541912 0 CFG=2
M  V30 25 C 37.390220 31.902275 61.197626 0 CFG=2
M  V30 26 O 36.629726 32.939589 61.767683 0
M  V30 27 O 41.293381 25.425630 64.845666 0
M  V30 28 N 41.866566 28.865300 65.045126 0
M  V30 29 C 44.479653 26.300542 67.657062 0
M  V30 30 N 42.676531 32.621541 65.498504 0
M  V30 31 F 38.768540 26.732161 54.713387 0
M  V30 32 O 42.832825 24.962568 66.543170 0
M  V30 33 S 38.388372 29.261209 59.454809 0
M  V30 34 C 39.118352 27.862475 55.333566 0
M  V30 35 C 39.938155 31.980080 61.525464 0
M  V30 36 O 40.722545 31.113158 61.138121 0
M  V30 37 O 35.878127 32.381926 59.367697 0
M  V30 38 C 38.734952 32.417621 60.668008 0 CFG=1
M  V30 39 F 40.043751 30.722359 55.195754 0
M  V30 40 S 39.652350 28.732736 57.955773 0
M  V30 41 C 40.119704 32.669887 62.887548 0 CFG=2
M  V30 42 C 36.676386 31.365242 59.966697 0 CFG=1
M  V30 43 H 41.190961 27.269833 67.197898 0
M  V30 44 H 38.354462 30.424556 56.124368 0
M  V30 45 H 40.621081 26.190233 68.967188 0
M  V30 46 H 41.859279 33.769909 62.275508 0
M  V30 47 H 39.240768 35.329937 62.516295 0
M  V30 48 H 40.814026 36.087780 62.284673 0
M  V30 49 H 40.176762 35.027048 61.048792 0
M  V30 50 H 42.271698 34.765286 64.341914 0
M  V30 51 H 40.573505 34.928705 64.733581 0
M  V30 52 H 37.536788 30.986184 58.021666 0
M  V30 53 H 37.196421 27.944504 53.742917 0
M  V30 54 H 39.133414 29.045402 53.514897 0
M  V30 55 H 38.548654 31.781627 53.397598 0
M  V30 56 H 37.018692 31.345177 54.167735 0
M  V30 57 H 43.239321 28.835492 66.627662 0
M  V30 58 H 43.589044 27.774584 65.298395 0
M  V30 59 H 42.735261 26.157984 69.702956 0
M  V30 60 H 42.906054 24.524196 69.113835 0
M  V30 61 H 38.597501 26.770163 57.136626 0
M  V30 62 H 37.580406 28.161467 56.854637 0
M  V30 63 H 40.014275 29.876606 63.605339 0
M  V30 64 H 39.241767 30.779559 64.872649 0
M  V30 65 H 37.132835 32.939032 55.369421 0
M  V30 66 H 41.846996 31.532392 63.441200 0
M  V30 67 H 40.579439 32.907438 65.832432 0
M  V30 68 H 37.535757 31.104079 61.927419 0
M  V30 69 H 36.152953 33.325917 61.039611 0
M  V30 70 H 41.891343 28.651908 64.058081 0
M  V30 71 H 44.680926 27.136299 68.327393 0
M  V30 72 H 45.013510 25.432374 68.045152 0
M  V30 73 H 44.931446 26.538324 66.694597 0
M  V30 74 H 35.645118 32.137078 58.458694 0
M  V30 75 H 38.713208 33.503484 60.600949 0
M  V30 76 H 39.135350 32.891083 63.299536 0
M  V30 77 H 36.023755 30.524612 60.203261 0
M  V30 END ATOM
M  V30 BEGIN BOND
M  V30 1 1 6 5
M  V30 2 1 7 5
M  V30 3 1 9 1
M  V30 4 1 11 3
M  V30 5 1 11 10
M  V30 6 2 12 2
M  V30 7 1 13 3
M  V30 8 1 14 1
M  V30 9 1 15 4
M  V30 10 1 17 12
M  V30 11 1 18 13
M  V30 12 1 19 8
M  V30 13 1 20 17
M  V30 14 1 21 7
M  V30 15 1 21 20
M  V30 16 1 24 1
M  V30 17 1 24 15 CFG=1
M  V30 18 1 26 25
M  V30 19 2 27 9
M  V30 20 1 28 12
M  V30 21 1 28 14
M  V30 22 1 29 24
M  V30 23 1 30 21
M  V30 24 2 30 22
M  V30 25 1 32 9
M  V30 26 1 32 24
M  V30 27 1 33 8
M  V30 28 1 34 11
M  V30 29 1 34 16
M  V30 30 1 34 23
M  V30 31 1 34 31
M  V30 32 2 36 35
M  V30 33 1 38 19
M  V30 34 1 38 25
M  V30 35 1 38 35
M  V30 36 1 39 3
M  V30 37 1 40 16
M  V30 38 1 40 33
M  V30 39 1 41 5
M  V30 40 1 41 20
M  V30 41 1 41 35
M  V30 42 1 42 8
M  V30 43 1 42 25
M  V30 44 1 42 37
M  V30 45 1 1 43 CFG=1
M  V30 46 1 3 44 CFG=1
M  V30 47 1 45 4
M  V30 48 1 5 46 CFG=3
M  V30 49 1 47 6
M  V30 50 1 48 6
M  V30 51 1 49 6
M  V30 52 1 50 7
M  V30 53 1 51 7
M  V30 54 1 8 52 CFG=3
M  V30 55 1 53 10
M  V30 56 1 11 54 CFG=3
M  V30 57 1 55 13
M  V30 58 1 56 13
M  V30 59 1 57 14
M  V30 60 1 58 14
M  V30 61 1 59 15
M  V30 62 1 60 15
M  V30 63 1 61 16
M  V30 64 1 62 16
M  V30 65 1 63 17
M  V30 66 1 64 17
M  V30 67 1 65 18
M  V30 68 1 20 66 CFG=3
M  V30 69 1 21 67 CFG=1
M  V30 70 1 25 68 CFG=1
M  V30 71 1 69 26
M  V30 72 1 70 28
M  V30 73 1 71 29
M  V30 74 1 72 29
M  V30 75 1 73 29
M  V30 76 1 74 37
M  V30 77 1 38 75 CFG=3
M  V30 78 1 41 76 CFG=1
M  V30 79 1 42 77 CFG=1
M  V30 END BOND
M  V30 END CTAB
M  END
>  <i_epik_Tot_Q>  (1) 
0

>  <i_epik_Tot_abs_Q>  (1) 
0

>  <i_i_glide_confnum>  (1) 
11753

>  <i_i_glide_lignum>  (1) 
152

>  <i_i_glide_posenum>  (1) 
370

>  <i_i_glide_rotatable_bonds>  (1) 
21

>  <i_lp_mmshare_version>  (1) 
72125

>  <i_m_source_file_index>  (1) 
69

>  <i_f3d_flags>  (1) 
0

>  <num_sample>  (1) 
100

>  <b_lp_Chiralities_Consistent>  (1) 
1

>  <r_epik_Charging_Adjusted_Penalty>  (1) 
0.055139977008856429

>  <r_epik_Ionization_Penalty>  (1) 
0.055151113316776565

>  <r_epik_Ionization_Penalty_Charging>  (1) 
0

>  <r_epik_Ionization_Penalty_Neutral>  (1) 
0.055151113316776565

>  <r_epik_State_Penalty>  (1) 
0.055139977008856429

>  <r_glide_ring_energy>  (1) 
0

>  <r_i_docking_score>  (1) 
-8.9980867883498057

>  <r_i_glide_ecoul>  (1) 
-17.918894382857147

>  <r_i_glide_eff_state_penalty>  (1) 
0.055139977008856429

>  <r_i_glide_einternal>  (1) 
8.0897190850699303

>  <r_i_glide_emodel>  (1) 
-87.82356119970359

>  <r_i_glide_emodel_strain>  (1) 
3.3162513967754279

>  <r_i_glide_energy>  (1) 
-65.288881626829465

>  <r_i_glide_erotb>  (1) 
0.60671089225908026

>  <r_i_glide_esite>  (1) 
0

>  <r_i_glide_evdw>  (1) 
-47.369987243972325

>  <r_i_glide_gscore>  (1) 
-9.0532267653586622

>  <r_i_glide_gscore_strain>  (1) 
0

>  <r_i_glide_hbond>  (1) 
-0.67212668985863899

>  <r_i_glide_ligand_efficiency>  (1) 
-0.21424016162737633

>  <r_i_glide_ligand_efficiency_ln>  (1) 
-1.899264303619834

>  <r_i_glide_ligand_efficiency_sa>  (1) 
-0.74470451022153983

>  <r_i_glide_lipo>  (1) 
-2.4528896903417801

>  <r_i_glide_metal>  (1) 
-0

>  <r_i_glide_rewards>  (1) 
-1.4785877577901361

>  <r_lp_Energy>  (1) 
-0.130936

>  <r_lp_tautomer_probability>  (1) 
0.99999996000000102

>  <s_epik_Chemistry_Notes>  (1) 
This compound has an ester and may undergo hydrolysis at high or low pH. This compound contains an acetal/aminal-like group ( X-CH(R)-Y where X, Y are N, S, or O) that may be acid/base labile, releasing an aldehyde.

>  <s_epik_cmdline>  (1) 
J2VwaWtfcHl0aG9uJywgJy1waHQnLCAnMS4wJywgJy1waCcsICc3LjQnLCAnLXRuJywgJzgnLCAnLW1hJywgJzUwMCcsICctaW1hZScsICc8aW5maWxlLm1hZT4nLCAnLW9tYWUnLCAnPG91dGZpbGUubWFlPic=

>  <s_epik_input>  (1) 
W09IXVtDSDJdW0NAXTEoW0NIM10pW0NASF0oQyg9TylPMSlbQ0gyXVtOSF1DKD1PKVtDSDJdW0NASF0oW0NAQEhdKE49TylbQ0gyXVtDQEBIXTJbQ0gzXSlbQ0BASF0yQyg9TylbQ0BIXShbQ0BASF0oW09IXSlbQ0BIXTNbT0hdKU9bQ0BIXTNTU1tDSDJdQyhGKShGKVtDQEBIXShbT0hdKVtDQEBIXShGKVtDSDJdW09IXQ==

>  <s_glide_docking_method>  (1) 
confgen

>  <s_i_glide_gridfile>  (1) 
gpcr_5ht2c_6bqh_protein_autoprepared_prepared

>  <s_lp_Force_Field>  (1) 
S-OPLS

>  <s_lp_Variant>  (1) 
DiffSBDD_68-1

>  <s_m_source_file>  (1) 
generated_GPCR_5HT2C_ligand_DiffSBDD_2026-06-23_prepared.sdf

>  <GenAI_Model>  (1) 
DiffSBDD

>  <Protein>  (1) 
GPCR_5HT2C

$$$$
DiffSBDD_16
     RDKit          3D

  0  0  0  0  0  0  0  0  0  0999 V3000
M  V30 BEGIN CTAB
M  V30 COUNTS 70 74 0 0 1
M  V30 BEGIN ATOM
M  V30 1 C 39.245186 28.543444 53.245120 0
M  V30 2 C 36.901501 36.261484 59.431472 0
M  V30 3 C 37.704501 30.196108 57.341030 0 CFG=1
M  V30 4 C 37.813154 31.203427 56.169999 0
M  V30 5 C 39.644773 29.802128 51.180982 0
M  V30 6 C 39.501242 28.633201 50.435471 0
M  V30 7 C 37.652314 25.351581 56.216744 0
M  V30 8 C 38.999272 24.786317 56.696952 0
M  V30 9 C 38.954764 29.338139 57.627736 0
M  V30 10 C 39.244623 27.419614 51.072884 0
M  V30 11 O 37.245185 26.436871 54.151354 0
M  V30 12 C 37.645261 34.360590 58.118206 0
M  V30 13 C 37.995740 33.062712 57.933733 0
M  V30 14 C 38.049813 32.014916 59.030577 0
M  V30 15 C 37.387489 35.043384 59.401379 0
M  V30 16 C 39.514452 29.762688 52.579436 0
M  V30 17 N 36.845266 36.853442 60.666750 0
M  V30 18 C 39.257562 35.501175 62.949080 0
M  V30 19 N 37.238623 30.874012 58.568023 0 CHG=1
M  V30 20 C 39.723587 34.364563 62.098385 0
M  V30 21 C 39.929460 31.111492 50.479490 0
M  V30 22 C 39.563607 25.512679 57.926691 0
M  V30 23 C 41.273375 27.182220 57.000510 0
M  V30 24 C 39.950277 26.995876 57.751622 0 CFG=1
M  V30 25 C 39.213504 28.561394 54.749481 0
M  V30 26 C 38.809970 27.856713 57.168478 0 CFG=2
M  V30 27 C 37.822806 26.502103 55.223175 0
M  V30 28 C 37.767564 34.528653 60.739790 0 CFG=2
M  V30 29 C 38.662900 27.672214 55.644272 0
M  V30 30 C 37.546033 35.979947 61.309659 0
M  V30 31 N 39.131545 34.019821 61.006762 0
M  V30 32 C 39.130499 27.360521 52.469605 0
M  V30 33 C 38.390514 32.560048 56.553830 0
M  V30 34 C 38.229157 36.276716 62.558881 0
M  V30 35 H 36.606027 36.834614 58.567264 0
M  V30 36 H 36.891020 29.518850 57.080799 0
M  V30 37 H 36.845306 31.335316 55.706936 0
M  V30 38 H 38.388499 30.848726 55.331871 0
M  V30 39 H 39.595104 28.665705 49.366988 0
M  V30 40 H 37.019841 25.654759 57.050152 0
M  V30 41 H 37.099294 24.561353 55.707457 0
M  V30 42 H 38.850878 23.737876 56.961312 0
M  V30 43 H 39.734905 24.781803 55.890528 0
M  V30 44 H 39.852741 29.822743 57.244215 0
M  V30 45 H 39.113472 29.316849 58.706603 0
M  V30 46 H 39.151451 26.527293 50.489222 0
M  V30 47 H 37.645572 34.971756 57.241550 0
M  V30 48 H 39.076716 31.716939 59.239542 0
M  V30 49 H 37.568077 32.268502 59.960076 0
M  V30 50 H 39.630930 30.672405 53.151491 0
M  V30 51 H 39.811007 35.691252 63.857484 0
M  V30 52 H 36.330634 31.255159 58.295988 0
M  V30 53 H 40.616773 33.847363 62.458725 0
M  V30 54 H 39.362479 31.929455 50.923681 0
M  V30 55 H 40.992679 31.337691 50.537612 0
M  V30 56 H 39.650529 31.063988 49.426711 0
M  V30 57 H 38.826515 25.436466 58.725590 0
M  V30 58 H 40.440179 24.962612 58.269550 0
M  V30 59 H 41.244630 26.662638 56.044192 0
M  V30 60 H 41.489244 28.231043 56.803243 0
M  V30 61 H 42.107844 26.792508 57.582985 0
M  V30 62 H 40.137988 27.354102 58.764543 0
M  V30 63 H 39.751443 29.389428 55.172160 0
M  V30 64 H 37.883983 27.531971 57.644728 0
M  V30 65 H 36.991066 33.887207 61.157734 0
M  V30 66 H 39.006530 26.406764 52.930572 0
M  V30 67 H 38.139481 33.294841 55.785883 0
M  V30 68 H 39.477718 32.484667 56.555309 0
M  V30 69 H 37.898850 37.140693 63.116789 0
M  V30 70 H 37.115083 30.202395 59.309595 0
M  V30 END ATOM
M  V30 BEGIN BOND
M  V30 1 1 4 3
M  V30 2 1 6 5
M  V30 3 1 8 7
M  V30 4 1 9 3
M  V30 5 2 10 6
M  V30 6 2 13 12
M  V30 7 1 14 13
M  V30 8 2 15 2
M  V30 9 1 15 12
M  V30 10 1 16 1
M  V30 11 2 16 5
M  V30 12 1 17 2
M  V30 13 1 19 3
M  V30 14 1 19 14
M  V30 15 1 20 18
M  V30 16 1 21 5
M  V30 17 1 22 8
M  V30 18 1 24 22
M  V30 19 1 24 23
M  V30 20 1 25 1
M  V30 21 1 26 9
M  V30 22 1 26 24
M  V30 23 1 27 7
M  V30 24 2 27 11
M  V30 25 1 28 15
M  V30 26 2 29 25
M  V30 27 1 29 26
M  V30 28 1 29 27
M  V30 29 2 30 17
M  V30 30 1 30 28
M  V30 31 2 31 20
M  V30 32 1 31 28
M  V30 33 2 32 1
M  V30 34 1 32 10
M  V30 35 1 33 4
M  V30 36 1 33 13
M  V30 37 2 34 18
M  V30 38 1 34 30
M  V30 39 1 35 2
M  V30 40 1 3 36 CFG=3
M  V30 41 1 37 4
M  V30 42 1 38 4
M  V30 43 1 39 6
M  V30 44 1 40 7
M  V30 45 1 41 7
M  V30 46 1 42 8
M  V30 47 1 43 8
M  V30 48 1 44 9
M  V30 49 1 45 9
M  V30 50 1 46 10
M  V30 51 1 47 12
M  V30 52 1 48 14
M  V30 53 1 49 14
M  V30 54 1 50 16
M  V30 55 1 51 18
M  V30 56 1 52 19
M  V30 57 1 53 20
M  V30 58 1 54 21
M  V30 59 1 55 21
M  V30 60 1 56 21
M  V30 61 1 57 22
M  V30 62 1 58 22
M  V30 63 1 59 23
M  V30 64 1 60 23
M  V30 65 1 61 23
M  V30 66 1 24 62 CFG=1
M  V30 67 1 63 25
M  V30 68 1 26 64 CFG=1
M  V30 69 1 28 65 CFG=1
M  V30 70 1 66 32
M  V30 71 1 67 33
M  V30 72 1 68 33
M  V30 73 1 69 34
M  V30 74 1 70 19
M  V30 END BOND
M  V30 END CTAB
M  END
>  <i_epik_Tot_Q>  (1) 
1

>  <i_epik_Tot_abs_Q>  (1) 
1

>  <i_i_glide_confnum>  (1) 
2

>  <i_i_glide_lignum>  (1) 
33

>  <i_i_glide_posenum>  (1) 
90

>  <i_i_glide_rotatable_bonds>  (1) 
4

>  <i_lp_mmshare_version>  (1) 
72125

>  <i_m_source_file_index>  (1) 
17

>  <i_f3d_flags>  (1) 
0

>  <num_sample>  (1) 
100

>  <b_lp_Chiralities_Consistent>  (1) 
1

>  <r_epik_Charging_Adjusted_Penalty>  (1) 
0.57808156404405586

>  <r_epik_Ionization_Penalty>  (1) 
0.28904078202202793

>  <r_epik_Ionization_Penalty_Charging>  (1) 
0.28904078202202793

>  <r_epik_Ionization_Penalty_Neutral>  (1) 
0

>  <r_epik_State_Penalty>  (1) 
0.28904078202202793

>  <r_glide_ring_energy>  (1) 
2.0215075708839398

>  <r_i_docking_score>  (1) 
-8.9970832184240113

>  <r_i_glide_ecoul>  (1) 
-4.8710435859951007

>  <r_i_glide_eff_state_penalty>  (1) 
0.28904078202202793

>  <r_i_glide_einternal>  (1) 
42.066598960603073

>  <r_i_glide_emodel>  (1) 
-36.768590872787044

>  <r_i_glide_emodel_strain>  (1) 
0.36844475020026834

>  <r_i_glide_energy>  (1) 
-44.033522019391512

>  <r_i_glide_erotb>  (1) 
0.29147875755417113

>  <r_i_glide_esite>  (1) 
-0.099802734986880706

>  <r_i_glide_evdw>  (1) 
-39.162478433396409

>  <r_i_glide_gscore>  (1) 
-9.2861240004460388

>  <r_i_glide_gscore_strain>  (1) 
0

>  <r_i_glide_hbond>  (1) 
-0.18215139467666699

>  <r_i_glide_ligand_efficiency>  (1) 
-0.26462009465952974

>  <r_i_glide_ligand_efficiency_ln>  (1) 
-1.9877080425861504

>  <r_i_glide_ligand_efficiency_sa>  (1) 
-0.85726638151417744

>  <r_i_glide_lipo>  (1) 
-4.4473947493946255

>  <r_i_glide_metal>  (1) 
-0

>  <r_i_glide_rewards>  (1) 
-2.1594734193729508

>  <r_lp_Energy>  (1) 
66.447216999999995

>  <s_epik_Chemistry_Notes>  (1) 
This compound has an imine and may undergo hydrolysis.

>  <s_epik_cmdline>  (1) 
J2VwaWtfcHl0aG9uJywgJy1waHQnLCAnMS4wJywgJy1waCcsICc3LjQnLCAnLXRuJywgJzgnLCAnLW1hJywgJzUwMCcsICctaW1hZScsICc8aW5maWxlLm1hZT4nLCAnLW9tYWUnLCAnPG91dGZpbGUubWFlPic=

>  <s_epik_input>  (1) 
W2NIXTFbY0hdW2NIXWMoW0NIM10pW2NIXWMxL1tDSF09QyhDKD1PKVtDSDJdW0NIMl1bQ0gyXVtDQEhdMltDSDNdKS9bQ0BASF0yW0NIMl1bQ0BASF0zW0NIMl1bQ0gyXUMoXFtDSDJdW05IXTMpPVtDSF1cQzQ9W0NIXU49QyhbQ0BASF00NSlbQ0hdPVtDSF1bQ0hdPU41

>  <s_glide_docking_method>  (1) 
confgen

>  <s_i_glide_gridfile>  (1) 
gpcr_5ht2c_6bqh_protein_autoprepared_prepared

>  <s_lp_Force_Field>  (1) 
S-OPLS

>  <s_lp_Variant>  (1) 
DiffSBDD_16-1

>  <s_m_source_file>  (1) 
generated_GPCR_5HT2C_ligand_DiffSBDD_2026-06-23_prepared.sdf

>  <GenAI_Model>  (1) 
DiffSBDD

>  <Protein>  (1) 
GPCR_5HT2C

$$$$
DiffSBDD_84
     RDKit          3D

  0  0  0  0  0  0  0  0  0  0999 V3000
M  V30 BEGIN CTAB
M  V30 COUNTS 77 81 0 0 1
M  V30 BEGIN ATOM
M  V30 1 C 41.651002 34.393454 64.950946 0
M  V30 2 C 38.369861 27.426963 58.649992 0
M  V30 3 C 39.727138 30.144651 60.699738 0
M  V30 4 C 44.295524 29.386382 67.654873 0
M  V30 5 S 41.046423 30.164075 66.204631 0
M  V30 6 C 38.424786 25.042048 55.266200 0
M  V30 7 C 39.587851 26.685192 56.560805 0
M  V30 8 C 36.600639 33.964312 61.141465 0
M  V30 9 O 45.459452 28.587208 67.763075 0
M  V30 10 C 37.554020 30.070814 59.532830 0
M  V30 11 C 40.560157 27.847045 56.727846 0
M  V30 12 C 38.892083 26.234636 57.855286 0 CFG=2
M  V30 13 C 38.112156 32.034603 61.027674 0
M  V30 14 N 41.575918 35.737748 64.350559 0 CHG=1
M  V30 15 C 43.772645 29.512682 66.203205 0
M  V30 16 C 41.922592 33.337397 63.866271 0
M  V30 17 N 39.384442 26.128764 55.430204 0
M  V30 18 C 37.803871 33.329962 61.506727 0
M  V30 19 N 40.116332 30.359168 63.731430 0
M  V30 20 N 38.932166 29.606419 59.747956 0
M  V30 21 C 38.118761 24.268925 56.552670 0
M  V30 22 C 37.217273 31.418906 60.124437 0
M  V30 23 N 42.720196 30.540228 66.217819 0
M  V30 24 C 43.262292 28.182766 65.592222 0
M  V30 25 C 39.417697 28.501625 58.892771 0 CFG=2
M  V30 26 O 40.845184 29.694261 60.917928 0
M  V30 27 C 36.011574 32.054039 59.767760 0
M  V30 28 O 44.334885 27.337904 65.233713 0
M  V30 29 C 37.739862 25.241806 57.641920 0
M  V30 30 C 40.697850 31.219031 64.768925 0 CFG=2
M  V30 31 C 39.971767 29.002388 57.558635 0
M  V30 32 N 39.055502 30.937842 62.967760 0
M  V30 33 N 43.064917 31.659352 65.366917 0 CHG=1
M  V30 34 C 35.701827 33.321950 60.279739 0
M  V30 35 C 39.310337 31.338566 61.579590 0 CFG=1
M  V30 36 C 42.029968 31.868382 64.329303 0 CFG=2
M  V30 37 H 40.719024 34.187291 65.476601 0
M  V30 38 H 42.447604 34.397020 65.696135 0
M  V30 39 H 38.045140 27.062868 59.616466 0
M  V30 40 H 37.502562 27.842234 58.136037 0
M  V30 41 H 43.523566 28.976849 68.308408 0
M  V30 42 H 44.550922 30.371458 68.047907 0
M  V30 43 H 37.506039 25.427311 54.821769 0
M  V30 44 H 38.830963 24.320180 54.567759 0
M  V30 45 H 36.369047 34.946406 61.526339 0
M  V30 46 H 46.158241 28.937290 67.219704 0
M  V30 47 H 37.367096 30.139131 58.460141 0
M  V30 48 H 36.849675 29.339178 59.923125 0
M  V30 49 H 40.848764 28.224477 55.751220 0
M  V30 50 H 41.457656 36.449233 65.061150 0
M  V30 51 H 42.431291 35.955873 63.858857 0
M  V30 52 H 44.602684 29.867098 65.588335 0
M  V30 53 H 42.844975 33.605320 63.356630 0
M  V30 54 H 41.140259 33.403912 63.110120 0
M  V30 55 H 38.488290 33.830579 62.174205 0
M  V30 56 H 39.755147 29.500641 64.152275 0
M  V30 57 H 37.312660 23.552424 56.386881 0
M  V30 58 H 39.010624 23.737772 56.877628 0
M  V30 59 H 42.615172 27.655257 66.294574 0
M  V30 60 H 42.678114 28.360008 64.687912 0
M  V30 61 H 40.235489 27.980670 59.395058 0
M  V30 62 H 35.327661 31.567279 59.086555 0
M  V30 63 H 44.735970 27.654737 64.438218 0
M  V30 64 H 36.823569 25.758331 57.352552 0
M  V30 65 H 37.523854 24.706557 58.566040 0
M  V30 66 H 39.973174 31.965203 65.091756 0
M  V30 67 H 39.194216 29.510480 56.986596 0
M  V30 68 H 40.741353 29.737753 57.767791 0
M  V30 69 H 38.600819 31.682748 63.490544 0
M  V30 70 H 43.134389 32.451541 65.988400 0
M  V30 71 H 34.778023 33.807554 59.999672 0
M  V30 72 H 40.149965 32.033518 61.569075 0
M  V30 73 H 42.396259 31.295829 63.475143 0
M  V30 74 H 43.964598 31.456213 64.953505 0
M  V30 75 H 39.657757 25.735691 58.450090 0
M  V30 76 H 41.467342 27.471027 57.202509 0
M  V30 77 H 40.801100 35.804701 63.706178 0
M  V30 END ATOM
M  V30 BEGIN BOND
M  V30 1 1 9 4
M  V30 2 1 11 7
M  V30 3 1 12 2
M  V30 4 1 12 7
M  V30 5 1 14 1
M  V30 6 1 15 4
M  V30 7 1 16 1
M  V30 8 1 17 6
M  V30 9 2 17 7
M  V30 10 1 18 8
M  V30 11 2 18 13
M  V30 12 1 20 3
M  V30 13 1 20 10
M  V30 14 1 21 6
M  V30 15 1 22 10
M  V30 16 1 22 13
M  V30 17 1 23 5
M  V30 18 1 23 15
M  V30 19 1 24 15
M  V30 20 1 25 2
M  V30 21 1 25 20
M  V30 22 2 26 3
M  V30 23 2 27 22
M  V30 24 1 28 24
M  V30 25 1 29 12
M  V30 26 1 29 21
M  V30 27 1 30 5
M  V30 28 1 30 19
M  V30 29 1 31 11
M  V30 30 1 31 25
M  V30 31 1 32 19
M  V30 32 1 33 23
M  V30 33 2 34 8
M  V30 34 1 34 27
M  V30 35 1 35 3
M  V30 36 1 35 13
M  V30 37 1 35 32
M  V30 38 1 36 16
M  V30 39 1 36 30
M  V30 40 1 36 33
M  V30 41 1 37 1
M  V30 42 1 38 1
M  V30 43 1 39 2
M  V30 44 1 40 2
M  V30 45 1 41 4
M  V30 46 1 42 4
M  V30 47 1 43 6
M  V30 48 1 44 6
M  V30 49 1 45 8
M  V30 50 1 46 9
M  V30 51 1 47 10
M  V30 52 1 48 10
M  V30 53 1 49 11
M  V30 54 1 50 14
M  V30 55 1 51 14
M  V30 56 1 52 15
M  V30 57 1 53 16
M  V30 58 1 54 16
M  V30 59 1 55 18
M  V30 60 1 56 19
M  V30 61 1 57 21
M  V30 62 1 58 21
M  V30 63 1 59 24
M  V30 64 1 60 24
M  V30 65 1 25 61 CFG=1
M  V30 66 1 62 27
M  V30 67 1 63 28
M  V30 68 1 64 29
M  V30 69 1 65 29
M  V30 70 1 30 66 CFG=1
M  V30 71 1 67 31
M  V30 72 1 68 31
M  V30 73 1 69 32
M  V30 74 1 70 33
M  V30 75 1 71 34
M  V30 76 1 35 72 CFG=1
M  V30 77 1 36 73 CFG=3
M  V30 78 1 74 33
M  V30 79 1 12 75 CFG=1
M  V30 80 1 76 11
M  V30 81 1 77 14
M  V30 END BOND
M  V30 END CTAB
M  END
>  <i_epik_Tot_Q>  (1) 
2

>  <i_epik_Tot_abs_Q>  (1) 
2

>  <i_i_glide_confnum>  (1) 
1158

>  <i_i_glide_lignum>  (1) 
200

>  <i_i_glide_posenum>  (1) 
356

>  <i_i_glide_rotatable_bonds>  (1) 
11

>  <i_lp_mmshare_version>  (1) 
72125

>  <i_m_source_file_index>  (1) 
85

>  <i_f3d_flags>  (1) 
0

>  <num_sample>  (1) 
100

>  <b_lp_Chiralities_Consistent>  (1) 
1

>  <r_epik_Charging_Adjusted_Penalty>  (1) 
0.034284474231679775

>  <r_epik_Ionization_Penalty>  (1) 
0.42650113434003467

>  <r_epik_Ionization_Penalty_Charging>  (1) 
0.012847136256187231

>  <r_epik_Ionization_Penalty_Neutral>  (1) 
0.41365399808384745

>  <r_epik_State_Penalty>  (1) 
0.021437337975492542

>  <r_glide_ring_energy>  (1) 
0.11944417741279

>  <r_i_docking_score>  (1) 
-8.9819769124987143

>  <r_i_glide_ecoul>  (1) 
-10.335964931807471

>  <r_i_glide_eff_state_penalty>  (1) 
0.021437337975492542

>  <r_i_glide_einternal>  (1) 
7.5570838743616591

>  <r_i_glide_emodel>  (1) 
-75.775477066818638

>  <r_i_glide_emodel_strain>  (1) 
3.4809086219078011

>  <r_i_glide_energy>  (1) 
-50.932330366308307

>  <r_i_glide_erotb>  (1) 
0.60855438394346106

>  <r_i_glide_esite>  (1) 
-0.069794570623275917

>  <r_i_glide_evdw>  (1) 
-40.596365434500832

>  <r_i_glide_gscore>  (1) 
-9.0034142504742061

>  <r_i_glide_gscore_strain>  (1) 
0

>  <r_i_glide_hbond>  (1) 
-0.82787934255971962

>  <r_i_glide_ligand_efficiency>  (1) 
-0.24949935868051984

>  <r_i_glide_ligand_efficiency_ln>  (1) 
-1.9596246973344369

>  <r_i_glide_ligand_efficiency_sa>  (1) 
-0.82382873100894272

>  <r_i_glide_lipo>  (1) 
-3.5299699851166335

>  <r_i_glide_metal>  (1) 
-0

>  <r_i_glide_rewards>  (1) 
-1.6041117246218741

>  <r_lp_Energy>  (1) 
50.953711999999996

>  <r_lp_tautomer_probability>  (1) 
0.99998399999999998

>  <s_epik_Chemistry_Notes>  (1) 
This compound has an imine and may undergo hydrolysis. This compound contains an acetal/aminal-like group ( X-CH(R)-Y where X, Y are N, S, or O) that may be acid/base labile, releasing an aldehyde. This compound has a N-S or N-O group and may undergo hydrolysis at high or low pH.

>  <s_epik_cmdline>  (1) 
J2VwaWtfcHl0aG9uJywgJy1waHQnLCAnMS4wJywgJy1waCcsICc3LjQnLCAnLXRuJywgJzgnLCAnLW1hJywgJzUwMCcsICctaW1hZScsICc8aW5maWxlLm1hZT4nLCAnLW9tYWUnLCAnPG91dGZpbGUubWFlPic=

>  <s_epik_input>  (1) 
W09IXVtDSDJdW0NIXShbQ0gyXVtPSF0pTjFTW0NASF0oW0NASF0oW05IXTEpW0NIMl1bQ0gyXVtOSDJdKVtOSF1bTkhdW0NASF0yQyg9TylOKFtDSDJdYyhjMjMpW2NIXVtjSF1bY0hdW2NIXTMpW0NASF0oW0NIMl1bQ0gyXTQpW0NIMl1DKD1DNDUpW0NIMl1bQ0gyXVtDSDJdW05IXTU=

>  <s_glide_docking_method>  (1) 
confgen

>  <s_i_glide_gridfile>  (1) 
gpcr_5ht2c_6bqh_protein_autoprepared_prepared

>  <s_lp_Force_Field>  (1) 
S-OPLS

>  <s_lp_Variant>  (1) 
DiffSBDD_84-3

>  <s_m_source_file>  (1) 
generated_GPCR_5HT2C_ligand_DiffSBDD_2026-06-23_prepared.sdf

>  <GenAI_Model>  (1) 
DiffSBDD

>  <Protein>  (1) 
GPCR_5HT2C

$$$$
DiffSBDD_96
     RDKit          3D

  0  0  0  0  0  0  0  0  0  0999 V3000
M  V30 BEGIN CTAB
M  V30 COUNTS 67 70 0 0 1
M  V30 BEGIN ATOM
M  V30 1 F 41.244479 29.213663 59.441050 0
M  V30 2 C 38.681604 30.849745 61.497826 0 CFG=1
M  V30 3 C 38.941356 31.652190 62.709499 0
M  V30 4 O 41.135716 30.494444 65.210051 0
M  V30 5 C 38.376195 32.699376 56.407742 0
M  V30 6 C 38.862602 31.314449 60.068320 0 CFG=2
M  V30 7 N 37.645186 32.267721 57.606881 0 CHG=1
M  V30 8 F 40.045179 29.337695 49.268611 0
M  V30 9 C 38.981008 28.208343 52.583950 0
M  V30 10 C 42.426082 34.151715 64.878718 0
M  V30 11 C 39.796142 30.482213 52.737585 0
M  V30 12 O 40.937404 31.442724 61.499229 0
M  V30 13 O 40.709301 28.046816 56.812470 0
M  V30 14 C 38.537702 27.998862 55.064411 0
M  V30 15 F 41.080517 28.676210 61.550113 0
M  V30 16 C 40.056770 30.468178 51.353643 0
M  V30 17 C 39.982710 30.614156 60.817585 0 CFG=1
M  V30 18 C 38.253501 31.608521 55.334133 0
M  V30 19 C 41.749638 31.136073 64.329739 0
M  V30 20 S 38.318484 26.937685 53.641012 0
M  V30 21 C 40.327353 32.260540 62.510187 0 CFG=2
M  V30 22 C 38.833255 32.801780 59.696766 0
M  V30 23 C 39.245170 29.344814 53.401787 0
M  V30 24 O 39.968875 26.062893 57.483812 0 CHG=-1
M  V30 25 N 38.984303 29.249115 54.699371 0 CHG=1
M  V30 26 C 41.496091 35.340690 65.142548 0
M  V30 27 O 42.045294 33.493094 63.674159 0
M  V30 28 C 41.098215 32.438225 63.836445 0 CFG=2
M  V30 29 C 39.808434 27.193844 56.967530 0
M  V30 30 F 39.395409 28.423454 60.221096 0
M  V30 31 N 37.529920 26.371873 56.669370 0
M  V30 32 C 39.783328 29.333065 50.591096 0
M  V30 33 C 37.665115 33.156935 58.775155 0
M  V30 34 C 39.242154 28.195446 51.203030 0
M  V30 35 O 42.844768 30.815395 63.818576 0 CHG=-1
M  V30 36 C 39.253397 30.444415 55.542790 0
M  V30 37 C 38.378480 27.551915 56.500792 0 CFG=2
M  V30 38 C 40.444880 29.197300 60.502492 0
M  V30 39 H 38.045141 29.994669 61.650746 0
M  V30 40 H 38.168457 32.404546 62.862164 0
M  V30 41 H 38.943026 30.937782 63.536780 0
M  V30 42 H 39.422548 32.902751 56.642213 0
M  V30 43 H 37.933078 33.629818 56.047867 0
M  V30 44 H 38.410369 30.662798 59.325904 0
M  V30 45 H 36.653947 32.137295 57.329187 0
M  V30 46 H 42.454528 33.474234 65.733191 0
M  V30 47 H 43.435034 34.537776 64.757606 0
M  V30 48 H 40.034770 31.361991 53.297685 0
M  V30 49 H 40.476784 31.337707 50.877929 0
M  V30 50 H 38.385511 32.083178 54.364579 0
M  V30 51 H 37.233087 31.223396 55.320662 0
M  V30 52 H 40.215555 33.255583 62.083200 0
M  V30 53 H 39.771655 33.087250 59.231899 0
M  V30 54 H 38.730040 33.415415 60.587972 0
M  V30 55 H 41.821520 35.903276 66.018498 0
M  V30 56 H 41.496102 36.024035 64.293268 0
M  V30 57 H 40.470067 35.020116 65.312906 0
M  V30 58 H 40.375322 32.757290 64.588548 0
M  V30 59 H 37.362497 25.899667 55.795401 0
M  V30 60 H 37.686766 34.202615 58.467709 0
M  V30 61 H 36.727805 33.009089 59.312877 0
M  V30 62 H 39.030759 27.311891 50.617348 0
M  V30 63 H 39.211497 30.132569 56.584105 0
M  V30 64 H 40.286161 30.760390 55.388763 0
M  V30 65 H 37.976250 31.359427 57.890670 0
M  V30 66 H 38.076863 25.717476 57.226401 0
M  V30 67 H 37.986294 28.361638 57.115814 0
M  V30 END ATOM
M  V30 BEGIN BOND
M  V30 1 1 3 2
M  V30 2 1 6 2
M  V30 3 1 7 5
M  V30 4 2 16 11
M  V30 5 1 17 2
M  V30 6 1 17 6
M  V30 7 1 17 12
M  V30 8 1 18 5
M  V30 9 2 19 4
M  V30 10 1 20 9
M  V30 11 1 20 14
M  V30 12 1 21 3
M  V30 13 1 21 12
M  V30 14 1 22 6
M  V30 15 2 23 9
M  V30 16 1 23 11
M  V30 17 2 25 14
M  V30 18 1 25 23
M  V30 19 1 26 10
M  V30 20 1 27 10
M  V30 21 1 28 19
M  V30 22 1 28 21
M  V30 23 1 28 27
M  V30 24 2 29 13
M  V30 25 1 29 24
M  V30 26 1 32 8
M  V30 27 1 32 16
M  V30 28 1 33 7
M  V30 29 1 33 22
M  V30 30 1 34 9
M  V30 31 2 34 32
M  V30 32 1 35 19
M  V30 33 1 36 18
M  V30 34 1 36 25
M  V30 35 1 37 14
M  V30 36 1 37 29
M  V30 37 1 37 31
M  V30 38 1 38 1
M  V30 39 1 38 15
M  V30 40 1 17 38 CFG=3
M  V30 41 1 38 30
M  V30 42 1 2 39 CFG=3
M  V30 43 1 40 3
M  V30 44 1 41 3
M  V30 45 1 42 5
M  V30 46 1 43 5
M  V30 47 1 6 44 CFG=3
M  V30 48 1 45 7
M  V30 49 1 46 10
M  V30 50 1 47 10
M  V30 51 1 48 11
M  V30 52 1 49 16
M  V30 53 1 50 18
M  V30 54 1 51 18
M  V30 55 1 21 52 CFG=3
M  V30 56 1 53 22
M  V30 57 1 54 22
M  V30 58 1 55 26
M  V30 59 1 56 26
M  V30 60 1 57 26
M  V30 61 1 28 58 CFG=1
M  V30 62 1 59 31
M  V30 63 1 60 33
M  V30 64 1 61 33
M  V30 65 1 62 34
M  V30 66 1 63 36
M  V30 67 1 64 36
M  V30 68 1 65 7
M  V30 69 1 66 31
M  V30 70 1 37 67 CFG=1
M  V30 END BOND
M  V30 END CTAB
M  END
>  <i_epik_Tot_Q>  (1) 
0

>  <i_epik_Tot_abs_Q>  (1) 
4

>  <i_i_glide_confnum>  (1) 
2759

>  <i_i_glide_lignum>  (1) 
229

>  <i_i_glide_posenum>  (1) 
234

>  <i_i_glide_rotatable_bonds>  (1) 
14

>  <i_lp_mmshare_version>  (1) 
72125

>  <i_m_source_file_index>  (1) 
97

>  <i_f3d_flags>  (1) 
0

>  <num_sample>  (1) 
100

>  <b_lp_Chiralities_Consistent>  (1) 
1

>  <r_epik_Charging_Adjusted_Penalty>  (1) 
0.0011493244952256365

>  <r_epik_Ionization_Penalty>  (1) 
0.16754632311336878

>  <r_epik_Ionization_Penalty_Charging>  (1) 
0.0011493244952256365

>  <r_epik_Ionization_Penalty_Neutral>  (1) 
0.16639699861814314

>  <r_epik_State_Penalty>  (1) 
-0

>  <r_glide_ring_energy>  (1) 
0

>  <r_i_docking_score>  (1) 
-8.9780382505357519

>  <r_i_glide_ecoul>  (1) 
-8.6499904445703564

>  <r_i_glide_eff_state_penalty>  (1) 
-0

>  <r_i_glide_einternal>  (1) 
37.744832703143096

>  <r_i_glide_emodel>  (1) 
-65.061127657123791

>  <r_i_glide_emodel_strain>  (1) 
1.4846317159463425

>  <r_i_glide_energy>  (1) 
-52.533659773148152

>  <r_i_glide_erotb>  (1) 
0.57183300328268483

>  <r_i_glide_esite>  (1) 
-0.11111420831188785

>  <r_i_glide_evdw>  (1) 
-43.883669328577795

>  <r_i_glide_gscore>  (1) 
-8.9780382505357519

>  <r_i_glide_gscore_strain>  (1) 
0

>  <r_i_glide_hbond>  (1) 
-0.23034193562470351

>  <r_i_glide_ligand_efficiency>  (1) 
-0.23626416448778295

>  <r_i_glide_ligand_efficiency_ln>  (1) 
-1.9359291539427592

>  <r_i_glide_ligand_efficiency_sa>  (1) 
-0.79431431051583146

>  <r_i_glide_lipo>  (1) 
-3.6498017189587322

>  <r_i_glide_metal>  (1) 
-0

>  <r_i_glide_rewards>  (1) 
-2.0669313578086688

>  <r_lp_Energy>  (1) 
52.570133999999996

>  <r_lp_tautomer_probability>  (1) 
1

>  <s_epik_cmdline>  (1) 
J2VwaWtfcHl0aG9uJywgJy1waHQnLCAnMS4wJywgJy1waCcsICc3LjQnLCAnLXRuJywgJzgnLCAnLW1hJywgJzUwMCcsICctaW1hZScsICc8aW5maWxlLm1hZT4nLCAnLW9tYWUnLCAnPG91dGZpbGUubWFlPic=

>  <s_epik_input>  (1) 
W0NIM11bQ0gyXU9bQ0BIXShDKD1PKVtPSF0pW0NAQEhdKE8xKVtDSDJdW0NASF0oW0NAXTEyQyhGKShGKUYpW0NASF0yW0NIMl1bQ0gyXVtOSF1bQ0gyXVtDSDJdW0NIMl1OKFtDQEBIXShTMylcQyg9TlxbSF0pQyg9TylbT0hdKWMoYzM0KVtjSF1bY0hdYyhGKVtjSF00

>  <s_glide_docking_method>  (1) 
confgen

>  <s_i_glide_gridfile>  (1) 
gpcr_5ht2c_6bqh_protein_autoprepared_prepared

>  <s_lp_Force_Field>  (1) 
S-OPLS

>  <s_lp_Variant>  (1) 
DiffSBDD_96-2

>  <s_m_source_file>  (1) 
generated_GPCR_5HT2C_ligand_DiffSBDD_2026-06-23_prepared.sdf

>  <GenAI_Model>  (1) 
DiffSBDD

>  <Protein>  (1) 
GPCR_5HT2C

$$$$
DiffSBDD_47
     RDKit          3D

  0  0  0  0  0  0  0  0  0  0999 V3000
M  V30 BEGIN CTAB
M  V30 COUNTS 51 52 0 0 1
M  V30 BEGIN ATOM
M  V30 1 O 35.953238 31.198736 59.371047 0
M  V30 2 C 38.241398 30.746719 60.047988 0
M  V30 3 C 40.904994 28.375396 58.829495 0
M  V30 4 C 39.975596 30.395596 52.291176 0
M  V30 5 C 38.742463 27.866818 52.141764 0
M  V30 6 C 38.597420 30.901164 61.482331 0
M  V30 7 C 39.343832 29.851132 53.427761 0
M  V30 8 C 40.483549 29.224972 61.132479 0
M  V30 9 C 40.425563 27.744889 57.513752 0
M  V30 10 O 38.189551 31.833352 62.172834 0
M  V30 11 C 38.046646 27.975288 54.576571 0 CFG=2
M  V30 12 C 38.776059 26.719118 55.131024 0
M  V30 13 O 39.706104 26.193380 54.518960 0
M  V30 14 C 38.293135 26.148450 56.475525 0 CFG=2
M  V30 15 C 39.802415 28.729547 59.853923 0 CFG=1
M  V30 16 C 39.497099 29.837427 62.120681 0
M  V30 17 C 39.987123 29.672912 51.081017 0
M  V30 18 C 38.794797 29.749035 59.319510 0
M  V30 19 S 39.620475 26.127712 57.736089 0
M  V30 20 C 38.727920 28.579905 53.353267 0
M  V30 21 C 39.370333 28.407799 51.010139 0
M  V30 22 C 40.658515 30.255825 49.856735 0
M  V30 23 C 37.795339 24.707476 56.276346 0
M  V30 24 O 37.786076 28.933533 55.594107 0
M  V30 25 C 37.249195 31.757588 59.478001 0
M  V30 26 H 35.645091 31.353145 58.464861 0
M  V30 27 H 41.480348 29.274240 58.594913 0
M  V30 28 H 41.615815 27.698911 59.304131 0
M  V30 29 H 40.446907 31.366201 52.349509 0
M  V30 30 H 38.271438 26.899323 52.083272 0
M  V30 31 H 39.336665 30.406172 54.354522 0
M  V30 32 H 41.011315 28.395343 61.609560 0
M  V30 33 H 41.238944 29.972715 60.877946 0
M  V30 34 H 39.769755 28.442224 57.003731 0
M  V30 35 H 41.281976 27.591496 56.854062 0
M  V30 36 H 37.082008 27.612975 54.223421 0
M  V30 37 H 37.482982 26.757457 56.869882 0
M  V30 38 H 39.230005 27.833728 60.100869 0
M  V30 39 H 38.861410 29.049141 62.514973 0
M  V30 40 H 40.041042 30.258609 62.967838 0
M  V30 41 H 38.519305 29.649583 58.280936 0
M  V30 42 H 39.376961 27.852344 50.090174 0
M  V30 43 H 40.324920 29.724118 48.967256 0
M  V30 44 H 40.412311 31.313655 49.745017 0
M  V30 45 H 41.741638 30.159857 49.925334 0
M  V30 46 H 36.989839 24.643784 55.545488 0
M  V30 47 H 38.612170 24.079633 55.922319 0
M  V30 48 H 37.433603 24.265908 57.206664 0
M  V30 49 H 37.322571 29.668120 55.214079 0
M  V30 50 H 37.573255 32.050364 58.478085 0
M  V30 51 H 37.199405 32.679975 60.058573 0
M  V30 END ATOM
M  V30 BEGIN BOND
M  V30 1 1 6 2
M  V30 2 2 7 4
M  V30 3 1 9 3
M  V30 4 2 10 6
M  V30 5 1 12 11
M  V30 6 2 13 12
M  V30 7 1 14 12
M  V30 8 1 15 3
M  V30 9 1 15 8
M  V30 10 1 16 6
M  V30 11 1 16 8
M  V30 12 1 17 4
M  V30 13 2 18 2
M  V30 14 1 18 15
M  V30 15 1 19 9
M  V30 16 1 19 14
M  V30 17 2 20 5
M  V30 18 1 20 7
M  V30 19 1 20 11
M  V30 20 1 21 5
M  V30 21 2 21 17
M  V30 22 1 22 17
M  V30 23 1 23 14
M  V30 24 1 24 11
M  V30 25 1 25 1
M  V30 26 1 25 2
M  V30 27 1 26 1
M  V30 28 1 27 3
M  V30 29 1 28 3
M  V30 30 1 29 4
M  V30 31 1 30 5
M  V30 32 1 31 7
M  V30 33 1 32 8
M  V30 34 1 33 8
M  V30 35 1 34 9
M  V30 36 1 35 9
M  V30 37 1 11 36 CFG=3
M  V30 38 1 14 37 CFG=1
M  V30 39 1 15 38 CFG=1
M  V30 40 1 39 16
M  V30 41 1 40 16
M  V30 42 1 41 18
M  V30 43 1 42 21
M  V30 44 1 43 22
M  V30 45 1 44 22
M  V30 46 1 45 22
M  V30 47 1 46 23
M  V30 48 1 47 23
M  V30 49 1 48 23
M  V30 50 1 49 24
M  V30 51 1 50 25
M  V30 52 1 51 25
M  V30 END BOND
M  V30 END CTAB
M  END
>  <i_epik_Tot_Q>  (1) 
0

>  <i_epik_Tot_abs_Q>  (1) 
0

>  <i_i_glide_confnum>  (1) 
407

>  <i_i_glide_lignum>  (1) 
100

>  <i_i_glide_posenum>  (1) 
39

>  <i_i_glide_rotatable_bonds>  (1) 
10

>  <i_lp_mmshare_version>  (1) 
72125

>  <i_m_source_file_index>  (1) 
48

>  <i_f3d_flags>  (1) 
0

>  <num_sample>  (1) 
100

>  <b_lp_Chiralities_Consistent>  (1) 
1

>  <r_epik_Charging_Adjusted_Penalty>  (1) 
0

>  <r_epik_Ionization_Penalty>  (1) 
1.6598549338111207e-05

>  <r_epik_Ionization_Penalty_Charging>  (1) 
0

>  <r_epik_Ionization_Penalty_Neutral>  (1) 
1.6598549338111207e-05

>  <r_epik_State_Penalty>  (1) 
-0

>  <r_glide_ring_energy>  (1) 
0

>  <r_i_docking_score>  (1) 
-8.9607577237331206

>  <r_i_glide_ecoul>  (1) 
-9.0231715206500986

>  <r_i_glide_eff_state_penalty>  (1) 
-0

>  <r_i_glide_einternal>  (1) 
9.609186728190835

>  <r_i_glide_emodel>  (1) 
-73.246166658146763

>  <r_i_glide_emodel_strain>  (1) 
2.8983131312751027

>  <r_i_glide_energy>  (1) 
-53.214504927795446

>  <r_i_glide_erotb>  (1) 
1.1691057722696085

>  <r_i_glide_esite>  (1) 
0

>  <r_i_glide_evdw>  (1) 
-44.191333407145351

>  <r_i_glide_gscore>  (1) 
-8.9607577237331206

>  <r_i_glide_gscore_strain>  (1) 
0

>  <r_i_glide_hbond>  (1) 
-0.16

>  <r_i_glide_ligand_efficiency>  (1) 
-0.35843030894932482

>  <r_i_glide_ligand_efficiency_ln>  (1) 
-2.123968112764508

>  <r_i_glide_ligand_efficiency_sa>  (1) 
-1.0480565812809437

>  <r_i_glide_lipo>  (1) 
-4.1922004563840671

>  <r_i_glide_metal>  (1) 
-0

>  <r_i_glide_rewards>  (1) 
-2.2146206411638789

>  <r_lp_Energy>  (1) 
25.714537

>  <r_lp_tautomer_probability>  (1) 
1

>  <s_epik_cmdline>  (1) 
J2VwaWtfcHl0aG9uJywgJy1waHQnLCAnMS4wJywgJy1waCcsICc3LjQnLCAnLXRuJywgJzgnLCAnLW1hJywgJzUwMCcsICctaW1hZScsICc8aW5maWxlLm1hZT4nLCAnLW9tYWUnLCAnPG91dGZpbGUubWFlPic=

>  <s_epik_input>  (1) 
W09IXVtDSDJdQzE9W0NIXVtDQEhdKFtDSDJdW0NIMl1DMT1PKVtDSDJdW0NIMl1TXEMoW0NIM10pPUMoW09IXSlcW0NAQEhdKFtPSF0pYyhbY0hdW2NIXTIpW2NIXVtjSF1jMltDSDNd

>  <s_glide_docking_method>  (1) 
confgen

>  <s_i_glide_gridfile>  (1) 
gpcr_5ht2c_6bqh_protein_autoprepared_prepared

>  <s_lp_Force_Field>  (1) 
S-OPLS

>  <s_lp_Variant>  (1) 
DiffSBDD_47-2

>  <s_m_source_file>  (1) 
generated_GPCR_5HT2C_ligand_DiffSBDD_2026-06-23_prepared.sdf

>  <GenAI_Model>  (1) 
DiffSBDD

>  <Protein>  (1) 
GPCR_5HT2C

$$$$
DiffSBDD_16
     RDKit          3D

  0  0  0  0  0  0  0  0  0  0999 V3000
M  V30 BEGIN CTAB
M  V30 COUNTS 70 74 0 0 1
M  V30 BEGIN ATOM
M  V30 1 C 39.243756 28.667573 53.261299 0
M  V30 2 C 40.985274 34.099783 62.616148 0
M  V30 3 C 37.765190 29.683896 58.982705 0 CFG=1
M  V30 4 C 37.453855 31.177127 59.232405 0
M  V30 5 C 39.672247 29.926751 51.198163 0
M  V30 6 C 39.645425 28.742190 50.455726 0
M  V30 7 C 37.729365 25.303498 56.026372 0
M  V30 8 C 39.094415 24.892105 56.601322 0
M  V30 9 C 38.392432 29.404769 57.583006 0
M  V30 10 C 39.433739 27.517554 51.098601 0
M  V30 11 O 37.245055 26.468461 54.011090 0
M  V30 12 C 40.271649 32.096990 61.445915 0
M  V30 13 C 39.645596 31.404365 60.443608 0
M  V30 14 C 39.872656 29.908617 60.288252 0
M  V30 15 C 40.193996 33.548913 61.727440 0
M  V30 16 C 39.481412 29.892207 52.596460 0
M  V30 17 N 40.841053 35.451971 62.794800 0
M  V30 18 C 37.717435 36.794615 61.662505 0
M  V30 19 N 38.597854 29.190577 60.103063 0 CHG=1
M  V30 20 C 37.130777 35.503895 61.184118 0
M  V30 21 C 39.900766 31.244916 50.494722 0
M  V30 22 C 39.461673 25.634608 57.893193 0
M  V30 23 C 41.067903 27.449150 57.114996 0
M  V30 24 C 39.707666 27.148872 57.772496 0 CFG=1
M  V30 25 C 39.068217 28.694110 54.767141 0
M  V30 26 C 38.503672 27.912456 57.142128 0 CFG=2
M  V30 27 C 37.801259 26.524586 55.101092 0
M  V30 28 C 39.280910 34.517617 61.072881 0 CFG=2
M  V30 29 C 38.509118 27.749064 55.607817 0
M  V30 30 C 39.797316 35.634237 62.056640 0
M  V30 31 N 37.809132 34.411260 61.129545 0
M  V30 32 C 39.244786 27.469089 52.491579 0
M  V30 33 C 38.733863 32.013964 59.369128 0
M  V30 34 C 38.987565 36.842192 62.104871 0
M  V30 35 H 41.726224 33.572696 63.200234 0
M  V30 36 H 36.816733 29.148938 59.023742 0
M  V30 37 H 36.853898 31.287190 60.136259 0
M  V30 38 H 36.845376 31.571735 58.421919 0
M  V30 39 H 39.792920 28.773838 49.383899 0
M  V30 40 H 36.993685 25.458884 56.817171 0
M  V30 41 H 37.346322 24.479561 55.422503 0
M  V30 42 H 39.058861 23.825570 56.831910 0
M  V30 43 H 39.883382 25.006860 55.856050 0
M  V30 44 H 37.738360 29.911108 56.869890 0
M  V30 45 H 39.360111 29.892773 57.481528 0
M  V30 46 H 39.429472 26.604170 50.524760 0
M  V30 47 H 40.908165 31.519008 62.099614 0
M  V30 48 H 40.528968 29.733804 59.435836 0
M  V30 49 H 40.384986 29.498100 61.159787 0
M  V30 50 H 39.506718 30.813143 53.162336 0
M  V30 51 H 37.064361 37.654830 61.682888 0
M  V30 52 H 38.067964 29.301258 60.954637 0
M  V30 53 H 36.076672 35.542206 60.900456 0
M  V30 54 H 39.597973 32.093090 51.108390 0
M  V30 55 H 40.953831 31.338183 50.236334 0
M  V30 56 H 39.319186 31.284924 49.573998 0
M  V30 57 H 38.674362 25.457001 58.626409 0
M  V30 58 H 40.360772 25.172987 58.300356 0
M  V30 59 H 41.120332 27.058352 56.100046 0
M  V30 60 H 41.263437 28.518254 57.068384 0
M  V30 61 H 41.883928 26.990796 57.675559 0
M  V30 62 H 39.822121 27.467469 58.802570 0
M  V30 63 H 39.485554 29.572200 55.236686 0
M  V30 64 H 37.580236 27.468205 57.515346 0
M  V30 65 H 39.632536 34.752096 60.068692 0
M  V30 66 H 39.139807 26.515668 52.958396 0
M  V30 67 H 38.491032 33.052627 59.360795 0
M  V30 68 H 39.245051 31.929963 58.415144 0
M  V30 69 H 39.437706 37.732716 62.518103 0
M  V30 70 H 38.787390 28.208697 59.965508 0
M  V30 END ATOM
M  V30 BEGIN BOND
M  V30 1 1 4 3
M  V30 2 1 6 5
M  V30 3 1 8 7
M  V30 4 1 9 3
M  V30 5 2 10 6
M  V30 6 2 13 12
M  V30 7 1 14 13
M  V30 8 2 15 2
M  V30 9 1 15 12
M  V30 10 1 16 1
M  V30 11 2 16 5
M  V30 12 1 17 2
M  V30 13 1 19 3
M  V30 14 1 19 14
M  V30 15 1 20 18
M  V30 16 1 21 5
M  V30 17 1 22 8
M  V30 18 1 24 22
M  V30 19 1 24 23
M  V30 20 1 25 1
M  V30 21 1 26 9
M  V30 22 1 26 24
M  V30 23 1 27 7
M  V30 24 2 27 11
M  V30 25 1 28 15
M  V30 26 2 29 25
M  V30 27 1 29 26
M  V30 28 1 29 27
M  V30 29 2 30 17
M  V30 30 1 30 28
M  V30 31 2 31 20
M  V30 32 1 31 28
M  V30 33 2 32 1
M  V30 34 1 32 10
M  V30 35 1 33 4
M  V30 36 1 33 13
M  V30 37 2 34 18
M  V30 38 1 34 30
M  V30 39 1 35 2
M  V30 40 1 3 36 CFG=3
M  V30 41 1 37 4
M  V30 42 1 38 4
M  V30 43 1 39 6
M  V30 44 1 40 7
M  V30 45 1 41 7
M  V30 46 1 42 8
M  V30 47 1 43 8
M  V30 48 1 44 9
M  V30 49 1 45 9
M  V30 50 1 46 10
M  V30 51 1 47 12
M  V30 52 1 48 14
M  V30 53 1 49 14
M  V30 54 1 50 16
M  V30 55 1 51 18
M  V30 56 1 52 19
M  V30 57 1 53 20
M  V30 58 1 54 21
M  V30 59 1 55 21
M  V30 60 1 56 21
M  V30 61 1 57 22
M  V30 62 1 58 22
M  V30 63 1 59 23
M  V30 64 1 60 23
M  V30 65 1 61 23
M  V30 66 1 24 62 CFG=1
M  V30 67 1 63 25
M  V30 68 1 26 64 CFG=1
M  V30 69 1 28 65 CFG=3
M  V30 70 1 66 32
M  V30 71 1 67 33
M  V30 72 1 68 33
M  V30 73 1 69 34
M  V30 74 1 70 19
M  V30 END BOND
M  V30 END CTAB
M  END
>  <i_epik_Tot_Q>  (1) 
1

>  <i_epik_Tot_abs_Q>  (1) 
1

>  <i_i_glide_confnum>  (1) 
8

>  <i_i_glide_lignum>  (1) 
34

>  <i_i_glide_posenum>  (1) 
359

>  <i_i_glide_rotatable_bonds>  (1) 
4

>  <i_lp_mmshare_version>  (1) 
72125

>  <i_m_source_file_index>  (1) 
17

>  <i_f3d_flags>  (1) 
0

>  <num_sample>  (1) 
100

>  <b_lp_Chiralities_Consistent>  (1) 
1

>  <r_epik_Charging_Adjusted_Penalty>  (1) 
0.57808156404405586

>  <r_epik_Ionization_Penalty>  (1) 
0.28904078202202793

>  <r_epik_Ionization_Penalty_Charging>  (1) 
0.28904078202202793

>  <r_epik_Ionization_Penalty_Neutral>  (1) 
0

>  <r_epik_State_Penalty>  (1) 
0.28904078202202793

>  <r_glide_ring_energy>  (1) 
2.0215911855591875

>  <r_i_docking_score>  (1) 
-8.9550386349287567

>  <r_i_glide_ecoul>  (1) 
0.70932556215574305

>  <r_i_glide_eff_state_penalty>  (1) 
0.28904078202202793

>  <r_i_glide_einternal>  (1) 
57.155710428905437

>  <r_i_glide_emodel>  (1) 
-35.763398788600561

>  <r_i_glide_emodel_strain>  (1) 
0.0029410861073984051

>  <r_i_glide_energy>  (1) 
-42.279402764690779

>  <r_i_glide_erotb>  (1) 
0.29147875755417113

>  <r_i_glide_esite>  (1) 
0

>  <r_i_glide_evdw>  (1) 
-42.98872832684652

>  <r_i_glide_gscore>  (1) 
-9.2440794169507843

>  <r_i_glide_gscore_strain>  (1) 
0

>  <r_i_glide_hbond>  (1) 
0

>  <r_i_glide_ligand_efficiency>  (1) 
-0.26338348926261052

>  <r_i_glide_ligand_efficiency_ln>  (1) 
-1.9784192147814275

>  <r_i_glide_ligand_efficiency_sa>  (1) 
-0.85326026007679434

>  <r_i_glide_lipo>  (1) 
-5.2898723602579762

>  <r_i_glide_metal>  (1) 
-0

>  <r_i_glide_rewards>  (1) 
-2.2026482322280132

>  <r_lp_Energy>  (1) 
65.165018000000003

>  <s_epik_Chemistry_Notes>  (1) 
This compound has an imine and may undergo hydrolysis.

>  <s_epik_cmdline>  (1) 
J2VwaWtfcHl0aG9uJywgJy1waHQnLCAnMS4wJywgJy1waCcsICc3LjQnLCAnLXRuJywgJzgnLCAnLW1hJywgJzUwMCcsICctaW1hZScsICc8aW5maWxlLm1hZT4nLCAnLW9tYWUnLCAnPG91dGZpbGUubWFlPic=

>  <s_epik_input>  (1) 
W2NIXTFbY0hdW2NIXWMoW0NIM10pW2NIXWMxL1tDSF09QyhDKD1PKVtDSDJdW0NIMl1bQ0gyXVtDQEhdMltDSDNdKS9bQ0BASF0yW0NIMl1bQ0BASF0zW0NIMl1bQ0gyXUMoL1tDSDJdW05IXTMpPVtDSF1cQzQ9W0NIXU49QyhbQ0BASF00NSlbQ0hdPVtDSF1bQ0hdPU41

>  <s_glide_docking_method>  (1) 
confgen

>  <s_i_glide_gridfile>  (1) 
gpcr_5ht2c_6bqh_protein_autoprepared_prepared

>  <s_lp_Force_Field>  (1) 
S-OPLS

>  <s_lp_Variant>  (1) 
DiffSBDD_16-2

>  <s_m_source_file>  (1) 
generated_GPCR_5HT2C_ligand_DiffSBDD_2026-06-23_prepared.sdf

>  <GenAI_Model>  (1) 
DiffSBDD

>  <Protein>  (1) 
GPCR_5HT2C

$$$$
DiffSBDD_56
     RDKit          3D

  0  0  0  0  0  0  0  0  0  0999 V3000
M  V30 BEGIN CTAB
M  V30 COUNTS 73 78 0 0 1
M  V30 BEGIN ATOM
M  V30 1 C 39.437803 29.748386 56.583161 0 CFG=1
M  V30 2 C 38.823887 26.142216 55.947010 0
M  V30 3 C 39.337623 27.764125 57.851064 0
M  V30 4 C 40.927371 30.883718 65.300463 0
M  V30 5 C 38.039527 31.984205 56.418099 0
M  V30 6 C 38.047218 28.508503 53.486369 0
M  V30 7 C 38.460629 27.491967 56.617456 0 CFG=1
M  V30 8 C 39.381372 31.273107 56.307360 0
M  V30 9 C 39.311880 28.050157 51.447279 0
M  V30 10 C 41.313283 32.216126 65.237506 0
M  V30 11 C 40.789731 33.077356 61.767782 0
M  V30 12 C 40.462681 30.217531 64.145997 0
M  V30 13 C 38.743440 29.741968 53.629676 0
M  V30 14 C 37.853751 32.849495 57.687774 0
M  V30 15 C 41.239593 32.916385 63.992771 0
M  V30 16 C 39.645145 30.154263 52.628142 0
M  V30 17 N 39.073428 28.642354 54.425142 0
M  V30 18 N 38.305386 31.094962 59.451604 0 CFG=2 CHG=1
M  V30 19 F 40.930124 29.637809 50.677399 0
M  V30 20 C 39.341938 29.283863 58.041925 0 CFG=2
M  V30 21 C 39.999216 29.271857 51.589779 0
M  V30 22 C 42.053253 35.314272 64.444814 0
M  V30 23 F 39.584027 27.239824 50.400535 0
M  V30 24 C 38.333813 31.006734 60.936655 0
M  V30 25 C 40.389735 30.882352 62.953910 0
M  V30 26 C 38.515191 28.804728 55.768611 0 CFG=2
M  V30 27 C 38.273479 27.721216 52.341959 0
M  V30 28 S 39.816906 30.096903 61.474301 0
M  V30 29 C 41.532814 34.196890 63.603732 0
M  V30 30 C 41.245143 34.270624 62.238480 0
M  V30 31 C 37.371293 32.143074 58.972515 0
M  V30 32 O 41.771309 32.881642 66.359561 0
M  V30 33 N 40.763344 32.188497 62.855951 0
M  V30 34 C 38.084963 29.773795 58.797658 0
M  V30 35 C 37.646625 25.467876 55.227799 0
M  V30 36 C 41.813138 32.227365 67.618780 0
M  V30 37 O 40.964701 35.738202 65.227439 0
M  V30 38 H 40.445148 29.464332 56.287741 0
M  V30 39 H 39.677904 26.249740 55.277123 0
M  V30 40 H 39.161029 25.447532 56.717305 0
M  V30 41 H 39.002990 27.216374 58.733148 0
M  V30 42 H 40.358702 27.433796 57.650868 0
M  V30 43 H 40.981947 30.346781 66.239979 0
M  V30 44 H 37.245180 31.264163 56.287309 0
M  V30 45 H 37.947933 32.652754 55.560124 0
M  V30 46 H 37.442888 27.401019 56.998071 0
M  V30 47 H 40.045116 31.796719 56.967761 0
M  V30 48 H 39.793519 31.465082 55.317312 0
M  V30 49 H 40.478976 32.753597 60.789976 0
M  V30 50 H 40.161898 29.177226 64.201672 0
M  V30 51 H 38.762652 33.415729 57.893811 0
M  V30 52 H 37.105430 33.607838 57.453370 0
M  V30 53 H 40.051449 31.155002 52.647103 0
M  V30 54 H 40.238277 29.567524 58.594496 0
M  V30 55 H 42.871152 34.991849 65.086907 0
M  V30 56 H 42.419956 36.138463 63.833462 0
M  V30 57 H 38.359249 32.001276 61.379272 0
M  V30 58 H 37.429523 30.537698 61.323253 0
M  V30 59 H 37.503707 29.212581 55.728177 0
M  V30 60 H 37.645169 26.870636 52.143953 0
M  V30 61 H 41.380378 35.169903 61.653384 0
M  V30 62 H 37.284930 32.930394 59.723727 0
M  V30 63 H 36.366685 31.733366 58.896128 0
M  V30 64 H 37.223020 29.793486 58.129319 0
M  V30 65 H 37.817644 29.040922 59.559627 0
M  V30 66 H 37.955409 24.519803 54.786579 0
M  V30 67 H 37.244728 26.087251 54.430027 0
M  V30 68 H 36.831475 25.257181 55.920488 0
M  V30 69 H 42.173219 32.930337 68.370474 0
M  V30 70 H 42.499986 31.379778 67.606459 0
M  V30 71 H 40.821357 31.896770 67.928548 0
M  V30 72 H 41.136965 36.636639 65.481012 0
M  V30 73 H 39.219869 31.408660 59.164918 0
M  V30 END ATOM
M  V30 BEGIN BOND
M  V30 1 1 7 2
M  V30 2 1 7 3
M  V30 3 1 8 1
M  V30 4 1 8 5
M  V30 5 2 10 4
M  V30 6 1 12 4
M  V30 7 2 13 6
M  V30 8 1 14 5
M  V30 9 1 15 10
M  V30 10 1 16 13
M  V30 11 1 17 6
M  V30 12 1 17 13
M  V30 13 1 20 1
M  V30 14 1 20 3
M  V30 15 1 21 9
M  V30 16 2 21 16
M  V30 17 1 21 19
M  V30 18 1 23 9
M  V30 19 1 24 18
M  V30 20 2 25 12
M  V30 21 1 26 1
M  V30 22 1 26 7
M  V30 23 1 26 17
M  V30 24 1 27 6
M  V30 25 2 27 9
M  V30 26 1 28 24
M  V30 27 1 28 25
M  V30 28 2 29 15
M  V30 29 1 29 22
M  V30 30 2 30 11
M  V30 31 1 30 29
M  V30 32 1 31 14
M  V30 33 1 31 18
M  V30 34 1 32 10
M  V30 35 1 33 11
M  V30 36 1 33 15
M  V30 37 1 33 25
M  V30 38 1 34 18
M  V30 39 1 34 20
M  V30 40 1 35 2
M  V30 41 1 36 32
M  V30 42 1 37 22
M  V30 43 1 1 38 CFG=3
M  V30 44 1 39 2
M  V30 45 1 40 2
M  V30 46 1 41 3
M  V30 47 1 42 3
M  V30 48 1 43 4
M  V30 49 1 44 5
M  V30 50 1 45 5
M  V30 51 1 7 46 CFG=1
M  V30 52 1 47 8
M  V30 53 1 48 8
M  V30 54 1 49 11
M  V30 55 1 50 12
M  V30 56 1 51 14
M  V30 57 1 52 14
M  V30 58 1 53 16
M  V30 59 1 20 54 CFG=1
M  V30 60 1 55 22
M  V30 61 1 56 22
M  V30 62 1 57 24
M  V30 63 1 58 24
M  V30 64 1 26 59 CFG=3
M  V30 65 1 60 27
M  V30 66 1 61 30
M  V30 67 1 62 31
M  V30 68 1 63 31
M  V30 69 1 64 34
M  V30 70 1 65 34
M  V30 71 1 66 35
M  V30 72 1 67 35
M  V30 73 1 68 35
M  V30 74 1 69 36
M  V30 75 1 70 36
M  V30 76 1 71 36
M  V30 77 1 72 37
M  V30 78 1 18 73 CFG=3
M  V30 END BOND
M  V30 END CTAB
M  END
>  <i_epik_Tot_Q>  (1) 
1

>  <i_epik_Tot_abs_Q>  (1) 
1

>  <i_i_glide_confnum>  (1) 
329

>  <i_i_glide_lignum>  (1) 
124

>  <i_i_glide_posenum>  (1) 
282

>  <i_i_glide_rotatable_bonds>  (1) 
8

>  <i_lp_mmshare_version>  (1) 
72125

>  <i_m_source_file_index>  (1) 
57

>  <i_f3d_flags>  (1) 
0

>  <num_sample>  (1) 
100

>  <b_lp_Chiralities_Consistent>  (1) 
1

>  <r_epik_Charging_Adjusted_Penalty>  (1) 
1.9649939919035475

>  <r_epik_Ionization_Penalty>  (1) 
0.98409533599364529

>  <r_epik_Ionization_Penalty_Charging>  (1) 
0.98249699595177398

>  <r_epik_Ionization_Penalty_Neutral>  (1) 
0.0015983400418712683

>  <r_epik_State_Penalty>  (1) 
0.98249699595177364

>  <r_glide_ring_energy>  (1) 
0

>  <r_i_docking_score>  (1) 
-8.9187272071347188

>  <r_i_glide_ecoul>  (1) 
-4.7828666490704288

>  <r_i_glide_eff_state_penalty>  (1) 
0.98249699595177364

>  <r_i_glide_einternal>  (1) 
5.9263390753143383

>  <r_i_glide_emodel>  (1) 
-83.823233236980087

>  <r_i_glide_emodel_strain>  (1) 
0.48982595087340997

>  <r_i_glide_energy>  (1) 
-54.928405000529857

>  <r_i_glide_erotb>  (1) 
0.36855175673704876

>  <r_i_glide_esite>  (1) 
-0.028291909944347333

>  <r_i_glide_evdw>  (1) 
-50.145538351459429

>  <r_i_glide_gscore>  (1) 
-9.9012242030864925

>  <r_i_glide_gscore_strain>  (1) 
0

>  <r_i_glide_hbond>  (1) 
-0.25450987199483793

>  <r_i_glide_ligand_efficiency>  (1) 
-0.24104668127391132

>  <r_i_glide_ligand_efficiency_ln>  (1) 
-1.934262846596654

>  <r_i_glide_ligand_efficiency_sa>  (1) 
-0.80322101860766482

>  <r_i_glide_lipo>  (1) 
-4.6560702523248452

>  <r_i_glide_metal>  (1) 
-0

>  <r_i_glide_rewards>  (1) 
-2.1061970106259764

>  <r_lp_Energy>  (1) 
113.81728699999999

>  <s_epik_Chemistry_Notes>  (1) 
This compound contains an acetal/aminal-like group ( X-CH(R)-Y where X, Y are N, S, or O) that may be acid/base labile, releasing an aldehyde.

>  <s_epik_cmdline>  (1) 
J2VwaWtfcHl0aG9uJywgJy1waHQnLCAnMS4wJywgJy1waCcsICc3LjQnLCAnLXRuJywgJzgnLCAnLW1hJywgJzUwMCcsICctaW1hZScsICc8aW5maWxlLm1hZT4nLCAnLW9tYWUnLCAnPG91dGZpbGUubWFlPic=

>  <s_epik_input>  (1) 
RmMoW2NIXTEpYyhGKVtjSF1jKGMxMilOMltDQEhdM1tDQEBIXShbQ0gyXVtDSDNdKVtDSDJdW0NAQEhdKFtDQEBIXTM0KVtDSDJdTihbQ0gyXVtDSDJdW0NIMl1bQ0gyXTQpW0NIMl1TYyhbY0hdW2NIXWM1T1tDSDNdKW4oYzU2KVtjSF1bY0hdYzZbQ0gyXVtPSF0=

>  <s_glide_docking_method>  (1) 
confgen

>  <s_i_glide_gridfile>  (1) 
gpcr_5ht2c_6bqh_protein_autoprepared_prepared

>  <s_lp_Force_Field>  (1) 
S-OPLS

>  <s_lp_Variant>  (1) 
DiffSBDD_56-3

>  <s_m_source_file>  (1) 
generated_GPCR_5HT2C_ligand_DiffSBDD_2026-06-23_prepared.sdf

>  <GenAI_Model>  (1) 
DiffSBDD

>  <Protein>  (1) 
GPCR_5HT2C

$$$$
DiffSBDD_66
     RDKit          3D

  0  0  0  0  0  0  0  0  0  0999 V3000
M  V30 BEGIN CTAB
M  V30 COUNTS 62 65 0 0 1
M  V30 BEGIN ATOM
M  V30 1 C 38.436620 29.174371 58.885855 0
M  V30 2 C 38.032202 30.393747 57.898476 0
M  V30 3 C 38.707099 26.327747 56.614224 0 CFG=1
M  V30 4 N 40.540737 30.260879 62.527053 0
M  V30 5 O 40.351796 36.795349 61.767760 0 CHG=-1
M  V30 6 O 40.440465 25.741693 58.167477 0
M  V30 7 O 37.315915 26.186095 56.415388 0
M  V30 8 C 39.530767 34.555986 61.559525 0
M  V30 9 C 39.774705 28.598233 57.102074 0
M  V30 10 C 38.839321 28.337968 54.988010 0
M  V30 11 N 39.692342 28.543317 58.436202 0
M  V30 12 C 38.323074 28.156642 52.496184 0
M  V30 13 C 40.449578 32.792916 63.002149 0
M  V30 14 N 40.710108 30.413157 61.191000 0
M  V30 15 C 39.713014 28.393275 50.455978 0
M  V30 16 C 39.206637 27.747335 56.231601 0
M  V30 17 C 38.342036 29.804663 55.042190 0 CFG=1
M  V30 18 C 37.524076 30.142683 56.385586 0
M  V30 19 C 39.819420 30.655913 53.292774 0
M  V30 20 C 40.690652 29.159952 60.717104 0
M  V30 21 C 40.867008 28.906016 59.237190 0
M  V30 22 C 39.051517 25.712303 57.979384 0
M  V30 23 C 40.509064 28.203546 61.751718 0
M  V30 24 C 41.245289 35.098262 63.201534 0
M  V30 25 C 39.337107 30.795392 54.498676 0
M  V30 26 C 40.500182 31.358807 63.486960 0
M  V30 27 C 39.544391 33.209391 61.970280 0
M  V30 28 O 40.545513 31.076661 64.686528 0
M  V30 29 Cl 38.402287 32.108119 61.265575 0
M  V30 30 C 40.452221 28.947535 62.887067 0
M  V30 31 C 40.042941 30.094070 52.132239 0
M  V30 32 C 38.786657 27.610190 53.847620 0
M  V30 33 C 41.278285 33.755541 63.621886 0
M  V30 34 C 39.388383 28.874541 51.655428 0
M  V30 35 C 40.379831 35.494441 62.169036 0
M  V30 36 H 38.455491 29.537984 59.908782 0
M  V30 37 H 38.819685 31.147196 57.892972 0
M  V30 38 H 39.160595 25.669710 55.874465 0
M  V30 39 H 40.698624 26.651831 58.116598 0
M  V30 40 H 36.866544 26.704066 57.063939 0
M  V30 41 H 38.850071 34.873021 60.784412 0
M  V30 42 H 40.078344 29.581412 56.771951 0
M  V30 43 H 37.196841 30.892707 58.390805 0
M  V30 44 H 37.453020 28.801501 52.575112 0
M  V30 45 H 37.945544 27.301498 51.936235 0
M  V30 46 H 40.444900 28.884137 49.837255 0
M  V30 47 H 39.245002 27.499558 50.074640 0
M  V30 48 H 37.644521 28.429606 58.860077 0
M  V30 49 H 37.531250 29.867357 54.320266 0
M  V30 50 H 36.865814 30.940565 56.087021 0
M  V30 51 H 36.842439 29.328308 56.503308 0
M  V30 52 H 41.377221 29.737260 58.766488 0
M  V30 53 H 41.575974 28.084021 59.129874 0
M  V30 54 H 38.546179 26.206975 58.808724 0
M  V30 55 H 38.730168 24.669769 57.987943 0
M  V30 56 H 40.444895 27.140912 61.667131 0
M  V30 57 H 41.888490 35.827401 63.673569 0
M  V30 58 H 39.611221 31.626573 55.131322 0
M  V30 59 H 40.337821 28.647811 63.917911 0
M  V30 60 H 40.750950 30.561724 51.462765 0
M  V30 61 H 39.091517 26.575447 53.862951 0
M  V30 62 H 41.948485 33.459939 64.417121 0
M  V30 END ATOM
M  V30 BEGIN BOND
M  V30 1 1 2 1
M  V30 2 1 7 3
M  V30 3 1 11 1
M  V30 4 1 11 9
M  V30 5 1 14 4
M  V30 6 1 16 3
M  V30 7 2 16 9
M  V30 8 1 16 10
M  V30 9 1 17 10
M  V30 10 1 18 2
M  V30 11 1 18 17
M  V30 12 2 20 14
M  V30 13 1 21 11
M  V30 14 1 21 20
M  V30 15 1 22 3
M  V30 16 1 22 6
M  V30 17 1 23 20
M  V30 18 1 25 17
M  V30 19 2 25 19
M  V30 20 1 26 4
M  V30 21 1 26 13
M  V30 22 1 27 8
M  V30 23 2 27 13
M  V30 24 2 28 26
M  V30 25 1 29 27
M  V30 26 1 30 4
M  V30 27 2 30 23
M  V30 28 2 31 19
M  V30 29 2 32 10
M  V30 30 1 32 12
M  V30 31 1 33 13
M  V30 32 2 33 24
M  V30 33 1 34 12
M  V30 34 2 34 15
M  V30 35 1 34 31
M  V30 36 1 35 5
M  V30 37 2 35 8
M  V30 38 1 35 24
M  V30 39 1 36 1
M  V30 40 1 37 2
M  V30 41 1 3 38 CFG=3
M  V30 42 1 39 6
M  V30 43 1 40 7
M  V30 44 1 41 8
M  V30 45 1 42 9
M  V30 46 1 43 2
M  V30 47 1 44 12
M  V30 48 1 45 12
M  V30 49 1 46 15
M  V30 50 1 47 15
M  V30 51 1 48 1
M  V30 52 1 17 49 CFG=3
M  V30 53 1 50 18
M  V30 54 1 51 18
M  V30 55 1 52 21
M  V30 56 1 53 21
M  V30 57 1 54 22
M  V30 58 1 55 22
M  V30 59 1 56 23
M  V30 60 1 57 24
M  V30 61 1 58 25
M  V30 62 1 59 30
M  V30 63 1 60 31
M  V30 64 1 61 32
M  V30 65 1 62 33
M  V30 END BOND
M  V30 END CTAB
M  END
>  <i_epik_Tot_Q>  (1) 
-1

>  <i_epik_Tot_abs_Q>  (1) 
1

>  <i_i_glide_confnum>  (1) 
182

>  <i_i_glide_lignum>  (1) 
146

>  <i_i_glide_posenum>  (1) 
22

>  <i_i_glide_rotatable_bonds>  (1) 
8

>  <i_lp_mmshare_version>  (1) 
72125

>  <i_m_source_file_index>  (1) 
67

>  <i_f3d_flags>  (1) 
0

>  <num_sample>  (1) 
100

>  <b_lp_Chiralities_Consistent>  (1) 
1

>  <r_epik_Charging_Adjusted_Penalty>  (1) 
0.13314888727576835

>  <r_epik_Ionization_Penalty>  (1) 
0.066709733675270222

>  <r_epik_Ionization_Penalty_Charging>  (1) 
0.066574443637884173

>  <r_epik_Ionization_Penalty_Neutral>  (1) 
0.00013529003738605556

>  <r_epik_State_Penalty>  (1) 
0.066574443637884159

>  <r_glide_ring_energy>  (1) 
0

>  <r_i_docking_score>  (1) 
-8.9167351109459094

>  <r_i_glide_ecoul>  (1) 
-3.389246714875275

>  <r_i_glide_eff_state_penalty>  (1) 
0.066574443637884159

>  <r_i_glide_einternal>  (1) 
8.3234718488341741

>  <r_i_glide_emodel>  (1) 
-67.24933826908152

>  <r_i_glide_emodel_strain>  (1) 
0.074627573225654942

>  <r_i_glide_energy>  (1) 
-46.238819282173182

>  <r_i_glide_erotb>  (1) 
0.50284807503681039

>  <r_i_glide_esite>  (1) 
-0.023580730460303272

>  <r_i_glide_evdw>  (1) 
-42.849572567297905

>  <r_i_glide_gscore>  (1) 
-8.9833095545837942

>  <r_i_glide_gscore_strain>  (1) 
0

>  <r_i_glide_hbond>  (1) 
-0.33289587325013276

>  <r_i_glide_ligand_efficiency>  (1) 
-0.25476386031274029

>  <r_i_glide_ligand_efficiency_ln>  (1) 
-1.9574212531260455

>  <r_i_glide_ligand_efficiency_sa>  (1) 
-0.83334948052259672

>  <r_i_glide_lipo>  (1) 
-5.273218298361134

>  <r_i_glide_metal>  (1) 
-0

>  <r_i_glide_rewards>  (1) 
-1.2055970919528505

>  <r_lp_Energy>  (1) 
66.601000999999997

>  <r_lp_tautomer_probability>  (1) 
0.99999944244275329

>  <s_epik_cmdline>  (1) 
J2VwaWtfcHl0aG9uJywgJy1waHQnLCAnMS4wJywgJy1waCcsICc3LjQnLCAnLXRuJywgJzgnLCAnLW1hJywgJzUwMCcsICctaW1hZScsICc8aW5maWxlLm1hZT4nLCAnLW9tYWUnLCAnPG91dGZpbGUubWFlPic=

>  <s_epik_input>  (1) 
W0NIXTEvW0NIMl1DKD1bQ0gyXSlbQ0hdPUM9W0NIXVtDQEBIXShDPTFcMilbQ0gyXS9bQ0hdPVtDSF1cTihbQ0gyXVtDQEBIXTJbQ0BASF0oW09IXSlbQ0gyXVtPSF0pW0NIMl1jKFtjSF1bY0hdMylubjNDKD1PKWM0YyhDbClbY0hdYyhbT0hdKVtjSF1bY0hdNA==

>  <s_glide_docking_method>  (1) 
confgen

>  <s_i_glide_gridfile>  (1) 
gpcr_5ht2c_6bqh_protein_autoprepared_prepared

>  <s_lp_Force_Field>  (1) 
S-OPLS

>  <s_lp_Variant>  (1) 
DiffSBDD_66-2

>  <s_m_source_file>  (1) 
generated_GPCR_5HT2C_ligand_DiffSBDD_2026-06-23_prepared.sdf

>  <GenAI_Model>  (1) 
DiffSBDD

>  <Protein>  (1) 
GPCR_5HT2C

$$$$
DiffSBDD_68
     RDKit          3D

  0  0  0  0  0  0  0  0  0  0999 V3000
M  V30 BEGIN CTAB
M  V30 COUNTS 77 79 0 0 1
M  V30 BEGIN ATOM
M  V30 1 C 42.297459 27.081593 66.607984 0 CFG=2
M  V30 2 O 41.314236 30.207120 66.687839 0
M  V30 3 C 38.920621 29.204253 53.777128 0 CFG=2
M  V30 4 O 43.412105 24.886408 69.569825 0
M  V30 5 C 40.867155 33.840491 62.533925 0 CFG=1
M  V30 6 C 40.112110 34.912276 61.732447 0
M  V30 7 C 41.263006 34.310152 63.942845 0
M  V30 8 C 38.065712 30.155288 59.143598 0 CFG=1
M  V30 9 C 41.964997 25.784570 65.873326 0
M  V30 10 O 40.045130 29.431826 55.848431 0
M  V30 11 C 38.873871 28.886793 55.286999 0 CFG=2
M  V30 12 C 41.229081 29.894131 65.500514 0
M  V30 13 C 39.289142 30.672523 53.465356 0
M  V30 14 C 42.938683 28.139404 65.702644 0
M  V30 15 C 42.602298 25.801864 68.858723 0
M  V30 16 C 38.576185 27.084151 57.154189 0
M  V30 17 C 40.269444 30.637695 64.573262 0
M  V30 18 O 38.444084 31.566024 54.167740 0
M  V30 19 O 38.877820 31.300473 59.326598 0
M  V30 20 C 40.935888 31.864775 63.899930 0 CFG=2
M  V30 21 C 41.227341 33.055931 64.835722 0 CFG=1
M  V30 22 O 42.663814 33.332855 66.574431 0
M  V30 23 F 39.900368 26.752400 55.222656 0
M  V30 24 C 43.160036 26.125537 67.457255 0 CFG=2
M  V30 25 C 37.473478 31.179953 61.206613 0 CFG=2
M  V30 26 O 36.589518 32.121317 61.767742 0
M  V30 27 O 41.195577 25.473263 64.967778 0
M  V30 28 N 41.955066 28.909823 64.948213 0
M  V30 29 C 44.682833 26.333117 67.456442 0
M  V30 30 N 42.597321 32.880272 65.450989 0
M  V30 31 F 37.759877 26.846749 55.014085 0
M  V30 32 O 42.836685 25.004517 66.562933 0
M  V30 33 S 38.835931 28.607915 59.767754 0
M  V30 34 C 38.803098 27.380306 55.650937 0
M  V30 35 C 39.980061 31.654656 61.499132 0
M  V30 36 O 40.845048 30.834229 61.190928 0
M  V30 37 O 35.997004 31.505464 59.367758 0
M  V30 38 C 38.720970 31.860004 60.634127 0 CFG=1
M  V30 39 F 37.747663 28.917688 53.209868 0
M  V30 40 S 39.874485 27.737686 58.253186 0
M  V30 41 C 40.111760 32.516420 62.767462 0 CFG=2
M  V30 42 C 36.840773 30.537418 59.976824 0 CFG=1
M  V30 43 H 41.455010 27.460933 67.187868 0
M  V30 44 H 39.643154 28.554979 53.282440 0
M  V30 45 H 44.277469 25.255016 69.659499 0
M  V30 46 H 41.790844 33.614130 61.997077 0
M  V30 47 H 39.142261 35.135705 62.178337 0
M  V30 48 H 40.683095 35.841279 61.695804 0
M  V30 49 H 39.948555 34.599765 60.701741 0
M  V30 50 H 42.240319 34.796284 63.929176 0
M  V30 51 H 40.552924 35.045064 64.323770 0
M  V30 52 H 37.804384 30.026926 58.093504 0
M  V30 53 H 40.104336 29.140280 56.748104 0
M  V30 54 H 38.018721 29.400836 55.728940 0
M  V30 55 H 40.320759 30.880823 53.753001 0
M  V30 56 H 39.245138 30.860403 52.395116 0
M  V30 57 H 43.559099 28.817648 66.291312 0
M  V30 58 H 43.610423 27.676683 64.977523 0
M  V30 59 H 41.587154 25.405998 68.800924 0
M  V30 60 H 42.539657 26.714631 69.452643 0
M  V30 61 H 38.507278 26.008364 57.318195 0
M  V30 62 H 37.618316 27.501518 57.465637 0
M  V30 63 H 39.901745 29.940136 63.819958 0
M  V30 64 H 39.406758 30.937758 65.164072 0
M  V30 65 H 38.637743 32.451534 53.899488 0
M  V30 66 H 41.885725 31.539232 63.467763 0
M  V30 67 H 40.482158 33.154030 65.628197 0
M  V30 68 H 37.743943 30.432704 61.953826 0
M  V30 69 H 36.096814 32.460815 61.026237 0
M  V30 70 H 41.835424 28.696967 63.968127 0
M  V30 71 H 44.972024 27.159974 68.105434 0
M  V30 72 H 45.215332 25.443174 67.790846 0
M  V30 73 H 45.063044 26.551757 66.459431 0
M  V30 74 H 35.857846 31.343843 58.428149 0
M  V30 75 H 38.541313 32.926278 60.503197 0
M  V30 76 H 39.111363 32.737927 63.139545 0
M  V30 77 H 36.221888 29.667692 60.167744 0
M  V30 END ATOM
M  V30 BEGIN BOND
M  V30 1 1 6 5
M  V30 2 1 7 5
M  V30 3 1 9 1
M  V30 4 1 11 3
M  V30 5 1 11 10
M  V30 6 2 12 2
M  V30 7 1 13 3
M  V30 8 1 14 1
M  V30 9 1 15 4
M  V30 10 1 17 12
M  V30 11 1 18 13
M  V30 12 1 19 8
M  V30 13 1 20 17
M  V30 14 1 21 7
M  V30 15 1 21 20
M  V30 16 1 24 1
M  V30 17 1 24 15 CFG=1
M  V30 18 1 26 25
M  V30 19 2 27 9
M  V30 20 1 28 12
M  V30 21 1 28 14
M  V30 22 1 29 24
M  V30 23 1 30 21
M  V30 24 2 30 22
M  V30 25 1 32 9
M  V30 26 1 32 24
M  V30 27 1 33 8
M  V30 28 1 34 11
M  V30 29 1 34 16
M  V30 30 1 34 23
M  V30 31 1 34 31
M  V30 32 2 36 35
M  V30 33 1 38 19
M  V30 34 1 38 25
M  V30 35 1 38 35
M  V30 36 1 39 3
M  V30 37 1 40 16
M  V30 38 1 40 33
M  V30 39 1 41 5
M  V30 40 1 41 20
M  V30 41 1 41 35
M  V30 42 1 42 8
M  V30 43 1 42 25
M  V30 44 1 42 37
M  V30 45 1 1 43 CFG=1
M  V30 46 1 3 44 CFG=3
M  V30 47 1 45 4
M  V30 48 1 5 46 CFG=3
M  V30 49 1 47 6
M  V30 50 1 48 6
M  V30 51 1 49 6
M  V30 52 1 50 7
M  V30 53 1 51 7
M  V30 54 1 8 52 CFG=3
M  V30 55 1 53 10
M  V30 56 1 11 54 CFG=1
M  V30 57 1 55 13
M  V30 58 1 56 13
M  V30 59 1 57 14
M  V30 60 1 58 14
M  V30 61 1 59 15
M  V30 62 1 60 15
M  V30 63 1 61 16
M  V30 64 1 62 16
M  V30 65 1 63 17
M  V30 66 1 64 17
M  V30 67 1 65 18
M  V30 68 1 20 66 CFG=3
M  V30 69 1 21 67 CFG=1
M  V30 70 1 25 68 CFG=1
M  V30 71 1 69 26
M  V30 72 1 70 28
M  V30 73 1 71 29
M  V30 74 1 72 29
M  V30 75 1 73 29
M  V30 76 1 74 37
M  V30 77 1 38 75 CFG=3
M  V30 78 1 41 76 CFG=1
M  V30 79 1 42 77 CFG=1
M  V30 END BOND
M  V30 END CTAB
M  END
>  <i_epik_Tot_Q>  (1) 
0

>  <i_epik_Tot_abs_Q>  (1) 
0

>  <i_i_glide_confnum>  (1) 
4586

>  <i_i_glide_lignum>  (1) 
152

>  <i_i_glide_posenum>  (1) 
89

>  <i_i_glide_rotatable_bonds>  (1) 
21

>  <i_lp_mmshare_version>  (1) 
72125

>  <i_m_source_file_index>  (1) 
69

>  <i_f3d_flags>  (1) 
0

>  <num_sample>  (1) 
100

>  <b_lp_Chiralities_Consistent>  (1) 
1

>  <r_epik_Charging_Adjusted_Penalty>  (1) 
0.055139977008856429

>  <r_epik_Ionization_Penalty>  (1) 
0.055151113316776565

>  <r_epik_Ionization_Penalty_Charging>  (1) 
0

>  <r_epik_Ionization_Penalty_Neutral>  (1) 
0.055151113316776565

>  <r_epik_State_Penalty>  (1) 
0.055139977008856429

>  <r_glide_ring_energy>  (1) 
0

>  <r_i_docking_score>  (1) 
-8.9013336517044301

>  <r_i_glide_ecoul>  (1) 
-11.922564415834074

>  <r_i_glide_eff_state_penalty>  (1) 
0.055139977008856429

>  <r_i_glide_einternal>  (1) 
6.0196247905187743

>  <r_i_glide_emodel>  (1) 
-84.217483050890849

>  <r_i_glide_emodel_strain>  (1) 
1.4461356957812015

>  <r_i_glide_energy>  (1) 
-59.09714124312103

>  <r_i_glide_erotb>  (1) 
0.60671089225908026

>  <r_i_glide_esite>  (1) 
0

>  <r_i_glide_evdw>  (1) 
-47.174576827286955

>  <r_i_glide_gscore>  (1) 
-8.9564736287132867

>  <r_i_glide_gscore_strain>  (1) 
0

>  <r_i_glide_hbond>  (1) 
-0.68078555175441491

>  <r_i_glide_ligand_efficiency>  (1) 
-0.21193651551677214

>  <r_i_glide_ligand_efficiency_ln>  (1) 
-1.8788422091217307

>  <r_i_glide_ligand_efficiency_sa>  (1) 
-0.73669697496069064

>  <r_i_glide_lipo>  (1) 
-3.0540768304340697

>  <r_i_glide_metal>  (1) 
-0

>  <r_i_glide_rewards>  (1) 
-1.6812086350444231

>  <r_lp_Energy>  (1) 
-0.130936

>  <r_lp_tautomer_probability>  (1) 
0.99999996000000102

>  <s_epik_Chemistry_Notes>  (1) 
This compound has an ester and may undergo hydrolysis at high or low pH. This compound contains an acetal/aminal-like group ( X-CH(R)-Y where X, Y are N, S, or O) that may be acid/base labile, releasing an aldehyde.

>  <s_epik_cmdline>  (1) 
J2VwaWtfcHl0aG9uJywgJy1waHQnLCAnMS4wJywgJy1waCcsICc3LjQnLCAnLXRuJywgJzgnLCAnLW1hJywgJzUwMCcsICctaW1hZScsICc8aW5maWxlLm1hZT4nLCAnLW9tYWUnLCAnPG91dGZpbGUubWFlPic=

>  <s_epik_input>  (1) 
W09IXVtDSDJdW0NAXTEoW0NIM10pW0NASF0oQyg9TylPMSlbQ0gyXVtOSF1DKD1PKVtDSDJdW0NASF0oW0NAQEhdKE49TylbQ0gyXVtDQEBIXTJbQ0gzXSlbQ0BASF0yQyg9TylbQ0BIXShbQ0BASF0oW09IXSlbQ0BIXTNbT0hdKU9bQ0BIXTNTU1tDSDJdQyhGKShGKVtDQEBIXShbT0hdKVtDQEBIXShGKVtDSDJdW09IXQ==

>  <s_glide_docking_method>  (1) 
confgen

>  <s_i_glide_gridfile>  (1) 
gpcr_5ht2c_6bqh_protein_autoprepared_prepared

>  <s_lp_Force_Field>  (1) 
S-OPLS

>  <s_lp_Variant>  (1) 
DiffSBDD_68-1

>  <s_m_source_file>  (1) 
generated_GPCR_5HT2C_ligand_DiffSBDD_2026-06-23_prepared.sdf

>  <GenAI_Model>  (1) 
DiffSBDD

>  <Protein>  (1) 
GPCR_5HT2C

$$$$
DiffSBDD_16
     RDKit          3D

  0  0  0  0  0  0  0  0  0  0999 V3000
M  V30 BEGIN CTAB
M  V30 COUNTS 70 74 0 0 1
M  V30 BEGIN ATOM
M  V30 1 C 39.245118 28.610118 53.323911 0
M  V30 2 C 41.219757 30.304473 63.862647 0
M  V30 3 C 38.414445 29.622655 59.214336 0 CFG=1
M  V30 4 C 38.008746 31.091123 59.451312 0
M  V30 5 C 39.651541 29.849975 51.247964 0
M  V30 6 C 39.587153 28.664016 50.513794 0
M  V30 7 C 37.712782 25.296574 56.126742 0
M  V30 8 C 39.089257 24.812707 56.597008 0
M  V30 9 C 38.642814 29.345953 57.703429 0
M  V30 10 C 39.368357 27.448732 51.164193 0
M  V30 11 O 37.245157 26.470046 54.124494 0
M  V30 12 C 39.710170 31.832993 62.623973 0
M  V30 13 C 39.098746 30.980740 61.746413 0
M  V30 14 C 39.577430 29.559426 61.444870 0
M  V30 15 C 40.868601 31.520170 63.491842 0
M  V30 16 C 39.482728 29.827457 52.647779 0
M  V30 17 N 42.304900 30.233770 64.705990 0
M  V30 18 C 42.987691 33.297784 66.459103 0
M  V30 19 N 39.651066 29.359883 59.981395 0 CHG=1
M  V30 20 C 41.940656 34.143552 65.793845 0
M  V30 21 C 39.905849 31.155566 50.536039 0
M  V30 22 C 39.549104 25.506572 57.878028 0
M  V30 23 C 41.187286 27.337430 57.145723 0
M  V30 24 C 39.832233 27.017189 57.800897 0 CFG=1
M  V30 25 C 39.124990 28.641199 54.836079 0
M  V30 26 C 38.646295 27.854908 57.234103 0 CFG=2
M  V30 27 C 37.815414 26.508928 55.204199 0
M  V30 28 C 41.746487 32.570515 64.042672 0 CFG=2
M  V30 29 C 38.577186 27.706998 55.694762 0
M  V30 30 C 42.444811 31.498907 64.939570 0
M  V30 31 N 41.245137 33.733793 64.785843 0
M  V30 32 C 39.214456 27.408367 52.559969 0
M  V30 33 C 37.876785 31.417374 60.948115 0
M  V30 34 C 43.205870 32.028786 66.058824 0
M  V30 35 H 40.710011 29.393051 63.614381 0
M  V30 36 H 37.624441 28.969680 59.586996 0
M  V30 37 H 37.062156 31.303023 58.950504 0
M  V30 38 H 38.745836 31.757821 59.000626 0
M  V30 39 H 39.714623 28.686837 49.442462 0
M  V30 40 H 37.044096 25.498050 56.963533 0
M  V30 41 H 37.241499 24.498136 55.552655 0
M  V30 42 H 39.022345 23.745194 56.804929 0
M  V30 43 H 39.839770 24.920992 55.811729 0
M  V30 44 H 37.836776 29.843227 57.159554 0
M  V30 45 H 39.556030 29.855625 57.396960 0
M  V30 46 H 39.339324 26.537702 50.593279 0
M  V30 47 H 39.305394 32.832389 62.698899 0
M  V30 48 H 40.617960 29.367054 61.671871 0
M  V30 49 H 38.943197 28.810664 61.919761 0
M  V30 50 H 39.538247 30.750031 53.208046 0
M  V30 51 H 43.514910 33.738019 67.292071 0
M  V30 52 H 39.936412 28.407183 59.810611 0
M  V30 53 H 41.791598 35.133141 66.233339 0
M  V30 54 H 39.421180 31.976600 51.057880 0
M  V30 55 H 40.978458 31.337710 50.484789 0
M  V30 56 H 39.514614 31.131883 49.518671 0
M  V30 57 H 38.787656 25.337617 58.639032 0
M  V30 58 H 40.445059 24.998908 58.229266 0
M  V30 59 H 41.245183 26.924860 56.140483 0
M  V30 60 H 41.362711 28.409789 57.078787 0
M  V30 61 H 42.013475 26.918487 57.719745 0
M  V30 62 H 39.959815 27.255789 58.847313 0
M  V30 63 H 39.584250 29.504613 55.287838 0
M  V30 64 H 37.721108 27.455143 57.650543 0
M  V30 65 H 42.435817 32.894598 63.261372 0
M  V30 66 H 39.113940 26.457022 53.033082 0
M  V30 67 H 37.010232 30.892899 61.351579 0
M  V30 68 H 37.682424 32.482114 61.086273 0
M  V30 69 H 43.908788 31.368263 66.544774 0
M  V30 70 H 40.366896 29.972788 59.621180 0
M  V30 END ATOM
M  V30 BEGIN BOND
M  V30 1 1 4 3
M  V30 2 1 6 5
M  V30 3 1 8 7
M  V30 4 1 9 3
M  V30 5 2 10 6
M  V30 6 2 13 12
M  V30 7 1 14 13
M  V30 8 2 15 2
M  V30 9 1 15 12
M  V30 10 1 16 1
M  V30 11 2 16 5
M  V30 12 1 17 2
M  V30 13 1 19 3
M  V30 14 1 19 14
M  V30 15 1 20 18
M  V30 16 1 21 5
M  V30 17 1 22 8
M  V30 18 1 24 22
M  V30 19 1 24 23
M  V30 20 1 25 1
M  V30 21 1 26 9
M  V30 22 1 26 24
M  V30 23 1 27 7
M  V30 24 2 27 11
M  V30 25 1 28 15
M  V30 26 2 29 25
M  V30 27 1 29 26
M  V30 28 1 29 27
M  V30 29 2 30 17
M  V30 30 1 30 28
M  V30 31 2 31 20
M  V30 32 1 31 28
M  V30 33 2 32 1
M  V30 34 1 32 10
M  V30 35 1 33 4
M  V30 36 1 33 13
M  V30 37 2 34 18
M  V30 38 1 34 30
M  V30 39 1 35 2
M  V30 40 1 3 36 CFG=1
M  V30 41 1 37 4
M  V30 42 1 38 4
M  V30 43 1 39 6
M  V30 44 1 40 7
M  V30 45 1 41 7
M  V30 46 1 42 8
M  V30 47 1 43 8
M  V30 48 1 44 9
M  V30 49 1 45 9
M  V30 50 1 46 10
M  V30 51 1 47 12
M  V30 52 1 48 14
M  V30 53 1 49 14
M  V30 54 1 50 16
M  V30 55 1 51 18
M  V30 56 1 52 19
M  V30 57 1 53 20
M  V30 58 1 54 21
M  V30 59 1 55 21
M  V30 60 1 56 21
M  V30 61 1 57 22
M  V30 62 1 58 22
M  V30 63 1 59 23
M  V30 64 1 60 23
M  V30 65 1 61 23
M  V30 66 1 24 62 CFG=1
M  V30 67 1 63 25
M  V30 68 1 26 64 CFG=1
M  V30 69 1 28 65 CFG=3
M  V30 70 1 66 32
M  V30 71 1 67 33
M  V30 72 1 68 33
M  V30 73 1 69 34
M  V30 74 1 70 19
M  V30 END BOND
M  V30 END CTAB
M  END
>  <i_epik_Tot_Q>  (1) 
1

>  <i_epik_Tot_abs_Q>  (1) 
1

>  <i_i_glide_confnum>  (1) 
40

>  <i_i_glide_lignum>  (1) 
33

>  <i_i_glide_posenum>  (1) 
308

>  <i_i_glide_rotatable_bonds>  (1) 
4

>  <i_lp_mmshare_version>  (1) 
72125

>  <i_m_source_file_index>  (1) 
17

>  <i_f3d_flags>  (1) 
0

>  <num_sample>  (1) 
100

>  <b_lp_Chiralities_Consistent>  (1) 
1

>  <r_epik_Charging_Adjusted_Penalty>  (1) 
0.57808156404405586

>  <r_epik_Ionization_Penalty>  (1) 
0.28904078202202793

>  <r_epik_Ionization_Penalty_Charging>  (1) 
0.28904078202202793

>  <r_epik_Ionization_Penalty_Neutral>  (1) 
0

>  <r_epik_State_Penalty>  (1) 
0.28904078202202793

>  <r_glide_ring_energy>  (1) 
0

>  <r_i_docking_score>  (1) 
-8.8753668512271418

>  <r_i_glide_ecoul>  (1) 
0.034843397378397034

>  <r_i_glide_eff_state_penalty>  (1) 
0.28904078202202793

>  <r_i_glide_einternal>  (1) 
28.023589472695512

>  <r_i_glide_emodel>  (1) 
-44.119992427081002

>  <r_i_glide_emodel_strain>  (1) 
0

>  <r_i_glide_energy>  (1) 
-44.180270068711671

>  <r_i_glide_erotb>  (1) 
0.29147875755417113

>  <r_i_glide_esite>  (1) 
0

>  <r_i_glide_evdw>  (1) 
-44.215113466090067

>  <r_i_glide_gscore>  (1) 
-9.1644076332491693

>  <r_i_glide_gscore_strain>  (1) 
0

>  <r_i_glide_hbond>  (1) 
0

>  <r_i_glide_ligand_efficiency>  (1) 
-0.26104020150668061

>  <r_i_glide_ligand_efficiency_ln>  (1) 
-1.9608174830439029

>  <r_i_glide_ligand_efficiency_sa>  (1) 
-0.84566891740889505

>  <r_i_glide_lipo>  (1) 
-5.1908299225801908

>  <r_i_glide_metal>  (1) 
-0

>  <r_i_glide_rewards>  (1) 
-2.0595273045254068

>  <r_lp_Energy>  (1) 
66.447216999999995

>  <s_epik_Chemistry_Notes>  (1) 
This compound has an imine and may undergo hydrolysis.

>  <s_epik_cmdline>  (1) 
J2VwaWtfcHl0aG9uJywgJy1waHQnLCAnMS4wJywgJy1waCcsICc3LjQnLCAnLXRuJywgJzgnLCAnLW1hJywgJzUwMCcsICctaW1hZScsICc8aW5maWxlLm1hZT4nLCAnLW9tYWUnLCAnPG91dGZpbGUubWFlPic=

>  <s_epik_input>  (1) 
W2NIXTFbY0hdW2NIXWMoW0NIM10pW2NIXWMxL1tDSF09QyhDKD1PKVtDSDJdW0NIMl1bQ0gyXVtDQEhdMltDSDNdKS9bQ0BASF0yW0NIMl1bQ0BASF0zW0NIMl1bQ0gyXUMoXFtDSDJdW05IXTMpPVtDSF1cQzQ9W0NIXU49QyhbQ0BASF00NSlbQ0hdPVtDSF1bQ0hdPU41

>  <s_glide_docking_method>  (1) 
confgen

>  <s_i_glide_gridfile>  (1) 
gpcr_5ht2c_6bqh_protein_autoprepared_prepared

>  <s_lp_Force_Field>  (1) 
S-OPLS

>  <s_lp_Variant>  (1) 
DiffSBDD_16-1

>  <s_m_source_file>  (1) 
generated_GPCR_5HT2C_ligand_DiffSBDD_2026-06-23_prepared.sdf

>  <GenAI_Model>  (1) 
DiffSBDD

>  <Protein>  (1) 
GPCR_5HT2C

$$$$
DiffSBDD_59
     RDKit          3D

  0  0  0  0  0  0  0  0  0  0999 V3000
M  V30 BEGIN CTAB
M  V30 COUNTS 70 72 0 0 1
M  V30 BEGIN ATOM
M  V30 1 C 39.515637 28.468725 50.633779 0
M  V30 2 O 40.634242 30.152258 61.230738 0
M  V30 3 C 37.644970 27.945919 57.855116 0
M  V30 4 C 37.699358 27.393202 55.323085 0
M  V30 5 C 38.549999 30.977069 60.198119 0 CFG=1
M  V30 6 O 38.045182 33.737565 56.511245 0
M  V30 7 C 39.304050 29.421998 53.630917 0
M  V30 8 C 38.990074 32.481011 60.023301 0 CFG=2
M  V30 9 C 38.326564 28.623056 59.063669 0
M  V30 10 C 39.579282 34.628018 61.087754 0 CFG=1
M  V30 11 C 38.584955 28.010327 51.693975 0
M  V30 12 C 38.788553 32.999071 57.455940 0
M  V30 13 C 38.539437 27.070754 54.066899 0 CFG=1
M  V30 14 C 40.934971 34.896745 61.823800 0
M  V30 15 N 38.937213 33.284214 61.270387 0
M  V30 16 C 38.158064 33.120011 58.860341 0
M  V30 17 C 38.859006 28.252944 53.140596 0
M  V30 18 F 40.845149 29.910427 49.469790 0
M  V30 19 O 42.445102 34.618991 64.520018 0 CHG=-1
M  V30 20 C 39.492381 32.563763 62.438229 0
M  V30 21 O 38.822063 36.834743 64.041971 0
M  V30 22 C 41.365419 35.212071 64.318756 0
M  V30 23 C 40.118038 29.658679 50.567519 0
M  V30 24 O 39.645129 30.537805 63.744993 0
M  V30 25 N 40.845443 35.737629 65.481907 0
M  V30 26 C 39.282956 36.146153 63.128883 0
M  V30 27 C 38.623008 30.121654 58.900351 0
M  V30 28 C 39.686143 30.618305 52.878916 0
M  V30 29 S 38.393551 35.941706 61.601205 0
M  V30 30 C 39.239133 30.302945 61.403526 0 CFG=2
M  V30 31 Cl 39.995836 26.137794 54.515270 0
M  V30 32 C 38.976704 31.141790 62.650118 0 CFG=2
M  V30 33 C 38.380692 28.116217 56.519021 0
M  V30 34 C 40.565816 35.431355 63.187739 0
M  V30 35 C 40.045136 30.718045 51.567387 0
M  V30 36 H 39.652529 27.783559 49.816078 0
M  V30 37 H 40.967884 29.993105 62.104413 0
M  V30 38 H 37.524906 26.883005 58.066645 0
M  V30 39 H 36.641853 28.358608 57.767742 0
M  V30 40 H 37.295456 26.448994 55.688427 0
M  V30 41 H 36.848507 27.970903 54.967687 0
M  V30 42 H 37.489637 31.001437 60.457450 0
M  V30 43 H 37.797759 34.573615 56.880775 0
M  V30 44 H 39.418448 29.488075 54.688269 0
M  V30 45 H 40.043250 32.518860 59.767745 0
M  V30 46 H 39.236854 28.087608 59.336644 0
M  V30 47 H 37.645171 28.537670 59.901115 0
M  V30 48 H 39.776654 34.797852 60.030788 0
M  V30 49 H 38.516012 26.937597 51.526756 0
M  V30 50 H 37.593851 28.395867 51.464478 0
M  V30 51 H 38.833412 31.982187 57.080391 0
M  V30 52 H 39.818806 33.337740 57.470671 0
M  V30 53 H 37.925205 26.371259 53.498988 0
M  V30 54 H 41.647066 34.075616 61.834058 0
M  V30 55 H 41.449704 35.709771 61.308546 0
M  V30 56 H 37.980147 34.175677 59.049410 0
M  V30 57 H 37.153633 32.693785 58.838725 0
M  V30 58 H 40.569994 32.462091 62.350193 0
M  V30 59 H 39.302845 33.134217 63.346981 0
M  V30 60 H 39.169151 29.753272 63.998989 0
M  V30 61 H 39.986701 36.272231 65.519571 0
M  V30 62 H 41.299206 35.670794 66.378463 0
M  V30 63 H 37.862838 30.502297 58.220642 0
M  V30 64 H 39.590731 30.231210 58.412291 0
M  V30 65 H 39.749370 31.531196 53.452532 0
M  V30 66 H 38.845118 29.306462 61.586158 0
M  V30 67 H 37.909146 31.175912 62.861885 0
M  V30 68 H 38.398201 29.186983 56.340982 0
M  V30 69 H 39.413581 27.788562 56.636230 0
M  V30 70 H 40.348877 31.700241 51.236113 0
M  V30 END ATOM
M  V30 BEGIN BOND
M  V30 1 1 8 5
M  V30 2 1 9 3
M  V30 3 1 11 1
M  V30 4 1 12 6
M  V30 5 1 13 4
M  V30 6 1 14 10
M  V30 7 1 15 8
M  V30 8 1 15 10
M  V30 9 1 16 8
M  V30 10 1 16 12
M  V30 11 2 17 7
M  V30 12 1 17 11
M  V30 13 1 17 13
M  V30 14 1 20 15
M  V30 15 1 22 19
M  V30 16 2 23 1
M  V30 17 1 23 18
M  V30 18 1 25 22
M  V30 19 2 26 21
M  V30 20 1 27 5
M  V30 21 1 27 9
M  V30 22 1 28 7
M  V30 23 1 29 10
M  V30 24 1 29 26
M  V30 25 1 30 2
M  V30 26 1 30 5
M  V30 27 1 31 13
M  V30 28 1 32 20
M  V30 29 1 32 24
M  V30 30 1 32 30
M  V30 31 1 33 3
M  V30 32 1 33 4
M  V30 33 1 34 14
M  V30 34 2 34 22
M  V30 35 1 34 26
M  V30 36 1 35 23
M  V30 37 2 35 28
M  V30 38 1 36 1
M  V30 39 1 37 2
M  V30 40 1 38 3
M  V30 41 1 39 3
M  V30 42 1 40 4
M  V30 43 1 41 4
M  V30 44 1 5 42 CFG=1
M  V30 45 1 43 6
M  V30 46 1 44 7
M  V30 47 1 8 45 CFG=3
M  V30 48 1 46 9
M  V30 49 1 47 9
M  V30 50 1 10 48 CFG=3
M  V30 51 1 49 11
M  V30 52 1 50 11
M  V30 53 1 51 12
M  V30 54 1 52 12
M  V30 55 1 13 53 CFG=3
M  V30 56 1 54 14
M  V30 57 1 55 14
M  V30 58 1 56 16
M  V30 59 1 57 16
M  V30 60 1 58 20
M  V30 61 1 59 20
M  V30 62 1 60 24
M  V30 63 1 61 25
M  V30 64 1 62 25
M  V30 65 1 63 27
M  V30 66 1 64 27
M  V30 67 1 65 28
M  V30 68 1 30 66 CFG=1
M  V30 69 1 32 67 CFG=1
M  V30 70 1 68 33
M  V30 71 1 69 33
M  V30 72 1 70 35
M  V30 END BOND
M  V30 END CTAB
M  END
>  <i_epik_Tot_Q>  (1) 
-1

>  <i_epik_Tot_abs_Q>  (1) 
1

>  <i_i_glide_confnum>  (1) 
371

>  <i_i_glide_lignum>  (1) 
131

>  <i_i_glide_posenum>  (1) 
255

>  <i_i_glide_rotatable_bonds>  (1) 
13

>  <i_lp_mmshare_version>  (1) 
72125

>  <i_m_source_file_index>  (1) 
60

>  <i_f3d_flags>  (1) 
0

>  <num_sample>  (1) 
100

>  <b_lp_Chiralities_Consistent>  (1) 
1

>  <r_epik_Charging_Adjusted_Penalty>  (1) 
0.0074905743673960735

>  <r_epik_Ionization_Penalty>  (1) 
0.0074913792642442509

>  <r_epik_Ionization_Penalty_Charging>  (1) 
4.9207863050936644e-05

>  <r_epik_Ionization_Penalty_Neutral>  (1) 
0.0074421714011933138

>  <r_epik_State_Penalty>  (1) 
0.0074413665043451364

>  <r_glide_ring_energy>  (1) 
0

>  <r_i_docking_score>  (1) 
-8.7576999755776264

>  <r_i_glide_ecoul>  (1) 
-3.0929296615922692

>  <r_i_glide_eff_state_penalty>  (1) 
0.0074413665043451364

>  <r_i_glide_einternal>  (1) 
16.858320233656595

>  <r_i_glide_emodel>  (1) 
-55.062632898068813

>  <r_i_glide_emodel_strain>  (1) 
4.0838833949714086

>  <r_i_glide_energy>  (1) 
-46.595749009650078

>  <r_i_glide_erotb>  (1) 
0.46213008343226208

>  <r_i_glide_esite>  (1) 
-0.026012455917910751

>  <r_i_glide_evdw>  (1) 
-43.502819348057805

>  <r_i_glide_gscore>  (1) 
-8.7651413420819715

>  <r_i_glide_gscore_strain>  (1) 
0.020970848742852155

>  <r_i_glide_hbond>  (1) 
-0.69262717284606579

>  <r_i_glide_ligand_efficiency>  (1) 
-0.25021999930221789

>  <r_i_glide_ligand_efficiency_ln>  (1) 
-1.9225095113180475

>  <r_i_glide_ligand_efficiency_sa>  (1) 
-0.81848620985289755

>  <r_i_glide_lipo>  (1) 
-4.5950082951985074

>  <r_i_glide_metal>  (1) 
-0

>  <r_i_glide_rewards>  (1) 
-1.2955139336528694

>  <r_lp_Energy>  (1) 
21.219953

>  <s_epik_Chemistry_Notes>  (1) 
This compound contains an acetal/aminal-like group ( X-CH(R)-Y where X, Y are N, S, or O) that may be acid/base labile, releasing an aldehyde.

>  <s_epik_cmdline>  (1) 
J2VwaWtfcHl0aG9uJywgJy1waHQnLCAnMS4wJywgJy1waCcsICc3LjQnLCAnLXRuJywgJzgnLCAnLW1hJywgJzUwMCcsICctaW1hZScsICc8aW5maWxlLm1hZT4nLCAnLW9tYWUnLCAnPG91dGZpbGUubWFlPic=

>  <s_epik_input>  (1) 
W0NIMl0xW0NIXT1DKEYpW0NIXT1bQ0hdW0NIXT1DMVtDQEBIXShDbClbQ0gyXVtDSDJdW0NIMl1bQ0gyXVtDSDJdW0NAQEhdMltDQEBIXShbQ0gyXVtDSDJdW09IXSlOKFtDSDJdW0NASF0oW09IXSlbQ0BASF0yW09IXSlbQ0BASF0zW0NIMl1bQ0BIXShDKD1PKVMzKUMoPU8pW05IMl0=

>  <s_glide_docking_method>  (1) 
confgen

>  <s_i_glide_gridfile>  (1) 
gpcr_5ht2c_6bqh_protein_autoprepared_prepared

>  <s_lp_Force_Field>  (1) 
S-OPLS

>  <s_lp_Variant>  (1) 
DiffSBDD_59-1

>  <s_m_source_file>  (1) 
generated_GPCR_5HT2C_ligand_DiffSBDD_2026-06-23_prepared.sdf

>  <GenAI_Model>  (1) 
DiffSBDD

>  <Protein>  (1) 
GPCR_5HT2C

$$$$
DiffSBDD_48
     RDKit          3D

  0  0  0  0  0  0  0  0  0  0999 V3000
M  V30 BEGIN CTAB
M  V30 COUNTS 75 77 0 0 1
M  V30 BEGIN ATOM
M  V30 1 C 40.719543 32.100644 61.713742 0
M  V30 2 C 39.644863 31.178750 50.207230 0
M  V30 3 C 37.733985 37.030173 61.689794 0
M  V30 4 C 39.744119 28.656579 51.040642 0 CFG=2
M  V30 5 C 39.572354 25.800679 58.123403 0
M  V30 6 O 40.845057 30.903866 61.368353 0
M  V30 7 C 37.645007 27.332008 57.912588 0
M  V30 8 C 38.085180 25.651627 56.093338 0
M  V30 9 C 38.814455 34.712042 61.167028 0 CFG=1
M  V30 10 C 39.630500 27.622482 56.404954 0
M  V30 11 C 39.298183 32.576720 62.084356 0 CFG=1
M  V30 12 C 39.392168 29.584371 55.067568 0 CFG=1
M  V30 13 C 38.251969 28.543536 53.042986 0
M  V30 14 C 38.588049 33.635889 60.085540 0 CFG=2
M  V30 15 C 40.045215 31.986919 55.506100 0
M  V30 16 C 37.565901 35.524323 61.543877 0
M  V30 17 F 39.441479 28.534478 49.767736 0
M  V30 18 O 41.641911 32.943968 61.773965 0 CHG=-1
M  V30 19 C 39.288927 30.775859 56.054302 0 CFG=1
M  V30 20 C 37.861147 33.284140 57.660715 0
M  V30 21 C 37.525358 33.932971 59.001869 0
M  V30 22 C 37.825653 31.123999 56.398963 0
M  V30 23 O 39.245454 33.986596 62.322295 0
M  V30 24 C 41.052415 30.739123 50.461140 0
M  V30 25 O 36.474059 34.981948 61.718972 0
M  V30 26 O 38.770566 28.453770 55.642677 0
M  V30 27 C 38.674834 28.026802 51.888511 0
M  V30 28 N 37.645269 31.826611 57.691660 0 CHG=1
M  V30 29 C 38.802937 29.826853 53.646892 0 CFG=2
M  V30 30 C 39.856680 30.529041 52.743638 0
M  V30 31 C 38.737926 26.602393 57.119362 0
M  V30 32 C 39.932163 30.134080 51.274442 0
M  V30 33 C 38.334057 32.382243 60.910835 0
M  V30 34 H 39.245181 30.890280 49.242976 0
M  V30 35 H 39.299346 32.137875 50.564995 0
M  V30 36 H 38.223778 37.440703 60.807972 0
M  V30 37 H 36.762292 37.510557 61.806581 0
M  V30 38 H 38.342275 37.256249 62.566307 0
M  V30 39 H 40.690113 28.137964 51.193576 0
M  V30 40 H 40.178186 25.030183 57.646531 0
M  V30 41 H 40.238700 26.449140 58.690494 0
M  V30 42 H 38.902973 25.337892 58.842809 0
M  V30 43 H 37.172320 28.142048 57.367876 0
M  V30 44 H 36.857337 26.626430 58.167617 0
M  V30 45 H 38.045418 27.769312 58.828286 0
M  V30 46 H 38.832394 25.132143 55.490956 0
M  V30 47 H 37.477249 24.891367 56.584732 0
M  V30 48 H 37.433219 26.196031 55.408816 0
M  V30 49 H 39.602866 35.399915 60.859441 0
M  V30 50 H 40.353769 27.126184 55.755646 0
M  V30 51 H 40.196226 28.209619 57.127518 0
M  V30 52 H 38.968798 32.028913 62.968147 0
M  V30 53 H 40.445542 29.335147 54.967682 0
M  V30 54 H 37.475308 28.039009 53.598672 0
M  V30 55 H 39.551269 33.524607 59.586623 0
M  V30 56 H 39.415533 32.538653 54.811891 0
M  V30 57 H 40.368422 32.676304 56.277755 0
M  V30 58 H 40.951458 31.689342 54.978760 0
M  V30 59 H 39.786063 30.467656 56.973241 0
M  V30 60 H 38.882159 33.533818 57.408026 0
M  V30 61 H 37.245184 33.715861 56.874082 0
M  V30 62 H 37.472496 35.007729 58.827538 0
M  V30 63 H 36.528860 33.639727 59.333178 0
M  V30 64 H 37.351190 31.691676 55.595697 0
M  V30 65 H 37.245565 30.206486 56.483649 0
M  V30 66 H 41.731226 31.337724 51.039422 0
M  V30 67 H 41.521339 30.137731 49.685328 0
M  V30 68 H 38.240258 27.108862 51.520438 0
M  V30 69 H 36.632527 31.737664 57.817889 0
M  V30 70 H 37.930714 30.471993 53.729849 0
M  V30 71 H 39.709936 31.606905 52.794839 0
M  V30 72 H 40.845030 30.361279 53.151151 0
M  V30 73 H 37.306644 32.359894 61.274385 0
M  V30 74 H 38.510453 31.459152 60.358893 0
M  V30 75 H 38.138871 31.375109 58.446091 0
M  V30 END ATOM
M  V30 BEGIN BOND
M  V30 1 2 6 1
M  V30 2 1 11 1
M  V30 3 1 14 9
M  V30 4 1 16 3
M  V30 5 1 16 9
M  V30 6 1 17 4
M  V30 7 1 18 1
M  V30 8 1 19 12
M  V30 9 1 19 15
M  V30 10 1 21 14
M  V30 11 1 21 20
M  V30 12 1 22 19
M  V30 13 1 23 9
M  V30 14 1 23 11
M  V30 15 1 24 2
M  V30 16 2 25 16
M  V30 17 1 26 10
M  V30 18 1 26 12
M  V30 19 1 27 4
M  V30 20 2 27 13
M  V30 21 1 28 20
M  V30 22 1 28 22
M  V30 23 1 29 12
M  V30 24 1 29 13
M  V30 25 1 30 29
M  V30 26 1 31 5
M  V30 27 1 31 7
M  V30 28 1 31 8
M  V30 29 1 31 10
M  V30 30 1 32 2
M  V30 31 1 32 4
M  V30 32 1 32 24
M  V30 33 1 32 30
M  V30 34 1 33 11
M  V30 35 1 33 14
M  V30 36 1 34 2
M  V30 37 1 35 2
M  V30 38 1 36 3
M  V30 39 1 37 3
M  V30 40 1 38 3
M  V30 41 1 4 39 CFG=3
M  V30 42 1 40 5
M  V30 43 1 41 5
M  V30 44 1 42 5
M  V30 45 1 43 7
M  V30 46 1 44 7
M  V30 47 1 45 7
M  V30 48 1 46 8
M  V30 49 1 47 8
M  V30 50 1 48 8
M  V30 51 1 9 49 CFG=3
M  V30 52 1 50 10
M  V30 53 1 51 10
M  V30 54 1 11 52 CFG=1
M  V30 55 1 12 53 CFG=3
M  V30 56 1 54 13
M  V30 57 1 14 55 CFG=3
M  V30 58 1 56 15
M  V30 59 1 57 15
M  V30 60 1 58 15
M  V30 61 1 19 59 CFG=1
M  V30 62 1 60 20
M  V30 63 1 61 20
M  V30 64 1 62 21
M  V30 65 1 63 21
M  V30 66 1 64 22
M  V30 67 1 65 22
M  V30 68 1 66 24
M  V30 69 1 67 24
M  V30 70 1 68 27
M  V30 71 1 69 28
M  V30 72 1 29 70 CFG=1
M  V30 73 1 71 30
M  V30 74 1 72 30
M  V30 75 1 73 33
M  V30 76 1 74 33
M  V30 77 1 75 28
M  V30 END BOND
M  V30 END CTAB
M  END
>  <i_epik_Tot_Q>  (1) 
0

>  <i_epik_Tot_abs_Q>  (1) 
2

>  <i_i_glide_confnum>  (1) 
3438

>  <i_i_glide_lignum>  (1) 
101

>  <i_i_glide_posenum>  (1) 
304

>  <i_i_glide_rotatable_bonds>  (1) 
12

>  <i_lp_mmshare_version>  (1) 
72125

>  <i_m_source_file_index>  (1) 
49

>  <i_f3d_flags>  (1) 
0

>  <num_sample>  (1) 
100

>  <b_lp_Chiralities_Consistent>  (1) 
1

>  <r_epik_Charging_Adjusted_Penalty>  (1) 
0.0012752337282245032

>  <r_epik_Ionization_Penalty>  (1) 
0.0012752337438600718

>  <r_epik_Ionization_Penalty_Charging>  (1) 
0.0012752337282245032

>  <r_epik_Ionization_Penalty_Neutral>  (1) 
1.5635568601569758e-11

>  <r_epik_State_Penalty>  (1) 
-0

>  <r_glide_ring_energy>  (1) 
0

>  <r_i_docking_score>  (1) 
-8.7565046475515782

>  <r_i_glide_ecoul>  (1) 
-7.8220219473735986

>  <r_i_glide_eff_state_penalty>  (1) 
-0

>  <r_i_glide_einternal>  (1) 
8.9870955634284435

>  <r_i_glide_emodel>  (1) 
-49.835355035420839

>  <r_i_glide_emodel_strain>  (1) 
4.3653994605985389

>  <r_i_glide_energy>  (1) 
-40.683821601556218

>  <r_i_glide_erotb>  (1) 
0.73840374044631085

>  <r_i_glide_esite>  (1) 
-0.10000000000000001

>  <r_i_glide_evdw>  (1) 
-32.861799654182619

>  <r_i_glide_gscore>  (1) 
-8.7565046475515782

>  <r_i_glide_gscore_strain>  (1) 
0.091349865149634724

>  <r_i_glide_hbond>  (1) 
-0.28757635332617881

>  <r_i_glide_ligand_efficiency>  (1) 
-0.26534862568338113

>  <r_i_glide_ligand_efficiency_ln>  (1) 
-1.9474012948608839

>  <r_i_glide_ligand_efficiency_sa>  (1) 
-0.85111482629665736

>  <r_i_glide_lipo>  (1) 
-4.7349789498216701

>  <r_i_glide_metal>  (1) 
-0

>  <r_i_glide_rewards>  (1) 
-1.6473096751845049

>  <r_lp_Energy>  (1) 
20.638030999999998

>  <r_lp_tautomer_probability>  (1) 
1

>  <s_epik_cmdline>  (1) 
J2VwaWtfcHl0aG9uJywgJy1waHQnLCAnMS4wJywgJy1waCcsICc3LjQnLCAnLXRuJywgJzgnLCAnLW1hJywgJzUwMCcsICctaW1hZScsICc8aW5maWxlLm1hZT4nLCAnLW9tYWUnLCAnPG91dGZpbGUubWFlPic=

>  <s_epik_input>  (1) 
Tz1DKFtPSF0pW0NAQEhdKE8xKVtDSDJdW0NASF0oW0NASF0xQyg9TylbQ0gzXSlbQ0gyXVtDSDJdW05IXVtDSDJdW0NASF0oW0NIM10pW0NAQEhdKE9bQ0gyXUMoW0NIM10pKFtDSDNdKVtDSDNdKVtDQEBIXShbQ0gyXTIpW0NIXT1bQ0hdW0NAQEhdKEYpQzIzW0NIMl1bQ0gyXTM=

>  <s_glide_docking_method>  (1) 
confgen

>  <s_i_glide_gridfile>  (1) 
gpcr_5ht2c_6bqh_protein_autoprepared_prepared

>  <s_lp_Force_Field>  (1) 
S-OPLS

>  <s_lp_Variant>  (1) 
DiffSBDD_48-1

>  <s_m_source_file>  (1) 
generated_GPCR_5HT2C_ligand_DiffSBDD_2026-06-23_prepared.sdf

>  <GenAI_Model>  (1) 
DiffSBDD

>  <Protein>  (1) 
GPCR_5HT2C

$$$$
DiffSBDD_47
     RDKit          3D

  0  0  0  0  0  0  0  0  0  0999 V3000
M  V30 BEGIN CTAB
M  V30 COUNTS 51 52 0 0 1
M  V30 BEGIN ATOM
M  V30 1 O 41.618148 30.062232 63.000687 0
M  V30 2 C 40.271555 29.229850 61.174670 0
M  V30 3 C 40.134505 27.599353 57.753832 0
M  V30 4 C 40.045132 30.427003 52.171791 0
M  V30 5 C 38.851111 27.904415 51.787808 0
M  V30 6 C 39.217110 30.281793 61.105963 0
M  V30 7 C 39.382765 29.794476 53.239852 0
M  V30 8 C 38.674016 29.476310 58.753708 0
M  V30 9 C 39.252318 26.411752 58.181889 0
M  V30 10 O 38.791597 30.865327 62.103699 0
M  V30 11 C 38.069840 27.828016 54.203369 0 CFG=2
M  V30 12 C 38.782072 26.537842 54.664413 0
M  V30 13 O 39.875283 26.203149 54.202173 0
M  V30 14 C 38.070446 25.683927 55.722243 0 CFG=2
M  V30 15 C 40.071899 28.839771 58.669508 0 CFG=1
M  V30 16 C 38.655897 30.652946 59.729792 0
M  V30 17 C 40.113835 29.799356 50.915192 0
M  V30 18 C 40.651262 28.581316 60.050906 0
M  V30 19 S 39.245134 25.061486 56.967764 0
M  V30 20 C 38.784914 28.525989 53.050228 0
M  V30 21 C 39.516258 28.538391 50.725843 0
M  V30 22 C 40.827712 30.480421 49.768147 0
M  V30 23 C 37.331236 24.512820 55.059271 0
M  V30 24 O 37.856983 28.685148 55.310035 0
M  V30 25 C 40.866309 28.953774 62.546625 0
M  V30 26 H 41.010043 30.715253 63.318839 0
M  V30 27 H 39.872320 27.919554 56.750208 0
M  V30 28 H 41.168149 27.257780 57.679141 0
M  V30 29 H 40.500942 31.393590 52.317768 0
M  V30 30 H 38.393556 26.937777 51.635891 0
M  V30 31 H 39.336487 30.280505 54.203099 0
M  V30 32 H 38.355177 29.815904 57.768050 0
M  V30 33 H 37.932777 28.750933 59.085449 0
M  V30 34 H 39.630193 26.009376 59.119210 0
M  V30 35 H 38.219893 26.707103 58.357942 0
M  V30 36 H 37.086533 27.536538 53.832266 0
M  V30 37 H 37.331912 26.298889 56.235000 0
M  V30 38 H 40.737363 29.575844 58.219062 0
M  V30 39 H 39.245136 31.478663 59.332730 0
M  V30 40 H 37.636878 31.023338 59.845113 0
M  V30 41 H 41.421036 27.824807 60.112643 0
M  V30 42 H 39.565216 28.059629 49.767759 0
M  V30 43 H 41.045085 29.771984 48.967771 0
M  V30 44 H 40.206903 31.282293 49.367771 0
M  V30 45 H 41.769903 30.913238 50.105359 0
M  V30 46 H 36.657752 24.854943 54.273172 0
M  V30 47 H 38.030554 23.806567 54.610529 0
M  V30 48 H 36.733555 23.967402 55.790035 0
M  V30 49 H 37.245138 28.286979 55.908220 0
M  V30 50 H 41.527057 28.088507 62.497102 0
M  V30 51 H 40.080251 28.718095 63.263921 0
M  V30 END ATOM
M  V30 BEGIN BOND
M  V30 1 1 6 2
M  V30 2 2 7 4
M  V30 3 1 9 3
M  V30 4 2 10 6
M  V30 5 1 12 11
M  V30 6 2 13 12
M  V30 7 1 14 12
M  V30 8 1 15 3
M  V30 9 1 15 8
M  V30 10 1 16 6
M  V30 11 1 16 8
M  V30 12 1 17 4
M  V30 13 2 18 2
M  V30 14 1 18 15
M  V30 15 1 19 9
M  V30 16 1 19 14
M  V30 17 2 20 5
M  V30 18 1 20 7
M  V30 19 1 20 11
M  V30 20 1 21 5
M  V30 21 2 21 17
M  V30 22 1 22 17
M  V30 23 1 23 14
M  V30 24 1 24 11
M  V30 25 1 25 1
M  V30 26 1 25 2
M  V30 27 1 26 1
M  V30 28 1 27 3
M  V30 29 1 28 3
M  V30 30 1 29 4
M  V30 31 1 30 5
M  V30 32 1 31 7
M  V30 33 1 32 8
M  V30 34 1 33 8
M  V30 35 1 34 9
M  V30 36 1 35 9
M  V30 37 1 11 36 CFG=3
M  V30 38 1 14 37 CFG=1
M  V30 39 1 15 38 CFG=3
M  V30 40 1 39 16
M  V30 41 1 40 16
M  V30 42 1 41 18
M  V30 43 1 42 21
M  V30 44 1 43 22
M  V30 45 1 44 22
M  V30 46 1 45 22
M  V30 47 1 46 23
M  V30 48 1 47 23
M  V30 49 1 48 23
M  V30 50 1 49 24
M  V30 51 1 50 25
M  V30 52 1 51 25
M  V30 END BOND
M  V30 END CTAB
M  END
>  <i_epik_Tot_Q>  (1) 
0

>  <i_epik_Tot_abs_Q>  (1) 
0

>  <i_i_glide_confnum>  (1) 
181

>  <i_i_glide_lignum>  (1) 
100

>  <i_i_glide_posenum>  (1) 
117

>  <i_i_glide_rotatable_bonds>  (1) 
10

>  <i_lp_mmshare_version>  (1) 
72125

>  <i_m_source_file_index>  (1) 
48

>  <i_f3d_flags>  (1) 
0

>  <num_sample>  (1) 
100

>  <b_lp_Chiralities_Consistent>  (1) 
1

>  <r_epik_Charging_Adjusted_Penalty>  (1) 
0

>  <r_epik_Ionization_Penalty>  (1) 
1.6598549338111207e-05

>  <r_epik_Ionization_Penalty_Charging>  (1) 
0

>  <r_epik_Ionization_Penalty_Neutral>  (1) 
1.6598549338111207e-05

>  <r_epik_State_Penalty>  (1) 
-0

>  <r_glide_ring_energy>  (1) 
0

>  <r_i_docking_score>  (1) 
-8.7415640233787624

>  <r_i_glide_ecoul>  (1) 
-3.5687153877592235

>  <r_i_glide_eff_state_penalty>  (1) 
-0

>  <r_i_glide_einternal>  (1) 
4.8306785552476157

>  <r_i_glide_emodel>  (1) 
-73.924135425967634

>  <r_i_glide_emodel_strain>  (1) 
0.56715527919287823

>  <r_i_glide_energy>  (1) 
-49.850491285519112

>  <r_i_glide_erotb>  (1) 
1.1691057722696085

>  <r_i_glide_esite>  (1) 
0

>  <r_i_glide_evdw>  (1) 
-46.281775897759886

>  <r_i_glide_gscore>  (1) 
-8.7415640233787624

>  <r_i_glide_gscore_strain>  (1) 
0

>  <r_i_glide_hbond>  (1) 
-0.21787691944672477

>  <r_i_glide_ligand_efficiency>  (1) 
-0.34966256093515047

>  <r_i_glide_ligand_efficiency_ln>  (1) 
-2.0720126370753875

>  <r_i_glide_ligand_efficiency_sa>  (1) 
-1.0224195305633172

>  <r_i_glide_lipo>  (1) 
-4.4790617233973862

>  <r_i_glide_metal>  (1) 
-0

>  <r_i_glide_rewards>  (1) 
-2.3643350497523823

>  <r_lp_Energy>  (1) 
25.714537

>  <r_lp_tautomer_probability>  (1) 
1

>  <s_epik_cmdline>  (1) 
J2VwaWtfcHl0aG9uJywgJy1waHQnLCAnMS4wJywgJy1waCcsICc3LjQnLCAnLXRuJywgJzgnLCAnLW1hJywgJzUwMCcsICctaW1hZScsICc8aW5maWxlLm1hZT4nLCAnLW9tYWUnLCAnPG91dGZpbGUubWFlPic=

>  <s_epik_input>  (1) 
W09IXVtDSDJdQzE9W0NIXVtDQEhdKFtDSDJdW0NIMl1DMT1PKVtDSDJdW0NIMl1TXEMoW0NIM10pPUMoW09IXSlcW0NAQEhdKFtPSF0pYyhbY0hdW2NIXTIpW2NIXVtjSF1jMltDSDNd

>  <s_glide_docking_method>  (1) 
confgen

>  <s_i_glide_gridfile>  (1) 
gpcr_5ht2c_6bqh_protein_autoprepared_prepared

>  <s_lp_Force_Field>  (1) 
S-OPLS

>  <s_lp_Variant>  (1) 
DiffSBDD_47-2

>  <s_m_source_file>  (1) 
generated_GPCR_5HT2C_ligand_DiffSBDD_2026-06-23_prepared.sdf

>  <GenAI_Model>  (1) 
DiffSBDD

>  <Protein>  (1) 
GPCR_5HT2C

$$$$
DiffSBDD_41
     RDKit          3D

  0  0  0  0  0  0  0  0  0  0999 V3000
M  V30 BEGIN CTAB
M  V30 COUNTS 52 53 0 0 1
M  V30 BEGIN ATOM
M  V30 1 C 38.612475 28.350898 52.969447 0
M  V30 2 C 38.205917 26.781341 56.778857 0 CFG=1
M  V30 3 C 38.488016 31.786954 57.312001 0
M  V30 4 C 39.244497 28.531023 59.236536 0
M  V30 5 C 39.148679 30.386886 60.833140 0
M  V30 6 C 38.845054 31.284236 59.795005 0
M  V30 7 C 39.358859 29.024904 60.555092 0
M  V30 8 O 40.445162 31.170691 51.546794 0
M  V30 9 C 39.059448 26.317323 57.945478 0
M  V30 10 S 39.219867 27.242527 55.343320 0
M  V30 11 N 37.645142 31.227063 56.251254 0 CHG=1
M  V30 12 C 39.854032 29.092841 50.560668 0
M  V30 13 C 39.230270 27.843945 50.668051 0
M  V30 14 C 38.641212 32.757431 60.110685 0
M  V30 15 C 37.172197 25.683018 56.432630 0
M  V30 16 C 39.858485 29.966803 51.656584 0
M  V30 17 C 39.471605 27.068818 59.001114 0
M  V30 18 C 38.602620 27.478662 51.871252 0
M  V30 19 C 36.642045 23.368511 55.491078 0
M  V30 20 C 38.943081 29.437854 58.187792 0
M  V30 21 C 37.701615 24.466515 55.650067 0
M  V30 22 F 40.445192 29.461338 49.398312 0
M  V30 23 C 39.245000 29.596824 52.864166 0
M  V30 24 C 38.752239 30.812259 58.461191 0
M  V30 25 C 37.949655 27.942823 54.259937 0
M  V30 26 H 37.577617 27.608864 57.093193 0
M  V30 27 H 38.005560 32.708423 57.635706 0
M  V30 28 H 39.449414 32.062886 56.879062 0
M  V30 29 H 39.229148 30.744745 61.849441 0
M  V30 30 H 39.597262 28.346976 61.362637 0
M  V30 31 H 40.779003 31.334385 50.675425 0
M  V30 32 H 39.338404 25.273734 57.926437 0
M  V30 33 H 37.746673 31.777465 55.411883 0
M  V30 34 H 37.861397 30.260059 56.078231 0
M  V30 35 H 39.218452 27.168948 49.824423 0
M  V30 36 H 39.339295 33.375735 59.546082 0
M  V30 37 H 37.621529 33.065563 59.877314 0
M  V30 38 H 38.809204 32.960431 61.168729 0
M  V30 39 H 36.700905 25.337680 57.354692 0
M  V30 40 H 36.367340 26.129186 55.855686 0
M  V30 41 H 40.029996 26.570667 59.767574 0
M  V30 42 H 38.112377 26.537780 51.952609 0
M  V30 43 H 36.970487 22.613048 54.777822 0
M  V30 44 H 36.445225 22.869825 56.439992 0
M  V30 45 H 35.697156 23.771228 55.128631 0
M  V30 46 H 38.897343 29.099771 57.177917 0
M  V30 47 H 38.022732 24.775009 54.655292 0
M  V30 48 H 38.583759 24.057681 56.140328 0
M  V30 49 H 39.255947 30.272808 53.705146 0
M  V30 50 H 37.464581 28.793828 54.736188 0
M  V30 51 H 37.178102 27.203392 54.048461 0
M  V30 52 H 36.662851 31.337409 56.566735 0
M  V30 END ATOM
M  V30 BEGIN BOND
M  V30 1 1 6 5
M  V30 2 1 7 4
M  V30 3 2 7 5
M  V30 4 1 9 2
M  V30 5 1 10 2
M  V30 6 1 11 3
M  V30 7 1 13 12
M  V30 8 1 14 6
M  V30 9 1 15 2
M  V30 10 1 16 8
M  V30 11 2 16 12
M  V30 12 1 17 4
M  V30 13 2 17 9
M  V30 14 1 18 1
M  V30 15 2 18 13
M  V30 16 2 20 4
M  V30 17 1 21 15
M  V30 18 1 21 19
M  V30 19 1 22 12
M  V30 20 2 23 1
M  V30 21 1 23 16
M  V30 22 1 24 3
M  V30 23 2 24 6
M  V30 24 1 24 20
M  V30 25 1 25 1
M  V30 26 1 25 10
M  V30 27 1 2 26 CFG=1
M  V30 28 1 27 3
M  V30 29 1 28 3
M  V30 30 1 29 5
M  V30 31 1 30 7
M  V30 32 1 31 8
M  V30 33 1 32 9
M  V30 34 1 33 11
M  V30 35 1 34 11
M  V30 36 1 35 13
M  V30 37 1 36 14
M  V30 38 1 37 14
M  V30 39 1 38 14
M  V30 40 1 39 15
M  V30 41 1 40 15
M  V30 42 1 41 17
M  V30 43 1 42 18
M  V30 44 1 43 19
M  V30 45 1 44 19
M  V30 46 1 45 19
M  V30 47 1 46 20
M  V30 48 1 47 21
M  V30 49 1 48 21
M  V30 50 1 49 23
M  V30 51 1 50 25
M  V30 52 1 51 25
M  V30 53 1 52 11
M  V30 END BOND
M  V30 END CTAB
M  END
>  <i_epik_Tot_Q>  (1) 
1

>  <i_epik_Tot_abs_Q>  (1) 
1

>  <i_i_glide_confnum>  (1) 
175

>  <i_i_glide_lignum>  (1) 
89

>  <i_i_glide_posenum>  (1) 
41

>  <i_i_glide_rotatable_bonds>  (1) 
9

>  <i_lp_mmshare_version>  (1) 
72125

>  <i_m_source_file_index>  (1) 
42

>  <i_f3d_flags>  (1) 
0

>  <num_sample>  (1) 
100

>  <b_lp_Chiralities_Consistent>  (1) 
1

>  <r_epik_Charging_Adjusted_Penalty>  (1) 
0.19353898929150365

>  <r_epik_Ionization_Penalty>  (1) 
0.13216089294123454

>  <r_epik_Ionization_Penalty_Charging>  (1) 
0.06151586109146627

>  <r_epik_Ionization_Penalty_Neutral>  (1) 
0.070645031849768267

>  <r_epik_State_Penalty>  (1) 
0.13202312820003739

>  <r_glide_ring_energy>  (1) 
0

>  <r_i_docking_score>  (1) 
-8.7054806325550871

>  <r_i_glide_ecoul>  (1) 
-8.8808893895632348

>  <r_i_glide_eff_state_penalty>  (1) 
0.13202312820003739

>  <r_i_glide_einternal>  (1) 
6.9337842077760019

>  <r_i_glide_emodel>  (1) 
-62.746718379113886

>  <r_i_glide_emodel_strain>  (1) 
1.0624125198110299

>  <r_i_glide_energy>  (1) 
-40.162307859844866

>  <r_i_glide_erotb>  (1) 
0.88540937349265225

>  <r_i_glide_esite>  (1) 
-0.10000000000000001

>  <r_i_glide_evdw>  (1) 
-31.281418470281629

>  <r_i_glide_gscore>  (1) 
-8.8375037607551246

>  <r_i_glide_gscore_strain>  (1) 
0

>  <r_i_glide_hbond>  (1) 
-0.15530132011421521

>  <r_i_glide_ligand_efficiency>  (1) 
-0.34821922530220351

>  <r_i_glide_ligand_efficiency_ln>  (1) 
-2.0634597921182118

>  <r_i_glide_ligand_efficiency_sa>  (1) 
-1.0181991915703854

>  <r_i_glide_lipo>  (1) 
-4.7468616102144523

>  <r_i_glide_metal>  (1) 
-0

>  <r_i_glide_rewards>  (1) 
-1.8245458719705425

>  <r_lp_Energy>  (1) 
22.904637999999998

>  <r_lp_tautomer_probability>  (1) 
0.99999999999736477

>  <s_epik_cmdline>  (1) 
J2VwaWtfcHl0aG9uJywgJy1waHQnLCAnMS4wJywgJy1waCcsICc3LjQnLCAnLXRuJywgJzgnLCAnLW1hJywgJzUwMCcsICctaW1hZScsICc8aW5maWxlLm1hZT4nLCAnLW9tYWUnLCAnPG91dGZpbGUubWFlPic=

>  <s_epik_input>  (1) 
W09IXWMoW2NIXTEpYyhGKVtjSF1bY0hdYzFbQ0gyXVNbQ0BASF0oW0NIMl1bQ0gyXVtDSDNdKS9bQ0hdPVtDSF1cYzJbY0hdW2NIXWMoW0NIM10pYyhbY0hdMilbQ0gyXVtOSDJd

>  <s_glide_docking_method>  (1) 
confgen

>  <s_i_glide_gridfile>  (1) 
gpcr_5ht2c_6bqh_protein_autoprepared_prepared

>  <s_lp_Force_Field>  (1) 
S-OPLS

>  <s_lp_Variant>  (1) 
DiffSBDD_41-2

>  <s_m_source_file>  (1) 
generated_GPCR_5HT2C_ligand_DiffSBDD_2026-06-23_prepared.sdf

>  <GenAI_Model>  (1) 
DiffSBDD

>  <Protein>  (1) 
GPCR_5HT2C

$$$$
DiffSBDD_84
     RDKit          3D

  0  0  0  0  0  0  0  0  0  0999 V3000
M  V30 BEGIN CTAB
M  V30 COUNTS 77 81 0 0 1
M  V30 BEGIN ATOM
M  V30 1 C 41.211189 35.363876 64.242125 0
M  V30 2 C 38.370358 27.430649 58.640219 0
M  V30 3 C 39.689308 30.240459 60.617832 0
M  V30 4 C 44.769488 32.088715 67.081109 0
M  V30 5 S 40.957409 31.022594 66.174314 0
M  V30 6 C 38.459755 25.046195 55.268359 0
M  V30 7 C 39.614958 26.687515 56.567901 0
M  V30 8 C 36.347584 33.863796 61.166035 0
M  V30 9 O 46.045134 31.737725 66.607654 0
M  V30 10 C 37.500430 30.059953 59.486405 0
M  V30 11 C 40.586010 27.847790 56.740939 0
M  V30 12 C 38.910761 26.237491 57.858403 0 CFG=2
M  V30 13 C 37.964110 32.026480 61.002931 0
M  V30 14 N 40.844996 36.496162 63.367724 0 CHG=1
M  V30 15 C 43.706398 31.175702 66.415131 0
M  V30 16 C 41.319650 34.042684 63.452190 0
M  V30 17 N 39.418817 26.131586 55.436165 0
M  V30 18 C 37.588128 33.293540 61.505169 0
M  V30 19 N 40.266275 30.793481 63.651323 0
M  V30 20 N 38.894321 29.638498 59.706662 0
M  V30 21 C 38.153738 24.268473 56.551797 0
M  V30 22 C 37.095759 31.376217 60.100747 0
M  V30 23 N 42.420702 31.888096 66.385462 0
M  V30 24 C 43.600852 29.817920 67.162217 0
M  V30 25 C 39.404324 28.520598 58.886305 0 CFG=2
M  V30 26 O 40.845131 29.867105 60.795983 0
M  V30 27 C 35.850756 31.947056 59.767762 0
M  V30 28 O 44.845140 29.147490 67.197979 0
M  V30 29 C 37.767058 25.237237 57.641122 0
M  V30 30 C 40.530923 31.853734 64.626799 0 CFG=2
M  V30 31 C 39.986975 29.007229 57.557463 0
M  V30 32 N 39.070578 30.948895 62.894396 0
M  V30 33 N 42.508813 33.018844 65.458740 0 CHG=1
M  V30 34 C 35.475928 33.186202 60.304270 0
M  V30 35 C 39.221552 31.402365 61.508759 0 CFG=1
M  V30 36 C 41.710818 32.762390 64.241161 0 CFG=2
M  V30 37 H 40.476083 35.285227 65.043831 0
M  V30 38 H 42.168711 35.609353 64.704172 0
M  V30 39 H 38.045181 27.068521 59.607860 0
M  V30 40 H 37.502204 27.831781 58.116749 0
M  V30 41 H 44.740500 32.000836 68.168043 0
M  V30 42 H 44.642114 33.146034 66.853774 0
M  V30 43 H 37.540282 25.433194 54.826412 0
M  V30 44 H 38.865604 24.327391 54.567766 0
M  V30 45 H 36.066955 34.825141 61.570431 0
M  V30 46 H 46.219112 30.831435 66.840294 0
M  V30 47 H 37.323081 30.141154 58.413057 0
M  V30 48 H 36.807206 29.314445 59.862666 0
M  V30 49 H 40.892349 28.221621 55.767789 0
M  V30 50 H 41.038342 37.356729 63.881101 0
M  V30 51 H 41.412464 36.495453 62.531665 0
M  V30 52 H 43.992557 30.971894 65.381984 0
M  V30 53 H 42.045138 34.180962 62.652778 0
M  V30 54 H 40.379564 33.865293 62.934030 0
M  V30 55 H 38.250872 33.822579 62.167726 0
M  V30 56 H 40.229527 29.886338 64.117249 0
M  V30 57 H 37.349097 23.552205 56.380779 0
M  V30 58 H 39.045922 23.737706 56.877453 0
M  V30 59 H 43.255664 29.966757 68.185875 0
M  V30 60 H 42.895535 29.141997 66.677187 0
M  V30 61 H 40.209454 28.016202 59.425433 0
M  V30 62 H 35.186868 31.433031 59.086672 0
M  V30 63 H 45.041259 28.797306 66.340623 0
M  V30 64 H 36.847330 25.746963 57.349573 0
M  V30 65 H 37.553369 24.700271 58.565422 0
M  V30 66 H 39.645140 32.452058 64.814724 0
M  V30 67 H 39.222087 29.520761 56.972655 0
M  V30 68 H 40.759880 29.737757 57.772060 0
M  V30 69 H 38.381849 31.502339 63.397912 0
M  V30 70 H 42.143386 33.807123 65.973473 0
M  V30 71 H 34.522885 33.623210 60.042854 0
M  V30 72 H 40.007922 32.155666 61.469490 0
M  V30 73 H 42.365102 32.170073 63.597882 0
M  V30 74 H 43.486602 33.155744 65.241522 0
M  V30 75 H 39.674054 25.744473 58.462096 0
M  V30 76 H 41.486692 27.470816 57.227398 0
M  V30 77 H 39.867180 36.460014 63.116892 0
M  V30 END ATOM
M  V30 BEGIN BOND
M  V30 1 1 9 4
M  V30 2 1 11 7
M  V30 3 1 12 2
M  V30 4 1 12 7
M  V30 5 1 14 1
M  V30 6 1 15 4
M  V30 7 1 16 1
M  V30 8 1 17 6
M  V30 9 2 17 7
M  V30 10 1 18 8
M  V30 11 2 18 13
M  V30 12 1 20 3
M  V30 13 1 20 10
M  V30 14 1 21 6
M  V30 15 1 22 10
M  V30 16 1 22 13
M  V30 17 1 23 5
M  V30 18 1 23 15
M  V30 19 1 24 15
M  V30 20 1 25 2
M  V30 21 1 25 20
M  V30 22 2 26 3
M  V30 23 2 27 22
M  V30 24 1 28 24
M  V30 25 1 29 12
M  V30 26 1 29 21
M  V30 27 1 30 5
M  V30 28 1 30 19
M  V30 29 1 31 11
M  V30 30 1 31 25
M  V30 31 1 32 19
M  V30 32 1 33 23
M  V30 33 2 34 8
M  V30 34 1 34 27
M  V30 35 1 35 3
M  V30 36 1 35 13
M  V30 37 1 35 32
M  V30 38 1 36 16
M  V30 39 1 36 30
M  V30 40 1 36 33
M  V30 41 1 37 1
M  V30 42 1 38 1
M  V30 43 1 39 2
M  V30 44 1 40 2
M  V30 45 1 41 4
M  V30 46 1 42 4
M  V30 47 1 43 6
M  V30 48 1 44 6
M  V30 49 1 45 8
M  V30 50 1 46 9
M  V30 51 1 47 10
M  V30 52 1 48 10
M  V30 53 1 49 11
M  V30 54 1 50 14
M  V30 55 1 51 14
M  V30 56 1 52 15
M  V30 57 1 53 16
M  V30 58 1 54 16
M  V30 59 1 55 18
M  V30 60 1 56 19
M  V30 61 1 57 21
M  V30 62 1 58 21
M  V30 63 1 59 24
M  V30 64 1 60 24
M  V30 65 1 25 61 CFG=1
M  V30 66 1 62 27
M  V30 67 1 63 28
M  V30 68 1 64 29
M  V30 69 1 65 29
M  V30 70 1 30 66 CFG=1
M  V30 71 1 67 31
M  V30 72 1 68 31
M  V30 73 1 69 32
M  V30 74 1 70 33
M  V30 75 1 71 34
M  V30 76 1 35 72 CFG=1
M  V30 77 1 36 73 CFG=3
M  V30 78 1 74 33
M  V30 79 1 12 75 CFG=1
M  V30 80 1 76 11
M  V30 81 1 77 14
M  V30 END BOND
M  V30 END CTAB
M  END
>  <i_epik_Tot_Q>  (1) 
2

>  <i_epik_Tot_abs_Q>  (1) 
2

>  <i_i_glide_confnum>  (1) 
1158

>  <i_i_glide_lignum>  (1) 
200

>  <i_i_glide_posenum>  (1) 
356

>  <i_i_glide_rotatable_bonds>  (1) 
11

>  <i_lp_mmshare_version>  (1) 
72125

>  <i_m_source_file_index>  (1) 
85

>  <i_f3d_flags>  (1) 
0

>  <num_sample>  (1) 
100

>  <b_lp_Chiralities_Consistent>  (1) 
1

>  <r_epik_Charging_Adjusted_Penalty>  (1) 
0.034284474231679775

>  <r_epik_Ionization_Penalty>  (1) 
0.42650113434003467

>  <r_epik_Ionization_Penalty_Charging>  (1) 
0.012847136256187231

>  <r_epik_Ionization_Penalty_Neutral>  (1) 
0.41365399808384745

>  <r_epik_State_Penalty>  (1) 
0.021437337975492542

>  <r_glide_ring_energy>  (1) 
0.11944417741279

>  <r_i_docking_score>  (1) 
-8.6731341108301123

>  <r_i_glide_ecoul>  (1) 
-9.2099825157427944

>  <r_i_glide_eff_state_penalty>  (1) 
0.021437337975492542

>  <r_i_glide_einternal>  (1) 
8.1546214255417198

>  <r_i_glide_emodel>  (1) 
-77.225934093095063

>  <r_i_glide_emodel_strain>  (1) 
1.9936949435683147

>  <r_i_glide_energy>  (1) 
-52.295553186429764

>  <r_i_glide_erotb>  (1) 
0.60855438394346106

>  <r_i_glide_esite>  (1) 
-0.012641338347717208

>  <r_i_glide_evdw>  (1) 
-43.08557067068697

>  <r_i_glide_gscore>  (1) 
-8.6945714488056041

>  <r_i_glide_gscore_strain>  (1) 
0

>  <r_i_glide_hbond>  (1) 
-0.32609801992335224

>  <r_i_glide_ligand_efficiency>  (1) 
-0.24092039196750312

>  <r_i_glide_ligand_efficiency_ln>  (1) 
-1.8922435419785848

>  <r_i_glide_ligand_efficiency_sa>  (1) 
-0.79550160705187289

>  <r_i_glide_lipo>  (1) 
-3.854697638770241

>  <r_i_glide_metal>  (1) 
-0

>  <r_i_glide_rewards>  (1) 
-1.5739129248119885

>  <r_lp_Energy>  (1) 
50.953711999999996

>  <r_lp_tautomer_probability>  (1) 
0.99998399999999998

>  <s_epik_Chemistry_Notes>  (1) 
This compound has an imine and may undergo hydrolysis. This compound contains an acetal/aminal-like group ( X-CH(R)-Y where X, Y are N, S, or O) that may be acid/base labile, releasing an aldehyde. This compound has a N-S or N-O group and may undergo hydrolysis at high or low pH.

>  <s_epik_cmdline>  (1) 
J2VwaWtfcHl0aG9uJywgJy1waHQnLCAnMS4wJywgJy1waCcsICc3LjQnLCAnLXRuJywgJzgnLCAnLW1hJywgJzUwMCcsICctaW1hZScsICc8aW5maWxlLm1hZT4nLCAnLW9tYWUnLCAnPG91dGZpbGUubWFlPic=

>  <s_epik_input>  (1) 
W09IXVtDSDJdW0NIXShbQ0gyXVtPSF0pTjFTW0NASF0oW0NASF0oW05IXTEpW0NIMl1bQ0gyXVtOSDJdKVtOSF1bTkhdW0NASF0yQyg9TylOKFtDSDJdYyhjMjMpW2NIXVtjSF1bY0hdW2NIXTMpW0NASF0oW0NIMl1bQ0gyXTQpW0NIMl1DKD1DNDUpW0NIMl1bQ0gyXVtDSDJdW05IXTU=

>  <s_glide_docking_method>  (1) 
confgen

>  <s_i_glide_gridfile>  (1) 
gpcr_5ht2c_6bqh_protein_autoprepared_prepared

>  <s_lp_Force_Field>  (1) 
S-OPLS

>  <s_lp_Variant>  (1) 
DiffSBDD_84-3

>  <s_m_source_file>  (1) 
generated_GPCR_5HT2C_ligand_DiffSBDD_2026-06-23_prepared.sdf

>  <GenAI_Model>  (1) 
DiffSBDD

>  <Protein>  (1) 
GPCR_5HT2C

$$$$
DiffSBDD_77
     RDKit          3D

  0  0  0  0  0  0  0  0  0  0999 V3000
M  V30 BEGIN CTAB
M  V30 COUNTS 71 74 0 0 1
M  V30 BEGIN ATOM
M  V30 1 C 38.075584 29.715420 59.779270 0 CFG=1
M  V30 2 S 38.045126 31.637435 55.476537 0
M  V30 3 C 38.341880 39.337382 60.710272 0
M  V30 4 C 38.519532 30.455718 58.467338 0 CFG=2
M  V30 5 C 41.222574 28.085266 59.019829 0
M  V30 6 C 38.791572 30.047874 55.913531 0 CFG=2
M  V30 7 C 38.936537 29.648784 53.357700 0 CFG=2
M  V30 8 C 38.215711 32.900051 59.386584 0
M  V30 9 C 38.493816 32.549967 56.955980 0
M  V30 10 C 39.383340 27.701147 54.963917 0
M  V30 11 C 38.796415 35.735333 61.998473 0
M  V30 12 C 37.033446 37.187047 60.338802 0
M  V30 13 C 39.138453 26.693087 53.822281 0
M  V30 14 F 40.063210 25.737903 53.916515 0
M  V30 15 C 39.169557 27.330995 52.444547 0
M  V30 16 C 37.133454 32.901390 60.483714 0 CFG=1
M  V30 17 C 38.102297 37.847493 60.968975 0
M  V30 18 C 39.759630 34.953839 62.880408 0
M  V30 19 O 40.045136 30.528715 53.334950 0
M  V30 20 C 36.885462 31.538018 61.128711 0
M  V30 21 C 38.623388 29.030834 54.751548 0 CFG=1
M  V30 22 C 39.086742 28.646847 52.246395 0
M  V30 23 F 39.302529 26.538039 51.374270 0
M  V30 24 O 40.845275 29.024792 61.202363 0
M  V30 25 C 37.949792 31.900221 58.249268 0 CFG=1
M  V30 26 C 38.843295 28.384412 60.033574 0
M  V30 27 C 38.171411 29.570973 57.240299 0
M  V30 28 O 37.245139 40.176547 60.967780 0
M  V30 29 C 37.729820 35.075854 61.359865 0
M  V30 30 O 40.027796 37.738649 62.424063 0
M  V30 31 C 36.845133 35.806509 60.531130 0
M  V30 32 F 37.946316 26.130713 54.016006 0
M  V30 33 O 37.560883 33.725981 61.554183 0
M  V30 34 C 38.088484 30.585003 61.064039 0
M  V30 35 C 40.353023 28.543150 60.185468 0
M  V30 36 C 38.984336 37.114943 61.808864 0
M  V30 37 H 37.040128 29.409216 59.625123 0
M  V30 38 H 39.197335 39.716816 61.265907 0
M  V30 39 H 38.590994 39.456272 59.657417 0
M  V30 40 H 39.602118 30.537738 58.493792 0
M  V30 41 H 40.757666 27.248708 58.498489 0
M  V30 42 H 38.476645 27.909282 60.942766 0
M  V30 43 H 41.360341 28.899849 58.310092 0
M  V30 44 H 39.857206 30.224762 56.066079 0
M  V30 45 H 38.054512 30.210550 53.086720 0
M  V30 46 H 38.235804 33.911325 58.980220 0
M  V30 47 H 39.216615 32.756523 59.792065 0
M  V30 48 H 39.579603 32.645895 56.995797 0
M  V30 49 H 38.089699 33.555059 56.823396 0
M  V30 50 H 40.445058 27.898474 55.086619 0
M  V30 51 H 39.085962 27.216057 55.891232 0
M  V30 52 H 36.362551 37.736774 59.699451 0
M  V30 53 H 36.176820 33.237717 60.085366 0
M  V30 54 H 39.455456 33.918539 63.029234 0
M  V30 55 H 40.748100 34.938348 62.420285 0
M  V30 56 H 39.845094 35.423074 63.859792 0
M  V30 57 H 40.766546 30.139000 53.803270 0
M  V30 58 H 36.605227 31.710917 62.167062 0
M  V30 59 H 36.011594 31.069969 60.673238 0
M  V30 60 H 37.565749 28.761322 54.727155 0
M  V30 61 H 39.123712 29.039813 51.240327 0
M  V30 62 H 42.201933 27.761718 59.368888 0
M  V30 63 H 36.869525 31.818822 58.167772 0
M  V30 64 H 38.643714 27.656403 59.249526 0
M  V30 65 H 38.511860 28.560386 57.421540 0
M  V30 66 H 37.087396 29.503201 57.130707 0
M  V30 67 H 36.551979 39.979830 60.339430 0
M  V30 68 H 40.495584 37.199485 63.045419 0
M  V30 69 H 36.022580 35.310900 60.041345 0
M  V30 70 H 39.035810 31.108240 61.188721 0
M  V30 71 H 38.045328 29.959345 61.951337 0
M  V30 END ATOM
M  V30 BEGIN BOND
M  V30 1 1 4 1
M  V30 2 1 6 2
M  V30 3 1 9 2
M  V30 4 1 13 10
M  V30 5 1 14 13
M  V30 6 1 15 13
M  V30 7 1 16 8
M  V30 8 1 17 3
M  V30 9 1 17 12
M  V30 10 1 18 11
M  V30 11 1 19 7
M  V30 12 1 20 16
M  V30 13 1 21 6
M  V30 14 1 21 7
M  V30 15 1 21 10
M  V30 16 1 22 7
M  V30 17 2 22 15
M  V30 18 1 23 15
M  V30 19 1 25 4
M  V30 20 1 25 8
M  V30 21 1 25 9
M  V30 22 1 26 1
M  V30 23 1 27 4
M  V30 24 1 27 6
M  V30 25 1 28 3
M  V30 26 2 29 11
M  V30 27 2 31 12
M  V30 28 1 31 29
M  V30 29 1 32 13
M  V30 30 1 33 16
M  V30 31 1 33 29
M  V30 32 1 34 1
M  V30 33 1 34 20
M  V30 34 1 35 5
M  V30 35 2 35 24
M  V30 36 1 35 26
M  V30 37 1 36 11
M  V30 38 2 36 17
M  V30 39 1 36 30
M  V30 40 1 1 37 CFG=3
M  V30 41 1 38 3
M  V30 42 1 39 3
M  V30 43 1 4 40 CFG=1
M  V30 44 1 41 5
M  V30 45 1 42 26
M  V30 46 1 43 5
M  V30 47 1 6 44 CFG=1
M  V30 48 1 7 45 CFG=3
M  V30 49 1 46 8
M  V30 50 1 47 8
M  V30 51 1 48 9
M  V30 52 1 49 9
M  V30 53 1 50 10
M  V30 54 1 51 10
M  V30 55 1 52 12
M  V30 56 1 16 53 CFG=3
M  V30 57 1 54 18
M  V30 58 1 55 18
M  V30 59 1 56 18
M  V30 60 1 57 19
M  V30 61 1 58 20
M  V30 62 1 59 20
M  V30 63 1 21 60 CFG=3
M  V30 64 1 61 22
M  V30 65 1 62 5
M  V30 66 1 25 63 CFG=3
M  V30 67 1 64 26
M  V30 68 1 65 27
M  V30 69 1 66 27
M  V30 70 1 67 28
M  V30 71 1 68 30
M  V30 72 1 69 31
M  V30 73 1 70 34
M  V30 74 1 71 34
M  V30 END BOND
M  V30 END CTAB
M  END
>  <i_epik_Tot_Q>  (1) 
0

>  <i_epik_Tot_abs_Q>  (1) 
0

>  <i_i_glide_confnum>  (1) 
36

>  <i_i_glide_lignum>  (1) 
178

>  <i_i_glide_posenum>  (1) 
256

>  <i_i_glide_rotatable_bonds>  (1) 
9

>  <i_lp_mmshare_version>  (1) 
72125

>  <i_m_source_file_index>  (1) 
78

>  <i_f3d_flags>  (1) 
0

>  <num_sample>  (1) 
100

>  <b_lp_Chiralities_Consistent>  (1) 
1

>  <r_epik_Charging_Adjusted_Penalty>  (1) 
0

>  <r_epik_Ionization_Penalty>  (1) 
0.0013117502669173318

>  <r_epik_Ionization_Penalty_Charging>  (1) 
0

>  <r_epik_Ionization_Penalty_Neutral>  (1) 
0.0013117502669173318

>  <r_epik_State_Penalty>  (1) 
-0

>  <r_glide_ring_energy>  (1) 
0

>  <r_i_docking_score>  (1) 
-8.6708830046049066

>  <r_i_glide_ecoul>  (1) 
-6.2922305054992096

>  <r_i_glide_eff_state_penalty>  (1) 
-0

>  <r_i_glide_einternal>  (1) 
5.0232366977391329

>  <r_i_glide_emodel>  (1) 
-50.680545960368356

>  <r_i_glide_emodel_strain>  (1) 
0.096111814067171508

>  <r_i_glide_energy>  (1) 
-44.187636683780781

>  <r_i_glide_erotb>  (1) 
0.36862077086586142

>  <r_i_glide_esite>  (1) 
0

>  <r_i_glide_evdw>  (1) 
-37.895406178281569

>  <r_i_glide_gscore>  (1) 
-8.6708830046049066

>  <r_i_glide_gscore_strain>  (1) 
0

>  <r_i_glide_hbond>  (1) 
-0.59589995698927756

>  <r_i_glide_ligand_efficiency>  (1) 
-0.24085786123902519

>  <r_i_glide_ligand_efficiency_ln>  (1) 
-1.8917524114181068

>  <r_i_glide_ligand_efficiency_sa>  (1) 
-0.79529513513561834

>  <r_i_glide_lipo>  (1) 
-3.596219922864837

>  <r_i_glide_metal>  (1) 
-0

>  <r_i_glide_rewards>  (1) 
-2.0087790108776939

>  <r_lp_Energy>  (1) 
44.297061999999997

>  <r_lp_tautomer_probability>  (1) 
1

>  <s_epik_cmdline>  (1) 
J2VwaWtfcHl0aG9uJywgJy1waHQnLCAnMS4wJywgJy1waCcsICc3LjQnLCAnLXRuJywgJzgnLCAnLW1hJywgJzUwMCcsICctaW1hZScsICc8aW5maWxlLm1hZT4nLCAnLW9tYWUnLCAnPG91dGZpbGUubWFlPic=

>  <s_epik_input>  (1) 
W09IXVtDSDJdYyhjMVtPSF0pW2NIXVtjSF1jKGMxW0NIM10pT1tDQEhdKFtDSDJdW0NIMl1bQ0BASF0yL1tDSF09QygvW0NIM10pW09IXSlbQ0gyXVtDQEhdKFtDQEBIXTIzKVtDSDJdU1tDQEBIXShbQ0gyXTMpW0NASF0oW0NIMl1DNChGKUYpW0NAQEhdKFtPSF0pW0NIXT1DNEY=

>  <s_glide_docking_method>  (1) 
confgen

>  <s_i_glide_gridfile>  (1) 
gpcr_5ht2c_6bqh_protein_autoprepared_prepared

>  <s_lp_Force_Field>  (1) 
S-OPLS

>  <s_lp_Variant>  (1) 
DiffSBDD_77-1

>  <s_m_source_file>  (1) 
generated_GPCR_5HT2C_ligand_DiffSBDD_2026-06-23_prepared.sdf

>  <GenAI_Model>  (1) 
DiffSBDD

>  <Protein>  (1) 
GPCR_5HT2C

$$$$
DiffSBDD_42
     RDKit          3D

  0  0  0  0  0  0  0  0  0  0999 V3000
M  V30 BEGIN CTAB
M  V30 COUNTS 89 94 0 0 1
M  V30 BEGIN ATOM
M  V30 1 C 41.810830 31.280581 65.469998 0
M  V30 2 C 37.292613 24.302463 56.451437 0
M  V30 3 C 39.658398 29.479414 51.664409 0
M  V30 4 C 41.657528 30.734448 50.881866 0
M  V30 5 O 37.245007 25.790740 53.767853 0 CHG=-1
M  V30 6 C 38.456822 29.055538 53.747755 0
M  V30 7 C 39.676771 28.096882 51.407090 0
M  V30 8 C 38.486708 27.672869 53.486341 0
M  V30 9 C 44.026181 28.562797 66.307405 0 CFG=2
M  V30 10 C 39.507497 31.264603 49.682353 0
M  V30 11 C 42.696864 29.612755 63.843495 0 CFG=1
M  V30 12 C 40.444748 29.213242 57.587719 0 CFG=1
M  V30 13 C 40.723504 30.860470 63.234583 0
M  V30 14 C 41.421857 28.346893 56.764255 0
M  V30 15 C 39.799498 29.879823 60.281200 0
M  V30 16 C 38.570034 24.527924 55.637604 0
M  V30 17 C 39.645842 30.302498 56.832894 0
M  V30 18 O 38.445143 27.920408 60.261303 0
M  V30 19 C 38.164003 26.048147 58.152053 0
M  V30 20 O 43.024175 28.208624 67.239176 0
M  V30 21 C 39.194516 28.614995 59.619709 0
M  V30 22 C 36.976632 25.409690 57.431804 0
M  V30 23 O 37.774424 30.680678 61.306285 0
M  V30 24 C 40.648688 27.570914 55.753089 0
M  V30 25 C 40.616459 31.577679 64.586195 0
M  V30 26 C 37.612288 32.014669 60.834613 0
M  V30 27 N 38.877990 25.941197 55.263780 0 CFG=1 CHG=1
M  V30 28 C 43.942728 30.080559 66.034389 0
M  V30 29 C 37.850521 26.694890 54.466997 0 CFG=2
M  V30 30 C 39.114446 27.198564 52.316132 0
M  V30 31 C 39.077599 30.270756 61.615657 0 CFG=2
M  V30 32 C 43.862770 27.705706 65.027660 0
M  V30 33 C 40.255555 30.430126 50.670385 0 CFG=2
M  V30 34 C 39.070629 29.952090 52.861340 0
M  V30 35 C 38.784000 27.293743 57.479402 0 CFG=2
M  V30 36 C 42.646882 28.114466 64.170717 0
M  V30 37 O 39.757510 31.270529 62.341190 0
M  V30 38 N 41.608317 29.985918 62.941423 0
M  V30 39 C 42.756192 30.392464 65.140534 0
M  V30 40 C 39.628455 26.669475 56.346322 0 CFG=2
M  V30 41 N 39.506189 28.354881 58.311486 0
M  V30 42 O 40.016312 29.955010 49.367298 0
M  V30 43 H 41.872910 31.816498 66.404178 0
M  V30 44 H 37.355097 23.361715 56.996960 0
M  V30 45 H 36.441700 24.174929 55.779354 0
M  V30 46 H 41.645166 31.337707 51.767915 0
M  V30 47 H 42.247402 29.828966 50.967321 0
M  V30 48 H 42.045142 31.315787 50.049210 0
M  V30 49 H 37.976325 29.423489 54.637391 0
M  V30 50 H 40.132172 27.725036 50.502323 0
M  V30 51 H 44.988453 28.336097 66.766691 0
M  V30 52 H 38.445548 31.360961 49.768151 0
M  V30 53 H 40.003853 32.081814 49.163181 0
M  V30 54 H 43.636703 29.817905 63.329889 0
M  V30 55 H 41.124003 29.727669 58.260427 0
M  V30 56 H 42.139672 28.936332 56.185757 0
M  V30 57 H 42.006396 27.690704 57.411655 0
M  V30 58 H 39.645638 30.716979 59.612714 0
M  V30 59 H 40.863763 29.726809 60.461072 0
M  V30 60 H 39.416226 24.136206 56.187785 0
M  V30 61 H 38.481410 23.916706 54.739549 0
M  V30 62 H 40.162206 30.696479 55.960692 0
M  V30 63 H 38.683435 29.930376 56.501412 0
M  V30 64 H 39.398903 31.147211 57.473630 0
M  V30 65 H 38.891658 25.337971 58.540532 0
M  V30 66 H 37.645335 26.385791 58.967368 0
M  V30 67 H 43.098542 27.287107 67.435841 0
M  V30 68 H 36.278099 25.009866 58.166440 0
M  V30 69 H 36.437888 26.185118 56.908017 0
M  V30 70 H 40.220020 28.324465 55.128501 0
M  V30 71 H 41.244947 26.931570 55.127929 0
M  V30 72 H 39.720842 31.236361 65.106184 0
M  V30 73 H 40.529489 32.651910 64.434836 0
M  V30 74 H 36.671607 32.094715 60.291351 0
M  V30 75 H 37.573869 32.704743 61.675410 0
M  V30 76 H 38.400020 32.350618 60.164283 0
M  V30 77 H 43.904202 30.643920 66.967400 0
M  V30 78 H 44.842816 30.405094 65.510717 0
M  V30 79 H 37.258588 27.290385 55.146245 0
M  V30 80 H 39.150877 26.140949 52.112218 0
M  V30 81 H 38.958948 29.391743 62.254424 0
M  V30 82 H 44.760002 27.806468 64.415855 0
M  V30 83 H 43.794909 26.647702 65.282473 0
M  V30 84 H 39.055595 31.015100 53.071514 0
M  V30 85 H 37.970809 27.880394 57.058647 0
M  V30 86 H 41.720061 27.880599 64.699080 0
M  V30 87 H 42.636724 27.534484 63.248318 0
M  V30 88 H 40.265375 25.936281 56.841083 0
M  V30 89 H 39.572670 25.795811 54.549989 0
M  V30 END ATOM
M  V30 BEGIN BOND
M  V30 1 2 7 3
M  V30 2 1 8 6
M  V30 3 1 14 12
M  V30 4 1 16 2
M  V30 5 1 17 12
M  V30 6 1 20 9
M  V30 7 1 21 15
M  V30 8 2 21 18
M  V30 9 1 22 2
M  V30 10 1 22 19
M  V30 11 1 24 14
M  V30 12 1 25 1
M  V30 13 1 25 13
M  V30 14 1 26 23
M  V30 15 1 27 16
M  V30 16 1 28 9
M  V30 17 1 29 5
M  V30 18 1 29 8
M  V30 19 1 29 27
M  V30 20 1 30 7
M  V30 21 2 30 8
M  V30 22 1 31 15
M  V30 23 1 31 23
M  V30 24 1 32 9
M  V30 25 1 33 3
M  V30 26 1 33 4 CFG=1
M  V30 27 1 33 10
M  V30 28 1 34 3
M  V30 29 2 34 6
M  V30 30 1 35 19
M  V30 31 1 36 11
M  V30 32 1 36 32
M  V30 33 1 37 13
M  V30 34 1 37 31
M  V30 35 1 38 11
M  V30 36 2 38 13
M  V30 37 2 39 1
M  V30 38 1 39 11
M  V30 39 1 39 28
M  V30 40 1 40 24
M  V30 41 1 40 27
M  V30 42 1 40 35
M  V30 43 1 41 12
M  V30 44 1 41 21
M  V30 45 1 41 35
M  V30 46 1 42 10
M  V30 47 1 42 33
M  V30 48 1 43 1
M  V30 49 1 44 2
M  V30 50 1 45 2
M  V30 51 1 46 4
M  V30 52 1 47 4
M  V30 53 1 48 4
M  V30 54 1 49 6
M  V30 55 1 50 7
M  V30 56 1 9 51 CFG=1
M  V30 57 1 52 10
M  V30 58 1 53 10
M  V30 59 1 11 54 CFG=3
M  V30 60 1 12 55 CFG=1
M  V30 61 1 56 14
M  V30 62 1 57 14
M  V30 63 1 58 15
M  V30 64 1 59 15
M  V30 65 1 60 16
M  V30 66 1 61 16
M  V30 67 1 62 17
M  V30 68 1 63 17
M  V30 69 1 64 17
M  V30 70 1 65 19
M  V30 71 1 66 19
M  V30 72 1 67 20
M  V30 73 1 68 22
M  V30 74 1 69 22
M  V30 75 1 70 24
M  V30 76 1 71 24
M  V30 77 1 72 25
M  V30 78 1 73 25
M  V30 79 1 74 26
M  V30 80 1 75 26
M  V30 81 1 76 26
M  V30 82 1 77 28
M  V30 83 1 78 28
M  V30 84 1 29 79 CFG=1
M  V30 85 1 80 30
M  V30 86 1 31 81 CFG=1
M  V30 87 1 82 32
M  V30 88 1 83 32
M  V30 89 1 84 34
M  V30 90 1 35 85 CFG=3
M  V30 91 1 86 36
M  V30 92 1 87 36
M  V30 93 1 40 88 CFG=1
M  V30 94 1 27 89 CFG=3
M  V30 END BOND
M  V30 END CTAB
M  END
>  <i_epik_Tot_Q>  (1) 
0

>  <i_epik_Tot_abs_Q>  (1) 
2

>  <i_i_glide_confnum>  (1) 
559

>  <i_i_glide_lignum>  (1) 
93

>  <i_i_glide_posenum>  (1) 
399

>  <i_i_glide_rotatable_bonds>  (1) 
10

>  <i_lp_mmshare_version>  (1) 
72125

>  <i_m_source_file_index>  (1) 
43

>  <i_f3d_flags>  (1) 
0

>  <num_sample>  (1) 
100

>  <b_lp_Chiralities_Consistent>  (1) 
1

>  <r_epik_Charging_Adjusted_Penalty>  (1) 
0.10762157237222084

>  <r_epik_Ionization_Penalty>  (1) 
0.015049648649627746

>  <r_epik_Ionization_Penalty_Charging>  (1) 
0.014590701191951229

>  <r_epik_Ionization_Penalty_Neutral>  (1) 
0.0004589474576765184

>  <r_epik_State_Penalty>  (1) 
0.093030871180269606

>  <r_glide_ring_energy>  (1) 
0

>  <r_i_docking_score>  (1) 
-8.6211195134066738

>  <r_i_glide_ecoul>  (1) 
-2.9799828618494342

>  <r_i_glide_eff_state_penalty>  (1) 
0.093030871180269606

>  <r_i_glide_einternal>  (1) 
18.798863697131928

>  <r_i_glide_emodel>  (1) 
-25.626041156943355

>  <r_i_glide_emodel_strain>  (1) 
2.8120239060215084

>  <r_i_glide_energy>  (1) 
-18.621105600040799

>  <r_i_glide_erotb>  (1) 
0.39316795176799535

>  <r_i_glide_esite>  (1) 
0

>  <r_i_glide_evdw>  (1) 
-15.641122738191365

>  <r_i_glide_gscore>  (1) 
-8.7141503845869437

>  <r_i_glide_gscore_strain>  (1) 
0

>  <r_i_glide_hbond>  (1) 
-0.36058294647763262

>  <r_i_glide_ligand_efficiency>  (1) 
-0.20526475031920652

>  <r_i_glide_ligand_efficiency_ln>  (1) 
-1.8196962236742931

>  <r_i_glide_ligand_efficiency_sa>  (1) 
-0.71350574136552636

>  <r_i_glide_lipo>  (1) 
-5.3169249462647095

>  <r_i_glide_metal>  (1) 
-0

>  <r_i_glide_rewards>  (1) 
-2.2007568774256141

>  <r_lp_Energy>  (1) 
80.091357000000002

>  <s_epik_Chemistry_Notes>  (1) 
This compound has an imine and may undergo hydrolysis. This compound contains an acetal/aminal-like group ( X-CH(R)-Y where X, Y are N, S, or O) that may be acid/base labile, releasing an aldehyde.

>  <s_epik_cmdline>  (1) 
J2VwaWtfcHl0aG9uJywgJy1waHQnLCAnMS4wJywgJy1waCcsICc3LjQnLCAnLXRuJywgJzgnLCAnLW1hJywgJzUwMCcsICctaW1hZScsICc8aW5maWxlLm1hZT4nLCAnLW9tYWUnLCAnPG91dGZpbGUubWFlPic=

>  <s_epik_input>  (1) 
W0NIMl0xW0NIMl1bQ0BIXShbT0hdKVtDSDJdQyhbQ0BASF0xMik9W0NIXVtDSDJdQyg9TjIpT1tDQEBIXShPW0NIM10pW0NIMl1DKD1PKU4zW0NASF0oW0NIM10pW0NIMl1bQ0gyXVtDQEBIXShbQ0BIXTM0KU4oW0NIMl1bQ0gyXVtDSDJdW0NIMl00KVtDQEhdKFtPSF0pYyhbY0hdW2NIXTUpW2NIXVtjSF1jNUM2KFtDSDNdKVtDSDJdTzY=

>  <s_glide_docking_method>  (1) 
confgen

>  <s_i_glide_gridfile>  (1) 
gpcr_5ht2c_6bqh_protein_autoprepared_prepared

>  <s_lp_Force_Field>  (1) 
S-OPLS

>  <s_lp_Variant>  (1) 
DiffSBDD_42-2

>  <s_m_source_file>  (1) 
generated_GPCR_5HT2C_ligand_DiffSBDD_2026-06-23_prepared.sdf

>  <GenAI_Model>  (1) 
DiffSBDD

>  <Protein>  (1) 
GPCR_5HT2C

$$$$
DiffSBDD_47
     RDKit          3D

  0  0  0  0  0  0  0  0  0  0999 V3000
M  V30 BEGIN CTAB
M  V30 COUNTS 51 52 0 0 1
M  V30 BEGIN ATOM
M  V30 1 O 36.045369 31.442597 60.766436 0
M  V30 2 C 38.124037 30.517279 59.935337 0
M  V30 3 C 39.611526 27.360178 58.432886 0
M  V30 4 C 39.408418 28.562660 50.872574 0
M  V30 5 C 39.414245 29.901158 53.352679 0
M  V30 6 C 39.191112 31.003458 60.854019 0
M  V30 7 C 38.774761 27.979816 51.984436 0
M  V30 8 C 40.655063 29.099651 59.997129 0
M  V30 9 C 38.510846 26.289248 58.337818 0
M  V30 10 O 39.163583 32.115583 61.380373 0
M  V30 11 C 38.094470 27.998555 54.437276 0 CFG=2
M  V30 12 C 38.720290 26.648491 54.830392 0
M  V30 13 O 39.856780 26.333436 54.470677 0
M  V30 14 C 37.866662 25.708873 55.686191 0 CFG=2
M  V30 15 C 39.385738 28.331237 59.611066 0 CFG=1
M  V30 16 C 40.366331 30.067445 61.151528 0
M  V30 17 C 40.045135 29.813247 50.996734 0
M  V30 18 C 38.229557 29.293967 59.370760 0
M  V30 19 S 38.830213 25.034494 57.070302 0
M  V30 20 C 38.778072 28.643473 53.230432 0
M  V30 21 C 40.045133 30.482049 52.235954 0
M  V30 22 C 40.727345 30.440378 49.799564 0
M  V30 23 C 37.276177 24.568765 54.848765 0
M  V30 24 O 38.045289 28.830264 55.583887 0
M  V30 25 C 36.959953 31.460395 59.684331 0
M  V30 26 H 35.318174 32.002070 60.534272 0
M  V30 27 H 39.696151 27.912400 57.497101 0
M  V30 28 H 40.567333 26.852958 58.567129 0
M  V30 29 H 39.403633 28.051232 49.923049 0
M  V30 30 H 39.423508 30.417996 54.300509 0
M  V30 31 H 38.287464 27.020456 51.883877 0
M  V30 32 H 41.438345 28.401317 60.293824 0
M  V30 33 H 41.040326 29.645745 59.135769 0
M  V30 34 H 38.445149 25.759138 59.283657 0
M  V30 35 H 37.532830 26.735541 58.167611 0
M  V30 36 H 37.063759 27.798625 54.141989 0
M  V30 37 H 37.033458 26.283485 56.088992 0
M  V30 38 H 39.097887 27.737761 60.478693 0
M  V30 39 H 40.129516 29.506738 62.056358 0
M  V30 40 H 41.245062 30.672231 61.369086 0
M  V30 41 H 37.450002 28.952094 58.706344 0
M  V30 42 H 40.530813 31.440142 52.330990 0
M  V30 43 H 41.736485 30.759294 50.062460 0
M  V30 44 H 40.797088 29.737764 48.968019 0
M  V30 45 H 40.166977 31.314579 49.467300 0
M  V30 46 H 36.810596 24.937896 53.934091 0
M  V30 47 H 38.045285 23.849977 54.567761 0
M  V30 48 H 36.515162 24.029259 55.412655 0
M  V30 49 H 37.583840 29.627278 55.365207 0
M  V30 50 H 36.445136 31.141073 58.779629 0
M  V30 51 H 37.310760 32.477462 59.502986 0
M  V30 END ATOM
M  V30 BEGIN BOND
M  V30 1 1 6 2
M  V30 2 2 7 4
M  V30 3 1 9 3
M  V30 4 2 10 6
M  V30 5 1 12 11
M  V30 6 2 13 12
M  V30 7 1 14 12
M  V30 8 1 15 3
M  V30 9 1 15 8
M  V30 10 1 16 6
M  V30 11 1 16 8
M  V30 12 1 17 4
M  V30 13 2 18 2
M  V30 14 1 18 15
M  V30 15 1 19 9
M  V30 16 1 19 14
M  V30 17 2 20 5
M  V30 18 1 20 7
M  V30 19 1 20 11
M  V30 20 1 21 5
M  V30 21 2 21 17
M  V30 22 1 22 17
M  V30 23 1 23 14
M  V30 24 1 24 11
M  V30 25 1 25 1
M  V30 26 1 25 2
M  V30 27 1 26 1
M  V30 28 1 27 3
M  V30 29 1 28 3
M  V30 30 1 29 4
M  V30 31 1 30 5
M  V30 32 1 31 7
M  V30 33 1 32 8
M  V30 34 1 33 8
M  V30 35 1 34 9
M  V30 36 1 35 9
M  V30 37 1 11 36 CFG=3
M  V30 38 1 14 37 CFG=1
M  V30 39 1 15 38 CFG=1
M  V30 40 1 39 16
M  V30 41 1 40 16
M  V30 42 1 41 18
M  V30 43 1 42 21
M  V30 44 1 43 22
M  V30 45 1 44 22
M  V30 46 1 45 22
M  V30 47 1 46 23
M  V30 48 1 47 23
M  V30 49 1 48 23
M  V30 50 1 49 24
M  V30 51 1 50 25
M  V30 52 1 51 25
M  V30 END BOND
M  V30 END CTAB
M  END
>  <i_epik_Tot_Q>  (1) 
0

>  <i_epik_Tot_abs_Q>  (1) 
0

>  <i_i_glide_confnum>  (1) 
14

>  <i_i_glide_lignum>  (1) 
100

>  <i_i_glide_posenum>  (1) 
98

>  <i_i_glide_rotatable_bonds>  (1) 
10

>  <i_lp_mmshare_version>  (1) 
72125

>  <i_m_source_file_index>  (1) 
48

>  <i_f3d_flags>  (1) 
0

>  <num_sample>  (1) 
100

>  <b_lp_Chiralities_Consistent>  (1) 
1

>  <r_epik_Charging_Adjusted_Penalty>  (1) 
0

>  <r_epik_Ionization_Penalty>  (1) 
1.6598549338111207e-05

>  <r_epik_Ionization_Penalty_Charging>  (1) 
0

>  <r_epik_Ionization_Penalty_Neutral>  (1) 
1.6598549338111207e-05

>  <r_epik_State_Penalty>  (1) 
-0

>  <r_glide_ring_energy>  (1) 
0

>  <r_i_docking_score>  (1) 
-8.615168868068217

>  <r_i_glide_ecoul>  (1) 
-4.0238787522545305

>  <r_i_glide_eff_state_penalty>  (1) 
-0

>  <r_i_glide_einternal>  (1) 
3.253949982568237

>  <r_i_glide_emodel>  (1) 
-75.49259333747267

>  <r_i_glide_emodel_strain>  (1) 
0.34036704889329528

>  <r_i_glide_energy>  (1) 
-50.795004116902923

>  <r_i_glide_erotb>  (1) 
1.1691057722696085

>  <r_i_glide_esite>  (1) 
0

>  <r_i_glide_evdw>  (1) 
-46.771125364648391

>  <r_i_glide_gscore>  (1) 
-8.615168868068217

>  <r_i_glide_gscore_strain>  (1) 
0

>  <r_i_glide_hbond>  (1) 
-0.09579903828179015

>  <r_i_glide_ligand_efficiency>  (1) 
-0.34460675472272867

>  <r_i_glide_ligand_efficiency_ln>  (1) 
-2.0420531975096368

>  <r_i_glide_ligand_efficiency_sa>  (1) 
-1.0076362635172291

>  <r_i_glide_lipo>  (1) 
-4.4386386794289328

>  <r_i_glide_metal>  (1) 
-0

>  <r_i_glide_rewards>  (1) 
-2.307698841556503

>  <r_lp_Energy>  (1) 
25.714537

>  <r_lp_tautomer_probability>  (1) 
1

>  <s_epik_cmdline>  (1) 
J2VwaWtfcHl0aG9uJywgJy1waHQnLCAnMS4wJywgJy1waCcsICc3LjQnLCAnLXRuJywgJzgnLCAnLW1hJywgJzUwMCcsICctaW1hZScsICc8aW5maWxlLm1hZT4nLCAnLW9tYWUnLCAnPG91dGZpbGUubWFlPic=

>  <s_epik_input>  (1) 
W09IXVtDSDJdQzE9W0NIXVtDQEhdKFtDSDJdW0NIMl1DMT1PKVtDSDJdW0NIMl1TXEMoW0NIM10pPUMoW09IXSlcW0NAQEhdKFtPSF0pYyhbY0hdW2NIXTIpW2NIXVtjSF1jMltDSDNd

>  <s_glide_docking_method>  (1) 
confgen

>  <s_i_glide_gridfile>  (1) 
gpcr_5ht2c_6bqh_protein_autoprepared_prepared

>  <s_lp_Force_Field>  (1) 
S-OPLS

>  <s_lp_Variant>  (1) 
DiffSBDD_47-2

>  <s_m_source_file>  (1) 
generated_GPCR_5HT2C_ligand_DiffSBDD_2026-06-23_prepared.sdf

>  <GenAI_Model>  (1) 
DiffSBDD

>  <Protein>  (1) 
GPCR_5HT2C

$$$$
DiffSBDD_77
     RDKit          3D

  0  0  0  0  0  0  0  0  0  0999 V3000
M  V30 BEGIN CTAB
M  V30 COUNTS 71 74 0 0 1
M  V30 BEGIN ATOM
M  V30 1 C 38.145725 29.800514 59.970895 0 CFG=1
M  V30 2 S 38.054158 31.611850 55.600656 0
M  V30 3 C 38.359544 39.354069 60.758917 0
M  V30 4 C 38.562315 30.488620 58.617080 0 CFG=2
M  V30 5 C 41.107110 28.155661 62.021197 0
M  V30 6 C 38.791477 30.023691 56.067530 0 CFG=2
M  V30 7 C 38.915962 29.639828 53.517356 0 CFG=2
M  V30 8 C 38.227849 32.940977 59.444581 0
M  V30 9 C 38.559598 32.545301 57.037010 0
M  V30 10 C 39.386722 27.694891 55.119472 0
M  V30 11 C 38.751632 35.739609 62.034124 0
M  V30 12 C 37.053516 37.214614 60.336411 0
M  V30 13 C 39.153312 26.684445 53.978483 0
M  V30 14 F 40.085787 25.737773 54.074740 0
M  V30 15 C 39.181173 27.326100 52.600791 0
M  V30 16 C 37.053392 32.985118 60.436269 0 CFG=1
M  V30 17 C 38.108310 37.865132 60.998806 0
M  V30 18 C 39.684630 34.936830 62.927716 0
M  V30 19 O 40.045133 30.492133 53.520489 0
M  V30 20 C 36.630348 31.621198 60.968223 0
M  V30 21 C 38.607593 29.009528 54.909164 0 CFG=1
M  V30 22 C 39.079026 28.641465 52.404344 0
M  V30 23 F 39.333712 26.537939 51.529860 0
M  V30 24 O 40.845146 30.293631 60.967797 0
M  V30 25 C 38.002445 31.923663 58.327928 0 CFG=1
M  V30 26 C 39.146452 28.678376 60.381920 0
M  V30 27 C 38.202513 29.562578 57.422257 0
M  V30 28 O 37.245191 40.185310 60.967768 0
M  V30 29 C 37.685285 35.100699 61.367743 0
M  V30 30 O 39.997252 37.737641 62.499395 0
M  V30 31 C 36.841799 35.846969 60.520331 0
M  V30 32 F 37.964515 26.111703 54.168779 0
M  V30 33 O 37.474966 33.754196 61.551129 0
M  V30 34 C 37.836779 30.720154 61.191053 0
M  V30 35 C 40.410640 29.153496 61.111071 0
M  V30 36 C 38.962293 37.122236 61.856269 0
M  V30 37 H 37.204163 29.293125 59.763415 0
M  V30 38 H 39.176306 39.734856 61.367655 0
M  V30 39 H 38.675412 39.487345 59.726325 0
M  V30 40 H 39.645132 30.537811 58.634175 0
M  V30 41 H 40.444930 27.337810 62.284748 0
M  V30 42 H 38.642886 27.960238 61.025150 0
M  V30 43 H 41.980270 27.740503 61.523343 0
M  V30 44 H 39.860407 30.197357 56.197303 0
M  V30 45 H 38.049446 30.233939 53.249227 0
M  V30 46 H 38.330139 33.943435 59.030037 0
M  V30 47 H 39.185099 32.755650 59.931680 0
M  V30 48 H 39.645149 32.618416 57.064639 0
M  V30 49 H 38.172153 33.553971 56.887932 0
M  V30 50 H 40.445134 27.918467 55.232931 0
M  V30 51 H 39.099481 27.211985 56.051955 0
M  V30 52 H 36.407128 37.757452 59.679854 0
M  V30 53 H 36.163630 33.380300 59.953328 0
M  V30 54 H 39.330609 33.920923 63.101278 0
M  V30 55 H 40.661443 34.860462 62.449429 0
M  V30 56 H 39.818161 35.425054 63.891910 0
M  V30 57 H 39.802003 31.293798 53.963783 0
M  V30 58 H 36.080456 31.765684 61.896134 0
M  V30 59 H 35.924485 31.148651 60.283176 0
M  V30 60 H 37.552185 28.733967 54.890374 0
M  V30 61 H 39.114796 29.036146 51.399207 0
M  V30 62 H 41.431186 28.639762 62.942440 0
M  V30 63 H 36.928109 31.837819 58.190527 0
M  V30 64 H 39.465270 28.106653 59.511792 0
M  V30 65 H 38.549759 28.557594 57.643611 0
M  V30 66 H 37.117351 29.486919 57.332798 0
M  V30 67 H 36.569423 39.965531 60.328356 0
M  V30 68 H 40.465196 37.186978 63.110132 0
M  V30 69 H 36.023152 35.371414 60.007860 0
M  V30 70 H 38.688662 31.323430 61.493094 0
M  V30 71 H 37.645203 30.137763 62.084127 0
M  V30 END ATOM
M  V30 BEGIN BOND
M  V30 1 1 4 1
M  V30 2 1 6 2
M  V30 3 1 9 2
M  V30 4 1 13 10
M  V30 5 1 14 13
M  V30 6 1 15 13
M  V30 7 1 16 8
M  V30 8 1 17 3
M  V30 9 1 17 12
M  V30 10 1 18 11
M  V30 11 1 19 7
M  V30 12 1 20 16
M  V30 13 1 21 6
M  V30 14 1 21 7
M  V30 15 1 21 10
M  V30 16 1 22 7
M  V30 17 2 22 15
M  V30 18 1 23 15
M  V30 19 1 25 4
M  V30 20 1 25 8
M  V30 21 1 25 9
M  V30 22 1 26 1
M  V30 23 1 27 4
M  V30 24 1 27 6
M  V30 25 1 28 3
M  V30 26 2 29 11
M  V30 27 2 31 12
M  V30 28 1 31 29
M  V30 29 1 32 13
M  V30 30 1 33 16
M  V30 31 1 33 29
M  V30 32 1 34 1
M  V30 33 1 34 20
M  V30 34 1 35 5
M  V30 35 2 35 24
M  V30 36 1 35 26
M  V30 37 1 36 11
M  V30 38 2 36 17
M  V30 39 1 36 30
M  V30 40 1 1 37 CFG=3
M  V30 41 1 38 3
M  V30 42 1 39 3
M  V30 43 1 4 40 CFG=1
M  V30 44 1 41 5
M  V30 45 1 42 26
M  V30 46 1 43 5
M  V30 47 1 6 44 CFG=1
M  V30 48 1 7 45 CFG=3
M  V30 49 1 46 8
M  V30 50 1 47 8
M  V30 51 1 48 9
M  V30 52 1 49 9
M  V30 53 1 50 10
M  V30 54 1 51 10
M  V30 55 1 52 12
M  V30 56 1 16 53 CFG=3
M  V30 57 1 54 18
M  V30 58 1 55 18
M  V30 59 1 56 18
M  V30 60 1 57 19
M  V30 61 1 58 20
M  V30 62 1 59 20
M  V30 63 1 21 60 CFG=3
M  V30 64 1 61 22
M  V30 65 1 62 5
M  V30 66 1 25 63 CFG=3
M  V30 67 1 64 26
M  V30 68 1 65 27
M  V30 69 1 66 27
M  V30 70 1 67 28
M  V30 71 1 68 30
M  V30 72 1 69 31
M  V30 73 1 70 34
M  V30 74 1 71 34
M  V30 END BOND
M  V30 END CTAB
M  END
>  <i_epik_Tot_Q>  (1) 
0

>  <i_epik_Tot_abs_Q>  (1) 
0

>  <i_i_glide_confnum>  (1) 
10

>  <i_i_glide_lignum>  (1) 
178

>  <i_i_glide_posenum>  (1) 
369

>  <i_i_glide_rotatable_bonds>  (1) 
9

>  <i_lp_mmshare_version>  (1) 
72125

>  <i_m_source_file_index>  (1) 
78

>  <i_f3d_flags>  (1) 
0

>  <num_sample>  (1) 
100

>  <b_lp_Chiralities_Consistent>  (1) 
1

>  <r_epik_Charging_Adjusted_Penalty>  (1) 
0

>  <r_epik_Ionization_Penalty>  (1) 
0.0013117502669173318

>  <r_epik_Ionization_Penalty_Charging>  (1) 
0

>  <r_epik_Ionization_Penalty_Neutral>  (1) 
0.0013117502669173318

>  <r_epik_State_Penalty>  (1) 
-0

>  <r_glide_ring_energy>  (1) 
0

>  <r_i_docking_score>  (1) 
-8.5639767872344308

>  <r_i_glide_ecoul>  (1) 
-9.104278188110893

>  <r_i_glide_eff_state_penalty>  (1) 
-0

>  <r_i_glide_einternal>  (1) 
5.9469754206740717

>  <r_i_glide_emodel>  (1) 
-49.968273217160046

>  <r_i_glide_emodel_strain>  (1) 
0.040954036340963285

>  <r_i_glide_energy>  (1) 
-43.994280352543498

>  <r_i_glide_erotb>  (1) 
0.36862077086586142

>  <r_i_glide_esite>  (1) 
0

>  <r_i_glide_evdw>  (1) 
-34.890002164432602

>  <r_i_glide_gscore>  (1) 
-8.5639767872344308

>  <r_i_glide_gscore_strain>  (1) 
0

>  <r_i_glide_hbond>  (1) 
-0.60957699015713662

>  <r_i_glide_ligand_efficiency>  (1) 
-0.2378882440898453

>  <r_i_glide_ligand_efficiency_ln>  (1) 
-1.8684283630600813

>  <r_i_glide_ligand_efficiency_sa>  (1) 
-0.78548967535195646

>  <r_i_glide_lipo>  (1) 
-3.384296177003109

>  <r_i_glide_metal>  (1) 
-0

>  <r_i_glide_rewards>  (1) 
-1.8285825545017835

>  <r_lp_Energy>  (1) 
44.297061999999997

>  <r_lp_tautomer_probability>  (1) 
1

>  <s_epik_cmdline>  (1) 
J2VwaWtfcHl0aG9uJywgJy1waHQnLCAnMS4wJywgJy1waCcsICc3LjQnLCAnLXRuJywgJzgnLCAnLW1hJywgJzUwMCcsICctaW1hZScsICc8aW5maWxlLm1hZT4nLCAnLW9tYWUnLCAnPG91dGZpbGUubWFlPic=

>  <s_epik_input>  (1) 
W09IXVtDSDJdYyhjMVtPSF0pW2NIXVtjSF1jKGMxW0NIM10pT1tDQEhdKFtDSDJdW0NIMl1bQ0BASF0yL1tDSF09QygvW0NIM10pW09IXSlbQ0gyXVtDQEhdKFtDQEBIXTIzKVtDSDJdU1tDQEBIXShbQ0gyXTMpW0NASF0oW0NIMl1DNChGKUYpW0NAQEhdKFtPSF0pW0NIXT1DNEY=

>  <s_glide_docking_method>  (1) 
confgen

>  <s_i_glide_gridfile>  (1) 
gpcr_5ht2c_6bqh_protein_autoprepared_prepared

>  <s_lp_Force_Field>  (1) 
S-OPLS

>  <s_lp_Variant>  (1) 
DiffSBDD_77-1

>  <s_m_source_file>  (1) 
generated_GPCR_5HT2C_ligand_DiffSBDD_2026-06-23_prepared.sdf

>  <GenAI_Model>  (1) 
DiffSBDD

>  <Protein>  (1) 
GPCR_5HT2C

$$$$
DiffSBDD_96
     RDKit          3D

  0  0  0  0  0  0  0  0  0  0999 V3000
M  V30 BEGIN CTAB
M  V30 COUNTS 67 70 0 0 1
M  V30 BEGIN ATOM
M  V30 1 F 36.890300 37.536923 61.518579 0
M  V30 2 C 38.516096 35.516072 60.184561 0 CFG=1
M  V30 3 C 39.615619 34.537434 60.418727 0
M  V30 4 O 40.845135 30.685622 61.367787 0
M  V30 5 C 38.209162 31.250792 58.225479 0
M  V30 6 C 37.100108 35.233648 59.703205 0 CFG=2
M  V30 7 N 38.594533 32.637533 57.876225 0 CHG=1
M  V30 8 F 40.370306 29.261739 50.470361 0
M  V30 9 C 38.966671 27.654241 53.443190 0
M  V30 10 C 41.735117 33.130734 63.615604 0
M  V30 11 C 39.066647 30.049223 53.820501 0
M  V30 12 O 37.759702 34.012525 61.767760 0
M  V30 13 O 39.247170 24.791402 57.367760 0
M  V30 14 C 38.045137 27.128348 55.727769 0
M  V30 15 F 36.112060 36.137761 62.967760 0
M  V30 16 C 39.645135 30.207596 52.537205 0
M  V30 17 C 37.443922 35.279207 61.186717 0 CFG=1
M  V30 18 C 38.844602 30.206217 57.284013 0
M  V30 19 C 39.786682 31.158174 61.842681 0
M  V30 20 S 38.476865 26.171607 54.293258 0
M  V30 21 C 38.945432 33.439085 61.229438 0 CFG=2
M  V30 22 C 36.684434 33.950720 58.984770 0
M  V30 23 C 38.714104 28.751821 54.318320 0
M  V30 24 O 39.708152 26.822457 58.159646 0 CHG=-1
M  V30 25 N 38.177541 28.478268 55.503780 0 CHG=1
M  V30 26 C 42.276856 31.741470 63.978263 0
M  V30 27 O 41.118554 33.181533 62.332983 0
M  V30 28 C 39.795962 32.643359 62.250628 0 CFG=2
M  V30 29 C 38.976592 25.997114 57.575777 0
M  V30 30 F 38.224671 36.612066 62.940838 0
M  V30 31 N 36.710546 25.380772 56.878399 0
M  V30 32 C 39.843620 29.096938 51.704739 0
M  V30 33 C 37.510941 33.638551 57.716765 0
M  V30 34 C 39.498131 27.819043 52.155747 0
M  V30 35 O 38.712485 30.537752 61.998811 0 CHG=-1
M  V30 36 C 37.775744 29.620048 56.360332 0
M  V30 37 C 37.635186 26.507191 57.035965 0 CFG=2
M  V30 38 C 37.150825 36.406905 62.177578 0
M  V30 39 H 38.845136 36.537756 60.104300 0
M  V30 40 H 40.045128 34.188059 59.484352 0
M  V30 41 H 40.392936 35.048272 60.987496 0
M  V30 42 H 37.125094 31.148223 58.271696 0
M  V30 43 H 38.560668 31.036869 59.232085 0
M  V30 44 H 36.589109 36.107564 59.302432 0
M  V30 45 H 39.231100 32.967525 58.586438 0
M  V30 46 H 42.567858 33.832097 63.590035 0
M  V30 47 H 41.059776 33.500086 64.388845 0
M  V30 48 H 38.908815 30.922312 54.432686 0
M  V30 49 H 39.916479 31.193830 52.187036 0
M  V30 50 H 39.269872 29.403101 57.887542 0
M  V30 51 H 39.674668 30.625357 56.716063 0
M  V30 52 H 38.555859 32.744394 60.501328 0
M  V30 53 H 35.650629 34.105671 58.670432 0
M  V30 54 H 36.619409 33.104507 59.665895 0
M  V30 55 H 42.872779 31.784753 64.889944 0
M  V30 56 H 41.471547 31.028068 64.149239 0
M  V30 57 H 42.907176 31.346525 63.182127 0
M  V30 58 H 39.305262 32.723366 63.221330 0
M  V30 59 H 36.595429 25.131685 55.908749 0
M  V30 60 H 37.972252 34.537762 57.327793 0
M  V30 61 H 36.845140 33.337749 56.923826 0
M  V30 62 H 39.645136 26.960596 51.518539 0
M  V30 63 H 37.304762 30.392212 55.749890 0
M  V30 64 H 36.954720 29.267217 56.981902 0
M  V30 65 H 39.093761 32.601332 57.000702 0
M  V30 66 H 37.160693 24.575228 57.301799 0
M  V30 67 H 37.219600 27.239029 57.727020 0
M  V30 END ATOM
M  V30 BEGIN BOND
M  V30 1 1 3 2
M  V30 2 1 6 2
M  V30 3 1 7 5
M  V30 4 2 16 11
M  V30 5 1 17 2
M  V30 6 1 17 6
M  V30 7 1 17 12
M  V30 8 1 18 5
M  V30 9 2 19 4
M  V30 10 1 20 9
M  V30 11 1 20 14
M  V30 12 1 21 3
M  V30 13 1 21 12
M  V30 14 1 22 6
M  V30 15 2 23 9
M  V30 16 1 23 11
M  V30 17 2 25 14
M  V30 18 1 25 23
M  V30 19 1 26 10
M  V30 20 1 27 10
M  V30 21 1 28 19
M  V30 22 1 28 21
M  V30 23 1 28 27
M  V30 24 2 29 13
M  V30 25 1 29 24
M  V30 26 1 32 8
M  V30 27 1 32 16
M  V30 28 1 33 7
M  V30 29 1 33 22
M  V30 30 1 34 9
M  V30 31 2 34 32
M  V30 32 1 35 19
M  V30 33 1 36 18
M  V30 34 1 36 25
M  V30 35 1 37 14
M  V30 36 1 37 29
M  V30 37 1 37 31
M  V30 38 1 38 1
M  V30 39 1 38 15
M  V30 40 1 17 38 CFG=1
M  V30 41 1 38 30
M  V30 42 1 2 39 CFG=1
M  V30 43 1 40 3
M  V30 44 1 41 3
M  V30 45 1 42 5
M  V30 46 1 43 5
M  V30 47 1 6 44 CFG=1
M  V30 48 1 45 7
M  V30 49 1 46 10
M  V30 50 1 47 10
M  V30 51 1 48 11
M  V30 52 1 49 16
M  V30 53 1 50 18
M  V30 54 1 51 18
M  V30 55 1 21 52 CFG=3
M  V30 56 1 53 22
M  V30 57 1 54 22
M  V30 58 1 55 26
M  V30 59 1 56 26
M  V30 60 1 57 26
M  V30 61 1 28 58 CFG=1
M  V30 62 1 59 31
M  V30 63 1 60 33
M  V30 64 1 61 33
M  V30 65 1 62 34
M  V30 66 1 63 36
M  V30 67 1 64 36
M  V30 68 1 65 7
M  V30 69 1 66 31
M  V30 70 1 37 67 CFG=1
M  V30 END BOND
M  V30 END CTAB
M  END
>  <i_epik_Tot_Q>  (1) 
0

>  <i_epik_Tot_abs_Q>  (1) 
4

>  <i_i_glide_confnum>  (1) 
2470

>  <i_i_glide_lignum>  (1) 
229

>  <i_i_glide_posenum>  (1) 
108

>  <i_i_glide_rotatable_bonds>  (1) 
14

>  <i_lp_mmshare_version>  (1) 
72125

>  <i_m_source_file_index>  (1) 
97

>  <i_f3d_flags>  (1) 
0

>  <num_sample>  (1) 
100

>  <b_lp_Chiralities_Consistent>  (1) 
1

>  <r_epik_Charging_Adjusted_Penalty>  (1) 
0.0011493244952256365

>  <r_epik_Ionization_Penalty>  (1) 
0.16754632311336878

>  <r_epik_Ionization_Penalty_Charging>  (1) 
0.0011493244952256365

>  <r_epik_Ionization_Penalty_Neutral>  (1) 
0.16639699861814314

>  <r_epik_State_Penalty>  (1) 
-0

>  <r_glide_ring_energy>  (1) 
0

>  <r_i_docking_score>  (1) 
-8.5322984140162053

>  <r_i_glide_ecoul>  (1) 
-5.3683563846243256

>  <r_i_glide_eff_state_penalty>  (1) 
-0

>  <r_i_glide_einternal>  (1) 
28.548076259158208

>  <r_i_glide_emodel>  (1) 
-59.639970648927722

>  <r_i_glide_emodel_strain>  (1) 
2.370523689710069

>  <r_i_glide_energy>  (1) 
-45.032660347726022

>  <r_i_glide_erotb>  (1) 
0.57183300328268483

>  <r_i_glide_esite>  (1) 
-0.053023808953010378

>  <r_i_glide_evdw>  (1) 
-39.664303963101695

>  <r_i_glide_gscore>  (1) 
-8.5322984140162053

>  <r_i_glide_gscore_strain>  (1) 
0

>  <r_i_glide_hbond>  (1) 
-0.15515123848935991

>  <r_i_glide_ligand_efficiency>  (1) 
-0.22453416878990015

>  <r_i_glide_ligand_efficiency_ln>  (1) 
-1.8398145328516344

>  <r_i_glide_ligand_efficiency_sa>  (1) 
-0.75487835345769172

>  <r_i_glide_lipo>  (1) 
-3.6236934504866087

>  <r_i_glide_metal>  (1) 
-0

>  <r_i_glide_rewards>  (1) 
-2.4837942635211774

>  <r_lp_Energy>  (1) 
52.570133999999996

>  <r_lp_tautomer_probability>  (1) 
1

>  <s_epik_cmdline>  (1) 
J2VwaWtfcHl0aG9uJywgJy1waHQnLCAnMS4wJywgJy1waCcsICc3LjQnLCAnLXRuJywgJzgnLCAnLW1hJywgJzUwMCcsICctaW1hZScsICc8aW5maWxlLm1hZT4nLCAnLW9tYWUnLCAnPG91dGZpbGUubWFlPic=

>  <s_epik_input>  (1) 
W0NIM11bQ0gyXU9bQ0BIXShDKD1PKVtPSF0pW0NAQEhdKE8xKVtDSDJdW0NASF0oW0NAXTEyQyhGKShGKUYpW0NASF0yW0NIMl1bQ0gyXVtOSF1bQ0gyXVtDSDJdW0NIMl1OKFtDQEBIXShTMylcQyg9TlxbSF0pQyg9TylbT0hdKWMoYzM0KVtjSF1bY0hdYyhGKVtjSF00

>  <s_glide_docking_method>  (1) 
confgen

>  <s_i_glide_gridfile>  (1) 
gpcr_5ht2c_6bqh_protein_autoprepared_prepared

>  <s_lp_Force_Field>  (1) 
S-OPLS

>  <s_lp_Variant>  (1) 
DiffSBDD_96-2

>  <s_m_source_file>  (1) 
generated_GPCR_5HT2C_ligand_DiffSBDD_2026-06-23_prepared.sdf

>  <GenAI_Model>  (1) 
DiffSBDD

>  <Protein>  (1) 
GPCR_5HT2C

$$$$
DiffSBDD_16
     RDKit          3D

  0  0  0  0  0  0  0  0  0  0999 V3000
M  V30 BEGIN CTAB
M  V30 COUNTS 70 74 0 0 1
M  V30 BEGIN ATOM
M  V30 1 C 39.245234 28.490112 53.198568 0
M  V30 2 C 40.157738 34.750946 61.268100 0
M  V30 3 C 37.520825 30.144510 57.305204 0 CFG=1
M  V30 4 C 38.045833 31.323632 56.452848 0
M  V30 5 C 39.627675 29.871265 51.206967 0
M  V30 6 C 39.744844 28.720330 50.422980 0
M  V30 7 C 36.832758 25.340989 55.663211 0
M  V30 8 C 37.836835 24.477948 56.398814 0
M  V30 9 C 38.510565 28.976942 57.578167 0
M  V30 10 C 39.627015 27.454691 51.012194 0
M  V30 11 O 37.247554 26.362201 53.574012 0
M  V30 12 C 39.527629 33.436947 59.329722 0
M  V30 13 C 38.883009 32.418767 58.694004 0
M  V30 14 C 38.070344 31.341160 59.412977 0
M  V30 15 C 39.641332 33.645933 60.786734 0
M  V30 16 C 39.394271 29.756784 52.593317 0
M  V30 17 N 40.305276 34.799687 62.627171 0
M  V30 18 C 40.530431 31.555013 64.151793 0
M  V30 19 N 37.026239 30.703761 58.573228 0 CHG=1
M  V30 20 C 40.219316 30.744112 62.939364 0
M  V30 21 C 39.705246 31.238415 50.559022 0
M  V30 22 C 38.266454 25.095155 57.724832 0
M  V30 23 C 40.393924 26.380029 57.233430 0
M  V30 24 C 38.944421 26.477263 57.684483 0 CFG=1
M  V30 25 C 38.995592 28.431534 54.686250 0
M  V30 26 C 38.154613 27.592864 56.960623 0 CFG=2
M  V30 27 C 37.468018 26.413510 54.767628 0
M  V30 28 C 39.293020 32.648602 61.836444 0 CFG=2
M  V30 29 C 38.277227 27.508227 55.419511 0
M  V30 30 C 40.047935 33.559560 62.882044 0
M  V30 31 N 39.818212 31.267065 61.833047 0
M  V30 32 C 39.383351 27.333483 52.391949 0
M  V30 33 C 39.000736 32.269453 57.171367 0
M  V30 34 C 40.467859 32.898325 64.112704 0
M  V30 35 H 40.501391 35.587411 60.676867 0
M  V30 36 H 36.650213 29.736674 56.788214 0
M  V30 37 H 37.245080 31.969492 56.139996 0
M  V30 38 H 38.461435 31.008317 55.499523 0
M  V30 39 H 39.921971 28.806471 49.366186 0
M  V30 40 H 36.094847 25.757136 56.351975 0
M  V30 41 H 36.251970 24.684863 55.009384 0
M  V30 42 H 37.332587 23.539212 56.621375 0
M  V30 43 H 38.692055 24.239626 55.762076 0
M  V30 44 H 39.539141 29.278190 57.381514 0
M  V30 45 H 38.495006 28.795935 58.650919 0
M  V30 46 H 39.728642 26.566555 50.407854 0
M  V30 47 H 40.049946 34.136285 58.704128 0
M  V30 48 H 38.741906 30.569031 59.764488 0
M  V30 49 H 37.526242 31.763845 60.251343 0
M  V30 50 H 39.298994 30.648450 53.195516 0
M  V30 51 H 40.852589 31.016371 65.032802 0
M  V30 52 H 36.313883 31.378636 58.289504 0
M  V30 53 H 40.371787 29.666300 63.047023 0
M  V30 54 H 39.454548 32.037540 51.256660 0
M  V30 55 H 40.720767 31.392747 50.193660 0
M  V30 56 H 39.024264 31.330372 49.712921 0
M  V30 57 H 37.413737 25.116199 58.403040 0
M  V30 58 H 38.961066 24.398333 58.167754 0
M  V30 59 H 40.496294 25.981996 56.225221 0
M  V30 60 H 40.903395 27.340743 57.289557 0
M  V30 61 H 40.873060 25.694115 57.917647 0
M  V30 62 H 38.998486 26.741084 58.742488 0
M  V30 63 H 39.467097 29.221773 55.235175 0
M  V30 64 H 37.120373 27.442000 57.262520 0
M  V30 65 H 38.230374 32.679852 62.073416 0
M  V30 66 H 39.331580 26.349942 52.827849 0
M  V30 67 H 38.987334 33.256531 56.702978 0
M  V30 68 H 39.997509 31.880841 56.964414 0
M  V30 69 H 40.743574 33.527522 64.946673 0
M  V30 70 H 36.578497 29.969386 59.100886 0
M  V30 END ATOM
M  V30 BEGIN BOND
M  V30 1 1 4 3
M  V30 2 1 6 5
M  V30 3 1 8 7
M  V30 4 1 9 3
M  V30 5 2 10 6
M  V30 6 2 13 12
M  V30 7 1 14 13
M  V30 8 2 15 2
M  V30 9 1 15 12
M  V30 10 1 16 1
M  V30 11 2 16 5
M  V30 12 1 17 2
M  V30 13 1 19 3
M  V30 14 1 19 14
M  V30 15 1 20 18
M  V30 16 1 21 5
M  V30 17 1 22 8
M  V30 18 1 24 22
M  V30 19 1 24 23
M  V30 20 1 25 1
M  V30 21 1 26 9
M  V30 22 1 26 24
M  V30 23 1 27 7
M  V30 24 2 27 11
M  V30 25 1 28 15
M  V30 26 2 29 25
M  V30 27 1 29 26
M  V30 28 1 29 27
M  V30 29 2 30 17
M  V30 30 1 30 28
M  V30 31 2 31 20
M  V30 32 1 31 28
M  V30 33 2 32 1
M  V30 34 1 32 10
M  V30 35 1 33 4
M  V30 36 1 33 13
M  V30 37 2 34 18
M  V30 38 1 34 30
M  V30 39 1 35 2
M  V30 40 1 3 36 CFG=3
M  V30 41 1 37 4
M  V30 42 1 38 4
M  V30 43 1 39 6
M  V30 44 1 40 7
M  V30 45 1 41 7
M  V30 46 1 42 8
M  V30 47 1 43 8
M  V30 48 1 44 9
M  V30 49 1 45 9
M  V30 50 1 46 10
M  V30 51 1 47 12
M  V30 52 1 48 14
M  V30 53 1 49 14
M  V30 54 1 50 16
M  V30 55 1 51 18
M  V30 56 1 52 19
M  V30 57 1 53 20
M  V30 58 1 54 21
M  V30 59 1 55 21
M  V30 60 1 56 21
M  V30 61 1 57 22
M  V30 62 1 58 22
M  V30 63 1 59 23
M  V30 64 1 60 23
M  V30 65 1 61 23
M  V30 66 1 24 62 CFG=1
M  V30 67 1 63 25
M  V30 68 1 26 64 CFG=3
M  V30 69 1 28 65 CFG=1
M  V30 70 1 66 32
M  V30 71 1 67 33
M  V30 72 1 68 33
M  V30 73 1 69 34
M  V30 74 1 70 19
M  V30 END BOND
M  V30 END CTAB
M  END
>  <i_epik_Tot_Q>  (1) 
1

>  <i_epik_Tot_abs_Q>  (1) 
1

>  <i_i_glide_confnum>  (1) 
10

>  <i_i_glide_lignum>  (1) 
33

>  <i_i_glide_posenum>  (1) 
114

>  <i_i_glide_rotatable_bonds>  (1) 
4

>  <i_lp_mmshare_version>  (1) 
72125

>  <i_m_source_file_index>  (1) 
17

>  <i_f3d_flags>  (1) 
0

>  <num_sample>  (1) 
100

>  <b_lp_Chiralities_Consistent>  (1) 
1

>  <r_epik_Charging_Adjusted_Penalty>  (1) 
0.57808156404405586

>  <r_epik_Ionization_Penalty>  (1) 
0.28904078202202793

>  <r_epik_Ionization_Penalty_Charging>  (1) 
0.28904078202202793

>  <r_epik_Ionization_Penalty_Neutral>  (1) 
0

>  <r_epik_State_Penalty>  (1) 
0.28904078202202793

>  <r_glide_ring_energy>  (1) 
2.0215075708839398

>  <r_i_docking_score>  (1) 
-8.504039365211165

>  <r_i_glide_ecoul>  (1) 
-4.158601174035212

>  <r_i_glide_eff_state_penalty>  (1) 
0.28904078202202793

>  <r_i_glide_einternal>  (1) 
24.487483436703556

>  <r_i_glide_emodel>  (1) 
-34.674583847566268

>  <r_i_glide_emodel_strain>  (1) 
1.1079630555224185

>  <r_i_glide_energy>  (1) 
-34.640065212492516

>  <r_i_glide_erotb>  (1) 
0.29147875755417113

>  <r_i_glide_esite>  (1) 
-0.10000000000000001

>  <r_i_glide_evdw>  (1) 
-30.481464038457304

>  <r_i_glide_gscore>  (1) 
-8.7930801472331925

>  <r_i_glide_gscore_strain>  (1) 
0

>  <r_i_glide_hbond>  (1) 
-0.16767592756370789

>  <r_i_glide_ligand_efficiency>  (1) 
-0.25011880485915189

>  <r_i_glide_ligand_efficiency_ln>  (1) 
-1.8787808259997834

>  <r_i_glide_ligand_efficiency_sa>  (1) 
-0.81028783194312859

>  <r_i_glide_lipo>  (1) 
-4.7853824496467485

>  <r_i_glide_metal>  (1) 
-0

>  <r_i_glide_rewards>  (1) 
-1.8836371495487609

>  <r_lp_Energy>  (1) 
66.447216999999995

>  <s_epik_Chemistry_Notes>  (1) 
This compound has an imine and may undergo hydrolysis.

>  <s_epik_cmdline>  (1) 
J2VwaWtfcHl0aG9uJywgJy1waHQnLCAnMS4wJywgJy1waCcsICc3LjQnLCAnLXRuJywgJzgnLCAnLW1hJywgJzUwMCcsICctaW1hZScsICc8aW5maWxlLm1hZT4nLCAnLW9tYWUnLCAnPG91dGZpbGUubWFlPic=

>  <s_epik_input>  (1) 
W2NIXTFbY0hdW2NIXWMoW0NIM10pW2NIXWMxL1tDSF09QyhDKD1PKVtDSDJdW0NIMl1bQ0gyXVtDQEhdMltDSDNdKS9bQ0BASF0yW0NIMl1bQ0BASF0zW0NIMl1bQ0gyXUMoXFtDSDJdW05IXTMpPVtDSF1cQzQ9W0NIXU49QyhbQ0BASF00NSlbQ0hdPVtDSF1bQ0hdPU41

>  <s_glide_docking_method>  (1) 
confgen

>  <s_i_glide_gridfile>  (1) 
gpcr_5ht2c_6bqh_protein_autoprepared_prepared

>  <s_lp_Force_Field>  (1) 
S-OPLS

>  <s_lp_Variant>  (1) 
DiffSBDD_16-1

>  <s_m_source_file>  (1) 
generated_GPCR_5HT2C_ligand_DiffSBDD_2026-06-23_prepared.sdf

>  <GenAI_Model>  (1) 
DiffSBDD

>  <Protein>  (1) 
GPCR_5HT2C

$$$$
DiffSBDD_96
     RDKit          3D

  0  0  0  0  0  0  0  0  0  0999 V3000
M  V30 BEGIN CTAB
M  V30 COUNTS 67 70 0 0 1
M  V30 BEGIN ATOM
M  V30 1 F 40.758787 35.702390 64.231960 0
M  V30 2 C 41.187523 34.200768 61.381079 0 CFG=1
M  V30 3 C 41.754337 32.861359 61.765876 0
M  V30 4 O 41.086088 32.506266 66.524770 0
M  V30 5 C 38.501313 31.671760 57.718143 0
M  V30 6 C 39.767447 34.410944 60.840477 0 CFG=2
M  V30 7 N 37.429961 32.250669 58.567764 0 CHG=1
M  V30 8 F 40.026730 29.476762 49.784137 0
M  V30 9 C 38.780549 28.029224 52.909197 0
M  V30 10 C 42.599188 29.948478 63.889141 0
M  V30 11 C 39.691982 30.231278 53.371447 0
M  V30 12 O 39.848875 33.337977 63.074039 0
M  V30 13 O 39.245133 24.937778 56.161991 0
M  V30 14 C 38.236409 27.515253 55.322078 0
M  V30 15 F 40.629389 36.800018 62.372958 0
M  V30 16 C 40.007665 30.368359 51.998791 0
M  V30 17 C 40.082336 34.527226 62.317991 0 CFG=1
M  V30 18 C 38.013469 30.718336 56.613601 0
M  V30 19 C 40.878679 31.860647 65.473168 0
M  V30 20 S 38.009751 26.676093 53.767759 0
M  V30 21 C 40.904814 32.376555 62.944686 0 CFG=2
M  V30 22 C 39.148800 33.212966 60.141447 0
M  V30 23 C 39.083099 29.033899 53.878035 0
M  V30 24 O 39.806968 26.208875 57.901686 0 CHG=-1
M  V30 25 N 38.792664 28.766832 55.153512 0 CHG=1
M  V30 26 C 43.954415 29.248995 63.767775 0
M  V30 27 O 42.845138 31.337768 64.084043 0
M  V30 28 C 41.733775 32.228670 64.248520 0 CFG=2
M  V30 29 C 39.089292 25.920992 56.916326 0
M  V30 30 F 38.820645 36.196195 63.367757 0
M  V30 31 N 37.645136 27.711436 57.767760 0
M  V30 32 C 39.710672 29.339418 51.093122 0
M  V30 33 C 37.838983 33.448061 59.353706 0
M  V30 34 C 39.085955 28.173297 51.545984 0
M  V30 35 O 40.045142 30.938587 65.331727 0 CHG=-1
M  V30 36 C 39.161851 29.781636 56.175437 0
M  V30 37 C 37.893498 26.841490 56.630677 0 CFG=1
M  V30 38 C 40.070501 35.832777 63.099251 0
M  V30 39 H 41.910973 34.974559 61.129944 0
M  V30 40 H 41.686097 32.165587 60.931725 0
M  V30 41 H 42.809675 32.941061 62.027919 0
M  V30 42 H 39.171380 31.119876 58.377734 0
M  V30 43 H 39.084079 32.471560 57.257765 0
M  V30 44 H 39.620193 35.348052 60.307053 0
M  V30 45 H 36.640893 32.471579 57.956856 0
M  V30 46 H 42.056275 29.506599 64.724475 0
M  V30 47 H 42.013279 29.782147 62.985475 0
M  V30 48 H 39.934561 31.040899 54.037771 0
M  V30 49 H 40.478136 31.273051 51.644526 0
M  V30 50 H 37.645007 31.295852 55.764649 0
M  V30 51 H 37.162310 30.137757 56.967250 0
M  V30 52 H 40.440428 31.423310 62.692324 0
M  V30 53 H 39.027517 32.385119 60.839848 0
M  V30 54 H 39.919711 32.937750 59.434395 0
M  V30 55 H 43.827131 28.187443 63.552586 0
M  V30 56 H 44.552410 29.683927 62.967899 0
M  V30 57 H 44.522899 29.339067 64.693760 0
M  V30 58 H 42.173502 33.204029 64.461263 0
M  V30 59 H 38.285428 27.410942 58.498494 0
M  V30 60 H 37.960136 34.278272 58.659731 0
M  V30 61 H 37.029304 33.721346 60.031398 0
M  V30 62 H 38.846941 27.381085 50.850487 0
M  V30 63 H 39.535237 29.226928 57.035093 0
M  V30 64 H 40.046028 30.341128 55.893613 0
M  V30 65 H 37.106161 31.533227 59.199702 0
M  V30 66 H 37.897931 28.662460 57.560111 0
M  V30 67 H 37.017554 26.209047 56.481864 0
M  V30 END ATOM
M  V30 BEGIN BOND
M  V30 1 1 3 2
M  V30 2 1 6 2
M  V30 3 1 7 5
M  V30 4 2 16 11
M  V30 5 1 17 2
M  V30 6 1 17 6
M  V30 7 1 17 12
M  V30 8 1 18 5
M  V30 9 2 19 4
M  V30 10 1 20 9
M  V30 11 1 20 14
M  V30 12 1 21 3
M  V30 13 1 21 12
M  V30 14 1 22 6
M  V30 15 2 23 9
M  V30 16 1 23 11
M  V30 17 2 25 14
M  V30 18 1 25 23
M  V30 19 1 26 10
M  V30 20 1 27 10
M  V30 21 1 28 19
M  V30 22 1 28 21
M  V30 23 1 28 27
M  V30 24 2 29 13
M  V30 25 1 29 24
M  V30 26 1 32 8
M  V30 27 1 32 16
M  V30 28 1 33 7
M  V30 29 1 33 22
M  V30 30 1 34 9
M  V30 31 2 34 32
M  V30 32 1 35 19
M  V30 33 1 36 18
M  V30 34 1 36 25
M  V30 35 1 37 14
M  V30 36 1 37 29
M  V30 37 1 37 31
M  V30 38 1 38 1
M  V30 39 1 38 15
M  V30 40 1 17 38 CFG=1
M  V30 41 1 38 30
M  V30 42 1 2 39 CFG=3
M  V30 43 1 40 3
M  V30 44 1 41 3
M  V30 45 1 42 5
M  V30 46 1 43 5
M  V30 47 1 6 44 CFG=3
M  V30 48 1 45 7
M  V30 49 1 46 10
M  V30 50 1 47 10
M  V30 51 1 48 11
M  V30 52 1 49 16
M  V30 53 1 50 18
M  V30 54 1 51 18
M  V30 55 1 21 52 CFG=3
M  V30 56 1 53 22
M  V30 57 1 54 22
M  V30 58 1 55 26
M  V30 59 1 56 26
M  V30 60 1 57 26
M  V30 61 1 28 58 CFG=1
M  V30 62 1 59 31
M  V30 63 1 60 33
M  V30 64 1 61 33
M  V30 65 1 62 34
M  V30 66 1 63 36
M  V30 67 1 64 36
M  V30 68 1 65 7
M  V30 69 1 66 31
M  V30 70 1 37 67 CFG=3
M  V30 END BOND
M  V30 END CTAB
M  END
>  <i_epik_Tot_Q>  (1) 
0

>  <i_epik_Tot_abs_Q>  (1) 
4

>  <i_i_glide_confnum>  (1) 
2849

>  <i_i_glide_lignum>  (1) 
228

>  <i_i_glide_posenum>  (1) 
206

>  <i_i_glide_rotatable_bonds>  (1) 
14

>  <i_lp_mmshare_version>  (1) 
72125

>  <i_m_source_file_index>  (1) 
97

>  <i_f3d_flags>  (1) 
0

>  <num_sample>  (1) 
100

>  <b_lp_Chiralities_Consistent>  (1) 
1

>  <r_epik_Charging_Adjusted_Penalty>  (1) 
0.0011493244952256365

>  <r_epik_Ionization_Penalty>  (1) 
0.16754632311336878

>  <r_epik_Ionization_Penalty_Charging>  (1) 
0.0011493244952256365

>  <r_epik_Ionization_Penalty_Neutral>  (1) 
0.16639699861814314

>  <r_epik_State_Penalty>  (1) 
-0

>  <r_glide_ring_energy>  (1) 
0

>  <r_i_docking_score>  (1) 
-8.5031839833024279

>  <r_i_glide_ecoul>  (1) 
-3.1615154422480307

>  <r_i_glide_eff_state_penalty>  (1) 
-0

>  <r_i_glide_einternal>  (1) 
17.721415256679453

>  <r_i_glide_emodel>  (1) 
-69.358529095670164

>  <r_i_glide_emodel_strain>  (1) 
3.4162141692794563

>  <r_i_glide_energy>  (1) 
-47.569487322957542

>  <r_i_glide_erotb>  (1) 
0.57183300328268483

>  <r_i_glide_esite>  (1) 
-0.12044330334887676

>  <r_i_glide_evdw>  (1) 
-44.407971880709511

>  <r_i_glide_gscore>  (1) 
-8.5031839833024279

>  <r_i_glide_gscore_strain>  (1) 
0

>  <r_i_glide_hbond>  (1) 
-0.19135293271710907

>  <r_i_glide_ligand_efficiency>  (1) 
-0.22376799956059021

>  <r_i_glide_ligand_efficiency_ln>  (1) 
-1.8335366051299649

>  <r_i_glide_ligand_efficiency_sa>  (1) 
-0.75230251135130566

>  <r_i_glide_lipo>  (1) 
-4.0083384096602162

>  <r_i_glide_metal>  (1) 
-0

>  <r_i_glide_rewards>  (1) 
-2.0602564304862305

>  <r_lp_Energy>  (1) 
45.686198999999995

>  <r_lp_tautomer_probability>  (1) 
1

>  <s_epik_cmdline>  (1) 
J2VwaWtfcHl0aG9uJywgJy1waHQnLCAnMS4wJywgJy1waCcsICc3LjQnLCAnLXRuJywgJzgnLCAnLW1hJywgJzUwMCcsICctaW1hZScsICc8aW5maWxlLm1hZT4nLCAnLW9tYWUnLCAnPG91dGZpbGUubWFlPic=

>  <s_epik_input>  (1) 
W0NIM11bQ0gyXU9bQ0BIXShDKD1PKVtPSF0pW0NAQEhdKE8xKVtDSDJdW0NASF0oW0NAXTEyQyhGKShGKUYpW0NASF0yW0NIMl1bQ0gyXVtOSF1bQ0gyXVtDSDJdW0NIMl1OKFtDQEBIXShTMylcQyg9TlxbSF0pQyg9TylbT0hdKWMoYzM0KVtjSF1bY0hdYyhGKVtjSF00

>  <s_glide_docking_method>  (1) 
confgen

>  <s_i_glide_gridfile>  (1) 
gpcr_5ht2c_6bqh_protein_autoprepared_prepared

>  <s_lp_Force_Field>  (1) 
S-OPLS

>  <s_lp_Variant>  (1) 
DiffSBDD_96-1

>  <s_m_source_file>  (1) 
generated_GPCR_5HT2C_ligand_DiffSBDD_2026-06-23_prepared.sdf

>  <GenAI_Model>  (1) 
DiffSBDD

>  <Protein>  (1) 
GPCR_5HT2C

$$$$
DiffSBDD_7
     RDKit          3D

  0  0  0  0  0  0  0  0  0  0999 V3000
M  V30 BEGIN CTAB
M  V30 COUNTS 75 77 0 0 1
M  V30 BEGIN ATOM
M  V30 1 C 39.236009 31.106124 57.267074 0
M  V30 2 C 37.514261 36.590804 61.765802 0
M  V30 3 O 36.854840 37.586806 62.428226 0
M  V30 4 C 36.112993 30.856609 59.702396 0 CFG=1
M  V30 5 C 38.486417 28.743890 56.357720 0 CFG=1
M  V30 6 C 38.461750 25.335580 54.959337 0
M  V30 7 O 35.534489 30.137532 58.619037 0
M  V30 8 C 37.257273 24.614775 54.871895 0
M  V30 9 C 38.485060 25.006068 57.359004 0
M  V30 10 C 39.076417 25.552125 56.200760 0
M  V30 11 C 37.633011 35.011035 59.908642 0
M  V30 12 C 37.291222 24.273669 57.266111 0
M  V30 13 C 38.857463 34.518613 60.404596 0
M  V30 14 C 39.368794 29.023309 59.710062 0
M  V30 15 N 37.531444 30.527721 59.769890 0
M  V30 16 S 40.236113 28.170583 56.165957 0 CHG=1
M  V30 17 O 36.847323 30.057504 54.961056 0
M  V30 18 C 38.309444 29.882996 57.443073 0 CFG=1
M  V30 19 C 37.758047 28.125551 53.902181 0
M  V30 20 C 38.742526 36.104896 62.258112 0
M  V30 21 C 36.966092 36.048532 60.588559 0
M  V30 22 C 40.346323 26.337725 56.290168 0 CFG=1
M  V30 23 C 38.894997 32.133939 56.172343 0
M  V30 24 C 36.674577 24.084466 56.022499 0
M  V30 25 C 34.558703 32.919948 59.646277 0
M  V30 26 O 40.355366 29.734550 59.874398 0
M  V30 27 C 36.004167 32.407236 59.704355 0 CFG=2
M  V30 28 C 42.106684 27.280972 58.018112 0
M  V30 29 O 37.287368 28.537640 52.639265 0
M  V30 30 C 37.032768 34.439262 58.634038 0
M  V30 31 C 38.007414 29.243861 54.930584 0 CFG=2
M  V30 32 N 36.845430 32.974623 58.628515 0 CHG=1
M  V30 33 C 38.109252 29.442086 58.952340 0 CFG=1
M  V30 34 C 40.681538 27.086343 57.547570 0 CFG=1
M  V30 35 C 39.414048 35.068079 61.576484 0
M  V30 36 H 40.228297 30.733579 57.101004 0
M  V30 37 H 39.243210 31.668556 58.197436 0
M  V30 38 H 36.013674 37.802922 62.043047 0
M  V30 39 H 35.645482 30.493195 60.614067 0
M  V30 40 H 37.861780 27.903192 56.648945 0
M  V30 41 H 38.913191 25.725481 54.063555 0
M  V30 42 H 35.284587 30.775209 57.931513 0
M  V30 43 H 36.785346 24.467287 53.911930 0
M  V30 44 H 38.948454 25.147743 58.319441 0
M  V30 45 H 36.848676 23.859157 58.151007 0
M  V30 46 H 39.372438 33.726808 59.883252 0
M  V30 47 H 39.287668 28.022296 60.137491 0
M  V30 48 H 37.844479 30.494369 60.730248 0
M  V30 49 H 36.133288 29.613738 55.396148 0
M  V30 50 H 37.349858 30.313627 57.216091 0
M  V30 51 H 37.055257 27.392206 54.293495 0
M  V30 52 H 38.716755 27.668983 53.684959 0
M  V30 53 H 39.168709 36.524186 63.159037 0
M  V30 54 H 36.035418 36.429351 60.204252 0
M  V30 55 H 41.126701 25.983128 55.621667 0
M  V30 56 H 39.406688 33.074797 56.373482 0
M  V30 57 H 37.829012 32.353320 56.126422 0
M  V30 58 H 39.214681 31.822589 55.180501 0
M  V30 59 H 35.753649 23.523668 55.952354 0
M  V30 60 H 34.046832 32.587457 60.534159 0
M  V30 61 H 34.005639 32.551323 58.786347 0
M  V30 62 H 34.488675 34.006017 59.652980 0
M  V30 63 H 36.415307 32.745134 60.658178 0
M  V30 64 H 42.438207 26.400427 58.565394 0
M  V30 65 H 42.185370 28.148351 58.672942 0
M  V30 66 H 42.787261 27.411126 57.178569 0
M  V30 67 H 37.133614 27.771510 52.101339 0
M  V30 68 H 37.644970 34.711953 57.779521 0
M  V30 69 H 36.064070 34.908508 58.490744 0
M  V30 70 H 38.789069 29.866013 54.498807 0
M  V30 71 H 37.734971 32.496622 58.642624 0
M  V30 72 H 37.429259 28.590517 58.967437 0
M  V30 73 H 39.925050 27.042732 58.309039 0
M  V30 74 H 40.355720 34.694675 61.952333 0
M  V30 75 H 36.365068 32.692784 57.767851 0
M  V30 END ATOM
M  V30 BEGIN BOND
M  V30 1 1 3 2
M  V30 2 1 7 4
M  V30 3 1 8 6
M  V30 4 2 10 6
M  V30 5 1 10 9
M  V30 6 2 12 9
M  V30 7 2 13 11
M  V30 8 1 15 4
M  V30 9 1 16 5
M  V30 10 1 18 1
M  V30 11 1 18 5
M  V30 12 1 20 2
M  V30 13 2 21 2
M  V30 14 1 21 11
M  V30 15 1 22 10
M  V30 16 1 16 22 CFG=3
M  V30 17 1 23 1
M  V30 18 2 24 8
M  V30 19 1 24 12
M  V30 20 2 26 14
M  V30 21 1 27 4
M  V30 22 1 27 25
M  V30 23 1 29 19
M  V30 24 1 30 11
M  V30 25 1 31 5
M  V30 26 1 31 17
M  V30 27 1 31 19
M  V30 28 1 32 27
M  V30 29 1 32 30
M  V30 30 1 33 14
M  V30 31 1 33 15
M  V30 32 1 33 18
M  V30 33 1 34 16
M  V30 34 1 34 22
M  V30 35 1 34 28
M  V30 36 1 35 13
M  V30 37 2 35 20
M  V30 38 1 36 1
M  V30 39 1 37 1
M  V30 40 1 38 3
M  V30 41 1 4 39 CFG=1
M  V30 42 1 5 40 CFG=1
M  V30 43 1 41 6
M  V30 44 1 42 7
M  V30 45 1 43 8
M  V30 46 1 44 9
M  V30 47 1 45 12
M  V30 48 1 46 13
M  V30 49 1 47 14
M  V30 50 1 48 15
M  V30 51 1 49 17
M  V30 52 1 18 50 CFG=3
M  V30 53 1 51 19
M  V30 54 1 52 19
M  V30 55 1 53 20
M  V30 56 1 54 21
M  V30 57 1 22 55 CFG=3
M  V30 58 1 56 23
M  V30 59 1 57 23
M  V30 60 1 58 23
M  V30 61 1 59 24
M  V30 62 1 60 25
M  V30 63 1 61 25
M  V30 64 1 62 25
M  V30 65 1 27 63 CFG=1
M  V30 66 1 64 28
M  V30 67 1 65 28
M  V30 68 1 66 28
M  V30 69 1 67 29
M  V30 70 1 68 30
M  V30 71 1 69 30
M  V30 72 1 31 70 CFG=3
M  V30 73 1 71 32
M  V30 74 1 33 72 CFG=3
M  V30 75 1 34 73 CFG=1
M  V30 76 1 74 35
M  V30 77 1 75 32
M  V30 END BOND
M  V30 END CTAB
M  END
>  <i_epik_Tot_Q>  (1) 
2

>  <i_epik_Tot_abs_Q>  (1) 
2

>  <i_i_glide_confnum>  (1) 
3859

>  <i_i_glide_lignum>  (1) 
10

>  <i_i_glide_posenum>  (1) 
394

>  <i_i_glide_rotatable_bonds>  (1) 
18

>  <i_lp_mmshare_version>  (1) 
72125

>  <i_m_source_file_index>  (1) 
8

>  <i_f3d_flags>  (1) 
0

>  <num_sample>  (1) 
100

>  <b_lp_Chiralities_Consistent>  (1) 
1

>  <r_epik_Charging_Adjusted_Penalty>  (1) 
0.016656697635693843

>  <r_epik_Ionization_Penalty>  (1) 
0.030146097982287068

>  <r_epik_Ionization_Penalty_Charging>  (1) 
0.016656697635693843

>  <r_epik_Ionization_Penalty_Neutral>  (1) 
0.013489400346593225

>  <r_epik_State_Penalty>  (1) 
-0

>  <r_glide_ring_energy>  (1) 
0

>  <r_i_docking_score>  (1) 
-8.4967552984186145

>  <r_i_glide_ecoul>  (1) 
-15.240078412941907

>  <r_i_glide_eff_state_penalty>  (1) 
-0

>  <r_i_glide_einternal>  (1) 
22.191345716401329

>  <r_i_glide_emodel>  (1) 
-74.445878994290979

>  <r_i_glide_emodel_strain>  (1) 
6.3515089059817527

>  <r_i_glide_energy>  (1) 
-47.369365810070668

>  <r_i_glide_erotb>  (1) 
0.96334785482901231

>  <r_i_glide_esite>  (1) 
-0.18611212514248351

>  <r_i_glide_evdw>  (1) 
-32.129287397128763

>  <r_i_glide_gscore>  (1) 
-8.4967552984186145

>  <r_i_glide_gscore_strain>  (1) 
0.58787722649543817

>  <r_i_glide_hbond>  (1) 
-0.45748302449116846

>  <r_i_glide_ligand_efficiency>  (1) 
-0.2427644370976747

>  <r_i_glide_ligand_efficiency_ln>  (1) 
-1.8652263633265649

>  <r_i_glide_ligand_efficiency_sa>  (1) 
-0.79409857150210095

>  <r_i_glide_lipo>  (1) 
-4.1236772152144816

>  <r_i_glide_metal>  (1) 
-0

>  <r_i_glide_rewards>  (1) 
-1.3882318830972069

>  <r_lp_Energy>  (1) 
35.191997999999998

>  <r_lp_tautomer_probability>  (1) 
1

>  <s_epik_Chemistry_Notes>  (1) 
This compound contains an acetal/aminal-like group ( X-CH(R)-Y where X, Y are N, S, or O) that may be acid/base labile, releasing an aldehyde.

>  <s_epik_cmdline>  (1) 
J2VwaWtfcHl0aG9uJywgJy1waHQnLCAnMS4wJywgJy1waCcsICc3LjQnLCAnLXRuJywgJzgnLCAnLW1hJywgJzUwMCcsICctaW1hZScsICc8aW5maWxlLm1hZT4nLCAnLW9tYWUnLCAnPG91dGZpbGUubWFlPic=

>  <s_epik_input>  (1) 
W2NIXTFbY0hdW2NIXVtjSF1bY0hdYzFbQ0BIXShbQ0BIXTJbQ0gzXSlbUytdMltDQEhdKFtDQEhdKFtPSF0pW0NIMl1bT0hdKVtDQEhdKFtDSDJdW0NIM10pW0NAQEhdKFtDSF09TylbTkhdW0NASF0oW09IXSlbQ0BIXShbQ0gzXSlbTkhdW0NIMl1jKFtjSF0zKVtjSF1bY0hdW2NIXWMzW09IXQ==

>  <s_glide_docking_method>  (1) 
confgen

>  <s_i_glide_gridfile>  (1) 
gpcr_5ht2c_6bqh_protein_autoprepared_prepared

>  <s_lp_Force_Field>  (1) 
S-OPLS

>  <s_lp_Variant>  (1) 
DiffSBDD_7-1

>  <s_m_source_file>  (1) 
generated_GPCR_5HT2C_ligand_DiffSBDD_2026-06-23_prepared.sdf

>  <GenAI_Model>  (1) 
DiffSBDD

>  <Protein>  (1) 
GPCR_5HT2C

$$$$
DiffSBDD_41
     RDKit          3D

  0  0  0  0  0  0  0  0  0  0999 V3000
M  V30 BEGIN CTAB
M  V30 COUNTS 52 53 0 0 1
M  V30 BEGIN ATOM
M  V30 1 C 38.927559 28.929970 53.926391 0
M  V30 2 C 39.226569 27.128206 57.715842 0 CFG=1
M  V30 3 C 37.229432 31.586399 58.582292 0
M  V30 4 C 39.861840 29.229302 60.059212 0
M  V30 5 C 39.333219 30.949886 61.721559 0
M  V30 6 C 38.407531 31.533573 60.839167 0
M  V30 7 C 40.058070 29.808229 61.333351 0
M  V30 8 O 39.245249 27.456442 50.567857 0
M  V30 9 C 40.393322 27.116304 58.695479 0
M  V30 10 S 39.854781 27.821257 56.160930 0
M  V30 11 N 37.691938 32.820066 57.929461 0 CHG=1
M  V30 12 C 39.924360 29.612807 51.377836 0
M  V30 13 C 40.017660 30.534186 52.439238 0
M  V30 14 C 37.619121 32.755554 61.273929 0
M  V30 15 C 38.759030 25.662291 57.553871 0
M  V30 16 C 39.329361 28.351072 51.590028 0
M  V30 17 C 40.640485 28.002870 59.703435 0
M  V30 18 C 39.518592 30.194315 53.714134 0
M  V30 19 C 37.672256 24.913717 55.342013 0
M  V30 20 C 38.945472 29.835842 59.167213 0
M  V30 21 C 37.451926 25.434847 56.769128 0
M  V30 22 F 40.406996 29.939090 50.154425 0
M  V30 23 C 38.829580 28.011824 52.860616 0
M  V30 24 C 38.219472 30.976634 59.553218 0
M  V30 25 C 38.430420 28.544718 55.304095 0
M  V30 26 H 38.336109 27.609138 58.102364 0
M  V30 27 H 37.045546 30.847005 57.801697 0
M  V30 28 H 36.269443 31.760082 59.068255 0
M  V30 29 H 39.485075 31.373893 62.704005 0
M  V30 30 H 40.759673 29.361965 62.022936 0
M  V30 31 H 38.737827 26.683102 50.762840 0
M  V30 32 H 41.079937 26.295981 58.567757 0
M  V30 33 H 36.980293 33.038295 57.237976 0
M  V30 34 H 37.766078 33.569090 58.599624 0
M  V30 35 H 40.471321 31.498844 52.275860 0
M  V30 36 H 37.858788 33.618549 60.654453 0
M  V30 37 H 36.546307 32.568479 61.223580 0
M  V30 38 H 37.857782 33.010898 62.304951 0
M  V30 39 H 39.559630 25.036717 57.153953 0
M  V30 40 H 38.575141 25.293095 58.563244 0
M  V30 41 H 41.499778 27.810102 60.330412 0
M  V30 42 H 39.597829 30.897921 54.530255 0
M  V30 43 H 36.729833 24.854780 54.797194 0
M  V30 44 H 38.349158 25.552734 54.777678 0
M  V30 45 H 38.101660 23.912876 55.355039 0
M  V30 46 H 38.806905 29.452619 58.183967 0
M  V30 47 H 36.847621 24.698421 57.301400 0
M  V30 48 H 36.848513 26.341040 56.759541 0
M  V30 49 H 38.381722 27.042343 53.021956 0
M  V30 50 H 38.053128 29.411731 55.846983 0
M  V30 51 H 37.624712 27.821227 55.216929 0
M  V30 52 H 38.574814 32.662445 57.468906 0
M  V30 END ATOM
M  V30 BEGIN BOND
M  V30 1 1 6 5
M  V30 2 1 7 4
M  V30 3 2 7 5
M  V30 4 1 9 2
M  V30 5 1 10 2
M  V30 6 1 11 3
M  V30 7 1 13 12
M  V30 8 1 14 6
M  V30 9 1 15 2
M  V30 10 1 16 8
M  V30 11 2 16 12
M  V30 12 1 17 4
M  V30 13 2 17 9
M  V30 14 1 18 1
M  V30 15 2 18 13
M  V30 16 2 20 4
M  V30 17 1 21 15
M  V30 18 1 21 19
M  V30 19 1 22 12
M  V30 20 2 23 1
M  V30 21 1 23 16
M  V30 22 1 24 3
M  V30 23 2 24 6
M  V30 24 1 24 20
M  V30 25 1 25 1
M  V30 26 1 25 10
M  V30 27 1 2 26 CFG=1
M  V30 28 1 27 3
M  V30 29 1 28 3
M  V30 30 1 29 5
M  V30 31 1 30 7
M  V30 32 1 31 8
M  V30 33 1 32 9
M  V30 34 1 33 11
M  V30 35 1 34 11
M  V30 36 1 35 13
M  V30 37 1 36 14
M  V30 38 1 37 14
M  V30 39 1 38 14
M  V30 40 1 39 15
M  V30 41 1 40 15
M  V30 42 1 41 17
M  V30 43 1 42 18
M  V30 44 1 43 19
M  V30 45 1 44 19
M  V30 46 1 45 19
M  V30 47 1 46 20
M  V30 48 1 47 21
M  V30 49 1 48 21
M  V30 50 1 49 23
M  V30 51 1 50 25
M  V30 52 1 51 25
M  V30 53 1 52 11
M  V30 END BOND
M  V30 END CTAB
M  END
>  <i_epik_Tot_Q>  (1) 
1

>  <i_epik_Tot_abs_Q>  (1) 
1

>  <i_i_glide_confnum>  (1) 
198

>  <i_i_glide_lignum>  (1) 
89

>  <i_i_glide_posenum>  (1) 
83

>  <i_i_glide_rotatable_bonds>  (1) 
9

>  <i_lp_mmshare_version>  (1) 
72125

>  <i_m_source_file_index>  (1) 
42

>  <i_f3d_flags>  (1) 
0

>  <num_sample>  (1) 
100

>  <b_lp_Chiralities_Consistent>  (1) 
1

>  <r_epik_Charging_Adjusted_Penalty>  (1) 
0.19353898929150365

>  <r_epik_Ionization_Penalty>  (1) 
0.13216089294123454

>  <r_epik_Ionization_Penalty_Charging>  (1) 
0.06151586109146627

>  <r_epik_Ionization_Penalty_Neutral>  (1) 
0.070645031849768267

>  <r_epik_State_Penalty>  (1) 
0.13202312820003739

>  <r_glide_ring_energy>  (1) 
0

>  <r_i_docking_score>  (1) 
-8.4925866286042204

>  <r_i_glide_ecoul>  (1) 
-5.4257735319715943

>  <r_i_glide_eff_state_penalty>  (1) 
0.13202312820003739

>  <r_i_glide_einternal>  (1) 
5.6680552155077608

>  <r_i_glide_emodel>  (1) 
-67.491693290615132

>  <r_i_glide_emodel_strain>  (1) 
0

>  <r_i_glide_energy>  (1) 
-43.865170668824021

>  <r_i_glide_erotb>  (1) 
0.88540937349265225

>  <r_i_glide_esite>  (1) 
-0.10000000000000001

>  <r_i_glide_evdw>  (1) 
-38.439397136852428

>  <r_i_glide_gscore>  (1) 
-8.6246097568042579

>  <r_i_glide_gscore_strain>  (1) 
0

>  <r_i_glide_hbond>  (1) 
-0.094684944357551787

>  <r_i_glide_ligand_efficiency>  (1) 
-0.33970346514416883

>  <r_i_glide_ligand_efficiency_ln>  (1) 
-2.0129975332633858

>  <r_i_glide_ligand_efficiency_sa>  (1) 
-0.99329895781392574

>  <r_i_glide_lipo>  (1) 
-4.2784835720282679

>  <r_i_glide_metal>  (1) 
-0

>  <r_i_glide_rewards>  (1) 
-2.3010147272727282

>  <r_lp_Energy>  (1) 
22.904637999999998

>  <r_lp_tautomer_probability>  (1) 
0.99999999999736477

>  <s_epik_cmdline>  (1) 
J2VwaWtfcHl0aG9uJywgJy1waHQnLCAnMS4wJywgJy1waCcsICc3LjQnLCAnLXRuJywgJzgnLCAnLW1hJywgJzUwMCcsICctaW1hZScsICc8aW5maWxlLm1hZT4nLCAnLW9tYWUnLCAnPG91dGZpbGUubWFlPic=

>  <s_epik_input>  (1) 
W09IXWMoW2NIXTEpYyhGKVtjSF1bY0hdYzFbQ0gyXVNbQ0BASF0oW0NIMl1bQ0gyXVtDSDNdKS9bQ0hdPVtDSF1cYzJbY0hdW2NIXWMoW0NIM10pYyhbY0hdMilbQ0gyXVtOSDJd

>  <s_glide_docking_method>  (1) 
confgen

>  <s_i_glide_gridfile>  (1) 
gpcr_5ht2c_6bqh_protein_autoprepared_prepared

>  <s_lp_Force_Field>  (1) 
S-OPLS

>  <s_lp_Variant>  (1) 
DiffSBDD_41-2

>  <s_m_source_file>  (1) 
generated_GPCR_5HT2C_ligand_DiffSBDD_2026-06-23_prepared.sdf

>  <GenAI_Model>  (1) 
DiffSBDD

>  <Protein>  (1) 
GPCR_5HT2C

$$$$
DiffSBDD_84
     RDKit          3D

  0  0  0  0  0  0  0  0  0  0999 V3000
M  V30 BEGIN CTAB
M  V30 COUNTS 77 81 0 0 1
M  V30 BEGIN ATOM
M  V30 1 C 41.901916 35.098197 64.260367 0
M  V30 2 C 38.662476 27.551880 58.782947 0
M  V30 3 C 40.201577 29.989264 61.094085 0
M  V30 4 C 44.738812 32.331317 66.985222 0
M  V30 5 S 41.091848 30.607503 66.745277 0
M  V30 6 C 38.863809 25.264323 55.386827 0
M  V30 7 C 40.097282 26.558609 56.974812 0
M  V30 8 C 37.954458 34.413666 60.751010 0
M  V30 9 O 46.021921 31.737458 67.052258 0
M  V30 10 C 38.287264 30.283899 59.566763 0
M  V30 11 C 41.269401 27.438665 57.403077 0
M  V30 12 C 39.086816 26.259669 58.090686 0 CFG=2
M  V30 13 C 38.946765 32.187223 61.085410 0
M  V30 14 N 41.098235 36.019769 65.082522 0 CHG=1
M  V30 15 C 43.611854 31.349123 67.427999 0
M  V30 16 C 41.228209 33.730752 64.125105 0
M  V30 17 N 39.986918 26.105188 55.788224 0
M  V30 18 C 38.826874 33.554279 61.448672 0
M  V30 19 N 40.347280 30.573788 64.182839 0
M  V30 20 N 39.481974 29.568739 60.029993 0
M  V30 21 C 38.231739 24.478682 56.547570 0
M  V30 22 C 38.178689 31.720584 59.999048 0
M  V30 23 N 42.227037 31.800535 67.209447 0
M  V30 24 C 43.668341 31.031084 68.937426 0
M  V30 25 C 39.865446 28.358111 59.289498 0 CFG=2
M  V30 26 O 41.170801 29.352334 61.511704 0
M  V30 27 C 37.311688 32.584922 59.307058 0
M  V30 28 O 44.803409 30.270476 69.276854 0
M  V30 29 C 37.851111 25.461106 57.640207 0
M  V30 30 C 40.578727 31.528440 65.272701 0 CFG=2
M  V30 31 C 40.812174 28.705522 58.134558 0
M  V30 32 N 39.379991 30.968808 63.196271 0
M  V30 33 N 42.093707 32.997104 66.394893 0 CHG=1
M  V30 34 C 37.199297 33.926205 59.681058 0
M  V30 35 C 39.871609 31.285706 61.854773 0 CFG=1
M  V30 36 C 41.679921 32.583934 65.042626 0 CFG=2
M  V30 37 H 42.919136 35.014334 64.636671 0
M  V30 38 H 41.984489 35.546492 63.269662 0
M  V30 39 H 38.048011 27.305713 59.637386 0
M  V30 40 H 38.048267 28.127703 58.090902 0
M  V30 41 H 44.732564 33.225891 67.611863 0
M  V30 42 H 44.615883 32.649540 65.948793 0
M  V30 43 H 38.107530 25.881372 54.898935 0
M  V30 44 H 39.206880 24.552057 54.637576 0
M  V30 45 H 37.868840 35.449552 61.041961 0
M  V30 46 H 46.062455 30.966590 66.500977 0
M  V30 47 H 38.281570 30.295772 58.474984 0
M  V30 48 H 37.390068 29.755014 59.892697 0
M  V30 49 H 41.879832 27.717271 56.551457 0
M  V30 50 H 41.527619 36.937715 64.978464 0
M  V30 51 H 40.152800 36.094403 64.738377 0
M  V30 52 H 43.734826 30.428988 66.852180 0
M  V30 53 H 41.454781 33.393205 63.117506 0
M  V30 54 H 40.148085 33.833283 64.167772 0
M  V30 55 H 39.402044 33.942941 62.261978 0
M  V30 56 H 40.021015 29.691365 64.577331 0
M  V30 57 H 37.348352 23.937160 56.208418 0
M  V30 58 H 38.930706 23.742236 56.947046 0
M  V30 59 H 43.670661 31.956548 69.513658 0
M  V30 60 H 42.792110 30.464249 69.253204 0
M  V30 61 H 40.402382 27.679361 59.957011 0
M  V30 62 H 36.734185 32.213845 58.484504 0
M  V30 63 H 44.838595 29.509393 68.717498 0
M  V30 64 H 37.081324 26.135086 57.259214 0
M  V30 65 H 37.416859 24.934431 58.489239 0
M  V30 66 H 39.649292 32.009466 65.551326 0
M  V30 67 H 40.316873 29.376492 57.431708 0
M  V30 68 H 41.684148 29.237792 58.516793 0
M  V30 69 H 38.704991 31.647966 63.544745 0
M  V30 70 H 41.352815 33.519322 66.840471 0
M  V30 71 H 36.532210 34.583018 59.142648 0
M  V30 72 H 40.823597 31.801501 61.938858 0
M  V30 73 H 42.560277 32.115173 64.599492 0
M  V30 74 H 42.967866 33.497938 66.423654 0
M  V30 75 H 39.624196 25.662521 58.823256 0
M  V30 76 H 41.914465 26.856074 58.059396 0
M  V30 77 H 41.097982 35.790145 66.061105 0
M  V30 END ATOM
M  V30 BEGIN BOND
M  V30 1 1 9 4
M  V30 2 1 11 7
M  V30 3 1 12 2
M  V30 4 1 12 7
M  V30 5 1 14 1
M  V30 6 1 15 4
M  V30 7 1 16 1
M  V30 8 1 17 6
M  V30 9 2 17 7
M  V30 10 1 18 8
M  V30 11 2 18 13
M  V30 12 1 20 3
M  V30 13 1 20 10
M  V30 14 1 21 6
M  V30 15 1 22 10
M  V30 16 1 22 13
M  V30 17 1 23 5
M  V30 18 1 23 15
M  V30 19 1 24 15
M  V30 20 1 25 2
M  V30 21 1 25 20
M  V30 22 2 26 3
M  V30 23 2 27 22
M  V30 24 1 28 24
M  V30 25 1 29 12
M  V30 26 1 29 21
M  V30 27 1 30 5
M  V30 28 1 30 19
M  V30 29 1 31 11
M  V30 30 1 31 25
M  V30 31 1 32 19
M  V30 32 1 33 23
M  V30 33 2 34 8
M  V30 34 1 34 27
M  V30 35 1 35 3
M  V30 36 1 35 13
M  V30 37 1 35 32
M  V30 38 1 36 16
M  V30 39 1 36 30
M  V30 40 1 36 33
M  V30 41 1 37 1
M  V30 42 1 38 1
M  V30 43 1 39 2
M  V30 44 1 40 2
M  V30 45 1 41 4
M  V30 46 1 42 4
M  V30 47 1 43 6
M  V30 48 1 44 6
M  V30 49 1 45 8
M  V30 50 1 46 9
M  V30 51 1 47 10
M  V30 52 1 48 10
M  V30 53 1 49 11
M  V30 54 1 50 14
M  V30 55 1 51 14
M  V30 56 1 52 15
M  V30 57 1 53 16
M  V30 58 1 54 16
M  V30 59 1 55 18
M  V30 60 1 56 19
M  V30 61 1 57 21
M  V30 62 1 58 21
M  V30 63 1 59 24
M  V30 64 1 60 24
M  V30 65 1 25 61 CFG=1
M  V30 66 1 62 27
M  V30 67 1 63 28
M  V30 68 1 64 29
M  V30 69 1 65 29
M  V30 70 1 30 66 CFG=1
M  V30 71 1 67 31
M  V30 72 1 68 31
M  V30 73 1 69 32
M  V30 74 1 70 33
M  V30 75 1 71 34
M  V30 76 1 35 72 CFG=1
M  V30 77 1 36 73 CFG=3
M  V30 78 1 74 33
M  V30 79 1 12 75 CFG=1
M  V30 80 1 76 11
M  V30 81 1 77 14
M  V30 END BOND
M  V30 END CTAB
M  END
>  <i_epik_Tot_Q>  (1) 
2

>  <i_epik_Tot_abs_Q>  (1) 
2

>  <i_i_glide_confnum>  (1) 
1158

>  <i_i_glide_lignum>  (1) 
200

>  <i_i_glide_posenum>  (1) 
356

>  <i_i_glide_rotatable_bonds>  (1) 
11

>  <i_lp_mmshare_version>  (1) 
72125

>  <i_m_source_file_index>  (1) 
85

>  <i_f3d_flags>  (1) 
0

>  <num_sample>  (1) 
100

>  <b_lp_Chiralities_Consistent>  (1) 
1

>  <r_epik_Charging_Adjusted_Penalty>  (1) 
0.034284474231679775

>  <r_epik_Ionization_Penalty>  (1) 
0.42650113434003467

>  <r_epik_Ionization_Penalty_Charging>  (1) 
0.012847136256187231

>  <r_epik_Ionization_Penalty_Neutral>  (1) 
0.41365399808384745

>  <r_epik_State_Penalty>  (1) 
0.021437337975492542

>  <r_glide_ring_energy>  (1) 
0.11944417741279

>  <r_i_docking_score>  (1) 
-8.491833687847123

>  <r_i_glide_ecoul>  (1) 
-10.76804664114297

>  <r_i_glide_eff_state_penalty>  (1) 
0.021437337975492542

>  <r_i_glide_einternal>  (1) 
9.0228722861490667

>  <r_i_glide_emodel>  (1) 
-74.427481555336612

>  <r_i_glide_emodel_strain>  (1) 
2.8541713197540588

>  <r_i_glide_energy>  (1) 
-51.438147714714475

>  <r_i_glide_erotb>  (1) 
0.60855438394346106

>  <r_i_glide_esite>  (1) 
-0.076034002249369126

>  <r_i_glide_evdw>  (1) 
-40.670101073571509

>  <r_i_glide_gscore>  (1) 
-8.5132710258226147

>  <r_i_glide_gscore_strain>  (1) 
0

>  <r_i_glide_hbond>  (1) 
-0.37584482376222866

>  <r_i_glide_ligand_efficiency>  (1) 
-0.23588426910686452

>  <r_i_glide_ligand_efficiency_ln>  (1) 
-1.8526886878550721

>  <r_i_glide_ligand_efficiency_sa>  (1) 
-0.77887269574954909

>  <r_i_glide_lipo>  (1) 
-3.9643250182604146

>  <r_i_glide_metal>  (1) 
-0

>  <r_i_glide_rewards>  (1) 
-1.0569095156440411

>  <r_lp_Energy>  (1) 
50.953711999999996

>  <r_lp_tautomer_probability>  (1) 
0.99998399999999998

>  <s_epik_Chemistry_Notes>  (1) 
This compound has an imine and may undergo hydrolysis. This compound contains an acetal/aminal-like group ( X-CH(R)-Y where X, Y are N, S, or O) that may be acid/base labile, releasing an aldehyde. This compound has a N-S or N-O group and may undergo hydrolysis at high or low pH.

>  <s_epik_cmdline>  (1) 
J2VwaWtfcHl0aG9uJywgJy1waHQnLCAnMS4wJywgJy1waCcsICc3LjQnLCAnLXRuJywgJzgnLCAnLW1hJywgJzUwMCcsICctaW1hZScsICc8aW5maWxlLm1hZT4nLCAnLW9tYWUnLCAnPG91dGZpbGUubWFlPic=

>  <s_epik_input>  (1) 
W09IXVtDSDJdW0NIXShbQ0gyXVtPSF0pTjFTW0NASF0oW0NASF0oW05IXTEpW0NIMl1bQ0gyXVtOSDJdKVtOSF1bTkhdW0NASF0yQyg9TylOKFtDSDJdYyhjMjMpW2NIXVtjSF1bY0hdW2NIXTMpW0NASF0oW0NIMl1bQ0gyXTQpW0NIMl1DKD1DNDUpW0NIMl1bQ0gyXVtDSDJdW05IXTU=

>  <s_glide_docking_method>  (1) 
confgen

>  <s_i_glide_gridfile>  (1) 
gpcr_5ht2c_6bqh_protein_autoprepared_prepared

>  <s_lp_Force_Field>  (1) 
S-OPLS

>  <s_lp_Variant>  (1) 
DiffSBDD_84-3

>  <s_m_source_file>  (1) 
generated_GPCR_5HT2C_ligand_DiffSBDD_2026-06-23_prepared.sdf

>  <GenAI_Model>  (1) 
DiffSBDD

>  <Protein>  (1) 
GPCR_5HT2C

$$$$
DiffSBDD_75
     RDKit          3D

  0  0  0  0  0  0  0  0  0  0999 V3000
M  V30 BEGIN CTAB
M  V30 COUNTS 77 78 0 0 1
M  V30 BEGIN ATOM
M  V30 1 C 39.638087 29.319037 61.128323 0
M  V30 2 C 36.764619 31.117566 59.590877 0
M  V30 3 O 36.947468 30.138211 55.491388 0
M  V30 4 C 41.851846 29.052462 63.329037 0
M  V30 5 C 39.185189 29.883126 53.765276 0 CFG=1
M  V30 6 C 38.696681 34.940122 61.087288 0
M  V30 7 C 37.950182 29.259160 55.966779 0 CFG=2
M  V30 8 C 37.661571 35.186976 60.157267 0
M  V30 9 O 40.445055 29.919328 51.687556 0
M  V30 10 C 37.871247 27.612508 54.027659 0 CFG=1
M  V30 11 O 36.430480 38.446366 61.367703 0
M  V30 12 S 38.760892 28.782296 58.585921 0
M  V30 13 C 42.147523 27.691628 63.983444 0
M  V30 14 C 37.162850 37.296676 61.276826 0
M  V30 15 C 38.789748 29.863474 57.116030 0
M  V30 16 C 39.541500 33.688269 60.979881 0
M  V30 17 C 38.950643 35.865912 62.115295 0
M  V30 18 O 39.645583 26.537978 52.798353 0
M  V30 19 C 37.688668 26.332373 54.882004 0
M  V30 20 C 38.731552 28.717440 54.727072 0 CFG=1
M  V30 21 O 42.376163 27.819987 65.368827 0
M  V30 22 O 37.583586 30.378532 60.486771 0
M  V30 23 O 41.508860 31.767239 61.939339 0
M  V30 24 C 40.275428 30.210372 64.855308 0
M  V30 25 N 40.445299 29.500052 63.560764 0 CFG=1 CHG=1
M  V30 26 C 40.314955 31.568375 62.156179 0
M  V30 27 C 36.899322 36.368346 60.249671 0
M  V30 28 C 39.318839 32.729374 62.156978 0
M  V30 29 C 39.732533 30.171833 62.423365 0 CFG=1
M  V30 30 C 38.184512 37.036926 62.212986 0
M  V30 31 C 38.594876 28.398814 51.701233 0
M  V30 32 C 38.841155 29.963521 59.966794 0 CFG=1
M  V30 33 C 40.300081 30.765461 54.370839 0
M  V30 34 C 38.418655 27.216135 52.646821 0 CFG=2
M  V30 35 C 39.505010 29.441089 52.320185 0
M  V30 36 H 40.628156 29.087634 60.737329 0
M  V30 37 H 39.187282 28.357829 61.379004 0
M  V30 38 H 35.847090 31.410090 60.100494 0
M  V30 39 H 37.264574 32.022801 59.245517 0
M  V30 40 H 36.473257 30.519337 58.726916 0
M  V30 41 H 36.516687 30.615339 56.200226 0
M  V30 42 H 42.044856 28.925343 62.268361 0
M  V30 43 H 42.562645 29.810734 63.662921 0
M  V30 44 H 37.401768 28.449016 56.430069 0
M  V30 45 H 37.460783 34.479144 59.366525 0
M  V30 46 H 39.004042 28.073271 50.744930 0
M  V30 47 H 36.875353 28.020692 53.847254 0
M  V30 48 H 36.043915 38.738228 60.548470 0
M  V30 49 H 41.325197 26.995823 63.815473 0
M  V30 50 H 43.039009 27.246464 63.537723 0
M  V30 51 H 38.416947 30.851696 57.379214 0
M  V30 52 H 39.834394 29.988969 56.842045 0
M  V30 53 H 39.348954 33.182714 60.033584 0
M  V30 54 H 40.583155 34.010212 60.961992 0
M  V30 55 H 39.737070 35.678096 62.831314 0
M  V30 56 H 40.189590 27.028363 53.391771 0
M  V30 57 H 38.640600 25.973158 55.275901 0
M  V30 58 H 37.013444 26.470918 55.722652 0
M  V30 59 H 37.265511 25.522261 54.286463 0
M  V30 60 H 39.636435 28.221796 55.087217 0
M  V30 61 H 43.244981 28.169117 65.508319 0
M  V30 62 H 40.920472 31.085565 64.922987 0
M  V30 63 H 39.245100 30.534616 64.996626 0
M  V30 64 H 40.514294 29.561348 65.696121 0
M  V30 65 H 36.111137 36.559422 59.534468 0
M  V30 66 H 39.434689 33.259751 63.103315 0
M  V30 67 H 38.298050 32.345773 62.138651 0
M  V30 68 H 38.710533 30.307211 62.773313 0
M  V30 69 H 38.385366 37.736709 63.007079 0
M  V30 70 H 37.632144 28.864043 51.502424 0
M  V30 71 H 38.336287 30.544779 53.600737 0
M  V30 72 H 39.380936 30.840477 59.616181 0
M  V30 73 H 40.839449 31.337652 53.620945 0
M  V30 74 H 39.885687 31.487564 55.072779 0
M  V30 75 H 41.040917 30.174283 54.905003 0
M  V30 76 H 37.712542 26.537890 52.178734 0
M  V30 77 H 39.901871 28.653968 63.696832 0
M  V30 END ATOM
M  V30 BEGIN BOND
M  V30 1 1 7 3
M  V30 2 1 8 6
M  V30 3 1 13 4
M  V30 4 1 14 11
M  V30 5 1 15 7
M  V30 6 1 15 12
M  V30 7 1 16 6
M  V30 8 2 17 6
M  V30 9 1 19 10
M  V30 10 1 20 5
M  V30 11 1 20 7
M  V30 12 1 20 10
M  V30 13 1 21 13
M  V30 14 1 22 2
M  V30 15 1 25 4
M  V30 16 1 25 24
M  V30 17 2 26 23
M  V30 18 2 27 8
M  V30 19 1 27 14
M  V30 20 1 28 16
M  V30 21 1 28 26
M  V30 22 1 29 1
M  V30 23 1 29 25
M  V30 24 1 29 26
M  V30 25 2 30 14
M  V30 26 1 30 17
M  V30 27 1 32 1
M  V30 28 1 32 12
M  V30 29 1 32 22
M  V30 30 1 33 5
M  V30 31 1 34 10
M  V30 32 1 34 18
M  V30 33 1 34 31
M  V30 34 1 35 5
M  V30 35 2 35 9
M  V30 36 1 35 31
M  V30 37 1 36 1
M  V30 38 1 37 1
M  V30 39 1 38 2
M  V30 40 1 39 2
M  V30 41 1 40 2
M  V30 42 1 41 3
M  V30 43 1 42 4
M  V30 44 1 43 4
M  V30 45 1 7 44 CFG=1
M  V30 46 1 45 8
M  V30 47 1 46 31
M  V30 48 1 10 47 CFG=3
M  V30 49 1 48 11
M  V30 50 1 49 13
M  V30 51 1 50 13
M  V30 52 1 51 15
M  V30 53 1 52 15
M  V30 54 1 53 16
M  V30 55 1 54 16
M  V30 56 1 55 17
M  V30 57 1 56 18
M  V30 58 1 57 19
M  V30 59 1 58 19
M  V30 60 1 59 19
M  V30 61 1 20 60 CFG=1
M  V30 62 1 61 21
M  V30 63 1 62 24
M  V30 64 1 63 24
M  V30 65 1 64 24
M  V30 66 1 65 27
M  V30 67 1 66 28
M  V30 68 1 67 28
M  V30 69 1 29 68 CFG=1
M  V30 70 1 69 30
M  V30 71 1 70 31
M  V30 72 1 5 71 CFG=3
M  V30 73 1 32 72 CFG=3
M  V30 74 1 73 33
M  V30 75 1 74 33
M  V30 76 1 75 33
M  V30 77 1 34 76 CFG=3
M  V30 78 1 25 77 CFG=1
M  V30 END BOND
M  V30 END CTAB
M  END
>  <i_epik_Tot_Q>  (1) 
1

>  <i_epik_Tot_abs_Q>  (1) 
1

>  <i_i_glide_confnum>  (1) 
603

>  <i_i_glide_lignum>  (1) 
170

>  <i_i_glide_posenum>  (1) 
21

>  <i_i_glide_rotatable_bonds>  (1) 
18

>  <i_lp_mmshare_version>  (1) 
72125

>  <i_m_source_file_index>  (1) 
76

>  <i_f3d_flags>  (1) 
0

>  <num_sample>  (1) 
100

>  <b_lp_Chiralities_Consistent>  (1) 
1

>  <r_epik_Charging_Adjusted_Penalty>  (1) 
0.52789471212939676

>  <r_epik_Ionization_Penalty>  (1) 
0.26592108790513191

>  <r_epik_Ionization_Penalty_Charging>  (1) 
0.26394735606469838

>  <r_epik_Ionization_Penalty_Neutral>  (1) 
0.0019737318404335234

>  <r_epik_State_Penalty>  (1) 
0.26394735606469838

>  <r_glide_ring_energy>  (1) 
0

>  <r_i_docking_score>  (1) 
-8.4862071247157083

>  <r_i_glide_ecoul>  (1) 
-11.48007275723063

>  <r_i_glide_eff_state_penalty>  (1) 
0.26394735606469838

>  <r_i_glide_einternal>  (1) 
11.878546277191608

>  <r_i_glide_emodel>  (1) 
-84.612381538645707

>  <r_i_glide_emodel_strain>  (1) 
1.8664064571699939

>  <r_i_glide_energy>  (1) 
-56.575593104879346

>  <r_i_glide_erotb>  (1) 
1.0139394581015995

>  <r_i_glide_esite>  (1) 
-0.040567258004772629

>  <r_i_glide_evdw>  (1) 
-45.095520347648716

>  <r_i_glide_gscore>  (1) 
-8.7501544807804059

>  <r_i_glide_gscore_strain>  (1) 
0

>  <r_i_glide_hbond>  (1) 
-0.52308108401694275

>  <r_i_glide_ligand_efficiency>  (1) 
-0.24246306070616308

>  <r_i_glide_ligand_efficiency_ln>  (1) 
-1.8629108050946748

>  <r_i_glide_ligand_efficiency_sa>  (1) 
-0.79311274934114107

>  <r_i_glide_lipo>  (1) 
-4.0444912930665007

>  <r_i_glide_metal>  (1) 
-0

>  <r_i_glide_rewards>  (1) 
-1.1791673728267589

>  <r_lp_Energy>  (1) 
23.611832

>  <r_lp_tautomer_probability>  (1) 
0.99989998499911525

>  <s_epik_Chemistry_Notes>  (1) 
This compound contains an acetal/aminal-like group ( X-CH(R)-Y where X, Y are N, S, or O) that may be acid/base labile, releasing an aldehyde.

>  <s_epik_cmdline>  (1) 
J2VwaWtfcHl0aG9uJywgJy1waHQnLCAnMS4wJywgJy1waCcsICc3LjQnLCAnLXRuJywgJzgnLCAnLW1hJywgJzUwMCcsICctaW1hZScsICc8aW5maWxlLm1hZT4nLCAnLW9tYWUnLCAnPG91dGZpbGUubWFlPic=

>  <s_epik_input>  (1) 
W2NIXTFbY0hdYyhbT0hdKVtjSF1bY0hdYzFbQ0gyXVtDSDJdQyg9TylbQ0BIXShOKFtDSDNdKVtDSDJdW0NIMl1bT0hdKVtDSDJdW0NASF0oT1tDSDNdKVNbQ0gyXVtDQEBIXShbT0hdKVtDQEhdMltDQEBIXShbQ0gzXSlbQ0BIXShbT0hdKVtDSDJdQyhbT0hdKT1DMltDSDNd

>  <s_glide_docking_method>  (1) 
confgen

>  <s_i_glide_gridfile>  (1) 
gpcr_5ht2c_6bqh_protein_autoprepared_prepared

>  <s_lp_Force_Field>  (1) 
S-OPLS

>  <s_lp_Variant>  (1) 
DiffSBDD_75-7

>  <s_m_source_file>  (1) 
generated_GPCR_5HT2C_ligand_DiffSBDD_2026-06-23_prepared.sdf

>  <GenAI_Model>  (1) 
DiffSBDD

>  <Protein>  (1) 
GPCR_5HT2C

$$$$
DiffSBDD_48
     RDKit          3D

  0  0  0  0  0  0  0  0  0  0999 V3000
M  V30 BEGIN CTAB
M  V30 COUNTS 75 77 0 0 1
M  V30 BEGIN ATOM
M  V30 1 C 41.165141 33.412867 62.023739 0
M  V30 2 C 39.945134 25.800277 56.923577 0
M  V30 3 C 35.182384 32.628188 61.093640 0
M  V30 4 C 37.566064 25.748076 55.784362 0 CFG=2
M  V30 5 C 41.603372 30.155549 50.566952 0
M  V30 6 O 42.061361 32.577783 61.767920 0
M  V30 7 C 39.584943 28.692779 50.425012 0
M  V30 8 C 39.499021 31.181660 50.026744 0
M  V30 9 C 37.551402 33.625581 61.509467 0 CFG=1
M  V30 10 C 39.933543 30.248914 52.392936 0
M  V30 11 C 39.842293 33.263465 61.266203 0 CFG=1
M  V30 12 C 38.363718 29.665088 54.223463 0 CFG=1
M  V30 13 C 38.244959 27.202807 53.846922 0
M  V30 14 C 37.986977 34.387731 60.233244 0 CFG=2
M  V30 15 C 38.013525 32.172226 54.186011 0
M  V30 16 C 36.664391 32.389978 61.326378 0
M  V30 17 F 37.648996 24.427902 55.956787 0
M  V30 18 O 41.252781 34.357791 62.838283 0 CHG=-1
M  V30 19 C 38.705426 31.010415 54.945309 0 CFG=1
M  V30 20 C 38.181986 32.552873 58.377312 0
M  V30 21 C 37.508948 33.850249 58.855999 0
M  V30 22 C 38.279849 31.036349 56.429379 0
M  V30 23 O 38.754039 33.245693 62.169528 0
M  V30 24 C 38.918337 26.052126 58.006158 0
M  V30 25 O 37.128634 31.252302 61.367683 0
M  V30 26 O 38.671823 29.737779 52.828864 0
M  V30 27 C 37.657633 26.091668 54.317528 0
M  V30 28 N 38.045166 32.399200 56.930060 0 CHG=1
M  V30 29 C 38.877916 28.278451 54.731875 0 CFG=2
M  V30 30 C 38.619518 27.965459 56.232602 0
M  V30 31 C 40.119715 30.065243 50.868770 0
M  V30 32 C 38.636609 26.481552 56.582927 0
M  V30 33 C 39.505438 34.472008 60.387432 0
M  V30 34 H 40.086868 24.771145 56.597146 0
M  V30 35 H 40.844575 26.412441 56.936979 0
M  V30 36 H 34.983542 33.678736 60.881547 0
M  V30 37 H 34.836300 32.031466 60.249588 0
M  V30 38 H 34.618219 32.343485 61.981261 0
M  V30 39 H 36.577563 26.028645 56.149292 0
M  V30 40 H 42.045497 31.056543 50.967743 0
M  V30 41 H 42.085311 29.337730 51.061147 0
M  V30 42 H 41.819542 30.137584 49.498385 0
M  V30 43 H 38.508114 28.606409 50.573114 0
M  V30 44 H 39.773880 28.538150 49.368009 0
M  V30 45 H 40.056596 27.876845 50.972497 0
M  V30 46 H 39.946833 32.137752 50.238098 0
M  V30 47 H 39.643562 30.995538 48.968087 0
M  V30 48 H 38.445263 31.302209 50.167726 0
M  V30 49 H 37.009401 34.314369 62.156261 0
M  V30 50 H 40.095375 31.296351 52.633740 0
M  V30 51 H 40.710079 29.737750 52.935748 0
M  V30 52 H 39.838637 32.331407 60.701720 0
M  V30 53 H 37.275667 29.591537 54.254745 0
M  V30 54 H 38.276753 27.371900 52.781063 0
M  V30 55 H 37.587551 35.400427 60.309371 0
M  V30 56 H 36.933610 32.016201 54.168025 0
M  V30 57 H 38.194562 33.154853 54.615799 0
M  V30 58 H 38.357113 32.275047 53.163591 0
M  V30 59 H 39.781841 31.178559 54.914924 0
M  V30 60 H 37.747362 31.683379 58.867124 0
M  V30 61 H 39.245313 32.543963 58.583815 0
M  V30 62 H 37.645150 34.627992 58.108582 0
M  V30 63 H 36.429481 33.712000 58.856967 0
M  V30 64 H 37.342846 30.500061 56.579226 0
M  V30 65 H 39.048279 30.567020 57.042163 0
M  V30 66 H 39.145195 26.820955 58.741307 0
M  V30 67 H 38.366346 25.196809 58.389861 0
M  V30 68 H 37.224149 25.384278 53.627039 0
M  V30 69 H 38.642983 33.056942 56.454489 0
M  V30 70 H 39.951985 28.218962 54.576412 0
M  V30 71 H 39.370266 28.460591 56.843763 0
M  V30 72 H 37.645685 28.346461 56.534337 0
M  V30 73 H 40.044712 34.470786 59.442174 0
M  V30 74 H 39.768888 35.398019 60.902795 0
M  V30 75 H 37.071637 32.591725 56.693180 0
M  V30 END ATOM
M  V30 BEGIN BOND
M  V30 1 2 6 1
M  V30 2 1 11 1
M  V30 3 1 14 9
M  V30 4 1 16 3
M  V30 5 1 16 9
M  V30 6 1 17 4
M  V30 7 1 18 1
M  V30 8 1 19 12
M  V30 9 1 19 15
M  V30 10 1 21 14
M  V30 11 1 21 20
M  V30 12 1 22 19
M  V30 13 1 23 9
M  V30 14 1 23 11
M  V30 15 1 24 2
M  V30 16 2 25 16
M  V30 17 1 26 10
M  V30 18 1 26 12
M  V30 19 1 27 4
M  V30 20 2 27 13
M  V30 21 1 28 20
M  V30 22 1 28 22
M  V30 23 1 29 12
M  V30 24 1 29 13
M  V30 25 1 30 29
M  V30 26 1 31 5
M  V30 27 1 31 7
M  V30 28 1 31 8
M  V30 29 1 31 10
M  V30 30 1 32 2
M  V30 31 1 32 4
M  V30 32 1 32 24
M  V30 33 1 32 30
M  V30 34 1 33 11
M  V30 35 1 33 14
M  V30 36 1 34 2
M  V30 37 1 35 2
M  V30 38 1 36 3
M  V30 39 1 37 3
M  V30 40 1 38 3
M  V30 41 1 4 39 CFG=1
M  V30 42 1 40 5
M  V30 43 1 41 5
M  V30 44 1 42 5
M  V30 45 1 43 7
M  V30 46 1 44 7
M  V30 47 1 45 7
M  V30 48 1 46 8
M  V30 49 1 47 8
M  V30 50 1 48 8
M  V30 51 1 9 49 CFG=1
M  V30 52 1 50 10
M  V30 53 1 51 10
M  V30 54 1 11 52 CFG=3
M  V30 55 1 12 53 CFG=3
M  V30 56 1 54 13
M  V30 57 1 14 55 CFG=1
M  V30 58 1 56 15
M  V30 59 1 57 15
M  V30 60 1 58 15
M  V30 61 1 19 59 CFG=1
M  V30 62 1 60 20
M  V30 63 1 61 20
M  V30 64 1 62 21
M  V30 65 1 63 21
M  V30 66 1 64 22
M  V30 67 1 65 22
M  V30 68 1 66 24
M  V30 69 1 67 24
M  V30 70 1 68 27
M  V30 71 1 69 28
M  V30 72 1 29 70 CFG=1
M  V30 73 1 71 30
M  V30 74 1 72 30
M  V30 75 1 73 33
M  V30 76 1 74 33
M  V30 77 1 75 28
M  V30 END BOND
M  V30 END CTAB
M  END
>  <i_epik_Tot_Q>  (1) 
0

>  <i_epik_Tot_abs_Q>  (1) 
2

>  <i_i_glide_confnum>  (1) 
2836

>  <i_i_glide_lignum>  (1) 
101

>  <i_i_glide_posenum>  (1) 
37

>  <i_i_glide_rotatable_bonds>  (1) 
12

>  <i_lp_mmshare_version>  (1) 
72125

>  <i_m_source_file_index>  (1) 
49

>  <i_f3d_flags>  (1) 
0

>  <num_sample>  (1) 
100

>  <b_lp_Chiralities_Consistent>  (1) 
1

>  <r_epik_Charging_Adjusted_Penalty>  (1) 
0.0012752337282245032

>  <r_epik_Ionization_Penalty>  (1) 
0.0012752337438600718

>  <r_epik_Ionization_Penalty_Charging>  (1) 
0.0012752337282245032

>  <r_epik_Ionization_Penalty_Neutral>  (1) 
1.5635568601569758e-11

>  <r_epik_State_Penalty>  (1) 
-0

>  <r_glide_ring_energy>  (1) 
0

>  <r_i_docking_score>  (1) 
-8.480540572878672

>  <r_i_glide_ecoul>  (1) 
-6.4034436798390324

>  <r_i_glide_eff_state_penalty>  (1) 
-0

>  <r_i_glide_einternal>  (1) 
16.408660284756149

>  <r_i_glide_emodel>  (1) 
-42.904325676873384

>  <r_i_glide_emodel_strain>  (1) 
2.2529104429138087

>  <r_i_glide_energy>  (1) 
-35.918691706725262

>  <r_i_glide_erotb>  (1) 
0.73840374044631085

>  <r_i_glide_esite>  (1) 
-0.12617367307264113

>  <r_i_glide_evdw>  (1) 
-29.51524802688623

>  <r_i_glide_gscore>  (1) 
-8.480540572878672

>  <r_i_glide_gscore_strain>  (1) 
0

>  <r_i_glide_hbond>  (1) 
-0.52013169180822816

>  <r_i_glide_ligand_efficiency>  (1) 
-0.25698607796602035

>  <r_i_glide_ligand_efficiency_ln>  (1) 
-1.8860283135191369

>  <r_i_glide_ligand_efficiency_sa>  (1) 
-0.82429166740699444

>  <r_i_glide_lipo>  (1) 
-4.2697673475585454

>  <r_i_glide_metal>  (1) 
-0

>  <r_i_glide_rewards>  (1) 
-1.8665926475654018

>  <r_lp_Energy>  (1) 
20.638030999999998

>  <r_lp_tautomer_probability>  (1) 
1

>  <s_epik_cmdline>  (1) 
J2VwaWtfcHl0aG9uJywgJy1waHQnLCAnMS4wJywgJy1waCcsICc3LjQnLCAnLXRuJywgJzgnLCAnLW1hJywgJzUwMCcsICctaW1hZScsICc8aW5maWxlLm1hZT4nLCAnLW9tYWUnLCAnPG91dGZpbGUubWFlPic=

>  <s_epik_input>  (1) 
Tz1DKFtPSF0pW0NAQEhdKE8xKVtDSDJdW0NASF0oW0NASF0xQyg9TylbQ0gzXSlbQ0gyXVtDSDJdW05IXVtDSDJdW0NASF0oW0NIM10pW0NAQEhdKE9bQ0gyXUMoW0NIM10pKFtDSDNdKVtDSDNdKVtDQEBIXShbQ0gyXTIpW0NIXT1bQ0hdW0NAQEhdKEYpQzIzW0NIMl1bQ0gyXTM=

>  <s_glide_docking_method>  (1) 
confgen

>  <s_i_glide_gridfile>  (1) 
gpcr_5ht2c_6bqh_protein_autoprepared_prepared

>  <s_lp_Force_Field>  (1) 
S-OPLS

>  <s_lp_Variant>  (1) 
DiffSBDD_48-1

>  <s_m_source_file>  (1) 
generated_GPCR_5HT2C_ligand_DiffSBDD_2026-06-23_prepared.sdf

>  <GenAI_Model>  (1) 
DiffSBDD

>  <Protein>  (1) 
GPCR_5HT2C

$$$$
DiffSBDD_53
     RDKit          3D

  0  0  0  0  0  0  0  0  0  0999 V3000
M  V30 BEGIN CTAB
M  V30 COUNTS 82 86 0 0 1
M  V30 BEGIN ATOM
M  V30 1 C 37.771581 32.017078 57.190501 0
M  V30 2 C 39.089060 25.355776 57.478139 0
M  V30 3 C 39.237766 30.213966 52.967790 0
M  V30 4 C 39.111733 31.342655 56.943473 0
M  V30 5 C 39.008755 27.335774 54.109563 0
M  V30 6 C 35.727417 34.138031 61.737926 0
M  V30 7 C 39.764394 33.509228 60.428552 0
M  V30 8 N 37.865055 33.333144 57.849917 0 CHG=1
M  V30 9 N 40.211913 30.635940 49.849389 0 CHG=1
M  V30 10 C 36.684361 24.489031 55.980649 0
M  V30 11 C 37.357319 33.402546 59.240686 0 CFG=1
M  V30 12 N 39.245216 30.226491 57.873029 0
M  V30 13 C 38.502712 28.481537 54.587409 0
M  V30 14 C 39.269250 26.186551 55.063716 0
M  V30 15 C 38.400624 32.894882 60.238015 0 CFG=1
M  V30 16 C 38.561870 27.718775 56.903263 0 CFG=1
M  V30 17 C 36.926990 34.845935 59.570340 0 CFG=2
M  V30 18 C 40.850148 30.313952 51.130465 0
M  V30 19 O 38.365817 31.502317 60.458479 0
M  V30 20 C 40.228486 29.268676 57.431107 0
M  V30 21 C 38.747177 23.910067 57.165032 0
M  V30 22 C 37.230914 23.737648 57.181888 0
M  V30 23 C 38.483077 26.280653 56.388247 0
M  V30 24 O 39.816660 27.949029 57.462994 0
M  V30 25 C 36.982406 25.972031 56.177459 0
M  V30 26 C 36.778467 35.067102 61.088457 0 CFG=2
M  V30 27 O 35.683863 35.136475 58.967762 0
M  V30 28 C 39.675480 28.113216 51.760306 0
M  V30 29 N 38.088979 34.914570 61.767577 0 CFG=2 CHG=1
M  V30 30 O 38.197108 28.634279 55.913961 0
M  V30 31 C 38.979401 36.096829 61.699575 0
M  V30 32 C 38.744710 33.593724 61.548724 0 CFG=2
M  V30 33 C 39.311003 27.154093 52.672568 0
M  V30 34 C 38.137911 29.651622 53.786737 0
M  V30 35 C 39.880654 29.554823 52.003393 0
M  V30 36 H 37.165987 31.332042 57.776717 0
M  V30 37 H 37.274612 32.170125 56.229631 0
M  V30 38 H 40.173437 25.470051 57.529287 0
M  V30 39 H 38.706130 25.616196 58.466445 0
M  V30 40 H 39.435584 31.267820 53.106491 0
M  V30 41 H 39.110547 30.961973 55.926796 0
M  V30 42 H 39.946620 32.039784 56.968053 0
M  V30 43 H 34.797759 34.137754 61.174117 0
M  V30 44 H 36.052190 33.099396 61.788590 0
M  V30 45 H 35.487569 34.471942 62.746050 0
M  V30 46 H 40.596285 32.821303 60.569926 0
M  V30 47 H 39.997162 34.389127 59.833014 0
M  V30 48 H 37.258324 33.928152 57.302846 0
M  V30 49 H 40.833566 31.234610 49.323381 0
M  V30 50 H 40.016507 29.786938 49.338022 0
M  V30 51 H 35.622639 24.311965 55.900285 0
M  V30 52 H 37.116194 24.115529 55.050723 0
M  V30 53 H 36.467691 32.774806 59.329813 0
M  V30 54 H 38.345830 29.777945 57.960787 0
M  V30 55 H 39.072282 25.242765 54.564132 0
M  V30 56 H 40.340290 26.196176 55.275011 0
M  V30 57 H 37.859701 27.869036 57.724915 0
M  V30 58 H 37.645053 35.566079 59.183876 0
M  V30 59 H 41.146447 31.250243 51.606541 0
M  V30 60 H 41.756466 29.734674 50.967791 0
M  V30 61 H 37.483720 31.229630 60.659784 0
M  V30 62 H 40.472724 29.430696 56.381041 0
M  V30 63 H 41.132075 29.337749 58.039072 0
M  V30 64 H 39.266801 23.182656 57.767765 0
M  V30 65 H 39.114625 23.737755 56.167731 0
M  V30 66 H 36.845127 24.158353 58.109714 0
M  V30 67 H 36.845140 22.716117 57.153545 0
M  V30 68 H 36.445146 26.291992 57.066474 0
M  V30 69 H 36.585959 26.537635 55.338239 0
M  V30 70 H 36.445392 36.093418 61.246989 0
M  V30 71 H 35.804345 35.443398 58.069878 0
M  V30 72 H 39.916577 27.755515 50.769521 0
M  V30 73 H 39.250224 36.334274 60.674390 0
M  V30 74 H 38.488751 36.972698 62.126149 0
M  V30 75 H 39.894290 35.923666 62.267410 0
M  V30 76 H 38.908136 33.019034 62.459413 0
M  V30 77 H 39.299846 26.138704 52.308391 0
M  V30 78 H 37.343225 29.337601 53.110399 0
M  V30 79 H 37.694365 30.431019 54.405906 0
M  V30 80 H 37.839483 34.892469 62.746015 0
M  V30 81 H 38.809365 33.681963 57.788517 0
M  V30 82 H 39.343970 31.123278 50.017017 0
M  V30 END ATOM
M  V30 BEGIN BOND
M  V30 1 1 4 1
M  V30 2 1 8 1
M  V30 3 1 11 8
M  V30 4 1 12 4
M  V30 5 2 13 5
M  V30 6 1 14 5
M  V30 7 1 15 7
M  V30 8 1 15 11
M  V30 9 1 17 11
M  V30 10 1 18 9
M  V30 11 1 15 19 CFG=1
M  V30 12 1 20 12
M  V30 13 1 21 2
M  V30 14 1 22 10
M  V30 15 1 22 21
M  V30 16 1 23 2
M  V30 17 1 23 14
M  V30 18 1 23 16
M  V30 19 1 24 16
M  V30 20 1 24 20
M  V30 21 1 25 10
M  V30 22 1 25 23
M  V30 23 1 26 6
M  V30 24 1 26 17
M  V30 25 1 27 17
M  V30 26 1 29 26
M  V30 27 1 30 13
M  V30 28 1 30 16
M  V30 29 1 31 29
M  V30 30 1 32 7
M  V30 31 1 32 15
M  V30 32 1 32 29
M  V30 33 1 33 5
M  V30 34 2 33 28
M  V30 35 1 34 3
M  V30 36 1 34 13
M  V30 37 2 35 3
M  V30 38 1 35 18
M  V30 39 1 35 28
M  V30 40 1 36 1
M  V30 41 1 37 1
M  V30 42 1 38 2
M  V30 43 1 39 2
M  V30 44 1 40 3
M  V30 45 1 41 4
M  V30 46 1 42 4
M  V30 47 1 43 6
M  V30 48 1 44 6
M  V30 49 1 45 6
M  V30 50 1 46 7
M  V30 51 1 47 7
M  V30 52 1 48 8
M  V30 53 1 49 9
M  V30 54 1 50 9
M  V30 55 1 51 10
M  V30 56 1 52 10
M  V30 57 1 11 53 CFG=3
M  V30 58 1 54 12
M  V30 59 1 55 14
M  V30 60 1 56 14
M  V30 61 1 16 57 CFG=1
M  V30 62 1 17 58 CFG=3
M  V30 63 1 59 18
M  V30 64 1 60 18
M  V30 65 1 61 19
M  V30 66 1 62 20
M  V30 67 1 63 20
M  V30 68 1 64 21
M  V30 69 1 65 21
M  V30 70 1 66 22
M  V30 71 1 67 22
M  V30 72 1 68 25
M  V30 73 1 69 25
M  V30 74 1 26 70 CFG=3
M  V30 75 1 71 27
M  V30 76 1 72 28
M  V30 77 1 73 31
M  V30 78 1 74 31
M  V30 79 1 75 31
M  V30 80 1 32 76 CFG=1
M  V30 81 1 77 33
M  V30 82 1 78 34
M  V30 83 1 79 34
M  V30 84 1 29 80 CFG=1
M  V30 85 1 81 8
M  V30 86 1 82 9
M  V30 END BOND
M  V30 END CTAB
M  END
>  <i_epik_Tot_Q>  (1) 
3

>  <i_epik_Tot_abs_Q>  (1) 
3

>  <i_i_glide_confnum>  (1) 
60

>  <i_i_glide_lignum>  (1) 
109

>  <i_i_glide_posenum>  (1) 
197

>  <i_i_glide_rotatable_bonds>  (1) 
10

>  <i_lp_mmshare_version>  (1) 
72125

>  <i_m_source_file_index>  (1) 
54

>  <i_f3d_flags>  (1) 
0

>  <num_sample>  (1) 
100

>  <b_lp_Chiralities_Consistent>  (1) 
1

>  <r_epik_Charging_Adjusted_Penalty>  (1) 
0.52217566130243886

>  <r_epik_Ionization_Penalty>  (1) 
0.30399825412207077

>  <r_epik_Ionization_Penalty_Charging>  (1) 
0.29355179195135561

>  <r_epik_Ionization_Penalty_Neutral>  (1) 
0.010446462170715176

>  <r_epik_State_Penalty>  (1) 
0.22862386935108323

>  <r_glide_ring_energy>  (1) 
0.00054235002800224672

>  <r_i_docking_score>  (1) 
-8.4632475536246154

>  <r_i_glide_ecoul>  (1) 
-7.7177234313811365

>  <r_i_glide_eff_state_penalty>  (1) 
0.22862386935108323

>  <r_i_glide_einternal>  (1) 
10.470641085327589

>  <r_i_glide_emodel>  (1) 
-58.549794417726211

>  <r_i_glide_emodel_strain>  (1) 
1.9292700916923025

>  <r_i_glide_energy>  (1) 
-36.85180521793999

>  <r_i_glide_erotb>  (1) 
0.58947078011706677

>  <r_i_glide_esite>  (1) 
-0.078456879282287395

>  <r_i_glide_evdw>  (1) 
-29.134081786558855

>  <r_i_glide_gscore>  (1) 
-8.6918714229756979

>  <r_i_glide_gscore_strain>  (1) 
0

>  <r_i_glide_hbond>  (1) 
-0.32000000000000001

>  <r_i_glide_ligand_efficiency>  (1) 
-0.24180707296070331

>  <r_i_glide_ligand_efficiency_ln>  (1) 
-1.8578706696799538

>  <r_i_glide_ligand_efficiency_sa>  (1) 
-0.79096696992707094

>  <r_i_glide_lipo>  (1) 
-5.0421613368108709

>  <r_i_glide_metal>  (1) 
-0

>  <r_i_glide_rewards>  (1) 
-1.2263613829644928

>  <r_lp_Energy>  (1) 
66.56347199999999

>  <s_epik_Chemistry_Notes>  (1) 
This compound contains an acetal/aminal-like group ( X-CH(R)-Y where X, Y are N, S, or O) that may be acid/base labile, releasing an aldehyde.

>  <s_epik_cmdline>  (1) 
J2VwaWtfcHl0aG9uJywgJy1waHQnLCAnMS4wJywgJy1waCcsICc3LjQnLCAnLXRuJywgJzgnLCAnLW1hJywgJzUwMCcsICctaW1hZScsICc8aW5maWxlLm1hZT4nLCAnLW9tYWUnLCAnPG91dGZpbGUubWFlPic=

>  <s_epik_input>  (1) 
W09IXVtDQEBdMTJbQ0BASF0oW0NIMl0xKU4oW0NIM10pW0NASF0oW0NIM10pW0NASF0oW09IXSlbQ0BIXTJbTkhdW0NIMl1bQ0gyXVtOSF1bQ0gyXU9bQ0BIXTNPQyhbQ0gyXVtDSF09QyhbQ0gyXVtOSDJdKVtDSF09W0NIXTQpPUM0W0NIMl1DMzVbQ0gyXVtDSDJdW0NIMl1bQ0gyXVtDSDJdNQ==

>  <s_glide_docking_method>  (1) 
confgen

>  <s_i_glide_gridfile>  (1) 
gpcr_5ht2c_6bqh_protein_autoprepared_prepared

>  <s_lp_Force_Field>  (1) 
S-OPLS

>  <s_lp_Variant>  (1) 
DiffSBDD_53-1

>  <s_m_source_file>  (1) 
generated_GPCR_5HT2C_ligand_DiffSBDD_2026-06-23_prepared.sdf

>  <GenAI_Model>  (1) 
DiffSBDD

>  <Protein>  (1) 
GPCR_5HT2C

$$$$
DiffSBDD_84
     RDKit          3D

  0  0  0  0  0  0  0  0  0  0999 V3000
M  V30 BEGIN CTAB
M  V30 COUNTS 77 81 0 0 1
M  V30 BEGIN ATOM
M  V30 1 C 41.595905 35.408352 65.920615 0
M  V30 2 C 38.908277 26.840994 58.931202 0
M  V30 3 C 40.001697 29.878219 60.667847 0
M  V30 4 C 37.204575 37.196795 62.411622 0
M  V30 5 S 39.950178 34.754165 60.967765 0
M  V30 6 C 38.226859 25.004740 55.194565 0
M  V30 7 C 39.063291 26.924820 56.359849 0
M  V30 8 C 36.019467 32.614337 61.367186 0
M  V30 9 O 37.237700 36.938541 63.805192 0
M  V30 10 C 38.312560 29.918697 58.878802 0
M  V30 11 C 39.972931 28.132692 56.486156 0
M  V30 12 C 38.161227 26.661400 57.579489 0 CFG=1
M  V30 13 C 38.146733 31.516425 60.833150 0
M  V30 14 N 41.446322 34.197302 66.754445 0 CHG=1
M  V30 15 C 38.571680 36.981292 61.716091 0
M  V30 16 C 41.923498 35.084816 64.447448 0
M  V30 17 N 39.048767 26.200178 55.308725 0
M  V30 18 C 37.384564 32.404817 61.634089 0
M  V30 19 N 41.339558 32.698014 62.057354 0
M  V30 20 N 39.433236 29.280585 59.583439 0
M  V30 21 C 36.993636 24.995107 56.101445 0
M  V30 22 C 37.507805 30.849126 59.766050 0
M  V30 23 N 39.099406 35.673798 62.101661 0
M  V30 24 C 39.642733 38.091873 61.885404 0
M  V30 25 C 39.938526 27.982276 59.047262 0 CFG=2
M  V30 26 O 40.844927 29.328462 61.375565 0
M  V30 27 C 36.140365 31.051348 59.513873 0
M  V30 28 O 39.245159 39.337422 61.351407 0
M  V30 29 C 37.438159 25.299518 57.521857 0
M  V30 30 C 41.138115 34.150744 62.190197 0 CFG=2
M  V30 31 C 40.800390 28.094715 57.779958 0
M  V30 32 N 40.184556 31.874609 62.234982 0
M  V30 33 N 39.756681 35.738505 63.400910 0 CHG=1
M  V30 34 C 35.399394 31.936337 60.309594 0
M  V30 35 C 39.625986 31.356225 60.974596 0 CFG=1
M  V30 36 C 40.718123 34.634970 63.590072 0 CFG=2
M  V30 37 H 42.410540 35.999035 66.341465 0
M  V30 38 H 40.699358 36.023836 66.002128 0
M  V30 39 H 39.460412 25.915301 59.097338 0
M  V30 40 H 38.214774 26.938333 59.755844 0
M  V30 41 H 36.471829 36.518141 61.972520 0
M  V30 42 H 36.833733 38.207046 62.234367 0
M  V30 43 H 37.887296 24.903534 54.167793 0
M  V30 44 H 38.845284 24.138088 55.408362 0
M  V30 45 H 35.448370 33.301301 61.974975 0
M  V30 46 H 36.345585 36.927609 64.129181 0
M  V30 47 H 38.701346 30.502852 58.044470 0
M  V30 48 H 37.623119 29.191866 58.470539 0
M  V30 49 H 39.367848 29.035478 56.428381 0
M  V30 50 H 41.254793 34.474194 67.708537 0
M  V30 51 H 40.686198 33.618531 66.427592 0
M  V30 52 H 38.347324 36.919989 60.649954 0
M  V30 53 H 42.704378 34.323486 64.414541 0
M  V30 54 H 42.368805 35.970634 63.988629 0
M  V30 55 H 37.853874 32.937503 62.444766 0
M  V30 56 H 42.081330 32.371680 62.675147 0
M  V30 57 H 36.275633 25.740009 55.767292 0
M  V30 58 H 36.492221 24.027752 56.053536 0
M  V30 59 H 39.905824 38.254828 62.931139 0
M  V30 60 H 40.546999 37.764825 61.368713 0
M  V30 61 H 40.636957 27.598680 59.789856 0
M  V30 62 H 35.661046 30.537650 58.692990 0
M  V30 63 H 39.142760 39.254811 60.413488 0
M  V30 64 H 36.562969 25.299698 58.167675 0
M  V30 65 H 38.092251 24.497089 57.866427 0
M  V30 66 H 42.045107 34.656765 61.903173 0
M  V30 67 H 41.477956 28.937759 57.850270 0
M  V30 68 H 41.453912 27.221674 57.729467 0
M  V30 69 H 39.468944 32.377599 62.752611 0
M  V30 70 H 40.240525 36.624601 63.423114 0
M  V30 71 H 34.354542 32.099854 60.101766 0
M  V30 72 H 40.045312 31.948292 60.167953 0
M  V30 73 H 40.192662 33.824167 64.093616 0
M  V30 74 H 39.011001 35.748063 64.087530 0
M  V30 75 H 37.365779 27.397250 57.504041 0
M  V30 76 H 40.646575 28.164972 55.632134 0
M  V30 77 H 42.302863 33.660356 66.741458 0
M  V30 END ATOM
M  V30 BEGIN BOND
M  V30 1 1 9 4
M  V30 2 1 11 7
M  V30 3 1 12 2
M  V30 4 1 12 7
M  V30 5 1 14 1
M  V30 6 1 15 4
M  V30 7 1 16 1
M  V30 8 1 17 6
M  V30 9 2 17 7
M  V30 10 1 18 8
M  V30 11 2 18 13
M  V30 12 1 20 3
M  V30 13 1 20 10
M  V30 14 1 21 6
M  V30 15 1 22 10
M  V30 16 1 22 13
M  V30 17 1 23 5
M  V30 18 1 23 15
M  V30 19 1 24 15
M  V30 20 1 25 2
M  V30 21 1 25 20
M  V30 22 2 26 3
M  V30 23 2 27 22
M  V30 24 1 28 24
M  V30 25 1 29 12
M  V30 26 1 29 21
M  V30 27 1 30 5
M  V30 28 1 30 19
M  V30 29 1 31 11
M  V30 30 1 31 25
M  V30 31 1 32 19
M  V30 32 1 33 23
M  V30 33 2 34 8
M  V30 34 1 34 27
M  V30 35 1 35 3
M  V30 36 1 35 13
M  V30 37 1 35 32
M  V30 38 1 36 16
M  V30 39 1 36 30
M  V30 40 1 36 33
M  V30 41 1 37 1
M  V30 42 1 38 1
M  V30 43 1 39 2
M  V30 44 1 40 2
M  V30 45 1 41 4
M  V30 46 1 42 4
M  V30 47 1 43 6
M  V30 48 1 44 6
M  V30 49 1 45 8
M  V30 50 1 46 9
M  V30 51 1 47 10
M  V30 52 1 48 10
M  V30 53 1 49 11
M  V30 54 1 50 14
M  V30 55 1 51 14
M  V30 56 1 52 15
M  V30 57 1 53 16
M  V30 58 1 54 16
M  V30 59 1 55 18
M  V30 60 1 56 19
M  V30 61 1 57 21
M  V30 62 1 58 21
M  V30 63 1 59 24
M  V30 64 1 60 24
M  V30 65 1 25 61 CFG=1
M  V30 66 1 62 27
M  V30 67 1 63 28
M  V30 68 1 64 29
M  V30 69 1 65 29
M  V30 70 1 30 66 CFG=3
M  V30 71 1 67 31
M  V30 72 1 68 31
M  V30 73 1 69 32
M  V30 74 1 70 33
M  V30 75 1 71 34
M  V30 76 1 35 72 CFG=3
M  V30 77 1 36 73 CFG=1
M  V30 78 1 74 33
M  V30 79 1 12 75 CFG=1
M  V30 80 1 76 11
M  V30 81 1 77 14
M  V30 END BOND
M  V30 END CTAB
M  END
>  <i_epik_Tot_Q>  (1) 
2

>  <i_epik_Tot_abs_Q>  (1) 
2

>  <i_i_glide_confnum>  (1) 
1929

>  <i_i_glide_lignum>  (1) 
201

>  <i_i_glide_posenum>  (1) 
218

>  <i_i_glide_rotatable_bonds>  (1) 
11

>  <i_lp_mmshare_version>  (1) 
72125

>  <i_m_source_file_index>  (1) 
85

>  <i_f3d_flags>  (1) 
0

>  <num_sample>  (1) 
100

>  <b_lp_Chiralities_Consistent>  (1) 
1

>  <r_epik_Charging_Adjusted_Penalty>  (1) 
0.034284474231679775

>  <r_epik_Ionization_Penalty>  (1) 
0.42650113434003467

>  <r_epik_Ionization_Penalty_Charging>  (1) 
0.012847136256187231

>  <r_epik_Ionization_Penalty_Neutral>  (1) 
0.41365399808384745

>  <r_epik_State_Penalty>  (1) 
0.021437337975492542

>  <r_glide_ring_energy>  (1) 
0.54760512030195185

>  <r_i_docking_score>  (1) 
-8.4564731618133493

>  <r_i_glide_ecoul>  (1) 
-8.0096561236419941

>  <r_i_glide_eff_state_penalty>  (1) 
0.021437337975492542

>  <r_i_glide_einternal>  (1) 
64.570570909386277

>  <r_i_glide_emodel>  (1) 
-49.929798106893742

>  <r_i_glide_emodel_strain>  (1) 
2.2205299164309622

>  <r_i_glide_energy>  (1) 
-52.668285117469964

>  <r_i_glide_erotb>  (1) 
0.60855438394346106

>  <r_i_glide_esite>  (1) 
0

>  <r_i_glide_evdw>  (1) 
-44.658628993827968

>  <r_i_glide_gscore>  (1) 
-8.477910499788841

>  <r_i_glide_gscore_strain>  (1) 
0

>  <r_i_glide_hbond>  (1) 
-0.60799999999999998

>  <r_i_glide_ligand_efficiency>  (1) 
-0.23490203227259304

>  <r_i_glide_ligand_efficiency_ln>  (1) 
-1.844973976405514

>  <r_i_glide_ligand_efficiency_sa>  (1) 
-0.77562942118160005

>  <r_i_glide_lipo>  (1) 
-4.0683806911094855

>  <r_i_glide_metal>  (1) 
-0

>  <r_i_glide_rewards>  (1) 
-0.97570432438511934

>  <r_lp_Energy>  (1) 
46.704704999999997

>  <r_lp_tautomer_probability>  (1) 
0.99998399999999998

>  <s_epik_Chemistry_Notes>  (1) 
This compound has an imine and may undergo hydrolysis. This compound contains an acetal/aminal-like group ( X-CH(R)-Y where X, Y are N, S, or O) that may be acid/base labile, releasing an aldehyde. This compound has a N-S or N-O group and may undergo hydrolysis at high or low pH.

>  <s_epik_cmdline>  (1) 
J2VwaWtfcHl0aG9uJywgJy1waHQnLCAnMS4wJywgJy1waCcsICc3LjQnLCAnLXRuJywgJzgnLCAnLW1hJywgJzUwMCcsICctaW1hZScsICc8aW5maWxlLm1hZT4nLCAnLW9tYWUnLCAnPG91dGZpbGUubWFlPic=

>  <s_epik_input>  (1) 
W09IXVtDSDJdW0NIXShbQ0gyXVtPSF0pTjFTW0NASF0oW0NASF0oW05IXTEpW0NIMl1bQ0gyXVtOSDJdKVtOSF1bTkhdW0NASF0yQyg9TylOKFtDSDJdYyhjMjMpW2NIXVtjSF1bY0hdW2NIXTMpW0NASF0oW0NIMl1bQ0gyXTQpW0NIMl1DKD1DNDUpW0NIMl1bQ0gyXVtDSDJdW05IXTU=

>  <s_glide_docking_method>  (1) 
confgen

>  <s_i_glide_gridfile>  (1) 
gpcr_5ht2c_6bqh_protein_autoprepared_prepared

>  <s_lp_Force_Field>  (1) 
S-OPLS

>  <s_lp_Variant>  (1) 
DiffSBDD_84-4

>  <s_m_source_file>  (1) 
generated_GPCR_5HT2C_ligand_DiffSBDD_2026-06-23_prepared.sdf

>  <GenAI_Model>  (1) 
DiffSBDD

>  <Protein>  (1) 
GPCR_5HT2C

$$$$
DiffSBDD_47
     RDKit          3D

  0  0  0  0  0  0  0  0  0  0999 V3000
M  V30 BEGIN CTAB
M  V30 COUNTS 51 52 0 0 1
M  V30 BEGIN ATOM
M  V30 1 O 40.842574 30.676612 61.860815 0
M  V30 2 C 38.839925 30.257403 60.569850 0
M  V30 3 C 39.175151 28.292212 57.363127 0
M  V30 4 C 39.725307 28.739617 50.411464 0
M  V30 5 C 39.242923 29.289134 53.126742 0
M  V30 6 C 37.518870 30.937703 60.419790 0
M  V30 7 C 39.008437 27.819347 51.193039 0
M  V30 8 C 37.264343 29.804417 58.160761 0
M  V30 9 C 38.724047 26.978767 58.034331 0
M  V30 10 O 36.913940 31.439063 61.367762 0
M  V30 11 C 37.968319 27.109580 53.384831 0 CFG=2
M  V30 12 C 38.797269 26.351541 54.440332 0
M  V30 13 O 40.016878 26.215254 54.319968 0
M  V30 14 C 38.039511 25.756283 55.640664 0 CFG=2
M  V30 15 C 38.785864 29.581032 58.115997 0 CFG=1
M  V30 16 C 36.904695 31.014996 59.019986 0
M  V30 17 C 40.205212 29.927613 50.981658 0
M  V30 18 C 39.406649 29.648609 59.503882 0
M  V30 19 S 39.147597 25.505609 57.063247 0
M  V30 20 C 38.762919 28.091965 52.550885 0
M  V30 21 C 39.966759 30.204339 52.341449 0
M  V30 22 C 40.974781 30.905032 50.135644 0
M  V30 23 C 37.338997 24.445533 55.256578 0
M  V30 24 O 36.845142 27.737752 53.947120 0
M  V30 25 C 39.480508 30.299757 61.953171 0
M  V30 26 H 40.880429 31.620062 61.800527 0
M  V30 27 H 38.751957 28.359937 56.362842 0
M  V30 28 H 40.257321 28.265472 57.226048 0
M  V30 29 H 39.906815 28.537752 49.369401 0
M  V30 30 H 39.053582 29.503605 54.168596 0
M  V30 31 H 38.639349 26.906770 50.747980 0
M  V30 32 H 36.877263 29.943242 57.150329 0
M  V30 33 H 36.746859 28.937482 58.567439 0
M  V30 34 H 39.177842 26.878894 59.020318 0
M  V30 35 H 37.645068 26.965113 58.169659 0
M  V30 36 H 37.570108 26.355485 52.711736 0
M  V30 37 H 37.271910 26.458674 55.960843 0
M  V30 38 H 39.222192 30.412133 57.559575 0
M  V30 39 H 37.252683 31.928245 58.537390 0
M  V30 40 H 35.820775 31.099291 59.104312 0
M  V30 41 H 40.365878 29.163869 59.622596 0
M  V30 42 H 40.334920 31.120436 52.781041 0
M  V30 43 H 41.766744 31.337687 50.732877 0
M  V30 44 H 41.443744 30.407469 49.288564 0
M  V30 45 H 40.317424 31.693087 49.767781 0
M  V30 46 H 36.571423 24.610830 54.500130 0
M  V30 47 H 38.045637 23.723841 54.853370 0
M  V30 48 H 36.855357 23.991869 56.122109 0
M  V30 49 H 36.364956 28.145607 53.243323 0
M  V30 50 H 39.416007 29.305859 62.396998 0
M  V30 51 H 38.980118 30.984617 62.638429 0
M  V30 END ATOM
M  V30 BEGIN BOND
M  V30 1 1 6 2
M  V30 2 2 7 4
M  V30 3 1 9 3
M  V30 4 2 10 6
M  V30 5 1 12 11
M  V30 6 2 13 12
M  V30 7 1 14 12
M  V30 8 1 15 3
M  V30 9 1 15 8
M  V30 10 1 16 6
M  V30 11 1 16 8
M  V30 12 1 17 4
M  V30 13 2 18 2
M  V30 14 1 18 15
M  V30 15 1 19 9
M  V30 16 1 19 14
M  V30 17 2 20 5
M  V30 18 1 20 7
M  V30 19 1 20 11
M  V30 20 1 21 5
M  V30 21 2 21 17
M  V30 22 1 22 17
M  V30 23 1 23 14
M  V30 24 1 24 11
M  V30 25 1 25 1
M  V30 26 1 25 2
M  V30 27 1 26 1
M  V30 28 1 27 3
M  V30 29 1 28 3
M  V30 30 1 29 4
M  V30 31 1 30 5
M  V30 32 1 31 7
M  V30 33 1 32 8
M  V30 34 1 33 8
M  V30 35 1 34 9
M  V30 36 1 35 9
M  V30 37 1 11 36 CFG=3
M  V30 38 1 14 37 CFG=1
M  V30 39 1 15 38 CFG=3
M  V30 40 1 39 16
M  V30 41 1 40 16
M  V30 42 1 41 18
M  V30 43 1 42 21
M  V30 44 1 43 22
M  V30 45 1 44 22
M  V30 46 1 45 22
M  V30 47 1 46 23
M  V30 48 1 47 23
M  V30 49 1 48 23
M  V30 50 1 49 24
M  V30 51 1 50 25
M  V30 52 1 51 25
M  V30 END BOND
M  V30 END CTAB
M  END
>  <i_epik_Tot_Q>  (1) 
0

>  <i_epik_Tot_abs_Q>  (1) 
0

>  <i_i_glide_confnum>  (1) 
350

>  <i_i_glide_lignum>  (1) 
100

>  <i_i_glide_posenum>  (1) 
183

>  <i_i_glide_rotatable_bonds>  (1) 
10

>  <i_lp_mmshare_version>  (1) 
72125

>  <i_m_source_file_index>  (1) 
48

>  <i_f3d_flags>  (1) 
0

>  <num_sample>  (1) 
100

>  <b_lp_Chiralities_Consistent>  (1) 
1

>  <r_epik_Charging_Adjusted_Penalty>  (1) 
0

>  <r_epik_Ionization_Penalty>  (1) 
1.6598549338111207e-05

>  <r_epik_Ionization_Penalty_Charging>  (1) 
0

>  <r_epik_Ionization_Penalty_Neutral>  (1) 
1.6598549338111207e-05

>  <r_epik_State_Penalty>  (1) 
-0

>  <r_glide_ring_energy>  (1) 
0

>  <r_i_docking_score>  (1) 
-8.4553760708714432

>  <r_i_glide_ecoul>  (1) 
-5.9248990909523664

>  <r_i_glide_eff_state_penalty>  (1) 
-0

>  <r_i_glide_einternal>  (1) 
7.9558640981206423

>  <r_i_glide_emodel>  (1) 
-69.556801970004102

>  <r_i_glide_emodel_strain>  (1) 
0.56418512697464962

>  <r_i_glide_energy>  (1) 
-47.928564836535116

>  <r_i_glide_erotb>  (1) 
1.1691057722696085

>  <r_i_glide_esite>  (1) 
0

>  <r_i_glide_evdw>  (1) 
-42.003665745582751

>  <r_i_glide_gscore>  (1) 
-8.4553760708714432

>  <r_i_glide_gscore_strain>  (1) 
0

>  <r_i_glide_hbond>  (1) 
-0.57483421702195703

>  <r_i_glide_ligand_efficiency>  (1) 
-0.3382150428348577

>  <r_i_glide_ligand_efficiency_ln>  (1) 
-2.0041775159702864

>  <r_i_glide_ligand_efficiency_sa>  (1) 
-0.98894678457954832

>  <r_i_glide_lipo>  (1) 
-3.9909065619274404

>  <r_i_glide_metal>  (1) 
-0

>  <r_i_glide_rewards>  (1) 
-2.0698229132696624

>  <r_lp_Energy>  (1) 
25.714537

>  <r_lp_tautomer_probability>  (1) 
1

>  <s_epik_cmdline>  (1) 
J2VwaWtfcHl0aG9uJywgJy1waHQnLCAnMS4wJywgJy1waCcsICc3LjQnLCAnLXRuJywgJzgnLCAnLW1hJywgJzUwMCcsICctaW1hZScsICc8aW5maWxlLm1hZT4nLCAnLW9tYWUnLCAnPG91dGZpbGUubWFlPic=

>  <s_epik_input>  (1) 
W09IXVtDSDJdQzE9W0NIXVtDQEhdKFtDSDJdW0NIMl1DMT1PKVtDSDJdW0NIMl1TXEMoW0NIM10pPUMoW09IXSlcW0NAQEhdKFtPSF0pYyhbY0hdW2NIXTIpW2NIXVtjSF1jMltDSDNd

>  <s_glide_docking_method>  (1) 
confgen

>  <s_i_glide_gridfile>  (1) 
gpcr_5ht2c_6bqh_protein_autoprepared_prepared

>  <s_lp_Force_Field>  (1) 
S-OPLS

>  <s_lp_Variant>  (1) 
DiffSBDD_47-2

>  <s_m_source_file>  (1) 
generated_GPCR_5HT2C_ligand_DiffSBDD_2026-06-23_prepared.sdf

>  <GenAI_Model>  (1) 
DiffSBDD

>  <Protein>  (1) 
GPCR_5HT2C

$$$$
DiffSBDD_66
     RDKit          3D

  0  0  0  0  0  0  0  0  0  0999 V3000
M  V30 BEGIN CTAB
M  V30 COUNTS 62 65 0 0 1
M  V30 BEGIN ATOM
M  V30 1 C 38.429164 29.266639 59.231475 0
M  V30 2 C 37.935198 30.316960 58.107053 0
M  V30 3 C 39.192738 26.147517 56.975684 0 CFG=2
M  V30 4 N 40.934158 30.891246 62.302560 0
M  V30 5 O 42.338283 33.337765 68.252843 0 CHG=-1
M  V30 6 O 37.027238 25.730329 55.943786 0
M  V30 7 O 39.855348 25.802153 58.167622 0
M  V30 8 C 42.673666 31.930114 66.344185 0
M  V30 9 C 39.798554 28.563901 57.459122 0
M  V30 10 C 39.034655 28.129444 55.299900 0
M  V30 11 N 39.615071 28.508291 58.789081 0
M  V30 12 C 38.557824 27.804272 52.794321 0
M  V30 13 C 41.590083 32.503555 64.211861 0
M  V30 14 N 40.845132 30.546999 61.001999 0
M  V30 15 C 39.815034 28.233172 50.678093 0
M  V30 16 C 39.453107 27.618540 56.575296 0
M  V30 17 C 38.341101 29.522826 55.306180 0 CFG=1
M  V30 18 C 37.475384 29.851903 56.633831 0
M  V30 19 C 39.645133 30.536051 53.493220 0
M  V30 20 C 40.667040 29.226858 61.022129 0
M  V30 21 C 40.732876 28.443055 59.729442 0
M  V30 22 C 37.703072 25.814714 57.177918 0
M  V30 23 C 40.445159 28.741695 62.346650 0
M  V30 24 C 41.308622 33.938940 66.172607 0
M  V30 25 C 39.191416 30.622517 54.716562 0
M  V30 26 C 41.297332 32.235148 62.745018 0
M  V30 27 C 42.438406 31.639349 64.986401 0
M  V30 28 O 41.334442 33.128940 61.897151 0
M  V30 29 Cl 43.244068 30.275354 64.271436 0
M  V30 30 C 40.622428 29.841081 63.131133 0
M  V30 31 C 39.918021 29.994833 52.331471 0
M  V30 32 C 39.095562 27.369990 54.173924 0
M  V30 33 C 41.060030 33.663001 64.814443 0
M  V30 34 C 39.458023 28.674610 51.893926 0
M  V30 35 C 42.104847 33.069202 66.936532 0
M  V30 36 H 38.529223 29.805953 60.168799 0
M  V30 37 H 38.663424 31.123948 58.015960 0
M  V30 38 H 39.606516 25.481836 56.217581 0
M  V30 39 H 37.125955 26.555697 55.493131 0
M  V30 40 H 39.840353 26.584331 58.703504 0
M  V30 41 H 43.307005 31.281454 66.930648 0
M  V30 42 H 39.924691 29.580230 57.125110 0
M  V30 43 H 37.063593 30.808063 58.543195 0
M  V30 44 H 37.584959 28.286023 52.870751 0
M  V30 45 H 38.330193 26.882075 52.260713 0
M  V30 46 H 40.436712 28.831643 50.028253 0
M  V30 47 H 39.489107 27.268000 50.316579 0
M  V30 48 H 37.645062 28.537852 59.407461 0
M  V30 49 H 37.526616 29.433213 54.591425 0
M  V30 50 H 36.845124 30.635318 56.256624 0
M  V30 51 H 36.845216 29.002333 56.849143 0
M  V30 52 H 41.645102 28.718973 59.197457 0
M  V30 53 H 40.861196 27.395064 59.984960 0
M  V30 54 H 37.590190 24.849247 57.674563 0
M  V30 55 H 37.221986 26.561211 57.808556 0
M  V30 56 H 40.239819 27.737636 62.671952 0
M  V30 57 H 40.884660 34.820947 66.629768 0
M  V30 58 H 39.379561 31.489411 55.333079 0
M  V30 59 H 40.586780 29.947139 64.205260 0
M  V30 60 H 40.527823 30.553770 51.636024 0
M  V30 61 H 39.537539 26.385872 54.220379 0
M  V30 62 H 40.445628 34.336662 64.235358 0
M  V30 END ATOM
M  V30 BEGIN BOND
M  V30 1 1 2 1
M  V30 2 1 7 3
M  V30 3 1 11 1
M  V30 4 1 11 9
M  V30 5 1 14 4
M  V30 6 1 16 3
M  V30 7 2 16 9
M  V30 8 1 16 10
M  V30 9 1 17 10
M  V30 10 1 18 2
M  V30 11 1 18 17
M  V30 12 2 20 14
M  V30 13 1 21 11
M  V30 14 1 21 20
M  V30 15 1 22 3
M  V30 16 1 22 6
M  V30 17 1 23 20
M  V30 18 1 25 17
M  V30 19 2 25 19
M  V30 20 1 26 4
M  V30 21 1 26 13
M  V30 22 1 27 8
M  V30 23 2 27 13
M  V30 24 2 28 26
M  V30 25 1 29 27
M  V30 26 1 30 4
M  V30 27 2 30 23
M  V30 28 2 31 19
M  V30 29 2 32 10
M  V30 30 1 32 12
M  V30 31 1 33 13
M  V30 32 2 33 24
M  V30 33 1 34 12
M  V30 34 2 34 15
M  V30 35 1 34 31
M  V30 36 1 35 5
M  V30 37 2 35 8
M  V30 38 1 35 24
M  V30 39 1 36 1
M  V30 40 1 37 2
M  V30 41 1 3 38 CFG=3
M  V30 42 1 39 6
M  V30 43 1 40 7
M  V30 44 1 41 8
M  V30 45 1 42 9
M  V30 46 1 43 2
M  V30 47 1 44 12
M  V30 48 1 45 12
M  V30 49 1 46 15
M  V30 50 1 47 15
M  V30 51 1 48 1
M  V30 52 1 17 49 CFG=3
M  V30 53 1 50 18
M  V30 54 1 51 18
M  V30 55 1 52 21
M  V30 56 1 53 21
M  V30 57 1 54 22
M  V30 58 1 55 22
M  V30 59 1 56 23
M  V30 60 1 57 24
M  V30 61 1 58 25
M  V30 62 1 59 30
M  V30 63 1 60 31
M  V30 64 1 61 32
M  V30 65 1 62 33
M  V30 END BOND
M  V30 END CTAB
M  END
>  <i_epik_Tot_Q>  (1) 
-1

>  <i_epik_Tot_abs_Q>  (1) 
1

>  <i_i_glide_confnum>  (1) 
54

>  <i_i_glide_lignum>  (1) 
145

>  <i_i_glide_posenum>  (1) 
66

>  <i_i_glide_rotatable_bonds>  (1) 
8

>  <i_lp_mmshare_version>  (1) 
72125

>  <i_m_source_file_index>  (1) 
67

>  <i_f3d_flags>  (1) 
0

>  <num_sample>  (1) 
100

>  <b_lp_Chiralities_Consistent>  (1) 
1

>  <r_epik_Charging_Adjusted_Penalty>  (1) 
0.13314888727576835

>  <r_epik_Ionization_Penalty>  (1) 
0.066709733675270222

>  <r_epik_Ionization_Penalty_Charging>  (1) 
0.066574443637884173

>  <r_epik_Ionization_Penalty_Neutral>  (1) 
0.00013529003738605556

>  <r_epik_State_Penalty>  (1) 
0.066574443637884159

>  <r_glide_ring_energy>  (1) 
0

>  <r_i_docking_score>  (1) 
-8.4500456796304082

>  <r_i_glide_ecoul>  (1) 
-4.0723635593202445

>  <r_i_glide_eff_state_penalty>  (1) 
0.066574443637884159

>  <r_i_glide_einternal>  (1) 
17.303832646886203

>  <r_i_glide_emodel>  (1) 
-63.556166397623542

>  <r_i_glide_emodel_strain>  (1) 
0.4360398042769873

>  <r_i_glide_energy>  (1) 
-49.989165016882474

>  <r_i_glide_erotb>  (1) 
0.50284807503681039

>  <r_i_glide_esite>  (1) 
-0.010519137716851789

>  <r_i_glide_evdw>  (1) 
-45.916801457562229

>  <r_i_glide_gscore>  (1) 
-8.516620123268293

>  <r_i_glide_gscore_strain>  (1) 
0

>  <r_i_glide_hbond>  (1) 
-0.27479431498516699

>  <r_i_glide_ligand_efficiency>  (1) 
-0.24142987656086881

>  <r_i_glide_ligand_efficiency_ln>  (1) 
-1.8549725653384184

>  <r_i_glide_ligand_efficiency_sa>  (1) 
-0.78973313549124791

>  <r_i_glide_lipo>  (1) 
-4.6290902857033993

>  <r_i_glide_metal>  (1) 
-0

>  <r_i_glide_rewards>  (1) 
-1.1983698531235367

>  <r_lp_Energy>  (1) 
64.718769999999992

>  <r_lp_tautomer_probability>  (1) 
0.99999944244275329

>  <s_epik_cmdline>  (1) 
J2VwaWtfcHl0aG9uJywgJy1waHQnLCAnMS4wJywgJy1waCcsICc3LjQnLCAnLXRuJywgJzgnLCAnLW1hJywgJzUwMCcsICctaW1hZScsICc8aW5maWxlLm1hZT4nLCAnLW9tYWUnLCAnPG91dGZpbGUubWFlPic=

>  <s_epik_input>  (1) 
W0NIXTEvW0NIMl1DKD1bQ0gyXSlbQ0hdPUM9W0NIXVtDQEBIXShDPTFcMilbQ0gyXS9bQ0hdPVtDSF1cTihbQ0gyXVtDQEBIXTJbQ0BASF0oW09IXSlbQ0gyXVtPSF0pW0NIMl1jKFtjSF1bY0hdMylubjNDKD1PKWM0YyhDbClbY0hdYyhbT0hdKVtjSF1bY0hdNA==

>  <s_glide_docking_method>  (1) 
confgen

>  <s_i_glide_gridfile>  (1) 
gpcr_5ht2c_6bqh_protein_autoprepared_prepared

>  <s_lp_Force_Field>  (1) 
S-OPLS

>  <s_lp_Variant>  (1) 
DiffSBDD_66-1

>  <s_m_source_file>  (1) 
generated_GPCR_5HT2C_ligand_DiffSBDD_2026-06-23_prepared.sdf

>  <GenAI_Model>  (1) 
DiffSBDD

>  <Protein>  (1) 
GPCR_5HT2C

$$$$
DiffSBDD_48
     RDKit          3D

  0  0  0  0  0  0  0  0  0  0999 V3000
M  V30 BEGIN CTAB
M  V30 COUNTS 75 77 0 0 1
M  V30 BEGIN ATOM
M  V30 1 C 40.804230 34.287568 62.805103 0
M  V30 2 C 40.032403 25.800392 56.947111 0
M  V30 3 C 39.971913 28.415500 61.869237 0
M  V30 4 C 37.666925 25.642944 55.791107 0 CFG=2
M  V30 5 C 39.974445 29.055175 49.513650 0
M  V30 6 O 40.860528 34.439457 64.044269 0
M  V30 7 C 39.416890 31.440120 50.189025 0
M  V30 8 C 41.558717 30.534479 50.715501 0
M  V30 9 C 39.370613 30.898371 62.493933 0 CFG=1
M  V30 10 C 39.465272 29.405337 51.850467 0
M  V30 11 C 40.624147 32.854725 62.283175 0 CFG=1
M  V30 12 C 38.686649 29.633488 54.163371 0 CFG=1
M  V30 13 C 38.209839 27.132930 53.829912 0
M  V30 14 C 38.837927 31.595914 61.212343 0 CFG=2
M  V30 15 C 38.694424 32.141295 54.415557 0
M  V30 16 C 40.443429 29.790071 62.329278 0
M  V30 17 F 37.834542 24.328992 55.932329 0
M  V30 18 O 40.891129 35.198059 61.949842 0 CHG=-1
M  V30 19 C 38.788864 30.818802 55.187413 0 CFG=1
M  V30 20 C 38.073251 31.417092 58.708457 0
M  V30 21 C 38.648275 30.714749 59.956124 0
M  V30 22 C 37.668732 30.926573 56.257802 0
M  V30 23 O 39.923697 32.010053 63.201156 0
M  V30 24 C 38.989275 26.069260 58.009110 0
M  V30 25 O 41.630763 30.002703 62.567822 0
M  V30 26 O 39.644488 29.978437 53.136248 0
M  V30 27 C 37.643855 26.021315 54.326916 0
M  V30 28 N 38.078359 30.448667 57.594231 0 CHG=1
M  V30 29 C 38.946750 28.165739 54.678210 0 CFG=2
M  V30 30 C 38.653075 27.897847 56.171775 0
M  V30 31 C 40.094014 30.119625 50.604262 0
M  V30 32 C 38.712433 26.430624 56.566528 0
M  V30 33 C 39.789951 32.766666 60.999726 0
M  V30 34 H 40.203028 24.763251 56.664373 0
M  V30 35 H 40.912525 26.440415 56.929494 0
M  V30 36 H 39.529140 28.442403 60.877973 0
M  V30 37 H 40.823965 27.736908 61.837604 0
M  V30 38 H 39.245268 28.008933 62.567625 0
M  V30 39 H 36.682938 25.854719 56.210609 0
M  V30 40 H 40.444966 28.125960 49.812503 0
M  V30 41 H 38.942517 28.756958 49.367782 0
M  V30 42 H 40.404376 29.359681 48.567755 0
M  V30 43 H 39.318165 32.120783 51.033440 0
M  V30 44 H 39.976405 31.952697 49.407744 0
M  V30 45 H 38.445047 31.337696 49.767839 0
M  V30 46 H 42.214927 29.719268 50.967813 0
M  V30 47 H 41.939768 30.931681 49.772221 0
M  V30 48 H 41.644714 31.337657 51.444018 0
M  V30 49 H 38.543748 30.473476 63.062977 0
M  V30 50 H 39.881696 28.401328 51.932263 0
M  V30 51 H 38.399802 29.287493 51.651123 0
M  V30 52 H 41.623168 32.456041 62.103925 0
M  V30 53 H 37.677398 29.685378 53.747604 0
M  V30 54 H 38.147643 27.324346 52.771520 0
M  V30 55 H 37.865953 32.017280 61.472996 0
M  V30 56 H 37.674949 32.340816 54.082532 0
M  V30 57 H 39.005580 32.981580 55.035505 0
M  V30 58 H 39.313607 32.137758 53.528902 0
M  V30 59 H 39.771181 30.788815 55.661157 0
M  V30 60 H 38.675507 32.284844 58.437320 0
M  V30 61 H 37.056552 31.767264 58.894198 0
M  V30 62 H 37.991020 29.881294 60.211950 0
M  V30 63 H 39.611229 30.282406 59.680170 0
M  V30 64 H 37.333012 31.960464 56.360223 0
M  V30 65 H 36.799670 30.361316 55.924261 0
M  V30 66 H 39.190850 26.875930 58.710070 0
M  V30 67 H 38.450586 25.219472 58.422218 0
M  V30 68 H 37.134772 25.339561 53.662090 0
M  V30 69 H 37.447430 29.701003 57.844686 0
M  V30 70 H 40.006628 27.950527 54.568161 0
M  V30 71 H 39.376722 28.436558 56.780852 0
M  V30 72 H 37.648545 28.235470 56.416624 0
M  V30 73 H 40.450738 32.580475 60.167768 0
M  V30 74 H 39.232164 33.677428 60.774933 0
M  V30 75 H 39.011457 30.073986 57.512553 0
M  V30 END ATOM
M  V30 BEGIN BOND
M  V30 1 2 6 1
M  V30 2 1 11 1
M  V30 3 1 14 9
M  V30 4 1 16 3
M  V30 5 1 16 9
M  V30 6 1 17 4
M  V30 7 1 18 1
M  V30 8 1 19 12
M  V30 9 1 19 15
M  V30 10 1 21 14
M  V30 11 1 21 20
M  V30 12 1 22 19
M  V30 13 1 23 9
M  V30 14 1 23 11
M  V30 15 1 24 2
M  V30 16 2 25 16
M  V30 17 1 26 10
M  V30 18 1 26 12
M  V30 19 1 27 4
M  V30 20 2 27 13
M  V30 21 1 28 20
M  V30 22 1 28 22
M  V30 23 1 29 12
M  V30 24 1 29 13
M  V30 25 1 30 29
M  V30 26 1 31 5
M  V30 27 1 31 7
M  V30 28 1 31 8
M  V30 29 1 31 10
M  V30 30 1 32 2
M  V30 31 1 32 4
M  V30 32 1 32 24
M  V30 33 1 32 30
M  V30 34 1 33 11
M  V30 35 1 33 14
M  V30 36 1 34 2
M  V30 37 1 35 2
M  V30 38 1 36 3
M  V30 39 1 37 3
M  V30 40 1 38 3
M  V30 41 1 4 39 CFG=1
M  V30 42 1 40 5
M  V30 43 1 41 5
M  V30 44 1 42 5
M  V30 45 1 43 7
M  V30 46 1 44 7
M  V30 47 1 45 7
M  V30 48 1 46 8
M  V30 49 1 47 8
M  V30 50 1 48 8
M  V30 51 1 9 49 CFG=1
M  V30 52 1 50 10
M  V30 53 1 51 10
M  V30 54 1 11 52 CFG=3
M  V30 55 1 12 53 CFG=3
M  V30 56 1 54 13
M  V30 57 1 14 55 CFG=1
M  V30 58 1 56 15
M  V30 59 1 57 15
M  V30 60 1 58 15
M  V30 61 1 19 59 CFG=1
M  V30 62 1 60 20
M  V30 63 1 61 20
M  V30 64 1 62 21
M  V30 65 1 63 21
M  V30 66 1 64 22
M  V30 67 1 65 22
M  V30 68 1 66 24
M  V30 69 1 67 24
M  V30 70 1 68 27
M  V30 71 1 69 28
M  V30 72 1 29 70 CFG=1
M  V30 73 1 71 30
M  V30 74 1 72 30
M  V30 75 1 73 33
M  V30 76 1 74 33
M  V30 77 1 75 28
M  V30 END BOND
M  V30 END CTAB
M  END
>  <i_epik_Tot_Q>  (1) 
0

>  <i_epik_Tot_abs_Q>  (1) 
2

>  <i_i_glide_confnum>  (1) 
1055

>  <i_i_glide_lignum>  (1) 
101

>  <i_i_glide_posenum>  (1) 
71

>  <i_i_glide_rotatable_bonds>  (1) 
12

>  <i_lp_mmshare_version>  (1) 
72125

>  <i_m_source_file_index>  (1) 
49

>  <i_f3d_flags>  (1) 
0

>  <num_sample>  (1) 
100

>  <b_lp_Chiralities_Consistent>  (1) 
1

>  <r_epik_Charging_Adjusted_Penalty>  (1) 
0.0012752337282245032

>  <r_epik_Ionization_Penalty>  (1) 
0.0012752337438600718

>  <r_epik_Ionization_Penalty_Charging>  (1) 
0.0012752337282245032

>  <r_epik_Ionization_Penalty_Neutral>  (1) 
1.5635568601569758e-11

>  <r_epik_State_Penalty>  (1) 
-0

>  <r_glide_ring_energy>  (1) 
0

>  <r_i_docking_score>  (1) 
-8.4311009577064215

>  <r_i_glide_ecoul>  (1) 
-4.185985728853244

>  <r_i_glide_eff_state_penalty>  (1) 
-0

>  <r_i_glide_einternal>  (1) 
11.300273145493502

>  <r_i_glide_emodel>  (1) 
-42.197050276461844

>  <r_i_glide_emodel_strain>  (1) 
4.1632342391111763

>  <r_i_glide_energy>  (1) 
-34.669234508794503

>  <r_i_glide_erotb>  (1) 
0.73840374044631085

>  <r_i_glide_esite>  (1) 
-0.10424272550176467

>  <r_i_glide_evdw>  (1) 
-30.48324877994126

>  <r_i_glide_gscore>  (1) 
-8.4311009577064215

>  <r_i_glide_gscore_strain>  (1) 
0.040808559777794073

>  <r_i_glide_hbond>  (1) 
-0.32000000000000001

>  <r_i_glide_ligand_efficiency>  (1) 
-0.25548790780928549

>  <r_i_glide_ligand_efficiency_ln>  (1) 
-1.8750331990894558

>  <r_i_glide_ligand_efficiency_sa>  (1) 
-0.81948623519709207

>  <r_i_glide_lipo>  (1) 
-4.2801134613059997

>  <r_i_glide_metal>  (1) 
-0

>  <r_i_glide_rewards>  (1) 
-2.3538967727977114

>  <r_lp_Energy>  (1) 
20.638030999999998

>  <r_lp_tautomer_probability>  (1) 
1

>  <s_epik_cmdline>  (1) 
J2VwaWtfcHl0aG9uJywgJy1waHQnLCAnMS4wJywgJy1waCcsICc3LjQnLCAnLXRuJywgJzgnLCAnLW1hJywgJzUwMCcsICctaW1hZScsICc8aW5maWxlLm1hZT4nLCAnLW9tYWUnLCAnPG91dGZpbGUubWFlPic=

>  <s_epik_input>  (1) 
Tz1DKFtPSF0pW0NAQEhdKE8xKVtDSDJdW0NASF0oW0NASF0xQyg9TylbQ0gzXSlbQ0gyXVtDSDJdW05IXVtDSDJdW0NASF0oW0NIM10pW0NAQEhdKE9bQ0gyXUMoW0NIM10pKFtDSDNdKVtDSDNdKVtDQEBIXShbQ0gyXTIpW0NIXT1bQ0hdW0NAQEhdKEYpQzIzW0NIMl1bQ0gyXTM=

>  <s_glide_docking_method>  (1) 
confgen

>  <s_i_glide_gridfile>  (1) 
gpcr_5ht2c_6bqh_protein_autoprepared_prepared

>  <s_lp_Force_Field>  (1) 
S-OPLS

>  <s_lp_Variant>  (1) 
DiffSBDD_48-1

>  <s_m_source_file>  (1) 
generated_GPCR_5HT2C_ligand_DiffSBDD_2026-06-23_prepared.sdf

>  <GenAI_Model>  (1) 
DiffSBDD

>  <Protein>  (1) 
GPCR_5HT2C

$$$$
DiffSBDD_63
     RDKit          3D

  0  0  0  0  0  0  0  0  0  0999 V3000
M  V30 BEGIN CTAB
M  V30 COUNTS 83 88 0 0 1
M  V30 BEGIN ATOM
M  V30 1 F 37.814536 26.127028 54.021802 0
M  V30 2 C 37.626469 36.296405 60.652676 0
M  V30 3 C 38.959789 26.802987 53.927282 0 CFG=1
M  V30 4 C 40.044497 29.882317 65.968028 0
M  V30 5 C 39.337811 26.936900 58.445249 0
M  V30 6 C 38.791298 29.156165 59.680384 0 CFG=1
M  V30 7 N 38.205047 28.673813 52.667284 0 CHG=1
M  V30 8 C 41.602069 34.326671 63.270877 0
M  V30 9 C 39.474721 37.214552 62.076931 0
M  V30 10 C 39.760631 33.282487 61.807838 0 CFG=2
M  V30 11 C 41.193933 33.137744 62.411152 0 CFG=2
M  V30 12 C 39.352564 26.560976 56.971422 0
M  V30 13 C 40.916816 35.479009 63.317719 0
M  V30 14 C 38.256076 35.080399 60.621914 0
M  V30 15 N 36.445194 36.319527 59.896916 0
M  V30 16 N 38.433648 28.769054 57.233918 0 CHG=1
M  V30 17 C 38.446124 27.612566 56.310070 0 CFG=1
M  V30 18 C 42.410946 29.890301 65.002275 0
M  V30 19 C 34.873324 34.855239 58.628776 0
M  V30 20 O 40.446892 28.137771 61.106217 0
M  V30 21 O 39.661916 32.417944 60.680379 0
M  V30 22 S 37.369377 33.934870 59.639544 0
M  V30 23 C 37.996669 28.977964 54.103499 0 CFG=2
M  V30 24 C 39.292221 28.464887 58.395145 0 CFG=2
M  V30 25 C 38.256607 30.465395 54.400124 0
M  V30 26 C 39.536793 34.738633 61.322523 0 CFG=1
M  V30 27 C 39.770561 29.125099 60.841876 0
M  V30 28 C 36.138332 35.134993 59.367751 0
M  V30 29 O 40.462761 30.581877 67.118896 0
M  V30 30 C 40.930438 30.232010 64.758658 0 CFG=2
M  V30 31 C 40.736600 31.693517 64.315319 0
M  V30 32 C 38.987175 31.221672 60.903563 0 CFG=2
M  V30 33 O 41.411209 31.897134 63.079427 0
M  V30 34 C 39.655322 35.731751 62.518990 0 CFG=2
M  V30 35 O 39.795149 30.270629 61.514161 0
M  V30 36 C 39.020559 27.453429 52.548559 0
M  V30 37 C 38.591740 30.653643 59.535388 0
M  V30 38 C 38.905532 27.998807 54.882851 0 CFG=2
M  V30 39 C 38.093046 37.502426 61.407416 0
M  V30 40 H 39.783504 26.112845 54.117315 0
M  V30 41 H 40.074028 28.811327 66.172054 0
M  V30 42 H 39.003378 30.137750 65.765921 0
M  V30 43 H 40.210257 26.552048 58.967767 0
M  V30 44 H 38.445320 26.537234 58.929320 0
M  V30 45 H 37.864608 28.697523 60.019962 0
M  V30 46 H 38.672471 29.438635 52.200799 0
M  V30 47 H 42.495956 34.211269 63.865809 0
M  V30 48 H 39.632432 37.892532 62.916443 0
M  V30 49 H 40.271002 37.438820 61.367766 0
M  V30 50 H 38.985385 33.072149 62.544434 0
M  V30 51 H 41.899309 33.140576 61.579481 0
M  V30 52 H 40.374629 26.637510 56.595435 0
M  V30 53 H 39.013980 25.538863 56.796457 0
M  V30 54 H 41.261356 36.282587 63.952584 0
M  V30 55 H 37.485657 28.909914 57.556447 0
M  V30 56 H 37.433538 27.211032 56.286818 0
M  V30 57 H 42.847497 30.523751 65.774863 0
M  V30 58 H 42.529815 28.851440 65.311052 0
M  V30 59 H 42.999282 30.029218 64.094693 0
M  V30 60 H 34.135339 34.418497 59.301090 0
M  V30 61 H 34.454756 35.748899 58.167817 0
M  V30 62 H 35.086215 34.137803 57.845105 0
M  V30 63 H 36.952231 28.747909 54.320444 0
M  V30 64 H 40.293757 28.827064 58.152340 0
M  V30 65 H 38.007038 30.725066 55.428441 0
M  V30 66 H 39.299641 30.736182 54.230762 0
M  V30 67 H 37.645437 31.109038 53.767921 0
M  V30 68 H 40.342126 34.965664 60.621694 0
M  V30 69 H 41.316417 30.261436 67.367887 0
M  V30 70 H 40.587583 29.597566 63.941277 0
M  V30 71 H 39.673060 31.886898 64.200193 0
M  V30 72 H 41.111492 32.378170 65.076942 0
M  V30 73 H 38.102387 31.381670 61.521983 0
M  V30 74 H 38.845187 35.525216 63.217323 0
M  V30 75 H 40.045008 27.739912 52.307445 0
M  V30 76 H 38.661339 26.808433 51.746555 0
M  V30 77 H 37.563309 30.927527 59.296475 0
M  V30 78 H 39.245124 31.068144 58.767386 0
M  V30 79 H 39.907686 28.425721 54.951858 0
M  V30 80 H 37.363824 37.737983 62.182977 0
M  V30 81 H 38.152017 38.378634 60.761137 0
M  V30 82 H 38.754034 29.613069 56.781236 0
M  V30 83 H 37.307765 28.505161 52.232680 0
M  V30 END ATOM
M  V30 BEGIN BOND
M  V30 1 1 3 1
M  V30 2 1 11 8
M  V30 3 1 11 10
M  V30 4 1 12 5
M  V30 5 2 13 8
M  V30 6 2 14 2
M  V30 7 1 15 2
M  V30 8 1 17 12
M  V30 9 1 17 16
M  V30 10 1 21 10
M  V30 11 1 22 14
M  V30 12 1 23 7
M  V30 13 1 24 5
M  V30 14 1 24 6
M  V30 15 1 24 16
M  V30 16 1 25 23
M  V30 17 1 26 10
M  V30 18 1 26 14
M  V30 19 1 27 6
M  V30 20 2 27 20
M  V30 21 2 28 15
M  V30 22 1 28 19
M  V30 23 1 28 22
M  V30 24 1 29 4
M  V30 25 1 30 4
M  V30 26 1 30 18
M  V30 27 1 31 30
M  V30 28 1 32 21
M  V30 29 1 33 11
M  V30 30 1 33 31
M  V30 31 1 34 9
M  V30 32 1 34 13
M  V30 33 1 34 26
M  V30 34 1 35 27
M  V30 35 1 35 32
M  V30 36 1 36 3
M  V30 37 1 36 7
M  V30 38 1 37 6
M  V30 39 1 37 32
M  V30 40 1 38 3
M  V30 41 1 38 17
M  V30 42 1 38 23
M  V30 43 1 39 2
M  V30 44 1 39 9
M  V30 45 1 3 40 CFG=1
M  V30 46 1 41 4
M  V30 47 1 42 4
M  V30 48 1 43 5
M  V30 49 1 44 5
M  V30 50 1 6 45 CFG=1
M  V30 51 1 46 7
M  V30 52 1 47 8
M  V30 53 1 48 9
M  V30 54 1 49 9
M  V30 55 1 10 50 CFG=1
M  V30 56 1 11 51 CFG=3
M  V30 57 1 52 12
M  V30 58 1 53 12
M  V30 59 1 54 13
M  V30 60 1 55 16
M  V30 61 1 17 56 CFG=3
M  V30 62 1 57 18
M  V30 63 1 58 18
M  V30 64 1 59 18
M  V30 65 1 60 19
M  V30 66 1 61 19
M  V30 67 1 62 19
M  V30 68 1 23 63 CFG=1
M  V30 69 1 24 64 CFG=3
M  V30 70 1 65 25
M  V30 71 1 66 25
M  V30 72 1 67 25
M  V30 73 1 26 68 CFG=3
M  V30 74 1 69 29
M  V30 75 1 30 70 CFG=3
M  V30 76 1 71 31
M  V30 77 1 72 31
M  V30 78 1 32 73 CFG=1
M  V30 79 1 34 74 CFG=1
M  V30 80 1 75 36
M  V30 81 1 76 36
M  V30 82 1 77 37
M  V30 83 1 78 37
M  V30 84 1 38 79 CFG=1
M  V30 85 1 80 39
M  V30 86 1 81 39
M  V30 87 1 82 16
M  V30 88 1 83 7
M  V30 END BOND
M  V30 END CTAB
M  END
>  <i_epik_Tot_Q>  (1) 
2

>  <i_epik_Tot_abs_Q>  (1) 
2

>  <i_i_glide_confnum>  (1) 
385

>  <i_i_glide_lignum>  (1) 
141

>  <i_i_glide_posenum>  (1) 
368

>  <i_i_glide_rotatable_bonds>  (1) 
9

>  <i_lp_mmshare_version>  (1) 
72125

>  <i_m_source_file_index>  (1) 
64

>  <i_f3d_flags>  (1) 
0

>  <num_sample>  (1) 
100

>  <b_lp_Chiralities_Consistent>  (1) 
1

>  <r_epik_Charging_Adjusted_Penalty>  (1) 
0.080070908620723774

>  <r_epik_Ionization_Penalty>  (1) 
0.041568301575603359

>  <r_epik_Ionization_Penalty_Charging>  (1) 
0.040241786303222601

>  <r_epik_Ionization_Penalty_Neutral>  (1) 
0.0013265152723807572

>  <r_epik_State_Penalty>  (1) 
0.039829122317501166

>  <r_glide_ring_energy>  (1) 
0.79944395753776409

>  <r_i_docking_score>  (1) 
-8.4308407369191301

>  <r_i_glide_ecoul>  (1) 
-1.746657202346066

>  <r_i_glide_eff_state_penalty>  (1) 
0.039829122317501166

>  <r_i_glide_einternal>  (1) 
14.669296538200228

>  <r_i_glide_emodel>  (1) 
-68.821930455540723

>  <r_i_glide_emodel_strain>  (1) 
0

>  <r_i_glide_energy>  (1) 
-49.788189440822734

>  <r_i_glide_erotb>  (1) 
0.43483266289788453

>  <r_i_glide_esite>  (1) 
0

>  <r_i_glide_evdw>  (1) 
-48.04153223847667

>  <r_i_glide_gscore>  (1) 
-8.4706698592366312

>  <r_i_glide_gscore_strain>  (1) 
0

>  <r_i_glide_hbond>  (1) 
0

>  <r_i_glide_ligand_efficiency>  (1) 
-0.21617540351074693

>  <r_i_glide_ligand_efficiency_ln>  (1) 
-1.8078115776417365

>  <r_i_glide_ligand_efficiency_sa>  (1) 
-0.73309650208384991

>  <r_i_glide_lipo>  (1) 
-4.5007176772579145

>  <r_i_glide_metal>  (1) 
-0

>  <r_i_glide_rewards>  (1) 
-1.7407096526008583

>  <r_lp_Energy>  (1) 
21.205790999999998

>  <s_epik_Chemistry_Notes>  (1) 
This compound has an ester and may undergo hydrolysis at high or low pH. This compound contains an acetal/aminal-like group ( X-CH(R)-Y where X, Y are N, S, or O) that may be acid/base labile, releasing an aldehyde.

>  <s_epik_cmdline>  (1) 
J2VwaWtfcHl0aG9uJywgJy1waHQnLCAnMS4wJywgJy1waCcsICc3LjQnLCAnLXRuJywgJzgnLCAnLW1hJywgJzUwMCcsICctaW1hZScsICc8aW5maWxlLm1hZT4nLCAnLW9tYWUnLCAnPG91dGZpbGUubWFlPic=

>  <s_epik_input>  (1) 
RltDQEhdMVtDSDJdW05IXVtDQEhdKFtDSDNdKVtDQEhdMVtDQEhdMltDSDJdW0NIMl1bQ0BASF0oW05IXTIpW0NASF0zQyg9TylPW0NASF0oW0NIMl0zKU9bQ0BIXTRbQ0BIXShPW0NIMl1bQ0BASF0oW0NIM10pW0NIMl1bT0hdKVtDSF09W0NIXVtDQEBIXShbQ0gyXVtDSDJdNSlbQ0BASF00YyhjNTYpc2MobjYpW0NIM10=

>  <s_glide_docking_method>  (1) 
confgen

>  <s_i_glide_gridfile>  (1) 
gpcr_5ht2c_6bqh_protein_autoprepared_prepared

>  <s_lp_Force_Field>  (1) 
S-OPLS

>  <s_lp_Variant>  (1) 
DiffSBDD_63-3

>  <s_m_source_file>  (1) 
generated_GPCR_5HT2C_ligand_DiffSBDD_2026-06-23_prepared.sdf

>  <GenAI_Model>  (1) 
DiffSBDD

>  <Protein>  (1) 
GPCR_5HT2C

$$$$
DiffSBDD_41
     RDKit          3D

  0  0  0  0  0  0  0  0  0  0999 V3000
M  V30 BEGIN CTAB
M  V30 COUNTS 52 53 0 0 1
M  V30 BEGIN ATOM
M  V30 1 C 39.112641 28.807819 53.771918 0
M  V30 2 C 38.857930 26.923563 57.465767 0 CFG=1
M  V30 3 C 38.580592 32.011260 57.130515 0
M  V30 4 C 39.271180 29.205468 59.681895 0
M  V30 5 C 38.647436 31.241952 60.896839 0
M  V30 6 C 38.453872 31.924679 59.685177 0
M  V30 7 C 39.071520 29.899934 60.896228 0
M  V30 8 O 39.293140 28.126014 50.170437 0
M  V30 9 C 39.607713 26.818771 58.786112 0
M  V30 10 S 39.916058 27.368832 56.043967 0
M  V30 11 N 37.645316 31.398232 56.199840 0 CHG=1
M  V30 12 C 39.941713 30.065162 51.397281 0
M  V30 13 C 40.045312 30.740734 52.623338 0
M  V30 14 C 38.030220 33.383273 59.707537 0
M  V30 15 C 38.214978 25.511578 57.287958 0
M  V30 16 C 39.414699 28.765665 51.356664 0
M  V30 17 C 39.741783 27.785225 59.738950 0
M  V30 18 C 39.640227 30.113299 53.812998 0
M  V30 19 C 37.644876 24.697534 54.914489 0
M  V30 20 C 39.065080 29.889514 58.457660 0
M  V30 21 C 37.124328 25.305957 56.221655 0
M  V30 22 F 40.340401 30.670200 50.252551 0
M  V30 23 C 39.000386 28.134577 52.540486 0
M  V30 24 C 38.682712 31.255058 58.455419 0
M  V30 25 C 38.618760 28.143387 55.036022 0
M  V30 26 H 38.042526 27.634768 57.580866 0
M  V30 27 H 38.310802 33.060255 57.229437 0
M  V30 28 H 39.566458 32.008625 56.666572 0
M  V30 29 H 38.488243 31.754283 61.834837 0
M  V30 30 H 39.236866 29.391856 61.836294 0
M  V30 31 H 39.453699 28.712970 49.445257 0
M  V30 32 H 40.045270 25.853188 58.977407 0
M  V30 33 H 37.724398 31.812723 55.283482 0
M  V30 34 H 37.771807 30.401403 56.161343 0
M  V30 35 H 40.446338 31.737559 52.650194 0
M  V30 36 H 38.860685 34.019262 59.402872 0
M  V30 37 H 37.176127 33.563984 59.054802 0
M  V30 38 H 37.734435 33.688610 60.710779 0
M  V30 39 H 38.991820 24.755460 57.159137 0
M  V30 40 H 37.738550 25.251434 58.234772 0
M  V30 41 H 40.251957 27.512831 60.651823 0
M  V30 42 H 39.726958 30.633642 54.752105 0
M  V30 43 H 36.851247 24.610374 54.170902 0
M  V30 44 H 38.448897 25.286498 54.479495 0
M  V30 45 H 38.041633 23.699687 55.086497 0
M  V30 46 H 39.254030 29.399357 57.529255 0
M  V30 47 H 36.377459 24.615520 56.615098 0
M  V30 48 H 36.581344 26.226648 56.043402 0
M  V30 49 H 38.584611 27.137634 52.503252 0
M  V30 50 H 38.077649 28.871507 55.628999 0
M  V30 51 H 37.879456 27.407278 54.742653 0
M  V30 52 H 36.684119 31.596355 56.552374 0
M  V30 END ATOM
M  V30 BEGIN BOND
M  V30 1 1 6 5
M  V30 2 1 7 4
M  V30 3 2 7 5
M  V30 4 1 9 2
M  V30 5 1 10 2
M  V30 6 1 11 3
M  V30 7 1 13 12
M  V30 8 1 14 6
M  V30 9 1 15 2
M  V30 10 1 16 8
M  V30 11 2 16 12
M  V30 12 1 17 4
M  V30 13 2 17 9
M  V30 14 1 18 1
M  V30 15 2 18 13
M  V30 16 2 20 4
M  V30 17 1 21 15
M  V30 18 1 21 19
M  V30 19 1 22 12
M  V30 20 2 23 1
M  V30 21 1 23 16
M  V30 22 1 24 3
M  V30 23 2 24 6
M  V30 24 1 24 20
M  V30 25 1 25 1
M  V30 26 1 25 10
M  V30 27 1 2 26 CFG=1
M  V30 28 1 27 3
M  V30 29 1 28 3
M  V30 30 1 29 5
M  V30 31 1 30 7
M  V30 32 1 31 8
M  V30 33 1 32 9
M  V30 34 1 33 11
M  V30 35 1 34 11
M  V30 36 1 35 13
M  V30 37 1 36 14
M  V30 38 1 37 14
M  V30 39 1 38 14
M  V30 40 1 39 15
M  V30 41 1 40 15
M  V30 42 1 41 17
M  V30 43 1 42 18
M  V30 44 1 43 19
M  V30 45 1 44 19
M  V30 46 1 45 19
M  V30 47 1 46 20
M  V30 48 1 47 21
M  V30 49 1 48 21
M  V30 50 1 49 23
M  V30 51 1 50 25
M  V30 52 1 51 25
M  V30 53 1 52 11
M  V30 END BOND
M  V30 END CTAB
M  END
>  <i_epik_Tot_Q>  (1) 
1

>  <i_epik_Tot_abs_Q>  (1) 
1

>  <i_i_glide_confnum>  (1) 
198

>  <i_i_glide_lignum>  (1) 
89

>  <i_i_glide_posenum>  (1) 
246

>  <i_i_glide_rotatable_bonds>  (1) 
9

>  <i_lp_mmshare_version>  (1) 
72125

>  <i_m_source_file_index>  (1) 
42

>  <i_f3d_flags>  (1) 
0

>  <num_sample>  (1) 
100

>  <b_lp_Chiralities_Consistent>  (1) 
1

>  <r_epik_Charging_Adjusted_Penalty>  (1) 
0.19353898929150365

>  <r_epik_Ionization_Penalty>  (1) 
0.13216089294123454

>  <r_epik_Ionization_Penalty_Charging>  (1) 
0.06151586109146627

>  <r_epik_Ionization_Penalty_Neutral>  (1) 
0.070645031849768267

>  <r_epik_State_Penalty>  (1) 
0.13202312820003739

>  <r_glide_ring_energy>  (1) 
0

>  <r_i_docking_score>  (1) 
-8.4240043125184751

>  <r_i_glide_ecoul>  (1) 
-8.3668960062608875

>  <r_i_glide_eff_state_penalty>  (1) 
0.13202312820003739

>  <r_i_glide_einternal>  (1) 
4.5151421720323572

>  <r_i_glide_emodel>  (1) 
-62.074941711961884

>  <r_i_glide_emodel_strain>  (1) 
1.6599260432255214

>  <r_i_glide_energy>  (1) 
-39.742301125478562

>  <r_i_glide_erotb>  (1) 
0.88540937349265225

>  <r_i_glide_esite>  (1) 
-0.10000000000000001

>  <r_i_glide_evdw>  (1) 
-31.375405119217671

>  <r_i_glide_gscore>  (1) 
-8.5560274407185126

>  <r_i_glide_gscore_strain>  (1) 
0

>  <r_i_glide_hbond>  (1) 
-0.13346810238364276

>  <r_i_glide_ligand_efficiency>  (1) 
-0.33696017250073901

>  <r_i_glide_ligand_efficiency_ln>  (1) 
-1.9967414691048992

>  <r_i_glide_ligand_efficiency_sa>  (1) 
-0.98527752146342817

>  <r_i_glide_lipo>  (1) 
-4.1377485639756726

>  <r_i_glide_metal>  (1) 
-0

>  <r_i_glide_rewards>  (1) 
-2.2464154909518337

>  <r_lp_Energy>  (1) 
22.904637999999998

>  <r_lp_tautomer_probability>  (1) 
0.99999999999736477

>  <s_epik_cmdline>  (1) 
J2VwaWtfcHl0aG9uJywgJy1waHQnLCAnMS4wJywgJy1waCcsICc3LjQnLCAnLXRuJywgJzgnLCAnLW1hJywgJzUwMCcsICctaW1hZScsICc8aW5maWxlLm1hZT4nLCAnLW9tYWUnLCAnPG91dGZpbGUubWFlPic=

>  <s_epik_input>  (1) 
W09IXWMoW2NIXTEpYyhGKVtjSF1bY0hdYzFbQ0gyXVNbQ0BASF0oW0NIMl1bQ0gyXVtDSDNdKS9bQ0hdPVtDSF1cYzJbY0hdW2NIXWMoW0NIM10pYyhbY0hdMilbQ0gyXVtOSDJd

>  <s_glide_docking_method>  (1) 
confgen

>  <s_i_glide_gridfile>  (1) 
gpcr_5ht2c_6bqh_protein_autoprepared_prepared

>  <s_lp_Force_Field>  (1) 
S-OPLS

>  <s_lp_Variant>  (1) 
DiffSBDD_41-2

>  <s_m_source_file>  (1) 
generated_GPCR_5HT2C_ligand_DiffSBDD_2026-06-23_prepared.sdf

>  <GenAI_Model>  (1) 
DiffSBDD

>  <Protein>  (1) 
GPCR_5HT2C

$$$$
DiffSBDD_63
     RDKit          3D

  0  0  0  0  0  0  0  0  0  0999 V3000
M  V30 BEGIN CTAB
M  V30 COUNTS 83 88 0 0 1
M  V30 BEGIN ATOM
M  V30 1 F 37.844206 28.372983 53.258503 0
M  V30 2 C 38.020093 36.250958 61.150643 0
M  V30 3 C 39.117193 28.632790 53.563984 0 CFG=1
M  V30 4 C 43.112011 30.453603 65.692344 0
M  V30 5 C 39.128467 27.480212 57.870775 0
M  V30 6 C 38.941118 29.360924 59.646570 0 CFG=1
M  V30 7 N 39.645139 30.937754 53.164267 0 CHG=1
M  V30 8 C 41.965589 34.176491 63.733227 0
M  V30 9 C 39.873579 37.117821 62.575695 0
M  V30 10 C 40.135424 33.190586 62.215418 0 CFG=2
M  V30 11 C 41.559937 33.018408 62.826635 0 CFG=2
M  V30 12 C 38.640310 27.373447 56.419617 0
M  V30 13 C 41.295640 35.337036 63.799597 0
M  V30 14 C 38.654822 35.040336 61.066862 0
M  V30 15 N 36.845194 36.306563 60.388918 0
M  V30 16 N 38.204018 29.573138 57.243564 0 CHG=1
M  V30 17 C 38.243653 28.799644 55.986131 0 CFG=1
M  V30 18 C 41.486774 28.972642 64.388610 0
M  V30 19 C 35.331938 34.923600 58.977348 0
M  V30 20 O 40.845174 28.137756 60.462595 0
M  V30 21 O 40.046138 32.376546 61.050607 0
M  V30 22 S 37.789468 33.950216 60.012983 0
M  V30 23 C 38.915926 30.831795 54.444198 0 CFG=2
M  V30 24 C 39.190556 28.982606 58.165723 0 CFG=2
M  V30 25 C 39.340257 31.946117 55.417840 0
M  V30 26 C 39.929080 34.664521 61.766734 0 CFG=1
M  V30 27 C 40.139398 29.131929 60.552347 0
M  V30 28 C 36.564636 35.158235 59.775262 0
M  V30 29 O 43.603335 29.393419 66.487685 0
M  V30 30 C 41.642836 30.210723 65.288855 0 CFG=2
M  V30 31 C 41.036268 31.461187 64.626183 0
M  V30 32 C 39.409737 31.148453 61.205571 0 CFG=2
M  V30 33 O 41.778143 31.755736 63.448607 0
M  V30 34 C 40.053720 35.627645 62.985730 0 CFG=2
M  V30 35 O 40.318932 30.123819 61.428038 0
M  V30 36 C 39.644468 29.616254 52.510353 0
M  V30 37 C 38.708758 30.836684 59.876874 0
M  V30 38 C 39.196189 29.389282 54.909630 0 CFG=2
M  V30 39 C 38.475147 37.418342 61.961151 0
M  V30 40 H 39.645131 27.678598 53.557178 0
M  V30 41 H 43.203237 31.378653 66.262716 0
M  V30 42 H 43.743323 30.559443 64.809396 0
M  V30 43 H 40.094883 26.995616 58.017130 0
M  V30 44 H 38.416272 26.986256 58.533140 0
M  V30 45 H 38.101544 28.795044 60.050613 0
M  V30 46 H 40.602419 31.195765 53.359343 0
M  V30 47 H 42.845084 34.031738 64.341846 0
M  V30 48 H 40.045147 37.786097 63.419240 0
M  V30 49 H 40.640858 37.337756 61.833523 0
M  V30 50 H 39.357073 32.955451 62.942865 0
M  V30 51 H 42.273556 33.049465 62.002060 0
M  V30 52 H 39.417556 26.947057 55.785451 0
M  V30 53 H 37.783777 26.700226 56.360709 0
M  V30 54 H 41.637726 36.118286 64.464963 0
M  V30 55 H 37.284901 29.455553 57.649319 0
M  V30 56 H 37.245139 28.811596 55.568734 0
M  V30 57 H 42.070005 29.069366 63.472471 0
M  V30 58 H 41.820851 28.068880 64.898535 0
M  V30 59 H 40.445178 28.821375 64.105391 0
M  V30 60 H 34.560590 34.481993 59.606574 0
M  V30 61 H 34.960498 35.859078 58.567765 0
M  V30 62 H 35.543266 34.227176 58.167754 0
M  V30 63 H 37.851593 30.940562 54.224077 0
M  V30 64 H 40.168297 29.354727 57.853169 0
M  V30 65 H 38.733809 31.958713 56.321635 0
M  V30 66 H 40.384331 31.849995 55.714879 0
M  V30 67 H 39.214642 32.930749 54.967747 0
M  V30 68 H 40.740599 34.901631 61.076626 0
M  V30 69 H 44.527184 29.529102 66.640778 0
M  V30 70 H 41.071398 30.027368 66.200659 0
M  V30 71 H 39.990889 31.282110 64.377993 0
M  V30 72 H 41.062711 32.291974 65.331661 0
M  V30 73 H 38.691590 31.160120 62.027409 0
M  V30 74 H 39.245084 35.413197 63.677437 0
M  V30 75 H 40.649279 29.367350 52.167777 0
M  V30 76 H 39.005616 29.627601 51.626053 0
M  V30 77 H 37.648934 31.081844 59.945730 0
M  V30 78 H 39.155513 31.438123 59.084328 0
M  V30 79 H 40.223929 29.338751 55.276049 0
M  V30 80 H 37.758164 37.592688 62.763870 0
M  V30 81 H 38.507531 38.329633 61.363497 0
M  V30 82 H 38.357134 30.559908 57.094057 0
M  V30 83 H 39.237931 31.648271 52.570446 0
M  V30 END ATOM
M  V30 BEGIN BOND
M  V30 1 1 3 1
M  V30 2 1 11 8
M  V30 3 1 11 10
M  V30 4 1 12 5
M  V30 5 2 13 8
M  V30 6 2 14 2
M  V30 7 1 15 2
M  V30 8 1 17 12
M  V30 9 1 17 16
M  V30 10 1 21 10
M  V30 11 1 22 14
M  V30 12 1 23 7
M  V30 13 1 24 5
M  V30 14 1 24 6
M  V30 15 1 24 16
M  V30 16 1 25 23
M  V30 17 1 26 10
M  V30 18 1 26 14
M  V30 19 1 27 6
M  V30 20 2 27 20
M  V30 21 2 28 15
M  V30 22 1 28 19
M  V30 23 1 28 22
M  V30 24 1 29 4
M  V30 25 1 30 4
M  V30 26 1 30 18
M  V30 27 1 31 30
M  V30 28 1 32 21
M  V30 29 1 33 11
M  V30 30 1 33 31
M  V30 31 1 34 9
M  V30 32 1 34 13
M  V30 33 1 34 26
M  V30 34 1 35 27
M  V30 35 1 35 32
M  V30 36 1 36 3
M  V30 37 1 36 7
M  V30 38 1 37 6
M  V30 39 1 37 32
M  V30 40 1 38 3
M  V30 41 1 38 17
M  V30 42 1 38 23
M  V30 43 1 39 2
M  V30 44 1 39 9
M  V30 45 1 3 40 CFG=1
M  V30 46 1 41 4
M  V30 47 1 42 4
M  V30 48 1 43 5
M  V30 49 1 44 5
M  V30 50 1 6 45 CFG=1
M  V30 51 1 46 7
M  V30 52 1 47 8
M  V30 53 1 48 9
M  V30 54 1 49 9
M  V30 55 1 10 50 CFG=1
M  V30 56 1 11 51 CFG=3
M  V30 57 1 52 12
M  V30 58 1 53 12
M  V30 59 1 54 13
M  V30 60 1 55 16
M  V30 61 1 17 56 CFG=3
M  V30 62 1 57 18
M  V30 63 1 58 18
M  V30 64 1 59 18
M  V30 65 1 60 19
M  V30 66 1 61 19
M  V30 67 1 62 19
M  V30 68 1 23 63 CFG=3
M  V30 69 1 24 64 CFG=3
M  V30 70 1 65 25
M  V30 71 1 66 25
M  V30 72 1 67 25
M  V30 73 1 26 68 CFG=3
M  V30 74 1 69 29
M  V30 75 1 30 70 CFG=1
M  V30 76 1 71 31
M  V30 77 1 72 31
M  V30 78 1 32 73 CFG=1
M  V30 79 1 34 74 CFG=1
M  V30 80 1 75 36
M  V30 81 1 76 36
M  V30 82 1 77 37
M  V30 83 1 78 37
M  V30 84 1 38 79 CFG=1
M  V30 85 1 80 39
M  V30 86 1 81 39
M  V30 87 1 82 16
M  V30 88 1 83 7
M  V30 END BOND
M  V30 END CTAB
M  END
>  <i_epik_Tot_Q>  (1) 
2

>  <i_epik_Tot_abs_Q>  (1) 
2

>  <i_i_glide_confnum>  (1) 
727

>  <i_i_glide_lignum>  (1) 
141

>  <i_i_glide_posenum>  (1) 
282

>  <i_i_glide_rotatable_bonds>  (1) 
9

>  <i_lp_mmshare_version>  (1) 
72125

>  <i_m_source_file_index>  (1) 
64

>  <i_f3d_flags>  (1) 
0

>  <num_sample>  (1) 
100

>  <b_lp_Chiralities_Consistent>  (1) 
1

>  <r_epik_Charging_Adjusted_Penalty>  (1) 
0.080070908620723774

>  <r_epik_Ionization_Penalty>  (1) 
0.041568301575603359

>  <r_epik_Ionization_Penalty_Charging>  (1) 
0.040241786303222601

>  <r_epik_Ionization_Penalty_Neutral>  (1) 
0.0013265152723807572

>  <r_epik_State_Penalty>  (1) 
0.039829122317501166

>  <r_glide_ring_energy>  (1) 
0.79944395753776409

>  <r_i_docking_score>  (1) 
-8.421091770451623

>  <r_i_glide_ecoul>  (1) 
-2.8051524597546109

>  <r_i_glide_eff_state_penalty>  (1) 
0.039829122317501166

>  <r_i_glide_einternal>  (1) 
10.667812798821615

>  <r_i_glide_emodel>  (1) 
-71.18883165879798

>  <r_i_glide_emodel_strain>  (1) 
0.98921720579755856

>  <r_i_glide_energy>  (1) 
-51.173913585183122

>  <r_i_glide_erotb>  (1) 
0.43483266289788453

>  <r_i_glide_esite>  (1) 
-0.028194199634779267

>  <r_i_glide_evdw>  (1) 
-48.368761125428513

>  <r_i_glide_gscore>  (1) 
-8.4609208927691242

>  <r_i_glide_gscore_strain>  (1) 
0

>  <r_i_glide_hbond>  (1) 
-0.046295599524382516

>  <r_i_glide_ligand_efficiency>  (1) 
-0.21592543001158007

>  <r_i_glide_ligand_efficiency_ln>  (1) 
-1.8057211224902328

>  <r_i_glide_ligand_efficiency_sa>  (1) 
-0.73224878909302504

>  <r_i_glide_lipo>  (1) 
-4.1688035203060485

>  <r_i_glide_metal>  (1) 
-0

>  <r_i_glide_rewards>  (1) 
-1.8132493109671806

>  <r_lp_Energy>  (1) 
21.205790999999998

>  <s_epik_Chemistry_Notes>  (1) 
This compound has an ester and may undergo hydrolysis at high or low pH. This compound contains an acetal/aminal-like group ( X-CH(R)-Y where X, Y are N, S, or O) that may be acid/base labile, releasing an aldehyde.

>  <s_epik_cmdline>  (1) 
J2VwaWtfcHl0aG9uJywgJy1waHQnLCAnMS4wJywgJy1waCcsICc3LjQnLCAnLXRuJywgJzgnLCAnLW1hJywgJzUwMCcsICctaW1hZScsICc8aW5maWxlLm1hZT4nLCAnLW9tYWUnLCAnPG91dGZpbGUubWFlPic=

>  <s_epik_input>  (1) 
RltDQEhdMVtDSDJdW05IXVtDQEhdKFtDSDNdKVtDQEhdMVtDQEhdMltDSDJdW0NIMl1bQ0BASF0oW05IXTIpW0NASF0zQyg9TylPW0NASF0oW0NIMl0zKU9bQ0BIXTRbQ0BIXShPW0NIMl1bQ0BASF0oW0NIM10pW0NIMl1bT0hdKVtDSF09W0NIXVtDQEBIXShbQ0gyXVtDSDJdNSlbQ0BASF00YyhjNTYpc2MobjYpW0NIM10=

>  <s_glide_docking_method>  (1) 
confgen

>  <s_i_glide_gridfile>  (1) 
gpcr_5ht2c_6bqh_protein_autoprepared_prepared

>  <s_lp_Force_Field>  (1) 
S-OPLS

>  <s_lp_Variant>  (1) 
DiffSBDD_63-3

>  <s_m_source_file>  (1) 
generated_GPCR_5HT2C_ligand_DiffSBDD_2026-06-23_prepared.sdf

>  <GenAI_Model>  (1) 
DiffSBDD

>  <Protein>  (1) 
GPCR_5HT2C

$$$$
DiffSBDD_96
     RDKit          3D

  0  0  0  0  0  0  0  0  0  0999 V3000
M  V30 BEGIN CTAB
M  V30 COUNTS 67 70 0 0 1
M  V30 BEGIN ATOM
M  V30 1 F 38.148507 36.728053 63.553036 0
M  V30 2 C 38.729140 35.871216 60.527345 0 CFG=1
M  V30 3 C 40.026887 35.143694 60.628521 0
M  V30 4 O 41.638916 35.226301 63.358741 0
M  V30 5 C 38.160367 32.535231 56.161351 0
M  V30 6 C 37.348790 35.289103 60.176151 0 CFG=2
M  V30 7 N 37.645148 32.485569 57.540619 0 CHG=1
M  V30 8 F 40.161043 29.337769 49.394155 0
M  V30 9 C 39.054213 28.060103 52.645031 0
M  V30 10 C 40.435423 30.963168 61.586518 0
M  V30 11 C 39.727763 30.376102 52.892219 0
M  V30 12 O 38.519642 34.308592 62.167732 0
M  V30 13 O 39.644166 25.708416 57.484197 0
M  V30 14 C 38.477750 27.758798 55.089860 0
M  V30 15 F 37.084957 37.659224 61.927943 0
M  V30 16 C 40.045138 30.415655 51.516003 0
M  V30 17 C 37.824224 35.438967 61.607347 0 CFG=1
M  V30 18 C 37.917260 31.221877 55.424747 0
M  V30 19 C 41.206745 34.066016 63.534785 0
M  V30 20 S 38.421886 26.725315 53.641036 0
M  V30 21 C 39.682358 33.904030 61.436505 0 CFG=2
M  V30 22 C 37.081245 33.922059 59.542820 0
M  V30 23 C 39.220314 29.182946 53.503658 0
M  V30 24 O 40.402021 27.776538 57.170985 0 CHG=-1
M  V30 25 N 38.899304 29.031416 54.785673 0 CHG=1
M  V30 26 C 40.527863 29.558433 62.182671 0
M  V30 27 O 40.506239 31.910509 62.642314 0
M  V30 28 C 40.824431 33.259137 62.276425 0 CFG=2
M  V30 29 C 39.519982 26.892603 57.092631 0
M  V30 30 F 36.107373 36.137756 63.070051 0
M  V30 31 N 37.245885 26.137546 56.531722 0
M  V30 32 C 39.860580 29.284928 50.711456 0
M  V30 33 C 37.886121 33.745406 58.251901 0
M  V30 34 C 39.363361 28.103024 51.274085 0
M  V30 35 O 41.069139 33.498475 64.641764 0 CHG=-1
M  V30 36 C 39.045527 30.205175 55.663015 0
M  V30 37 C 38.155150 27.288244 56.488487 0 CFG=2
M  V30 38 C 37.281623 36.504233 62.567218 0
M  V30 39 H 38.845125 36.937978 60.511287 0
M  V30 40 H 40.445224 34.937694 59.651158 0
M  V30 41 H 40.732101 35.788698 61.150180 0
M  V30 42 H 39.219377 32.796690 56.152594 0
M  V30 43 H 37.644778 33.336026 55.630585 0
M  V30 44 H 36.636327 36.036567 59.830535 0
M  V30 45 H 36.635691 32.300895 57.424589 0
M  V30 46 H 39.496778 31.056763 61.042256 0
M  V30 47 H 41.245201 31.115979 60.875502 0
M  V30 48 H 39.879984 31.263419 53.485457 0
M  V30 49 H 40.427952 31.325618 51.078627 0
M  V30 50 H 37.821993 31.457513 54.366172 0
M  V30 51 H 36.954457 30.786966 55.696719 0
M  V30 52 H 39.364049 33.170079 60.706526 0
M  V30 53 H 36.015883 33.868216 59.313326 0
M  V30 54 H 37.263530 33.115133 60.251548 0
M  V30 55 H 40.484682 28.797929 61.402810 0
M  V30 56 H 41.459460 29.425868 62.732961 0
M  V30 57 H 39.704945 29.375624 62.874053 0
M  V30 58 H 41.725248 33.224121 61.661976 0
M  V30 59 H 37.125168 25.717198 55.624088 0
M  V30 60 H 38.954612 33.757590 58.455581 0
M  V30 61 H 37.645151 34.575399 57.588514 0
M  V30 62 H 39.220357 27.227503 50.656250 0
M  V30 63 H 39.017905 29.879675 56.700539 0
M  V30 64 H 40.041570 30.629223 55.529722 0
M  V30 65 H 38.052583 31.714750 58.047018 0
M  V30 66 H 37.712832 25.430932 57.094779 0
M  V30 67 H 37.724546 28.101018 57.073349 0
M  V30 END ATOM
M  V30 BEGIN BOND
M  V30 1 1 3 2
M  V30 2 1 6 2
M  V30 3 1 7 5
M  V30 4 2 16 11
M  V30 5 1 17 2
M  V30 6 1 17 6
M  V30 7 1 17 12
M  V30 8 1 18 5
M  V30 9 2 19 4
M  V30 10 1 20 9
M  V30 11 1 20 14
M  V30 12 1 21 3
M  V30 13 1 21 12
M  V30 14 1 22 6
M  V30 15 2 23 9
M  V30 16 1 23 11
M  V30 17 2 25 14
M  V30 18 1 25 23
M  V30 19 1 26 10
M  V30 20 1 27 10
M  V30 21 1 28 19
M  V30 22 1 28 21
M  V30 23 1 28 27
M  V30 24 2 29 13
M  V30 25 1 29 24
M  V30 26 1 32 8
M  V30 27 1 32 16
M  V30 28 1 33 7
M  V30 29 1 33 22
M  V30 30 1 34 9
M  V30 31 2 34 32
M  V30 32 1 35 19
M  V30 33 1 36 18
M  V30 34 1 36 25
M  V30 35 1 37 14
M  V30 36 1 37 29
M  V30 37 1 37 31
M  V30 38 1 38 1
M  V30 39 1 38 15
M  V30 40 1 17 38 CFG=1
M  V30 41 1 38 30
M  V30 42 1 2 39 CFG=1
M  V30 43 1 40 3
M  V30 44 1 41 3
M  V30 45 1 42 5
M  V30 46 1 43 5
M  V30 47 1 6 44 CFG=1
M  V30 48 1 45 7
M  V30 49 1 46 10
M  V30 50 1 47 10
M  V30 51 1 48 11
M  V30 52 1 49 16
M  V30 53 1 50 18
M  V30 54 1 51 18
M  V30 55 1 21 52 CFG=3
M  V30 56 1 53 22
M  V30 57 1 54 22
M  V30 58 1 55 26
M  V30 59 1 56 26
M  V30 60 1 57 26
M  V30 61 1 28 58 CFG=3
M  V30 62 1 59 31
M  V30 63 1 60 33
M  V30 64 1 61 33
M  V30 65 1 62 34
M  V30 66 1 63 36
M  V30 67 1 64 36
M  V30 68 1 65 7
M  V30 69 1 66 31
M  V30 70 1 37 67 CFG=1
M  V30 END BOND
M  V30 END CTAB
M  END
>  <i_epik_Tot_Q>  (1) 
0

>  <i_epik_Tot_abs_Q>  (1) 
4

>  <i_i_glide_confnum>  (1) 
702

>  <i_i_glide_lignum>  (1) 
229

>  <i_i_glide_posenum>  (1) 
128

>  <i_i_glide_rotatable_bonds>  (1) 
14

>  <i_lp_mmshare_version>  (1) 
72125

>  <i_m_source_file_index>  (1) 
97

>  <i_f3d_flags>  (1) 
0

>  <num_sample>  (1) 
100

>  <b_lp_Chiralities_Consistent>  (1) 
1

>  <r_epik_Charging_Adjusted_Penalty>  (1) 
0.0011493244952256365

>  <r_epik_Ionization_Penalty>  (1) 
0.16754632311336878

>  <r_epik_Ionization_Penalty_Charging>  (1) 
0.0011493244952256365

>  <r_epik_Ionization_Penalty_Neutral>  (1) 
0.16639699861814314

>  <r_epik_State_Penalty>  (1) 
-0

>  <r_glide_ring_energy>  (1) 
0

>  <r_i_docking_score>  (1) 
-8.4134646579169594

>  <r_i_glide_ecoul>  (1) 
-5.9649212141801256

>  <r_i_glide_eff_state_penalty>  (1) 
-0

>  <r_i_glide_einternal>  (1) 
8.1596595628306794

>  <r_i_glide_emodel>  (1) 
-70.194445780579258

>  <r_i_glide_emodel_strain>  (1) 
2.1255839854173431

>  <r_i_glide_energy>  (1) 
-45.583248498323655

>  <r_i_glide_erotb>  (1) 
0.57183300328268483

>  <r_i_glide_esite>  (1) 
-0.10110737806657782

>  <r_i_glide_evdw>  (1) 
-39.618327284143533

>  <r_i_glide_gscore>  (1) 
-8.4134646579169594

>  <r_i_glide_gscore_strain>  (1) 
0

>  <r_i_glide_hbond>  (1) 
-0.16554698078793356

>  <r_i_glide_ligand_efficiency>  (1) 
-0.22140696468202525

>  <r_i_glide_ligand_efficiency_ln>  (1) 
-1.8141904793017039

>  <r_i_glide_ligand_efficiency_sa>  (1) 
-0.74436477015497571

>  <r_i_glide_lipo>  (1) 
-3.5430433565283139

>  <r_i_glide_metal>  (1) 
-0

>  <r_i_glide_rewards>  (1) 
-2.2999453994826231

>  <r_lp_Energy>  (1) 
52.570133999999996

>  <r_lp_tautomer_probability>  (1) 
1

>  <s_epik_cmdline>  (1) 
J2VwaWtfcHl0aG9uJywgJy1waHQnLCAnMS4wJywgJy1waCcsICc3LjQnLCAnLXRuJywgJzgnLCAnLW1hJywgJzUwMCcsICctaW1hZScsICc8aW5maWxlLm1hZT4nLCAnLW9tYWUnLCAnPG91dGZpbGUubWFlPic=

>  <s_epik_input>  (1) 
W0NIM11bQ0gyXU9bQ0BIXShDKD1PKVtPSF0pW0NAQEhdKE8xKVtDSDJdW0NASF0oW0NAXTEyQyhGKShGKUYpW0NASF0yW0NIMl1bQ0gyXVtOSF1bQ0gyXVtDSDJdW0NIMl1OKFtDQEBIXShTMylcQyg9TlxbSF0pQyg9TylbT0hdKWMoYzM0KVtjSF1bY0hdYyhGKVtjSF00

>  <s_glide_docking_method>  (1) 
confgen

>  <s_i_glide_gridfile>  (1) 
gpcr_5ht2c_6bqh_protein_autoprepared_prepared

>  <s_lp_Force_Field>  (1) 
S-OPLS

>  <s_lp_Variant>  (1) 
DiffSBDD_96-2

>  <s_m_source_file>  (1) 
generated_GPCR_5HT2C_ligand_DiffSBDD_2026-06-23_prepared.sdf

>  <GenAI_Model>  (1) 
DiffSBDD

>  <Protein>  (1) 
GPCR_5HT2C

$$$$
DiffSBDD_50
     RDKit          3D

  0  0  0  0  0  0  0  0  0  0999 V3000
M  V30 BEGIN CTAB
M  V30 COUNTS 66 69 0 0 1
M  V30 BEGIN ATOM
M  V30 1 C 39.038732 27.698903 57.688119 0 CFG=1
M  V30 2 F 39.635359 26.537738 51.366152 0
M  V30 3 C 39.065538 30.708600 59.661495 0
M  V30 4 O 37.645144 30.397045 56.680907 0
M  V30 5 O 37.245119 31.737765 62.167753 0
M  V30 6 O 38.516899 31.967290 59.856609 0
M  V30 7 S 40.199150 28.355015 60.273428 0
M  V30 8 C 39.571276 27.451008 56.263421 0
M  V30 9 C 36.736347 33.430160 58.992233 0 CFG=2
M  V30 10 O 36.933159 25.021184 55.313620 0
M  V30 11 C 36.640191 32.528282 61.197690 0 CFG=1
M  V30 12 C 37.127749 35.961097 59.698611 0
M  V30 13 C 37.764748 25.540849 57.516278 0
M  V30 14 C 38.412851 26.885868 55.404234 0 CFG=2
M  V30 15 C 39.932585 28.890386 51.179534 0
M  V30 16 C 38.903499 30.797772 57.156641 0
M  V30 17 C 38.075198 25.499025 55.999179 0 CFG=2
M  V30 18 C 36.880499 23.615650 55.237747 0
M  V30 19 F 39.240899 31.544938 53.611774 0
M  V30 20 C 38.924497 29.191749 53.786900 0
M  V30 21 C 36.533639 34.577291 60.015546 0 CFG=2
M  V30 22 C 38.815673 26.321992 58.330487 0
M  V30 23 C 39.845790 30.166884 51.755243 0
M  V30 24 C 36.991172 34.002872 61.342950 0
M  V30 25 C 39.896645 28.744629 58.449106 0 CFG=2
M  V30 26 C 39.046394 27.900178 53.229647 0
M  V30 27 C 37.109669 32.149474 59.799667 0 CFG=2
M  V30 28 C 39.245043 30.137741 58.480766 0
M  V30 29 N 38.704861 26.745315 53.969663 0
M  V30 30 C 39.535564 27.759489 51.915177 0
M  V30 31 C 39.335896 30.316236 53.058948 0
M  V30 32 O 36.375439 31.022495 59.368879 0
M  V30 33 O 39.511991 30.314730 61.930693 0
M  V30 34 O 37.645172 33.741341 57.962890 0
M  V30 35 C 39.530944 29.945429 60.760459 0
M  V30 36 H 38.038049 28.125300 57.621083 0
M  V30 37 H 36.970032 31.014185 56.967653 0
M  V30 38 H 38.174097 31.667090 61.977527 0
M  V30 39 H 40.013691 28.359036 55.873550 0
M  V30 40 H 40.404671 26.746911 56.284846 0
M  V30 41 H 35.749083 33.270480 58.567738 0
M  V30 42 H 35.555864 32.411713 61.257877 0
M  V30 43 H 38.214035 35.951335 59.767842 0
M  V30 44 H 36.845313 36.307991 58.704507 0
M  V30 45 H 36.774040 36.703905 60.414112 0
M  V30 46 H 37.676684 24.529948 57.915172 0
M  V30 47 H 36.790334 26.009854 57.661715 0
M  V30 48 H 37.535795 27.525161 55.498835 0
M  V30 49 H 40.313159 28.774985 50.175462 0
M  V30 50 H 39.667305 30.543377 56.424304 0
M  V30 51 H 38.951952 31.876126 57.241850 0
M  V30 52 H 38.932542 24.842909 55.830198 0
M  V30 53 H 36.045171 23.337967 54.617820 0
M  V30 54 H 37.767527 23.222856 54.751664 0
M  V30 55 H 36.759234 23.156370 56.217394 0
M  V30 56 H 38.533594 29.321230 54.772630 0
M  V30 57 H 35.454510 34.722021 60.095627 0
M  V30 58 H 39.753305 25.766051 58.387029 0
M  V30 59 H 38.444913 26.432858 59.346326 0
M  V30 60 H 40.159516 31.036252 51.194951 0
M  V30 61 H 38.065550 34.138731 61.477229 0
M  V30 62 H 36.465131 34.479293 62.167749 0
M  V30 63 H 40.882602 28.834410 57.989848 0
M  V30 64 H 38.855651 25.826493 53.579706 0
M  V30 65 H 36.417997 30.375037 60.053784 0
M  V30 66 H 37.245014 34.394042 57.406288 0
M  V30 END ATOM
M  V30 BEGIN BOND
M  V30 1 1 6 3
M  V30 2 1 8 1
M  V30 3 1 11 5
M  V30 4 1 14 8
M  V30 5 1 16 4
M  V30 6 1 17 10
M  V30 7 1 17 13
M  V30 8 1 17 14
M  V30 9 1 18 10
M  V30 10 1 21 9
M  V30 11 1 21 12
M  V30 12 1 22 1
M  V30 13 1 22 13
M  V30 14 2 23 15
M  V30 15 1 24 11
M  V30 16 1 24 21
M  V30 17 1 25 1
M  V30 18 1 25 7
M  V30 19 1 26 20
M  V30 20 1 27 6 CFG=1
M  V30 21 1 27 9
M  V30 22 1 27 11
M  V30 23 2 28 3
M  V30 24 1 28 16
M  V30 25 1 28 25
M  V30 26 1 29 14
M  V30 27 1 29 26
M  V30 28 1 30 2
M  V30 29 1 30 15
M  V30 30 2 30 26
M  V30 31 1 31 19
M  V30 32 2 31 20
M  V30 33 1 31 23
M  V30 34 1 32 27
M  V30 35 1 34 9
M  V30 36 1 35 3
M  V30 37 1 35 7
M  V30 38 2 35 33
M  V30 39 1 1 36 CFG=3
M  V30 40 1 37 4
M  V30 41 1 38 5
M  V30 42 1 39 8
M  V30 43 1 40 8
M  V30 44 1 9 41 CFG=3
M  V30 45 1 11 42 CFG=3
M  V30 46 1 43 12
M  V30 47 1 44 12
M  V30 48 1 45 12
M  V30 49 1 46 13
M  V30 50 1 47 13
M  V30 51 1 14 48 CFG=3
M  V30 52 1 49 15
M  V30 53 1 50 16
M  V30 54 1 51 16
M  V30 55 1 17 52 CFG=1
M  V30 56 1 53 18
M  V30 57 1 54 18
M  V30 58 1 55 18
M  V30 59 1 56 20
M  V30 60 1 21 57 CFG=1
M  V30 61 1 58 22
M  V30 62 1 59 22
M  V30 63 1 60 23
M  V30 64 1 61 24
M  V30 65 1 62 24
M  V30 66 1 25 63 CFG=3
M  V30 67 1 64 29
M  V30 68 1 65 32
M  V30 69 1 66 34
M  V30 END BOND
M  V30 END CTAB
M  END
>  <i_epik_Tot_Q>  (1) 
0

>  <i_epik_Tot_abs_Q>  (1) 
0

>  <i_i_glide_confnum>  (1) 
241

>  <i_i_glide_lignum>  (1) 
103

>  <i_i_glide_posenum>  (1) 
79

>  <i_i_glide_rotatable_bonds>  (1) 
11

>  <i_lp_mmshare_version>  (1) 
72125

>  <i_m_source_file_index>  (1) 
51

>  <i_f3d_flags>  (1) 
0

>  <num_sample>  (1) 
100

>  <b_lp_Chiralities_Consistent>  (1) 
1

>  <r_epik_Charging_Adjusted_Penalty>  (1) 
0.32088234562257889

>  <r_epik_Ionization_Penalty>  (1) 
0.32096673837562456

>  <r_epik_Ionization_Penalty_Charging>  (1) 
0

>  <r_epik_Ionization_Penalty_Neutral>  (1) 
0.32096673837562456

>  <r_epik_State_Penalty>  (1) 
0.32088234562257889

>  <r_glide_ring_energy>  (1) 
0

>  <r_i_docking_score>  (1) 
-8.4041596769244755

>  <r_i_glide_ecoul>  (1) 
-5.1797990922617334

>  <r_i_glide_eff_state_penalty>  (1) 
0.32088234562257889

>  <r_i_glide_einternal>  (1) 
14.505469761982246

>  <r_i_glide_emodel>  (1) 
-64.639334908241324

>  <r_i_glide_emodel_strain>  (1) 
1.285963317336055

>  <r_i_glide_energy>  (1) 
-43.47434216059834

>  <r_i_glide_erotb>  (1) 
0.46316945766964901

>  <r_i_glide_esite>  (1) 
-0.054425714326806068

>  <r_i_glide_evdw>  (1) 
-38.294543068336608

>  <r_i_glide_gscore>  (1) 
-8.7250420225470542

>  <r_i_glide_gscore_strain>  (1) 
0

>  <r_i_glide_hbond>  (1) 
-0.66071323050036546

>  <r_i_glide_ligand_efficiency>  (1) 
-0.24011884791212787

>  <r_i_glide_ligand_efficiency_ln>  (1) 
-1.8448995693595054

>  <r_i_glide_ligand_efficiency_sa>  (1) 
-0.78544467384665939

>  <r_i_glide_lipo>  (1) 
-4.3346117215808162

>  <r_i_glide_metal>  (1) 
-0

>  <r_i_glide_rewards>  (1) 
-1.4467637965526257

>  <r_lp_Energy>  (1) 
64.880727999999991

>  <r_lp_tautomer_probability>  (1) 
0.99999998906363929

>  <s_epik_cmdline>  (1) 
J2VwaWtfcHl0aG9uJywgJy1waHQnLCAnMS4wJywgJy1waCcsICc3LjQnLCAnLXRuJywgJzgnLCAnLW1hJywgJzUwMCcsICctaW1hZScsICc8aW5maWxlLm1hZT4nLCAnLW9tYWUnLCAnPG91dGZpbGUubWFlPic=

>  <s_epik_input>  (1) 
W09IXVtDQEhdMVtDSDJdW0NAQEhdKFtDSDNdKVtDQEBIXShbT0hdKVtDQEBdMShbT0hdKU9DMj1DKFtDSDJdW09IXSlbQ0BASF0oU0MyPU8pW0NASF0zW0NIMl1bQ0BIXShbQ0BIXShPW0NIM10pW0NIMl1bQ0gyXTMpW05IXWM0W2NIXWMoRilbY0hdW2NIXWM0Rg==

>  <s_glide_docking_method>  (1) 
confgen

>  <s_i_glide_gridfile>  (1) 
gpcr_5ht2c_6bqh_protein_autoprepared_prepared

>  <s_lp_Force_Field>  (1) 
S-OPLS

>  <s_lp_Variant>  (1) 
DiffSBDD_50-1

>  <s_m_source_file>  (1) 
generated_GPCR_5HT2C_ligand_DiffSBDD_2026-06-23_prepared.sdf

>  <GenAI_Model>  (1) 
DiffSBDD

>  <Protein>  (1) 
GPCR_5HT2C

$$$$
DiffSBDD_56
     RDKit          3D

  0  0  0  0  0  0  0  0  0  0999 V3000
M  V30 BEGIN CTAB
M  V30 COUNTS 72 77 0 0 1
M  V30 BEGIN ATOM
M  V30 1 C 37.484921 33.615272 61.143321 0 CFG=1
M  V30 2 C 40.516749 35.957102 61.952267 0
M  V30 3 C 39.672054 33.495727 62.113923 0
M  V30 4 C 39.742862 30.880235 53.667943 0
M  V30 5 C 35.681568 31.853504 60.552857 0
M  V30 6 C 37.455436 36.459796 62.561659 0
M  V30 7 C 39.635912 34.826580 61.352597 0 CFG=1
M  V30 8 C 36.388158 33.168402 60.147178 0
M  V30 9 C 35.677349 38.055736 63.102331 0
M  V30 10 C 39.420243 29.869829 52.782753 0
M  V30 11 C 37.663438 27.474824 54.802087 0
M  V30 12 C 39.354500 30.795971 55.024507 0
M  V30 13 C 37.831387 37.269839 61.434223 0
M  V30 14 C 36.186383 30.576359 59.848359 0
M  V30 15 C 38.696737 28.745368 53.235047 0
M  V30 16 C 37.177305 38.509974 61.264347 0
M  V30 17 N 37.199160 36.037558 61.259565 0
M  V30 18 N 38.445393 31.076685 59.352298 0
M  V30 19 F 35.382190 39.985834 61.767817 0
M  V30 20 C 38.633768 32.620897 61.410876 0 CFG=2
M  V30 21 C 36.045105 38.845712 62.020817 0
M  V30 22 C 38.337004 27.323955 51.168439 0
M  V30 23 F 34.646569 38.426620 63.894913 0
M  V30 24 C 39.199171 30.452075 58.266292 0
M  V30 25 C 38.663819 29.695595 55.467534 0
M  V30 26 C 38.149905 34.987813 60.844420 0 CFG=2
M  V30 27 C 36.445343 36.937737 63.430918 0
M  V30 28 S 38.122201 29.513227 57.145215 0
M  V30 29 C 38.226648 27.642314 52.609993 0
M  V30 30 C 37.604964 26.865281 53.587258 0
M  V30 31 C 37.629986 30.153087 60.117364 0
M  V30 32 O 39.788321 29.927779 51.452714 0
M  V30 33 N 38.342207 28.689222 54.613639 0
M  V30 34 C 39.282646 31.951610 60.167742 0
M  V30 35 C 40.430935 36.160928 63.475068 0
M  V30 36 C 40.339933 31.091761 50.889183 0
M  V30 37 O 39.645139 26.937785 50.943807 0
M  V30 38 H 36.975291 33.704655 62.102288 0
M  V30 39 H 41.559877 35.720819 61.732511 0
M  V30 40 H 40.358999 36.895728 61.424592 0
M  V30 41 H 40.666122 33.046410 62.128883 0
M  V30 42 H 39.369581 33.631466 63.150946 0
M  V30 43 H 40.291369 31.737722 53.320581 0
M  V30 44 H 34.628231 31.956454 60.289880 0
M  V30 45 H 35.701025 31.730806 61.634814 0
M  V30 46 H 40.166498 34.623817 60.422931 0
M  V30 47 H 35.633676 33.955353 60.112235 0
M  V30 48 H 36.770546 33.105584 59.127164 0
M  V30 49 H 37.298771 27.197237 55.778963 0
M  V30 50 H 39.600149 31.597915 55.707750 0
M  V30 51 H 35.596727 29.737750 60.167680 0
M  V30 52 H 36.008476 30.653295 58.775696 0
M  V30 53 H 37.555033 39.211659 60.535967 0
M  V30 54 H 38.311855 31.868253 62.126857 0
M  V30 55 H 37.685299 26.537729 50.844783 0
M  V30 56 H 38.117016 28.201097 50.567848 0
M  V30 57 H 39.645129 31.253162 57.692290 0
M  V30 58 H 39.993155 29.804474 58.642089 0
M  V30 59 H 38.208181 35.089499 59.763284 0
M  V30 60 H 36.261360 36.427163 64.362762 0
M  V30 61 H 37.138457 25.913651 53.378191 0
M  V30 62 H 37.859834 30.137916 61.178875 0
M  V30 63 H 37.781954 29.126940 59.781091 0
M  V30 64 H 39.645031 32.729117 59.498103 0
M  V30 65 H 40.145115 31.376955 60.507391 0
M  V30 66 H 40.445138 37.221922 63.720009 0
M  V30 67 H 41.270520 35.686122 63.984238 0
M  V30 68 H 39.524564 35.749886 63.911266 0
M  V30 69 H 40.536016 30.922288 49.830351 0
M  V30 70 H 41.283854 31.337798 51.364608 0
M  V30 71 H 39.639323 31.918463 50.965211 0
M  V30 72 H 39.663973 26.425314 50.144101 0
M  V30 END ATOM
M  V30 BEGIN BOND
M  V30 1 1 7 2
M  V30 2 1 7 3
M  V30 3 1 8 1
M  V30 4 1 8 5
M  V30 5 2 10 4
M  V30 6 1 12 4
M  V30 7 2 13 6
M  V30 8 1 14 5
M  V30 9 1 15 10
M  V30 10 1 16 13
M  V30 11 1 17 6
M  V30 12 1 17 13
M  V30 13 1 20 1
M  V30 14 1 20 3
M  V30 15 1 21 9
M  V30 16 2 21 16
M  V30 17 1 21 19
M  V30 18 1 23 9
M  V30 19 1 24 18
M  V30 20 2 25 12
M  V30 21 1 26 1
M  V30 22 1 26 7
M  V30 23 1 26 17
M  V30 24 1 27 6
M  V30 25 2 27 9
M  V30 26 1 28 24
M  V30 27 1 28 25
M  V30 28 2 29 15
M  V30 29 1 29 22
M  V30 30 2 30 11
M  V30 31 1 30 29
M  V30 32 1 31 14
M  V30 33 1 31 18
M  V30 34 1 32 10
M  V30 35 1 33 11
M  V30 36 1 33 15
M  V30 37 1 33 25
M  V30 38 1 34 18
M  V30 39 1 34 20
M  V30 40 1 35 2
M  V30 41 1 36 32
M  V30 42 1 37 22
M  V30 43 1 1 38 CFG=1
M  V30 44 1 39 2
M  V30 45 1 40 2
M  V30 46 1 41 3
M  V30 47 1 42 3
M  V30 48 1 43 4
M  V30 49 1 44 5
M  V30 50 1 45 5
M  V30 51 1 7 46 CFG=3
M  V30 52 1 47 8
M  V30 53 1 48 8
M  V30 54 1 49 11
M  V30 55 1 50 12
M  V30 56 1 51 14
M  V30 57 1 52 14
M  V30 58 1 53 16
M  V30 59 1 20 54 CFG=1
M  V30 60 1 55 22
M  V30 61 1 56 22
M  V30 62 1 57 24
M  V30 63 1 58 24
M  V30 64 1 26 59 CFG=3
M  V30 65 1 60 27
M  V30 66 1 61 30
M  V30 67 1 62 31
M  V30 68 1 63 31
M  V30 69 1 64 34
M  V30 70 1 65 34
M  V30 71 1 66 35
M  V30 72 1 67 35
M  V30 73 1 68 35
M  V30 74 1 69 36
M  V30 75 1 70 36
M  V30 76 1 71 36
M  V30 77 1 72 37
M  V30 END BOND
M  V30 END CTAB
M  END
>  <i_epik_Tot_Q>  (1) 
0

>  <i_epik_Tot_abs_Q>  (1) 
0

>  <i_i_glide_confnum>  (1) 
133

>  <i_i_glide_lignum>  (1) 
122

>  <i_i_glide_posenum>  (1) 
18

>  <i_i_glide_rotatable_bonds>  (1) 
8

>  <i_lp_mmshare_version>  (1) 
72125

>  <i_m_source_file_index>  (1) 
57

>  <i_f3d_flags>  (1) 
0

>  <num_sample>  (1) 
100

>  <b_lp_Chiralities_Consistent>  (1) 
1

>  <r_epik_Charging_Adjusted_Penalty>  (1) 
0.12519281595075751

>  <r_epik_Ionization_Penalty>  (1) 
0.12878356589467399

>  <r_epik_Ionization_Penalty_Charging>  (1) 
0

>  <r_epik_Ionization_Penalty_Neutral>  (1) 
0.12878356589467399

>  <r_epik_State_Penalty>  (1) 
0.12519281595075751

>  <r_glide_ring_energy>  (1) 
0

>  <r_i_docking_score>  (1) 
-8.4038288613652785

>  <r_i_glide_ecoul>  (1) 
-2.7865571706247794

>  <r_i_glide_eff_state_penalty>  (1) 
0.12519281595075751

>  <r_i_glide_einternal>  (1) 
8.1360739526625956

>  <r_i_glide_emodel>  (1) 
-49.326956952030244

>  <r_i_glide_emodel_strain>  (1) 
1.5706829458133598

>  <r_i_glide_energy>  (1) 
-37.406828105368184

>  <r_i_glide_erotb>  (1) 
0.36984873200181739

>  <r_i_glide_esite>  (1) 
-0.018792311555174076

>  <r_i_glide_evdw>  (1) 
-34.620270934743402

>  <r_i_glide_gscore>  (1) 
-8.5290216773160363

>  <r_i_glide_gscore_strain>  (1) 
0

>  <r_i_glide_hbond>  (1) 
-0.32000000000000001

>  <r_i_glide_ligand_efficiency>  (1) 
-0.22713050976662916

>  <r_i_glide_ligand_efficiency_ln>  (1) 
-1.8225934663291226

>  <r_i_glide_ligand_efficiency_sa>  (1) 
-0.75684924781984642

>  <r_i_glide_lipo>  (1) 
-4.9703077008896814

>  <r_i_glide_metal>  (1) 
-0

>  <r_i_glide_rewards>  (1) 
-1.4407732745421116

>  <r_lp_Energy>  (1) 
101.182165

>  <s_epik_Chemistry_Notes>  (1) 
This compound contains an acetal/aminal-like group ( X-CH(R)-Y where X, Y are N, S, or O) that may be acid/base labile, releasing an aldehyde.

>  <s_epik_cmdline>  (1) 
J2VwaWtfcHl0aG9uJywgJy1waHQnLCAnMS4wJywgJy1waCcsICc3LjQnLCAnLXRuJywgJzgnLCAnLW1hJywgJzUwMCcsICctaW1hZScsICc8aW5maWxlLm1hZT4nLCAnLW9tYWUnLCAnPG91dGZpbGUubWFlPic=

>  <s_epik_input>  (1) 
RmMoW2NIXTEpYyhGKVtjSF1jKGMxMilOMltDQEhdM1tDQEBIXShbQ0gyXVtDSDNdKVtDSDJdW0NAQEhdKFtDQEBIXTM0KVtDSDJdTihbQ0gyXVtDSDJdW0NIMl1bQ0gyXTQpW0NIMl1TYyhbY0hdW2NIXWM1T1tDSDNdKW4oYzU2KVtjSF1bY0hdYzZbQ0gyXVtPSF0=

>  <s_glide_docking_method>  (1) 
confgen

>  <s_i_glide_gridfile>  (1) 
gpcr_5ht2c_6bqh_protein_autoprepared_prepared

>  <s_lp_Force_Field>  (1) 
S-OPLS

>  <s_lp_Variant>  (1) 
DiffSBDD_56-1

>  <s_m_source_file>  (1) 
generated_GPCR_5HT2C_ligand_DiffSBDD_2026-06-23_prepared.sdf

>  <GenAI_Model>  (1) 
DiffSBDD

>  <Protein>  (1) 
GPCR_5HT2C

$$$$
DiffSBDD_25
     RDKit          3D

  0  0  0  0  0  0  0  0  0  0999 V3000
M  V30 BEGIN CTAB
M  V30 COUNTS 67 70 0 0 1
M  V30 BEGIN ATOM
M  V30 1 C 41.014571 33.197115 63.122578 0
M  V30 2 C 39.725719 25.710110 56.375854 0
M  V30 3 O 41.075481 31.992770 62.793625 0 CHG=-1
M  V30 4 C 39.785896 28.238167 60.394100 0
M  V30 5 N 38.474548 31.656114 60.147139 0
M  V30 6 C 39.226995 25.351744 54.968957 0
M  V30 7 C 40.202107 35.564448 62.438821 0
M  V30 8 C 38.454942 35.953746 60.967267 0
M  V30 9 C 36.863139 28.229142 53.759381 0
M  V30 10 C 38.025278 26.168554 54.468922 0
M  V30 11 C 38.115513 27.725575 54.482729 0 CFG=2
M  V30 12 C 37.027343 34.153658 59.904729 0
M  V30 13 O 39.120185 27.685832 52.366202 0
M  V30 14 O 38.559899 31.478940 62.473880 0
M  V30 15 N 39.368876 28.632495 58.099959 0
M  V30 16 C 38.965620 33.635380 61.529705 0
M  V30 17 O 41.734523 33.681612 64.026074 0
M  V30 18 C 39.439533 29.678018 53.580328 0
M  V30 19 C 40.039148 34.140283 62.365153 0
M  V30 20 C 38.153161 28.246973 55.949504 0
M  V30 21 C 39.521779 28.290126 56.675619 0 CFG=2
M  V30 22 C 38.645875 32.147404 61.437556 0
M  V30 23 C 38.759868 29.931099 58.401670 0
M  V30 24 N 39.420110 36.434398 61.769093 0
M  V30 25 C 39.837168 29.850782 52.133508 0
M  V30 26 C 39.800127 27.835337 59.129838 0
M  V30 27 N 41.210878 36.127035 63.210666 0
M  V30 28 N 39.245096 28.226014 53.704211 0
M  V30 29 C 40.433575 27.072380 56.385543 0
M  V30 30 C 38.845237 30.439648 59.874627 0
M  V30 31 C 39.530618 28.273080 50.164187 0
M  V30 32 N 39.346795 29.486188 60.797801 0
M  V30 33 C 39.013686 28.776200 51.479825 0 CFG=1
M  V30 34 C 38.178492 34.586885 60.809880 0
M  V30 35 H 40.439914 24.946462 56.682972 0
M  V30 36 H 38.918424 25.672953 57.107934 0
M  V30 37 H 40.133966 27.614618 61.203567 0
M  V30 38 H 40.045220 25.423237 54.252711 0
M  V30 39 H 38.929035 24.304026 54.967793 0
M  V30 40 H 37.866449 36.690843 60.441240 0
M  V30 41 H 36.045172 27.737281 54.204206 0
M  V30 42 H 36.718083 29.304558 53.833323 0
M  V30 43 H 36.785503 27.926984 52.717688 0
M  V30 44 H 37.791070 25.830097 53.459940 0
M  V30 45 H 37.160300 25.865872 55.060157 0
M  V30 46 H 36.391988 35.005574 59.659014 0
M  V30 47 H 37.399805 33.751644 58.961681 0
M  V30 48 H 36.386123 33.413376 60.383834 0
M  V30 49 H 38.542277 30.254865 53.791872 0
M  V30 50 H 40.215918 30.037119 54.255306 0
M  V30 51 H 37.485771 27.638296 56.558794 0
M  V30 52 H 37.729756 29.251389 55.967865 0
M  V30 53 H 40.066764 29.140632 56.267985 0
M  V30 54 H 39.205331 30.686686 57.753793 0
M  V30 55 H 37.703136 29.885894 58.137379 0
M  V30 56 H 40.883177 29.623943 51.986579 0
M  V30 57 H 39.644877 30.849910 51.742400 0
M  V30 58 H 40.157667 26.863245 58.835948 0
M  V30 59 H 41.789243 35.535623 63.803919 0
M  V30 60 H 41.285544 37.126221 63.342895 0
M  V30 61 H 40.872980 27.214609 55.404069 0
M  V30 62 H 41.301700 27.062427 57.044843 0
M  V30 63 H 39.645660 29.073627 49.432728 0
M  V30 64 H 40.473642 27.762140 50.290682 0
M  V30 65 H 38.845197 27.530309 49.768044 0
M  V30 66 H 37.984328 29.103875 51.371225 0
M  V30 67 H 39.432968 29.701948 61.784797 0
M  V30 END ATOM
M  V30 BEGIN BOND
M  V30 1 1 3 1
M  V30 2 1 6 2
M  V30 3 1 10 6
M  V30 4 1 11 9 CFG=3
M  V30 5 1 11 10
M  V30 6 2 17 1
M  V30 7 1 19 1
M  V30 8 2 19 7
M  V30 9 1 19 16
M  V30 10 1 20 11
M  V30 11 1 21 15
M  V30 12 1 21 20
M  V30 13 1 22 5
M  V30 14 2 22 14
M  V30 15 1 22 16
M  V30 16 1 23 15
M  V30 17 1 24 7
M  V30 18 2 24 8
M  V30 19 1 25 18
M  V30 20 2 26 4
M  V30 21 1 26 15
M  V30 22 1 27 7
M  V30 23 1 28 11
M  V30 24 1 28 13
M  V30 25 1 28 18
M  V30 26 1 29 2
M  V30 27 1 29 21
M  V30 28 2 30 5
M  V30 29 1 30 23
M  V30 30 1 32 4
M  V30 31 1 32 30
M  V30 32 1 33 13
M  V30 33 1 33 25
M  V30 34 1 33 31
M  V30 35 1 34 8
M  V30 36 1 34 12
M  V30 37 2 34 16
M  V30 38 1 35 2
M  V30 39 1 36 2
M  V30 40 1 37 4
M  V30 41 1 38 6
M  V30 42 1 39 6
M  V30 43 1 40 8
M  V30 44 1 41 9
M  V30 45 1 42 9
M  V30 46 1 43 9
M  V30 47 1 44 10
M  V30 48 1 45 10
M  V30 49 1 46 12
M  V30 50 1 47 12
M  V30 51 1 48 12
M  V30 52 1 49 18
M  V30 53 1 50 18
M  V30 54 1 51 20
M  V30 55 1 52 20
M  V30 56 1 21 53 CFG=3
M  V30 57 1 54 23
M  V30 58 1 55 23
M  V30 59 1 56 25
M  V30 60 1 57 25
M  V30 61 1 58 26
M  V30 62 1 59 27
M  V30 63 1 60 27
M  V30 64 1 61 29
M  V30 65 1 62 29
M  V30 66 1 63 31
M  V30 67 1 64 31
M  V30 68 1 65 31
M  V30 69 1 33 66 CFG=3
M  V30 70 1 67 32
M  V30 END BOND
M  V30 END CTAB
M  END
>  <i_epik_Tot_Q>  (1) 
-1

>  <i_epik_Tot_abs_Q>  (1) 
1

>  <i_i_glide_confnum>  (1) 
379

>  <i_i_glide_lignum>  (1) 
62

>  <i_i_glide_posenum>  (1) 
347

>  <i_i_glide_rotatable_bonds>  (1) 
5

>  <i_lp_mmshare_version>  (1) 
72125

>  <i_m_source_file_index>  (1) 
26

>  <i_f3d_flags>  (1) 
0

>  <num_sample>  (1) 
100

>  <b_lp_Chiralities_Consistent>  (1) 
1

>  <r_epik_Charging_Adjusted_Penalty>  (1) 
0.31558791334810349

>  <r_epik_Ionization_Penalty>  (1) 
0.22690283062159758

>  <r_epik_Ionization_Penalty_Charging>  (1) 
2.1847890769935955e-05

>  <r_epik_Ionization_Penalty_Neutral>  (1) 
0.22688098273082763

>  <r_epik_State_Penalty>  (1) 
0.31556606545733357

>  <r_glide_ring_energy>  (1) 
1.261254924330955

>  <r_i_docking_score>  (1) 
-8.397418081272658

>  <r_i_glide_ecoul>  (1) 
-2.7952656281671189

>  <r_i_glide_eff_state_penalty>  (1) 
0.31556606545733357

>  <r_i_glide_einternal>  (1) 
3.7133438095779212

>  <r_i_glide_emodel>  (1) 
-65.544315964951608

>  <r_i_glide_emodel_strain>  (1) 
1.2474699387578028

>  <r_i_glide_energy>  (1) 
-47.227361900056053

>  <r_i_glide_erotb>  (1) 
0.36642180475109298

>  <r_i_glide_esite>  (1) 
0

>  <r_i_glide_evdw>  (1) 
-44.432096271888931

>  <r_i_glide_gscore>  (1) 
-8.7129841467299922

>  <r_i_glide_gscore_strain>  (1) 
0

>  <r_i_glide_hbond>  (1) 
-0.2431292801802265

>  <r_i_glide_ligand_efficiency>  (1) 
-0.24698288474331348

>  <r_i_glide_ligand_efficiency_ln>  (1) 
-1.8552251937520521

>  <r_i_glide_ligand_efficiency_sa>  (1) 
-0.80012866812799488

>  <r_i_glide_lipo>  (1) 
-4.3764924648985826

>  <r_i_glide_metal>  (1) 
-0

>  <r_i_glide_rewards>  (1) 
-1.8188895485827634

>  <r_lp_Energy>  (1) 
74.56592599999999

>  <s_epik_Chemistry_Notes>  (1) 
This compound has an imine and may undergo hydrolysis. This compound has a N-S or N-O group and may undergo hydrolysis at high or low pH.

>  <s_epik_cmdline>  (1) 
J2VwaWtfcHl0aG9uJywgJy1waHQnLCAnMS4wJywgJy1waCcsICc3LjQnLCAnLXRuJywgJzgnLCAnLW1hJywgJzUwMCcsICctaW1hZScsICc8aW5maWxlLm1hZT4nLCAnLW9tYWUnLCAnPG91dGZpbGUubWFlPic=

>  <s_epik_input>  (1) 
W09IXUMoPU8pYyhjMVtOSDJdKWMoYyhbY0hdbjEpW0NIM10pQyg9TylbTkhdQyg9TltDSF09W0NIXTIpW0NIMl1OMltDQEhdKFtDSDJdMylbQ0gyXVtDSDJdW0NIMl1bQ0gyXVtDQF0zKFtDSDNdKU40T1tDQEBIXShbQ0gzXSlbQ0gyXVtDSDJdNA==

>  <s_glide_docking_method>  (1) 
confgen

>  <s_i_glide_gridfile>  (1) 
gpcr_5ht2c_6bqh_protein_autoprepared_prepared

>  <s_lp_Force_Field>  (1) 
S-OPLS

>  <s_lp_Variant>  (1) 
DiffSBDD_25-2

>  <s_m_source_file>  (1) 
generated_GPCR_5HT2C_ligand_DiffSBDD_2026-06-23_prepared.sdf

>  <GenAI_Model>  (1) 
DiffSBDD

>  <Protein>  (1) 
GPCR_5HT2C

$$$$
DiffSBDD_7
     RDKit          3D

  0  0  0  0  0  0  0  0  0  0999 V3000
M  V30 BEGIN CTAB
M  V30 COUNTS 75 77 0 0 1
M  V30 BEGIN ATOM
M  V30 1 C 38.915407 32.168706 57.442683 0
M  V30 2 C 35.848120 37.662450 63.112873 0
M  V30 3 O 35.071852 37.545317 64.228398 0
M  V30 4 C 36.264200 32.630476 60.599485 0 CFG=1
M  V30 5 C 38.689781 29.526689 57.155971 0 CFG=1
M  V30 6 C 37.929398 26.172334 57.704910 0
M  V30 7 O 35.245495 31.857755 61.186298 0
M  V30 8 C 37.094953 25.386430 56.894580 0
M  V30 9 C 39.803063 25.711941 56.243111 0
M  V30 10 C 39.290728 26.339743 57.384614 0
M  V30 11 C 37.241984 36.637813 61.388001 0
M  V30 12 C 38.969887 24.937237 55.430176 0
M  V30 13 C 37.441208 37.899195 60.801527 0
M  V30 14 C 38.637331 30.864882 60.403635 0
M  V30 15 N 36.619109 31.949452 59.367765 0
M  V30 16 S 40.277976 28.937545 57.891100 0 CHG=1
M  V30 17 O 37.676038 30.272163 54.989848 0
M  V30 18 C 38.157181 30.856009 57.817641 0 CFG=1
M  V30 19 C 39.116276 28.510533 54.716291 0
M  V30 20 C 36.045142 38.918631 62.521173 0
M  V30 21 C 36.445556 36.521440 62.545918 0
M  V30 22 C 40.189061 27.153537 58.251536 0 CFG=1
M  V30 23 C 38.096185 33.164661 56.601591 0
M  V30 24 C 37.615343 24.767334 55.755515 0
M  V30 25 C 34.724654 34.119719 59.123891 0
M  V30 26 O 39.483983 31.740225 60.568101 0
M  V30 27 C 35.816495 34.059380 60.205920 0 CFG=2
M  V30 28 C 40.665539 28.220354 60.572936 0
M  V30 29 O 37.967740 27.686547 54.645607 0
M  V30 30 C 37.868788 35.404383 60.767776 0
M  V30 31 C 38.835162 29.733514 55.595957 0 CFG=2
M  V30 32 N 36.988906 34.829073 59.728832 0 CHG=1
M  V30 33 C 37.586816 30.844439 59.280592 0 CFG=1
M  V30 34 C 39.744157 28.035571 59.384818 0 CFG=1
M  V30 35 C 36.845003 39.037305 61.367807 0
M  V30 36 H 39.819677 31.947396 56.888607 0
M  V30 37 H 39.245373 32.699848 58.331203 0
M  V30 38 H 34.953732 36.650808 64.527924 0
M  V30 39 H 37.076552 32.697505 61.320723 0
M  V30 40 H 37.928351 28.768906 57.316805 0
M  V30 41 H 37.529027 26.644042 58.567664 0
M  V30 42 H 34.485903 32.404208 61.326319 0
M  V30 43 H 36.054037 25.260547 57.150537 0
M  V30 44 H 40.845078 25.824212 55.989932 0
M  V30 45 H 39.375068 24.456967 54.567387 0
M  V30 46 H 38.045006 37.996400 59.913322 0
M  V30 47 H 38.525593 30.026387 61.089317 0
M  V30 48 H 35.863956 31.882032 58.680136 0
M  V30 49 H 37.105594 29.539123 54.792141 0
M  V30 50 H 37.245081 30.949300 57.253934 0
M  V30 51 H 40.000938 27.973016 55.049041 0
M  V30 52 H 39.334059 28.838716 53.699182 0
M  V30 53 H 35.615246 39.794560 62.958205 0
M  V30 54 H 36.275213 35.557590 62.971980 0
M  V30 55 H 41.195425 26.739680 58.278627 0
M  V30 56 H 37.242961 33.544960 57.156427 0
M  V30 57 H 37.708432 32.715012 55.688469 0
M  V30 58 H 38.697570 34.018339 56.294497 0
M  V30 59 H 36.977236 24.158576 55.131015 0
M  V30 60 H 33.827327 33.567256 59.407530 0
M  V30 61 H 35.077393 33.737836 58.170756 0
M  V30 62 H 34.445368 35.149399 58.921035 0
M  V30 63 H 35.407257 34.537450 61.091275 0
M  V30 64 H 40.237219 27.737852 61.451631 0
M  V30 65 H 40.817927 29.272426 60.798602 0
M  V30 66 H 41.644476 27.785239 60.376584 0
M  V30 67 H 38.091541 26.923062 55.196462 0
M  V30 68 H 38.114777 34.674552 61.536534 0
M  V30 69 H 38.813447 35.680847 60.300893 0
M  V30 70 H 39.647374 30.433660 55.406205 0
M  V30 71 H 37.526658 34.198350 59.148045 0
M  V30 72 H 37.011620 29.926125 59.406037 0
M  V30 73 H 38.685334 28.203752 59.557575 0
M  V30 74 H 37.001622 40.006538 60.921362 0
M  V30 75 H 36.654519 35.584415 59.146712 0
M  V30 END ATOM
M  V30 BEGIN BOND
M  V30 1 1 3 2
M  V30 2 1 7 4
M  V30 3 1 8 6
M  V30 4 2 10 6
M  V30 5 1 10 9
M  V30 6 2 12 9
M  V30 7 2 13 11
M  V30 8 1 15 4
M  V30 9 1 16 5
M  V30 10 1 18 1
M  V30 11 1 18 5
M  V30 12 1 20 2
M  V30 13 2 21 2
M  V30 14 1 21 11
M  V30 15 1 22 10
M  V30 16 1 16 22 CFG=3
M  V30 17 1 23 1
M  V30 18 2 24 8
M  V30 19 1 24 12
M  V30 20 2 26 14
M  V30 21 1 27 4
M  V30 22 1 27 25
M  V30 23 1 29 19
M  V30 24 1 30 11
M  V30 25 1 31 5
M  V30 26 1 31 17
M  V30 27 1 31 19
M  V30 28 1 32 27
M  V30 29 1 32 30
M  V30 30 1 33 14
M  V30 31 1 33 15
M  V30 32 1 33 18
M  V30 33 1 34 16
M  V30 34 1 34 22
M  V30 35 1 34 28
M  V30 36 1 35 13
M  V30 37 2 35 20
M  V30 38 1 36 1
M  V30 39 1 37 1
M  V30 40 1 38 3
M  V30 41 1 4 39 CFG=1
M  V30 42 1 5 40 CFG=3
M  V30 43 1 41 6
M  V30 44 1 42 7
M  V30 45 1 43 8
M  V30 46 1 44 9
M  V30 47 1 45 12
M  V30 48 1 46 13
M  V30 49 1 47 14
M  V30 50 1 48 15
M  V30 51 1 49 17
M  V30 52 1 18 50 CFG=3
M  V30 53 1 51 19
M  V30 54 1 52 19
M  V30 55 1 53 20
M  V30 56 1 54 21
M  V30 57 1 22 55 CFG=1
M  V30 58 1 56 23
M  V30 59 1 57 23
M  V30 60 1 58 23
M  V30 61 1 59 24
M  V30 62 1 60 25
M  V30 63 1 61 25
M  V30 64 1 62 25
M  V30 65 1 27 63 CFG=1
M  V30 66 1 64 28
M  V30 67 1 65 28
M  V30 68 1 66 28
M  V30 69 1 67 29
M  V30 70 1 68 30
M  V30 71 1 69 30
M  V30 72 1 31 70 CFG=1
M  V30 73 1 71 32
M  V30 74 1 33 72 CFG=3
M  V30 75 1 34 73 CFG=1
M  V30 76 1 74 35
M  V30 77 1 75 32
M  V30 END BOND
M  V30 END CTAB
M  END
>  <i_epik_Tot_Q>  (1) 
2

>  <i_epik_Tot_abs_Q>  (1) 
2

>  <i_i_glide_confnum>  (1) 
4609

>  <i_i_glide_lignum>  (1) 
10

>  <i_i_glide_posenum>  (1) 
45

>  <i_i_glide_rotatable_bonds>  (1) 
18

>  <i_lp_mmshare_version>  (1) 
72125

>  <i_m_source_file_index>  (1) 
8

>  <i_f3d_flags>  (1) 
0

>  <num_sample>  (1) 
100

>  <b_lp_Chiralities_Consistent>  (1) 
1

>  <r_epik_Charging_Adjusted_Penalty>  (1) 
0.016656697635693843

>  <r_epik_Ionization_Penalty>  (1) 
0.030146097982287068

>  <r_epik_Ionization_Penalty_Charging>  (1) 
0.016656697635693843

>  <r_epik_Ionization_Penalty_Neutral>  (1) 
0.013489400346593225

>  <r_epik_State_Penalty>  (1) 
-0

>  <r_glide_ring_energy>  (1) 
0

>  <r_i_docking_score>  (1) 
-8.3966369206266478

>  <r_i_glide_ecoul>  (1) 
-10.262489885532506

>  <r_i_glide_eff_state_penalty>  (1) 
-0

>  <r_i_glide_einternal>  (1) 
13.941003939711115

>  <r_i_glide_emodel>  (1) 
-82.984013083226927

>  <r_i_glide_emodel_strain>  (1) 
2.2669448159245817

>  <r_i_glide_energy>  (1) 
-48.222393435252542

>  <r_i_glide_erotb>  (1) 
0.96334785482901231

>  <r_i_glide_esite>  (1) 
-0.015032502762660502

>  <r_i_glide_evdw>  (1) 
-37.959903549720039

>  <r_i_glide_gscore>  (1) 
-8.3966369206266478

>  <r_i_glide_gscore_strain>  (1) 
0

>  <r_i_glide_hbond>  (1) 
-0.52628630240704266

>  <r_i_glide_ligand_efficiency>  (1) 
-0.23990391201790423

>  <r_i_glide_ligand_efficiency_ln>  (1) 
-1.8432481573935515

>  <r_i_glide_ligand_efficiency_sa>  (1) 
-0.78474160428421413

>  <r_i_glide_lipo>  (1) 
-4.2923693703219694

>  <r_i_glide_metal>  (1) 
-0

>  <r_i_glide_rewards>  (1) 
-1.0889279396481104

>  <r_lp_Energy>  (1) 
35.191997999999998

>  <r_lp_tautomer_probability>  (1) 
1

>  <s_epik_Chemistry_Notes>  (1) 
This compound contains an acetal/aminal-like group ( X-CH(R)-Y where X, Y are N, S, or O) that may be acid/base labile, releasing an aldehyde.

>  <s_epik_cmdline>  (1) 
J2VwaWtfcHl0aG9uJywgJy1waHQnLCAnMS4wJywgJy1waCcsICc3LjQnLCAnLXRuJywgJzgnLCAnLW1hJywgJzUwMCcsICctaW1hZScsICc8aW5maWxlLm1hZT4nLCAnLW9tYWUnLCAnPG91dGZpbGUubWFlPic=

>  <s_epik_input>  (1) 
W2NIXTFbY0hdW2NIXVtjSF1bY0hdYzFbQ0BIXShbQ0BIXTJbQ0gzXSlbUytdMltDQEhdKFtDQEhdKFtPSF0pW0NIMl1bT0hdKVtDQEhdKFtDSDJdW0NIM10pW0NAQEhdKFtDSF09TylbTkhdW0NASF0oW09IXSlbQ0BIXShbQ0gzXSlbTkhdW0NIMl1jKFtjSF0zKVtjSF1bY0hdW2NIXWMzW09IXQ==

>  <s_glide_docking_method>  (1) 
confgen

>  <s_i_glide_gridfile>  (1) 
gpcr_5ht2c_6bqh_protein_autoprepared_prepared

>  <s_lp_Force_Field>  (1) 
S-OPLS

>  <s_lp_Variant>  (1) 
DiffSBDD_7-1

>  <s_m_source_file>  (1) 
generated_GPCR_5HT2C_ligand_DiffSBDD_2026-06-23_prepared.sdf

>  <GenAI_Model>  (1) 
DiffSBDD

>  <Protein>  (1) 
GPCR_5HT2C

$$$$
DiffSBDD_68
     RDKit          3D

  0  0  0  0  0  0  0  0  0  0999 V3000
M  V30 BEGIN CTAB
M  V30 COUNTS 77 79 0 0 1
M  V30 BEGIN ATOM
M  V30 1 C 43.055690 29.047401 65.179021 0 CFG=2
M  V30 2 O 42.410473 32.281402 65.678845 0
M  V30 3 C 38.744766 25.008148 56.151118 0 CFG=2
M  V30 4 O 43.189193 27.780864 67.834467 0
M  V30 5 C 39.999715 35.654661 61.844997 0 CFG=1
M  V30 6 C 38.724787 36.461882 61.512791 0
M  V30 7 C 40.841707 36.289936 62.976489 0
M  V30 8 C 37.605123 31.322978 58.970853 0 CFG=1
M  V30 9 C 42.407696 27.808736 64.559279 0
M  V30 10 O 37.271530 26.505823 57.378567 0
M  V30 11 C 38.536012 26.413916 56.753813 0 CFG=2
M  V30 12 C 41.810580 31.947018 64.658019 0
M  V30 13 C 37.687897 24.471402 55.158222 0
M  V30 14 C 43.389864 30.149046 64.169361 0
M  V30 15 C 44.368038 27.697766 67.057542 0
M  V30 16 C 38.546307 28.990602 56.338933 0
M  V30 17 C 40.539876 32.666730 64.240842 0
M  V30 18 O 36.454622 24.201725 55.783148 0
M  V30 19 O 38.567315 32.366307 59.138874 0
M  V30 20 C 40.824075 33.901576 63.348238 0 CFG=2
M  V30 21 C 40.928716 35.239805 64.088847 0 CFG=1
M  V30 22 O 42.185003 35.313568 65.968346 0
M  V30 23 F 38.014140 27.465027 54.682919 0
M  V30 24 C 44.126733 28.025475 65.577104 0 CFG=2
M  V30 25 C 37.194846 32.409711 61.056440 0 CFG=2
M  V30 26 O 36.309268 33.319540 61.667908 0
M  V30 27 O 41.382279 27.599048 63.915963 0
M  V30 28 N 42.214376 30.945475 63.869096 0
M  V30 29 C 45.471667 28.142684 64.867743 0
M  V30 30 N 42.278464 35.335363 64.760102 0
M  V30 31 F 40.060480 27.530950 55.361856 0
M  V30 32 O 43.371159 26.931131 64.952577 0
M  V30 33 S 38.273127 29.665568 59.314666 0
M  V30 34 C 38.786590 27.585144 55.762573 0
M  V30 35 C 39.646534 33.141141 61.187354 0
M  V30 36 O 40.563742 32.343636 60.992511 0
M  V30 37 O 35.446274 32.417598 59.367941 0
M  V30 38 C 38.361383 33.104780 60.341470 0 CFG=1
M  V30 39 F 38.882673 24.136987 57.151211 0
M  V30 40 S 39.584764 29.333806 57.789339 0
M  V30 41 C 39.732275 34.198284 62.303093 0 CFG=2
M  V30 42 C 36.475901 31.640984 59.959278 0 CFG=1
M  V30 43 H 42.488961 29.409632 66.036301 0
M  V30 44 H 39.716455 25.003286 55.651854 0
M  V30 45 H 42.749764 28.600303 67.655292 0
M  V30 46 H 40.625347 35.641596 60.950863 0
M  V30 47 H 37.953696 36.352844 62.277989 0
M  V30 48 H 38.950430 37.526011 61.426085 0
M  V30 49 H 38.286002 36.161978 60.561493 0
M  V30 50 H 41.839134 36.510501 62.593808 0
M  V30 51 H 40.426754 37.226750 63.351692 0
M  V30 52 H 37.252920 31.305053 57.937310 0
M  V30 53 H 37.269289 27.261094 57.948687 0
M  V30 54 H 39.267182 26.506562 57.557190 0
M  V30 55 H 37.522824 25.149583 54.322886 0
M  V30 56 H 38.031598 23.535265 54.729907 0
M  V30 57 H 44.187072 30.785821 64.558256 0
M  V30 58 H 43.767356 29.746014 63.231137 0
M  V30 59 H 45.081143 28.405730 67.481398 0
M  V30 60 H 44.806866 26.705588 67.181017 0
M  V30 61 H 37.493520 29.133603 56.584592 0
M  V30 62 H 38.777716 29.735540 55.576848 0
M  V30 63 H 39.884019 31.950453 63.744643 0
M  V30 64 H 40.048043 32.941441 65.169497 0
M  V30 65 H 36.628934 24.096593 56.707274 0
M  V30 66 H 41.768243 33.749297 62.816269 0
M  V30 67 H 40.136634 35.390897 64.825766 0
M  V30 68 H 37.571748 31.709943 61.804093 0
M  V30 69 H 35.674666 33.546620 60.995455 0
M  V30 70 H 41.676434 30.711019 63.046308 0
M  V30 71 H 45.964881 29.074570 65.143362 0
M  V30 72 H 46.147721 27.338715 65.134833 0
M  V30 73 H 45.370765 28.136843 63.784466 0
M  V30 74 H 35.337983 32.137297 58.443793 0
M  V30 75 H 38.082043 34.111366 60.039644 0
M  V30 76 H 38.793306 34.182798 62.833535 0
M  V30 77 H 36.011069 30.732735 60.343127 0
M  V30 END ATOM
M  V30 BEGIN BOND
M  V30 1 1 6 5
M  V30 2 1 7 5
M  V30 3 1 9 1
M  V30 4 1 11 3
M  V30 5 1 11 10
M  V30 6 2 12 2
M  V30 7 1 13 3
M  V30 8 1 14 1
M  V30 9 1 15 4
M  V30 10 1 17 12
M  V30 11 1 18 13
M  V30 12 1 19 8
M  V30 13 1 20 17
M  V30 14 1 21 7
M  V30 15 1 21 20
M  V30 16 1 24 1
M  V30 17 1 24 15 CFG=1
M  V30 18 1 26 25
M  V30 19 2 27 9
M  V30 20 1 28 12
M  V30 21 1 28 14
M  V30 22 1 29 24
M  V30 23 1 30 21
M  V30 24 2 30 22
M  V30 25 1 32 9
M  V30 26 1 32 24
M  V30 27 1 33 8
M  V30 28 1 34 11
M  V30 29 1 34 16
M  V30 30 1 34 23
M  V30 31 1 34 31
M  V30 32 2 36 35
M  V30 33 1 38 19
M  V30 34 1 38 25
M  V30 35 1 38 35
M  V30 36 1 39 3
M  V30 37 1 40 16
M  V30 38 1 40 33
M  V30 39 1 41 5
M  V30 40 1 41 20
M  V30 41 1 41 35
M  V30 42 1 42 8
M  V30 43 1 42 25
M  V30 44 1 42 37
M  V30 45 1 1 43 CFG=1
M  V30 46 1 3 44 CFG=3
M  V30 47 1 45 4
M  V30 48 1 5 46 CFG=3
M  V30 49 1 47 6
M  V30 50 1 48 6
M  V30 51 1 49 6
M  V30 52 1 50 7
M  V30 53 1 51 7
M  V30 54 1 8 52 CFG=3
M  V30 55 1 53 10
M  V30 56 1 11 54 CFG=1
M  V30 57 1 55 13
M  V30 58 1 56 13
M  V30 59 1 57 14
M  V30 60 1 58 14
M  V30 61 1 59 15
M  V30 62 1 60 15
M  V30 63 1 61 16
M  V30 64 1 62 16
M  V30 65 1 63 17
M  V30 66 1 64 17
M  V30 67 1 65 18
M  V30 68 1 20 66 CFG=3
M  V30 69 1 21 67 CFG=1
M  V30 70 1 25 68 CFG=1
M  V30 71 1 69 26
M  V30 72 1 70 28
M  V30 73 1 71 29
M  V30 74 1 72 29
M  V30 75 1 73 29
M  V30 76 1 74 37
M  V30 77 1 38 75 CFG=3
M  V30 78 1 41 76 CFG=1
M  V30 79 1 42 77 CFG=1
M  V30 END BOND
M  V30 END CTAB
M  END
>  <i_epik_Tot_Q>  (1) 
0

>  <i_epik_Tot_abs_Q>  (1) 
0

>  <i_i_glide_confnum>  (1) 
10936

>  <i_i_glide_lignum>  (1) 
152

>  <i_i_glide_posenum>  (1) 
44

>  <i_i_glide_rotatable_bonds>  (1) 
21

>  <i_lp_mmshare_version>  (1) 
72125

>  <i_m_source_file_index>  (1) 
69

>  <i_f3d_flags>  (1) 
0

>  <num_sample>  (1) 
100

>  <b_lp_Chiralities_Consistent>  (1) 
1

>  <r_epik_Charging_Adjusted_Penalty>  (1) 
0.055139977008856429

>  <r_epik_Ionization_Penalty>  (1) 
0.055151113316776565

>  <r_epik_Ionization_Penalty_Charging>  (1) 
0

>  <r_epik_Ionization_Penalty_Neutral>  (1) 
0.055151113316776565

>  <r_epik_State_Penalty>  (1) 
0.055139977008856429

>  <r_glide_ring_energy>  (1) 
0

>  <r_i_docking_score>  (1) 
-8.3949917743290907

>  <r_i_glide_ecoul>  (1) 
-9.5644030315395963

>  <r_i_glide_eff_state_penalty>  (1) 
0.055139977008856429

>  <r_i_glide_einternal>  (1) 
4.793838554361745

>  <r_i_glide_emodel>  (1) 
-80.976003287488027

>  <r_i_glide_emodel_strain>  (1) 
2.5411788999892195

>  <r_i_glide_energy>  (1) 
-58.009866302340271

>  <r_i_glide_erotb>  (1) 
0.60671089225908026

>  <r_i_glide_esite>  (1) 
0

>  <r_i_glide_evdw>  (1) 
-48.445463270800673

>  <r_i_glide_gscore>  (1) 
-8.4501317513379473

>  <r_i_glide_gscore_strain>  (1) 
0

>  <r_i_glide_hbond>  (1) 
-0.1561213712604323

>  <r_i_glide_ligand_efficiency>  (1) 
-0.19988075653164503

>  <r_i_glide_ligand_efficiency_ln>  (1) 
-1.7719664836761888

>  <r_i_glide_ligand_efficiency_sa>  (1) 
-0.69479083550405951

>  <r_i_glide_lipo>  (1) 
-3.215912167920552

>  <r_i_glide_metal>  (1) 
-0

>  <r_i_glide_rewards>  (1) 
-1.8278754861450703

>  <r_lp_Energy>  (1) 
-0.130936

>  <r_lp_tautomer_probability>  (1) 
0.99999996000000102

>  <s_epik_Chemistry_Notes>  (1) 
This compound has an ester and may undergo hydrolysis at high or low pH. This compound contains an acetal/aminal-like group ( X-CH(R)-Y where X, Y are N, S, or O) that may be acid/base labile, releasing an aldehyde.

>  <s_epik_cmdline>  (1) 
J2VwaWtfcHl0aG9uJywgJy1waHQnLCAnMS4wJywgJy1waCcsICc3LjQnLCAnLXRuJywgJzgnLCAnLW1hJywgJzUwMCcsICctaW1hZScsICc8aW5maWxlLm1hZT4nLCAnLW9tYWUnLCAnPG91dGZpbGUubWFlPic=

>  <s_epik_input>  (1) 
W09IXVtDSDJdW0NAXTEoW0NIM10pW0NASF0oQyg9TylPMSlbQ0gyXVtOSF1DKD1PKVtDSDJdW0NASF0oW0NAQEhdKE49TylbQ0gyXVtDQEBIXTJbQ0gzXSlbQ0BASF0yQyg9TylbQ0BIXShbQ0BASF0oW09IXSlbQ0BIXTNbT0hdKU9bQ0BIXTNTU1tDSDJdQyhGKShGKVtDQEBIXShbT0hdKVtDQEBIXShGKVtDSDJdW09IXQ==

>  <s_glide_docking_method>  (1) 
confgen

>  <s_i_glide_gridfile>  (1) 
gpcr_5ht2c_6bqh_protein_autoprepared_prepared

>  <s_lp_Force_Field>  (1) 
S-OPLS

>  <s_lp_Variant>  (1) 
DiffSBDD_68-1

>  <s_m_source_file>  (1) 
generated_GPCR_5HT2C_ligand_DiffSBDD_2026-06-23_prepared.sdf

>  <GenAI_Model>  (1) 
DiffSBDD

>  <Protein>  (1) 
GPCR_5HT2C

$$$$
DiffSBDD_96
     RDKit          3D

  0  0  0  0  0  0  0  0  0  0999 V3000
M  V30 BEGIN CTAB
M  V30 COUNTS 67 70 0 0 1
M  V30 BEGIN ATOM
M  V30 1 F 37.092619 37.740587 62.080152 0
M  V30 2 C 38.834011 35.972215 60.736223 0 CFG=1
M  V30 3 C 40.174116 35.296571 60.827023 0
M  V30 4 O 42.045022 35.755364 63.367837 0
M  V30 5 C 38.157241 32.372940 56.534712 0
M  V30 6 C 37.495155 35.277056 60.489426 0 CFG=2
M  V30 7 N 37.645156 32.415747 57.917060 0 CHG=1
M  V30 8 F 39.960507 28.938602 49.774477 0
M  V30 9 C 38.936729 27.803055 53.102689 0
M  V30 10 C 40.133487 31.349800 62.879570 0
M  V30 11 C 39.645143 30.121058 53.241715 0
M  V30 12 O 38.845143 34.647141 62.567728 0
M  V30 13 O 39.719340 25.512043 57.767737 0
M  V30 14 C 38.457811 27.592429 55.575848 0
M  V30 15 F 36.144249 36.195378 63.217640 0
M  V30 16 C 39.918358 30.104463 51.855231 0
M  V30 17 C 37.990607 35.581769 61.890942 0 CFG=1
M  V30 18 C 37.906741 31.018719 55.864924 0
M  V30 19 C 41.524000 34.719216 63.823403 0
M  V30 20 S 38.326614 26.509606 54.167267 0
M  V30 21 C 39.949229 34.165219 61.831042 0 CFG=2
M  V30 22 C 37.291013 33.865354 59.949786 0
M  V30 23 C 39.149108 28.953799 53.915362 0
M  V30 24 O 40.452454 27.612307 57.644569 0 CHG=-1
M  V30 25 N 38.880827 28.847514 55.214430 0 CHG=1
M  V30 26 C 41.197890 30.711864 61.985456 0
M  V30 27 O 40.615278 32.509471 63.544509 0
M  V30 28 C 41.061658 33.657763 62.801697 0 CFG=2
M  V30 29 C 39.575321 26.730915 57.514150 0
M  V30 30 F 38.101078 36.937755 63.812327 0
M  V30 31 N 37.245129 26.073560 57.132409 0
M  V30 32 C 39.694473 28.944261 51.100115 0
M  V30 33 C 37.951717 33.697636 58.575497 0
M  V30 34 C 39.198113 27.793300 51.721576 0
M  V30 35 O 41.354952 34.460914 65.037064 0 CHG=-1
M  V30 36 C 39.075775 30.044673 56.048699 0
M  V30 37 C 38.195205 27.178061 57.002624 0 CFG=2
M  V30 38 C 37.322021 36.629706 62.777456 0
M  V30 39 H 38.845112 37.036645 60.567795 0
M  V30 40 H 40.445240 34.937900 59.841543 0
M  V30 41 H 40.916590 36.020779 61.160501 0
M  V30 42 H 39.218266 32.624188 56.509729 0
M  V30 43 H 37.645118 33.148955 55.963822 0
M  V30 44 H 36.728700 35.950940 60.109052 0
M  V30 45 H 36.633780 32.282723 57.813186 0
M  V30 46 H 39.855572 30.635768 63.657357 0
M  V30 47 H 39.212727 31.547544 62.332293 0
M  V30 48 H 39.830366 31.027471 53.796696 0
M  V30 49 H 40.300988 30.993300 51.372547 0
M  V30 50 H 37.736118 31.209187 54.805876 0
M  V30 51 H 36.990602 30.537771 56.215358 0
M  V30 52 H 39.639677 33.322882 61.223673 0
M  V30 53 H 36.215245 33.704806 59.856673 0
M  V30 54 H 37.626318 33.115609 60.662827 0
M  V30 55 H 40.838803 29.768791 61.570575 0
M  V30 56 H 41.458482 31.364571 61.152420 0
M  V30 57 H 42.096090 30.505171 62.568360 0
M  V30 58 H 41.938481 33.374701 62.219028 0
M  V30 59 H 37.021979 25.661129 56.240543 0
M  V30 60 H 39.034883 33.737357 58.673393 0
M  V30 61 H 37.644758 34.517040 57.923421 0
M  V30 62 H 39.023086 26.900686 51.141362 0
M  V30 63 H 39.131949 29.746058 57.093810 0
M  V30 64 H 40.045165 30.490843 55.833406 0
M  V30 65 H 38.017282 31.646968 58.453637 0
M  V30 66 H 37.728118 25.343784 57.652177 0
M  V30 67 H 37.840027 28.020223 57.596476 0
M  V30 END ATOM
M  V30 BEGIN BOND
M  V30 1 1 3 2
M  V30 2 1 6 2
M  V30 3 1 7 5
M  V30 4 2 16 11
M  V30 5 1 17 2
M  V30 6 1 17 6
M  V30 7 1 17 12
M  V30 8 1 18 5
M  V30 9 2 19 4
M  V30 10 1 20 9
M  V30 11 1 20 14
M  V30 12 1 21 3
M  V30 13 1 21 12
M  V30 14 1 22 6
M  V30 15 2 23 9
M  V30 16 1 23 11
M  V30 17 2 25 14
M  V30 18 1 25 23
M  V30 19 1 26 10
M  V30 20 1 27 10
M  V30 21 1 28 19
M  V30 22 1 28 21
M  V30 23 1 28 27
M  V30 24 2 29 13
M  V30 25 1 29 24
M  V30 26 1 32 8
M  V30 27 1 32 16
M  V30 28 1 33 7
M  V30 29 1 33 22
M  V30 30 1 34 9
M  V30 31 2 34 32
M  V30 32 1 35 19
M  V30 33 1 36 18
M  V30 34 1 36 25
M  V30 35 1 37 14
M  V30 36 1 37 29
M  V30 37 1 37 31
M  V30 38 1 38 1
M  V30 39 1 38 15
M  V30 40 1 17 38 CFG=1
M  V30 41 1 38 30
M  V30 42 1 2 39 CFG=3
M  V30 43 1 40 3
M  V30 44 1 41 3
M  V30 45 1 42 5
M  V30 46 1 43 5
M  V30 47 1 6 44 CFG=3
M  V30 48 1 45 7
M  V30 49 1 46 10
M  V30 50 1 47 10
M  V30 51 1 48 11
M  V30 52 1 49 16
M  V30 53 1 50 18
M  V30 54 1 51 18
M  V30 55 1 21 52 CFG=3
M  V30 56 1 53 22
M  V30 57 1 54 22
M  V30 58 1 55 26
M  V30 59 1 56 26
M  V30 60 1 57 26
M  V30 61 1 28 58 CFG=3
M  V30 62 1 59 31
M  V30 63 1 60 33
M  V30 64 1 61 33
M  V30 65 1 62 34
M  V30 66 1 63 36
M  V30 67 1 64 36
M  V30 68 1 65 7
M  V30 69 1 66 31
M  V30 70 1 37 67 CFG=1
M  V30 END BOND
M  V30 END CTAB
M  END
>  <i_epik_Tot_Q>  (1) 
0

>  <i_epik_Tot_abs_Q>  (1) 
4

>  <i_i_glide_confnum>  (1) 
702

>  <i_i_glide_lignum>  (1) 
229

>  <i_i_glide_posenum>  (1) 
398

>  <i_i_glide_rotatable_bonds>  (1) 
14

>  <i_lp_mmshare_version>  (1) 
72125

>  <i_m_source_file_index>  (1) 
97

>  <i_f3d_flags>  (1) 
0

>  <num_sample>  (1) 
100

>  <b_lp_Chiralities_Consistent>  (1) 
1

>  <r_epik_Charging_Adjusted_Penalty>  (1) 
0.0011493244952256365

>  <r_epik_Ionization_Penalty>  (1) 
0.16754632311336878

>  <r_epik_Ionization_Penalty_Charging>  (1) 
0.0011493244952256365

>  <r_epik_Ionization_Penalty_Neutral>  (1) 
0.16639699861814314

>  <r_epik_State_Penalty>  (1) 
-0

>  <r_glide_ring_energy>  (1) 
0

>  <r_i_docking_score>  (1) 
-8.3843170342026152

>  <r_i_glide_ecoul>  (1) 
-3.3750051313996083

>  <r_i_glide_eff_state_penalty>  (1) 
-0

>  <r_i_glide_einternal>  (1) 
17.236550839496452

>  <r_i_glide_emodel>  (1) 
-63.269227385082928

>  <r_i_glide_emodel_strain>  (1) 
2.4344808639269075

>  <r_i_glide_energy>  (1) 
-43.612133748352349

>  <r_i_glide_erotb>  (1) 
0.57183300328268483

>  <r_i_glide_esite>  (1) 
-0.10000000000000001

>  <r_i_glide_evdw>  (1) 
-40.237128616952738

>  <r_i_glide_gscore>  (1) 
-8.3843170342026152

>  <r_i_glide_gscore_strain>  (1) 
0

>  <r_i_glide_hbond>  (1) 
-0.20000000000000001

>  <r_i_glide_ligand_efficiency>  (1) 
-0.22063992195270041

>  <r_i_glide_ligand_efficiency_ln>  (1) 
-1.8079053941926728

>  <r_i_glide_ligand_efficiency_sa>  (1) 
-0.74178599136302159

>  <r_i_glide_lipo>  (1) 
-3.7533632287944214

>  <r_i_glide_metal>  (1) 
-0

>  <r_i_glide_rewards>  (1) 
-2.3846796081333004

>  <r_lp_Energy>  (1) 
52.570133999999996

>  <r_lp_tautomer_probability>  (1) 
1

>  <s_epik_cmdline>  (1) 
J2VwaWtfcHl0aG9uJywgJy1waHQnLCAnMS4wJywgJy1waCcsICc3LjQnLCAnLXRuJywgJzgnLCAnLW1hJywgJzUwMCcsICctaW1hZScsICc8aW5maWxlLm1hZT4nLCAnLW9tYWUnLCAnPG91dGZpbGUubWFlPic=

>  <s_epik_input>  (1) 
W0NIM11bQ0gyXU9bQ0BIXShDKD1PKVtPSF0pW0NAQEhdKE8xKVtDSDJdW0NASF0oW0NAXTEyQyhGKShGKUYpW0NASF0yW0NIMl1bQ0gyXVtOSF1bQ0gyXVtDSDJdW0NIMl1OKFtDQEBIXShTMylcQyg9TlxbSF0pQyg9TylbT0hdKWMoYzM0KVtjSF1bY0hdYyhGKVtjSF00

>  <s_glide_docking_method>  (1) 
confgen

>  <s_i_glide_gridfile>  (1) 
gpcr_5ht2c_6bqh_protein_autoprepared_prepared

>  <s_lp_Force_Field>  (1) 
S-OPLS

>  <s_lp_Variant>  (1) 
DiffSBDD_96-2

>  <s_m_source_file>  (1) 
generated_GPCR_5HT2C_ligand_DiffSBDD_2026-06-23_prepared.sdf

>  <GenAI_Model>  (1) 
DiffSBDD

>  <Protein>  (1) 
GPCR_5HT2C

$$$$
DiffSBDD_75
     RDKit          3D

  0  0  0  0  0  0  0  0  0  0999 V3000
M  V30 BEGIN CTAB
M  V30 COUNTS 77 78 0 0 1
M  V30 BEGIN ATOM
M  V30 1 C 39.702503 29.393517 61.528500 0
M  V30 2 C 37.075068 31.278706 59.703300 0
M  V30 3 O 37.245137 30.137735 56.001361 0
M  V30 4 C 41.859275 29.240823 63.811779 0
M  V30 5 C 39.153335 29.946673 54.021308 0 CFG=1
M  V30 6 C 39.109629 35.080304 61.121028 0
M  V30 7 C 38.195849 29.151378 56.315437 0 CFG=2
M  V30 8 C 39.701846 36.173862 61.781264 0
M  V30 9 O 40.383740 30.104655 51.934117 0
M  V30 10 C 37.931739 27.650063 54.258520 0 CFG=1
M  V30 11 O 37.244042 38.823083 61.070718 0
M  V30 12 S 38.894878 28.707877 58.987904 0
M  V30 13 C 42.161076 28.026258 64.708073 0
M  V30 14 C 37.843364 37.597687 61.094911 0
M  V30 15 C 39.143091 29.641230 57.436816 0
M  V30 16 C 39.807349 33.739127 61.113086 0
M  V30 17 C 37.875070 35.243011 60.456381 0
M  V30 18 O 39.645254 26.537771 52.945100 0
M  V30 19 C 37.711832 26.348113 55.070770 0
M  V30 20 C 38.842293 28.715526 54.960101 0 CFG=1
M  V30 21 O 43.436582 27.499362 64.415847 0
M  V30 22 O 37.763226 30.537596 60.701159 0
M  V30 23 O 41.651838 31.768283 62.165797 0
M  V30 24 C 40.191352 30.417022 65.226822 0
M  V30 25 N 40.445137 29.693031 63.955339 0 CFG=1 CHG=1
M  V30 26 C 40.455422 31.672545 62.423664 0
M  V30 27 C 39.069521 37.429900 61.768080 0
M  V30 28 C 39.563324 32.914943 62.385279 0
M  V30 29 C 39.788020 30.331175 62.765295 0 CFG=1
M  V30 30 C 37.243811 36.502952 60.441950 0
M  V30 31 C 38.615842 28.478791 51.929294 0
M  V30 32 C 39.007702 29.989881 60.281090 0 CFG=1
M  V30 33 C 40.181109 30.935217 54.616066 0
M  V30 34 C 38.439515 27.271463 52.854623 0 CFG=2
M  V30 35 C 39.479034 29.557999 52.565273 0
M  V30 36 H 40.692747 29.073083 61.211615 0
M  V30 37 H 39.183879 28.481232 61.825193 0
M  V30 38 H 36.202474 31.756430 60.147901 0
M  V30 39 H 37.701256 32.059267 59.269739 0
M  V30 40 H 36.718763 30.631506 58.900496 0
M  V30 41 H 36.703091 30.388854 56.742374 0
M  V30 42 H 42.073851 28.944362 62.788483 0
M  V30 43 H 42.540697 30.063362 64.033795 0
M  V30 44 H 37.643211 28.322516 56.741076 0
M  V30 45 H 40.646773 36.051902 62.290673 0
M  V30 46 H 39.042902 28.176484 50.972324 0
M  V30 47 H 36.950180 28.106764 54.116364 0
M  V30 48 H 36.531443 38.921854 60.449828 0
M  V30 49 H 42.125418 28.285442 65.765873 0
M  V30 50 H 41.424874 27.239339 64.536903 0
M  V30 51 H 39.000621 30.705031 57.624833 0
M  V30 52 H 40.186461 29.517546 57.153001 0
M  V30 53 H 39.504591 33.180108 60.227896 0
M  V30 54 H 40.870931 33.939108 60.991012 0
M  V30 55 H 37.418081 34.405844 59.949259 0
M  V30 56 H 40.282603 27.044254 53.421310 0
M  V30 57 H 38.652766 25.941760 55.443194 0
M  V30 58 H 37.046732 26.479463 55.921152 0
M  V30 59 H 37.248059 25.576540 54.454832 0
M  V30 60 H 39.785719 28.219341 55.190298 0
M  V30 61 H 44.100626 28.129888 64.651651 0
M  V30 62 H 40.663786 31.400103 65.239540 0
M  V30 63 H 39.120555 30.538163 65.384657 0
M  V30 64 H 40.562305 29.861000 66.086621 0
M  V30 65 H 39.531729 38.268531 62.267170 0
M  V30 66 H 39.790493 33.514992 63.266955 0
M  V30 67 H 38.512298 32.632864 62.455847 0
M  V30 68 H 38.761217 30.536048 63.071310 0
M  V30 69 H 36.302223 36.628498 59.926084 0
M  V30 70 H 37.642525 28.917983 51.717197 0
M  V30 71 H 38.233410 30.516966 53.890347 0
M  V30 72 H 39.631060 30.793683 59.890798 0
M  V30 73 H 40.431039 31.736896 53.923679 0
M  V30 74 H 39.779378 31.431836 55.497042 0
M  V30 75 H 41.105150 30.435947 54.901665 0
M  V30 76 H 37.703705 26.614376 52.394982 0
M  V30 77 H 39.900297 28.843305 64.065617 0
M  V30 END ATOM
M  V30 BEGIN BOND
M  V30 1 1 7 3
M  V30 2 1 8 6
M  V30 3 1 13 4
M  V30 4 1 14 11
M  V30 5 1 15 7
M  V30 6 1 15 12
M  V30 7 1 16 6
M  V30 8 2 17 6
M  V30 9 1 19 10
M  V30 10 1 20 5
M  V30 11 1 20 7
M  V30 12 1 20 10
M  V30 13 1 21 13
M  V30 14 1 22 2
M  V30 15 1 25 4
M  V30 16 1 25 24
M  V30 17 2 26 23
M  V30 18 2 27 8
M  V30 19 1 27 14
M  V30 20 1 28 16
M  V30 21 1 28 26
M  V30 22 1 29 1
M  V30 23 1 29 25
M  V30 24 1 29 26
M  V30 25 2 30 14
M  V30 26 1 30 17
M  V30 27 1 32 1
M  V30 28 1 32 12
M  V30 29 1 32 22
M  V30 30 1 33 5
M  V30 31 1 34 10
M  V30 32 1 34 18
M  V30 33 1 34 31
M  V30 34 1 35 5
M  V30 35 2 35 9
M  V30 36 1 35 31
M  V30 37 1 36 1
M  V30 38 1 37 1
M  V30 39 1 38 2
M  V30 40 1 39 2
M  V30 41 1 40 2
M  V30 42 1 41 3
M  V30 43 1 42 4
M  V30 44 1 43 4
M  V30 45 1 7 44 CFG=1
M  V30 46 1 45 8
M  V30 47 1 46 31
M  V30 48 1 10 47 CFG=3
M  V30 49 1 48 11
M  V30 50 1 49 13
M  V30 51 1 50 13
M  V30 52 1 51 15
M  V30 53 1 52 15
M  V30 54 1 53 16
M  V30 55 1 54 16
M  V30 56 1 55 17
M  V30 57 1 56 18
M  V30 58 1 57 19
M  V30 59 1 58 19
M  V30 60 1 59 19
M  V30 61 1 20 60 CFG=1
M  V30 62 1 61 21
M  V30 63 1 62 24
M  V30 64 1 63 24
M  V30 65 1 64 24
M  V30 66 1 65 27
M  V30 67 1 66 28
M  V30 68 1 67 28
M  V30 69 1 29 68 CFG=1
M  V30 70 1 69 30
M  V30 71 1 70 31
M  V30 72 1 5 71 CFG=3
M  V30 73 1 32 72 CFG=3
M  V30 74 1 73 33
M  V30 75 1 74 33
M  V30 76 1 75 33
M  V30 77 1 34 76 CFG=3
M  V30 78 1 25 77 CFG=1
M  V30 END BOND
M  V30 END CTAB
M  END
>  <i_epik_Tot_Q>  (1) 
1

>  <i_epik_Tot_abs_Q>  (1) 
1

>  <i_i_glide_confnum>  (1) 
823

>  <i_i_glide_lignum>  (1) 
170

>  <i_i_glide_posenum>  (1) 
23

>  <i_i_glide_rotatable_bonds>  (1) 
18

>  <i_lp_mmshare_version>  (1) 
72125

>  <i_m_source_file_index>  (1) 
76

>  <i_f3d_flags>  (1) 
0

>  <num_sample>  (1) 
100

>  <b_lp_Chiralities_Consistent>  (1) 
1

>  <r_epik_Charging_Adjusted_Penalty>  (1) 
0.52789471212939676

>  <r_epik_Ionization_Penalty>  (1) 
0.26592108790513191

>  <r_epik_Ionization_Penalty_Charging>  (1) 
0.26394735606469838

>  <r_epik_Ionization_Penalty_Neutral>  (1) 
0.0019737318404335234

>  <r_epik_State_Penalty>  (1) 
0.26394735606469838

>  <r_glide_ring_energy>  (1) 
0

>  <r_i_docking_score>  (1) 
-8.3842350340937823

>  <r_i_glide_ecoul>  (1) 
-9.9948259804935944

>  <r_i_glide_eff_state_penalty>  (1) 
0.26394735606469838

>  <r_i_glide_einternal>  (1) 
9.7864548453750633

>  <r_i_glide_emodel>  (1) 
-84.87829958325716

>  <r_i_glide_emodel_strain>  (1) 
0.12136737422973454

>  <r_i_glide_energy>  (1) 
-54.46812542167568

>  <r_i_glide_erotb>  (1) 
1.0139394581015995

>  <r_i_glide_esite>  (1) 
-0.038746455699083054

>  <r_i_glide_evdw>  (1) 
-44.473299441182085

>  <r_i_glide_gscore>  (1) 
-8.64818239015848

>  <r_i_glide_gscore_strain>  (1) 
0

>  <r_i_glide_hbond>  (1) 
-0.4613120492393683

>  <r_i_glide_ligand_efficiency>  (1) 
-0.23954957240267949

>  <r_i_glide_ligand_efficiency_ln>  (1) 
-1.8405256680545459

>  <r_i_glide_ligand_efficiency_sa>  (1) 
-0.78358253590648741

>  <r_i_glide_lipo>  (1) 
-4.2941391954433055

>  <r_i_glide_metal>  (1) 
-0

>  <r_i_glide_rewards>  (1) 
-1.1450352787451807

>  <r_lp_Energy>  (1) 
23.611832

>  <r_lp_tautomer_probability>  (1) 
0.99989998499911525

>  <s_epik_Chemistry_Notes>  (1) 
This compound contains an acetal/aminal-like group ( X-CH(R)-Y where X, Y are N, S, or O) that may be acid/base labile, releasing an aldehyde.

>  <s_epik_cmdline>  (1) 
J2VwaWtfcHl0aG9uJywgJy1waHQnLCAnMS4wJywgJy1waCcsICc3LjQnLCAnLXRuJywgJzgnLCAnLW1hJywgJzUwMCcsICctaW1hZScsICc8aW5maWxlLm1hZT4nLCAnLW9tYWUnLCAnPG91dGZpbGUubWFlPic=

>  <s_epik_input>  (1) 
W2NIXTFbY0hdYyhbT0hdKVtjSF1bY0hdYzFbQ0gyXVtDSDJdQyg9TylbQ0BIXShOKFtDSDNdKVtDSDJdW0NIMl1bT0hdKVtDSDJdW0NASF0oT1tDSDNdKVNbQ0gyXVtDQEBIXShbT0hdKVtDQEhdMltDQEBIXShbQ0gzXSlbQ0BIXShbT0hdKVtDSDJdQyhbT0hdKT1DMltDSDNd

>  <s_glide_docking_method>  (1) 
confgen

>  <s_i_glide_gridfile>  (1) 
gpcr_5ht2c_6bqh_protein_autoprepared_prepared

>  <s_lp_Force_Field>  (1) 
S-OPLS

>  <s_lp_Variant>  (1) 
DiffSBDD_75-7

>  <s_m_source_file>  (1) 
generated_GPCR_5HT2C_ligand_DiffSBDD_2026-06-23_prepared.sdf

>  <GenAI_Model>  (1) 
DiffSBDD

>  <Protein>  (1) 
GPCR_5HT2C

$$$$
DiffSBDD_84
     RDKit          3D

  0  0  0  0  0  0  0  0  0  0999 V3000
M  V30 BEGIN CTAB
M  V30 COUNTS 77 81 0 0 1
M  V30 BEGIN ATOM
M  V30 1 C 41.847256 34.660042 64.498952 0
M  V30 2 C 38.343582 27.399352 58.639044 0
M  V30 3 C 39.728283 30.122866 60.688208 0
M  V30 4 C 44.035412 30.028278 64.735954 0
M  V30 5 S 41.182461 29.656334 66.037417 0
M  V30 6 C 38.431033 25.005757 55.250213 0
M  V30 7 C 39.555795 26.686629 56.532489 0
M  V30 8 C 36.678850 34.001509 61.086468 0
M  V30 9 O 45.244019 29.346276 64.484862 0
M  V30 10 C 37.527644 30.042557 59.581065 0
M  V30 11 C 40.516815 27.861284 56.694685 0
M  V30 12 C 38.882080 26.221326 57.833024 0 CFG=2
M  V30 13 C 38.140469 32.031890 61.024107 0
M  V30 14 N 41.916379 35.737825 65.504796 0 CHG=1
M  V30 15 C 43.853882 30.351882 66.249996 0
M  V30 16 C 40.844824 33.562307 64.911778 0
M  V30 17 N 39.347207 26.131299 55.402042 0
M  V30 18 C 37.861971 33.344200 61.473945 0
M  V30 19 N 40.253168 30.418775 63.674177 0
M  V30 20 N 38.910143 29.580534 59.759757 0
M  V30 21 C 38.147793 24.239292 56.546591 0
M  V30 22 C 37.226795 31.414532 60.138774 0
M  V30 23 N 42.453642 30.660479 66.593560 0
M  V30 24 C 44.775831 31.505362 66.761466 0
M  V30 25 C 39.382125 28.484189 58.883671 0 CFG=2
M  V30 26 O 40.844702 29.662934 60.884843 0
M  V30 27 C 36.036815 32.070656 59.767481 0
M  V30 28 O 46.123690 31.337709 66.455173 0
M  V30 29 C 37.752140 25.204412 57.634107 0
M  V30 30 C 40.453893 30.974124 65.012481 0 CFG=2
M  V30 31 C 39.928748 29.002337 57.549704 0
M  V30 32 N 39.129662 30.937770 62.962974 0
M  V30 33 N 42.142485 32.047042 66.329739 0 CHG=1
M  V30 34 C 35.763946 33.361177 60.240384 0
M  V30 35 C 39.340597 31.330098 61.565214 0 CFG=1
M  V30 36 C 41.439033 32.160508 65.048787 0 CFG=2
M  V30 37 H 42.847511 34.256613 64.338715 0
M  V30 38 H 41.538833 35.096988 63.546289 0
M  V30 39 H 38.045153 27.017010 59.608739 0
M  V30 40 H 37.462667 27.806188 58.141729 0
M  V30 41 H 44.048157 30.940882 64.150018 0
M  V30 42 H 43.240943 29.404266 64.326337 0
M  V30 43 H 37.500763 25.345367 54.794065 0
M  V30 44 H 38.864964 24.285014 54.567783 0
M  V30 45 H 36.473431 35.000093 61.443984 0
M  V30 46 H 45.185016 28.459488 64.807483 0
M  V30 47 H 37.295799 30.069658 58.515548 0
M  V30 48 H 36.832526 29.337805 60.028342 0
M  V30 49 H 40.802036 28.247937 55.719196 0
M  V30 50 H 42.384870 36.556095 65.117282 0
M  V30 51 H 40.983279 36.041163 65.749534 0
M  V30 52 H 44.095569 29.444629 66.806096 0
M  V30 53 H 40.056716 33.519284 64.160534 0
M  V30 54 H 40.368965 33.820720 65.856521 0
M  V30 55 H 38.554704 33.842235 62.135293 0
M  V30 56 H 40.128216 29.409347 63.743484 0
M  V30 57 H 37.353752 23.506355 56.393332 0
M  V30 58 H 39.056625 23.737669 56.872026 0
M  V30 59 H 44.552849 32.468042 66.302300 0
M  V30 60 H 44.680050 31.638873 67.839620 0
M  V30 61 H 40.201315 27.958886 59.379775 0
M  V30 62 H 35.338174 31.583305 59.102069 0
M  V30 63 H 46.391948 30.431470 66.569591 0
M  V30 64 H 36.818812 25.695726 57.354174 0
M  V30 65 H 37.563667 24.663436 58.561327 0
M  V30 66 H 39.501741 31.222288 65.474733 0
M  V30 67 H 39.147856 29.520840 56.990475 0
M  V30 68 H 40.700021 29.734517 57.767613 0
M  V30 69 H 38.669889 31.677248 63.488723 0
M  V30 70 H 41.543040 32.332418 67.092978 0
M  V30 71 H 34.854777 33.865100 59.942690 0
M  V30 72 H 40.183520 32.024643 61.524457 0
M  V30 73 H 42.158437 32.021387 64.244082 0
M  V30 74 H 43.011107 32.560164 66.342928 0
M  V30 75 H 39.667481 25.738014 58.415813 0
M  V30 76 H 41.434932 27.486102 57.148030 0
M  V30 77 H 42.407338 35.453527 66.339659 0
M  V30 END ATOM
M  V30 BEGIN BOND
M  V30 1 1 9 4
M  V30 2 1 11 7
M  V30 3 1 12 2
M  V30 4 1 12 7
M  V30 5 1 14 1
M  V30 6 1 15 4
M  V30 7 1 16 1
M  V30 8 1 17 6
M  V30 9 2 17 7
M  V30 10 1 18 8
M  V30 11 2 18 13
M  V30 12 1 20 3
M  V30 13 1 20 10
M  V30 14 1 21 6
M  V30 15 1 22 10
M  V30 16 1 22 13
M  V30 17 1 23 5
M  V30 18 1 23 15
M  V30 19 1 24 15
M  V30 20 1 25 2
M  V30 21 1 25 20
M  V30 22 2 26 3
M  V30 23 2 27 22
M  V30 24 1 28 24
M  V30 25 1 29 12
M  V30 26 1 29 21
M  V30 27 1 30 5
M  V30 28 1 30 19
M  V30 29 1 31 11
M  V30 30 1 31 25
M  V30 31 1 32 19
M  V30 32 1 33 23
M  V30 33 2 34 8
M  V30 34 1 34 27
M  V30 35 1 35 3
M  V30 36 1 35 13
M  V30 37 1 35 32
M  V30 38 1 36 16
M  V30 39 1 36 30
M  V30 40 1 36 33
M  V30 41 1 37 1
M  V30 42 1 38 1
M  V30 43 1 39 2
M  V30 44 1 40 2
M  V30 45 1 41 4
M  V30 46 1 42 4
M  V30 47 1 43 6
M  V30 48 1 44 6
M  V30 49 1 45 8
M  V30 50 1 46 9
M  V30 51 1 47 10
M  V30 52 1 48 10
M  V30 53 1 49 11
M  V30 54 1 50 14
M  V30 55 1 51 14
M  V30 56 1 52 15
M  V30 57 1 53 16
M  V30 58 1 54 16
M  V30 59 1 55 18
M  V30 60 1 56 19
M  V30 61 1 57 21
M  V30 62 1 58 21
M  V30 63 1 59 24
M  V30 64 1 60 24
M  V30 65 1 25 61 CFG=1
M  V30 66 1 62 27
M  V30 67 1 63 28
M  V30 68 1 64 29
M  V30 69 1 65 29
M  V30 70 1 30 66 CFG=1
M  V30 71 1 67 31
M  V30 72 1 68 31
M  V30 73 1 69 32
M  V30 74 1 70 33
M  V30 75 1 71 34
M  V30 76 1 35 72 CFG=1
M  V30 77 1 36 73 CFG=3
M  V30 78 1 74 33
M  V30 79 1 12 75 CFG=1
M  V30 80 1 76 11
M  V30 81 1 77 14
M  V30 END BOND
M  V30 END CTAB
M  END
>  <i_epik_Tot_Q>  (1) 
2

>  <i_epik_Tot_abs_Q>  (1) 
2

>  <i_i_glide_confnum>  (1) 
132

>  <i_i_glide_lignum>  (1) 
200

>  <i_i_glide_posenum>  (1) 
143

>  <i_i_glide_rotatable_bonds>  (1) 
11

>  <i_lp_mmshare_version>  (1) 
72125

>  <i_m_source_file_index>  (1) 
85

>  <i_f3d_flags>  (1) 
0

>  <num_sample>  (1) 
100

>  <b_lp_Chiralities_Consistent>  (1) 
1

>  <r_epik_Charging_Adjusted_Penalty>  (1) 
0.034284474231679775

>  <r_epik_Ionization_Penalty>  (1) 
0.42650113434003467

>  <r_epik_Ionization_Penalty_Charging>  (1) 
0.012847136256187231

>  <r_epik_Ionization_Penalty_Neutral>  (1) 
0.41365399808384745

>  <r_epik_State_Penalty>  (1) 
0.021437337975492542

>  <r_glide_ring_energy>  (1) 
0.11944417741279

>  <r_i_docking_score>  (1) 
-8.380414370095993

>  <r_i_glide_ecoul>  (1) 
-10.150304859016215

>  <r_i_glide_eff_state_penalty>  (1) 
0.021437337975492542

>  <r_i_glide_einternal>  (1) 
16.704543213750867

>  <r_i_glide_emodel>  (1) 
-70.565192229949503

>  <r_i_glide_emodel_strain>  (1) 
2.5391605142845535

>  <r_i_glide_energy>  (1) 
-51.498960056712917

>  <r_i_glide_erotb>  (1) 
0.60855438394346106

>  <r_i_glide_esite>  (1) 
-0.061008185315099085

>  <r_i_glide_evdw>  (1) 
-41.348655197696701

>  <r_i_glide_gscore>  (1) 
-8.4018517080714847

>  <r_i_glide_gscore_strain>  (1) 
0

>  <r_i_glide_hbond>  (1) 
-0.55827013126830249

>  <r_i_glide_ligand_efficiency>  (1) 
-0.23278928805822202

>  <r_i_glide_ligand_efficiency_ln>  (1) 
-1.8283800029238695

>  <r_i_glide_ligand_efficiency_sa>  (1) 
-0.76865329349022393

>  <r_i_glide_lipo>  (1) 
-3.6970654026563907

>  <r_i_glide_metal>  (1) 
-0

>  <r_i_glide_rewards>  (1) 
-1.1040838840378855

>  <r_lp_Energy>  (1) 
50.953711999999996

>  <r_lp_tautomer_probability>  (1) 
0.99998399999999998

>  <s_epik_Chemistry_Notes>  (1) 
This compound has an imine and may undergo hydrolysis. This compound contains an acetal/aminal-like group ( X-CH(R)-Y where X, Y are N, S, or O) that may be acid/base labile, releasing an aldehyde. This compound has a N-S or N-O group and may undergo hydrolysis at high or low pH.

>  <s_epik_cmdline>  (1) 
J2VwaWtfcHl0aG9uJywgJy1waHQnLCAnMS4wJywgJy1waCcsICc3LjQnLCAnLXRuJywgJzgnLCAnLW1hJywgJzUwMCcsICctaW1hZScsICc8aW5maWxlLm1hZT4nLCAnLW9tYWUnLCAnPG91dGZpbGUubWFlPic=

>  <s_epik_input>  (1) 
W09IXVtDSDJdW0NIXShbQ0gyXVtPSF0pTjFTW0NASF0oW0NASF0oW05IXTEpW0NIMl1bQ0gyXVtOSDJdKVtOSF1bTkhdW0NASF0yQyg9TylOKFtDSDJdYyhjMjMpW2NIXVtjSF1bY0hdW2NIXTMpW0NASF0oW0NIMl1bQ0gyXTQpW0NIMl1DKD1DNDUpW0NIMl1bQ0gyXVtDSDJdW05IXTU=

>  <s_glide_docking_method>  (1) 
confgen

>  <s_i_glide_gridfile>  (1) 
gpcr_5ht2c_6bqh_protein_autoprepared_prepared

>  <s_lp_Force_Field>  (1) 
S-OPLS

>  <s_lp_Variant>  (1) 
DiffSBDD_84-3

>  <s_m_source_file>  (1) 
generated_GPCR_5HT2C_ligand_DiffSBDD_2026-06-23_prepared.sdf

>  <GenAI_Model>  (1) 
DiffSBDD

>  <Protein>  (1) 
GPCR_5HT2C

$$$$
DiffSBDD_50
     RDKit          3D

  0  0  0  0  0  0  0  0  0  0999 V3000
M  V30 BEGIN CTAB
M  V30 COUNTS 65 68 0 0 1
M  V30 BEGIN ATOM
M  V30 1 C 38.984875 27.615379 57.513169 0 CFG=1
M  V30 2 F 39.644532 26.537757 51.194413 0
M  V30 3 C 38.845184 30.705637 59.499284 0
M  V30 4 O 39.630914 30.942722 56.250052 0 CHG=-1
M  V30 5 O 37.229904 31.771969 62.167760 0
M  V30 6 O 38.279990 31.955461 59.723930 0
M  V30 7 S 40.100728 28.392638 60.075282 0
M  V30 8 C 39.550783 27.364581 56.098396 0
M  V30 9 C 36.527692 33.481477 59.012484 0 CFG=2
M  V30 10 O 37.043501 24.850347 55.030099 0
M  V30 11 C 36.531295 32.541174 61.231527 0 CFG=1
M  V30 12 C 36.906973 35.996919 59.736574 0
M  V30 13 C 37.840343 25.412207 57.365892 0
M  V30 14 C 38.415491 26.758722 55.235627 0 CFG=2
M  V30 15 C 39.895551 28.893117 51.066165 0
M  V30 16 C 38.562606 30.758564 56.976917 0
M  V30 17 C 38.114635 25.357684 55.825226 0 CFG=2
M  V30 18 C 36.126487 23.986472 55.660625 0
M  V30 19 F 39.102027 31.477904 53.533011 0
M  V30 20 C 38.850843 29.112192 53.666031 0
M  V30 21 C 36.341530 34.600702 60.055991 0 CFG=2
M  V30 22 C 38.861744 26.235541 58.170926 0
M  V30 23 C 39.774521 30.150983 51.668316 0
M  V30 24 C 36.882159 34.018365 61.339393 0
M  V30 25 C 39.731625 28.759890 58.263188 0 CFG=2
M  V30 26 C 39.015258 27.837664 53.084255 0
M  V30 27 C 36.881654 32.174058 59.789723 0 CFG=2
M  V30 28 C 38.999329 30.132059 58.306701 0
M  V30 29 N 38.699402 26.657620 53.796297 0
M  V30 30 C 39.517744 27.739517 51.771558 0
M  V30 31 C 39.245129 30.261225 52.967658 0
M  V30 32 O 36.065198 31.101212 59.367746 0
M  V30 33 O 39.427334 30.341106 61.748059 0
M  V30 34 O 37.495012 33.840705 58.050001 0
M  V30 35 C 39.399153 29.964360 60.580583 0
M  V30 36 H 37.952895 27.955435 57.429437 0
M  V30 37 H 38.105730 31.600389 61.837195 0
M  V30 38 H 39.976407 28.281002 55.705552 0
M  V30 39 H 40.405249 26.686898 56.134892 0
M  V30 40 H 35.547950 33.344509 58.563853 0
M  V30 41 H 35.456752 32.415518 61.381878 0
M  V30 42 H 37.996818 35.996733 59.767682 0
M  V30 43 H 36.591493 36.341986 58.751743 0
M  V30 44 H 36.567683 36.731812 60.466861 0
M  V30 45 H 37.785896 24.405214 57.781255 0
M  V30 46 H 36.872193 25.880270 57.546559 0
M  V30 47 H 37.514433 27.364317 55.335030 0
M  V30 48 H 40.285569 28.809431 50.062843 0
M  V30 49 H 37.779542 30.091096 56.621101 0
M  V30 50 H 37.932902 31.600275 57.212602 0
M  V30 51 H 38.973584 24.703790 55.662670 0
M  V30 52 H 35.339488 23.710102 54.967760 0
M  V30 53 H 36.596259 23.082788 56.048496 0
M  V30 54 H 35.645141 24.537725 56.459048 0
M  V30 55 H 38.439029 29.210565 54.647380 0
M  V30 56 H 35.264090 34.716845 60.176713 0
M  V30 57 H 39.828732 25.732165 58.222395 0
M  V30 58 H 38.490334 26.325848 59.189487 0
M  V30 59 H 40.070616 31.039271 51.129260 0
M  V30 60 H 37.960880 34.162969 61.414871 0
M  V30 61 H 36.395096 34.512688 62.167783 0
M  V30 62 H 40.709680 28.915680 57.804867 0
M  V30 63 H 38.897226 25.753034 53.393539 0
M  V30 64 H 35.866878 31.250438 58.437684 0
M  V30 65 H 37.508215 33.168203 57.379874 0
M  V30 END ATOM
M  V30 BEGIN BOND
M  V30 1 1 6 3
M  V30 2 1 8 1
M  V30 3 1 11 5
M  V30 4 1 14 8
M  V30 5 1 16 4
M  V30 6 1 17 10
M  V30 7 1 17 13
M  V30 8 1 17 14
M  V30 9 1 18 10
M  V30 10 1 21 9
M  V30 11 1 21 12
M  V30 12 1 22 1
M  V30 13 1 22 13
M  V30 14 2 23 15
M  V30 15 1 24 11
M  V30 16 1 24 21
M  V30 17 1 25 1
M  V30 18 1 25 7
M  V30 19 1 26 20
M  V30 20 1 27 6 CFG=1
M  V30 21 1 27 9
M  V30 22 1 27 11
M  V30 23 2 28 3
M  V30 24 1 28 16
M  V30 25 1 28 25
M  V30 26 1 29 14
M  V30 27 1 29 26
M  V30 28 1 30 2
M  V30 29 1 30 15
M  V30 30 2 30 26
M  V30 31 1 31 19
M  V30 32 2 31 20
M  V30 33 1 31 23
M  V30 34 1 32 27
M  V30 35 1 34 9
M  V30 36 1 35 3
M  V30 37 1 35 7
M  V30 38 2 35 33
M  V30 39 1 1 36 CFG=3
M  V30 40 1 37 5
M  V30 41 1 38 8
M  V30 42 1 39 8
M  V30 43 1 9 40 CFG=3
M  V30 44 1 11 41 CFG=3
M  V30 45 1 42 12
M  V30 46 1 43 12
M  V30 47 1 44 12
M  V30 48 1 45 13
M  V30 49 1 46 13
M  V30 50 1 14 47 CFG=3
M  V30 51 1 48 15
M  V30 52 1 49 16
M  V30 53 1 50 16
M  V30 54 1 17 51 CFG=1
M  V30 55 1 52 18
M  V30 56 1 53 18
M  V30 57 1 54 18
M  V30 58 1 55 20
M  V30 59 1 21 56 CFG=1
M  V30 60 1 57 22
M  V30 61 1 58 22
M  V30 62 1 59 23
M  V30 63 1 60 24
M  V30 64 1 61 24
M  V30 65 1 25 62 CFG=3
M  V30 66 1 63 29
M  V30 67 1 64 32
M  V30 68 1 65 34
M  V30 END BOND
M  V30 END CTAB
M  END
>  <i_epik_Tot_Q>  (1) 
-1

>  <i_epik_Tot_abs_Q>  (1) 
1

>  <i_i_glide_confnum>  (1) 
52

>  <i_i_glide_lignum>  (1) 
105

>  <i_i_glide_posenum>  (1) 
95

>  <i_i_glide_rotatable_bonds>  (1) 
10

>  <i_lp_mmshare_version>  (1) 
72125

>  <i_m_source_file_index>  (1) 
51

>  <i_f3d_flags>  (1) 
0

>  <num_sample>  (1) 
100

>  <b_lp_Chiralities_Consistent>  (1) 
1

>  <r_epik_Charging_Adjusted_Penalty>  (1) 
1.033121990919972

>  <r_epik_Ionization_Penalty>  (1) 
0.51659959183111048

>  <r_epik_Ionization_Penalty_Charging>  (1) 
0.51656099545998602

>  <r_epik_Ionization_Penalty_Neutral>  (1) 
3.8596371124435187e-05

>  <r_epik_State_Penalty>  (1) 
0.51656099545998602

>  <r_glide_ring_energy>  (1) 
0

>  <r_i_docking_score>  (1) 
-8.3559135584670443

>  <r_i_glide_ecoul>  (1) 
-8.3070683890606034

>  <r_i_glide_eff_state_penalty>  (1) 
0.51656099545998602

>  <r_i_glide_einternal>  (1) 
17.877505809907568

>  <r_i_glide_emodel>  (1) 
-59.37843013431953

>  <r_i_glide_emodel_strain>  (1) 
5.7550508682830639

>  <r_i_glide_energy>  (1) 
-49.134645082378519

>  <r_i_glide_erotb>  (1) 
0.38736490325272716

>  <r_i_glide_esite>  (1) 
-0.062778712049255544

>  <r_i_glide_evdw>  (1) 
-40.827576693317916

>  <r_i_glide_gscore>  (1) 
-8.8724745539270309

>  <r_i_glide_gscore_strain>  (1) 
0.43876271707076597

>  <r_i_glide_hbond>  (1) 
-0.45060457696479189

>  <r_i_glide_ligand_efficiency>  (1) 
-0.23874038738477268

>  <r_i_glide_ligand_efficiency_ln>  (1) 
-1.8343084755931913

>  <r_i_glide_ligand_efficiency_sa>  (1) 
-0.7809356380557031

>  <r_i_glide_lipo>  (1) 
-4.3493400412314198

>  <r_i_glide_metal>  (1) 
-0

>  <r_i_glide_rewards>  (1) 
-1.5484397509800685

>  <r_lp_Energy>  (1) 
65.937855999999996

>  <r_lp_tautomer_probability>  (1) 
0.99999998906363929

>  <s_epik_cmdline>  (1) 
J2VwaWtfcHl0aG9uJywgJy1waHQnLCAnMS4wJywgJy1waCcsICc3LjQnLCAnLXRuJywgJzgnLCAnLW1hJywgJzUwMCcsICctaW1hZScsICc8aW5maWxlLm1hZT4nLCAnLW9tYWUnLCAnPG91dGZpbGUubWFlPic=

>  <s_epik_input>  (1) 
W09IXVtDQEhdMVtDSDJdW0NAQEhdKFtDSDNdKVtDQEBIXShbT0hdKVtDQEBdMShbT0hdKU9DMj1DKFtDSDJdW09IXSlbQ0BASF0oU0MyPU8pW0NASF0zW0NIMl1bQ0BIXShbQ0BIXShPW0NIM10pW0NIMl1bQ0gyXTMpW05IXWM0W2NIXWMoRilbY0hdW2NIXWM0Rg==

>  <s_glide_docking_method>  (1) 
confgen

>  <s_i_glide_gridfile>  (1) 
gpcr_5ht2c_6bqh_protein_autoprepared_prepared

>  <s_lp_Force_Field>  (1) 
S-OPLS

>  <s_lp_Variant>  (1) 
DiffSBDD_50-3

>  <s_m_source_file>  (1) 
generated_GPCR_5HT2C_ligand_DiffSBDD_2026-06-23_prepared.sdf

>  <GenAI_Model>  (1) 
DiffSBDD

>  <Protein>  (1) 
GPCR_5HT2C

$$$$
DiffSBDD_29
     RDKit          3D

  0  0  0  0  0  0  0  0  0  0999 V3000
M  V30 BEGIN CTAB
M  V30 COUNTS 67 69 0 0 1
M  V30 BEGIN ATOM
M  V30 1 C 39.002799 28.361968 57.362080 0 CFG=2
M  V30 2 C 38.080601 30.665110 60.277883 0 CFG=1
M  V30 3 C 39.713242 35.784720 62.159178 0
M  V30 4 O 39.185702 26.322374 58.566640 0 CHG=-1
M  V30 5 C 39.817125 27.206973 57.945895 0
M  V30 6 N 38.224165 28.951753 58.462725 0 CHG=1
M  V30 7 C 38.734629 27.342500 55.002796 0
M  V30 8 N 41.185432 33.785045 63.949088 0
M  V30 9 C 40.345041 30.515761 50.601960 0
M  V30 10 C 38.955638 29.981542 59.218926 0
M  V30 11 O 34.844862 32.642551 60.141812 0
M  V30 12 C 40.047618 33.539327 61.667779 0
M  V30 13 C 39.453109 28.249424 50.570063 0
M  V30 14 O 37.245157 32.188059 58.567754 0
M  V30 15 C 39.439687 29.536593 52.640087 0
M  V30 16 C 40.107804 31.766791 63.321364 0
M  V30 17 C 40.045103 29.337544 49.901898 0
M  V30 18 C 39.323719 30.829565 62.416627 0
M  V30 19 C 40.672795 36.094188 63.241071 0
M  V30 20 C 39.324340 32.748515 60.860391 0
M  V30 21 C 37.827494 27.459445 53.765669 0
M  V30 22 O 38.561650 27.262118 52.567284 0
M  V30 23 C 38.045089 27.894858 56.256637 0
M  V30 24 C 40.421090 34.893569 61.205680 0
M  V30 25 C 40.044805 30.614932 51.970604 0
M  V30 26 N 42.174947 35.737762 64.977288 0
M  V30 27 C 36.095978 32.303824 60.686585 0
M  V30 28 C 39.144099 28.341773 51.935774 0
M  V30 29 C 41.336104 35.202835 64.029304 0
M  V30 30 N 38.904119 31.471133 61.179068 0
M  V30 31 C 36.854997 31.417010 59.684318 0 CFG=2
M  V30 32 C 40.443744 33.036886 62.996999 0
M  V30 33 O 41.051835 27.241077 57.769570 0
M  V30 34 H 39.669263 29.118513 56.939907 0
M  V30 35 H 37.668209 29.875975 60.896456 0
M  V30 36 H 38.770675 35.400625 62.555137 0
M  V30 37 H 39.476971 36.725028 61.661383 0
M  V30 38 H 37.395214 29.375882 58.073162 0
M  V30 39 H 39.665562 27.880647 54.842182 0
M  V30 40 H 39.028690 26.303648 55.156943 0
M  V30 41 H 41.580864 33.256456 64.711597 0
M  V30 42 H 40.805124 31.344642 50.088135 0
M  V30 43 H 39.289565 30.730713 58.506606 0
M  V30 44 H 39.840540 29.536466 59.676360 0
M  V30 45 H 34.986718 32.994819 59.273867 0
M  V30 46 H 39.231059 27.342313 50.033474 0
M  V30 47 H 36.545394 32.137487 57.905078 0
M  V30 48 H 39.209574 29.626921 53.688911 0
M  V30 49 H 40.397196 31.369699 64.284207 0
M  V30 50 H 40.275303 29.264856 48.851069 0
M  V30 51 H 39.939621 29.958670 62.190307 0
M  V30 52 H 38.449267 30.477488 62.964684 0
M  V30 53 H 40.846325 37.147050 63.395094 0
M  V30 54 H 39.012312 33.079367 59.884452 0
M  V30 55 H 37.054832 26.692357 53.813659 0
M  V30 56 H 37.290975 28.410244 53.732658 0
M  V30 57 H 37.344915 27.149628 56.640502 0
M  V30 58 H 37.456452 28.768938 55.973426 0
M  V30 59 H 40.054721 35.068202 60.193066 0
M  V30 60 H 41.503790 35.035851 61.181458 0
M  V30 61 H 40.273145 31.521708 52.507406 0
M  V30 62 H 42.313775 36.745004 65.055437 0
M  V30 63 H 42.709987 35.161727 65.608698 0
M  V30 64 H 36.645131 33.215593 60.923351 0
M  V30 65 H 35.928034 31.771901 61.623092 0
M  V30 66 H 36.164160 30.661502 59.305819 0
M  V30 67 H 37.975485 28.177561 59.065319 0
M  V30 END ATOM
M  V30 BEGIN BOND
M  V30 1 1 5 1
M  V30 2 1 5 4
M  V30 3 1 6 1
M  V30 4 1 10 2
M  V30 5 1 10 6
M  V30 6 2 17 9
M  V30 7 1 17 13
M  V30 8 1 18 16
M  V30 9 1 19 3
M  V30 10 2 20 12
M  V30 11 1 21 7
M  V30 12 1 22 21
M  V30 13 1 23 1
M  V30 14 1 23 7
M  V30 15 1 24 3
M  V30 16 1 24 12
M  V30 17 1 25 9
M  V30 18 2 25 15
M  V30 19 1 27 11
M  V30 20 2 28 13
M  V30 21 1 28 15
M  V30 22 1 28 22
M  V30 23 1 29 8
M  V30 24 2 29 19
M  V30 25 1 29 26
M  V30 26 1 30 2
M  V30 27 1 30 18
M  V30 28 1 30 20
M  V30 29 1 31 2
M  V30 30 1 31 14
M  V30 31 1 31 27
M  V30 32 1 32 8
M  V30 33 1 32 12
M  V30 34 2 32 16
M  V30 35 2 33 5
M  V30 36 1 1 34 CFG=3
M  V30 37 1 2 35 CFG=1
M  V30 38 1 36 3
M  V30 39 1 37 3
M  V30 40 1 38 6
M  V30 41 1 39 7
M  V30 42 1 40 7
M  V30 43 1 41 8
M  V30 44 1 42 9
M  V30 45 1 43 10
M  V30 46 1 44 10
M  V30 47 1 45 11
M  V30 48 1 46 13
M  V30 49 1 47 14
M  V30 50 1 48 15
M  V30 51 1 49 16
M  V30 52 1 50 17
M  V30 53 1 51 18
M  V30 54 1 52 18
M  V30 55 1 53 19
M  V30 56 1 54 20
M  V30 57 1 55 21
M  V30 58 1 56 21
M  V30 59 1 57 23
M  V30 60 1 58 23
M  V30 61 1 59 24
M  V30 62 1 60 24
M  V30 63 1 61 25
M  V30 64 1 62 26
M  V30 65 1 63 26
M  V30 66 1 64 27
M  V30 67 1 65 27
M  V30 68 1 31 66 CFG=3
M  V30 69 1 67 6
M  V30 END BOND
M  V30 END CTAB
M  END
>  <i_epik_Tot_Q>  (1) 
0

>  <i_epik_Tot_abs_Q>  (1) 
2

>  <i_i_glide_confnum>  (1) 
1065

>  <i_i_glide_lignum>  (1) 
71

>  <i_i_glide_posenum>  (1) 
187

>  <i_i_glide_rotatable_bonds>  (1) 
14

>  <i_lp_mmshare_version>  (1) 
72125

>  <i_m_source_file_index>  (1) 
30

>  <i_f3d_flags>  (1) 
0

>  <num_sample>  (1) 
100

>  <b_lp_Chiralities_Consistent>  (1) 
1

>  <r_epik_Charging_Adjusted_Penalty>  (1) 
0.034631310211383798

>  <r_epik_Ionization_Penalty>  (1) 
0.017323838479102703

>  <r_epik_Ionization_Penalty_Charging>  (1) 
0.017317780737554234

>  <r_epik_Ionization_Penalty_Neutral>  (1) 
6.0577415484694341e-06

>  <r_epik_State_Penalty>  (1) 
0.017313529473829564

>  <r_glide_ring_energy>  (1) 
0

>  <r_i_docking_score>  (1) 
-8.304585136018364

>  <r_i_glide_ecoul>  (1) 
-9.485405575222071

>  <r_i_glide_eff_state_penalty>  (1) 
0.017313529473829564

>  <r_i_glide_einternal>  (1) 
11.292959773395188

>  <r_i_glide_emodel>  (1) 
-83.156757547134475

>  <r_i_glide_emodel_strain>  (1) 
0.89876590392955791

>  <r_i_glide_energy>  (1) 
-53.661760608558453

>  <r_i_glide_erotb>  (1) 
0.9565242385311874

>  <r_i_glide_esite>  (1) 
-0.035477252982946295

>  <r_i_glide_evdw>  (1) 
-44.176355033336385

>  <r_i_glide_gscore>  (1) 
-8.3218986654921938

>  <r_i_glide_gscore_strain>  (1) 
0

>  <r_i_glide_hbond>  (1) 
-0.45599999999999996

>  <r_i_glide_ligand_efficiency>  (1) 
-0.2516540950308595

>  <r_i_glide_ligand_efficiency_ln>  (1) 
-1.8468967354098982

>  <r_i_glide_ligand_efficiency_sa>  (1) 
-0.80718914909551409

>  <r_i_glide_lipo>  (1) 
-3.9071148403185334

>  <r_i_glide_metal>  (1) 
-0

>  <r_i_glide_rewards>  (1) 
-1.2482022227717708

>  <r_lp_Energy>  (1) 
46.756611999999997

>  <r_lp_tautomer_probability>  (1) 
1

>  <s_epik_Chemistry_Notes>  (1) 
This compound has an imine and may undergo hydrolysis.

>  <s_epik_cmdline>  (1) 
J2VwaWtfcHl0aG9uJywgJy1waHQnLCAnMS4wJywgJy1waCcsICc3LjQnLCAnLXRuJywgJzgnLCAnLW1hJywgJzUwMCcsICctaW1hZScsICc8aW5maWxlLm1hZT4nLCAnLW9tYWUnLCAnPG91dGZpbGUubWFlPic=

>  <s_epik_input>  (1) 
W2NIXTFbY0hdW2NIXVtjSF1bY0hdYzFPW0NIMl1bQ0gyXVtDSDJdW0NASF0oQyg9TylbT0hdKVtOSF1bQ0gyXVtDQEhdKFtDQEhdKFtPSF0pW0NIMl1bT0hdKU4oW0NIXTIpW0NIMl1bQ0hdPUMoQz0yMylbTkhdQyhbTkgyXSk9W0NIXVtDSDJdW0NIMl0z

>  <s_glide_docking_method>  (1) 
confgen

>  <s_i_glide_gridfile>  (1) 
gpcr_5ht2c_6bqh_protein_autoprepared_prepared

>  <s_lp_Force_Field>  (1) 
S-OPLS

>  <s_lp_Variant>  (1) 
DiffSBDD_29-1

>  <s_m_source_file>  (1) 
generated_GPCR_5HT2C_ligand_DiffSBDD_2026-06-23_prepared.sdf

>  <GenAI_Model>  (1) 
DiffSBDD

>  <Protein>  (1) 
GPCR_5HT2C

$$$$
DiffSBDD_29
     RDKit          3D

  0  0  0  0  0  0  0  0  0  0999 V3000
M  V30 BEGIN CTAB
M  V30 COUNTS 67 69 0 0 1
M  V30 BEGIN ATOM
M  V30 1 C 39.187170 28.767159 57.620193 0 CFG=2
M  V30 2 C 38.474021 30.747143 60.811485 0 CFG=1
M  V30 3 C 41.126795 34.873926 63.724995 0
M  V30 4 O 39.609203 26.629188 58.567760 0 CHG=-1
M  V30 5 C 40.128332 27.629642 58.024589 0
M  V30 6 N 38.548711 29.240717 58.856913 0 CHG=1
M  V30 7 C 38.658339 27.715707 55.320551 0
M  V30 8 N 41.561208 32.309431 65.363839 0
M  V30 9 C 40.417525 30.352370 50.768861 0
M  V30 10 C 39.228398 30.363405 59.531125 0
M  V30 11 O 36.089016 30.537765 58.967760 0
M  V30 12 C 40.896618 32.687252 62.912062 0
M  V30 13 C 39.305782 28.184916 50.894125 0
M  V30 14 O 36.445186 31.737774 61.713056 0
M  V30 15 C 39.294394 29.679611 52.824516 0
M  V30 16 C 40.150033 30.788997 64.218512 0
M  V30 17 C 40.045144 29.139057 50.167755 0
M  V30 18 C 39.355293 30.242741 63.051345 0
M  V30 19 C 41.857713 34.739159 65.013560 0
M  V30 20 C 40.170291 32.242196 61.867206 0
M  V30 21 C 37.629996 27.804828 54.180328 0
M  V30 22 O 38.199286 27.496615 52.916260 0
M  V30 23 C 38.103384 28.294735 56.631738 0
M  V30 24 C 41.705933 33.905777 62.763305 0
M  V30 25 C 40.045137 30.621027 52.095848 0
M  V30 26 N 42.761181 33.737714 66.908167 0
M  V30 27 C 36.556201 31.816639 59.350063 0
M  V30 28 C 38.924690 28.447355 52.222677 0
M  V30 29 C 42.056575 33.599471 65.731804 0
M  V30 30 N 39.383667 31.107762 61.891649 0
M  V30 31 C 37.370605 31.833491 60.652036 0 CFG=2
M  V30 32 C 40.864550 31.934360 64.181895 0
M  V30 33 O 41.344090 27.790614 57.792008 0
M  V30 34 H 39.751157 29.580553 57.158825 0
M  V30 35 H 37.998804 29.826289 61.129084 0
M  V30 36 H 40.045162 34.801840 63.839566 0
M  V30 37 H 41.323121 35.884637 63.363456 0
M  V30 38 H 37.594539 29.538270 58.667730 0
M  V30 39 H 39.575897 28.240615 55.060615 0
M  V30 40 H 38.957994 26.676780 55.465916 0
M  V30 41 H 41.628659 31.596298 66.074330 0
M  V30 42 H 40.988693 31.080499 50.209827 0
M  V30 43 H 39.245137 31.216253 58.854027 0
M  V30 44 H 40.253741 30.065518 59.758021 0
M  V30 45 H 35.645147 30.711994 58.128171 0
M  V30 46 H 39.027032 27.250623 50.428246 0
M  V30 47 H 35.818889 32.441610 61.618829 0
M  V30 48 H 39.009690 29.904220 53.838723 0
M  V30 49 H 40.117538 30.208746 65.130204 0
M  V30 50 H 40.330094 28.937756 49.147204 0
M  V30 51 H 39.729817 29.252535 62.789169 0
M  V30 52 H 38.320186 30.137836 63.367765 0
M  V30 53 H 42.267112 35.663077 65.399086 0
M  V30 54 H 40.153877 32.762911 60.920714 0
M  V30 55 H 36.845124 27.074023 54.368764 0
M  V30 56 H 37.128873 28.773630 54.147260 0
M  V30 57 H 37.446702 27.559074 57.099871 0
M  V30 58 H 37.475496 29.157913 56.404431 0
M  V30 59 H 41.645079 34.295999 61.747119 0
M  V30 60 H 42.748441 33.664444 62.967836 0
M  V30 61 H 40.328648 31.554092 52.555286 0
M  V30 62 H 43.087688 34.637970 67.228766 0
M  V30 63 H 42.927372 32.957070 67.526912 0
M  V30 64 H 37.172757 32.193485 58.533310 0
M  V30 65 H 35.706877 32.498669 59.406923 0
M  V30 66 H 37.814462 32.826879 60.716680 0
M  V30 67 H 38.526310 28.433916 59.468242 0
M  V30 END ATOM
M  V30 BEGIN BOND
M  V30 1 1 5 1
M  V30 2 1 5 4
M  V30 3 1 6 1
M  V30 4 1 10 2
M  V30 5 1 10 6
M  V30 6 2 17 9
M  V30 7 1 17 13
M  V30 8 1 18 16
M  V30 9 1 19 3
M  V30 10 2 20 12
M  V30 11 1 21 7
M  V30 12 1 22 21
M  V30 13 1 23 1
M  V30 14 1 23 7
M  V30 15 1 24 3
M  V30 16 1 24 12
M  V30 17 1 25 9
M  V30 18 2 25 15
M  V30 19 1 27 11
M  V30 20 2 28 13
M  V30 21 1 28 15
M  V30 22 1 28 22
M  V30 23 1 29 8
M  V30 24 2 29 19
M  V30 25 1 29 26
M  V30 26 1 30 2
M  V30 27 1 30 18
M  V30 28 1 30 20
M  V30 29 1 31 2
M  V30 30 1 31 14
M  V30 31 1 31 27
M  V30 32 1 32 8
M  V30 33 1 32 12
M  V30 34 2 32 16
M  V30 35 2 33 5
M  V30 36 1 1 34 CFG=3
M  V30 37 1 2 35 CFG=1
M  V30 38 1 36 3
M  V30 39 1 37 3
M  V30 40 1 38 6
M  V30 41 1 39 7
M  V30 42 1 40 7
M  V30 43 1 41 8
M  V30 44 1 42 9
M  V30 45 1 43 10
M  V30 46 1 44 10
M  V30 47 1 45 11
M  V30 48 1 46 13
M  V30 49 1 47 14
M  V30 50 1 48 15
M  V30 51 1 49 16
M  V30 52 1 50 17
M  V30 53 1 51 18
M  V30 54 1 52 18
M  V30 55 1 53 19
M  V30 56 1 54 20
M  V30 57 1 55 21
M  V30 58 1 56 21
M  V30 59 1 57 23
M  V30 60 1 58 23
M  V30 61 1 59 24
M  V30 62 1 60 24
M  V30 63 1 61 25
M  V30 64 1 62 26
M  V30 65 1 63 26
M  V30 66 1 64 27
M  V30 67 1 65 27
M  V30 68 1 31 66 CFG=1
M  V30 69 1 67 6
M  V30 END BOND
M  V30 END CTAB
M  END
>  <i_epik_Tot_Q>  (1) 
0

>  <i_epik_Tot_abs_Q>  (1) 
2

>  <i_i_glide_confnum>  (1) 
1396

>  <i_i_glide_lignum>  (1) 
71

>  <i_i_glide_posenum>  (1) 
49

>  <i_i_glide_rotatable_bonds>  (1) 
14

>  <i_lp_mmshare_version>  (1) 
72125

>  <i_m_source_file_index>  (1) 
30

>  <i_f3d_flags>  (1) 
0

>  <num_sample>  (1) 
100

>  <b_lp_Chiralities_Consistent>  (1) 
1

>  <r_epik_Charging_Adjusted_Penalty>  (1) 
0.034631310211383798

>  <r_epik_Ionization_Penalty>  (1) 
0.017323838479102703

>  <r_epik_Ionization_Penalty_Charging>  (1) 
0.017317780737554234

>  <r_epik_Ionization_Penalty_Neutral>  (1) 
6.0577415484694341e-06

>  <r_epik_State_Penalty>  (1) 
0.017313529473829564

>  <r_glide_ring_energy>  (1) 
0

>  <r_i_docking_score>  (1) 
-8.2729015964007626

>  <r_i_glide_ecoul>  (1) 
-10.844520791554899

>  <r_i_glide_eff_state_penalty>  (1) 
0.017313529473829564

>  <r_i_glide_einternal>  (1) 
15.2178720367718

>  <r_i_glide_emodel>  (1) 
-77.786261595082365

>  <r_i_glide_emodel_strain>  (1) 
1.2538034035514869

>  <r_i_glide_energy>  (1) 
-50.745972462638697

>  <r_i_glide_erotb>  (1) 
0.9565242385311874

>  <r_i_glide_esite>  (1) 
0

>  <r_i_glide_evdw>  (1) 
-39.901451671083798

>  <r_i_glide_gscore>  (1) 
-8.2902151258745924

>  <r_i_glide_gscore_strain>  (1) 
0

>  <r_i_glide_hbond>  (1) 
-0.44982231602881551

>  <r_i_glide_ligand_efficiency>  (1) 
-0.25069398776972007

>  <r_i_glide_ligand_efficiency_ln>  (1) 
-1.8398504802475322

>  <r_i_glide_ligand_efficiency_sa>  (1) 
-0.80410957209493106

>  <r_i_glide_lipo>  (1) 
-3.8526291029424331

>  <r_i_glide_metal>  (1) 
-0

>  <r_i_glide_rewards>  (1) 
-1.3225372431471061

>  <r_lp_Energy>  (1) 
46.756611999999997

>  <r_lp_tautomer_probability>  (1) 
1

>  <s_epik_Chemistry_Notes>  (1) 
This compound has an imine and may undergo hydrolysis.

>  <s_epik_cmdline>  (1) 
J2VwaWtfcHl0aG9uJywgJy1waHQnLCAnMS4wJywgJy1waCcsICc3LjQnLCAnLXRuJywgJzgnLCAnLW1hJywgJzUwMCcsICctaW1hZScsICc8aW5maWxlLm1hZT4nLCAnLW9tYWUnLCAnPG91dGZpbGUubWFlPic=

>  <s_epik_input>  (1) 
W2NIXTFbY0hdW2NIXVtjSF1bY0hdYzFPW0NIMl1bQ0gyXVtDSDJdW0NASF0oQyg9TylbT0hdKVtOSF1bQ0gyXVtDQEhdKFtDQEhdKFtPSF0pW0NIMl1bT0hdKU4oW0NIXTIpW0NIMl1bQ0hdPUMoQz0yMylbTkhdQyhbTkgyXSk9W0NIXVtDSDJdW0NIMl0z

>  <s_glide_docking_method>  (1) 
confgen

>  <s_i_glide_gridfile>  (1) 
gpcr_5ht2c_6bqh_protein_autoprepared_prepared

>  <s_lp_Force_Field>  (1) 
S-OPLS

>  <s_lp_Variant>  (1) 
DiffSBDD_29-1

>  <s_m_source_file>  (1) 
generated_GPCR_5HT2C_ligand_DiffSBDD_2026-06-23_prepared.sdf

>  <GenAI_Model>  (1) 
DiffSBDD

>  <Protein>  (1) 
GPCR_5HT2C

$$$$
DiffSBDD_59
     RDKit          3D

  0  0  0  0  0  0  0  0  0  0999 V3000
M  V30 BEGIN CTAB
M  V30 COUNTS 70 72 0 0 1
M  V30 BEGIN ATOM
M  V30 1 C 39.263289 28.194231 51.239289 0
M  V30 2 O 36.041177 31.558046 60.958125 0
M  V30 3 C 39.097531 28.305280 58.970877 0
M  V30 4 C 39.060074 28.296039 56.407387 0
M  V30 5 C 38.293562 32.017093 60.112317 0 CFG=1
M  V30 6 O 40.660131 31.097527 62.894856 0
M  V30 7 C 39.559572 29.779898 53.971130 0
M  V30 8 C 38.721268 33.020822 61.248592 0 CFG=2
M  V30 9 C 38.317201 29.624698 59.138961 0
M  V30 10 C 38.464475 35.303444 62.243779 0 CFG=1
M  V30 11 C 38.504716 28.022506 52.512461 0
M  V30 12 C 40.773850 32.500722 62.775513 0
M  V30 13 C 38.728893 27.649416 55.040163 0 CFG=1
M  V30 14 C 37.306433 36.255710 62.768431 0
M  V30 15 N 38.178228 34.411143 61.074184 0
M  V30 16 C 40.272723 32.984460 61.402455 0
M  V30 17 C 38.987254 28.566174 53.824115 0
M  V30 18 F 40.445137 29.282667 49.610568 0
M  V30 19 O 35.240985 38.537888 62.265390 0 CHG=-1
M  V30 20 C 36.737430 34.384780 60.770916 0
M  V30 21 O 39.372893 38.866721 61.367749 0
M  V30 22 C 36.453667 38.529992 61.981992 0
M  V30 23 C 39.901824 29.301545 50.836160 0
M  V30 24 O 34.955272 33.511384 59.367096 0
M  V30 25 N 36.844801 39.703473 61.368014 0
M  V30 26 C 38.902220 37.793032 61.766200 0
M  V30 27 C 38.753031 30.536163 60.304319 0
M  V30 28 C 39.889163 30.742696 52.925855 0
M  V30 29 S 39.925781 36.356922 61.906533 0
M  V30 30 C 36.772620 32.069204 59.851934 0 CFG=2
M  V30 31 Cl 39.660976 26.134513 54.902622 0
M  V30 32 C 36.350262 33.507652 59.584545 0 CFG=2
M  V30 33 C 38.704606 27.520823 57.693103 0
M  V30 34 C 37.503291 37.603697 62.144237 0
M  V30 35 C 40.045162 30.538341 51.589758 0
M  V30 36 H 39.230057 27.349354 50.564182 0
M  V30 37 H 35.153086 31.869748 60.842586 0
M  V30 38 H 40.169339 28.509776 58.950510 0
M  V30 39 H 38.926237 27.680675 59.847411 0
M  V30 40 H 38.512598 29.234732 56.427488 0
M  V30 41 H 40.125286 28.532028 56.448866 0
M  V30 42 H 38.773915 32.372878 59.197718 0
M  V30 43 H 39.745507 30.861341 62.941366 0
M  V30 44 H 39.813805 30.085403 54.970088 0
M  V30 45 H 38.288933 32.623071 62.168278 0
M  V30 46 H 37.256942 29.387117 59.231032 0
M  V30 47 H 38.421530 30.222009 58.237843 0
M  V30 48 H 38.845205 34.690444 63.055326 0
M  V30 49 H 38.390370 26.943777 52.617248 0
M  V30 50 H 37.491687 28.393705 52.349653 0
M  V30 51 H 40.239632 32.986260 63.593445 0
M  V30 52 H 41.828007 32.760849 62.889442 0
M  V30 53 H 37.674573 27.372202 55.028625 0
M  V30 54 H 36.280639 35.900431 62.695548 0
M  V30 55 H 37.461000 36.433946 63.833070 0
M  V30 56 H 40.699637 33.960623 61.204578 0
M  V30 57 H 40.743880 32.389660 60.623058 0
M  V30 58 H 36.181558 34.044677 61.645899 0
M  V30 59 H 36.394027 35.394876 60.541791 0
M  V30 60 H 34.807408 33.035341 58.555661 0
M  V30 61 H 37.787693 39.878130 61.046971 0
M  V30 62 H 36.210188 40.457115 61.141983 0
M  V30 63 H 39.837570 30.479725 60.370986 0
M  V30 64 H 38.373466 30.137494 61.244484 0
M  V30 65 H 40.086541 31.738433 53.267703 0
M  V30 66 H 36.503797 31.489198 58.969713 0
M  V30 67 H 36.832744 33.884651 58.681207 0
M  V30 68 H 39.228449 26.563862 57.699267 0
M  V30 69 H 37.639680 27.287612 57.709257 0
M  V30 70 H 40.349012 31.401382 51.016115 0
M  V30 END ATOM
M  V30 BEGIN BOND
M  V30 1 1 8 5
M  V30 2 1 9 3
M  V30 3 1 11 1
M  V30 4 1 12 6
M  V30 5 1 13 4
M  V30 6 1 14 10
M  V30 7 1 15 8
M  V30 8 1 15 10
M  V30 9 1 16 8
M  V30 10 1 16 12
M  V30 11 2 17 7
M  V30 12 1 17 11
M  V30 13 1 17 13
M  V30 14 1 20 15
M  V30 15 1 22 19
M  V30 16 2 23 1
M  V30 17 1 23 18
M  V30 18 1 25 22
M  V30 19 2 26 21
M  V30 20 1 27 5
M  V30 21 1 27 9
M  V30 22 1 28 7
M  V30 23 1 29 10
M  V30 24 1 29 26
M  V30 25 1 30 2
M  V30 26 1 30 5
M  V30 27 1 31 13
M  V30 28 1 32 20
M  V30 29 1 32 24
M  V30 30 1 32 30
M  V30 31 1 33 3
M  V30 32 1 33 4
M  V30 33 1 34 14
M  V30 34 2 34 22
M  V30 35 1 34 26
M  V30 36 1 35 23
M  V30 37 2 35 28
M  V30 38 1 36 1
M  V30 39 1 37 2
M  V30 40 1 38 3
M  V30 41 1 39 3
M  V30 42 1 40 4
M  V30 43 1 41 4
M  V30 44 1 5 42 CFG=3
M  V30 45 1 43 6
M  V30 46 1 44 7
M  V30 47 1 8 45 CFG=1
M  V30 48 1 46 9
M  V30 49 1 47 9
M  V30 50 1 10 48 CFG=1
M  V30 51 1 49 11
M  V30 52 1 50 11
M  V30 53 1 51 12
M  V30 54 1 52 12
M  V30 55 1 13 53 CFG=1
M  V30 56 1 54 14
M  V30 57 1 55 14
M  V30 58 1 56 16
M  V30 59 1 57 16
M  V30 60 1 58 20
M  V30 61 1 59 20
M  V30 62 1 60 24
M  V30 63 1 61 25
M  V30 64 1 62 25
M  V30 65 1 63 27
M  V30 66 1 64 27
M  V30 67 1 65 28
M  V30 68 1 30 66 CFG=3
M  V30 69 1 32 67 CFG=3
M  V30 70 1 68 33
M  V30 71 1 69 33
M  V30 72 1 70 35
M  V30 END BOND
M  V30 END CTAB
M  END
>  <i_epik_Tot_Q>  (1) 
-1

>  <i_epik_Tot_abs_Q>  (1) 
1

>  <i_i_glide_confnum>  (1) 
28

>  <i_i_glide_lignum>  (1) 
131

>  <i_i_glide_posenum>  (1) 
284

>  <i_i_glide_rotatable_bonds>  (1) 
13

>  <i_lp_mmshare_version>  (1) 
72125

>  <i_m_source_file_index>  (1) 
60

>  <i_f3d_flags>  (1) 
0

>  <num_sample>  (1) 
100

>  <b_lp_Chiralities_Consistent>  (1) 
1

>  <r_epik_Charging_Adjusted_Penalty>  (1) 
0.0074905743673960735

>  <r_epik_Ionization_Penalty>  (1) 
0.0074913792642442509

>  <r_epik_Ionization_Penalty_Charging>  (1) 
4.9207863050936644e-05

>  <r_epik_Ionization_Penalty_Neutral>  (1) 
0.0074421714011933138

>  <r_epik_State_Penalty>  (1) 
0.0074413665043451364

>  <r_glide_ring_energy>  (1) 
0

>  <r_i_docking_score>  (1) 
-8.2617457837073651

>  <r_i_glide_ecoul>  (1) 
-6.2291308616437213

>  <r_i_glide_eff_state_penalty>  (1) 
0.0074413665043451364

>  <r_i_glide_einternal>  (1) 
10.330784200272927

>  <r_i_glide_emodel>  (1) 
-59.045340175860808

>  <r_i_glide_emodel_strain>  (1) 
0.58363078807688851

>  <r_i_glide_energy>  (1) 
-45.001533798750202

>  <r_i_glide_erotb>  (1) 
0.6601858334746602

>  <r_i_glide_esite>  (1) 
-0.017338634825684204

>  <r_i_glide_evdw>  (1) 
-38.772402937106484

>  <r_i_glide_gscore>  (1) 
-8.2691871502117102

>  <r_i_glide_gscore_strain>  (1) 
0

>  <r_i_glide_hbond>  (1) 
-0.47584355516704124

>  <r_i_glide_ligand_efficiency>  (1) 
-0.23604987953449616

>  <r_i_glide_ligand_efficiency_ln>  (1) 
-1.8136365590922841

>  <r_i_glide_ligand_efficiency_sa>  (1) 
-0.77213480846936555

>  <r_i_glide_lipo>  (1) 
-4.4921463478237662

>  <r_i_glide_metal>  (1) 
-0

>  <r_i_glide_rewards>  (1) 
-1.0710546697679966

>  <r_lp_Energy>  (1) 
21.219953

>  <s_epik_Chemistry_Notes>  (1) 
This compound contains an acetal/aminal-like group ( X-CH(R)-Y where X, Y are N, S, or O) that may be acid/base labile, releasing an aldehyde.

>  <s_epik_cmdline>  (1) 
J2VwaWtfcHl0aG9uJywgJy1waHQnLCAnMS4wJywgJy1waCcsICc3LjQnLCAnLXRuJywgJzgnLCAnLW1hJywgJzUwMCcsICctaW1hZScsICc8aW5maWxlLm1hZT4nLCAnLW9tYWUnLCAnPG91dGZpbGUubWFlPic=

>  <s_epik_input>  (1) 
W0NIMl0xW0NIXT1DKEYpW0NIXT1bQ0hdW0NIXT1DMVtDQEBIXShDbClbQ0gyXVtDSDJdW0NIMl1bQ0gyXVtDSDJdW0NAQEhdMltDQEBIXShbQ0gyXVtDSDJdW09IXSlOKFtDSDJdW0NASF0oW09IXSlbQ0BASF0yW09IXSlbQ0BASF0zW0NIMl1bQ0BIXShDKD1PKVMzKUMoPU8pW05IMl0=

>  <s_glide_docking_method>  (1) 
confgen

>  <s_i_glide_gridfile>  (1) 
gpcr_5ht2c_6bqh_protein_autoprepared_prepared

>  <s_lp_Force_Field>  (1) 
S-OPLS

>  <s_lp_Variant>  (1) 
DiffSBDD_59-1

>  <s_m_source_file>  (1) 
generated_GPCR_5HT2C_ligand_DiffSBDD_2026-06-23_prepared.sdf

>  <GenAI_Model>  (1) 
DiffSBDD

>  <Protein>  (1) 
GPCR_5HT2C

$$$$
DiffSBDD_56
     RDKit          3D

  0  0  0  0  0  0  0  0  0  0999 V3000
M  V30 BEGIN CTAB
M  V30 COUNTS 73 78 0 0 1
M  V30 BEGIN ATOM
M  V30 1 C 39.415424 29.576819 56.559430 0 CFG=1
M  V30 2 C 39.691888 26.262209 55.974790 0
M  V30 3 C 38.863370 27.645710 57.898469 0
M  V30 4 C 40.951997 31.617272 64.993937 0
M  V30 5 C 38.092736 31.857042 56.205784 0
M  V30 6 C 38.062849 28.496366 53.383676 0
M  V30 7 C 38.616733 27.290194 56.416714 0 CFG=1
M  V30 8 C 39.423593 31.093006 56.243213 0
M  V30 9 C 39.315205 28.151060 51.313831 0
M  V30 10 C 41.078818 32.993499 64.852488 0
M  V30 11 C 40.306079 33.554113 61.367726 0
M  V30 12 C 40.578978 30.815232 63.894157 0
M  V30 13 C 38.755916 29.724528 53.586331 0
M  V30 14 C 37.949757 32.862510 57.369280 0
M  V30 15 C 40.832103 33.601606 63.579679 0
M  V30 16 C 39.648979 30.193220 52.603248 0
M  V30 17 N 39.104022 28.586423 54.312393 0
M  V30 18 N 38.240072 31.171128 59.244246 0 CFG=2 CHG=1
M  V30 19 F 40.932552 29.778501 50.625533 0
M  V30 20 C 39.083211 29.161847 58.003079 0 CFG=2
M  V30 21 C 40.003182 29.365091 51.519323 0
M  V30 22 C 41.145663 36.137386 63.880805 0
M  V30 23 F 39.582438 27.398958 50.222669 0
M  V30 24 C 38.266242 31.117926 60.730578 0
M  V30 25 C 40.347103 31.390181 62.676569 0
M  V30 26 C 38.566083 28.654984 55.669594 0 CFG=2
M  V30 27 C 38.279003 27.774164 52.194025 0
M  V30 28 S 39.865895 30.437683 61.268547 0
M  V30 29 C 40.852603 34.894041 63.117856 0
M  V30 30 C 40.535579 34.834593 61.761899 0
M  V30 31 C 37.446960 32.309918 58.719231 0
M  V30 32 O 41.435791 33.788991 65.924712 0
M  V30 33 N 40.471582 32.736675 62.499743 0
M  V30 34 C 37.865158 29.861614 58.641407 0
M  V30 35 C 39.381780 25.507437 54.679850 0
M  V30 36 C 41.992758 33.195522 67.089734 0
M  V30 37 O 39.908210 36.537335 64.432636 0
M  V30 38 H 40.445062 29.251408 56.406518 0
M  V30 39 H 40.678052 26.725754 55.916891 0
M  V30 40 H 39.776749 25.500304 56.752077 0
M  V30 41 H 38.049925 27.286420 58.528959 0
M  V30 42 H 39.759026 27.149331 58.275562 0
M  V30 43 H 41.132988 31.152323 65.956550 0
M  V30 44 H 37.245137 31.183904 56.130155 0
M  V30 45 H 38.067406 32.428310 55.276743 0
M  V30 46 H 37.639952 26.813824 56.331438 0
M  V30 47 H 40.045088 31.583697 56.967649 0
M  V30 48 H 39.952874 31.263979 55.307367 0
M  V30 49 H 40.042824 33.125961 60.416074 0
M  V30 50 H 40.472813 29.740939 64.012733 0
M  V30 51 H 38.892183 33.388851 57.519804 0
M  V30 52 H 37.247173 33.635439 57.055687 0
M  V30 53 H 40.053815 31.191894 52.673983 0
M  V30 54 H 39.957676 29.336102 58.630083 0
M  V30 55 H 41.886359 35.977998 64.664598 0
M  V30 56 H 41.521267 36.917060 63.217394 0
M  V30 57 H 38.147819 32.108009 61.165313 0
M  V30 58 H 37.438932 30.537762 61.140018 0
M  V30 59 H 37.533404 29.009277 55.674436 0
M  V30 60 H 37.645135 26.937307 51.951214 0
M  V30 61 H 40.483504 35.708480 61.127220 0
M  V30 62 H 37.483983 33.148693 59.414170 0
M  V30 63 H 36.405260 32.022390 58.687710 0
M  V30 64 H 37.052509 29.950968 57.920650 0
M  V30 65 H 37.450834 29.221717 59.420632 0
M  V30 66 H 39.888234 24.545277 54.677886 0
M  V30 67 H 39.730416 26.051736 53.803541 0
M  V30 68 H 38.315623 25.310721 54.570434 0
M  V30 69 H 42.386379 33.980013 67.735648 0
M  V30 70 H 42.820155 32.526064 66.847670 0
M  V30 71 H 41.238735 32.651931 67.660220 0
M  V30 72 H 39.329002 36.770064 63.725922 0
M  V30 73 H 39.185944 31.360859 58.948615 0
M  V30 END ATOM
M  V30 BEGIN BOND
M  V30 1 1 7 2
M  V30 2 1 7 3
M  V30 3 1 8 1
M  V30 4 1 8 5
M  V30 5 2 10 4
M  V30 6 1 12 4
M  V30 7 2 13 6
M  V30 8 1 14 5
M  V30 9 1 15 10
M  V30 10 1 16 13
M  V30 11 1 17 6
M  V30 12 1 17 13
M  V30 13 1 20 1
M  V30 14 1 20 3
M  V30 15 1 21 9
M  V30 16 2 21 16
M  V30 17 1 21 19
M  V30 18 1 23 9
M  V30 19 1 24 18
M  V30 20 2 25 12
M  V30 21 1 26 1
M  V30 22 1 26 7
M  V30 23 1 26 17
M  V30 24 1 27 6
M  V30 25 2 27 9
M  V30 26 1 28 24
M  V30 27 1 28 25
M  V30 28 2 29 15
M  V30 29 1 29 22
M  V30 30 2 30 11
M  V30 31 1 30 29
M  V30 32 1 31 14
M  V30 33 1 31 18
M  V30 34 1 32 10
M  V30 35 1 33 11
M  V30 36 1 33 15
M  V30 37 1 33 25
M  V30 38 1 34 18
M  V30 39 1 34 20
M  V30 40 1 35 2
M  V30 41 1 36 32
M  V30 42 1 37 22
M  V30 43 1 1 38 CFG=3
M  V30 44 1 39 2
M  V30 45 1 40 2
M  V30 46 1 41 3
M  V30 47 1 42 3
M  V30 48 1 43 4
M  V30 49 1 44 5
M  V30 50 1 45 5
M  V30 51 1 7 46 CFG=1
M  V30 52 1 47 8
M  V30 53 1 48 8
M  V30 54 1 49 11
M  V30 55 1 50 12
M  V30 56 1 51 14
M  V30 57 1 52 14
M  V30 58 1 53 16
M  V30 59 1 20 54 CFG=1
M  V30 60 1 55 22
M  V30 61 1 56 22
M  V30 62 1 57 24
M  V30 63 1 58 24
M  V30 64 1 26 59 CFG=3
M  V30 65 1 60 27
M  V30 66 1 61 30
M  V30 67 1 62 31
M  V30 68 1 63 31
M  V30 69 1 64 34
M  V30 70 1 65 34
M  V30 71 1 66 35
M  V30 72 1 67 35
M  V30 73 1 68 35
M  V30 74 1 69 36
M  V30 75 1 70 36
M  V30 76 1 71 36
M  V30 77 1 72 37
M  V30 78 1 18 73 CFG=3
M  V30 END BOND
M  V30 END CTAB
M  END
>  <i_epik_Tot_Q>  (1) 
1

>  <i_epik_Tot_abs_Q>  (1) 
1

>  <i_i_glide_confnum>  (1) 
293

>  <i_i_glide_lignum>  (1) 
124

>  <i_i_glide_posenum>  (1) 
56

>  <i_i_glide_rotatable_bonds>  (1) 
8

>  <i_lp_mmshare_version>  (1) 
72125

>  <i_m_source_file_index>  (1) 
57

>  <i_f3d_flags>  (1) 
0

>  <num_sample>  (1) 
100

>  <b_lp_Chiralities_Consistent>  (1) 
1

>  <r_epik_Charging_Adjusted_Penalty>  (1) 
1.9649939919035475

>  <r_epik_Ionization_Penalty>  (1) 
0.98409533599364529

>  <r_epik_Ionization_Penalty_Charging>  (1) 
0.98249699595177398

>  <r_epik_Ionization_Penalty_Neutral>  (1) 
0.0015983400418712683

>  <r_epik_State_Penalty>  (1) 
0.98249699595177364

>  <r_glide_ring_energy>  (1) 
0

>  <r_i_docking_score>  (1) 
-8.2541064157974784

>  <r_i_glide_ecoul>  (1) 
-1.5342142398607379

>  <r_i_glide_eff_state_penalty>  (1) 
0.98249699595177364

>  <r_i_glide_einternal>  (1) 
7.7687938597700814

>  <r_i_glide_emodel>  (1) 
-75.460253200453622

>  <r_i_glide_emodel_strain>  (1) 
0.11967057073434262

>  <r_i_glide_energy>  (1) 
-49.287848291966093

>  <r_i_glide_erotb>  (1) 
0.36855175673704876

>  <r_i_glide_esite>  (1) 
-0.038053718373772152

>  <r_i_glide_evdw>  (1) 
-47.753634052105355

>  <r_i_glide_gscore>  (1) 
-9.2366034117492521

>  <r_i_glide_gscore_strain>  (1) 
0

>  <r_i_glide_hbond>  (1) 
0

>  <r_i_glide_ligand_efficiency>  (1) 
-0.22308395718371563

>  <r_i_glide_ligand_efficiency_ln>  (1) 
-1.790122177877592

>  <r_i_glide_ligand_efficiency_sa>  (1) 
-0.74336523687922762

>  <r_i_glide_lipo>  (1) 
-4.905206706409297

>  <r_i_glide_metal>  (1) 
-0

>  <r_i_glide_rewards>  (1) 
-2.0440809051188533

>  <r_lp_Energy>  (1) 
113.81728699999999

>  <s_epik_Chemistry_Notes>  (1) 
This compound contains an acetal/aminal-like group ( X-CH(R)-Y where X, Y are N, S, or O) that may be acid/base labile, releasing an aldehyde.

>  <s_epik_cmdline>  (1) 
J2VwaWtfcHl0aG9uJywgJy1waHQnLCAnMS4wJywgJy1waCcsICc3LjQnLCAnLXRuJywgJzgnLCAnLW1hJywgJzUwMCcsICctaW1hZScsICc8aW5maWxlLm1hZT4nLCAnLW9tYWUnLCAnPG91dGZpbGUubWFlPic=

>  <s_epik_input>  (1) 
RmMoW2NIXTEpYyhGKVtjSF1jKGMxMilOMltDQEhdM1tDQEBIXShbQ0gyXVtDSDNdKVtDSDJdW0NAQEhdKFtDQEBIXTM0KVtDSDJdTihbQ0gyXVtDSDJdW0NIMl1bQ0gyXTQpW0NIMl1TYyhbY0hdW2NIXWM1T1tDSDNdKW4oYzU2KVtjSF1bY0hdYzZbQ0gyXVtPSF0=

>  <s_glide_docking_method>  (1) 
confgen

>  <s_i_glide_gridfile>  (1) 
gpcr_5ht2c_6bqh_protein_autoprepared_prepared

>  <s_lp_Force_Field>  (1) 
S-OPLS

>  <s_lp_Variant>  (1) 
DiffSBDD_56-3

>  <s_m_source_file>  (1) 
generated_GPCR_5HT2C_ligand_DiffSBDD_2026-06-23_prepared.sdf

>  <GenAI_Model>  (1) 
DiffSBDD

>  <Protein>  (1) 
GPCR_5HT2C

$$$$
DiffSBDD_75
     RDKit          3D

  0  0  0  0  0  0  0  0  0  0999 V3000
M  V30 BEGIN CTAB
M  V30 COUNTS 77 78 0 0 1
M  V30 BEGIN ATOM
M  V30 1 C 38.786705 30.473586 59.112119 0
M  V30 2 C 38.046126 32.551175 56.167111 0
M  V30 3 O 36.511019 35.545483 59.440067 0
M  V30 4 C 40.055017 27.984430 60.253236 0
M  V30 5 C 37.203816 36.723391 61.981380 0 CFG=1
M  V30 6 C 38.835865 28.932758 53.562280 0
M  V30 7 C 37.749657 35.202688 60.042985 0 CFG=2
M  V30 8 C 38.695533 27.985049 52.526160 0
M  V30 9 O 38.042696 38.743297 60.967540 0
M  V30 10 C 39.025289 35.002943 62.334882 0 CFG=2
M  V30 11 O 40.413499 29.737728 49.768231 0
M  V30 12 S 37.054559 32.557469 59.367973 0
M  V30 13 C 40.794358 28.278977 61.565465 0
M  V30 14 C 39.902691 29.469491 51.006370 0
M  V30 15 C 38.255158 33.909190 59.381389 0
M  V30 16 C 38.261997 28.653115 54.937607 0
M  V30 17 C 39.512575 30.143977 53.318104 0
M  V30 18 O 41.293852 35.765331 62.702782 0
M  V30 19 C 39.470749 33.526061 62.385645 0
M  V30 20 C 37.676106 35.288344 61.594715 0 CFG=1
M  V30 21 O 40.839491 29.676666 61.781997 0
M  V30 22 O 38.748319 31.983732 57.262804 0
M  V30 23 O 37.878751 27.910764 57.788426 0
M  V30 24 C 41.731977 28.064894 58.429828 0
M  V30 25 N 40.645562 28.776994 59.149985 0 CFG=1 CHG=1
M  V30 26 C 38.864629 28.532928 57.399606 0
M  V30 27 C 39.229495 28.253957 51.248022 0
M  V30 28 C 39.363402 28.347245 55.966917 0
M  V30 29 C 39.670834 29.506219 58.288622 0 CFG=1
M  V30 30 C 40.045045 30.410546 52.042036 0
M  V30 31 C 39.709751 37.453230 62.134117 0
M  V30 32 C 37.915822 31.395938 58.259229 0 CFG=1
M  V30 33 C 36.734812 36.917224 63.437337 0
M  V30 34 C 40.138051 35.988077 61.921007 0 CFG=2
M  V30 35 C 38.293307 37.737710 61.629170 0
M  V30 36 H 38.115805 29.939911 59.784504 0
M  V30 37 H 39.423906 31.083284 59.755057 0
M  V30 38 H 38.759171 33.020580 55.488793 0
M  V30 39 H 37.497357 31.795900 55.603642 0
M  V30 40 H 37.346436 33.317467 56.501157 0
M  V30 41 H 36.589107 35.491902 58.494473 0
M  V30 42 H 38.993411 28.164865 60.397567 0
M  V30 43 H 40.106307 26.938792 59.986974 0
M  V30 44 H 38.444887 35.983082 59.767786 0
M  V30 45 H 38.177053 27.055368 52.709157 0
M  V30 46 H 39.750362 37.719334 63.191003 0
M  V30 47 H 38.845304 35.264117 63.367640 0
M  V30 48 H 40.075744 29.159007 49.101583 0
M  V30 49 H 40.303611 27.791410 62.408655 0
M  V30 50 H 41.813093 27.900497 61.531823 0
M  V30 51 H 39.212671 33.580896 59.765752 0
M  V30 52 H 38.445150 34.137660 58.337338 0
M  V30 53 H 37.677028 29.520830 55.244075 0
M  V30 54 H 37.560420 27.820289 54.886238 0
M  V30 55 H 39.621613 30.870783 54.108952 0
M  V30 56 H 41.120194 36.012187 63.599864 0
M  V30 57 H 40.188946 33.278367 61.606254 0
M  V30 58 H 39.969666 33.317681 63.331433 0
M  V30 59 H 38.625651 32.842820 62.316010 0
M  V30 60 H 36.916306 34.577024 61.919715 0
M  V30 61 H 40.095995 29.928766 62.312566 0
M  V30 62 H 41.356961 27.231207 57.834775 0
M  V30 63 H 42.285029 28.736462 57.774830 0
M  V30 64 H 42.444896 27.653077 59.142365 0
M  V30 65 H 39.118442 27.530371 50.454897 0
M  V30 66 H 39.750918 27.337272 55.825878 0
M  V30 67 H 40.203240 29.021717 55.811950 0
M  V30 68 H 40.269965 30.134087 57.630196 0
M  V30 69 H 40.562345 31.339709 51.857366 0
M  V30 70 H 40.402822 38.110163 61.610488 0
M  V30 71 H 36.352383 36.979700 61.356145 0
M  V30 72 H 37.170642 30.771317 57.770642 0
M  V30 73 H 36.213472 37.869697 63.546224 0
M  V30 74 H 36.035509 36.138689 63.734788 0
M  V30 75 H 37.559758 36.915227 64.152199 0
M  V30 76 H 40.415503 35.825822 60.879084 0
M  V30 77 H 41.111806 29.516588 59.659657 0
M  V30 END ATOM
M  V30 BEGIN BOND
M  V30 1 1 7 3
M  V30 2 1 8 6
M  V30 3 1 13 4
M  V30 4 1 14 11
M  V30 5 1 15 7
M  V30 6 1 15 12
M  V30 7 1 16 6
M  V30 8 2 17 6
M  V30 9 1 19 10
M  V30 10 1 20 5
M  V30 11 1 20 7
M  V30 12 1 20 10
M  V30 13 1 21 13
M  V30 14 1 22 2
M  V30 15 1 25 4
M  V30 16 1 25 24
M  V30 17 2 26 23
M  V30 18 2 27 8
M  V30 19 1 27 14
M  V30 20 1 28 16
M  V30 21 1 28 26
M  V30 22 1 29 1
M  V30 23 1 29 25
M  V30 24 1 29 26
M  V30 25 2 30 14
M  V30 26 1 30 17
M  V30 27 1 32 1
M  V30 28 1 32 12
M  V30 29 1 32 22
M  V30 30 1 33 5
M  V30 31 1 34 10
M  V30 32 1 34 18
M  V30 33 1 34 31
M  V30 34 1 35 5
M  V30 35 2 35 9
M  V30 36 1 35 31
M  V30 37 1 36 1
M  V30 38 1 37 1
M  V30 39 1 38 2
M  V30 40 1 39 2
M  V30 41 1 40 2
M  V30 42 1 41 3
M  V30 43 1 42 4
M  V30 44 1 43 4
M  V30 45 1 7 44 CFG=3
M  V30 46 1 45 8
M  V30 47 1 46 31
M  V30 48 1 10 47 CFG=1
M  V30 49 1 48 11
M  V30 50 1 49 13
M  V30 51 1 50 13
M  V30 52 1 51 15
M  V30 53 1 52 15
M  V30 54 1 53 16
M  V30 55 1 54 16
M  V30 56 1 55 17
M  V30 57 1 56 18
M  V30 58 1 57 19
M  V30 59 1 58 19
M  V30 60 1 59 19
M  V30 61 1 20 60 CFG=1
M  V30 62 1 61 21
M  V30 63 1 62 24
M  V30 64 1 63 24
M  V30 65 1 64 24
M  V30 66 1 65 27
M  V30 67 1 66 28
M  V30 68 1 67 28
M  V30 69 1 29 68 CFG=3
M  V30 70 1 69 30
M  V30 71 1 70 31
M  V30 72 1 5 71 CFG=3
M  V30 73 1 32 72 CFG=3
M  V30 74 1 73 33
M  V30 75 1 74 33
M  V30 76 1 75 33
M  V30 77 1 34 76 CFG=3
M  V30 78 1 25 77 CFG=1
M  V30 END BOND
M  V30 END CTAB
M  END
>  <i_epik_Tot_Q>  (1) 
1

>  <i_epik_Tot_abs_Q>  (1) 
1

>  <i_i_glide_confnum>  (1) 
6979

>  <i_i_glide_lignum>  (1) 
166

>  <i_i_glide_posenum>  (1) 
276

>  <i_i_glide_rotatable_bonds>  (1) 
18

>  <i_lp_mmshare_version>  (1) 
72125

>  <i_m_source_file_index>  (1) 
76

>  <i_f3d_flags>  (1) 
0

>  <num_sample>  (1) 
100

>  <b_lp_Chiralities_Consistent>  (1) 
1

>  <r_epik_Charging_Adjusted_Penalty>  (1) 
0.52789471212939676

>  <r_epik_Ionization_Penalty>  (1) 
0.26592108790513191

>  <r_epik_Ionization_Penalty_Charging>  (1) 
0.26394735606469838

>  <r_epik_Ionization_Penalty_Neutral>  (1) 
0.0019737318404335234

>  <r_epik_State_Penalty>  (1) 
0.26394735606469838

>  <r_glide_ring_energy>  (1) 
0

>  <r_i_docking_score>  (1) 
-8.2504865569019099

>  <r_i_glide_ecoul>  (1) 
-8.4104525112418944

>  <r_i_glide_eff_state_penalty>  (1) 
0.26394735606469838

>  <r_i_glide_einternal>  (1) 
10.418815447090299

>  <r_i_glide_emodel>  (1) 
-78.015677945705079

>  <r_i_glide_emodel_strain>  (1) 
3.1133390190945818

>  <r_i_glide_energy>  (1) 
-56.900066211578313

>  <r_i_glide_erotb>  (1) 
1.0139394581015995

>  <r_i_glide_esite>  (1) 
0

>  <r_i_glide_evdw>  (1) 
-48.48961370033642

>  <r_i_glide_gscore>  (1) 
-8.5144339129666076

>  <r_i_glide_gscore_strain>  (1) 
0

>  <r_i_glide_hbond>  (1) 
-0.54034585087978715

>  <r_i_glide_ligand_efficiency>  (1) 
-0.23572818734005457

>  <r_i_glide_ligand_efficiency_ln>  (1) 
-1.811164908923411

>  <r_i_glide_ligand_efficiency_sa>  (1) 
-0.77108253196987708

>  <r_i_glide_lipo>  (1) 
-4.4487455519195596

>  <r_i_glide_metal>  (1) 
-0

>  <r_i_glide_rewards>  (1) 
-0.85323340656575586

>  <r_lp_Energy>  (1) 
31.761440999999998

>  <r_lp_tautomer_probability>  (1) 
0.99989998499911525

>  <s_epik_Chemistry_Notes>  (1) 
This compound contains an acetal/aminal-like group ( X-CH(R)-Y where X, Y are N, S, or O) that may be acid/base labile, releasing an aldehyde.

>  <s_epik_cmdline>  (1) 
J2VwaWtfcHl0aG9uJywgJy1waHQnLCAnMS4wJywgJy1waCcsICc3LjQnLCAnLXRuJywgJzgnLCAnLW1hJywgJzUwMCcsICctaW1hZScsICc8aW5maWxlLm1hZT4nLCAnLW9tYWUnLCAnPG91dGZpbGUubWFlPic=

>  <s_epik_input>  (1) 
W2NIXTFbY0hdYyhbT0hdKVtjSF1bY0hdYzFbQ0gyXVtDSDJdQyg9TylbQ0BIXShOKFtDSDNdKVtDSDJdW0NIMl1bT0hdKVtDSDJdW0NASF0oT1tDSDNdKVNbQ0gyXVtDQEBIXShbT0hdKVtDQEhdMltDQEBIXShbQ0gzXSlbQ0BIXShbT0hdKVtDSDJdQyhbT0hdKT1DMltDSDNd

>  <s_glide_docking_method>  (1) 
confgen

>  <s_i_glide_gridfile>  (1) 
gpcr_5ht2c_6bqh_protein_autoprepared_prepared

>  <s_lp_Force_Field>  (1) 
S-OPLS

>  <s_lp_Variant>  (1) 
DiffSBDD_75-3

>  <s_m_source_file>  (1) 
generated_GPCR_5HT2C_ligand_DiffSBDD_2026-06-23_prepared.sdf

>  <GenAI_Model>  (1) 
DiffSBDD

>  <Protein>  (1) 
GPCR_5HT2C

$$$$
DiffSBDD_47
     RDKit          3D

  0  0  0  0  0  0  0  0  0  0999 V3000
M  V30 BEGIN CTAB
M  V30 COUNTS 51 52 0 0 1
M  V30 BEGIN ATOM
M  V30 1 O 40.845145 36.537705 62.967880 0
M  V30 2 C 38.772074 36.288444 61.692782 0
M  V30 3 C 38.302665 32.702878 60.583014 0
M  V30 4 C 39.645144 29.799234 52.542894 0
M  V30 5 C 37.645299 28.364669 53.913965 0
M  V30 6 C 37.636875 37.000936 61.046112 0
M  V30 7 C 39.217729 30.231910 53.812205 0
M  V30 8 C 36.855658 34.766639 60.122679 0
M  V30 9 C 37.922441 31.867664 59.349206 0
M  V30 10 O 37.295623 38.137875 61.367479 0
M  V30 11 C 37.743139 29.979848 55.879587 0 CFG=2
M  V30 12 C 38.318376 29.084170 57.001889 0
M  V30 13 O 38.045154 27.884092 57.059848 0
M  V30 14 C 39.243795 29.737711 58.043308 0 CFG=1
M  V30 15 C 38.280518 34.216089 60.294740 0 CFG=1
M  V30 16 C 36.877781 36.283267 59.926133 0
M  V30 17 C 39.077713 28.648478 51.960203 0
M  V30 18 C 39.057346 35.014087 61.333878 0
M  V30 19 S 38.326050 30.112157 59.574796 0
M  V30 20 C 38.214094 29.515224 54.502745 0
M  V30 21 C 38.078820 27.932400 52.646315 0
M  V30 22 C 39.541472 28.182772 50.598387 0
M  V30 23 C 40.442914 28.828533 58.365219 0
M  V30 24 O 37.967789 31.360547 56.105606 0
M  V30 25 C 39.559474 37.079188 62.735198 0
M  V30 26 H 41.281364 37.076362 63.621331 0
M  V30 27 H 39.311320 32.416628 60.884400 0
M  V30 28 H 37.652882 32.460421 61.424846 0
M  V30 29 H 40.411237 30.350266 52.016683 0
M  V30 30 H 36.878259 27.812677 54.436972 0
M  V30 31 H 39.657945 31.113375 54.255011 0
M  V30 32 H 36.365785 34.300853 59.267060 0
M  V30 33 H 36.249856 34.520536 60.996467 0
M  V30 34 H 36.861575 31.961012 59.113206 0
M  V30 35 H 38.468233 32.249752 58.488788 0
M  V30 36 H 36.660820 29.849416 55.901249 0
M  V30 37 H 39.645186 30.660291 57.633239 0
M  V30 38 H 38.828350 34.366185 59.367835 0
M  V30 39 H 37.356790 36.527630 58.977894 0
M  V30 40 H 35.861997 36.672666 59.867800 0
M  V30 41 H 39.887738 34.506263 61.802025 0
M  V30 42 H 37.645135 27.050030 52.199875 0
M  V30 43 H 39.640259 27.097129 50.571760 0
M  V30 44 H 38.845040 28.491640 49.823155 0
M  V30 45 H 40.502232 28.625364 50.357701 0
M  V30 46 H 40.976669 28.538309 57.459218 0
M  V30 47 H 41.155298 29.337709 59.014485 0
M  V30 48 H 40.130276 27.914386 58.872187 0
M  V30 49 H 37.120437 31.736798 56.350340 0
M  V30 50 H 38.999985 37.108052 63.670696 0
M  V30 51 H 39.693698 38.109913 62.403063 0
M  V30 END ATOM
M  V30 BEGIN BOND
M  V30 1 1 6 2
M  V30 2 2 7 4
M  V30 3 1 9 3
M  V30 4 2 10 6
M  V30 5 1 12 11
M  V30 6 2 13 12
M  V30 7 1 14 12
M  V30 8 1 15 3
M  V30 9 1 15 8
M  V30 10 1 16 6
M  V30 11 1 16 8
M  V30 12 1 17 4
M  V30 13 2 18 2
M  V30 14 1 18 15
M  V30 15 1 19 9
M  V30 16 1 19 14
M  V30 17 2 20 5
M  V30 18 1 20 7
M  V30 19 1 20 11
M  V30 20 1 21 5
M  V30 21 2 21 17
M  V30 22 1 22 17
M  V30 23 1 23 14
M  V30 24 1 24 11
M  V30 25 1 25 1
M  V30 26 1 25 2
M  V30 27 1 26 1
M  V30 28 1 27 3
M  V30 29 1 28 3
M  V30 30 1 29 4
M  V30 31 1 30 5
M  V30 32 1 31 7
M  V30 33 1 32 8
M  V30 34 1 33 8
M  V30 35 1 34 9
M  V30 36 1 35 9
M  V30 37 1 11 36 CFG=3
M  V30 38 1 14 37 CFG=3
M  V30 39 1 15 38 CFG=3
M  V30 40 1 39 16
M  V30 41 1 40 16
M  V30 42 1 41 18
M  V30 43 1 42 21
M  V30 44 1 43 22
M  V30 45 1 44 22
M  V30 46 1 45 22
M  V30 47 1 46 23
M  V30 48 1 47 23
M  V30 49 1 48 23
M  V30 50 1 49 24
M  V30 51 1 50 25
M  V30 52 1 51 25
M  V30 END BOND
M  V30 END CTAB
M  END
>  <i_epik_Tot_Q>  (1) 
0

>  <i_epik_Tot_abs_Q>  (1) 
0

>  <i_i_glide_confnum>  (1) 
516

>  <i_i_glide_lignum>  (1) 
99

>  <i_i_glide_posenum>  (1) 
70

>  <i_i_glide_rotatable_bonds>  (1) 
10

>  <i_lp_mmshare_version>  (1) 
72125

>  <i_m_source_file_index>  (1) 
48

>  <i_f3d_flags>  (1) 
0

>  <num_sample>  (1) 
100

>  <b_lp_Chiralities_Consistent>  (1) 
1

>  <r_epik_Charging_Adjusted_Penalty>  (1) 
0

>  <r_epik_Ionization_Penalty>  (1) 
1.6598549338111207e-05

>  <r_epik_Ionization_Penalty_Charging>  (1) 
0

>  <r_epik_Ionization_Penalty_Neutral>  (1) 
1.6598549338111207e-05

>  <r_epik_State_Penalty>  (1) 
-0

>  <r_glide_ring_energy>  (1) 
0

>  <r_i_docking_score>  (1) 
-8.2210859158818081

>  <r_i_glide_ecoul>  (1) 
-8.3669346414306212

>  <r_i_glide_eff_state_penalty>  (1) 
-0

>  <r_i_glide_einternal>  (1) 
8.5899785841793079

>  <r_i_glide_emodel>  (1) 
-71.345085183958943

>  <r_i_glide_emodel_strain>  (1) 
1.7143845760857381

>  <r_i_glide_energy>  (1) 
-50.741056220908646

>  <r_i_glide_erotb>  (1) 
1.1691057722696085

>  <r_i_glide_esite>  (1) 
0

>  <r_i_glide_evdw>  (1) 
-42.374121579478022

>  <r_i_glide_gscore>  (1) 
-8.2210859158818081

>  <r_i_glide_gscore_strain>  (1) 
0

>  <r_i_glide_hbond>  (1) 
-0.45599999999999996

>  <r_i_glide_ligand_efficiency>  (1) 
-0.32884343663527232

>  <r_i_glide_ligand_efficiency_ln>  (1) 
-1.9486437281283664

>  <r_i_glide_ligand_efficiency_sa>  (1) 
-0.96154404181641495

>  <r_i_glide_lipo>  (1) 
-3.5967327545607208

>  <r_i_glide_metal>  (1) 
-0

>  <r_i_glide_rewards>  (1) 
-1.9637126584022

>  <r_lp_Energy>  (1) 
21.981998999999998

>  <r_lp_tautomer_probability>  (1) 
1

>  <s_epik_cmdline>  (1) 
J2VwaWtfcHl0aG9uJywgJy1waHQnLCAnMS4wJywgJy1waCcsICc3LjQnLCAnLXRuJywgJzgnLCAnLW1hJywgJzUwMCcsICctaW1hZScsICc8aW5maWxlLm1hZT4nLCAnLW9tYWUnLCAnPG91dGZpbGUubWFlPic=

>  <s_epik_input>  (1) 
W09IXVtDSDJdQzE9W0NIXVtDQEhdKFtDSDJdW0NIMl1DMT1PKVtDSDJdW0NIMl1TXEMoW0NIM10pPUMoW09IXSlcW0NAQEhdKFtPSF0pYyhbY0hdW2NIXTIpW2NIXVtjSF1jMltDSDNd

>  <s_glide_docking_method>  (1) 
confgen

>  <s_i_glide_gridfile>  (1) 
gpcr_5ht2c_6bqh_protein_autoprepared_prepared

>  <s_lp_Force_Field>  (1) 
S-OPLS

>  <s_lp_Variant>  (1) 
DiffSBDD_47-1

>  <s_m_source_file>  (1) 
generated_GPCR_5HT2C_ligand_DiffSBDD_2026-06-23_prepared.sdf

>  <GenAI_Model>  (1) 
DiffSBDD

>  <Protein>  (1) 
GPCR_5HT2C

$$$$
DiffSBDD_59
     RDKit          3D

  0  0  0  0  0  0  0  0  0  0999 V3000
M  V30 BEGIN CTAB
M  V30 COUNTS 70 72 0 0 1
M  V30 BEGIN ATOM
M  V30 1 C 40.045544 30.728991 51.994688 0
M  V30 2 O 40.780695 29.313014 61.336606 0
M  V30 3 C 39.349469 27.639574 57.969005 0
M  V30 4 C 38.278645 27.342626 55.627894 0
M  V30 5 C 38.502722 30.218197 60.792864 0 CFG=1
M  V30 6 O 35.306471 32.937524 59.367770 0
M  V30 7 C 38.782136 27.869009 52.769959 0
M  V30 8 C 38.800245 31.688058 60.335970 0 CFG=2
M  V30 9 C 39.286086 29.060091 58.564128 0
M  V30 10 C 39.762782 33.917002 60.907136 0 CFG=1
M  V30 11 C 39.590735 30.202906 53.292955 0
M  V30 12 C 36.263088 32.277443 60.165655 0
M  V30 13 C 38.589614 28.763583 55.104067 0 CFG=1
M  V30 14 C 40.990518 34.536450 61.669755 0
M  V30 15 N 39.225021 32.619079 61.424289 0
M  V30 16 C 37.635205 32.238470 59.461324 0
M  V30 17 C 38.979514 28.886717 53.632847 0
M  V30 18 F 40.553064 30.814999 49.784530 0
M  V30 19 O 42.257045 35.070611 64.448555 0 CHG=-1
M  V30 20 C 40.159355 31.974398 62.355529 0
M  V30 21 O 38.443282 36.560201 63.244646 0
M  V30 22 C 41.134389 35.441537 64.045612 0
M  V30 23 C 40.073043 30.108426 50.818656 0
M  V30 24 O 40.545539 30.183838 63.927496 0
M  V30 25 N 40.444364 36.137769 65.015967 0
M  V30 26 C 39.086091 35.786428 62.533442 0
M  V30 27 C 38.210660 29.199757 59.662593 0
M  V30 28 C 39.101533 27.807992 51.342103 0
M  V30 29 S 38.410698 35.173748 61.005968 0
M  V30 30 C 39.494988 29.639897 61.828471 0 CFG=2
M  V30 31 Cl 37.245257 29.872106 55.458433 0
M  V30 32 C 39.652533 30.660977 62.940232 0 CFG=2
M  V30 33 C 38.105318 27.236461 57.154007 0
M  V30 34 C 40.427438 35.290288 62.844588 0
M  V30 35 C 39.645066 28.751402 50.525790 0
M  V30 36 H 40.408891 31.737986 52.028897 0
M  V30 37 H 41.251530 28.952962 62.076904 0
M  V30 38 H 40.248507 27.530225 57.361467 0
M  V30 39 H 39.479296 26.933285 58.789754 0
M  V30 40 H 39.085244 26.667984 55.337174 0
M  V30 41 H 37.373140 26.963666 55.153374 0
M  V30 42 H 37.577647 30.285260 61.359535 0
M  V30 43 H 35.291969 32.537408 58.491731 0
M  V30 44 H 38.331218 26.978804 53.175257 0
M  V30 45 H 39.645135 31.591418 59.675276 0
M  V30 46 H 39.114660 29.808242 57.792184 0
M  V30 47 H 40.273332 29.291669 58.954361 0
M  V30 48 H 40.045066 33.800727 59.860520 0
M  V30 49 H 38.892117 30.965239 53.637938 0
M  V30 50 H 40.460691 30.308921 53.942905 0
M  V30 51 H 36.333440 32.791821 61.125165 0
M  V30 52 H 35.887983 31.273000 60.357505 0
M  V30 53 H 39.445046 29.141533 55.661471 0
M  V30 54 H 41.790123 33.847148 61.935482 0
M  V30 55 H 41.457179 35.284917 61.026568 0
M  V30 56 H 37.544453 31.635880 58.557567 0
M  V30 57 H 37.879663 33.229862 59.084599 0
M  V30 58 H 41.120057 31.803089 61.866270 0
M  V30 59 H 40.342912 32.636463 63.200862 0
M  V30 60 H 40.565341 30.809407 64.635885 0
M  V30 61 H 39.525963 36.537175 64.871041 0
M  V30 62 H 40.824759 36.361906 65.922568 0
M  V30 63 H 38.055934 28.228986 60.132401 0
M  V30 64 H 37.255852 29.432892 59.192566 0
M  V30 65 H 38.863293 26.869663 50.861339 0
M  V30 66 H 39.084998 28.716538 62.234000 0
M  V30 67 H 38.668973 30.819471 63.373093 0
M  V30 68 H 37.869597 26.196963 57.385028 0
M  V30 69 H 37.238931 27.810164 57.478011 0
M  V30 70 H 39.770175 28.457808 49.501458 0
M  V30 END ATOM
M  V30 BEGIN BOND
M  V30 1 1 8 5
M  V30 2 1 9 3
M  V30 3 1 11 1
M  V30 4 1 12 6
M  V30 5 1 13 4
M  V30 6 1 14 10
M  V30 7 1 15 8
M  V30 8 1 15 10
M  V30 9 1 16 8
M  V30 10 1 16 12
M  V30 11 2 17 7
M  V30 12 1 17 11
M  V30 13 1 17 13
M  V30 14 1 20 15
M  V30 15 1 22 19
M  V30 16 2 23 1
M  V30 17 1 23 18
M  V30 18 1 25 22
M  V30 19 2 26 21
M  V30 20 1 27 5
M  V30 21 1 27 9
M  V30 22 1 28 7
M  V30 23 1 29 10
M  V30 24 1 29 26
M  V30 25 1 30 2
M  V30 26 1 30 5
M  V30 27 1 31 13
M  V30 28 1 32 20
M  V30 29 1 32 24
M  V30 30 1 32 30
M  V30 31 1 33 3
M  V30 32 1 33 4
M  V30 33 1 34 14
M  V30 34 2 34 22
M  V30 35 1 34 26
M  V30 36 1 35 23
M  V30 37 2 35 28
M  V30 38 1 36 1
M  V30 39 1 37 2
M  V30 40 1 38 3
M  V30 41 1 39 3
M  V30 42 1 40 4
M  V30 43 1 41 4
M  V30 44 1 5 42 CFG=1
M  V30 45 1 43 6
M  V30 46 1 44 7
M  V30 47 1 8 45 CFG=3
M  V30 48 1 46 9
M  V30 49 1 47 9
M  V30 50 1 10 48 CFG=3
M  V30 51 1 49 11
M  V30 52 1 50 11
M  V30 53 1 51 12
M  V30 54 1 52 12
M  V30 55 1 13 53 CFG=1
M  V30 56 1 54 14
M  V30 57 1 55 14
M  V30 58 1 56 16
M  V30 59 1 57 16
M  V30 60 1 58 20
M  V30 61 1 59 20
M  V30 62 1 60 24
M  V30 63 1 61 25
M  V30 64 1 62 25
M  V30 65 1 63 27
M  V30 66 1 64 27
M  V30 67 1 65 28
M  V30 68 1 30 66 CFG=1
M  V30 69 1 32 67 CFG=1
M  V30 70 1 68 33
M  V30 71 1 69 33
M  V30 72 1 70 35
M  V30 END BOND
M  V30 END CTAB
M  END
>  <i_epik_Tot_Q>  (1) 
-1

>  <i_epik_Tot_abs_Q>  (1) 
1

>  <i_i_glide_confnum>  (1) 
981

>  <i_i_glide_lignum>  (1) 
131

>  <i_i_glide_posenum>  (1) 
226

>  <i_i_glide_rotatable_bonds>  (1) 
13

>  <i_lp_mmshare_version>  (1) 
72125

>  <i_m_source_file_index>  (1) 
60

>  <i_f3d_flags>  (1) 
0

>  <num_sample>  (1) 
100

>  <b_lp_Chiralities_Consistent>  (1) 
1

>  <r_epik_Charging_Adjusted_Penalty>  (1) 
0.0074905743673960735

>  <r_epik_Ionization_Penalty>  (1) 
0.0074913792642442509

>  <r_epik_Ionization_Penalty_Charging>  (1) 
4.9207863050936644e-05

>  <r_epik_Ionization_Penalty_Neutral>  (1) 
0.0074421714011933138

>  <r_epik_State_Penalty>  (1) 
0.0074413665043451364

>  <r_glide_ring_energy>  (1) 
0

>  <r_i_docking_score>  (1) 
-8.2038570160766202

>  <r_i_glide_ecoul>  (1) 
-2.1095072800676009

>  <r_i_glide_eff_state_penalty>  (1) 
0.0074413665043451364

>  <r_i_glide_einternal>  (1) 
29.720591883579143

>  <r_i_glide_emodel>  (1) 
-53.795260607732359

>  <r_i_glide_emodel_strain>  (1) 
0.79264757538153674

>  <r_i_glide_energy>  (1) 
-49.793935333938343

>  <r_i_glide_erotb>  (1) 
0.6601858334746602

>  <r_i_glide_esite>  (1) 
-0.048195686291978894

>  <r_i_glide_evdw>  (1) 
-47.684428053870739

>  <r_i_glide_gscore>  (1) 
-8.2112983825809653

>  <r_i_glide_gscore_strain>  (1) 
0

>  <r_i_glide_hbond>  (1) 
-0.45599999999999996

>  <r_i_glide_ligand_efficiency>  (1) 
-0.23439591474504629

>  <r_i_glide_ligand_efficiency_ln>  (1) 
-1.8009286898253596

>  <r_i_glide_ligand_efficiency_sa>  (1) 
-0.76672457996835797

>  <r_i_glide_lipo>  (1) 
-4.2160292164824611

>  <r_i_glide_metal>  (1) 
-0

>  <r_i_glide_rewards>  (1) 
-1.4506118185775101

>  <r_lp_Energy>  (1) 
21.219953

>  <s_epik_Chemistry_Notes>  (1) 
This compound contains an acetal/aminal-like group ( X-CH(R)-Y where X, Y are N, S, or O) that may be acid/base labile, releasing an aldehyde.

>  <s_epik_cmdline>  (1) 
J2VwaWtfcHl0aG9uJywgJy1waHQnLCAnMS4wJywgJy1waCcsICc3LjQnLCAnLXRuJywgJzgnLCAnLW1hJywgJzUwMCcsICctaW1hZScsICc8aW5maWxlLm1hZT4nLCAnLW9tYWUnLCAnPG91dGZpbGUubWFlPic=

>  <s_epik_input>  (1) 
W0NIMl0xW0NIXT1DKEYpW0NIXT1bQ0hdW0NIXT1DMVtDQEBIXShDbClbQ0gyXVtDSDJdW0NIMl1bQ0gyXVtDSDJdW0NAQEhdMltDQEBIXShbQ0gyXVtDSDJdW09IXSlOKFtDSDJdW0NASF0oW09IXSlbQ0BASF0yW09IXSlbQ0BASF0zW0NIMl1bQ0BIXShDKD1PKVMzKUMoPU8pW05IMl0=

>  <s_glide_docking_method>  (1) 
confgen

>  <s_i_glide_gridfile>  (1) 
gpcr_5ht2c_6bqh_protein_autoprepared_prepared

>  <s_lp_Force_Field>  (1) 
S-OPLS

>  <s_lp_Variant>  (1) 
DiffSBDD_59-1

>  <s_m_source_file>  (1) 
generated_GPCR_5HT2C_ligand_DiffSBDD_2026-06-23_prepared.sdf

>  <GenAI_Model>  (1) 
DiffSBDD

>  <Protein>  (1) 
GPCR_5HT2C

$$$$
DiffSBDD_44
     RDKit          3D

  0  0  0  0  0  0  0  0  0  0999 V3000
M  V30 BEGIN CTAB
M  V30 COUNTS 72 74 0 0 1
M  V30 BEGIN ATOM
M  V30 1 C 38.865522 28.171146 52.288975 0 CFG=1
M  V30 2 O 38.525171 27.696428 55.128872 0
M  V30 3 C 39.221792 33.410683 59.920780 0
M  V30 4 C 36.735372 32.962033 60.581232 0
M  V30 5 C 37.114694 35.554428 60.350026 0
M  V30 6 C 39.215277 29.326193 57.367500 0
M  V30 7 C 38.442914 31.059536 55.830536 0
M  V30 8 C 38.994213 28.798170 54.839465 0
M  V30 9 C 37.523733 29.955710 59.291082 0
M  V30 10 C 35.376774 34.295775 58.881049 0
M  V30 11 O 39.702572 30.300319 53.080572 0
M  V30 12 N 37.645137 31.057873 57.061098 0 CHG=1
M  V30 13 C 37.884038 35.631178 61.655059 0 CFG=2
M  V30 14 C 38.347612 31.021265 60.055787 0
M  V30 15 C 37.245151 36.496929 59.399804 0
M  V30 16 C 38.133457 36.937782 63.753478 0
M  V30 17 C 37.980478 32.510931 59.793415 0 CFG=2
M  V30 18 C 37.522757 36.935336 62.371058 0
M  V30 19 C 41.645098 35.550839 63.025941 0
M  V30 20 C 39.643097 36.921152 63.664612 0
M  V30 21 C 39.471330 28.501477 50.914962 0
M  V30 22 C 36.146254 34.355144 60.210960 0 CFG=1
M  V30 23 C 37.815451 29.796873 57.778904 0 CFG=1
M  V30 24 C 39.421550 35.290372 61.668501 0 CFG=2
M  V30 25 C 39.234490 29.196759 53.365488 0
M  V30 26 C 39.367117 29.829238 55.913833 0 CFG=2
M  V30 27 C 39.663674 33.793757 61.328044 0
M  V30 28 O 37.462015 28.137763 52.172743 0
M  V30 29 C 40.103123 35.590003 63.052592 0 CFG=1
M  V30 30 O 42.180406 35.737754 64.321452 0
M  V30 31 H 39.211914 27.188742 52.611406 0
M  V30 32 H 40.045025 32.937785 59.403914 0
M  V30 33 H 39.076763 34.323652 59.367237 0
M  V30 34 H 36.929258 32.880536 61.649358 0
M  V30 35 H 35.945573 32.228314 60.418307 0
M  V30 36 H 39.987549 29.790353 57.978291 0
M  V30 37 H 39.336523 28.248377 57.483033 0
M  V30 38 H 39.019671 31.983421 55.773308 0
M  V30 39 H 37.764012 31.049643 54.975574 0
M  V30 40 H 37.697771 28.987286 59.761338 0
M  V30 41 H 36.460627 30.154348 59.431623 0
M  V30 42 H 34.819843 35.212646 58.692125 0
M  V30 43 H 36.050347 34.136767 58.040738 0
M  V30 44 H 34.650663 33.482912 58.883946 0
M  V30 45 H 36.648603 31.317236 56.929592 0
M  V30 46 H 37.405438 34.833533 62.167772 0
M  V30 47 H 39.402193 30.844337 59.854884 0
M  V30 48 H 38.246659 30.831950 61.125143 0
M  V30 49 H 36.685975 36.450818 58.488891 0
M  V30 50 H 37.918631 37.329708 59.532469 0
M  V30 51 H 37.766888 36.137752 64.351883 0
M  V30 52 H 37.779672 37.737774 64.343696 0
M  V30 53 H 37.692694 32.657593 58.765877 0
M  V30 54 H 36.440047 37.029788 62.454623 0
M  V30 55 H 37.874543 37.802803 61.811359 0
M  V30 56 H 42.044652 36.307399 62.351676 0
M  V30 57 H 42.013336 34.584842 62.691698 0
M  V30 58 H 40.043234 37.046827 64.670783 0
M  V30 59 H 40.003890 37.765714 63.076328 0
M  V30 60 H 40.559251 28.552542 50.967667 0
M  V30 61 H 39.215963 27.741261 50.176797 0
M  V30 62 H 39.113023 29.461634 50.541127 0
M  V30 63 H 35.382267 34.537717 60.966464 0
M  V30 64 H 37.090916 29.094467 57.365466 0
M  V30 65 H 39.911197 35.917461 60.922198 0
M  V30 66 H 40.401068 30.119509 55.725575 0
M  V30 67 H 39.200632 33.144724 62.071268 0
M  V30 68 H 40.725342 33.564070 61.378155 0
M  V30 69 H 37.206199 27.421653 51.602401 0
M  V30 70 H 39.792370 34.805558 63.739601 0
M  V30 71 H 42.065750 36.654247 64.567775 0
M  V30 72 H 38.033803 31.773891 57.653642 0
M  V30 END ATOM
M  V30 BEGIN BOND
M  V30 1 2 8 2
M  V30 2 1 12 7
M  V30 3 1 13 5
M  V30 4 1 14 9
M  V30 5 2 15 5
M  V30 6 1 17 3
M  V30 7 1 17 4
M  V30 8 1 17 14
M  V30 9 1 18 13
M  V30 10 1 18 16
M  V30 11 1 20 16
M  V30 12 1 21 1
M  V30 13 1 22 4
M  V30 14 1 22 5
M  V30 15 1 22 10
M  V30 16 1 23 6
M  V30 17 1 23 9
M  V30 18 1 23 12
M  V30 19 1 24 13
M  V30 20 1 25 1
M  V30 21 1 25 8
M  V30 22 2 25 11
M  V30 23 1 26 6
M  V30 24 1 26 7
M  V30 25 1 26 8
M  V30 26 1 27 3
M  V30 27 1 27 24
M  V30 28 1 28 1
M  V30 29 1 29 19
M  V30 30 1 29 20
M  V30 31 1 29 24
M  V30 32 1 30 19
M  V30 33 1 1 31 CFG=1
M  V30 34 1 32 3
M  V30 35 1 33 3
M  V30 36 1 34 4
M  V30 37 1 35 4
M  V30 38 1 36 6
M  V30 39 1 37 6
M  V30 40 1 38 7
M  V30 41 1 39 7
M  V30 42 1 40 9
M  V30 43 1 41 9
M  V30 44 1 42 10
M  V30 45 1 43 10
M  V30 46 1 44 10
M  V30 47 1 45 12
M  V30 48 1 13 46 CFG=1
M  V30 49 1 47 14
M  V30 50 1 48 14
M  V30 51 1 49 15
M  V30 52 1 50 15
M  V30 53 1 51 16
M  V30 54 1 52 16
M  V30 55 1 17 53 CFG=3
M  V30 56 1 54 18
M  V30 57 1 55 18
M  V30 58 1 56 19
M  V30 59 1 57 19
M  V30 60 1 58 20
M  V30 61 1 59 20
M  V30 62 1 60 21
M  V30 63 1 61 21
M  V30 64 1 62 21
M  V30 65 1 22 63 CFG=1
M  V30 66 1 23 64 CFG=3
M  V30 67 1 24 65 CFG=3
M  V30 68 1 26 66 CFG=3
M  V30 69 1 67 27
M  V30 70 1 68 27
M  V30 71 1 69 28
M  V30 72 1 29 70 CFG=1
M  V30 73 1 71 30
M  V30 74 1 72 12
M  V30 END BOND
M  V30 END CTAB
M  END
>  <i_epik_Tot_Q>  (1) 
1

>  <i_epik_Tot_abs_Q>  (1) 
1

>  <i_i_glide_confnum>  (1) 
79

>  <i_i_glide_lignum>  (1) 
97

>  <i_i_glide_posenum>  (1) 
303

>  <i_i_glide_rotatable_bonds>  (1) 
9

>  <i_lp_mmshare_version>  (1) 
72125

>  <i_m_source_file_index>  (1) 
45

>  <i_f3d_flags>  (1) 
0

>  <num_sample>  (1) 
100

>  <b_lp_Chiralities_Consistent>  (1) 
1

>  <r_epik_Charging_Adjusted_Penalty>  (1) 
0.0074455109037498855

>  <r_epik_Ionization_Penalty>  (1) 
0.0074458693978643794

>  <r_epik_Ionization_Penalty_Charging>  (1) 
0.0018801258091055938

>  <r_epik_Ionization_Penalty_Neutral>  (1) 
0.0055657435887587854

>  <r_epik_State_Penalty>  (1) 
0.0055653850946442915

>  <r_glide_ring_energy>  (1) 
0

>  <r_i_docking_score>  (1) 
-8.193200495104989

>  <r_i_glide_ecoul>  (1) 
-14.063970792700935

>  <r_i_glide_eff_state_penalty>  (1) 
0.0055653850946442915

>  <r_i_glide_einternal>  (1) 
7.3514912152337697

>  <r_i_glide_emodel>  (1) 
-56.567764283437405

>  <r_i_glide_emodel_strain>  (1) 
0.74122847351792132

>  <r_i_glide_energy>  (1) 
-45.41141323933887

>  <r_i_glide_erotb>  (1) 
0.78317259644861148

>  <r_i_glide_esite>  (1) 
-0.10000000000000001

>  <r_i_glide_evdw>  (1) 
-31.347442446637938

>  <r_i_glide_gscore>  (1) 
-8.1987658801996339

>  <r_i_glide_gscore_strain>  (1) 
0

>  <r_i_glide_hbond>  (1) 
-0.71572209568645029

>  <r_i_glide_ligand_efficiency>  (1) 
-0.27310668317016629

>  <r_i_glide_ligand_efficiency_ln>  (1) 
-1.8615844245573794

>  <r_i_glide_ligand_efficiency_sa>  (1) 
-0.84860596353958251

>  <r_i_glide_lipo>  (1) 
-2.8335423146930903

>  <r_i_glide_metal>  (1) 
-0

>  <r_i_glide_rewards>  (1) 
-1.6557063250316673

>  <r_lp_Energy>  (1) 
44.150161999999995

>  <s_epik_cmdline>  (1) 
J2VwaWtfcHl0aG9uJywgJy1waHQnLCAnMS4wJywgJy1waCcsICc3LjQnLCAnLXRuJywgJzgnLCAnLW1hJywgJzUwMCcsICctaW1hZScsICc8aW5maWxlLm1hZT4nLCAnLW9tYWUnLCAnPG91dGZpbGUubWFlPic=

>  <s_epik_input>  (1) 
W0NIM11bQ0BIXShbT0hdKUMoPU8pQyg9TylbQ0BASF0oW0NIMl1bTkhdMSlbQ0gyXVtDQEhdMVtDSDJdW0NIMl1bQ0BASF0oW0NIMl1bQ0BIXShbQ0gzXSlDMj1bQ0gyXSlbQ0gyXVtDSDJdW0NAQEhdKFtDQEhdMjMpW0NAQEhdKFtDSDJdW09IXSlbQ0gyXVtDSDJdW0NIMl0z

>  <s_glide_docking_method>  (1) 
confgen

>  <s_i_glide_gridfile>  (1) 
gpcr_5ht2c_6bqh_protein_autoprepared_prepared

>  <s_lp_Force_Field>  (1) 
S-OPLS

>  <s_lp_Variant>  (1) 
DiffSBDD_44-1

>  <s_m_source_file>  (1) 
generated_GPCR_5HT2C_ligand_DiffSBDD_2026-06-23_prepared.sdf

>  <GenAI_Model>  (1) 
DiffSBDD

>  <Protein>  (1) 
GPCR_5HT2C

$$$$
DiffSBDD_56
     RDKit          3D

  0  0  0  0  0  0  0  0  0  0999 V3000
M  V30 BEGIN CTAB
M  V30 COUNTS 72 77 0 0 1
M  V30 BEGIN ATOM
M  V30 1 C 37.674087 34.238645 61.275646 0 CFG=1
M  V30 2 C 40.718511 36.099117 62.571535 0
M  V30 3 C 39.801188 33.731792 62.336628 0
M  V30 4 C 38.083634 26.047253 57.318219 0
M  V30 5 C 35.465488 32.971951 60.869828 0
M  V30 6 C 37.546854 37.061484 62.089315 0
M  V30 7 C 39.989182 35.088726 61.639865 0 CFG=1
M  V30 8 C 36.497820 33.970353 60.302775 0
M  V30 9 C 36.203279 39.077849 61.767764 0
M  V30 10 C 38.114900 26.358485 55.964168 0
M  V30 11 C 39.483278 29.701695 55.903557 0
M  V30 12 C 38.523396 26.979210 58.274746 0
M  V30 13 C 38.616824 37.686876 61.368364 0
M  V30 14 C 35.597226 31.501683 60.418135 0
M  V30 15 C 38.605752 27.635101 55.542634 0
M  V30 16 C 38.467452 39.033837 60.967755 0
M  V30 17 N 37.897587 36.638707 60.804886 0
M  V30 18 N 37.969259 31.485788 59.861208 0
M  V30 19 F 37.102867 40.937751 60.582754 0
M  V30 20 C 38.575072 33.062069 61.709985 0 CFG=2
M  V30 21 C 37.245144 39.682805 61.069259 0
M  V30 22 C 38.412401 27.693498 52.990115 0
M  V30 23 F 35.052744 39.737735 61.958680 0
M  V30 24 C 38.384412 30.800637 58.655536 0
M  V30 25 C 38.987208 28.198547 57.878900 0
M  V30 26 C 38.637934 35.363005 60.864636 0 CFG=2
M  V30 27 C 36.398764 37.828242 62.364701 0
M  V30 28 S 39.503402 29.410081 59.035218 0
M  V30 29 C 38.756860 28.240623 54.323430 0
M  V30 30 C 39.292440 29.504390 54.571753 0
M  V30 31 C 36.948793 30.797968 60.635096 0
M  V30 32 O 37.674266 25.455265 55.014623 0
M  V30 33 N 39.044692 28.536642 56.559876 0
M  V30 34 C 39.053946 32.123006 60.589750 0
M  V30 35 C 40.044996 36.401017 63.926280 0
M  V30 36 C 37.319109 24.147278 55.425949 0
M  V30 37 O 37.011256 27.737761 52.967765 0
M  V30 38 H 37.170009 34.577727 62.167754 0
M  V30 39 H 41.709831 35.700606 62.790410 0
M  V30 40 H 40.937590 37.019687 62.036126 0
M  V30 41 H 40.699517 33.118137 62.264363 0
M  V30 42 H 39.627714 33.864142 63.398307 0
M  V30 43 H 37.710921 25.085821 57.647737 0
M  V30 44 H 34.475964 33.309970 60.560074 0
M  V30 45 H 35.451711 33.034530 61.954295 0
M  V30 46 H 40.709739 34.918320 60.838945 0
M  V30 47 H 35.974202 34.913719 60.145762 0
M  V30 48 H 36.833470 33.687384 59.305379 0
M  V30 49 H 39.874353 30.533001 56.464547 0
M  V30 50 H 38.484950 26.735871 59.331393 0
M  V30 51 H 34.845222 30.937827 60.967726 0
M  V30 52 H 35.322972 31.431916 59.365527 0
M  V30 53 H 39.319569 39.566838 60.572052 0
M  V30 54 H 38.070468 32.486344 62.483138 0
M  V30 55 H 38.825328 28.289131 52.175912 0
M  V30 56 H 38.762378 26.667908 52.872331 0
M  V30 57 H 37.501549 30.445499 58.119814 0
M  V30 58 H 38.876834 31.525194 58.009324 0
M  V30 59 H 38.870987 35.154177 59.821936 0
M  V30 60 H 35.653929 37.441787 63.043915 0
M  V30 61 H 39.519989 30.215462 53.790430 0
M  V30 62 H 37.208243 30.734344 61.689638 0
M  V30 63 H 36.867154 29.769633 60.279565 0
M  V30 64 H 39.648272 32.696136 59.879065 0
M  V30 65 H 39.707316 31.359983 61.013520 0
M  V30 66 H 40.045129 37.468276 64.142921 0
M  V30 67 H 40.565517 35.896727 64.740750 0
M  V30 68 H 39.007883 36.079055 63.962902 0
M  V30 69 H 37.172252 23.496363 54.567769 0
M  V30 70 H 36.397255 24.147780 56.008485 0
M  V30 71 H 38.132141 23.737739 56.018315 0
M  V30 72 H 36.726800 27.149776 52.277030 0
M  V30 END ATOM
M  V30 BEGIN BOND
M  V30 1 1 7 2
M  V30 2 1 7 3
M  V30 3 1 8 1
M  V30 4 1 8 5
M  V30 5 2 10 4
M  V30 6 1 12 4
M  V30 7 2 13 6
M  V30 8 1 14 5
M  V30 9 1 15 10
M  V30 10 1 16 13
M  V30 11 1 17 6
M  V30 12 1 17 13
M  V30 13 1 20 1
M  V30 14 1 20 3
M  V30 15 1 21 9
M  V30 16 2 21 16
M  V30 17 1 21 19
M  V30 18 1 23 9
M  V30 19 1 24 18
M  V30 20 2 25 12
M  V30 21 1 26 1
M  V30 22 1 26 7
M  V30 23 1 26 17
M  V30 24 1 27 6
M  V30 25 2 27 9
M  V30 26 1 28 24
M  V30 27 1 28 25
M  V30 28 2 29 15
M  V30 29 1 29 22
M  V30 30 2 30 11
M  V30 31 1 30 29
M  V30 32 1 31 14
M  V30 33 1 31 18
M  V30 34 1 32 10
M  V30 35 1 33 11
M  V30 36 1 33 15
M  V30 37 1 33 25
M  V30 38 1 34 18
M  V30 39 1 34 20
M  V30 40 1 35 2
M  V30 41 1 36 32
M  V30 42 1 37 22
M  V30 43 1 1 38 CFG=1
M  V30 44 1 39 2
M  V30 45 1 40 2
M  V30 46 1 41 3
M  V30 47 1 42 3
M  V30 48 1 43 4
M  V30 49 1 44 5
M  V30 50 1 45 5
M  V30 51 1 7 46 CFG=3
M  V30 52 1 47 8
M  V30 53 1 48 8
M  V30 54 1 49 11
M  V30 55 1 50 12
M  V30 56 1 51 14
M  V30 57 1 52 14
M  V30 58 1 53 16
M  V30 59 1 20 54 CFG=1
M  V30 60 1 55 22
M  V30 61 1 56 22
M  V30 62 1 57 24
M  V30 63 1 58 24
M  V30 64 1 26 59 CFG=3
M  V30 65 1 60 27
M  V30 66 1 61 30
M  V30 67 1 62 31
M  V30 68 1 63 31
M  V30 69 1 64 34
M  V30 70 1 65 34
M  V30 71 1 66 35
M  V30 72 1 67 35
M  V30 73 1 68 35
M  V30 74 1 69 36
M  V30 75 1 70 36
M  V30 76 1 71 36
M  V30 77 1 72 37
M  V30 END BOND
M  V30 END CTAB
M  END
>  <i_epik_Tot_Q>  (1) 
0

>  <i_epik_Tot_abs_Q>  (1) 
0

>  <i_i_glide_confnum>  (1) 
519

>  <i_i_glide_lignum>  (1) 
122

>  <i_i_glide_posenum>  (1) 
11

>  <i_i_glide_rotatable_bonds>  (1) 
8

>  <i_lp_mmshare_version>  (1) 
72125

>  <i_m_source_file_index>  (1) 
57

>  <i_f3d_flags>  (1) 
0

>  <num_sample>  (1) 
100

>  <b_lp_Chiralities_Consistent>  (1) 
1

>  <r_epik_Charging_Adjusted_Penalty>  (1) 
0.12519281595075751

>  <r_epik_Ionization_Penalty>  (1) 
0.12878356589467399

>  <r_epik_Ionization_Penalty_Charging>  (1) 
0

>  <r_epik_Ionization_Penalty_Neutral>  (1) 
0.12878356589467399

>  <r_epik_State_Penalty>  (1) 
0.12519281595075751

>  <r_glide_ring_energy>  (1) 
0

>  <r_i_docking_score>  (1) 
-8.1842515274670795

>  <r_i_glide_ecoul>  (1) 
-2.3900404086841278

>  <r_i_glide_eff_state_penalty>  (1) 
0.12519281595075751

>  <r_i_glide_einternal>  (1) 
7.554075226730987

>  <r_i_glide_emodel>  (1) 
-51.761639923041344

>  <r_i_glide_emodel_strain>  (1) 
1.1716921301679122

>  <r_i_glide_energy>  (1) 
-39.603568664187769

>  <r_i_glide_erotb>  (1) 
0.36984873200181739

>  <r_i_glide_esite>  (1) 
-0.047519196533777501

>  <r_i_glide_evdw>  (1) 
-37.21352825550364

>  <r_i_glide_gscore>  (1) 
-8.3094443434178373

>  <r_i_glide_gscore_strain>  (1) 
0

>  <r_i_glide_hbond>  (1) 
-0.32000000000000001

>  <r_i_glide_ligand_efficiency>  (1) 
-0.22119598722883999

>  <r_i_glide_ligand_efficiency_ln>  (1) 
-1.7749722902296596

>  <r_i_glide_ligand_efficiency_sa>  (1) 
-0.73707410214033986

>  <r_i_glide_lipo>  (1) 
-4.8146964220690345

>  <r_i_glide_metal>  (1) 
-0

>  <r_i_glide_rewards>  (1) 
-1.277894982739042

>  <r_lp_Energy>  (1) 
101.182165

>  <s_epik_Chemistry_Notes>  (1) 
This compound contains an acetal/aminal-like group ( X-CH(R)-Y where X, Y are N, S, or O) that may be acid/base labile, releasing an aldehyde.

>  <s_epik_cmdline>  (1) 
J2VwaWtfcHl0aG9uJywgJy1waHQnLCAnMS4wJywgJy1waCcsICc3LjQnLCAnLXRuJywgJzgnLCAnLW1hJywgJzUwMCcsICctaW1hZScsICc8aW5maWxlLm1hZT4nLCAnLW9tYWUnLCAnPG91dGZpbGUubWFlPic=

>  <s_epik_input>  (1) 
RmMoW2NIXTEpYyhGKVtjSF1jKGMxMilOMltDQEhdM1tDQEBIXShbQ0gyXVtDSDNdKVtDSDJdW0NAQEhdKFtDQEBIXTM0KVtDSDJdTihbQ0gyXVtDSDJdW0NIMl1bQ0gyXTQpW0NIMl1TYyhbY0hdW2NIXWM1T1tDSDNdKW4oYzU2KVtjSF1bY0hdYzZbQ0gyXVtPSF0=

>  <s_glide_docking_method>  (1) 
confgen

>  <s_i_glide_gridfile>  (1) 
gpcr_5ht2c_6bqh_protein_autoprepared_prepared

>  <s_lp_Force_Field>  (1) 
S-OPLS

>  <s_lp_Variant>  (1) 
DiffSBDD_56-1

>  <s_m_source_file>  (1) 
generated_GPCR_5HT2C_ligand_DiffSBDD_2026-06-23_prepared.sdf

>  <GenAI_Model>  (1) 
DiffSBDD

>  <Protein>  (1) 
GPCR_5HT2C

$$$$
DiffSBDD_16
     RDKit          3D

  0  0  0  0  0  0  0  0  0  0999 V3000
M  V30 BEGIN CTAB
M  V30 COUNTS 70 74 0 0 1
M  V30 BEGIN ATOM
M  V30 1 C 40.122085 31.227053 61.522791 0
M  V30 2 C 38.829732 28.774492 54.807044 0
M  V30 3 C 38.137332 32.962794 58.018871 0 CFG=1
M  V30 4 C 37.892791 33.782465 56.763615 0
M  V30 5 C 40.903007 29.118507 62.488965 0
M  V30 6 C 40.150618 28.407382 61.545902 0
M  V30 7 C 38.338390 36.068794 60.995032 0
M  V30 8 C 37.163384 35.982019 61.969462 0
M  V30 9 C 37.327029 33.566285 59.160713 0
M  V30 10 C 39.398459 29.088443 60.583554 0
M  V30 11 O 40.554932 35.471458 61.600856 0
M  V30 12 C 38.667041 31.168846 54.145318 0
M  V30 13 C 38.584263 31.731218 55.382113 0
M  V30 14 C 38.519655 30.941077 56.706883 0
M  V30 15 C 38.743800 29.734508 53.824851 0
M  V30 16 C 40.896089 30.525892 62.474727 0
M  V30 17 N 38.935872 27.634374 53.956748 0
M  V30 18 C 40.037537 27.703080 50.580445 0
M  V30 19 N 37.659070 31.604693 57.711517 0 CHG=1
M  V30 20 C 40.046838 29.184999 50.453462 0
M  V30 21 C 41.718304 28.367926 63.522029 0
M  V30 22 C 36.126315 34.886986 61.667523 0
M  V30 23 C 35.358401 32.528561 61.366406 0
M  V30 24 C 36.598791 33.432602 61.611636 0 CFG=1
M  V30 25 C 40.135954 32.718271 61.550675 0
M  V30 26 C 37.734786 33.168243 60.604989 0 CFG=2
M  V30 27 C 39.446190 35.051871 61.265965 0
M  V30 28 C 38.739083 29.318387 52.391900 0 CFG=2
M  V30 29 C 39.153780 33.580657 61.129041 0
M  V30 30 C 39.066755 27.981099 52.769048 0
M  V30 31 N 39.644131 29.948046 51.400797 0
M  V30 32 C 39.382637 30.489913 60.567157 0
M  V30 33 C 38.582463 33.245381 55.523908 0
M  V30 34 C 39.586697 27.129587 51.708991 0
M  V30 35 H 38.899495 27.922614 55.469015 0
M  V30 36 H 39.201801 32.961789 58.263986 0
M  V30 37 H 38.045152 34.851145 56.893064 0
M  V30 38 H 36.845190 33.737898 56.569283 0
M  V30 39 H 40.157614 27.338293 61.555708 0
M  V30 40 H 38.807978 37.037205 61.182153 0
M  V30 41 H 38.053287 36.133990 59.954536 0
M  V30 42 H 37.563009 35.884287 62.968232 0
M  V30 43 H 36.651924 36.947084 61.968667 0
M  V30 44 H 37.286893 34.641079 59.040414 0
M  V30 45 H 36.292530 33.278057 58.979845 0
M  V30 46 H 38.834507 28.532129 59.848573 0
M  V30 47 H 38.703788 31.850579 53.306763 0
M  V30 48 H 38.072338 29.955365 56.669340 0
M  V30 49 H 39.534255 30.860065 57.094301 0
M  V30 50 H 41.474633 31.073464 63.203991 0
M  V30 51 H 40.445126 27.131722 49.767897 0
M  V30 52 H 37.628943 31.046195 58.550146 0
M  V30 53 H 40.448383 29.580071 49.513555 0
M  V30 54 H 42.162783 29.047664 64.246067 0
M  V30 55 H 41.080706 27.668019 64.062497 0
M  V30 56 H 42.507494 27.787737 63.042587 0
M  V30 57 H 35.356869 34.935894 62.443200 0
M  V30 58 H 35.646911 35.117147 60.712640 0
M  V30 59 H 34.822043 32.776967 60.448225 0
M  V30 60 H 35.627712 31.471432 61.329962 0
M  V30 61 H 34.629645 32.637429 62.167257 0
M  V30 62 H 36.989239 33.110294 62.566105 0
M  V30 63 H 41.037508 33.149479 61.964765 0
M  V30 64 H 37.633222 32.112185 60.682897 0
M  V30 65 H 37.711408 29.320941 52.037250 0
M  V30 66 H 38.838227 30.986795 59.802127 0
M  V30 67 H 39.610125 33.594191 55.488451 0
M  V30 68 H 38.058372 33.668162 54.664727 0
M  V30 69 H 39.610587 26.071294 51.877503 0
M  V30 70 H 36.690202 31.687876 57.345467 0
M  V30 END ATOM
M  V30 BEGIN BOND
M  V30 1 1 4 3
M  V30 2 1 6 5
M  V30 3 1 8 7
M  V30 4 1 9 3
M  V30 5 2 10 6
M  V30 6 2 13 12
M  V30 7 1 14 13
M  V30 8 2 15 2
M  V30 9 1 15 12
M  V30 10 1 16 1
M  V30 11 2 16 5
M  V30 12 1 17 2
M  V30 13 1 19 3
M  V30 14 1 19 14
M  V30 15 1 20 18
M  V30 16 1 21 5
M  V30 17 1 22 8
M  V30 18 1 24 22
M  V30 19 1 24 23
M  V30 20 1 25 1
M  V30 21 1 26 9
M  V30 22 1 26 24
M  V30 23 1 27 7
M  V30 24 2 27 11
M  V30 25 1 28 15
M  V30 26 2 29 25
M  V30 27 1 29 26
M  V30 28 1 29 27
M  V30 29 2 30 17
M  V30 30 1 30 28
M  V30 31 2 31 20
M  V30 32 1 31 28
M  V30 33 2 32 1
M  V30 34 1 32 10
M  V30 35 1 33 4
M  V30 36 1 33 13
M  V30 37 2 34 18
M  V30 38 1 34 30
M  V30 39 1 35 2
M  V30 40 1 3 36 CFG=1
M  V30 41 1 37 4
M  V30 42 1 38 4
M  V30 43 1 39 6
M  V30 44 1 40 7
M  V30 45 1 41 7
M  V30 46 1 42 8
M  V30 47 1 43 8
M  V30 48 1 44 9
M  V30 49 1 45 9
M  V30 50 1 46 10
M  V30 51 1 47 12
M  V30 52 1 48 14
M  V30 53 1 49 14
M  V30 54 1 50 16
M  V30 55 1 51 18
M  V30 56 1 52 19
M  V30 57 1 53 20
M  V30 58 1 54 21
M  V30 59 1 55 21
M  V30 60 1 56 21
M  V30 61 1 57 22
M  V30 62 1 58 22
M  V30 63 1 59 23
M  V30 64 1 60 23
M  V30 65 1 61 23
M  V30 66 1 24 62 CFG=1
M  V30 67 1 63 25
M  V30 68 1 26 64 CFG=3
M  V30 69 1 28 65 CFG=3
M  V30 70 1 66 32
M  V30 71 1 67 33
M  V30 72 1 68 33
M  V30 73 1 69 34
M  V30 74 1 70 19
M  V30 END BOND
M  V30 END CTAB
M  END
>  <i_epik_Tot_Q>  (1) 
1

>  <i_epik_Tot_abs_Q>  (1) 
1

>  <i_i_glide_confnum>  (1) 
16

>  <i_i_glide_lignum>  (1) 
35

>  <i_i_glide_posenum>  (1) 
274

>  <i_i_glide_rotatable_bonds>  (1) 
4

>  <i_lp_mmshare_version>  (1) 
72125

>  <i_m_source_file_index>  (1) 
17

>  <i_f3d_flags>  (1) 
0

>  <num_sample>  (1) 
100

>  <b_lp_Chiralities_Consistent>  (1) 
1

>  <r_epik_Charging_Adjusted_Penalty>  (1) 
0.57808156404405586

>  <r_epik_Ionization_Penalty>  (1) 
0.28904078202202793

>  <r_epik_Ionization_Penalty_Charging>  (1) 
0.28904078202202793

>  <r_epik_Ionization_Penalty_Neutral>  (1) 
0

>  <r_epik_State_Penalty>  (1) 
0.28904078202202793

>  <r_glide_ring_energy>  (1) 
0

>  <r_i_docking_score>  (1) 
-8.1720738880600745

>  <r_i_glide_ecoul>  (1) 
-6.8941904353643029

>  <r_i_glide_eff_state_penalty>  (1) 
0.28904078202202793

>  <r_i_glide_einternal>  (1) 
14.775012489828192

>  <r_i_glide_emodel>  (1) 
-46.463903862331662

>  <r_i_glide_emodel_strain>  (1) 
1.8473704684237191

>  <r_i_glide_energy>  (1) 
-43.160518231948039

>  <r_i_glide_erotb>  (1) 
0.29147875755417113

>  <r_i_glide_esite>  (1) 
-0.10000000000000001

>  <r_i_glide_evdw>  (1) 
-36.266327796583738

>  <r_i_glide_gscore>  (1) 
-8.4611146700821021

>  <r_i_glide_gscore_strain>  (1) 
0

>  <r_i_glide_hbond>  (1) 
-0.14817131994332461

>  <r_i_glide_ligand_efficiency>  (1) 
-0.24035511435470808

>  <r_i_glide_ligand_efficiency_ln>  (1) 
-1.8054403407808688

>  <r_i_glide_ligand_efficiency_sa>  (1) 
-0.77865726496091137

>  <r_i_glide_lipo>  (1) 
-3.3369746118661308

>  <r_i_glide_metal>  (1) 
-0

>  <r_i_glide_rewards>  (1) 
-2.3200025406929852

>  <r_lp_Energy>  (1) 
58.685900999999994

>  <s_epik_Chemistry_Notes>  (1) 
This compound has an imine and may undergo hydrolysis.

>  <s_epik_cmdline>  (1) 
J2VwaWtfcHl0aG9uJywgJy1waHQnLCAnMS4wJywgJy1waCcsICc3LjQnLCAnLXRuJywgJzgnLCAnLW1hJywgJzUwMCcsICctaW1hZScsICc8aW5maWxlLm1hZT4nLCAnLW9tYWUnLCAnPG91dGZpbGUubWFlPic=

>  <s_epik_input>  (1) 
W2NIXTFbY0hdW2NIXWMoW0NIM10pW2NIXWMxL1tDSF09QyhDKD1PKVtDSDJdW0NIMl1bQ0gyXVtDQEhdMltDSDNdKVxbQ0BASF0yW0NIMl1bQ0BASF0zW0NIMl1bQ0gyXUMoXFtDSDJdW05IXTMpPVtDSF1cQzQ9W0NIXU49QyhbQ0BASF00NSlbQ0hdPVtDSF1bQ0hdPU41

>  <s_glide_docking_method>  (1) 
confgen

>  <s_i_glide_gridfile>  (1) 
gpcr_5ht2c_6bqh_protein_autoprepared_prepared

>  <s_lp_Force_Field>  (1) 
S-OPLS

>  <s_lp_Variant>  (1) 
DiffSBDD_16-3

>  <s_m_source_file>  (1) 
generated_GPCR_5HT2C_ligand_DiffSBDD_2026-06-23_prepared.sdf

>  <GenAI_Model>  (1) 
DiffSBDD

>  <Protein>  (1) 
GPCR_5HT2C

$$$$
DiffSBDD_66
     RDKit          3D

  0  0  0  0  0  0  0  0  0  0999 V3000
M  V30 BEGIN CTAB
M  V30 COUNTS 63 66 0 0 1
M  V30 BEGIN ATOM
M  V30 1 C 38.220724 29.474217 58.747098 0
M  V30 2 C 37.955326 30.617825 57.634658 0
M  V30 3 C 37.853709 26.595660 56.914756 0 CFG=2
M  V30 4 N 40.461520 30.344216 62.403068 0
M  V30 5 O 40.250329 36.913025 61.767755 0
M  V30 6 O 39.645137 24.969607 57.112539 0
M  V30 7 O 37.155556 25.794945 55.978317 0
M  V30 8 C 39.399700 34.679214 61.566400 0
M  V30 9 C 39.460898 28.541039 57.028752 0
M  V30 10 C 38.429016 28.227778 54.976060 0
M  V30 11 N 39.386295 28.664591 58.357568 0
M  V30 12 C 38.045054 27.848250 52.481903 0
M  V30 13 C 40.416036 32.881556 62.897548 0
M  V30 14 N 40.505734 30.494318 61.055345 0
M  V30 15 C 39.627257 27.735887 50.567745 0
M  V30 16 C 38.691549 27.741478 56.286657 0
M  V30 17 C 38.071777 29.729663 54.868352 0 CFG=1
M  V30 18 C 37.344333 30.320920 56.165235 0
M  V30 19 C 39.647566 30.320396 53.099919 0
M  V30 20 C 40.509839 29.233220 60.593251 0
M  V30 21 C 40.603985 28.966354 59.109828 0
M  V30 22 C 38.622654 25.621878 57.830327 0
M  V30 23 C 40.452665 28.279797 61.644082 0
M  V30 24 C 41.245182 35.176951 63.076906 0
M  V30 25 C 39.163684 30.580230 54.280641 0
M  V30 26 C 40.489581 31.441191 63.365691 0
M  V30 27 C 39.436503 33.322148 61.948032 0
M  V30 28 O 40.623432 31.153895 64.555981 0
M  V30 29 Cl 38.237431 32.241486 61.313983 0
M  V30 30 C 40.445154 29.029121 62.774502 0
M  V30 31 C 39.907998 29.620146 52.029396 0
M  V30 32 C 38.381836 27.401244 53.904124 0
M  V30 33 C 41.300134 33.827138 63.464557 0
M  V30 34 C 39.224075 28.388075 51.656776 0
M  V30 35 C 40.302383 35.601487 62.129087 0
M  V30 36 H 38.327019 29.939535 59.722398 0
M  V30 37 H 38.857071 31.220473 57.520787 0
M  V30 38 H 37.080843 27.071154 57.516700 0
M  V30 39 H 39.563115 37.099392 61.147546 0
M  V30 40 H 40.211379 25.626133 56.733933 0
M  V30 41 H 36.654877 26.366153 55.416078 0
M  V30 42 H 38.660200 35.015759 60.854621 0
M  V30 43 H 39.988368 29.370219 56.577154 0
M  V30 44 H 37.246485 31.300457 58.104562 0
M  V30 45 H 37.225243 28.561841 52.451570 0
M  V30 46 H 37.645291 26.966674 51.986131 0
M  V30 47 H 40.445106 28.103951 49.971738 0
M  V30 48 H 39.142792 26.824341 50.251920 0
M  V30 49 H 37.340417 28.840075 58.825378 0
M  V30 50 H 37.267749 29.795157 54.138427 0
M  V30 51 H 37.011634 31.280004 55.767784 0
M  V30 52 H 36.440081 29.737758 56.324516 0
M  V30 53 H 41.167475 29.737676 58.602447 0
M  V30 54 H 41.235593 28.085073 58.987071 0
M  V30 55 H 39.058842 26.127344 58.690735 0
M  V30 56 H 37.946293 24.866940 58.233874 0
M  V30 57 H 40.445168 27.214019 61.572193 0
M  V30 58 H 41.929246 35.891431 63.513540 0
M  V30 59 H 39.496908 31.431022 54.857150 0
M  V30 60 H 40.428185 28.731829 63.813582 0
M  V30 61 H 40.691395 29.963276 51.368252 0
M  V30 62 H 38.605905 26.351999 54.030951 0
M  V30 63 H 42.028256 33.511119 64.198478 0
M  V30 END ATOM
M  V30 BEGIN BOND
M  V30 1 1 2 1
M  V30 2 1 7 3
M  V30 3 1 11 1
M  V30 4 1 11 9
M  V30 5 1 14 4
M  V30 6 1 16 3
M  V30 7 2 16 9
M  V30 8 1 16 10
M  V30 9 1 17 10
M  V30 10 1 18 2
M  V30 11 1 18 17
M  V30 12 2 20 14
M  V30 13 1 21 11
M  V30 14 1 21 20
M  V30 15 1 22 3
M  V30 16 1 22 6
M  V30 17 1 23 20
M  V30 18 1 25 17
M  V30 19 2 25 19
M  V30 20 1 26 4
M  V30 21 1 26 13
M  V30 22 1 27 8
M  V30 23 2 27 13
M  V30 24 2 28 26
M  V30 25 1 29 27
M  V30 26 1 30 4
M  V30 27 2 30 23
M  V30 28 2 31 19
M  V30 29 2 32 10
M  V30 30 1 32 12
M  V30 31 1 33 13
M  V30 32 2 33 24
M  V30 33 1 34 12
M  V30 34 2 34 15
M  V30 35 1 34 31
M  V30 36 1 35 5
M  V30 37 2 35 8
M  V30 38 1 35 24
M  V30 39 1 36 1
M  V30 40 1 37 2
M  V30 41 1 3 38 CFG=1
M  V30 42 1 39 5
M  V30 43 1 40 6
M  V30 44 1 41 7
M  V30 45 1 42 8
M  V30 46 1 43 9
M  V30 47 1 44 2
M  V30 48 1 45 12
M  V30 49 1 46 12
M  V30 50 1 47 15
M  V30 51 1 48 15
M  V30 52 1 49 1
M  V30 53 1 17 50 CFG=3
M  V30 54 1 51 18
M  V30 55 1 52 18
M  V30 56 1 53 21
M  V30 57 1 54 21
M  V30 58 1 55 22
M  V30 59 1 56 22
M  V30 60 1 57 23
M  V30 61 1 58 24
M  V30 62 1 59 25
M  V30 63 1 60 30
M  V30 64 1 61 31
M  V30 65 1 62 32
M  V30 66 1 63 33
M  V30 END BOND
M  V30 END CTAB
M  END
>  <i_epik_Tot_Q>  (1) 
0

>  <i_epik_Tot_abs_Q>  (1) 
0

>  <i_i_glide_confnum>  (1) 
165

>  <i_i_glide_lignum>  (1) 
147

>  <i_i_glide_posenum>  (1) 
85

>  <i_i_glide_rotatable_bonds>  (1) 
9

>  <i_lp_mmshare_version>  (1) 
72125

>  <i_m_source_file_index>  (1) 
67

>  <i_f3d_flags>  (1) 
0

>  <num_sample>  (1) 
100

>  <b_lp_Chiralities_Consistent>  (1) 
1

>  <r_epik_Charging_Adjusted_Penalty>  (1) 
1.3281530491987052

>  <r_epik_Ionization_Penalty>  (1) 
1.3282883392360914

>  <r_epik_Ionization_Penalty_Charging>  (1) 
0

>  <r_epik_Ionization_Penalty_Neutral>  (1) 
1.3282883392360914

>  <r_epik_State_Penalty>  (1) 
1.3281530491987052

>  <r_glide_ring_energy>  (1) 
0

>  <r_i_docking_score>  (1) 
-8.1679408925133163

>  <r_i_glide_ecoul>  (1) 
-3.0087286071970301

>  <r_i_glide_eff_state_penalty>  (1) 
1.3281530491987052

>  <r_i_glide_einternal>  (1) 
23.074601185404479

>  <r_i_glide_emodel>  (1) 
-61.401986471572556

>  <r_i_glide_emodel_strain>  (1) 
0.55015832322447977

>  <r_i_glide_energy>  (1) 
-55.777789692814906

>  <r_i_glide_erotb>  (1) 
0.50097048188181392

>  <r_i_glide_esite>  (1) 
-0.01730272472731887

>  <r_i_glide_evdw>  (1) 
-52.769061085617878

>  <r_i_glide_gscore>  (1) 
-9.4960939417120223

>  <r_i_glide_gscore_strain>  (1) 
0

>  <r_i_glide_hbond>  (1) 
-0.16234235659294616

>  <r_i_glide_ligand_efficiency>  (1) 
-0.23336973978609477

>  <r_i_glide_ligand_efficiency_ln>  (1) 
-1.7930443035877994

>  <r_i_glide_ligand_efficiency_sa>  (1) 
-0.76336789363177238

>  <r_i_glide_lipo>  (1) 
-5.3290181188590733

>  <r_i_glide_metal>  (1) 
-0

>  <r_i_glide_rewards>  (1) 
-1.3986388780540482

>  <r_lp_Energy>  (1) 
65.328841999999995

>  <r_lp_tautomer_probability>  (1) 
0.99999944244275329

>  <s_epik_cmdline>  (1) 
J2VwaWtfcHl0aG9uJywgJy1waHQnLCAnMS4wJywgJy1waCcsICc3LjQnLCAnLXRuJywgJzgnLCAnLW1hJywgJzUwMCcsICctaW1hZScsICc8aW5maWxlLm1hZT4nLCAnLW9tYWUnLCAnPG91dGZpbGUubWFlPic=

>  <s_epik_input>  (1) 
W0NIXTEvW0NIMl1DKD1bQ0gyXSlbQ0hdPUM9W0NIXVtDQEBIXShDPTFcMilbQ0gyXS9bQ0hdPVtDSF1cTihbQ0gyXVtDQEBIXTJbQ0BASF0oW09IXSlbQ0gyXVtPSF0pW0NIMl1jKFtjSF1bY0hdMylubjNDKD1PKWM0YyhDbClbY0hdYyhbT0hdKVtjSF1bY0hdNA==

>  <s_glide_docking_method>  (1) 
confgen

>  <s_i_glide_gridfile>  (1) 
gpcr_5ht2c_6bqh_protein_autoprepared_prepared

>  <s_lp_Force_Field>  (1) 
S-OPLS

>  <s_lp_Variant>  (1) 
DiffSBDD_66-3

>  <s_m_source_file>  (1) 
generated_GPCR_5HT2C_ligand_DiffSBDD_2026-06-23_prepared.sdf

>  <GenAI_Model>  (1) 
DiffSBDD

>  <Protein>  (1) 
GPCR_5HT2C

$$$$
DiffSBDD_78
     RDKit          3D

  0  0  0  0  0  0  0  0  0  0999 V3000
M  V30 BEGIN CTAB
M  V30 COUNTS 105 110 0 0 1
M  V30 BEGIN ATOM
M  V30 1 O 44.520909 28.565197 66.593725 0
M  V30 2 C 38.635337 28.948272 54.699372 0
M  V30 3 C 39.070175 33.315612 59.073271 0 CFG=1
M  V30 4 C 44.825739 30.897494 69.795324 0
M  V30 5 O 44.397686 33.737673 71.096717 0
M  V30 6 C 37.618108 30.164350 56.751726 0 CFG=2
M  V30 7 C 45.207798 29.803199 66.746443 0
M  V30 8 O 43.248728 30.699110 67.898150 0
M  V30 9 C 37.472241 29.670609 55.334443 0 CFG=1
M  V30 10 O 40.833440 32.136594 62.885497 0
M  V30 11 C 34.285313 37.745202 63.909717 0
M  V30 12 N 38.167925 32.345575 58.480143 0
M  V30 13 N 37.645147 31.102290 55.622396 0 CFG=2 CHG=1
M  V30 14 C 35.008557 37.173143 66.103019 0
M  V30 15 C 39.768058 29.774502 54.101233 0
M  V30 16 C 38.570302 34.430799 59.956981 0 CFG=1
M  V30 17 N 38.845136 31.120459 58.664267 0
M  V30 18 C 45.359992 27.449701 66.329072 0
M  V30 19 C 38.877464 30.130059 57.613642 0 CFG=1
M  V30 20 C 36.045159 37.066338 65.027320 0
M  V30 21 C 40.534878 28.855527 59.182248 0
M  V30 22 C 43.466365 31.282243 69.189826 0 CFG=2
M  V30 23 C 38.724319 30.695259 61.054714 0
M  V30 24 C 36.427295 37.456908 62.558709 0
M  V30 25 C 43.113424 33.464801 70.569759 0
M  V30 26 C 44.184690 30.952613 66.845668 0 CFG=2
M  V30 27 C 38.408858 32.167416 61.376214 0
M  V30 28 C 46.109984 26.975143 67.581824 0
M  V30 29 O 38.676879 27.722125 54.660608 0
M  V30 30 C 39.066406 29.150291 58.811676 0
M  V30 31 C 35.638642 37.387189 63.853785 0
M  V30 32 C 38.438973 27.776149 58.592451 0
M  V30 33 C 42.325672 32.138325 65.471053 0
M  V30 34 C 38.864508 31.843795 55.204772 0
M  V30 35 C 36.782747 36.089111 61.976620 0
M  V30 36 C 36.815722 36.149706 60.445364 0
M  V30 37 O 33.861824 37.622165 65.244315 0
M  V30 38 N 39.669515 30.137763 63.273604 0
M  V30 39 S 40.700615 31.327926 65.421508 0
M  V30 40 C 39.257189 29.822902 61.954465 0
M  V30 41 C 43.187291 32.804870 69.177211 0
M  V30 42 C 40.402097 31.267531 63.635595 0
M  V30 43 C 39.465811 31.250595 53.935370 0
M  V30 44 C 37.106316 34.790516 59.822619 0
M  V30 45 O 33.595108 38.137735 62.970602 0
M  V30 46 C 38.288389 30.233896 59.650098 0 CFG=2
M  V30 47 C 39.200544 33.196105 60.571948 0 CFG=1
M  V30 48 C 43.442248 31.083174 65.501296 0
M  V30 49 H 39.978098 33.566802 58.532459 0
M  V30 50 H 44.877274 31.166278 70.849478 0
M  V30 51 H 45.645133 31.404777 69.287720 0
M  V30 52 H 44.990996 29.822485 69.737050 0
M  V30 53 H 44.805825 34.406306 70.566534 0
M  V30 54 H 36.678330 30.137757 57.298334 0
M  V30 55 H 45.841945 29.983744 65.876506 0
M  V30 56 H 45.862454 29.775427 67.614736 0
M  V30 57 H 36.477554 29.514521 54.927385 0
M  V30 58 H 38.000457 32.552017 57.498692 0
M  V30 59 H 35.245493 37.927748 66.850295 0
M  V30 60 H 40.045080 29.350108 53.137422 0
M  V30 61 H 40.622818 29.692690 54.770254 0
M  V30 62 H 39.211405 35.300106 60.088376 0
M  V30 63 H 44.722244 26.639257 65.976576 0
M  V30 64 H 46.045217 27.672659 65.512268 0
M  V30 65 H 39.806854 30.173454 57.049929 0
M  V30 66 H 37.058609 36.775927 65.256374 0
M  V30 67 H 40.621743 28.093198 59.955698 0
M  V30 68 H 41.054873 29.737666 59.550845 0
M  V30 69 H 41.096473 28.500223 58.318041 0
M  V30 70 H 42.704247 30.825996 69.821605 0
M  V30 71 H 37.339316 38.019176 62.718270 0
M  V30 72 H 35.868337 38.053752 61.835524 0
M  V30 73 H 42.559033 32.836968 71.267101 0
M  V30 74 H 42.577368 34.412117 70.503482 0
M  V30 75 H 44.717282 31.886066 67.025032 0
M  V30 76 H 37.355654 32.272402 61.123868 0
M  V30 77 H 38.419663 32.422091 62.431916 0
M  V30 78 H 46.682780 26.072492 67.366070 0
M  V30 79 H 45.412705 26.746318 68.388486 0
M  V30 80 H 46.812795 27.723701 67.945904 0
M  V30 81 H 34.847884 36.209811 66.567732 0
M  V30 82 H 38.445140 27.185650 59.507888 0
M  V30 83 H 38.993454 27.206384 57.846264 0
M  V30 84 H 37.417580 27.847556 58.214058 0
M  V30 85 H 42.453943 32.820864 64.632035 0
M  V30 86 H 42.367223 32.762166 66.361615 0
M  V30 87 H 38.558016 32.870305 54.997708 0
M  V30 88 H 39.618190 31.940752 55.983205 0
M  V30 89 H 37.741644 35.756338 62.376256 0
M  V30 90 H 36.044984 35.344924 62.284433 0
M  V30 91 H 35.859508 36.498109 60.062140 0
M  V30 92 H 37.542165 36.889423 60.105632 0
M  V30 93 H 39.512618 29.445038 63.998368 0
M  V30 94 H 39.371057 28.773500 61.727980 0
M  V30 95 H 43.903676 33.335231 68.550476 0
M  V30 96 H 42.214283 32.949176 68.704787 0
M  V30 97 H 40.407689 31.737739 53.715668 0
M  V30 98 H 38.844991 31.428983 53.064033 0
M  V30 99 H 36.867118 34.844237 58.760341 0
M  V30 100 H 36.462773 34.020490 60.243447 0
M  V30 101 H 37.203253 30.159945 59.558490 0
M  V30 102 H 40.222025 33.326624 60.912609 0
M  V30 103 H 44.170810 31.322770 64.730097 0
M  V30 104 H 43.036926 30.112873 65.210787 0
M  V30 105 H 36.782084 31.644206 55.655025 0
M  V30 END ATOM
M  V30 BEGIN BOND
M  V30 1 1 7 1
M  V30 2 1 9 2
M  V30 3 1 9 6
M  V30 4 1 12 3
M  V30 5 1 13 6
M  V30 6 1 13 9
M  V30 7 1 15 2
M  V30 8 1 16 3
M  V30 9 1 17 12
M  V30 10 1 18 1
M  V30 11 1 19 6
M  V30 12 1 19 17
M  V30 13 1 20 14
M  V30 14 1 22 4
M  V30 15 1 22 8
M  V30 16 1 25 5
M  V30 17 1 26 7
M  V30 18 1 26 8
M  V30 19 1 27 23
M  V30 20 1 28 18
M  V30 21 2 29 2
M  V30 22 1 30 19
M  V30 23 1 30 21
M  V30 24 1 31 11
M  V30 25 2 31 20
M  V30 26 1 31 24
M  V30 27 1 32 30
M  V30 28 1 34 13
M  V30 29 1 35 24
M  V30 30 1 36 35
M  V30 31 1 37 11
M  V30 32 1 37 14
M  V30 33 1 39 33
M  V30 34 2 40 23
M  V30 35 1 40 38
M  V30 36 1 41 22
M  V30 37 1 41 25
M  V30 38 2 42 10
M  V30 39 1 42 38
M  V30 40 1 42 39
M  V30 41 1 43 15
M  V30 42 1 43 34
M  V30 43 1 44 16
M  V30 44 1 44 36
M  V30 45 2 45 11
M  V30 46 1 46 17
M  V30 47 1 46 23
M  V30 48 1 46 30
M  V30 49 1 47 3
M  V30 50 1 47 16
M  V30 51 1 47 27
M  V30 52 1 48 26
M  V30 53 1 48 33
M  V30 54 1 3 49 CFG=3
M  V30 55 1 50 4
M  V30 56 1 51 4
M  V30 57 1 52 4
M  V30 58 1 53 5
M  V30 59 1 6 54 CFG=1
M  V30 60 1 55 7
M  V30 61 1 56 7
M  V30 62 1 9 57 CFG=1
M  V30 63 1 58 12
M  V30 64 1 59 14
M  V30 65 1 60 15
M  V30 66 1 61 15
M  V30 67 1 16 62 CFG=3
M  V30 68 1 63 18
M  V30 69 1 64 18
M  V30 70 1 19 65 CFG=3
M  V30 71 1 66 20
M  V30 72 1 67 21
M  V30 73 1 68 21
M  V30 74 1 69 21
M  V30 75 1 22 70 CFG=1
M  V30 76 1 71 24
M  V30 77 1 72 24
M  V30 78 1 73 25
M  V30 79 1 74 25
M  V30 80 1 26 75 CFG=1
M  V30 81 1 76 27
M  V30 82 1 77 27
M  V30 83 1 78 28
M  V30 84 1 79 28
M  V30 85 1 80 28
M  V30 86 1 81 14
M  V30 87 1 82 32
M  V30 88 1 83 32
M  V30 89 1 84 32
M  V30 90 1 85 33
M  V30 91 1 86 33
M  V30 92 1 87 34
M  V30 93 1 88 34
M  V30 94 1 89 35
M  V30 95 1 90 35
M  V30 96 1 91 36
M  V30 97 1 92 36
M  V30 98 1 93 38
M  V30 99 1 94 40
M  V30 100 1 95 41
M  V30 101 1 96 41
M  V30 102 1 97 43
M  V30 103 1 98 43
M  V30 104 1 99 44
M  V30 105 1 100 44
M  V30 106 1 46 101 CFG=1
M  V30 107 1 47 102 CFG=3
M  V30 108 1 103 48
M  V30 109 1 104 48
M  V30 110 1 13 105 CFG=1
M  V30 END BOND
M  V30 END CTAB
M  END
>  <i_epik_Tot_Q>  (1) 
1

>  <i_epik_Tot_abs_Q>  (1) 
1

>  <i_i_glide_confnum>  (1) 
3640

>  <i_i_glide_lignum>  (1) 
179

>  <i_i_glide_posenum>  (1) 
83

>  <i_i_glide_rotatable_bonds>  (1) 
20

>  <i_lp_mmshare_version>  (1) 
72125

>  <i_m_source_file_index>  (1) 
79

>  <i_f3d_flags>  (1) 
0

>  <num_sample>  (1) 
100

>  <b_lp_Chiralities_Consistent>  (1) 
1

>  <r_epik_Charging_Adjusted_Penalty>  (1) 
0.27991857207723647

>  <r_epik_Ionization_Penalty>  (1) 
0.14008487576319317

>  <r_epik_Ionization_Penalty_Charging>  (1) 
0.13995928603861824

>  <r_epik_Ionization_Penalty_Neutral>  (1) 
0.0001255897245749389

>  <r_epik_State_Penalty>  (1) 
0.13995928603861821

>  <r_glide_ring_energy>  (1) 
0

>  <r_i_docking_score>  (1) 
-8.1667623245107155

>  <r_i_glide_ecoul>  (1) 
-8.8735205314236243

>  <r_i_glide_eff_state_penalty>  (1) 
0.13995928603861821

>  <r_i_glide_einternal>  (1) 
28.975473717579433

>  <r_i_glide_emodel>  (1) 
-54.14665967670777

>  <r_i_glide_emodel_strain>  (1) 
3.4783591890254115

>  <r_i_glide_energy>  (1) 
-48.886943259235764

>  <r_i_glide_erotb>  (1) 
0.59343049219720367

>  <r_i_glide_esite>  (1) 
-0.25421276421393657

>  <r_i_glide_evdw>  (1) 
-40.013422727812141

>  <r_i_glide_gscore>  (1) 
-8.3067216105493333

>  <r_i_glide_gscore_strain>  (1) 
0

>  <r_i_glide_hbond>  (1) 
-0.4100025766383702

>  <r_i_glide_ligand_efficiency>  (1) 
-0.17014088176063991

>  <r_i_glide_ligand_efficiency_ln>  (1) 
-1.6765397909515956

>  <r_i_glide_ligand_efficiency_sa>  (1) 
-0.61833299985975398

>  <r_i_glide_lipo>  (1) 
-3.6723825987262817

>  <r_i_glide_metal>  (1) 
-0

>  <r_i_glide_rewards>  (1) 
-1.2318549470637981

>  <r_lp_Energy>  (1) 
45.973873999999995

>  <r_lp_tautomer_probability>  (1) 
0.99979120136373534

>  <s_epik_Chemistry_Notes>  (1) 
This compound has an ester and may undergo hydrolysis at high or low pH.

>  <s_epik_cmdline>  (1) 
J2VwaWtfcHl0aG9uJywgJy1waHQnLCAnMS4wJywgJy1waCcsICc3LjQnLCAnLXRuJywgJzgnLCAnLW1hJywgJzUwMCcsICctaW1hZScsICc8aW5maWxlLm1hZT4nLCAnLW9tYWUnLCAnPG91dGZpbGUubWFlPic=

>  <s_epik_input>  (1) 
W09IXVtDSDJdW0NIMl1bQ0BIXShbQ0gzXSlPW0NAQEhdKFtDSDJdT1tDSDJdW0NIM10pW0NIMl1bQ0gyXVNDKD1PKVtOSF0vW0NIXT1DKFtDQEhdMU4oW05IXTIpW0NAQEhdKEMxKFtDSDNdKVtDSDNdKVtDQEhdM04oW0NASF0zNClbQ0gyXVtDSDJdW0NIMl1DND1PKVxbQ0gyXVtDQEBIXShbQ0BASF0yNSlbQ0BASF01W0NIMl1bQ0gyXVtDSDJdW0NIMl1bQ0BASF0oQzY9TylbQ0hdPVtDSF1PNg==

>  <s_glide_docking_method>  (1) 
confgen

>  <s_i_glide_gridfile>  (1) 
gpcr_5ht2c_6bqh_protein_autoprepared_prepared

>  <s_lp_Force_Field>  (1) 
S-OPLS

>  <s_lp_Variant>  (1) 
DiffSBDD_78-1

>  <s_m_source_file>  (1) 
generated_GPCR_5HT2C_ligand_DiffSBDD_2026-06-23_prepared.sdf

>  <GenAI_Model>  (1) 
DiffSBDD

>  <Protein>  (1) 
GPCR_5HT2C

$$$$
DiffSBDD_75
     RDKit          3D

  0  0  0  0  0  0  0  0  0  0999 V3000
M  V30 BEGIN CTAB
M  V30 COUNTS 77 78 0 0 1
M  V30 BEGIN ATOM
M  V30 1 C 39.517729 29.383390 61.165744 0
M  V30 2 C 36.499351 30.409274 60.016280 0
M  V30 3 O 36.845599 30.361364 55.367473 0
M  V30 4 C 41.817880 28.970509 63.311750 0
M  V30 5 C 39.173776 29.961706 53.778130 0 CFG=1
M  V30 6 C 39.031040 35.056526 61.113025 0
M  V30 7 C 37.803656 29.491262 55.942582 0 CFG=2
M  V30 8 C 37.798507 35.209309 60.443936 0
M  V30 9 O 40.439105 29.908613 51.703725 0
M  V30 10 C 37.837985 27.702198 54.119233 0 CFG=1
M  V30 11 O 36.956609 38.682410 61.364912 0
M  V30 12 S 38.756473 29.019560 58.514229 0
M  V30 13 C 42.261224 27.932939 64.358921 0
M  V30 14 C 37.630447 37.496463 61.283193 0
M  V30 15 C 38.534352 30.175394 57.122785 0
M  V30 16 C 39.790586 33.754186 61.018695 0
M  V30 17 C 39.558540 36.121803 61.867952 0
M  V30 18 O 39.648805 26.575399 52.978134 0
M  V30 19 C 37.637920 26.444946 55.012076 0
M  V30 20 C 38.656960 28.863076 54.790359 0 CFG=1
M  V30 21 O 41.275348 26.930939 64.503708 0
M  V30 22 O 37.784704 30.913463 60.336877 0
M  V30 23 O 41.617682 31.713756 61.924372 0
M  V30 24 C 40.311701 30.177799 64.883873 0
M  V30 25 N 40.445280 29.494072 63.570126 0 CFG=1 CHG=1
M  V30 26 C 40.422159 31.589512 62.180732 0
M  V30 27 C 37.099740 36.431817 60.526447 0
M  V30 28 C 39.527081 32.829672 62.216398 0
M  V30 29 C 39.745075 30.228289 62.456700 0 CFG=1
M  V30 30 C 38.859669 37.337571 61.954215 0
M  V30 31 C 38.591840 28.389071 51.779590 0
M  V30 32 C 38.919199 30.138000 59.951050 0 CFG=1
M  V30 33 C 40.312310 30.819981 54.367136 0
M  V30 34 C 38.422852 27.245844 52.773150 0 CFG=2
M  V30 35 C 39.498455 29.455635 52.355066 0
M  V30 36 H 40.451836 28.941040 60.820640 0
M  V30 37 H 38.869123 28.541072 61.410521 0
M  V30 38 H 35.745784 30.889945 60.639277 0
M  V30 39 H 36.244540 30.610865 58.976459 0
M  V30 40 H 36.443157 29.337619 60.167127 0
M  V30 41 H 36.324874 30.806708 56.043904 0
M  V30 42 H 41.871594 28.495290 62.335820 0
M  V30 43 H 42.540255 29.785007 63.297885 0
M  V30 44 H 37.245207 28.692705 56.413450 0
M  V30 45 H 37.391072 34.391201 59.864218 0
M  V30 46 H 38.988559 28.033063 50.828788 0
M  V30 47 H 36.845276 28.091655 53.887743 0
M  V30 48 H 36.305053 38.817129 60.688033 0
M  V30 49 H 43.196472 27.468171 64.045189 0
M  V30 50 H 42.453182 28.395306 65.328203 0
M  V30 51 H 37.932421 31.009605 57.483277 0
M  V30 52 H 39.502894 30.587891 56.856609 0
M  V30 53 H 39.540775 33.256147 60.081424 0
M  V30 54 H 40.847805 34.006291 60.968230 0
M  V30 55 H 40.502883 36.006753 62.381714 0
M  V30 56 H 39.495432 25.862156 53.578984 0
M  V30 57 H 38.570267 26.140640 55.486868 0
M  V30 58 H 36.891192 26.560640 55.796166 0
M  V30 59 H 37.284675 25.599800 54.417664 0
M  V30 60 H 39.528937 28.392836 55.247670 0
M  V30 61 H 41.586574 26.288097 65.125506 0
M  V30 62 H 40.995478 31.023182 64.969757 0
M  V30 63 H 39.292770 30.536163 65.038159 0
M  V30 64 H 40.513369 29.494652 65.707953 0
M  V30 65 H 36.156707 36.551463 60.009411 0
M  V30 66 H 39.728559 33.358061 63.147415 0
M  V30 67 H 38.477100 32.538255 62.240862 0
M  V30 68 H 38.743587 30.438287 62.835671 0
M  V30 69 H 39.271590 38.148662 62.530762 0
M  V30 70 H 37.626945 28.851468 51.577248 0
M  V30 71 H 38.357776 30.650482 53.568605 0
M  V30 72 H 39.644885 30.879907 59.640882 0
M  V30 73 H 40.894747 31.334242 53.608143 0
M  V30 74 H 39.910730 31.607362 55.002065 0
M  V30 75 H 40.995297 30.213756 54.962595 0
M  V30 76 H 37.730193 26.537596 52.330311 0
M  V30 77 H 39.883359 28.656686 63.702439 0
M  V30 END ATOM
M  V30 BEGIN BOND
M  V30 1 1 7 3
M  V30 2 1 8 6
M  V30 3 1 13 4
M  V30 4 1 14 11
M  V30 5 1 15 7
M  V30 6 1 15 12
M  V30 7 1 16 6
M  V30 8 2 17 6
M  V30 9 1 19 10
M  V30 10 1 20 5
M  V30 11 1 20 7
M  V30 12 1 20 10
M  V30 13 1 21 13
M  V30 14 1 22 2
M  V30 15 1 25 4
M  V30 16 1 25 24
M  V30 17 2 26 23
M  V30 18 2 27 8
M  V30 19 1 27 14
M  V30 20 1 28 16
M  V30 21 1 28 26
M  V30 22 1 29 1
M  V30 23 1 29 25
M  V30 24 1 29 26
M  V30 25 2 30 14
M  V30 26 1 30 17
M  V30 27 1 32 1
M  V30 28 1 32 12
M  V30 29 1 32 22
M  V30 30 1 33 5
M  V30 31 1 34 10
M  V30 32 1 34 18
M  V30 33 1 34 31
M  V30 34 1 35 5
M  V30 35 2 35 9
M  V30 36 1 35 31
M  V30 37 1 36 1
M  V30 38 1 37 1
M  V30 39 1 38 2
M  V30 40 1 39 2
M  V30 41 1 40 2
M  V30 42 1 41 3
M  V30 43 1 42 4
M  V30 44 1 43 4
M  V30 45 1 7 44 CFG=1
M  V30 46 1 45 8
M  V30 47 1 46 31
M  V30 48 1 10 47 CFG=3
M  V30 49 1 48 11
M  V30 50 1 49 13
M  V30 51 1 50 13
M  V30 52 1 51 15
M  V30 53 1 52 15
M  V30 54 1 53 16
M  V30 55 1 54 16
M  V30 56 1 55 17
M  V30 57 1 56 18
M  V30 58 1 57 19
M  V30 59 1 58 19
M  V30 60 1 59 19
M  V30 61 1 20 60 CFG=1
M  V30 62 1 61 21
M  V30 63 1 62 24
M  V30 64 1 63 24
M  V30 65 1 64 24
M  V30 66 1 65 27
M  V30 67 1 66 28
M  V30 68 1 67 28
M  V30 69 1 29 68 CFG=1
M  V30 70 1 69 30
M  V30 71 1 70 31
M  V30 72 1 5 71 CFG=3
M  V30 73 1 32 72 CFG=3
M  V30 74 1 73 33
M  V30 75 1 74 33
M  V30 76 1 75 33
M  V30 77 1 34 76 CFG=3
M  V30 78 1 25 77 CFG=1
M  V30 END BOND
M  V30 END CTAB
M  END
>  <i_epik_Tot_Q>  (1) 
1

>  <i_epik_Tot_abs_Q>  (1) 
1

>  <i_i_glide_confnum>  (1) 
2917

>  <i_i_glide_lignum>  (1) 
170

>  <i_i_glide_posenum>  (1) 
155

>  <i_i_glide_rotatable_bonds>  (1) 
18

>  <i_lp_mmshare_version>  (1) 
72125

>  <i_m_source_file_index>  (1) 
76

>  <i_f3d_flags>  (1) 
0

>  <num_sample>  (1) 
100

>  <b_lp_Chiralities_Consistent>  (1) 
1

>  <r_epik_Charging_Adjusted_Penalty>  (1) 
0.52789471212939676

>  <r_epik_Ionization_Penalty>  (1) 
0.26592108790513191

>  <r_epik_Ionization_Penalty_Charging>  (1) 
0.26394735606469838

>  <r_epik_Ionization_Penalty_Neutral>  (1) 
0.0019737318404335234

>  <r_epik_State_Penalty>  (1) 
0.26394735606469838

>  <r_glide_ring_energy>  (1) 
0

>  <r_i_docking_score>  (1) 
-8.1627406813291206

>  <r_i_glide_ecoul>  (1) 
-12.011000173462236

>  <r_i_glide_eff_state_penalty>  (1) 
0.26394735606469838

>  <r_i_glide_einternal>  (1) 
16.52413643125157

>  <r_i_glide_emodel>  (1) 
-76.972823823156162

>  <r_i_glide_emodel_strain>  (1) 
5.4827320158527897

>  <r_i_glide_energy>  (1) 
-56.20014242176287

>  <r_i_glide_erotb>  (1) 
1.0139394581015995

>  <r_i_glide_esite>  (1) 
-0.040620955246339914

>  <r_i_glide_evdw>  (1) 
-44.189142248300634

>  <r_i_glide_gscore>  (1) 
-8.4266880373938182

>  <r_i_glide_gscore_strain>  (1) 
0.37068300396319742

>  <r_i_glide_hbond>  (1) 
-0.54117926523672866

>  <r_i_glide_ligand_efficiency>  (1) 
-0.23322116232368917

>  <r_i_glide_ligand_efficiency_ln>  (1) 
-1.7919027418203994

>  <r_i_glide_ligand_efficiency_sa>  (1) 
-0.7628818869000441

>  <r_i_glide_lipo>  (1) 
-4.076568408771684

>  <r_i_glide_metal>  (1) 
-0

>  <r_i_glide_rewards>  (1) 
-1.141834731769495

>  <r_lp_Energy>  (1) 
23.611832

>  <r_lp_tautomer_probability>  (1) 
0.99989998499911525

>  <s_epik_Chemistry_Notes>  (1) 
This compound contains an acetal/aminal-like group ( X-CH(R)-Y where X, Y are N, S, or O) that may be acid/base labile, releasing an aldehyde.

>  <s_epik_cmdline>  (1) 
J2VwaWtfcHl0aG9uJywgJy1waHQnLCAnMS4wJywgJy1waCcsICc3LjQnLCAnLXRuJywgJzgnLCAnLW1hJywgJzUwMCcsICctaW1hZScsICc8aW5maWxlLm1hZT4nLCAnLW9tYWUnLCAnPG91dGZpbGUubWFlPic=

>  <s_epik_input>  (1) 
W2NIXTFbY0hdYyhbT0hdKVtjSF1bY0hdYzFbQ0gyXVtDSDJdQyg9TylbQ0BIXShOKFtDSDNdKVtDSDJdW0NIMl1bT0hdKVtDSDJdW0NASF0oT1tDSDNdKVNbQ0gyXVtDQEBIXShbT0hdKVtDQEhdMltDQEBIXShbQ0gzXSlbQ0BIXShbT0hdKVtDSDJdQyhbT0hdKT1DMltDSDNd

>  <s_glide_docking_method>  (1) 
confgen

>  <s_i_glide_gridfile>  (1) 
gpcr_5ht2c_6bqh_protein_autoprepared_prepared

>  <s_lp_Force_Field>  (1) 
S-OPLS

>  <s_lp_Variant>  (1) 
DiffSBDD_75-7

>  <s_m_source_file>  (1) 
generated_GPCR_5HT2C_ligand_DiffSBDD_2026-06-23_prepared.sdf

>  <GenAI_Model>  (1) 
DiffSBDD

>  <Protein>  (1) 
GPCR_5HT2C

$$$$
DiffSBDD_43
     RDKit          3D

  0  0  0  0  0  0  0  0  0  0999 V3000
M  V30 BEGIN CTAB
M  V30 COUNTS 83 85 0 0 1
M  V30 BEGIN ATOM
M  V30 1 C 38.277134 29.115334 53.451740 0
M  V30 2 C 43.441088 30.451305 64.040782 0
M  V30 3 C 40.493055 27.927144 56.431077 0
M  V30 4 C 36.465751 30.430916 59.814161 0 CFG=2
M  V30 5 C 39.076237 29.816038 60.043534 0 CFG=1
M  V30 6 O 38.315768 24.739368 54.973722 0
M  V30 7 O 41.310350 30.101788 62.972569 0
M  V30 8 N 40.193505 30.558041 51.656413 0 CHG=1
M  V30 9 C 39.710409 26.884932 55.912549 0
M  V30 10 C 44.760423 29.885578 64.601854 0
M  V30 11 C 35.623115 31.693402 60.082736 0
M  V30 12 C 39.396601 32.196310 55.626493 0
M  V30 13 N 36.885789 24.568707 56.819393 0
M  V30 14 C 38.645699 26.352660 56.672277 0
M  V30 15 C 42.388368 29.428591 63.645138 0
M  V30 16 N 37.848967 25.314583 56.152980 0
M  V30 17 C 37.930401 30.762261 59.517386 0 CFG=1
M  V30 18 O 40.327253 28.068173 62.569688 0
M  V30 19 C 39.349866 29.507725 51.069592 0 CFG=1
M  V30 20 C 39.323090 29.975944 61.572980 0
M  V30 21 C 39.659936 31.186099 52.880084 0
M  V30 22 C 39.112181 32.786497 56.998326 0 CFG=1
M  V30 23 C 40.224832 28.449476 57.705714 0
M  V30 24 O 37.990587 31.047641 58.139784 0
M  V30 25 C 37.896839 33.733889 57.150454 0
M  V30 26 C 39.232290 30.210492 53.976974 0 CFG=1
M  V30 27 O 35.892265 29.728722 58.737775 0
M  V30 28 C 40.647905 29.304803 62.027332 0 CFG=1
M  V30 29 C 38.380743 26.871002 57.957567 0
M  V30 30 N 37.245143 31.362429 54.969537 0 CHG=1
M  V30 31 C 39.792941 28.129225 51.483952 0
M  V30 32 C 38.621925 30.945376 55.206028 0 CFG=2
M  V30 33 O 39.245135 31.765801 57.936068 0
M  V30 34 C 38.502372 28.677196 52.020940 0 CFG=1
M  V30 35 O 38.869403 28.425882 59.737887 0
M  V30 36 O 36.019868 32.320850 61.279486 0
M  V30 37 C 39.157933 27.926613 58.476473 0
M  V30 38 H 38.276979 28.256666 54.115950 0
M  V30 39 H 37.248753 29.446514 53.477689 0
M  V30 40 H 43.638511 30.945692 63.100586 0
M  V30 41 H 43.025360 31.189888 64.727555 0
M  V30 42 H 41.304194 28.327380 55.848735 0
M  V30 43 H 36.438676 29.746612 60.631874 0
M  V30 44 H 40.013034 30.174184 59.633270 0
M  V30 45 H 39.052184 24.199293 55.225167 0
M  V30 46 H 41.096089 30.156807 51.843921 0
M  V30 47 H 39.928102 26.496217 54.926643 0
M  V30 48 H 45.470898 30.685152 64.817786 0
M  V30 49 H 44.602852 29.336755 65.530169 0
M  V30 50 H 45.242289 29.222722 63.884540 0
M  V30 51 H 35.709555 32.394182 59.251322 0
M  V30 52 H 34.567704 31.464268 60.173909 0
M  V30 53 H 39.247025 32.995991 54.900374 0
M  V30 54 H 40.448516 31.926922 55.633587 0
M  V30 55 H 36.636480 23.755474 56.252890 0
M  V30 56 H 37.269584 24.245125 57.703061 0
M  V30 57 H 42.022265 28.896570 64.525569 0
M  V30 58 H 42.860682 28.709881 62.975274 0
M  V30 59 H 38.134621 31.712054 60.006296 0
M  V30 60 H 39.720835 28.200174 63.290188 0
M  V30 61 H 39.116546 29.657986 50.029155 0
M  V30 62 H 39.389548 31.029731 61.836061 0
M  V30 63 H 38.486020 29.568550 62.145953 0
M  V30 64 H 38.882424 31.910017 52.637641 0
M  V30 65 H 40.492159 31.734473 53.291192 0
M  V30 66 H 40.020377 33.334530 57.191214 0
M  V30 67 H 40.838118 29.244421 58.087963 0
M  V30 68 H 37.779317 34.410042 56.304758 0
M  V30 69 H 36.947572 33.231539 57.249386 0
M  V30 70 H 37.987892 34.358674 58.037101 0
M  V30 71 H 40.154402 29.728828 54.323787 0
M  V30 72 H 35.687535 30.344968 58.042510 0
M  V30 73 H 41.316378 29.109313 61.186475 0
M  V30 74 H 37.576927 26.463709 58.541293 0
M  V30 75 H 37.194639 32.199502 54.412267 0
M  V30 76 H 36.710496 30.625521 54.546250 0
M  V30 77 H 40.624752 28.035690 52.165343 0
M  V30 78 H 39.731185 27.354889 50.718254 0
M  V30 79 H 38.601793 30.212936 56.009392 0
M  V30 80 H 37.621624 28.192825 51.606127 0
M  V30 81 H 36.833029 32.772590 61.111588 0
M  V30 82 H 36.772802 31.589959 55.855877 0
M  V30 83 H 40.313280 31.292861 50.967187 0
M  V30 END ATOM
M  V30 BEGIN BOND
M  V30 1 1 9 3
M  V30 2 1 10 2
M  V30 3 1 11 4
M  V30 4 2 14 9
M  V30 5 1 15 2
M  V30 6 1 15 7
M  V30 7 1 16 6
M  V30 8 1 16 13
M  V30 9 1 16 14
M  V30 10 1 17 4
M  V30 11 1 17 5
M  V30 12 1 19 8
M  V30 13 1 20 5
M  V30 14 1 21 8
M  V30 15 1 22 12
M  V30 16 2 23 3
M  V30 17 1 24 17
M  V30 18 1 25 22
M  V30 19 1 26 1
M  V30 20 1 26 21
M  V30 21 1 27 4
M  V30 22 1 28 7
M  V30 23 1 28 18
M  V30 24 1 28 20
M  V30 25 1 29 14
M  V30 26 1 31 19
M  V30 27 1 32 12
M  V30 28 1 32 26
M  V30 29 1 32 30
M  V30 30 1 33 22
M  V30 31 1 33 24
M  V30 32 1 34 1
M  V30 33 1 34 19
M  V30 34 1 34 31
M  V30 35 1 35 5
M  V30 36 1 36 11
M  V30 37 1 37 23
M  V30 38 2 37 29
M  V30 39 1 37 35
M  V30 40 1 38 1
M  V30 41 1 39 1
M  V30 42 1 40 2
M  V30 43 1 41 2
M  V30 44 1 42 3
M  V30 45 1 4 43 CFG=1
M  V30 46 1 5 44 CFG=3
M  V30 47 1 45 6
M  V30 48 1 46 8
M  V30 49 1 47 9
M  V30 50 1 48 10
M  V30 51 1 49 10
M  V30 52 1 50 10
M  V30 53 1 51 11
M  V30 54 1 52 11
M  V30 55 1 53 12
M  V30 56 1 54 12
M  V30 57 1 55 13
M  V30 58 1 56 13
M  V30 59 1 57 15
M  V30 60 1 58 15
M  V30 61 1 17 59 CFG=1
M  V30 62 1 60 18
M  V30 63 1 19 61 CFG=3
M  V30 64 1 62 20
M  V30 65 1 63 20
M  V30 66 1 64 21
M  V30 67 1 65 21
M  V30 68 1 22 66 CFG=1
M  V30 69 1 67 23
M  V30 70 1 68 25
M  V30 71 1 69 25
M  V30 72 1 70 25
M  V30 73 1 26 71 CFG=1
M  V30 74 1 72 27
M  V30 75 1 28 73 CFG=3
M  V30 76 1 74 29
M  V30 77 1 75 30
M  V30 78 1 76 30
M  V30 79 1 77 31
M  V30 80 1 78 31
M  V30 81 1 32 79 CFG=1
M  V30 82 1 34 80 CFG=3
M  V30 83 1 81 36
M  V30 84 1 82 30
M  V30 85 1 83 8
M  V30 END BOND
M  V30 END CTAB
M  END
>  <i_epik_Tot_Q>  (1) 
2

>  <i_epik_Tot_abs_Q>  (1) 
2

>  <i_i_glide_confnum>  (1) 
9731

>  <i_i_glide_lignum>  (1) 
96

>  <i_i_glide_posenum>  (1) 
140

>  <i_i_glide_rotatable_bonds>  (1) 
21

>  <i_lp_mmshare_version>  (1) 
72125

>  <i_m_source_file_index>  (1) 
44

>  <i_f3d_flags>  (1) 
0

>  <num_sample>  (1) 
100

>  <b_lp_Chiralities_Consistent>  (1) 
1

>  <r_epik_Charging_Adjusted_Penalty>  (1) 
0.054628322637716921

>  <r_epik_Ionization_Penalty>  (1) 
0.057286365922034427

>  <r_epik_Ionization_Penalty_Charging>  (1) 
0.054628322637716921

>  <r_epik_Ionization_Penalty_Neutral>  (1) 
0.0026580432843175059

>  <r_epik_State_Penalty>  (1) 
-0

>  <r_glide_ring_energy>  (1) 
0

>  <r_i_docking_score>  (1) 
-8.154940540232694

>  <r_i_glide_ecoul>  (1) 
-12.019528399285354

>  <r_i_glide_eff_state_penalty>  (1) 
-0

>  <r_i_glide_einternal>  (1) 
21.498344817026911

>  <r_i_glide_emodel>  (1) 
-51.858134919804847

>  <r_i_glide_emodel_strain>  (1) 
6.4131389182153455

>  <r_i_glide_energy>  (1) 
-35.313373859020217

>  <r_i_glide_erotb>  (1) 
0.76865709009298355

>  <r_i_glide_esite>  (1) 
-0.23715537770833858

>  <r_i_glide_evdw>  (1) 
-23.293845459734861

>  <r_i_glide_gscore>  (1) 
-8.154940540232694

>  <r_i_glide_gscore_strain>  (1) 
0.60328472955383639

>  <r_i_glide_hbond>  (1) 
-0.77913294567221691

>  <r_i_glide_ligand_efficiency>  (1) 
-0.22040379838466739

>  <r_i_glide_ligand_efficiency_ln>  (1) 
-1.7686154242455552

>  <r_i_glide_ligand_efficiency_sa>  (1) 
-0.73443435316315786

>  <r_i_glide_lipo>  (1) 
-3.9543236949101952

>  <r_i_glide_metal>  (1) 
-0

>  <r_i_glide_rewards>  (1) 
-1.5886488087092183

>  <r_lp_Energy>  (1) 
40.181405999999996

>  <r_lp_tautomer_probability>  (1) 
1

>  <s_epik_Chemistry_Notes>  (1) 
This compound contains an acetal/aminal-like group ( X-CH(R)-Y where X, Y are N, S, or O) that may be acid/base labile, releasing an aldehyde. This compound has a N-S or N-O group and may undergo hydrolysis at high or low pH.

>  <s_epik_cmdline>  (1) 
J2VwaWtfcHl0aG9uJywgJy1waHQnLCAnMS4wJywgJy1waCcsICc3LjQnLCAnLXRuJywgJzgnLCAnLW1hJywgJzUwMCcsICctaW1hZScsICc8aW5maWxlLm1hZT4nLCAnLW9tYWUnLCAnPG91dGZpbGUubWFlPic=

>  <s_epik_input>  (1) 
W0NASF0xMltDQEBIXShbQ0gyXTIpW0NIMl1bQ0BASF0oW0NIMl1bTkhdMSlbQ0BIXShbTkgyXSlbQ0gyXVtDQEBIXShbQ0gzXSlPT1tDQEBIXShbQ0BIXShbT0hdKVtDSDJdW09IXSlbQ0BASF0oW0NIMl1bQ0BIXShbT0hdKU9bQ0gyXVtDSDJdW0NIM10pT2MoW2NIXTMpW2NIXVtjSF1bY0hdYzNOKFtPSF0pW05IMl0=

>  <s_glide_docking_method>  (1) 
confgen

>  <s_i_glide_gridfile>  (1) 
gpcr_5ht2c_6bqh_protein_autoprepared_prepared

>  <s_lp_Force_Field>  (1) 
S-OPLS

>  <s_lp_Variant>  (1) 
DiffSBDD_43-2

>  <s_m_source_file>  (1) 
generated_GPCR_5HT2C_ligand_DiffSBDD_2026-06-23_prepared.sdf

>  <GenAI_Model>  (1) 
DiffSBDD

>  <Protein>  (1) 
GPCR_5HT2C

$$$$
DiffSBDD_48
     RDKit          3D

  0  0  0  0  0  0  0  0  0  0999 V3000
M  V30 BEGIN CTAB
M  V30 COUNTS 75 77 0 0 1
M  V30 BEGIN ATOM
M  V30 1 C 39.976764 31.429340 62.235063 0
M  V30 2 C 40.210246 26.278132 58.198739 0
M  V30 3 C 34.600576 33.044465 59.859016 0
M  V30 4 C 38.333609 25.333283 56.615996 0 CFG=2
M  V30 5 C 39.528135 28.570075 50.137943 0
M  V30 6 O 40.862409 30.657165 61.797828 0
M  V30 7 C 39.430414 31.175941 50.167780 0
M  V30 8 C 41.186400 29.975591 51.203166 0
M  V30 9 C 37.062534 33.137851 60.741162 0 CFG=1
M  V30 10 C 38.912820 29.737776 52.241904 0
M  V30 11 C 38.723393 31.612108 61.361749 0 CFG=1
M  V30 12 C 38.915408 29.086965 54.548113 0 CFG=1
M  V30 13 C 39.229885 26.562658 54.610643 0
M  V30 14 C 38.055689 33.104412 59.554428 0 CFG=2
M  V30 15 C 40.409770 31.210973 54.719986 0
M  V30 16 C 35.756671 32.341059 60.561216 0
M  V30 17 F 38.671548 24.145834 57.119114 0
M  V30 18 O 40.027604 32.068001 63.308730 0 CHG=-1
M  V30 19 C 39.171644 30.469516 55.248641 0 CFG=1
M  V30 20 C 38.540600 33.034465 57.033159 0
M  V30 21 C 37.523760 32.758602 58.150558 0
M  V30 22 C 37.880341 31.321654 55.274541 0
M  V30 23 O 37.831008 32.621598 61.834006 0
M  V30 24 C 38.893330 26.412271 58.938380 0
M  V30 25 O 35.645885 31.188796 60.967901 0
M  V30 26 O 39.532873 28.992348 53.260478 0
M  V30 27 C 38.748430 25.437641 55.165891 0
M  V30 28 N 38.045126 32.740039 55.670454 0 CHG=1
M  V30 29 C 39.407539 27.875784 55.373014 0 CFG=2
M  V30 30 C 38.698811 27.797887 56.745688 0
M  V30 31 C 39.718461 29.849808 50.927850 0
M  V30 32 C 38.924509 26.472762 57.438389 0
M  V30 33 C 39.128898 32.120696 59.985850 0
M  V30 34 H 40.677476 25.298038 58.167772 0
M  V30 35 H 40.903578 27.115873 58.248114 0
M  V30 36 H 34.942324 33.928575 59.321491 0
M  V30 37 H 34.124933 32.367467 59.148319 0
M  V30 38 H 33.854373 33.355427 60.588327 0
M  V30 39 H 37.246341 25.380206 56.670700 0
M  V30 40 H 39.721955 27.689681 50.753152 0
M  V30 41 H 38.514023 28.505469 49.767781 0
M  V30 42 H 40.229840 28.546063 49.314013 0
M  V30 43 H 39.556024 32.019086 50.841212 0
M  V30 44 H 40.145746 31.340087 49.367726 0
M  V30 45 H 38.445146 31.337745 49.767793 0
M  V30 46 H 41.553757 29.097740 51.736580 0
M  V30 47 H 41.792464 30.120631 50.307809 0
M  V30 48 H 41.245121 30.895133 51.777315 0
M  V30 49 H 36.780272 34.166412 60.971329 0
M  V30 50 H 37.912814 29.337758 52.068164 0
M  V30 51 H 38.845145 30.736168 52.639704 0
M  V30 52 H 38.193876 30.661421 61.281793 0
M  V30 53 H 37.842513 28.941817 54.407226 0
M  V30 54 H 39.511029 26.563294 53.568077 0
M  V30 55 H 38.500265 34.099604 59.507863 0
M  V30 56 H 40.244215 31.687535 53.762262 0
M  V30 57 H 40.712891 31.997622 55.400414 0
M  V30 58 H 41.254266 30.537303 54.613560 0
M  V30 59 H 39.412274 30.298787 56.293385 0
M  V30 60 H 39.488326 32.536711 57.220814 0
M  V30 61 H 38.729682 34.102359 57.046352 0
M  V30 62 H 36.630332 33.346438 57.949499 0
M  V30 63 H 37.245295 31.705508 58.133675 0
M  V30 64 H 37.413673 31.332077 54.290325 0
M  V30 65 H 37.166112 30.840025 55.938101 0
M  V30 66 H 38.707436 27.339367 59.477954 0
M  V30 67 H 38.445167 25.519877 59.367760 0
M  V30 68 H 38.645333 24.545572 54.567812 0
M  V30 69 H 38.644650 33.195246 54.999648 0
M  V30 70 H 40.478285 27.983394 55.545711 0
M  V30 71 H 39.032181 28.586542 57.418924 0
M  V30 72 H 37.628691 27.937661 56.622926 0
M  V30 73 H 39.244903 31.280357 59.303329 0
M  V30 74 H 40.065840 32.668272 60.039971 0
M  V30 75 H 37.110040 33.143127 55.601560 0
M  V30 END ATOM
M  V30 BEGIN BOND
M  V30 1 2 6 1
M  V30 2 1 11 1
M  V30 3 1 14 9
M  V30 4 1 16 3
M  V30 5 1 16 9
M  V30 6 1 17 4
M  V30 7 1 18 1
M  V30 8 1 19 12
M  V30 9 1 19 15
M  V30 10 1 21 14
M  V30 11 1 21 20
M  V30 12 1 22 19
M  V30 13 1 23 9
M  V30 14 1 23 11
M  V30 15 1 24 2
M  V30 16 2 25 16
M  V30 17 1 26 10
M  V30 18 1 26 12
M  V30 19 1 27 4
M  V30 20 2 27 13
M  V30 21 1 28 20
M  V30 22 1 28 22
M  V30 23 1 29 12
M  V30 24 1 29 13
M  V30 25 1 30 29
M  V30 26 1 31 5
M  V30 27 1 31 7
M  V30 28 1 31 8
M  V30 29 1 31 10
M  V30 30 1 32 2
M  V30 31 1 32 4
M  V30 32 1 32 24
M  V30 33 1 32 30
M  V30 34 1 33 11
M  V30 35 1 33 14
M  V30 36 1 34 2
M  V30 37 1 35 2
M  V30 38 1 36 3
M  V30 39 1 37 3
M  V30 40 1 38 3
M  V30 41 1 4 39 CFG=3
M  V30 42 1 40 5
M  V30 43 1 41 5
M  V30 44 1 42 5
M  V30 45 1 43 7
M  V30 46 1 44 7
M  V30 47 1 45 7
M  V30 48 1 46 8
M  V30 49 1 47 8
M  V30 50 1 48 8
M  V30 51 1 9 49 CFG=1
M  V30 52 1 50 10
M  V30 53 1 51 10
M  V30 54 1 11 52 CFG=3
M  V30 55 1 12 53 CFG=3
M  V30 56 1 54 13
M  V30 57 1 14 55 CFG=3
M  V30 58 1 56 15
M  V30 59 1 57 15
M  V30 60 1 58 15
M  V30 61 1 19 59 CFG=1
M  V30 62 1 60 20
M  V30 63 1 61 20
M  V30 64 1 62 21
M  V30 65 1 63 21
M  V30 66 1 64 22
M  V30 67 1 65 22
M  V30 68 1 66 24
M  V30 69 1 67 24
M  V30 70 1 68 27
M  V30 71 1 69 28
M  V30 72 1 29 70 CFG=1
M  V30 73 1 71 30
M  V30 74 1 72 30
M  V30 75 1 73 33
M  V30 76 1 74 33
M  V30 77 1 75 28
M  V30 END BOND
M  V30 END CTAB
M  END
>  <i_epik_Tot_Q>  (1) 
0

>  <i_epik_Tot_abs_Q>  (1) 
2

>  <i_i_glide_confnum>  (1) 
3112

>  <i_i_glide_lignum>  (1) 
101

>  <i_i_glide_posenum>  (1) 
4

>  <i_i_glide_rotatable_bonds>  (1) 
12

>  <i_lp_mmshare_version>  (1) 
72125

>  <i_m_source_file_index>  (1) 
49

>  <i_f3d_flags>  (1) 
0

>  <num_sample>  (1) 
100

>  <b_lp_Chiralities_Consistent>  (1) 
1

>  <r_epik_Charging_Adjusted_Penalty>  (1) 
0.0012752337282245032

>  <r_epik_Ionization_Penalty>  (1) 
0.0012752337438600718

>  <r_epik_Ionization_Penalty_Charging>  (1) 
0.0012752337282245032

>  <r_epik_Ionization_Penalty_Neutral>  (1) 
1.5635568601569758e-11

>  <r_epik_State_Penalty>  (1) 
-0

>  <r_glide_ring_energy>  (1) 
0

>  <r_i_docking_score>  (1) 
-8.1355776513089815

>  <r_i_glide_ecoul>  (1) 
-7.7189801769625879

>  <r_i_glide_eff_state_penalty>  (1) 
-0

>  <r_i_glide_einternal>  (1) 
10.147631527545339

>  <r_i_glide_emodel>  (1) 
-37.860472283342908

>  <r_i_glide_emodel_strain>  (1) 
4.4124038326016972

>  <r_i_glide_energy>  (1) 
-30.613341076390601

>  <r_i_glide_erotb>  (1) 
0.73840374044631085

>  <r_i_glide_esite>  (1) 
-0.12657507189818237

>  <r_i_glide_evdw>  (1) 
-22.894360899428012

>  <r_i_glide_gscore>  (1) 
-8.1355776513089815

>  <r_i_glide_gscore_strain>  (1) 
0.1031009581504243

>  <r_i_glide_hbond>  (1) 
-0.62922529209420142

>  <r_i_glide_ligand_efficiency>  (1) 
-0.24653265610027217

>  <r_i_glide_ligand_efficiency_ln>  (1) 
-1.8093103458844544

>  <r_i_glide_ligand_efficiency_sa>  (1) 
-0.79076195790667803

>  <r_i_glide_lipo>  (1) 
-4.2244275623691898

>  <r_i_glide_metal>  (1) 
-0

>  <r_i_glide_rewards>  (1) 
-1.6942893520283542

>  <r_lp_Energy>  (1) 
20.638030999999998

>  <r_lp_tautomer_probability>  (1) 
1

>  <s_epik_cmdline>  (1) 
J2VwaWtfcHl0aG9uJywgJy1waHQnLCAnMS4wJywgJy1waCcsICc3LjQnLCAnLXRuJywgJzgnLCAnLW1hJywgJzUwMCcsICctaW1hZScsICc8aW5maWxlLm1hZT4nLCAnLW9tYWUnLCAnPG91dGZpbGUubWFlPic=

>  <s_epik_input>  (1) 
Tz1DKFtPSF0pW0NAQEhdKE8xKVtDSDJdW0NASF0oW0NASF0xQyg9TylbQ0gzXSlbQ0gyXVtDSDJdW05IXVtDSDJdW0NASF0oW0NIM10pW0NAQEhdKE9bQ0gyXUMoW0NIM10pKFtDSDNdKVtDSDNdKVtDQEBIXShbQ0gyXTIpW0NIXT1bQ0hdW0NAQEhdKEYpQzIzW0NIMl1bQ0gyXTM=

>  <s_glide_docking_method>  (1) 
confgen

>  <s_i_glide_gridfile>  (1) 
gpcr_5ht2c_6bqh_protein_autoprepared_prepared

>  <s_lp_Force_Field>  (1) 
S-OPLS

>  <s_lp_Variant>  (1) 
DiffSBDD_48-1

>  <s_m_source_file>  (1) 
generated_GPCR_5HT2C_ligand_DiffSBDD_2026-06-23_prepared.sdf

>  <GenAI_Model>  (1) 
DiffSBDD

>  <Protein>  (1) 
GPCR_5HT2C

$$$$
DiffSBDD_63
     RDKit          3D

  0  0  0  0  0  0  0  0  0  0999 V3000
M  V30 BEGIN CTAB
M  V30 COUNTS 83 88 0 0 1
M  V30 BEGIN ATOM
M  V30 1 F 38.599421 26.628029 57.532546 0
M  V30 2 C 38.007206 35.953356 61.247158 0
M  V30 3 C 39.067197 26.861247 56.306069 0 CFG=1
M  V30 4 C 41.303632 32.065403 68.131745 0
M  V30 5 C 37.266001 30.166936 58.788915 0
M  V30 6 C 38.936114 29.486199 60.632479 0 CFG=1
M  V30 7 N 38.194936 26.989762 54.080292 0 CHG=1
M  V30 8 C 42.067023 34.455147 63.881185 0
M  V30 9 C 39.406230 36.727382 63.123473 0
M  V30 10 C 40.145024 33.314202 62.640489 0 CFG=2
M  V30 11 C 41.517142 33.151976 63.347272 0 CFG=2
M  V30 12 C 37.185285 29.338779 57.506819 0
M  V30 13 C 41.644941 35.663063 63.500498 0
M  V30 14 C 38.802706 34.848250 61.079752 0
M  V30 15 N 36.845034 35.904923 60.480987 0
M  V30 16 N 39.445230 29.347831 58.163927 0 CHG=1
M  V30 17 C 38.610131 29.396858 56.953560 0 CFG=1
M  V30 18 C 43.260704 32.788515 66.709332 0
M  V30 19 C 35.511808 34.447186 58.978661 0
M  V30 20 O 41.100202 28.454591 60.477048 0
M  V30 21 O 39.920615 32.212550 61.760127 0
M  V30 22 S 38.096566 33.731281 59.932553 0
M  V30 23 C 38.166567 28.371109 54.596144 0 CFG=2
M  V30 24 C 38.742434 30.104003 59.228938 0 CFG=1
M  V30 25 C 38.625124 29.381378 53.535655 0
M  V30 26 C 40.117491 34.590069 61.746097 0 CFG=1
M  V30 27 C 40.384347 29.284340 61.027977 0
M  V30 28 C 36.713001 34.780289 59.787733 0
M  V30 29 O 40.913203 33.379934 68.480095 0
M  V30 30 C 41.939835 32.000551 66.734399 0 CFG=2
M  V30 31 C 40.953179 32.404415 65.614217 0
M  V30 32 C 39.730923 30.971270 62.357852 0 CFG=2
M  V30 33 O 41.557364 32.135218 64.350971 0
M  V30 34 C 40.559411 35.898806 62.482930 0 CFG=1
M  V30 35 O 40.767626 30.104717 62.017248 0
M  V30 36 C 38.249925 26.101683 55.253253 0
M  V30 37 C 38.455937 30.366048 61.778638 0
M  V30 38 C 39.024921 28.348979 55.881735 0 CFG=2
M  V30 39 C 38.293001 37.115267 62.130371 0
M  V30 40 H 40.099441 26.504917 56.302659 0
M  V30 41 H 42.004836 31.701260 68.882878 0
M  V30 42 H 40.445135 31.403928 68.167224 0
M  V30 43 H 36.574719 29.796055 59.546483 0
M  V30 44 H 36.983486 31.199671 58.576511 0
M  V30 45 H 38.445298 28.513603 60.654221 0
M  V30 46 H 39.040364 26.863794 53.541510 0
M  V30 47 H 42.858000 34.381257 64.607929 0
M  V30 48 H 38.960888 36.137750 63.924177 0
M  V30 49 H 39.795021 37.628250 63.600940 0
M  V30 50 H 39.337398 33.373476 63.367775 0
M  V30 51 H 42.235797 32.836202 62.590008 0
M  V30 52 H 36.890333 28.322593 57.767579 0
M  V30 53 H 36.445192 29.737777 56.813569 0
M  V30 54 H 42.102293 36.537736 63.927480 0
M  V30 55 H 40.374133 29.711029 58.004281 0
M  V30 56 H 38.749034 30.389382 56.519949 0
M  V30 57 H 43.091634 33.855845 66.851240 0
M  V30 58 H 43.929360 32.456691 67.503857 0
M  V30 59 H 43.789139 32.646162 65.767919 0
M  V30 60 H 35.063673 35.351621 58.567739 0
M  V30 61 H 35.798408 33.783593 58.167754 0
M  V30 62 H 34.773197 33.937134 59.596560 0
M  V30 63 H 37.131739 28.589726 54.848882 0
M  V30 64 H 39.150372 31.115055 59.222188 0
M  V30 65 H 38.585610 30.402129 53.919131 0
M  V30 66 H 39.645217 29.190154 53.206566 0
M  V30 67 H 37.986039 29.337524 52.653711 0
M  V30 68 H 40.858558 34.422478 60.967775 0
M  V30 69 H 40.277685 33.689084 67.853200 0
M  V30 70 H 42.197384 30.954618 66.561054 0
M  V30 71 H 40.045345 31.804489 65.682961 0
M  V30 72 H 40.637532 33.441049 65.732534 0
M  V30 73 H 39.650190 31.058729 63.441153 0
M  V30 74 H 41.003947 36.546154 61.724349 0
M  V30 75 H 38.678892 25.128987 55.007401 0
M  V30 76 H 37.230333 25.941333 55.608602 0
M  V30 77 H 38.045212 29.740537 62.567758 0
M  V30 78 H 37.726927 31.132099 61.512876 0
M  V30 79 H 40.045658 28.597901 55.586885 0
M  V30 80 H 37.398377 37.435131 62.666108 0
M  V30 81 H 38.619035 37.961100 61.525227 0
M  V30 82 H 39.510815 28.382209 58.457762 0
M  V30 83 H 37.395575 26.789568 53.492672 0
M  V30 END ATOM
M  V30 BEGIN BOND
M  V30 1 1 3 1
M  V30 2 1 11 8
M  V30 3 1 11 10
M  V30 4 1 12 5
M  V30 5 2 13 8
M  V30 6 2 14 2
M  V30 7 1 15 2
M  V30 8 1 17 12
M  V30 9 1 17 16
M  V30 10 1 21 10
M  V30 11 1 22 14
M  V30 12 1 23 7
M  V30 13 1 24 5
M  V30 14 1 24 6
M  V30 15 1 24 16
M  V30 16 1 25 23
M  V30 17 1 26 10
M  V30 18 1 26 14
M  V30 19 1 27 6
M  V30 20 2 27 20
M  V30 21 2 28 15
M  V30 22 1 28 19
M  V30 23 1 28 22
M  V30 24 1 29 4
M  V30 25 1 30 4
M  V30 26 1 30 18
M  V30 27 1 31 30
M  V30 28 1 32 21
M  V30 29 1 33 11
M  V30 30 1 33 31
M  V30 31 1 34 9
M  V30 32 1 34 13
M  V30 33 1 34 26
M  V30 34 1 35 27
M  V30 35 1 35 32
M  V30 36 1 36 3
M  V30 37 1 36 7
M  V30 38 1 37 6
M  V30 39 1 37 32
M  V30 40 1 38 3
M  V30 41 1 38 17
M  V30 42 1 38 23
M  V30 43 1 39 2
M  V30 44 1 39 9
M  V30 45 1 3 40 CFG=1
M  V30 46 1 41 4
M  V30 47 1 42 4
M  V30 48 1 43 5
M  V30 49 1 44 5
M  V30 50 1 6 45 CFG=3
M  V30 51 1 46 7
M  V30 52 1 47 8
M  V30 53 1 48 9
M  V30 54 1 49 9
M  V30 55 1 10 50 CFG=1
M  V30 56 1 11 51 CFG=3
M  V30 57 1 52 12
M  V30 58 1 53 12
M  V30 59 1 54 13
M  V30 60 1 55 16
M  V30 61 1 17 56 CFG=3
M  V30 62 1 57 18
M  V30 63 1 58 18
M  V30 64 1 59 18
M  V30 65 1 60 19
M  V30 66 1 61 19
M  V30 67 1 62 19
M  V30 68 1 23 63 CFG=1
M  V30 69 1 24 64 CFG=1
M  V30 70 1 65 25
M  V30 71 1 66 25
M  V30 72 1 67 25
M  V30 73 1 26 68 CFG=3
M  V30 74 1 69 29
M  V30 75 1 30 70 CFG=3
M  V30 76 1 71 31
M  V30 77 1 72 31
M  V30 78 1 32 73 CFG=1
M  V30 79 1 34 74 CFG=3
M  V30 80 1 75 36
M  V30 81 1 76 36
M  V30 82 1 77 37
M  V30 83 1 78 37
M  V30 84 1 38 79 CFG=3
M  V30 85 1 80 39
M  V30 86 1 81 39
M  V30 87 1 82 16
M  V30 88 1 83 7
M  V30 END BOND
M  V30 END CTAB
M  END
>  <i_epik_Tot_Q>  (1) 
2

>  <i_epik_Tot_abs_Q>  (1) 
2

>  <i_i_glide_confnum>  (1) 
1164

>  <i_i_glide_lignum>  (1) 
140

>  <i_i_glide_posenum>  (1) 
192

>  <i_i_glide_rotatable_bonds>  (1) 
9

>  <i_lp_mmshare_version>  (1) 
72125

>  <i_m_source_file_index>  (1) 
64

>  <i_f3d_flags>  (1) 
0

>  <num_sample>  (1) 
100

>  <b_lp_Chiralities_Consistent>  (1) 
1

>  <r_epik_Charging_Adjusted_Penalty>  (1) 
0.080070908620723774

>  <r_epik_Ionization_Penalty>  (1) 
0.041568301575603359

>  <r_epik_Ionization_Penalty_Charging>  (1) 
0.040241786303222601

>  <r_epik_Ionization_Penalty_Neutral>  (1) 
0.0013265152723807572

>  <r_epik_State_Penalty>  (1) 
0.039829122317501166

>  <r_glide_ring_energy>  (1) 
0.99687478685236663

>  <r_i_docking_score>  (1) 
-8.1033464475854675

>  <r_i_glide_ecoul>  (1) 
-2.5812700181973121

>  <r_i_glide_eff_state_penalty>  (1) 
0.039829122317501166

>  <r_i_glide_einternal>  (1) 
9.3330249053309835

>  <r_i_glide_emodel>  (1) 
-64.298682524310379

>  <r_i_glide_emodel_strain>  (1) 
0.95157027117463144

>  <r_i_glide_energy>  (1) 
-49.033951690078354

>  <r_i_glide_erotb>  (1) 
0.43483266289788453

>  <r_i_glide_esite>  (1) 
0

>  <r_i_glide_evdw>  (1) 
-46.452681671881038

>  <r_i_glide_gscore>  (1) 
-8.1431755699029686

>  <r_i_glide_gscore_strain>  (1) 
0

>  <r_i_glide_hbond>  (1) 
-0.31886261990539899

>  <r_i_glide_ligand_efficiency>  (1) 
-0.20777811404065302

>  <r_i_glide_ligand_efficiency_ln>  (1) 
-1.7375875055303591

>  <r_i_glide_ligand_efficiency_sa>  (1) 
-0.70461951794256505

>  <r_i_glide_lipo>  (1) 
-4.2565236384098322

>  <r_i_glide_metal>  (1) 
-0

>  <r_i_glide_rewards>  (1) 
-1.2927973881619721

>  <r_lp_Energy>  (1) 
33.407150000000001

>  <s_epik_Chemistry_Notes>  (1) 
This compound has an ester and may undergo hydrolysis at high or low pH. This compound contains an acetal/aminal-like group ( X-CH(R)-Y where X, Y are N, S, or O) that may be acid/base labile, releasing an aldehyde.

>  <s_epik_cmdline>  (1) 
J2VwaWtfcHl0aG9uJywgJy1waHQnLCAnMS4wJywgJy1waCcsICc3LjQnLCAnLXRuJywgJzgnLCAnLW1hJywgJzUwMCcsICctaW1hZScsICc8aW5maWxlLm1hZT4nLCAnLW9tYWUnLCAnPG91dGZpbGUubWFlPic=

>  <s_epik_input>  (1) 
RltDQEhdMVtDSDJdW05IXVtDQEhdKFtDSDNdKVtDQEhdMVtDQEhdMltDSDJdW0NIMl1bQ0BIXShbTkhdMilbQ0BIXTNDKD1PKU9bQ0BIXShbQ0gyXTMpT1tDQEhdNFtDQEhdKE9bQ0gyXVtDQEBIXShbQ0gzXSlbQ0gyXVtPSF0pW0NIXT1bQ0hdW0NASF0oW0NIMl1bQ0gyXTUpW0NAQEhdNGMoYzU2KXNjKG42KVtDSDNd

>  <s_glide_docking_method>  (1) 
confgen

>  <s_i_glide_gridfile>  (1) 
gpcr_5ht2c_6bqh_protein_autoprepared_prepared

>  <s_lp_Force_Field>  (1) 
S-OPLS

>  <s_lp_Variant>  (1) 
DiffSBDD_63-2

>  <s_m_source_file>  (1) 
generated_GPCR_5HT2C_ligand_DiffSBDD_2026-06-23_prepared.sdf

>  <GenAI_Model>  (1) 
DiffSBDD

>  <Protein>  (1) 
GPCR_5HT2C

$$$$
DiffSBDD_63
     RDKit          3D

  0  0  0  0  0  0  0  0  0  0999 V3000
M  V30 BEGIN CTAB
M  V30 COUNTS 83 88 0 0 1
M  V30 BEGIN ATOM
M  V30 1 F 38.647086 26.650877 57.573625 0
M  V30 2 C 38.010022 35.948638 61.253924 0
M  V30 3 C 38.973647 26.860092 56.297982 0 CFG=1
M  V30 4 C 42.416837 31.187623 67.019457 0
M  V30 5 C 37.256966 30.173516 58.792808 0
M  V30 6 C 38.932631 29.483370 60.627695 0 CFG=1
M  V30 7 N 37.991543 27.006620 54.132877 0 CHG=1
M  V30 8 C 42.045507 34.437275 63.924851 0
M  V30 9 C 39.416300 36.723962 63.128725 0
M  V30 10 C 40.133539 33.313563 62.639117 0 CFG=2
M  V30 11 C 41.479810 33.139007 63.395326 0 CFG=2
M  V30 12 C 37.169915 29.343363 57.512506 0
M  V30 13 C 41.644897 35.650050 63.527549 0
M  V30 14 C 38.808962 34.847484 61.079542 0
M  V30 15 N 36.845179 35.900553 60.488935 0
M  V30 16 N 39.433952 29.356984 58.154374 0 CHG=1
M  V30 17 C 38.589323 29.403094 56.949459 0 CFG=1
M  V30 18 C 40.297226 30.022571 66.210133 0
M  V30 19 C 35.513704 34.447259 58.979458 0
M  V30 20 O 41.095217 28.450163 60.469652 0
M  V30 21 O 39.921497 32.208298 61.758616 0
M  V30 22 S 38.103958 33.733409 59.927004 0
M  V30 23 C 38.116532 28.402376 54.593462 0 CFG=2
M  V30 24 C 38.735075 30.106826 59.226519 0 CFG=1
M  V30 25 C 38.657325 29.317013 53.486065 0
M  V30 26 C 40.125588 34.588415 61.745480 0 CFG=1
M  V30 27 C 40.380689 29.280079 61.021689 0
M  V30 28 C 36.716206 34.779716 59.788722 0
M  V30 29 O 42.916477 32.358224 67.637318 0
M  V30 30 C 40.928656 31.352832 66.655027 0 CFG=2
M  V30 31 C 40.704796 32.456365 65.604301 0
M  V30 32 C 39.728534 30.965236 62.353334 0 CFG=2
M  V30 33 O 41.446398 32.151606 64.425696 0
M  V30 34 C 40.571040 35.891734 62.493976 0 CFG=1
M  V30 35 O 40.764974 30.098446 62.011976 0
M  V30 36 C 38.000082 26.165585 55.340429 0
M  V30 37 C 38.453588 30.361392 61.775442 0
M  V30 38 C 38.985319 28.349157 55.875973 0 CFG=2
M  V30 39 C 38.293765 37.106211 62.142389 0
M  V30 40 H 39.973305 26.438165 56.171222 0
M  V30 41 H 43.014585 30.959245 66.136303 0
M  V30 42 H 42.544843 30.357787 67.714627 0
M  V30 43 H 36.566029 29.806499 59.552630 0
M  V30 44 H 36.979384 31.207306 58.580085 0
M  V30 45 H 38.445186 28.509277 60.649899 0
M  V30 46 H 38.801308 26.777380 53.573860 0
M  V30 47 H 42.827474 34.353683 64.665529 0
M  V30 48 H 38.977067 36.137591 63.935366 0
M  V30 49 H 39.805201 37.628030 63.600427 0
M  V30 50 H 39.304483 33.387579 63.340270 0
M  V30 51 H 42.218524 32.784414 62.675572 0
M  V30 52 H 36.879931 28.324599 57.767760 0
M  V30 53 H 36.428162 29.737746 56.820621 0
M  V30 54 H 42.109217 36.526397 63.951977 0
M  V30 55 H 40.358799 29.726756 57.988151 0
M  V30 56 H 38.725513 30.394823 56.512770 0
M  V30 57 H 40.777037 29.631458 65.312121 0
M  V30 58 H 40.381788 29.265140 66.990194 0
M  V30 59 H 39.235866 30.142339 65.990436 0
M  V30 60 H 35.067216 35.351694 58.567779 0
M  V30 61 H 35.792791 33.779391 58.167756 0
M  V30 62 H 34.773019 33.946722 59.602254 0
M  V30 63 H 37.111840 28.737892 54.843978 0
M  V30 64 H 39.143222 31.117566 59.225974 0
M  V30 65 H 38.732851 30.349485 53.829431 0
M  V30 66 H 39.644456 29.006961 53.147523 0
M  V30 67 H 37.998412 29.310942 52.617283 0
M  V30 68 H 40.865963 34.416120 60.967750 0
M  V30 69 H 43.823141 32.216530 67.864871 0
M  V30 70 H 40.414500 31.657572 67.566610 0
M  V30 71 H 39.645912 32.534274 65.367700 0
M  V30 72 H 41.002127 33.414600 66.030947 0
M  V30 73 H 39.644020 31.046228 63.435947 0
M  V30 74 H 41.027369 36.538068 61.742193 0
M  V30 75 H 38.282537 25.135178 55.120915 0
M  V30 76 H 36.994860 26.155252 55.765230 0
M  V30 77 H 38.045162 29.738148 62.567748 0
M  V30 78 H 37.725166 31.128666 61.510914 0
M  V30 79 H 40.014311 28.571792 55.586224 0
M  V30 80 H 37.400031 37.414658 62.685878 0
M  V30 81 H 38.606909 37.958231 61.538537 0
M  V30 82 H 39.508779 28.390911 58.446076 0
M  V30 83 H 37.157090 26.864257 53.579046 0
M  V30 END ATOM
M  V30 BEGIN BOND
M  V30 1 1 3 1
M  V30 2 1 11 8
M  V30 3 1 11 10
M  V30 4 1 12 5
M  V30 5 2 13 8
M  V30 6 2 14 2
M  V30 7 1 15 2
M  V30 8 1 17 12
M  V30 9 1 17 16
M  V30 10 1 21 10
M  V30 11 1 22 14
M  V30 12 1 23 7
M  V30 13 1 24 5
M  V30 14 1 24 6
M  V30 15 1 24 16
M  V30 16 1 25 23
M  V30 17 1 26 10
M  V30 18 1 26 14
M  V30 19 1 27 6
M  V30 20 2 27 20
M  V30 21 2 28 15
M  V30 22 1 28 19
M  V30 23 1 28 22
M  V30 24 1 29 4
M  V30 25 1 30 4
M  V30 26 1 30 18
M  V30 27 1 31 30
M  V30 28 1 32 21
M  V30 29 1 33 11
M  V30 30 1 33 31
M  V30 31 1 34 9
M  V30 32 1 34 13
M  V30 33 1 34 26
M  V30 34 1 35 27
M  V30 35 1 35 32
M  V30 36 1 36 3
M  V30 37 1 36 7
M  V30 38 1 37 6
M  V30 39 1 37 32
M  V30 40 1 38 3
M  V30 41 1 38 17
M  V30 42 1 38 23
M  V30 43 1 39 2
M  V30 44 1 39 9
M  V30 45 1 3 40 CFG=1
M  V30 46 1 41 4
M  V30 47 1 42 4
M  V30 48 1 43 5
M  V30 49 1 44 5
M  V30 50 1 6 45 CFG=3
M  V30 51 1 46 7
M  V30 52 1 47 8
M  V30 53 1 48 9
M  V30 54 1 49 9
M  V30 55 1 10 50 CFG=1
M  V30 56 1 11 51 CFG=3
M  V30 57 1 52 12
M  V30 58 1 53 12
M  V30 59 1 54 13
M  V30 60 1 55 16
M  V30 61 1 17 56 CFG=3
M  V30 62 1 57 18
M  V30 63 1 58 18
M  V30 64 1 59 18
M  V30 65 1 60 19
M  V30 66 1 61 19
M  V30 67 1 62 19
M  V30 68 1 23 63 CFG=1
M  V30 69 1 24 64 CFG=1
M  V30 70 1 65 25
M  V30 71 1 66 25
M  V30 72 1 67 25
M  V30 73 1 26 68 CFG=3
M  V30 74 1 69 29
M  V30 75 1 30 70 CFG=1
M  V30 76 1 71 31
M  V30 77 1 72 31
M  V30 78 1 32 73 CFG=1
M  V30 79 1 34 74 CFG=3
M  V30 80 1 75 36
M  V30 81 1 76 36
M  V30 82 1 77 37
M  V30 83 1 78 37
M  V30 84 1 38 79 CFG=3
M  V30 85 1 80 39
M  V30 86 1 81 39
M  V30 87 1 82 16
M  V30 88 1 83 7
M  V30 END BOND
M  V30 END CTAB
M  END
>  <i_epik_Tot_Q>  (1) 
2

>  <i_epik_Tot_abs_Q>  (1) 
2

>  <i_i_glide_confnum>  (1) 
526

>  <i_i_glide_lignum>  (1) 
140

>  <i_i_glide_posenum>  (1) 
321

>  <i_i_glide_rotatable_bonds>  (1) 
9

>  <i_lp_mmshare_version>  (1) 
72125

>  <i_m_source_file_index>  (1) 
64

>  <i_f3d_flags>  (1) 
0

>  <num_sample>  (1) 
100

>  <b_lp_Chiralities_Consistent>  (1) 
1

>  <r_epik_Charging_Adjusted_Penalty>  (1) 
0.080070908620723774

>  <r_epik_Ionization_Penalty>  (1) 
0.041568301575603359

>  <r_epik_Ionization_Penalty_Charging>  (1) 
0.040241786303222601

>  <r_epik_Ionization_Penalty_Neutral>  (1) 
0.0013265152723807572

>  <r_epik_State_Penalty>  (1) 
0.039829122317501166

>  <r_glide_ring_energy>  (1) 
0.99687478685236663

>  <r_i_docking_score>  (1) 
-8.0962162035333556

>  <r_i_glide_ecoul>  (1) 
-2.6860803672601139

>  <r_i_glide_eff_state_penalty>  (1) 
0.039829122317501166

>  <r_i_glide_einternal>  (1) 
10.863487843746912

>  <r_i_glide_emodel>  (1) 
-64.660737833060907

>  <r_i_glide_emodel_strain>  (1) 
0.06694636133396159

>  <r_i_glide_energy>  (1) 
-49.294899753681122

>  <r_i_glide_erotb>  (1) 
0.43483266289788453

>  <r_i_glide_esite>  (1) 
0

>  <r_i_glide_evdw>  (1) 
-46.608819386421011

>  <r_i_glide_gscore>  (1) 
-8.1360453258508567

>  <r_i_glide_gscore_strain>  (1) 
0

>  <r_i_glide_hbond>  (1) 
-0.31552665659102064

>  <r_i_glide_ligand_efficiency>  (1) 
-0.20759528727008605

>  <r_i_glide_ligand_efficiency_ln>  (1) 
-1.7360585788015725

>  <r_i_glide_ligand_efficiency_sa>  (1) 
-0.70399951370612901

>  <r_i_glide_lipo>  (1) 
-4.1897974023880771

>  <r_i_glide_metal>  (1) 
-0

>  <r_i_glide_rewards>  (1) 
-1.3322009053595756

>  <r_lp_Energy>  (1) 
33.407150000000001

>  <s_epik_Chemistry_Notes>  (1) 
This compound has an ester and may undergo hydrolysis at high or low pH. This compound contains an acetal/aminal-like group ( X-CH(R)-Y where X, Y are N, S, or O) that may be acid/base labile, releasing an aldehyde.

>  <s_epik_cmdline>  (1) 
J2VwaWtfcHl0aG9uJywgJy1waHQnLCAnMS4wJywgJy1waCcsICc3LjQnLCAnLXRuJywgJzgnLCAnLW1hJywgJzUwMCcsICctaW1hZScsICc8aW5maWxlLm1hZT4nLCAnLW9tYWUnLCAnPG91dGZpbGUubWFlPic=

>  <s_epik_input>  (1) 
RltDQEhdMVtDSDJdW05IXVtDQEhdKFtDSDNdKVtDQEhdMVtDQEhdMltDSDJdW0NIMl1bQ0BIXShbTkhdMilbQ0BIXTNDKD1PKU9bQ0BIXShbQ0gyXTMpT1tDQEhdNFtDQEhdKE9bQ0gyXVtDQEBIXShbQ0gzXSlbQ0gyXVtPSF0pW0NIXT1bQ0hdW0NASF0oW0NIMl1bQ0gyXTUpW0NAQEhdNGMoYzU2KXNjKG42KVtDSDNd

>  <s_glide_docking_method>  (1) 
confgen

>  <s_i_glide_gridfile>  (1) 
gpcr_5ht2c_6bqh_protein_autoprepared_prepared

>  <s_lp_Force_Field>  (1) 
S-OPLS

>  <s_lp_Variant>  (1) 
DiffSBDD_63-2

>  <s_m_source_file>  (1) 
generated_GPCR_5HT2C_ligand_DiffSBDD_2026-06-23_prepared.sdf

>  <GenAI_Model>  (1) 
DiffSBDD

>  <Protein>  (1) 
GPCR_5HT2C

$$$$
DiffSBDD_50
     RDKit          3D

  0  0  0  0  0  0  0  0  0  0999 V3000
M  V30 BEGIN CTAB
M  V30 COUNTS 66 69 0 0 1
M  V30 BEGIN ATOM
M  V30 1 C 39.045286 27.591184 57.726469 0 CFG=1
M  V30 2 F 39.642663 26.537759 51.369621 0
M  V30 3 C 39.073553 30.614788 59.710712 0
M  V30 4 O 37.645134 30.299799 56.731574 0
M  V30 5 O 37.245130 31.737760 62.167761 0
M  V30 6 O 38.547008 31.880622 59.905240 0
M  V30 7 S 40.165456 28.244515 60.332066 0
M  V30 8 C 39.594630 27.353474 56.305455 0
M  V30 9 C 36.912827 33.419885 58.952515 0 CFG=2
M  V30 10 O 36.965603 24.953498 55.302904 0
M  V30 11 C 36.657437 32.527792 61.184622 0 CFG=1
M  V30 12 C 37.045301 35.960917 59.654023 0
M  V30 13 C 37.777916 25.433200 57.526189 0
M  V30 14 C 38.448079 26.785428 55.433847 0 CFG=2
M  V30 15 C 39.851966 28.900740 51.224308 0
M  V30 16 C 38.907369 30.694762 57.203934 0
M  V30 17 C 38.104242 25.396354 56.012513 0 CFG=2
M  V30 18 C 36.823769 23.554718 55.274562 0
M  V30 19 F 39.115079 31.486055 53.716633 0
M  V30 20 C 38.891293 29.119962 53.855731 0
M  V30 21 C 36.554924 34.537297 59.964422 0 CFG=2
M  V30 22 C 38.823169 26.206663 58.354497 0
M  V30 23 C 39.731624 30.161326 51.825653 0
M  V30 24 C 36.997106 34.005177 61.318160 0
M  V30 25 C 39.884691 28.638060 58.505363 0 CFG=2
M  V30 26 C 39.045428 27.843695 53.273044 0
M  V30 27 C 37.150931 32.127124 59.800487 0 CFG=2
M  V30 28 C 39.245137 30.038837 58.531557 0
M  V30 29 N 38.758096 26.667281 54.001812 0
M  V30 30 C 39.511371 27.743600 51.945359 0
M  V30 31 C 39.245135 30.270037 53.140795 0
M  V30 32 O 36.378445 31.030527 59.367758 0
M  V30 33 O 39.497009 30.218166 61.981575 0
M  V30 34 O 38.045138 33.737769 58.189300 0
M  V30 35 C 39.520569 29.846742 60.811958 0
M  V30 36 H 38.043376 28.012854 57.654131 0
M  V30 37 H 36.979584 30.947262 56.967787 0
M  V30 38 H 38.171257 31.635183 61.979001 0
M  V30 39 H 40.033435 28.267179 55.921140 0
M  V30 40 H 40.432917 26.654410 56.332834 0
M  V30 41 H 36.063876 33.337740 58.279324 0
M  V30 42 H 35.571499 32.414976 61.230006 0
M  V30 43 H 38.124545 36.047191 59.767809 0
M  V30 44 H 36.788779 36.254276 58.636150 0
M  V30 45 H 36.589331 36.682329 60.332082 0
M  V30 46 H 37.675216 24.421780 57.919747 0
M  V30 47 H 36.805760 25.909282 57.663773 0
M  V30 48 H 37.565913 27.418817 55.525726 0
M  V30 49 H 40.214574 28.818532 50.210922 0
M  V30 50 H 39.667975 30.427111 56.473742 0
M  V30 51 H 38.960269 31.771752 57.262113 0
M  V30 52 H 38.954340 24.732118 55.838577 0
M  V30 53 H 36.045132 23.337755 54.567770 0
M  V30 54 H 37.705639 23.062468 54.885348 0
M  V30 55 H 36.556298 23.139443 56.245688 0
M  V30 56 H 38.518842 29.217836 54.850154 0
M  V30 57 H 35.463497 34.584394 59.986553 0
M  V30 58 H 39.762079 25.654281 58.411820 0
M  V30 59 H 38.445137 26.306699 59.367752 0
M  V30 60 H 40.001442 31.050535 51.275180 0
M  V30 61 H 38.067581 34.154481 61.467758 0
M  V30 62 H 36.455475 34.481960 62.136968 0
M  V30 63 H 40.877109 28.727102 58.062330 0
M  V30 64 H 38.921647 25.756665 53.596854 0
M  V30 65 H 36.362552 30.397764 60.067766 0
M  V30 66 H 38.795313 33.695189 58.761557 0
M  V30 END ATOM
M  V30 BEGIN BOND
M  V30 1 1 6 3
M  V30 2 1 8 1
M  V30 3 1 11 5
M  V30 4 1 14 8
M  V30 5 1 16 4
M  V30 6 1 17 10
M  V30 7 1 17 13
M  V30 8 1 17 14
M  V30 9 1 18 10
M  V30 10 1 21 9
M  V30 11 1 21 12
M  V30 12 1 22 1
M  V30 13 1 22 13
M  V30 14 2 23 15
M  V30 15 1 24 11
M  V30 16 1 24 21
M  V30 17 1 25 1
M  V30 18 1 25 7
M  V30 19 1 26 20
M  V30 20 1 27 6 CFG=1
M  V30 21 1 27 9
M  V30 22 1 27 11
M  V30 23 2 28 3
M  V30 24 1 28 16
M  V30 25 1 28 25
M  V30 26 1 29 14
M  V30 27 1 29 26
M  V30 28 1 30 2
M  V30 29 1 30 15
M  V30 30 2 30 26
M  V30 31 1 31 19
M  V30 32 2 31 20
M  V30 33 1 31 23
M  V30 34 1 32 27
M  V30 35 1 34 9
M  V30 36 1 35 3
M  V30 37 1 35 7
M  V30 38 2 35 33
M  V30 39 1 1 36 CFG=3
M  V30 40 1 37 4
M  V30 41 1 38 5
M  V30 42 1 39 8
M  V30 43 1 40 8
M  V30 44 1 9 41 CFG=3
M  V30 45 1 11 42 CFG=3
M  V30 46 1 43 12
M  V30 47 1 44 12
M  V30 48 1 45 12
M  V30 49 1 46 13
M  V30 50 1 47 13
M  V30 51 1 14 48 CFG=3
M  V30 52 1 49 15
M  V30 53 1 50 16
M  V30 54 1 51 16
M  V30 55 1 17 52 CFG=1
M  V30 56 1 53 18
M  V30 57 1 54 18
M  V30 58 1 55 18
M  V30 59 1 56 20
M  V30 60 1 21 57 CFG=1
M  V30 61 1 58 22
M  V30 62 1 59 22
M  V30 63 1 60 23
M  V30 64 1 61 24
M  V30 65 1 62 24
M  V30 66 1 25 63 CFG=3
M  V30 67 1 64 29
M  V30 68 1 65 32
M  V30 69 1 66 34
M  V30 END BOND
M  V30 END CTAB
M  END
>  <i_epik_Tot_Q>  (1) 
0

>  <i_epik_Tot_abs_Q>  (1) 
0

>  <i_i_glide_confnum>  (1) 
66

>  <i_i_glide_lignum>  (1) 
103

>  <i_i_glide_posenum>  (1) 
203

>  <i_i_glide_rotatable_bonds>  (1) 
11

>  <i_lp_mmshare_version>  (1) 
72125

>  <i_m_source_file_index>  (1) 
51

>  <i_f3d_flags>  (1) 
0

>  <num_sample>  (1) 
100

>  <b_lp_Chiralities_Consistent>  (1) 
1

>  <r_epik_Charging_Adjusted_Penalty>  (1) 
0.32088234562257889

>  <r_epik_Ionization_Penalty>  (1) 
0.32096673837562456

>  <r_epik_Ionization_Penalty_Charging>  (1) 
0

>  <r_epik_Ionization_Penalty_Neutral>  (1) 
0.32096673837562456

>  <r_epik_State_Penalty>  (1) 
0.32088234562257889

>  <r_glide_ring_energy>  (1) 
0

>  <r_i_docking_score>  (1) 
-8.0933976168649302

>  <r_i_glide_ecoul>  (1) 
-3.6347634325060088

>  <r_i_glide_eff_state_penalty>  (1) 
0.32088234562257889

>  <r_i_glide_einternal>  (1) 
8.5567774344943874

>  <r_i_glide_emodel>  (1) 
-62.904535865462037

>  <r_i_glide_emodel_strain>  (1) 
3.3072279248811327

>  <r_i_glide_energy>  (1) 
-41.844425542296477

>  <r_i_glide_erotb>  (1) 
0.46316945766964901

>  <r_i_glide_esite>  (1) 
-0.053064283794345607

>  <r_i_glide_evdw>  (1) 
-38.209662109790472

>  <r_i_glide_gscore>  (1) 
-8.4142799624875089

>  <r_i_glide_gscore_strain>  (1) 
0

>  <r_i_glide_hbond>  (1) 
-0.44997962211426717

>  <r_i_glide_ligand_efficiency>  (1) 
-0.23123993191042658

>  <r_i_glide_ligand_efficiency_ln>  (1) 
-1.7766804001841121

>  <r_i_glide_ligand_efficiency_sa>  (1) 
-0.75640115084249993

>  <r_i_glide_lipo>  (1) 
-4.3659495330448346

>  <r_i_glide_metal>  (1) 
-0

>  <r_i_glide_rewards>  (1) 
-1.552758360838284

>  <r_lp_Energy>  (1) 
64.880727999999991

>  <r_lp_tautomer_probability>  (1) 
0.99999998906363929

>  <s_epik_cmdline>  (1) 
J2VwaWtfcHl0aG9uJywgJy1waHQnLCAnMS4wJywgJy1waCcsICc3LjQnLCAnLXRuJywgJzgnLCAnLW1hJywgJzUwMCcsICctaW1hZScsICc8aW5maWxlLm1hZT4nLCAnLW9tYWUnLCAnPG91dGZpbGUubWFlPic=

>  <s_epik_input>  (1) 
W09IXVtDQEhdMVtDSDJdW0NAQEhdKFtDSDNdKVtDQEBIXShbT0hdKVtDQEBdMShbT0hdKU9DMj1DKFtDSDJdW09IXSlbQ0BASF0oU0MyPU8pW0NASF0zW0NIMl1bQ0BIXShbQ0BIXShPW0NIM10pW0NIMl1bQ0gyXTMpW05IXWM0W2NIXWMoRilbY0hdW2NIXWM0Rg==

>  <s_glide_docking_method>  (1) 
confgen

>  <s_i_glide_gridfile>  (1) 
gpcr_5ht2c_6bqh_protein_autoprepared_prepared

>  <s_lp_Force_Field>  (1) 
S-OPLS

>  <s_lp_Variant>  (1) 
DiffSBDD_50-1

>  <s_m_source_file>  (1) 
generated_GPCR_5HT2C_ligand_DiffSBDD_2026-06-23_prepared.sdf

>  <GenAI_Model>  (1) 
DiffSBDD

>  <Protein>  (1) 
GPCR_5HT2C

$$$$
DiffSBDD_75
     RDKit          3D

  0  0  0  0  0  0  0  0  0  0999 V3000
M  V30 BEGIN CTAB
M  V30 COUNTS 77 78 0 0 1
M  V30 BEGIN ATOM
M  V30 1 C 39.246967 29.912939 61.408184 0
M  V30 2 C 36.126338 31.902396 60.993024 0
M  V30 3 O 40.274873 28.954216 58.027269 0
M  V30 4 C 40.649797 29.842061 64.951941 0
M  V30 5 C 39.020303 27.117111 56.314540 0 CFG=1
M  V30 6 C 39.335401 35.403120 61.234273 0
M  V30 7 C 39.392930 29.588958 57.111660 0 CFG=2
M  V30 8 C 38.100337 35.491810 60.559206 0
M  V30 9 O 38.051417 25.177625 55.230299 0
M  V30 10 C 38.940416 29.161628 54.642983 0 CFG=1
M  V30 11 O 37.352754 39.079336 60.968329 0
M  V30 12 S 37.571575 29.737491 59.229734 0
M  V30 13 C 42.024364 29.859725 65.639181 0
M  V30 14 C 37.986264 37.872523 61.072978 0
M  V30 15 C 38.437296 30.539708 57.852925 0
M  V30 16 C 40.083489 34.090434 61.279934 0
M  V30 17 C 39.883652 36.544107 61.847723 0
M  V30 18 O 37.100182 28.140328 53.367601 0
M  V30 19 C 38.363238 30.572454 54.383886 0
M  V30 20 C 38.678771 28.634509 56.097310 0 CFG=1
M  V30 21 O 42.778219 30.940686 65.129686 0
M  V30 22 O 37.132343 31.067496 61.556733 0
M  V30 23 O 41.680889 31.922992 62.168259 0
M  V30 24 C 41.007443 28.339936 63.020073 0
M  V30 25 N 40.788779 29.738212 63.474266 0 CFG=1 CHG=1
M  V30 26 C 40.478777 31.879490 62.429367 0
M  V30 27 C 37.426547 36.726412 60.477359 0
M  V30 28 C 39.651142 33.165807 62.422997 0
M  V30 29 C 39.769930 30.551160 62.728149 0 CFG=1
M  V30 30 C 39.211277 37.776654 61.767964 0
M  V30 31 C 39.028409 26.779561 53.726934 0
M  V30 32 C 38.160887 30.709102 60.649055 0 CFG=1
M  V30 33 C 38.398988 26.533418 57.611689 0
M  V30 34 C 38.504737 28.197155 53.516222 0 CFG=2
M  V30 35 C 38.638634 26.252053 55.101101 0
M  V30 36 H 40.076943 29.748599 60.719895 0
M  V30 37 H 38.845143 28.926759 61.631352 0
M  V30 38 H 35.433121 32.226513 61.767655 0
M  V30 39 H 36.553084 32.793279 60.537691 0
M  V30 40 H 35.537595 31.378198 60.240048 0
M  V30 41 H 40.872331 28.402229 57.545496 0
M  V30 42 H 40.125310 30.759991 65.223621 0
M  V30 43 H 40.045613 29.022109 65.341450 0
M  V30 44 H 40.045418 30.244798 56.543492 0
M  V30 45 H 37.679668 34.619064 60.086280 0
M  V30 46 H 38.629957 26.137907 52.947482 0
M  V30 47 H 40.020062 29.255377 54.539126 0
M  V30 48 H 36.626758 39.122134 60.353719 0
M  V30 49 H 41.904684 29.986012 66.716309 0
M  V30 50 H 42.570243 28.928291 65.486484 0
M  V30 51 H 37.690912 30.946477 57.170901 0
M  V30 52 H 38.998146 31.400368 58.209447 0
M  V30 53 H 39.959214 33.590307 60.319033 0
M  V30 54 H 41.147416 34.319265 61.367812 0
M  V30 55 H 40.829501 36.479174 62.366367 0
M  V30 56 H 36.890889 27.535570 52.668515 0
M  V30 57 H 37.280284 30.594714 54.513398 0
M  V30 58 H 38.783661 31.329649 55.044328 0
M  V30 59 H 38.581503 30.897967 53.367805 0
M  V30 60 H 37.606688 28.722005 56.262403 0
M  V30 61 H 43.584672 31.012479 65.621124 0
M  V30 62 H 40.108075 27.738752 63.149161 0
M  V30 63 H 41.312052 28.298038 61.974168 0
M  V30 64 H 41.805935 27.863285 63.588328 0
M  V30 65 H 36.487980 36.794281 59.946660 0
M  V30 66 H 39.794292 33.670707 63.376740 0
M  V30 67 H 38.590914 32.932624 62.347032 0
M  V30 68 H 38.910792 30.727753 63.375442 0
M  V30 69 H 39.645140 38.652996 62.223935 0
M  V30 70 H 40.113302 26.755100 53.643981 0
M  V30 71 H 40.103492 27.015250 56.384606 0
M  V30 72 H 38.593349 31.637843 60.282520 0
M  V30 73 H 38.617708 25.470578 57.723366 0
M  V30 74 H 38.779719 27.011823 58.511991 0
M  V30 75 H 37.314106 26.647086 57.620115 0
M  V30 76 H 38.900094 28.567544 52.569372 0
M  V30 77 H 41.656598 30.233270 63.292581 0
M  V30 END ATOM
M  V30 BEGIN BOND
M  V30 1 1 7 3
M  V30 2 1 8 6
M  V30 3 1 13 4
M  V30 4 1 14 11
M  V30 5 1 15 7
M  V30 6 1 15 12
M  V30 7 1 16 6
M  V30 8 2 17 6
M  V30 9 1 19 10
M  V30 10 1 20 5
M  V30 11 1 20 7
M  V30 12 1 20 10
M  V30 13 1 21 13
M  V30 14 1 22 2
M  V30 15 1 25 4
M  V30 16 1 25 24
M  V30 17 2 26 23
M  V30 18 2 27 8
M  V30 19 1 27 14
M  V30 20 1 28 16
M  V30 21 1 28 26
M  V30 22 1 29 1
M  V30 23 1 29 25
M  V30 24 1 29 26
M  V30 25 2 30 14
M  V30 26 1 30 17
M  V30 27 1 32 1
M  V30 28 1 32 12
M  V30 29 1 32 22
M  V30 30 1 33 5
M  V30 31 1 34 10
M  V30 32 1 34 18
M  V30 33 1 34 31
M  V30 34 1 35 5
M  V30 35 2 35 9
M  V30 36 1 35 31
M  V30 37 1 36 1
M  V30 38 1 37 1
M  V30 39 1 38 2
M  V30 40 1 39 2
M  V30 41 1 40 2
M  V30 42 1 41 3
M  V30 43 1 42 4
M  V30 44 1 43 4
M  V30 45 1 7 44 CFG=3
M  V30 46 1 45 8
M  V30 47 1 46 31
M  V30 48 1 10 47 CFG=1
M  V30 49 1 48 11
M  V30 50 1 49 13
M  V30 51 1 50 13
M  V30 52 1 51 15
M  V30 53 1 52 15
M  V30 54 1 53 16
M  V30 55 1 54 16
M  V30 56 1 55 17
M  V30 57 1 56 18
M  V30 58 1 57 19
M  V30 59 1 58 19
M  V30 60 1 59 19
M  V30 61 1 20 60 CFG=1
M  V30 62 1 61 21
M  V30 63 1 62 24
M  V30 64 1 63 24
M  V30 65 1 64 24
M  V30 66 1 65 27
M  V30 67 1 66 28
M  V30 68 1 67 28
M  V30 69 1 29 68 CFG=1
M  V30 70 1 69 30
M  V30 71 1 70 31
M  V30 72 1 5 71 CFG=1
M  V30 73 1 32 72 CFG=3
M  V30 74 1 73 33
M  V30 75 1 74 33
M  V30 76 1 75 33
M  V30 77 1 34 76 CFG=3
M  V30 78 1 25 77 CFG=1
M  V30 END BOND
M  V30 END CTAB
M  END
>  <i_epik_Tot_Q>  (1) 
1

>  <i_epik_Tot_abs_Q>  (1) 
1

>  <i_i_glide_confnum>  (1) 
2705

>  <i_i_glide_lignum>  (1) 
170

>  <i_i_glide_posenum>  (1) 
342

>  <i_i_glide_rotatable_bonds>  (1) 
18

>  <i_lp_mmshare_version>  (1) 
72125

>  <i_m_source_file_index>  (1) 
76

>  <i_f3d_flags>  (1) 
0

>  <num_sample>  (1) 
100

>  <b_lp_Chiralities_Consistent>  (1) 
1

>  <r_epik_Charging_Adjusted_Penalty>  (1) 
0.52789471212939676

>  <r_epik_Ionization_Penalty>  (1) 
0.26592108790513191

>  <r_epik_Ionization_Penalty_Charging>  (1) 
0.26394735606469838

>  <r_epik_Ionization_Penalty_Neutral>  (1) 
0.0019737318404335234

>  <r_epik_State_Penalty>  (1) 
0.26394735606469838

>  <r_glide_ring_energy>  (1) 
0

>  <r_i_docking_score>  (1) 
-8.0908350551029677

>  <r_i_glide_ecoul>  (1) 
-11.214571155197676

>  <r_i_glide_eff_state_penalty>  (1) 
0.26394735606469838

>  <r_i_glide_einternal>  (1) 
8.4301206251068717

>  <r_i_glide_emodel>  (1) 
-86.591329831054395

>  <r_i_glide_emodel_strain>  (1) 
0.21125809082624158

>  <r_i_glide_energy>  (1) 
-56.794707128225518

>  <r_i_glide_erotb>  (1) 
1.0139394581015995

>  <r_i_glide_esite>  (1) 
-0.030867345056575957

>  <r_i_glide_evdw>  (1) 
-45.580135973027843

>  <r_i_glide_gscore>  (1) 
-8.3547824111676654

>  <r_i_glide_gscore_strain>  (1) 
0

>  <r_i_glide_hbond>  (1) 
-0.71730530038665097

>  <r_i_glide_ligand_efficiency>  (1) 
-0.2311667158600848

>  <r_i_glide_ligand_efficiency_ln>  (1) 
-1.7761178610043673

>  <r_i_glide_ligand_efficiency_sa>  (1) 
-0.75616165628686183

>  <r_i_glide_lipo>  (1) 
-3.4281004450776349

>  <r_i_glide_metal>  (1) 
-0

>  <r_i_glide_rewards>  (1) 
-1.2312563068173603

>  <r_lp_Energy>  (1) 
23.611832

>  <r_lp_tautomer_probability>  (1) 
0.99989998499911525

>  <s_epik_Chemistry_Notes>  (1) 
This compound contains an acetal/aminal-like group ( X-CH(R)-Y where X, Y are N, S, or O) that may be acid/base labile, releasing an aldehyde.

>  <s_epik_cmdline>  (1) 
J2VwaWtfcHl0aG9uJywgJy1waHQnLCAnMS4wJywgJy1waCcsICc3LjQnLCAnLXRuJywgJzgnLCAnLW1hJywgJzUwMCcsICctaW1hZScsICc8aW5maWxlLm1hZT4nLCAnLW9tYWUnLCAnPG91dGZpbGUubWFlPic=

>  <s_epik_input>  (1) 
W2NIXTFbY0hdYyhbT0hdKVtjSF1bY0hdYzFbQ0gyXVtDSDJdQyg9TylbQ0BIXShOKFtDSDNdKVtDSDJdW0NIMl1bT0hdKVtDSDJdW0NASF0oT1tDSDNdKVNbQ0gyXVtDQEBIXShbT0hdKVtDQEhdMltDQEBIXShbQ0gzXSlbQ0BIXShbT0hdKVtDSDJdQyhbT0hdKT1DMltDSDNd

>  <s_glide_docking_method>  (1) 
confgen

>  <s_i_glide_gridfile>  (1) 
gpcr_5ht2c_6bqh_protein_autoprepared_prepared

>  <s_lp_Force_Field>  (1) 
S-OPLS

>  <s_lp_Variant>  (1) 
DiffSBDD_75-7

>  <s_m_source_file>  (1) 
generated_GPCR_5HT2C_ligand_DiffSBDD_2026-06-23_prepared.sdf

>  <GenAI_Model>  (1) 
DiffSBDD

>  <Protein>  (1) 
GPCR_5HT2C

$$$$
DiffSBDD_63
     RDKit          3D

  0  0  0  0  0  0  0  0  0  0999 V3000
M  V30 BEGIN CTAB
M  V30 COUNTS 83 88 0 0 1
M  V30 BEGIN ATOM
M  V30 1 F 37.754408 28.998133 53.993353 0
M  V30 2 C 38.198186 36.149620 61.193968 0
M  V30 3 C 38.936645 29.386750 54.475914 0 CFG=1
M  V30 4 C 41.926614 30.136452 66.569231 0
M  V30 5 C 39.223183 27.746827 58.191971 0
M  V30 6 C 39.024726 29.126401 60.377925 0 CFG=1
M  V30 7 N 38.775542 31.737594 54.165352 0 CHG=1
M  V30 8 C 41.997039 34.115236 64.006710 0
M  V30 9 C 40.065096 37.050927 62.569280 0
M  V30 10 C 40.132139 33.112441 62.564755 0 CFG=2
M  V30 11 C 41.515933 32.892959 63.240121 0 CFG=2
M  V30 12 C 38.252844 27.753085 57.005416 0
M  V30 13 C 41.405567 35.314443 63.936082 0
M  V30 14 C 38.795718 34.915938 61.189648 0
M  V30 15 N 37.050152 36.205682 60.394475 0
M  V30 16 N 37.901082 29.747371 58.191180 0 CHG=1
M  V30 17 C 37.855893 29.226714 56.819311 0 CFG=1
M  V30 18 C 43.568909 28.871707 65.078596 0
M  V30 19 C 35.546093 34.819949 58.979826 0
M  V30 20 O 41.193009 28.137839 60.672798 0
M  V30 21 O 39.983387 32.145948 61.532990 0
M  V30 22 S 37.930625 33.803425 60.157667 0
M  V30 23 C 38.226500 31.428957 55.496463 0 CFG=2
M  V30 24 C 39.081934 29.137631 58.835363 0 CFG=2
M  V30 25 C 38.562291 32.545054 56.496848 0
M  V30 26 C 40.036010 34.534639 61.948483 0 CFG=1
M  V30 27 C 40.405731 29.018912 60.991144 0
M  V30 28 C 36.754946 35.043641 59.818427 0
M  V30 29 O 41.512076 28.974562 67.257754 0
M  V30 30 C 42.348426 29.807312 65.124280 0 CFG=2
M  V30 31 C 42.632181 31.094110 64.336907 0
M  V30 32 C 39.593267 30.879478 61.961458 0 CFG=2
M  V30 33 O 41.406457 31.773132 64.106902 0
M  V30 34 C 40.186892 35.590587 63.084112 0 CFG=2
M  V30 35 O 40.647658 29.976369 61.883828 0
M  V30 36 C 39.449141 30.543218 53.629298 0
M  V30 37 C 38.505631 30.410650 60.997232 0
M  V30 38 C 38.767630 30.027691 55.858867 0 CFG=2
M  V30 39 C 38.668030 37.342470 61.955426 0
M  V30 40 H 39.607149 28.526623 54.464234 0
M  V30 41 H 41.102342 30.850922 66.575187 0
M  V30 42 H 42.750261 30.597424 67.115799 0
M  V30 43 H 40.250352 27.573081 57.866973 0
M  V30 44 H 38.965629 26.946081 58.886865 0
M  V30 45 H 38.445060 28.272949 60.723117 0
M  V30 46 H 39.434547 32.501783 54.218490 0
M  V30 47 H 42.861826 33.985054 64.636723 0
M  V30 48 H 40.271588 37.765948 63.364584 0
M  V30 49 H 40.830851 37.205036 61.807854 0
M  V30 50 H 39.327795 33.014715 63.296760 0
M  V30 51 H 42.250625 32.701984 62.455182 0
M  V30 52 H 38.670989 27.276266 56.120402 0
M  V30 53 H 37.366901 27.175356 57.273883 0
M  V30 54 H 41.796833 36.137706 64.513201 0
M  V30 55 H 37.070114 29.426948 58.667534 0
M  V30 56 H 36.845025 29.337739 56.452136 0
M  V30 57 H 44.437366 29.322739 65.559601 0
M  V30 58 H 43.362499 27.927701 65.582600 0
M  V30 59 H 43.844450 28.635625 64.049761 0
M  V30 60 H 34.753829 34.379026 59.584571 0
M  V30 61 H 35.189548 35.762945 58.567905 0
M  V30 62 H 35.779421 34.134333 58.167180 0
M  V30 63 H 37.145093 31.377345 55.367813 0
M  V30 64 H 39.936785 29.739562 58.522125 0
M  V30 65 H 38.100923 32.364685 57.465237 0
M  V30 66 H 39.637497 32.648629 56.647041 0
M  V30 67 H 38.180340 33.505701 56.149794 0
M  V30 68 H 40.877351 34.649569 61.263065 0
M  V30 69 H 40.725097 28.638122 66.855656 0
M  V30 70 H 41.521736 29.294539 64.629422 0
M  V30 71 H 43.330881 31.730077 64.881207 0
M  V30 72 H 43.092894 30.839596 63.381013 0
M  V30 73 H 39.226331 30.887446 62.990095 0
M  V30 74 H 39.350878 35.461366 63.767687 0
M  V30 75 H 40.523540 30.663686 53.771418 0
M  V30 76 H 39.263516 30.405474 52.564299 0
M  V30 77 H 37.582246 30.268157 61.550762 0
M  V30 78 H 38.325636 31.174728 60.249520 0
M  V30 79 H 39.767289 30.128795 56.282874 0
M  V30 80 H 37.955677 37.557902 62.752043 0
M  V30 81 H 38.708815 38.221743 61.317390 0
M  V30 82 H 37.916688 30.757573 58.211874 0
M  V30 83 H 38.013953 32.007352 53.556492 0
M  V30 END ATOM
M  V30 BEGIN BOND
M  V30 1 1 3 1
M  V30 2 1 11 8
M  V30 3 1 11 10
M  V30 4 1 12 5
M  V30 5 2 13 8
M  V30 6 2 14 2
M  V30 7 1 15 2
M  V30 8 1 17 12
M  V30 9 1 17 16
M  V30 10 1 21 10
M  V30 11 1 22 14
M  V30 12 1 23 7
M  V30 13 1 24 5
M  V30 14 1 24 6
M  V30 15 1 24 16
M  V30 16 1 25 23
M  V30 17 1 26 10
M  V30 18 1 26 14
M  V30 19 1 27 6
M  V30 20 2 27 20
M  V30 21 2 28 15
M  V30 22 1 28 19
M  V30 23 1 28 22
M  V30 24 1 29 4
M  V30 25 1 30 4
M  V30 26 1 30 18
M  V30 27 1 31 30
M  V30 28 1 32 21
M  V30 29 1 33 11
M  V30 30 1 33 31
M  V30 31 1 34 9
M  V30 32 1 34 13
M  V30 33 1 34 26
M  V30 34 1 35 27
M  V30 35 1 35 32
M  V30 36 1 36 3
M  V30 37 1 36 7
M  V30 38 1 37 6
M  V30 39 1 37 32
M  V30 40 1 38 3
M  V30 41 1 38 17
M  V30 42 1 38 23
M  V30 43 1 39 2
M  V30 44 1 39 9
M  V30 45 1 3 40 CFG=1
M  V30 46 1 41 4
M  V30 47 1 42 4
M  V30 48 1 43 5
M  V30 49 1 44 5
M  V30 50 1 6 45 CFG=3
M  V30 51 1 46 7
M  V30 52 1 47 8
M  V30 53 1 48 9
M  V30 54 1 49 9
M  V30 55 1 10 50 CFG=1
M  V30 56 1 11 51 CFG=3
M  V30 57 1 52 12
M  V30 58 1 53 12
M  V30 59 1 54 13
M  V30 60 1 55 16
M  V30 61 1 17 56 CFG=3
M  V30 62 1 57 18
M  V30 63 1 58 18
M  V30 64 1 59 18
M  V30 65 1 60 19
M  V30 66 1 61 19
M  V30 67 1 62 19
M  V30 68 1 23 63 CFG=3
M  V30 69 1 24 64 CFG=1
M  V30 70 1 65 25
M  V30 71 1 66 25
M  V30 72 1 67 25
M  V30 73 1 26 68 CFG=3
M  V30 74 1 69 29
M  V30 75 1 30 70 CFG=3
M  V30 76 1 71 31
M  V30 77 1 72 31
M  V30 78 1 32 73 CFG=1
M  V30 79 1 34 74 CFG=1
M  V30 80 1 75 36
M  V30 81 1 76 36
M  V30 82 1 77 37
M  V30 83 1 78 37
M  V30 84 1 38 79 CFG=1
M  V30 85 1 80 39
M  V30 86 1 81 39
M  V30 87 1 82 16
M  V30 88 1 83 7
M  V30 END BOND
M  V30 END CTAB
M  END
>  <i_epik_Tot_Q>  (1) 
2

>  <i_epik_Tot_abs_Q>  (1) 
2

>  <i_i_glide_confnum>  (1) 
1768

>  <i_i_glide_lignum>  (1) 
141

>  <i_i_glide_posenum>  (1) 
115

>  <i_i_glide_rotatable_bonds>  (1) 
9

>  <i_lp_mmshare_version>  (1) 
72125

>  <i_m_source_file_index>  (1) 
64

>  <i_f3d_flags>  (1) 
0

>  <num_sample>  (1) 
100

>  <b_lp_Chiralities_Consistent>  (1) 
1

>  <r_epik_Charging_Adjusted_Penalty>  (1) 
0.080070908620723774

>  <r_epik_Ionization_Penalty>  (1) 
0.041568301575603359

>  <r_epik_Ionization_Penalty_Charging>  (1) 
0.040241786303222601

>  <r_epik_Ionization_Penalty_Neutral>  (1) 
0.0013265152723807572

>  <r_epik_State_Penalty>  (1) 
0.039829122317501166

>  <r_glide_ring_energy>  (1) 
0.79944395753776409

>  <r_i_docking_score>  (1) 
-8.069559881136783

>  <r_i_glide_ecoul>  (1) 
-3.0748896780455937

>  <r_i_glide_eff_state_penalty>  (1) 
0.039829122317501166

>  <r_i_glide_einternal>  (1) 
10.039068070749121

>  <r_i_glide_emodel>  (1) 
-70.978020226930596

>  <r_i_glide_emodel_strain>  (1) 
0.10025228189616087

>  <r_i_glide_energy>  (1) 
-50.854050188400365

>  <r_i_glide_erotb>  (1) 
0.43483266289788453

>  <r_i_glide_esite>  (1) 
-0.033679628547576959

>  <r_i_glide_evdw>  (1) 
-47.779160510354771

>  <r_i_glide_gscore>  (1) 
-8.1093890034542842

>  <r_i_glide_gscore_strain>  (1) 
0

>  <r_i_glide_hbond>  (1) 
-0.22635696969427391

>  <r_i_glide_ligand_efficiency>  (1) 
-0.20691179182402009

>  <r_i_glide_ligand_efficiency_ln>  (1) 
-1.7303427065950381

>  <r_i_glide_ligand_efficiency_sa>  (1) 
-0.70168163612818213

>  <r_i_glide_lipo>  (1) 
-3.7394139105964794

>  <r_i_glide_metal>  (1) 
-0

>  <r_i_glide_rewards>  (1) 
-1.6945796802892601

>  <r_lp_Energy>  (1) 
21.205790999999998

>  <s_epik_Chemistry_Notes>  (1) 
This compound has an ester and may undergo hydrolysis at high or low pH. This compound contains an acetal/aminal-like group ( X-CH(R)-Y where X, Y are N, S, or O) that may be acid/base labile, releasing an aldehyde.

>  <s_epik_cmdline>  (1) 
J2VwaWtfcHl0aG9uJywgJy1waHQnLCAnMS4wJywgJy1waCcsICc3LjQnLCAnLXRuJywgJzgnLCAnLW1hJywgJzUwMCcsICctaW1hZScsICc8aW5maWxlLm1hZT4nLCAnLW9tYWUnLCAnPG91dGZpbGUubWFlPic=

>  <s_epik_input>  (1) 
RltDQEhdMVtDSDJdW05IXVtDQEhdKFtDSDNdKVtDQEhdMVtDQEhdMltDSDJdW0NIMl1bQ0BASF0oW05IXTIpW0NASF0zQyg9TylPW0NASF0oW0NIMl0zKU9bQ0BIXTRbQ0BIXShPW0NIMl1bQ0BASF0oW0NIM10pW0NIMl1bT0hdKVtDSF09W0NIXVtDQEBIXShbQ0gyXVtDSDJdNSlbQ0BASF00YyhjNTYpc2MobjYpW0NIM10=

>  <s_glide_docking_method>  (1) 
confgen

>  <s_i_glide_gridfile>  (1) 
gpcr_5ht2c_6bqh_protein_autoprepared_prepared

>  <s_lp_Force_Field>  (1) 
S-OPLS

>  <s_lp_Variant>  (1) 
DiffSBDD_63-3

>  <s_m_source_file>  (1) 
generated_GPCR_5HT2C_ligand_DiffSBDD_2026-06-23_prepared.sdf

>  <GenAI_Model>  (1) 
DiffSBDD

>  <Protein>  (1) 
GPCR_5HT2C

$$$$
DiffSBDD_7
     RDKit          3D

  0  0  0  0  0  0  0  0  0  0999 V3000
M  V30 BEGIN CTAB
M  V30 COUNTS 75 77 0 0 1
M  V30 BEGIN ATOM
M  V30 1 C 41.268736 28.475227 58.161393 0
M  V30 2 C 37.435692 37.119898 61.364703 0
M  V30 3 O 36.845067 38.290067 61.746427 0
M  V30 4 C 37.090639 30.647519 60.077576 0 CFG=1
M  V30 5 C 39.040992 28.664069 56.752386 0 CFG=1
M  V30 6 C 39.645101 30.046391 52.801828 0
M  V30 7 O 36.241198 30.012269 59.145781 0
M  V30 8 C 40.027265 29.170645 51.767460 0
M  V30 9 C 37.807874 28.554228 53.382133 0
M  V30 10 C 38.530076 29.743557 53.617343 0
M  V30 11 C 37.443223 35.121139 59.964328 0
M  V30 12 C 38.198967 27.679941 52.353427 0
M  V30 13 C 38.653345 34.705658 60.567497 0
M  V30 14 C 39.699493 28.776109 60.649618 0
M  V30 15 N 38.441570 30.561131 59.521549 0
M  V30 16 S 37.836899 29.997213 56.349761 0 CHG=1
M  V30 17 O 38.281398 26.584157 57.956734 0
M  V30 18 C 39.832189 29.075844 58.054258 0 CFG=1
M  V30 19 C 38.849453 26.247254 55.701022 0
M  V30 20 C 38.635159 36.702014 61.973572 0
M  V30 21 C 36.845312 36.331735 60.361705 0
M  V30 22 C 38.103430 30.695287 54.689472 0 CFG=1
M  V30 23 C 41.435690 26.964771 58.019127 0
M  V30 24 C 39.305418 27.986799 51.545890 0
M  V30 25 C 35.243757 32.288658 60.783521 0
M  V30 26 O 40.387982 29.561400 61.302224 0
M  V30 27 C 36.676464 32.124002 60.262863 0 CFG=2
M  V30 28 C 38.844982 32.620498 56.321524 0
M  V30 29 O 37.818337 25.334051 55.378910 0
M  V30 30 C 36.785528 34.282557 58.870298 0
M  V30 31 C 38.308190 27.269323 56.725135 0 CFG=2
M  V30 32 N 36.861161 32.807460 58.967754 0 CHG=1
M  V30 33 C 38.961275 29.182284 59.366787 0 CFG=1
M  V30 34 C 39.032634 31.238792 55.738683 0 CFG=1
M  V30 35 C 39.245512 35.496525 61.573062 0
M  V30 36 H 41.778156 28.816454 59.061602 0
M  V30 37 H 41.872347 28.898844 57.368576 0
M  V30 38 H 36.150566 38.579377 61.171328 0
M  V30 39 H 37.054603 30.137781 61.034127 0
M  V30 40 H 39.760424 28.655277 55.933892 0
M  V30 41 H 40.201017 30.959748 52.965170 0
M  V30 42 H 35.381061 29.906810 59.526649 0
M  V30 43 H 40.876543 29.408853 51.144083 0
M  V30 44 H 36.947844 28.314420 53.990490 0
M  V30 45 H 37.644645 26.772601 52.181294 0
M  V30 46 H 39.125964 33.784799 60.260614 0
M  V30 47 H 39.536339 27.738261 60.933680 0
M  V30 48 H 39.075340 31.065835 60.130590 0
M  V30 49 H 37.877490 25.741464 57.797284 0
M  V30 50 H 40.098678 30.113702 57.867125 0
M  V30 51 H 39.700940 25.685068 56.081432 0
M  V30 52 H 39.179915 26.731954 54.785780 0
M  V30 53 H 39.090274 37.307645 62.744910 0
M  V30 54 H 35.926978 36.655309 59.894541 0
M  V30 55 H 37.235917 31.286073 54.400898 0
M  V30 56 H 42.421471 26.655816 58.370761 0
M  V30 57 H 41.375816 26.681906 56.972123 0
M  V30 58 H 40.689145 26.401424 58.567757 0
M  V30 59 H 39.599439 27.313009 50.753090 0
M  V30 60 H 35.091091 31.725280 61.704209 0
M  V30 61 H 34.509452 31.945652 60.052887 0
M  V30 62 H 35.019022 33.333541 61.001456 0
M  V30 63 H 37.343077 32.544069 61.011928 0
M  V30 64 H 39.415795 33.342618 55.738851 0
M  V30 65 H 39.208235 32.647499 57.348694 0
M  V30 66 H 37.795226 32.914019 56.294016 0
M  V30 67 H 38.139752 24.718498 54.735728 0
M  V30 68 H 37.244843 34.559509 57.922435 0
M  V30 69 H 35.731198 34.553337 58.797200 0
M  V30 70 H 37.259034 27.437104 56.484011 0
M  V30 71 H 37.778925 32.531445 58.654678 0
M  V30 72 H 38.115148 28.508406 59.274409 0
M  V30 73 H 40.052575 30.866470 55.725600 0
M  V30 74 H 40.168472 35.180163 62.036935 0
M  V30 75 H 36.200912 32.408126 58.295641 0
M  V30 END ATOM
M  V30 BEGIN BOND
M  V30 1 1 3 2
M  V30 2 1 7 4
M  V30 3 1 8 6
M  V30 4 2 10 6
M  V30 5 1 10 9
M  V30 6 2 12 9
M  V30 7 2 13 11
M  V30 8 1 15 4
M  V30 9 1 16 5
M  V30 10 1 18 1
M  V30 11 1 18 5
M  V30 12 1 20 2
M  V30 13 2 21 2
M  V30 14 1 21 11
M  V30 15 1 22 10
M  V30 16 1 16 22 CFG=3
M  V30 17 1 23 1
M  V30 18 2 24 8
M  V30 19 1 24 12
M  V30 20 2 26 14
M  V30 21 1 27 4
M  V30 22 1 27 25
M  V30 23 1 29 19
M  V30 24 1 30 11
M  V30 25 1 31 5
M  V30 26 1 31 17
M  V30 27 1 31 19
M  V30 28 1 32 27
M  V30 29 1 32 30
M  V30 30 1 33 14
M  V30 31 1 33 15
M  V30 32 1 33 18
M  V30 33 1 34 16
M  V30 34 1 34 22
M  V30 35 1 34 28
M  V30 36 1 35 13
M  V30 37 2 35 20
M  V30 38 1 36 1
M  V30 39 1 37 1
M  V30 40 1 38 3
M  V30 41 1 4 39 CFG=1
M  V30 42 1 5 40 CFG=3
M  V30 43 1 41 6
M  V30 44 1 42 7
M  V30 45 1 43 8
M  V30 46 1 44 9
M  V30 47 1 45 12
M  V30 48 1 46 13
M  V30 49 1 47 14
M  V30 50 1 48 15
M  V30 51 1 49 17
M  V30 52 1 18 50 CFG=3
M  V30 53 1 51 19
M  V30 54 1 52 19
M  V30 55 1 53 20
M  V30 56 1 54 21
M  V30 57 1 22 55 CFG=3
M  V30 58 1 56 23
M  V30 59 1 57 23
M  V30 60 1 58 23
M  V30 61 1 59 24
M  V30 62 1 60 25
M  V30 63 1 61 25
M  V30 64 1 62 25
M  V30 65 1 27 63 CFG=1
M  V30 66 1 64 28
M  V30 67 1 65 28
M  V30 68 1 66 28
M  V30 69 1 67 29
M  V30 70 1 68 30
M  V30 71 1 69 30
M  V30 72 1 31 70 CFG=3
M  V30 73 1 71 32
M  V30 74 1 33 72 CFG=3
M  V30 75 1 34 73 CFG=3
M  V30 76 1 74 35
M  V30 77 1 75 32
M  V30 END BOND
M  V30 END CTAB
M  END
>  <i_epik_Tot_Q>  (1) 
2

>  <i_epik_Tot_abs_Q>  (1) 
2

>  <i_i_glide_confnum>  (1) 
391

>  <i_i_glide_lignum>  (1) 
10

>  <i_i_glide_posenum>  (1) 
10

>  <i_i_glide_rotatable_bonds>  (1) 
18

>  <i_lp_mmshare_version>  (1) 
72125

>  <i_m_source_file_index>  (1) 
8

>  <i_f3d_flags>  (1) 
0

>  <num_sample>  (1) 
100

>  <b_lp_Chiralities_Consistent>  (1) 
1

>  <r_epik_Charging_Adjusted_Penalty>  (1) 
0.016656697635693843

>  <r_epik_Ionization_Penalty>  (1) 
0.030146097982287068

>  <r_epik_Ionization_Penalty_Charging>  (1) 
0.016656697635693843

>  <r_epik_Ionization_Penalty_Neutral>  (1) 
0.013489400346593225

>  <r_epik_State_Penalty>  (1) 
-0

>  <r_glide_ring_energy>  (1) 
0

>  <r_i_docking_score>  (1) 
-8.0689656381253965

>  <r_i_glide_ecoul>  (1) 
-5.7286867335992824

>  <r_i_glide_eff_state_penalty>  (1) 
-0

>  <r_i_glide_einternal>  (1) 
11.096775817919516

>  <r_i_glide_emodel>  (1) 
-87.520649695281847

>  <r_i_glide_emodel_strain>  (1) 
5.1744370283771985

>  <r_i_glide_energy>  (1) 
-55.961432605599015

>  <r_i_glide_erotb>  (1) 
0.96334785482901231

>  <r_i_glide_esite>  (1) 
-0.19748299077322376

>  <r_i_glide_evdw>  (1) 
-50.232745871999732

>  <r_i_glide_gscore>  (1) 
-8.0689656381253965

>  <r_i_glide_gscore_strain>  (1) 
0.29360925709429964

>  <r_i_glide_hbond>  (1) 
-0.28030588333510426

>  <r_i_glide_ligand_efficiency>  (1) 
-0.23054187537501133

>  <r_i_glide_ligand_efficiency_ln>  (1) 
-1.7713170386122314

>  <r_i_glide_ligand_efficiency_sa>  (1) 
-0.75411776162689614

>  <r_i_glide_lipo>  (1) 
-4.2286334596576722

>  <r_i_glide_metal>  (1) 
-0

>  <r_i_glide_rewards>  (1) 
-1.2485601126428278

>  <r_lp_Energy>  (1) 
35.191997999999998

>  <r_lp_tautomer_probability>  (1) 
1

>  <s_epik_Chemistry_Notes>  (1) 
This compound contains an acetal/aminal-like group ( X-CH(R)-Y where X, Y are N, S, or O) that may be acid/base labile, releasing an aldehyde.

>  <s_epik_cmdline>  (1) 
J2VwaWtfcHl0aG9uJywgJy1waHQnLCAnMS4wJywgJy1waCcsICc3LjQnLCAnLXRuJywgJzgnLCAnLW1hJywgJzUwMCcsICctaW1hZScsICc8aW5maWxlLm1hZT4nLCAnLW9tYWUnLCAnPG91dGZpbGUubWFlPic=

>  <s_epik_input>  (1) 
W2NIXTFbY0hdW2NIXVtjSF1bY0hdYzFbQ0BIXShbQ0BIXTJbQ0gzXSlbUytdMltDQEhdKFtDQEhdKFtPSF0pW0NIMl1bT0hdKVtDQEhdKFtDSDJdW0NIM10pW0NAQEhdKFtDSF09TylbTkhdW0NASF0oW09IXSlbQ0BIXShbQ0gzXSlbTkhdW0NIMl1jKFtjSF0zKVtjSF1bY0hdW2NIXWMzW09IXQ==

>  <s_glide_docking_method>  (1) 
confgen

>  <s_i_glide_gridfile>  (1) 
gpcr_5ht2c_6bqh_protein_autoprepared_prepared

>  <s_lp_Force_Field>  (1) 
S-OPLS

>  <s_lp_Variant>  (1) 
DiffSBDD_7-1

>  <s_m_source_file>  (1) 
generated_GPCR_5HT2C_ligand_DiffSBDD_2026-06-23_prepared.sdf

>  <GenAI_Model>  (1) 
DiffSBDD

>  <Protein>  (1) 
GPCR_5HT2C

$$$$
DiffSBDD_50
     RDKit          3D

  0  0  0  0  0  0  0  0  0  0999 V3000
M  V30 BEGIN CTAB
M  V30 COUNTS 65 68 0 0 1
M  V30 BEGIN ATOM
M  V30 1 C 39.824949 27.370870 58.041343 0 CFG=2
M  V30 2 F 39.294655 27.250755 51.718124 0
M  V30 3 C 39.245244 30.509069 60.034852 0
M  V30 4 O 41.245108 29.514811 61.795252 0 CHG=-1
M  V30 5 O 40.260708 31.200409 63.584142 0
M  V30 6 O 39.790975 31.525363 60.812373 0
M  V30 7 S 37.646631 29.337402 58.213781 0
M  V30 8 C 39.747734 27.595346 56.514309 0
M  V30 9 C 39.063126 33.807894 61.206643 0 CFG=2
M  V30 10 O 36.845163 25.286069 55.752244 0
M  V30 11 C 39.855953 32.425118 63.018644 0 CFG=1
M  V30 12 C 40.938906 35.672808 61.397066 0
M  V30 13 C 38.214091 25.430363 57.744660 0
M  V30 14 C 38.425002 27.104033 55.826999 0 CFG=2
M  V30 15 C 39.674537 29.607975 51.830124 0
M  V30 16 C 40.845138 28.682608 60.872515 0
M  V30 17 C 38.145353 25.630586 56.222037 0 CFG=2
M  V30 18 C 36.607488 23.893269 55.605436 0
M  V30 19 F 39.107000 31.967476 54.584501 0
M  V30 20 C 38.731685 29.615430 54.482552 0
M  V30 21 C 40.146581 34.530587 62.054738 0 CFG=2
M  V30 22 C 39.574472 25.885291 58.297881 0
M  V30 23 C 39.645164 30.806834 52.567511 0
M  V30 24 C 40.974004 33.405248 62.676138 0
M  V30 25 C 38.969706 28.264882 59.038861 0 CFG=2
M  V30 26 C 38.801146 28.395864 53.762017 0
M  V30 27 C 39.046394 32.325432 61.707992 0 CFG=2
M  V30 28 C 39.689870 29.245793 60.002043 0
M  V30 29 N 38.442057 27.168193 54.357556 0
M  V30 30 C 39.249628 28.404995 52.424593 0
M  V30 31 C 39.160004 30.811113 53.886657 0
M  V30 32 O 37.722597 31.895159 61.964654 0
M  V30 33 O 37.627308 31.875307 59.011702 0
M  V30 34 O 39.295314 33.916659 59.819418 0
M  V30 35 C 38.167607 30.779098 59.145579 0
M  V30 36 H 40.879575 27.528456 58.251874 0
M  V30 37 H 40.604468 30.618819 62.886636 0
M  V30 38 H 40.001198 28.637125 56.348525 0
M  V30 39 H 40.571789 27.045776 56.056594 0
M  V30 40 H 38.096075 34.266159 61.417344 0
M  V30 41 H 39.245122 32.915214 63.767838 0
M  V30 42 H 41.555458 35.337788 60.567799 0
M  V30 43 H 40.260441 36.434706 61.016156 0
M  V30 44 H 41.597651 36.150986 62.122956 0
M  V30 45 H 38.045874 24.386983 58.008732 0
M  V30 46 H 37.406101 25.999154 58.199649 0
M  V30 47 H 37.591392 27.699382 56.174176 0
M  V30 48 H 40.032313 29.609929 50.810480 0
M  V30 49 H 40.446592 27.723946 61.202430 0
M  V30 50 H 41.584786 28.343058 60.150486 0
M  V30 51 H 38.893979 24.994222 55.744671 0
M  V30 52 H 35.641052 23.737736 55.126998 0
M  V30 53 H 37.366424 23.417865 54.982016 0
M  V30 54 H 36.570437 23.385189 56.567875 0
M  V30 55 H 38.363044 29.634497 55.493913 0
M  V30 56 H 39.612091 35.003344 62.881105 0
M  V30 57 H 40.369812 25.287166 57.851757 0
M  V30 58 H 39.645383 25.737736 59.367794 0
M  V30 59 H 39.976955 31.729513 52.112482 0
M  V30 60 H 41.676197 32.977163 61.958715 0
M  V30 61 H 41.531794 33.732582 63.553468 0
M  V30 62 H 38.443358 27.595251 59.716168 0
M  V30 63 H 38.608798 26.313596 53.843804 0
M  V30 64 H 37.245219 31.981614 61.151077 0
M  V30 65 H 38.697274 33.324513 59.375670 0
M  V30 END ATOM
M  V30 BEGIN BOND
M  V30 1 1 6 3
M  V30 2 1 8 1
M  V30 3 1 11 5
M  V30 4 1 14 8
M  V30 5 1 16 4
M  V30 6 1 17 10
M  V30 7 1 17 13
M  V30 8 1 17 14
M  V30 9 1 18 10
M  V30 10 1 21 9
M  V30 11 1 21 12
M  V30 12 1 22 1
M  V30 13 1 22 13
M  V30 14 2 23 15
M  V30 15 1 24 11
M  V30 16 1 24 21
M  V30 17 1 25 1
M  V30 18 1 25 7
M  V30 19 1 26 20
M  V30 20 1 27 6 CFG=3
M  V30 21 1 27 9
M  V30 22 1 27 11
M  V30 23 2 28 3
M  V30 24 1 28 16
M  V30 25 1 28 25
M  V30 26 1 29 14
M  V30 27 1 29 26
M  V30 28 1 30 2
M  V30 29 1 30 15
M  V30 30 2 30 26
M  V30 31 1 31 19
M  V30 32 2 31 20
M  V30 33 1 31 23
M  V30 34 1 32 27
M  V30 35 1 34 9
M  V30 36 1 35 3
M  V30 37 1 35 7
M  V30 38 2 35 33
M  V30 39 1 1 36 CFG=1
M  V30 40 1 37 5
M  V30 41 1 38 8
M  V30 42 1 39 8
M  V30 43 1 9 40 CFG=3
M  V30 44 1 11 41 CFG=1
M  V30 45 1 42 12
M  V30 46 1 43 12
M  V30 47 1 44 12
M  V30 48 1 45 13
M  V30 49 1 46 13
M  V30 50 1 14 47 CFG=1
M  V30 51 1 48 15
M  V30 52 1 49 16
M  V30 53 1 50 16
M  V30 54 1 17 51 CFG=3
M  V30 55 1 52 18
M  V30 56 1 53 18
M  V30 57 1 54 18
M  V30 58 1 55 20
M  V30 59 1 21 56 CFG=1
M  V30 60 1 57 22
M  V30 61 1 58 22
M  V30 62 1 59 23
M  V30 63 1 60 24
M  V30 64 1 61 24
M  V30 65 1 25 62 CFG=1
M  V30 66 1 63 29
M  V30 67 1 64 32
M  V30 68 1 65 34
M  V30 END BOND
M  V30 END CTAB
M  END
>  <i_epik_Tot_Q>  (1) 
-1

>  <i_epik_Tot_abs_Q>  (1) 
1

>  <i_i_glide_confnum>  (1) 
113

>  <i_i_glide_lignum>  (1) 
106

>  <i_i_glide_posenum>  (1) 
142

>  <i_i_glide_rotatable_bonds>  (1) 
10

>  <i_lp_mmshare_version>  (1) 
72125

>  <i_m_source_file_index>  (1) 
51

>  <i_f3d_flags>  (1) 
0

>  <num_sample>  (1) 
100

>  <b_lp_Chiralities_Consistent>  (1) 
1

>  <r_epik_Charging_Adjusted_Penalty>  (1) 
1.033121990919972

>  <r_epik_Ionization_Penalty>  (1) 
0.51659959183111048

>  <r_epik_Ionization_Penalty_Charging>  (1) 
0.51656099545998602

>  <r_epik_Ionization_Penalty_Neutral>  (1) 
3.8596371124435187e-05

>  <r_epik_State_Penalty>  (1) 
0.51656099545998602

>  <r_glide_ring_energy>  (1) 
0.22530562285131159

>  <r_i_docking_score>  (1) 
-8.0533842639762359

>  <r_i_glide_ecoul>  (1) 
-2.8665721786272798

>  <r_i_glide_eff_state_penalty>  (1) 
0.51656099545998602

>  <r_i_glide_einternal>  (1) 
27.562490727949978

>  <r_i_glide_emodel>  (1) 
-53.590702599652701

>  <r_i_glide_emodel_strain>  (1) 
5.7941975627629176

>  <r_i_glide_energy>  (1) 
-50.062328138681679

>  <r_i_glide_erotb>  (1) 
0.38736490325272716

>  <r_i_glide_esite>  (1) 
-0.031067216950968653

>  <r_i_glide_evdw>  (1) 
-47.195755960054399

>  <r_i_glide_gscore>  (1) 
-8.5699452594362224

>  <r_i_glide_gscore_strain>  (1) 
0.44854939069072941

>  <r_i_glide_hbond>  (1) 
-0.28161714606112986

>  <r_i_glide_ligand_efficiency>  (1) 
-0.23009669325646387

>  <r_i_glide_ligand_efficiency_ln>  (1) 
-1.7678965811765233

>  <r_i_glide_ligand_efficiency_sa>  (1) 
-0.75266154139701713

>  <r_i_glide_lipo>  (1) 
-5.0145351404666751

>  <r_i_glide_metal>  (1) 
-0

>  <r_i_glide_rewards>  (1) 
-1.2888664251040933

>  <r_lp_Energy>  (1) 
68.171737999999991

>  <r_lp_tautomer_probability>  (1) 
0.99999998906363929

>  <s_epik_cmdline>  (1) 
J2VwaWtfcHl0aG9uJywgJy1waHQnLCAnMS4wJywgJy1waCcsICc3LjQnLCAnLXRuJywgJzgnLCAnLW1hJywgJzUwMCcsICctaW1hZScsICc8aW5maWxlLm1hZT4nLCAnLW9tYWUnLCAnPG91dGZpbGUubWFlPic=

>  <s_epik_input>  (1) 
W09IXVtDQEhdMVtDSDJdW0NAQEhdKFtDSDNdKVtDQEBIXShbT0hdKVtDQEBdMShbT0hdKU9DMj1DKFtDSDJdW09IXSlbQ0BASF0oU0MyPU8pW0NAQEhdM1tDSDJdW0NASF0oW0NASF0oT1tDSDNdKVtDSDJdW0NIMl0zKVtOSF1jNFtjSF1jKEYpW2NIXVtjSF1jNEY=

>  <s_glide_docking_method>  (1) 
confgen

>  <s_i_glide_gridfile>  (1) 
gpcr_5ht2c_6bqh_protein_autoprepared_prepared

>  <s_lp_Force_Field>  (1) 
S-OPLS

>  <s_lp_Variant>  (1) 
DiffSBDD_50-4

>  <s_m_source_file>  (1) 
generated_GPCR_5HT2C_ligand_DiffSBDD_2026-06-23_prepared.sdf

>  <GenAI_Model>  (1) 
DiffSBDD

>  <Protein>  (1) 
GPCR_5HT2C

$$$$
DiffSBDD_16
     RDKit          3D

  0  0  0  0  0  0  0  0  0  0999 V3000
M  V30 BEGIN CTAB
M  V30 COUNTS 70 74 0 0 1
M  V30 BEGIN ATOM
M  V30 1 C 39.246285 28.626897 53.049607 0
M  V30 2 C 40.576382 33.092004 61.659528 0
M  V30 3 C 37.912589 29.339014 58.628778 0 CFG=1
M  V30 4 C 37.215031 30.543385 58.054334 0
M  V30 5 C 39.830814 29.957571 51.078146 0
M  V30 6 C 39.645208 28.846469 50.256977 0
M  V30 7 C 36.845128 25.509554 55.280058 0
M  V30 8 C 37.905896 24.565889 55.818342 0
M  V30 9 C 38.942861 28.742483 57.645908 0
M  V30 10 C 39.269170 27.620832 50.810115 0
M  V30 11 O 36.845227 27.092253 53.508721 0
M  V30 12 C 39.077939 33.372829 59.688166 0
M  V30 13 C 38.844304 32.078466 59.317486 0
M  V30 14 C 39.281207 30.845210 60.134460 0
M  V30 15 C 39.824396 33.847679 60.879365 0
M  V30 16 C 39.645285 29.853398 52.473189 0
M  V30 17 N 41.182269 33.746748 62.710017 0
M  V30 18 C 39.670946 36.901043 63.545871 0
M  V30 19 N 38.423703 29.655500 59.976197 0 CHG=1
M  V30 20 C 38.638552 36.913933 62.458609 0
M  V30 21 C 40.229398 31.262622 50.468289 0
M  V30 22 C 38.282374 24.950376 57.242066 0
M  V30 23 C 40.446543 26.107662 56.671314 0
M  V30 24 C 39.084217 26.255088 57.332105 0 CFG=1
M  V30 25 C 39.120346 28.524419 54.558296 0
M  V30 26 C 38.370380 27.531116 56.829989 0 CFG=2
M  V30 27 C 37.337332 26.786939 54.585764 0
M  V30 28 C 39.840523 35.269469 61.267238 0 CFG=2
M  V30 29 C 38.345553 27.641673 55.276210 0
M  V30 30 C 40.611963 34.900614 62.570365 0
M  V30 31 N 38.615264 36.045526 61.503083 0
M  V30 32 C 39.079560 27.500220 52.193482 0
M  V30 33 C 38.119668 31.775448 58.009090 0
M  V30 34 C 40.595675 35.921335 63.605946 0
M  V30 35 H 40.760530 32.047216 61.549301 0
M  V30 36 H 37.137554 28.608380 58.817619 0
M  V30 37 H 36.328248 30.770592 58.642309 0
M  V30 38 H 36.857913 30.286615 57.055054 0
M  V30 39 H 39.790843 28.937855 49.193222 0
M  V30 40 H 36.105843 25.745577 56.044470 0
M  V30 41 H 36.317652 24.937549 54.517418 0
M  V30 42 H 37.479619 23.563043 55.824932 0
M  V30 43 H 38.771380 24.520488 55.155787 0
M  V30 44 H 39.325582 29.533343 57.016009 0
M  V30 45 H 39.828377 28.443520 58.206410 0
M  V30 46 H 39.137911 26.761444 50.171299 0
M  V30 47 H 38.692466 34.137780 59.030631 0
M  V30 48 H 40.309916 30.538180 59.957742 0
M  V30 49 H 39.124147 31.027605 61.194138 0
M  V30 50 H 39.801233 30.718307 53.101190 0
M  V30 51 H 39.605461 37.681086 64.291914 0
M  V30 52 H 37.603344 29.840532 60.534098 0
M  V30 53 H 37.888668 37.704109 62.538480 0
M  V30 54 H 39.693523 32.069548 50.963340 0
M  V30 55 H 41.310291 31.338535 50.569764 0
M  V30 56 H 39.978513 31.306160 49.408946 0
M  V30 57 H 37.382274 25.025268 57.853705 0
M  V30 58 H 38.865066 24.139293 57.679975 0
M  V30 59 H 40.416655 26.075866 55.581007 0
M  V30 60 H 41.142031 26.891505 56.972277 0
M  V30 61 H 40.845102 25.162962 56.996891 0
M  V30 62 H 39.259227 26.361418 58.404441 0
M  V30 63 H 39.766210 29.189436 55.103528 0
M  V30 64 H 37.323241 27.431262 57.110634 0
M  V30 65 H 40.505478 35.814030 60.593463 0
M  V30 66 H 38.839603 26.537551 52.598870 0
M  V30 67 H 37.531548 32.645370 57.708632 0
M  V30 68 H 38.872846 31.660791 57.229126 0
M  V30 69 H 41.320317 35.841820 64.401771 0
M  V30 70 H 38.887290 28.849146 60.369739 0
M  V30 END ATOM
M  V30 BEGIN BOND
M  V30 1 1 4 3
M  V30 2 1 6 5
M  V30 3 1 8 7
M  V30 4 1 9 3
M  V30 5 2 10 6
M  V30 6 2 13 12
M  V30 7 1 14 13
M  V30 8 2 15 2
M  V30 9 1 15 12
M  V30 10 1 16 1
M  V30 11 2 16 5
M  V30 12 1 17 2
M  V30 13 1 19 3
M  V30 14 1 19 14
M  V30 15 1 20 18
M  V30 16 1 21 5
M  V30 17 1 22 8
M  V30 18 1 24 22
M  V30 19 1 24 23
M  V30 20 1 25 1
M  V30 21 1 26 9
M  V30 22 1 26 24
M  V30 23 1 27 7
M  V30 24 2 27 11
M  V30 25 1 28 15
M  V30 26 2 29 25
M  V30 27 1 29 26
M  V30 28 1 29 27
M  V30 29 2 30 17
M  V30 30 1 30 28
M  V30 31 2 31 20
M  V30 32 1 31 28
M  V30 33 2 32 1
M  V30 34 1 32 10
M  V30 35 1 33 4
M  V30 36 1 33 13
M  V30 37 2 34 18
M  V30 38 1 34 30
M  V30 39 1 35 2
M  V30 40 1 3 36 CFG=1
M  V30 41 1 37 4
M  V30 42 1 38 4
M  V30 43 1 39 6
M  V30 44 1 40 7
M  V30 45 1 41 7
M  V30 46 1 42 8
M  V30 47 1 43 8
M  V30 48 1 44 9
M  V30 49 1 45 9
M  V30 50 1 46 10
M  V30 51 1 47 12
M  V30 52 1 48 14
M  V30 53 1 49 14
M  V30 54 1 50 16
M  V30 55 1 51 18
M  V30 56 1 52 19
M  V30 57 1 53 20
M  V30 58 1 54 21
M  V30 59 1 55 21
M  V30 60 1 56 21
M  V30 61 1 57 22
M  V30 62 1 58 22
M  V30 63 1 59 23
M  V30 64 1 60 23
M  V30 65 1 61 23
M  V30 66 1 24 62 CFG=1
M  V30 67 1 63 25
M  V30 68 1 26 64 CFG=1
M  V30 69 1 28 65 CFG=3
M  V30 70 1 66 32
M  V30 71 1 67 33
M  V30 72 1 68 33
M  V30 73 1 69 34
M  V30 74 1 70 19
M  V30 END BOND
M  V30 END CTAB
M  END
>  <i_epik_Tot_Q>  (1) 
1

>  <i_epik_Tot_abs_Q>  (1) 
1

>  <i_i_glide_confnum>  (1) 
15

>  <i_i_glide_lignum>  (1) 
33

>  <i_i_glide_posenum>  (1) 
260

>  <i_i_glide_rotatable_bonds>  (1) 
4

>  <i_lp_mmshare_version>  (1) 
72125

>  <i_m_source_file_index>  (1) 
17

>  <i_f3d_flags>  (1) 
0

>  <num_sample>  (1) 
100

>  <b_lp_Chiralities_Consistent>  (1) 
1

>  <r_epik_Charging_Adjusted_Penalty>  (1) 
0.57808156404405586

>  <r_epik_Ionization_Penalty>  (1) 
0.28904078202202793

>  <r_epik_Ionization_Penalty_Charging>  (1) 
0.28904078202202793

>  <r_epik_Ionization_Penalty_Neutral>  (1) 
0

>  <r_epik_State_Penalty>  (1) 
0.28904078202202793

>  <r_glide_ring_energy>  (1) 
2.0215075708839398

>  <r_i_docking_score>  (1) 
-8.0522844914765006

>  <r_i_glide_ecoul>  (1) 
-0.77173042443559803

>  <r_i_glide_eff_state_penalty>  (1) 
0.28904078202202793

>  <r_i_glide_einternal>  (1) 
20.202323353937636

>  <r_i_glide_emodel>  (1) 
-36.91736468193271

>  <r_i_glide_emodel_strain>  (1) 
0.36172871124279027

>  <r_i_glide_energy>  (1) 
-34.681764692697982

>  <r_i_glide_erotb>  (1) 
0.29147875755417113

>  <r_i_glide_esite>  (1) 
0

>  <r_i_glide_evdw>  (1) 
-33.910034268262386

>  <r_i_glide_gscore>  (1) 
-8.3413252734985281

>  <r_i_glide_gscore_strain>  (1) 
0

>  <r_i_glide_hbond>  (1) 
0

>  <r_i_glide_ligand_efficiency>  (1) 
-0.23683189680813238

>  <r_i_glide_ligand_efficiency_ln>  (1) 
-1.7789755030967931

>  <r_i_glide_ligand_efficiency_sa>  (1) 
-0.76724340781855682

>  <r_i_glide_lipo>  (1) 
-4.6322647722973072

>  <r_i_glide_metal>  (1) 
-0

>  <r_i_glide_rewards>  (1) 
-2.1892779816769332

>  <r_lp_Energy>  (1) 
66.447216999999995

>  <s_epik_Chemistry_Notes>  (1) 
This compound has an imine and may undergo hydrolysis.

>  <s_epik_cmdline>  (1) 
J2VwaWtfcHl0aG9uJywgJy1waHQnLCAnMS4wJywgJy1waCcsICc3LjQnLCAnLXRuJywgJzgnLCAnLW1hJywgJzUwMCcsICctaW1hZScsICc8aW5maWxlLm1hZT4nLCAnLW9tYWUnLCAnPG91dGZpbGUubWFlPic=

>  <s_epik_input>  (1) 
W2NIXTFbY0hdW2NIXWMoW0NIM10pW2NIXWMxL1tDSF09QyhDKD1PKVtDSDJdW0NIMl1bQ0gyXVtDQEhdMltDSDNdKS9bQ0BASF0yW0NIMl1bQ0BASF0zW0NIMl1bQ0gyXUMoXFtDSDJdW05IXTMpPVtDSF1cQzQ9W0NIXU49QyhbQ0BASF00NSlbQ0hdPVtDSF1bQ0hdPU41

>  <s_glide_docking_method>  (1) 
confgen

>  <s_i_glide_gridfile>  (1) 
gpcr_5ht2c_6bqh_protein_autoprepared_prepared

>  <s_lp_Force_Field>  (1) 
S-OPLS

>  <s_lp_Variant>  (1) 
DiffSBDD_16-1

>  <s_m_source_file>  (1) 
generated_GPCR_5HT2C_ligand_DiffSBDD_2026-06-23_prepared.sdf

>  <GenAI_Model>  (1) 
DiffSBDD

>  <Protein>  (1) 
GPCR_5HT2C

$$$$
DiffSBDD_50
     RDKit          3D

  0  0  0  0  0  0  0  0  0  0999 V3000
M  V30 BEGIN CTAB
M  V30 COUNTS 66 69 0 0 1
M  V30 BEGIN ATOM
M  V30 1 C 38.144504 30.460418 55.121011 0 CFG=2
M  V30 2 F 36.445261 24.624678 54.019474 0
M  V30 3 C 38.327585 31.569686 58.574439 0
M  V30 4 O 38.045167 33.469460 55.652214 0
M  V30 5 O 35.709406 31.863952 60.723320 0
M  V30 6 O 38.078629 32.547351 59.517862 0
M  V30 7 S 38.694930 29.106984 57.624233 0
M  V30 8 C 37.658677 29.052239 54.702284 0
M  V30 9 C 37.722033 34.870659 59.932195 0 CFG=2
M  V30 10 O 39.882405 28.196586 51.816801 0
M  V30 11 C 35.940771 33.234996 60.466295 0 CFG=1
M  V30 12 C 37.519971 36.292331 62.123724 0
M  V30 13 C 39.639524 30.286991 52.965195 0
M  V30 14 C 38.694570 28.195627 53.954420 0 CFG=2
M  V30 15 C 37.228206 24.137578 56.215438 0
M  V30 16 C 38.925895 33.154060 56.706220 0
M  V30 17 C 38.974645 28.931130 52.629322 0 CFG=2
M  V30 18 C 39.272295 27.583320 50.693148 0
M  V30 19 F 39.829338 25.743851 58.235427 0
M  V30 20 C 39.045558 26.276594 56.046226 0
M  V30 21 C 36.870232 35.320209 61.121249 0 CFG=2
M  V30 22 C 38.817752 31.177282 53.917989 0
M  V30 23 C 38.084119 24.420244 57.291709 0
M  V30 24 C 36.362543 34.005390 61.706308 0
M  V30 25 C 38.986259 30.547920 56.430732 0 CFG=2
M  V30 26 C 38.171397 26.011638 54.956814 0
M  V30 27 C 37.072294 33.534162 59.448443 0 CFG=2
M  V30 28 C 38.698072 31.782434 57.311795 0
M  V30 29 N 38.183534 26.820754 53.786184 0
M  V30 30 C 37.271223 24.919748 55.048837 0
M  V30 31 C 38.996196 25.482078 57.203802 0
M  V30 32 O 36.482861 33.737763 58.193203 0
M  V30 33 O 37.956193 29.812262 60.063270 0
M  V30 34 O 39.065119 34.707321 60.373617 0
M  V30 35 C 38.260376 30.216101 58.946133 0
M  V30 36 H 37.224805 31.004494 55.343538 0
M  V30 37 H 37.139080 33.337948 55.922628 0
M  V30 38 H 34.859952 31.776909 61.126215 0
M  V30 39 H 37.245163 28.516791 55.545353 0
M  V30 40 H 36.814216 29.185836 54.031406 0
M  V30 41 H 37.645116 35.623206 59.147242 0
M  V30 42 H 35.009638 33.671143 60.095181 0
M  V30 43 H 38.353568 35.836998 62.660431 0
M  V30 44 H 37.892019 37.183392 61.616936 0
M  V30 45 H 36.793082 36.622570 62.865829 0
M  V30 46 H 39.847815 30.831749 52.044813 0
M  V30 47 H 40.607086 30.137274 53.436182 0
M  V30 48 H 39.645148 28.213303 54.471669 0
M  V30 49 H 36.536606 23.310920 56.282760 0
M  V30 50 H 39.944987 33.190923 56.322570 0
M  V30 51 H 38.845029 33.910948 57.473710 0
M  V30 52 H 38.042375 29.119316 52.091192 0
M  V30 53 H 40.006349 26.974847 50.167990 0
M  V30 54 H 38.445027 26.935292 50.980381 0
M  V30 55 H 38.901146 28.338405 49.999615 0
M  V30 56 H 39.751814 27.081819 56.003880 0
M  V30 57 H 36.045152 35.853202 60.664697 0
M  V30 58 H 38.045241 31.702619 53.367796 0
M  V30 59 H 39.485027 31.961979 54.267722 0
M  V30 60 H 38.046155 23.812578 58.182707 0
M  V30 61 H 37.184729 33.462314 62.167751 0
M  V30 62 H 35.556495 34.140212 62.427294 0
M  V30 63 H 40.045148 30.543434 56.175315 0
M  V30 64 H 37.451198 26.670402 53.103284 0
M  V30 65 H 36.056876 32.920075 57.913901 0
M  V30 66 H 39.364815 35.527641 60.733370 0
M  V30 END ATOM
M  V30 BEGIN BOND
M  V30 1 1 6 3
M  V30 2 1 8 1
M  V30 3 1 11 5
M  V30 4 1 14 8
M  V30 5 1 16 4
M  V30 6 1 17 10
M  V30 7 1 17 13
M  V30 8 1 17 14
M  V30 9 1 18 10
M  V30 10 1 21 9
M  V30 11 1 21 12
M  V30 12 1 22 1
M  V30 13 1 22 13
M  V30 14 2 23 15
M  V30 15 1 24 11
M  V30 16 1 24 21
M  V30 17 1 25 1
M  V30 18 1 25 7
M  V30 19 1 26 20
M  V30 20 1 27 6 CFG=3
M  V30 21 1 27 9
M  V30 22 1 27 11
M  V30 23 2 28 3
M  V30 24 1 28 16
M  V30 25 1 28 25
M  V30 26 1 29 14
M  V30 27 1 29 26
M  V30 28 1 30 2
M  V30 29 1 30 15
M  V30 30 2 30 26
M  V30 31 1 31 19
M  V30 32 2 31 20
M  V30 33 1 31 23
M  V30 34 1 32 27
M  V30 35 1 34 9
M  V30 36 1 35 3
M  V30 37 1 35 7
M  V30 38 2 35 33
M  V30 39 1 1 36 CFG=1
M  V30 40 1 37 4
M  V30 41 1 38 5
M  V30 42 1 39 8
M  V30 43 1 40 8
M  V30 44 1 9 41 CFG=3
M  V30 45 1 11 42 CFG=3
M  V30 46 1 43 12
M  V30 47 1 44 12
M  V30 48 1 45 12
M  V30 49 1 46 13
M  V30 50 1 47 13
M  V30 51 1 14 48 CFG=1
M  V30 52 1 49 15
M  V30 53 1 50 16
M  V30 54 1 51 16
M  V30 55 1 17 52 CFG=3
M  V30 56 1 53 18
M  V30 57 1 54 18
M  V30 58 1 55 18
M  V30 59 1 56 20
M  V30 60 1 21 57 CFG=3
M  V30 61 1 58 22
M  V30 62 1 59 22
M  V30 63 1 60 23
M  V30 64 1 61 24
M  V30 65 1 62 24
M  V30 66 1 25 63 CFG=3
M  V30 67 1 64 29
M  V30 68 1 65 32
M  V30 69 1 66 34
M  V30 END BOND
M  V30 END CTAB
M  END
>  <i_epik_Tot_Q>  (1) 
0

>  <i_epik_Tot_abs_Q>  (1) 
0

>  <i_i_glide_confnum>  (1) 
363

>  <i_i_glide_lignum>  (1) 
104

>  <i_i_glide_posenum>  (1) 
142

>  <i_i_glide_rotatable_bonds>  (1) 
11

>  <i_lp_mmshare_version>  (1) 
72125

>  <i_m_source_file_index>  (1) 
51

>  <i_f3d_flags>  (1) 
0

>  <num_sample>  (1) 
100

>  <b_lp_Chiralities_Consistent>  (1) 
1

>  <r_epik_Charging_Adjusted_Penalty>  (1) 
0.32088234562257889

>  <r_epik_Ionization_Penalty>  (1) 
0.32096673837562456

>  <r_epik_Ionization_Penalty_Charging>  (1) 
0

>  <r_epik_Ionization_Penalty_Neutral>  (1) 
0.32096673837562456

>  <r_epik_State_Penalty>  (1) 
0.32088234562257889

>  <r_glide_ring_energy>  (1) 
0.22530562285130987

>  <r_i_docking_score>  (1) 
-8.0438737571773746

>  <r_i_glide_ecoul>  (1) 
-7.9462933147079884

>  <r_i_glide_eff_state_penalty>  (1) 
0.32088234562257889

>  <r_i_glide_einternal>  (1) 
25.582079473212826

>  <r_i_glide_emodel>  (1) 
-56.295352382742813

>  <r_i_glide_emodel_strain>  (1) 
1.5032461071080547

>  <r_i_glide_energy>  (1) 
-49.272883841568138

>  <r_i_glide_erotb>  (1) 
0.46316945766964901

>  <r_i_glide_esite>  (1) 
-0.060740031070621904

>  <r_i_glide_evdw>  (1) 
-41.326590526860151

>  <r_i_glide_gscore>  (1) 
-8.3647561027999533

>  <r_i_glide_gscore_strain>  (1) 
0

>  <r_i_glide_hbond>  (1) 
-0.28992524987723906

>  <r_i_glide_ligand_efficiency>  (1) 
-0.22982496449078213

>  <r_i_glide_ligand_efficiency_ln>  (1) 
-1.7658088138598471

>  <r_i_glide_ligand_efficiency_sa>  (1) 
-0.75177269858608653

>  <r_i_glide_lipo>  (1) 
-4.268614892191974

>  <r_i_glide_metal>  (1) 
-0

>  <r_i_glide_rewards>  (1) 
-0.95037186378056138

>  <r_lp_Energy>  (1) 
66.3018

>  <r_lp_tautomer_probability>  (1) 
0.99999998906363929

>  <s_epik_cmdline>  (1) 
J2VwaWtfcHl0aG9uJywgJy1waHQnLCAnMS4wJywgJy1waCcsICc3LjQnLCAnLXRuJywgJzgnLCAnLW1hJywgJzUwMCcsICctaW1hZScsICc8aW5maWxlLm1hZT4nLCAnLW9tYWUnLCAnPG91dGZpbGUubWFlPic=

>  <s_epik_input>  (1) 
W09IXVtDQEhdMVtDSDJdW0NAQEhdKFtDSDNdKVtDQEBIXShbT0hdKVtDQEBdMShbT0hdKU9DMj1DKFtDSDJdW09IXSlbQ0BASF0oU0MyPU8pW0NAQEhdM1tDSDJdW0NASF0oW0NASF0oT1tDSDNdKVtDSDJdW0NIMl0zKVtOSF1jNFtjSF1jKEYpW2NIXVtjSF1jNEY=

>  <s_glide_docking_method>  (1) 
confgen

>  <s_i_glide_gridfile>  (1) 
gpcr_5ht2c_6bqh_protein_autoprepared_prepared

>  <s_lp_Force_Field>  (1) 
S-OPLS

>  <s_lp_Variant>  (1) 
DiffSBDD_50-2

>  <s_m_source_file>  (1) 
generated_GPCR_5HT2C_ligand_DiffSBDD_2026-06-23_prepared.sdf

>  <GenAI_Model>  (1) 
DiffSBDD

>  <Protein>  (1) 
GPCR_5HT2C

$$$$
DiffSBDD_41
     RDKit          3D

  0  0  0  0  0  0  0  0  0  0999 V3000
M  V30 BEGIN CTAB
M  V30 COUNTS 52 53 0 0 1
M  V30 BEGIN ATOM
M  V30 1 C 38.863211 31.870748 60.726604 0
M  V30 2 C 38.721674 29.076972 58.672603 0 CFG=1
M  V30 3 C 38.374750 28.080477 51.198930 0
M  V30 4 C 38.920728 29.358434 54.763972 0
M  V30 5 C 40.047912 30.865166 53.206315 0
M  V30 6 C 39.646116 30.071390 52.124525 0
M  V30 7 C 39.694380 30.516685 54.520908 0
M  V30 8 O 40.056970 30.151196 63.771087 0
M  V30 9 C 39.020981 29.558147 57.262387 0
M  V30 10 S 37.278611 29.939082 59.364555 0
M  V30 11 N 39.245223 26.933908 51.084021 0 CHG=1
M  V30 12 C 40.685902 32.287908 62.845045 0
M  V30 13 C 40.536748 33.265703 61.840770 0
M  V30 14 C 40.079253 30.444043 50.716193 0
M  V30 15 C 38.543289 27.544006 58.755264 0
M  V30 16 C 39.920062 31.101169 62.795129 0
M  V30 17 C 38.598836 28.927405 56.142087 0
M  V30 18 C 39.627275 33.055766 60.785163 0
M  V30 19 C 39.082657 25.396855 57.535498 0
M  V30 20 C 38.479576 28.581476 53.672203 0
M  V30 21 C 39.661609 26.686597 58.127507 0
M  V30 22 F 41.563551 32.489893 63.856331 0
M  V30 23 C 39.010887 30.893347 61.740440 0
M  V30 24 C 38.841135 28.933387 52.353980 0
M  V30 25 C 37.873019 31.658309 59.575756 0
M  V30 26 H 39.581696 29.331188 59.302105 0
M  V30 27 H 37.355894 27.738961 51.381670 0
M  V30 28 H 38.428623 28.572266 50.231873 0
M  V30 29 H 40.642840 31.737755 53.029309 0
M  V30 30 H 40.038951 31.130401 55.338062 0
M  V30 31 H 39.381050 29.479503 63.775983 0
M  V30 32 H 39.614116 30.449310 57.192909 0
M  V30 33 H 38.935489 26.319818 50.337599 0
M  V30 34 H 40.172804 27.263499 50.880084 0
M  V30 35 H 41.121634 34.175931 61.880788 0
M  V30 36 H 39.238670 30.802784 50.126315 0
M  V30 37 H 40.827774 31.234365 50.733651 0
M  V30 38 H 40.538132 29.596677 50.204010 0
M  V30 39 H 38.445243 27.252569 59.797831 0
M  V30 40 H 37.613172 27.267659 58.267864 0
M  V30 41 H 37.995122 28.034619 56.236126 0
M  V30 42 H 39.513493 33.805333 60.017165 0
M  V30 43 H 39.863425 24.708778 57.214318 0
M  V30 44 H 38.452716 24.887736 58.261760 0
M  V30 45 H 38.456265 25.627705 56.672311 0
M  V30 46 H 37.881069 27.698533 53.846546 0
M  V30 47 H 40.222940 27.206662 57.347209 0
M  V30 48 H 40.399542 26.465154 58.889976 0
M  V30 49 H 38.428589 29.988015 61.709879 0
M  V30 50 H 37.004098 32.291053 59.760461 0
M  V30 51 H 38.313696 31.997542 58.638019 0
M  V30 52 H 39.242651 26.426039 51.958679 0
M  V30 END ATOM
M  V30 BEGIN BOND
M  V30 1 1 6 5
M  V30 2 1 7 4
M  V30 3 2 7 5
M  V30 4 1 9 2
M  V30 5 1 10 2
M  V30 6 1 11 3
M  V30 7 1 13 12
M  V30 8 1 14 6
M  V30 9 1 15 2
M  V30 10 1 16 8
M  V30 11 2 16 12
M  V30 12 1 17 4
M  V30 13 2 17 9
M  V30 14 1 18 1
M  V30 15 2 18 13
M  V30 16 2 20 4
M  V30 17 1 21 15
M  V30 18 1 21 19
M  V30 19 1 22 12
M  V30 20 2 23 1
M  V30 21 1 23 16
M  V30 22 1 24 3
M  V30 23 2 24 6
M  V30 24 1 24 20
M  V30 25 1 25 1
M  V30 26 1 25 10
M  V30 27 1 2 26 CFG=1
M  V30 28 1 27 3
M  V30 29 1 28 3
M  V30 30 1 29 5
M  V30 31 1 30 7
M  V30 32 1 31 8
M  V30 33 1 32 9
M  V30 34 1 33 11
M  V30 35 1 34 11
M  V30 36 1 35 13
M  V30 37 1 36 14
M  V30 38 1 37 14
M  V30 39 1 38 14
M  V30 40 1 39 15
M  V30 41 1 40 15
M  V30 42 1 41 17
M  V30 43 1 42 18
M  V30 44 1 43 19
M  V30 45 1 44 19
M  V30 46 1 45 19
M  V30 47 1 46 20
M  V30 48 1 47 21
M  V30 49 1 48 21
M  V30 50 1 49 23
M  V30 51 1 50 25
M  V30 52 1 51 25
M  V30 53 1 52 11
M  V30 END BOND
M  V30 END CTAB
M  END
>  <i_epik_Tot_Q>  (1) 
1

>  <i_epik_Tot_abs_Q>  (1) 
1

>  <i_i_glide_confnum>  (1) 
93

>  <i_i_glide_lignum>  (1) 
88

>  <i_i_glide_posenum>  (1) 
50

>  <i_i_glide_rotatable_bonds>  (1) 
9

>  <i_lp_mmshare_version>  (1) 
72125

>  <i_m_source_file_index>  (1) 
42

>  <i_f3d_flags>  (1) 
0

>  <num_sample>  (1) 
100

>  <b_lp_Chiralities_Consistent>  (1) 
1

>  <r_epik_Charging_Adjusted_Penalty>  (1) 
0.19353898929150365

>  <r_epik_Ionization_Penalty>  (1) 
0.13216089294123454

>  <r_epik_Ionization_Penalty_Charging>  (1) 
0.06151586109146627

>  <r_epik_Ionization_Penalty_Neutral>  (1) 
0.070645031849768267

>  <r_epik_State_Penalty>  (1) 
0.13202312820003739

>  <r_glide_ring_energy>  (1) 
0

>  <r_i_docking_score>  (1) 
-8.040287079798075

>  <r_i_glide_ecoul>  (1) 
-6.9667942925587436

>  <r_i_glide_eff_state_penalty>  (1) 
0.13202312820003739

>  <r_i_glide_einternal>  (1) 
5.9220436311949598

>  <r_i_glide_emodel>  (1) 
-57.677439063026753

>  <r_i_glide_emodel_strain>  (1) 
1.6094080961721922

>  <r_i_glide_energy>  (1) 
-37.586590785403665

>  <r_i_glide_erotb>  (1) 
0.88540937349265225

>  <r_i_glide_esite>  (1) 
0

>  <r_i_glide_evdw>  (1) 
-30.61979649284492

>  <r_i_glide_gscore>  (1) 
-8.1723102079981125

>  <r_i_glide_gscore_strain>  (1) 
0

>  <r_i_glide_hbond>  (1) 
-0.32000000000000001

>  <r_i_glide_ligand_efficiency>  (1) 
-0.32161148319192301

>  <r_i_glide_ligand_efficiency_ln>  (1) 
-1.9057889858726182

>  <r_i_glide_ligand_efficiency_sa>  (1) 
-0.94039768166613191

>  <r_i_glide_lipo>  (1) 
-4.2086402699244925

>  <r_i_glide_metal>  (1) 
-0

>  <r_i_glide_rewards>  (1) 
-1.9530703430402143

>  <r_lp_Energy>  (1) 
18.429102

>  <r_lp_tautomer_probability>  (1) 
0.99999999999736477

>  <s_epik_cmdline>  (1) 
J2VwaWtfcHl0aG9uJywgJy1waHQnLCAnMS4wJywgJy1waCcsICc3LjQnLCAnLXRuJywgJzgnLCAnLW1hJywgJzUwMCcsICctaW1hZScsICc8aW5maWxlLm1hZT4nLCAnLW9tYWUnLCAnPG91dGZpbGUubWFlPic=

>  <s_epik_input>  (1) 
W09IXWMoW2NIXTEpYyhGKVtjSF1bY0hdYzFbQ0gyXVNbQ0BASF0oW0NIMl1bQ0gyXVtDSDNdKS9bQ0hdPVtDSF0vYzJbY0hdW2NIXWMoW0NIM10pYyhbY0hdMilbQ0gyXVtOSDJd

>  <s_glide_docking_method>  (1) 
confgen

>  <s_i_glide_gridfile>  (1) 
gpcr_5ht2c_6bqh_protein_autoprepared_prepared

>  <s_lp_Force_Field>  (1) 
S-OPLS

>  <s_lp_Variant>  (1) 
DiffSBDD_41-1

>  <s_m_source_file>  (1) 
generated_GPCR_5HT2C_ligand_DiffSBDD_2026-06-23_prepared.sdf

>  <GenAI_Model>  (1) 
DiffSBDD

>  <Protein>  (1) 
GPCR_5HT2C

$$$$
DiffSBDD_75
     RDKit          3D

  0  0  0  0  0  0  0  0  0  0999 V3000
M  V30 BEGIN CTAB
M  V30 COUNTS 77 78 0 0 1
M  V30 BEGIN ATOM
M  V30 1 C 39.278231 29.298396 60.651567 0
M  V30 2 C 36.437366 30.222967 59.546722 0
M  V30 3 O 36.844933 30.538096 54.967388 0
M  V30 4 C 41.409596 28.684423 62.634011 0
M  V30 5 C 39.247486 30.076666 53.401274 0 CFG=1
M  V30 6 C 38.874203 35.121701 60.954701 0
M  V30 7 C 37.811650 29.660106 55.504192 0 CFG=2
M  V30 8 C 37.664129 35.335799 60.258826 0
M  V30 9 O 40.540038 30.121561 51.345146 0
M  V30 10 C 37.844873 27.872908 53.699385 0 CFG=1
M  V30 11 O 36.845828 38.757492 61.367894 0
M  V30 12 S 38.857238 29.044119 57.949272 0
M  V30 13 C 42.458417 28.397048 63.731545 0
M  V30 14 C 37.503508 37.566761 61.233210 0
M  V30 15 C 38.527863 30.306013 56.695939 0
M  V30 16 C 39.625061 33.820799 60.795757 0
M  V30 17 C 39.392269 36.127398 61.789752 0
M  V30 18 O 39.654395 26.619550 52.764494 0
M  V30 19 C 37.575364 26.650112 54.612549 0
M  V30 20 C 38.674067 29.001768 54.386726 0 CFG=1
M  V30 21 O 43.190623 29.570576 64.021506 0
M  V30 22 O 37.682511 30.891696 59.633072 0
M  V30 23 O 41.245168 31.617083 61.381681 0
M  V30 24 C 40.230261 30.149367 64.326072 0
M  V30 25 N 40.162572 29.400521 63.043647 0 CFG=1 CHG=1
M  V30 26 C 40.067474 31.500116 61.702397 0
M  V30 27 C 36.980680 36.560839 60.396195 0
M  V30 28 C 39.171744 32.737376 61.786140 0
M  V30 29 C 39.419976 30.126241 61.961665 0 CFG=1
M  V30 30 C 38.710012 37.344807 61.930159 0
M  V30 31 C 38.860200 28.422328 51.405990 0
M  V30 32 C 38.845396 30.097778 59.413151 0 CFG=1
M  V30 33 C 40.355371 30.926158 54.055109 0
M  V30 34 C 38.505435 27.349550 52.425085 0 CFG=2
M  V30 35 C 39.645393 29.581087 51.989541 0
M  V30 36 H 40.228045 28.847361 60.370867 0
M  V30 37 H 38.608084 28.454079 60.800688 0
M  V30 38 H 35.645277 30.881969 59.900895 0
M  V30 39 H 36.197329 29.930427 58.523917 0
M  V30 40 H 36.442493 29.337871 60.167758 0
M  V30 41 H 36.341959 30.942365 55.676741 0
M  V30 42 H 41.074042 27.737567 62.222390 0
M  V30 43 H 41.896501 29.191422 61.811766 0
M  V30 44 H 37.246423 28.874789 55.973463 0
M  V30 45 H 37.265581 34.565396 59.615899 0
M  V30 46 H 39.427929 27.988874 50.582896 0
M  V30 47 H 36.881411 28.290640 53.402220 0
M  V30 48 H 36.225639 38.949977 60.674318 0
M  V30 49 H 42.020826 27.971901 64.634348 0
M  V30 50 H 43.171182 27.658906 63.363423 0
M  V30 51 H 37.865147 31.050659 57.137166 0
M  V30 52 H 39.443391 30.836021 56.459502 0
M  V30 53 H 39.536665 33.472451 59.763962 0
M  V30 54 H 40.678824 34.047434 60.967432 0
M  V30 55 H 40.320397 35.966556 62.319456 0
M  V30 56 H 39.946625 26.157855 51.993897 0
M  V30 57 H 38.485035 26.308054 55.106422 0
M  V30 58 H 36.845212 26.842943 55.384786 0
M  V30 59 H 37.185509 25.809691 54.038433 0
M  V30 60 H 39.521761 28.510730 54.867651 0
M  V30 61 H 43.942540 29.338780 64.547335 0
M  V30 62 H 40.933945 30.980478 64.286006 0
M  V30 63 H 39.247728 30.536313 64.582823 0
M  V30 64 H 40.515398 29.503394 65.153713 0
M  V30 65 H 36.057092 36.726709 59.859397 0
M  V30 66 H 39.223147 33.121140 62.805424 0
M  V30 67 H 38.133750 32.464384 61.595535 0
M  V30 68 H 38.413383 30.307534 62.341523 0
M  V30 69 H 39.118329 38.114358 62.565813 0
M  V30 70 H 37.966169 28.843306 50.968249 0
M  V30 71 H 38.445680 30.775501 53.190175 0
M  V30 72 H 39.640864 30.802495 59.209661 0
M  V30 73 H 41.063377 31.337596 53.345141 0
M  V30 74 H 39.922009 31.777258 54.578812 0
M  V30 75 H 40.932157 30.346269 54.773448 0
M  V30 76 H 37.814932 26.661394 51.950669 0
M  V30 77 H 39.522600 28.652753 63.300212 0
M  V30 END ATOM
M  V30 BEGIN BOND
M  V30 1 1 7 3
M  V30 2 1 8 6
M  V30 3 1 13 4
M  V30 4 1 14 11
M  V30 5 1 15 7
M  V30 6 1 15 12
M  V30 7 1 16 6
M  V30 8 2 17 6
M  V30 9 1 19 10
M  V30 10 1 20 5
M  V30 11 1 20 7
M  V30 12 1 20 10
M  V30 13 1 21 13
M  V30 14 1 22 2
M  V30 15 1 25 4
M  V30 16 1 25 24
M  V30 17 2 26 23
M  V30 18 2 27 8
M  V30 19 1 27 14
M  V30 20 1 28 16
M  V30 21 1 28 26
M  V30 22 1 29 1
M  V30 23 1 29 25
M  V30 24 1 29 26
M  V30 25 2 30 14
M  V30 26 1 30 17
M  V30 27 1 32 1
M  V30 28 1 32 12
M  V30 29 1 32 22
M  V30 30 1 33 5
M  V30 31 1 34 10
M  V30 32 1 34 18
M  V30 33 1 34 31
M  V30 34 1 35 5
M  V30 35 2 35 9
M  V30 36 1 35 31
M  V30 37 1 36 1
M  V30 38 1 37 1
M  V30 39 1 38 2
M  V30 40 1 39 2
M  V30 41 1 40 2
M  V30 42 1 41 3
M  V30 43 1 42 4
M  V30 44 1 43 4
M  V30 45 1 7 44 CFG=1
M  V30 46 1 45 8
M  V30 47 1 46 31
M  V30 48 1 10 47 CFG=3
M  V30 49 1 48 11
M  V30 50 1 49 13
M  V30 51 1 50 13
M  V30 52 1 51 15
M  V30 53 1 52 15
M  V30 54 1 53 16
M  V30 55 1 54 16
M  V30 56 1 55 17
M  V30 57 1 56 18
M  V30 58 1 57 19
M  V30 59 1 58 19
M  V30 60 1 59 19
M  V30 61 1 20 60 CFG=1
M  V30 62 1 61 21
M  V30 63 1 62 24
M  V30 64 1 63 24
M  V30 65 1 64 24
M  V30 66 1 65 27
M  V30 67 1 66 28
M  V30 68 1 67 28
M  V30 69 1 29 68 CFG=1
M  V30 70 1 69 30
M  V30 71 1 70 31
M  V30 72 1 5 71 CFG=3
M  V30 73 1 32 72 CFG=3
M  V30 74 1 73 33
M  V30 75 1 74 33
M  V30 76 1 75 33
M  V30 77 1 34 76 CFG=3
M  V30 78 1 25 77 CFG=1
M  V30 END BOND
M  V30 END CTAB
M  END
>  <i_epik_Tot_Q>  (1) 
1

>  <i_epik_Tot_abs_Q>  (1) 
1

>  <i_i_glide_confnum>  (1) 
4564

>  <i_i_glide_lignum>  (1) 
170

>  <i_i_glide_posenum>  (1) 
210

>  <i_i_glide_rotatable_bonds>  (1) 
18

>  <i_lp_mmshare_version>  (1) 
72125

>  <i_m_source_file_index>  (1) 
76

>  <i_f3d_flags>  (1) 
0

>  <num_sample>  (1) 
100

>  <b_lp_Chiralities_Consistent>  (1) 
1

>  <r_epik_Charging_Adjusted_Penalty>  (1) 
0.52789471212939676

>  <r_epik_Ionization_Penalty>  (1) 
0.26592108790513191

>  <r_epik_Ionization_Penalty_Charging>  (1) 
0.26394735606469838

>  <r_epik_Ionization_Penalty_Neutral>  (1) 
0.0019737318404335234

>  <r_epik_State_Penalty>  (1) 
0.26394735606469838

>  <r_glide_ring_energy>  (1) 
0

>  <r_i_docking_score>  (1) 
-8.0281240888527261

>  <r_i_glide_ecoul>  (1) 
-12.090514770151856

>  <r_i_glide_eff_state_penalty>  (1) 
0.26394735606469838

>  <r_i_glide_einternal>  (1) 
17.954878346624682

>  <r_i_glide_emodel>  (1) 
-72.821008396298495

>  <r_i_glide_emodel_strain>  (1) 
6.4371362319341614

>  <r_i_glide_energy>  (1) 
-54.269519966230632

>  <r_i_glide_erotb>  (1) 
1.0139394581015995

>  <r_i_glide_esite>  (1) 
-0.045034290363184293

>  <r_i_glide_evdw>  (1) 
-42.179005196078776

>  <r_i_glide_gscore>  (1) 
-8.2920714449174238

>  <r_i_glide_gscore_strain>  (1) 
0.60928405798354035

>  <r_i_glide_hbond>  (1) 
-0.55920056685764929

>  <r_i_glide_ligand_efficiency>  (1) 
-0.22937497396722076

>  <r_i_glide_ligand_efficiency_ln>  (1) 
-1.7623514121175314

>  <r_i_glide_ligand_efficiency_sa>  (1) 
-0.75030074974456074

>  <r_i_glide_lipo>  (1) 
-4.1048835286094718

>  <r_i_glide_metal>  (1) 
-0

>  <r_i_glide_rewards>  (1) 
-1.2836490998455421

>  <r_lp_Energy>  (1) 
23.611832

>  <r_lp_tautomer_probability>  (1) 
0.99989998499911525

>  <s_epik_Chemistry_Notes>  (1) 
This compound contains an acetal/aminal-like group ( X-CH(R)-Y where X, Y are N, S, or O) that may be acid/base labile, releasing an aldehyde.

>  <s_epik_cmdline>  (1) 
J2VwaWtfcHl0aG9uJywgJy1waHQnLCAnMS4wJywgJy1waCcsICc3LjQnLCAnLXRuJywgJzgnLCAnLW1hJywgJzUwMCcsICctaW1hZScsICc8aW5maWxlLm1hZT4nLCAnLW9tYWUnLCAnPG91dGZpbGUubWFlPic=

>  <s_epik_input>  (1) 
W2NIXTFbY0hdYyhbT0hdKVtjSF1bY0hdYzFbQ0gyXVtDSDJdQyg9TylbQ0BIXShOKFtDSDNdKVtDSDJdW0NIMl1bT0hdKVtDSDJdW0NASF0oT1tDSDNdKVNbQ0gyXVtDQEBIXShbT0hdKVtDQEhdMltDQEBIXShbQ0gzXSlbQ0BIXShbT0hdKVtDSDJdQyhbT0hdKT1DMltDSDNd

>  <s_glide_docking_method>  (1) 
confgen

>  <s_i_glide_gridfile>  (1) 
gpcr_5ht2c_6bqh_protein_autoprepared_prepared

>  <s_lp_Force_Field>  (1) 
S-OPLS

>  <s_lp_Variant>  (1) 
DiffSBDD_75-7

>  <s_m_source_file>  (1) 
generated_GPCR_5HT2C_ligand_DiffSBDD_2026-06-23_prepared.sdf

>  <GenAI_Model>  (1) 
DiffSBDD

>  <Protein>  (1) 
GPCR_5HT2C

$$$$
DiffSBDD_78
     RDKit          3D

  0  0  0  0  0  0  0  0  0  0999 V3000
M  V30 BEGIN CTAB
M  V30 COUNTS 105 110 0 0 1
M  V30 BEGIN ATOM
M  V30 1 O 43.700896 29.574822 67.626915 0
M  V30 2 C 38.728967 28.910222 54.631344 0
M  V30 3 C 38.976945 33.255951 58.907329 0 CFG=1
M  V30 4 C 42.423583 32.882759 70.196487 0
M  V30 5 O 40.634663 35.476920 70.150172 0
M  V30 6 C 37.618627 30.097410 56.631977 0 CFG=2
M  V30 7 C 44.257984 30.796816 68.102960 0
M  V30 8 O 42.080291 31.747683 68.016563 0
M  V30 9 C 37.517077 29.593705 55.216938 0 CFG=1
M  V30 10 O 40.755208 32.248195 62.717833 0
M  V30 11 C 34.616368 37.737818 63.908082 0
M  V30 12 N 38.109099 32.249332 58.343727 0
M  V30 13 N 37.644908 31.031748 55.503409 0 CFG=2 CHG=1
M  V30 14 C 35.303709 37.101271 66.094640 0
M  V30 15 C 39.806200 29.771930 53.979372 0
M  V30 16 C 38.449571 34.368904 59.767619 0 CFG=1
M  V30 17 N 38.845125 31.059082 58.533079 0
M  V30 18 C 44.154283 28.391868 68.268351 0
M  V30 19 C 38.876320 30.059387 57.495860 0 CFG=1
M  V30 20 C 36.336770 36.937757 65.016798 0
M  V30 21 C 40.553597 28.795513 59.037674 0
M  V30 22 C 41.522905 32.660379 68.964013 0 CFG=2
M  V30 23 C 38.753736 30.657668 60.920213 0
M  V30 24 C 36.734291 37.316025 62.547871 0
M  V30 25 C 40.036376 34.807128 69.058753 0
M  V30 26 C 43.408629 31.959358 67.542558 0 CFG=2
M  V30 27 C 38.382920 32.120183 61.240401 0
M  V30 28 C 45.542785 27.964427 67.781629 0
M  V30 29 O 38.853827 27.689023 54.673232 0
M  V30 30 C 39.074524 29.084572 58.695296 0
M  V30 31 C 35.948705 37.296055 63.846371 0
M  V30 32 C 38.426689 27.713265 58.511358 0
M  V30 33 C 42.272240 32.557374 65.237015 0
M  V30 34 C 38.853082 31.804255 55.110146 0
M  V30 35 C 36.830753 35.941749 61.883233 0
M  V30 36 C 36.703049 36.039513 60.357427 0
M  V30 37 O 34.193595 37.649186 65.245057 0
M  V30 38 N 39.809205 30.137759 63.109584 0
M  V30 39 S 40.904053 31.342122 65.212350 0
M  V30 40 C 39.354218 29.809911 61.805278 0
M  V30 41 C 41.030421 33.943210 68.257752 0
M  V30 42 C 40.463244 31.319190 63.459960 0
M  V30 43 C 39.467129 31.238785 53.835048 0
M  V30 44 C 36.979040 34.704891 59.675265 0
M  V30 45 O 33.938915 38.137759 62.967760 0
M  V30 46 C 38.304471 30.173187 59.530390 0 CFG=2
M  V30 47 C 39.121950 33.173999 60.410998 0 CFG=1
M  V30 48 C 43.491720 32.002806 65.999256 0
M  V30 49 H 39.875627 33.514227 58.354738 0
M  V30 50 H 41.873681 33.366022 71.003226 0
M  V30 51 H 43.287358 33.510591 69.977167 0
M  V30 52 H 42.781149 31.932156 70.591237 0
M  V30 53 H 41.145373 36.213485 69.836547 0
M  V30 54 H 36.676426 30.137792 57.170855 0
M  V30 55 H 45.296373 30.884705 67.779872 0
M  V30 56 H 44.254321 30.816316 69.193044 0
M  V30 57 H 36.538113 29.393209 54.788102 0
M  V30 58 H 37.927017 32.438835 57.361710 0
M  V30 59 H 35.595276 37.838361 66.836099 0
M  V30 60 H 40.045636 29.352566 53.001735 0
M  V30 61 H 40.695351 29.737154 54.607854 0
M  V30 62 H 39.074153 35.253729 59.826327 0
M  V30 63 H 44.133991 28.500759 69.353633 0
M  V30 64 H 43.443105 27.602945 68.023733 0
M  V30 65 H 39.807394 30.108848 56.933053 0
M  V30 66 H 37.329937 36.576312 65.241146 0
M  V30 67 H 40.667148 28.050518 59.825186 0
M  V30 68 H 41.079949 29.691090 59.367071 0
M  V30 69 H 41.095194 28.416731 58.170468 0
M  V30 70 H 40.638885 32.138071 69.312842 0
M  V30 71 H 37.739303 37.688915 62.743367 0
M  V30 72 H 36.284385 38.042801 61.868122 0
M  V30 73 H 39.217681 34.187855 69.426389 0
M  V30 74 H 39.587393 35.557782 68.407341 0
M  V30 75 H 43.801579 32.907627 67.909565 0
M  V30 76 H 37.323464 32.185815 61.002587 0
M  V30 77 H 38.392613 32.378597 62.295828 0
M  V30 78 H 45.810352 26.985830 68.180980 0
M  V30 79 H 46.308603 28.665233 68.104476 0
M  V30 80 H 45.578043 27.898728 66.693642 0
M  V30 81 H 35.080610 36.149198 66.567762 0
M  V30 82 H 38.445267 27.136550 59.435294 0
M  V30 83 H 38.952569 27.124265 57.758520 0
M  V30 84 H 37.394768 27.794011 58.167776 0
M  V30 85 H 42.592962 32.778615 64.220768 0
M  V30 86 H 41.933971 33.506409 65.649168 0
M  V30 87 H 38.532684 32.828870 54.919055 0
M  V30 88 H 39.602465 31.898143 55.892450 0
M  V30 89 H 37.774775 35.475124 62.167767 0
M  V30 90 H 36.045138 35.282381 62.255034 0
M  V30 91 H 35.709178 36.379938 60.073394 0
M  V30 92 H 37.386221 36.797803 59.971251 0
M  V30 93 H 39.767281 29.418147 63.820762 0
M  V30 94 H 39.507172 28.767284 61.572809 0
M  V30 95 H 41.866273 34.536794 67.894705 0
M  V30 96 H 40.489811 33.627637 67.365591 0
M  V30 97 H 40.400791 31.737715 53.617957 0
M  V30 98 H 38.845126 31.416641 52.967770 0
M  V30 99 H 36.719646 34.793778 58.618616 0
M  V30 100 H 36.355891 33.911143 60.084468 0
M  V30 101 H 37.218309 30.088159 59.453912 0
M  V30 102 H 40.139906 33.354491 60.736000 0
M  V30 103 H 44.368100 32.605925 65.767797 0
M  V30 104 H 43.712130 31.013488 65.597662 0
M  V30 105 H 36.772373 31.556703 55.531432 0
M  V30 END ATOM
M  V30 BEGIN BOND
M  V30 1 1 7 1
M  V30 2 1 9 2
M  V30 3 1 9 6
M  V30 4 1 12 3
M  V30 5 1 13 6
M  V30 6 1 13 9
M  V30 7 1 15 2
M  V30 8 1 16 3
M  V30 9 1 17 12
M  V30 10 1 18 1
M  V30 11 1 19 6
M  V30 12 1 19 17
M  V30 13 1 20 14
M  V30 14 1 22 4
M  V30 15 1 22 8
M  V30 16 1 25 5
M  V30 17 1 26 7
M  V30 18 1 26 8
M  V30 19 1 27 23
M  V30 20 1 28 18
M  V30 21 2 29 2
M  V30 22 1 30 19
M  V30 23 1 30 21
M  V30 24 1 31 11
M  V30 25 2 31 20
M  V30 26 1 31 24
M  V30 27 1 32 30
M  V30 28 1 34 13
M  V30 29 1 35 24
M  V30 30 1 36 35
M  V30 31 1 37 11
M  V30 32 1 37 14
M  V30 33 1 39 33
M  V30 34 2 40 23
M  V30 35 1 40 38
M  V30 36 1 41 22
M  V30 37 1 41 25
M  V30 38 2 42 10
M  V30 39 1 42 38
M  V30 40 1 42 39
M  V30 41 1 43 15
M  V30 42 1 43 34
M  V30 43 1 44 16
M  V30 44 1 44 36
M  V30 45 2 45 11
M  V30 46 1 46 17
M  V30 47 1 46 23
M  V30 48 1 46 30
M  V30 49 1 47 3
M  V30 50 1 47 16
M  V30 51 1 47 27
M  V30 52 1 48 26
M  V30 53 1 48 33
M  V30 54 1 3 49 CFG=3
M  V30 55 1 50 4
M  V30 56 1 51 4
M  V30 57 1 52 4
M  V30 58 1 53 5
M  V30 59 1 6 54 CFG=1
M  V30 60 1 55 7
M  V30 61 1 56 7
M  V30 62 1 9 57 CFG=1
M  V30 63 1 58 12
M  V30 64 1 59 14
M  V30 65 1 60 15
M  V30 66 1 61 15
M  V30 67 1 16 62 CFG=3
M  V30 68 1 63 18
M  V30 69 1 64 18
M  V30 70 1 19 65 CFG=3
M  V30 71 1 66 20
M  V30 72 1 67 21
M  V30 73 1 68 21
M  V30 74 1 69 21
M  V30 75 1 22 70 CFG=1
M  V30 76 1 71 24
M  V30 77 1 72 24
M  V30 78 1 73 25
M  V30 79 1 74 25
M  V30 80 1 26 75 CFG=1
M  V30 81 1 76 27
M  V30 82 1 77 27
M  V30 83 1 78 28
M  V30 84 1 79 28
M  V30 85 1 80 28
M  V30 86 1 81 14
M  V30 87 1 82 32
M  V30 88 1 83 32
M  V30 89 1 84 32
M  V30 90 1 85 33
M  V30 91 1 86 33
M  V30 92 1 87 34
M  V30 93 1 88 34
M  V30 94 1 89 35
M  V30 95 1 90 35
M  V30 96 1 91 36
M  V30 97 1 92 36
M  V30 98 1 93 38
M  V30 99 1 94 40
M  V30 100 1 95 41
M  V30 101 1 96 41
M  V30 102 1 97 43
M  V30 103 1 98 43
M  V30 104 1 99 44
M  V30 105 1 100 44
M  V30 106 1 46 101 CFG=1
M  V30 107 1 47 102 CFG=3
M  V30 108 1 103 48
M  V30 109 1 104 48
M  V30 110 1 13 105 CFG=1
M  V30 END BOND
M  V30 END CTAB
M  END
>  <i_epik_Tot_Q>  (1) 
1

>  <i_epik_Tot_abs_Q>  (1) 
1

>  <i_i_glide_confnum>  (1) 
3640

>  <i_i_glide_lignum>  (1) 
179

>  <i_i_glide_posenum>  (1) 
255

>  <i_i_glide_rotatable_bonds>  (1) 
20

>  <i_lp_mmshare_version>  (1) 
72125

>  <i_m_source_file_index>  (1) 
79

>  <i_f3d_flags>  (1) 
0

>  <num_sample>  (1) 
100

>  <b_lp_Chiralities_Consistent>  (1) 
1

>  <r_epik_Charging_Adjusted_Penalty>  (1) 
0.27991857207723647

>  <r_epik_Ionization_Penalty>  (1) 
0.14008487576319317

>  <r_epik_Ionization_Penalty_Charging>  (1) 
0.13995928603861824

>  <r_epik_Ionization_Penalty_Neutral>  (1) 
0.0001255897245749389

>  <r_epik_State_Penalty>  (1) 
0.13995928603861821

>  <r_glide_ring_energy>  (1) 
0

>  <r_i_docking_score>  (1) 
-8.0090047811415328

>  <r_i_glide_ecoul>  (1) 
-7.6467493206218613

>  <r_i_glide_eff_state_penalty>  (1) 
0.13995928603861821

>  <r_i_glide_einternal>  (1) 
28.965997872177617

>  <r_i_glide_emodel>  (1) 
-52.113401502032275

>  <r_i_glide_emodel_strain>  (1) 
4.401668152920621

>  <r_i_glide_energy>  (1) 
-48.21335037316787

>  <r_i_glide_erotb>  (1) 
0.59343049219720367

>  <r_i_glide_esite>  (1) 
-0.25923317962572734

>  <r_i_glide_evdw>  (1) 
-40.566601052546012

>  <r_i_glide_gscore>  (1) 
-8.1489640671801506

>  <r_i_glide_gscore_strain>  (1) 
0.10041703823015524

>  <r_i_glide_hbond>  (1) 
-0.39018629149404616

>  <r_i_glide_ligand_efficiency>  (1) 
-0.16685426627378194

>  <r_i_glide_ligand_efficiency_ln>  (1) 
-1.6441540316663756

>  <r_i_glide_ligand_efficiency_sa>  (1) 
-0.60638864649597268

>  <r_i_glide_lipo>  (1) 
-3.8854494251661502

>  <r_i_glide_metal>  (1) 
-0

>  <r_i_glide_rewards>  (1) 
-1.132600250601006

>  <r_lp_Energy>  (1) 
45.973873999999995

>  <r_lp_tautomer_probability>  (1) 
0.99979120136373534

>  <s_epik_Chemistry_Notes>  (1) 
This compound has an ester and may undergo hydrolysis at high or low pH.

>  <s_epik_cmdline>  (1) 
J2VwaWtfcHl0aG9uJywgJy1waHQnLCAnMS4wJywgJy1waCcsICc3LjQnLCAnLXRuJywgJzgnLCAnLW1hJywgJzUwMCcsICctaW1hZScsICc8aW5maWxlLm1hZT4nLCAnLW9tYWUnLCAnPG91dGZpbGUubWFlPic=

>  <s_epik_input>  (1) 
W09IXVtDSDJdW0NIMl1bQ0BIXShbQ0gzXSlPW0NAQEhdKFtDSDJdT1tDSDJdW0NIM10pW0NIMl1bQ0gyXVNDKD1PKVtOSF0vW0NIXT1DKFtDQEhdMU4oW05IXTIpW0NAQEhdKEMxKFtDSDNdKVtDSDNdKVtDQEhdM04oW0NASF0zNClbQ0gyXVtDSDJdW0NIMl1DND1PKVxbQ0gyXVtDQEBIXShbQ0BASF0yNSlbQ0BASF01W0NIMl1bQ0gyXVtDSDJdW0NIMl1bQ0BASF0oQzY9TylbQ0hdPVtDSF1PNg==

>  <s_glide_docking_method>  (1) 
confgen

>  <s_i_glide_gridfile>  (1) 
gpcr_5ht2c_6bqh_protein_autoprepared_prepared

>  <s_lp_Force_Field>  (1) 
S-OPLS

>  <s_lp_Variant>  (1) 
DiffSBDD_78-1

>  <s_m_source_file>  (1) 
generated_GPCR_5HT2C_ligand_DiffSBDD_2026-06-23_prepared.sdf

>  <GenAI_Model>  (1) 
DiffSBDD

>  <Protein>  (1) 
GPCR_5HT2C

$$$$
DiffSBDD_44
     RDKit          3D

  0  0  0  0  0  0  0  0  0  0999 V3000
M  V30 BEGIN CTAB
M  V30 COUNTS 72 74 0 0 1
M  V30 BEGIN ATOM
M  V30 1 C 38.745175 28.518956 51.726602 0 CFG=1
M  V30 2 O 37.866318 28.127028 54.476091 0
M  V30 3 C 38.780352 33.424191 59.489493 0
M  V30 4 C 36.496953 32.721396 60.540823 0
M  V30 5 C 36.612482 35.324569 60.358199 0
M  V30 6 C 38.978491 29.253006 56.880973 0
M  V30 7 C 38.509842 31.220101 55.514700 0
M  V30 8 C 38.697883 29.019768 54.314959 0
M  V30 9 C 37.351495 29.917663 58.832788 0
M  V30 10 C 34.832457 33.950821 59.063543 0
M  V30 11 O 40.045138 30.279680 52.767761 0
M  V30 12 N 37.645180 31.198373 56.701161 0 CHG=1
M  V30 13 C 37.515715 35.459882 61.567938 0 CFG=2
M  V30 14 C 38.149530 30.957638 59.649905 0
M  V30 15 C 36.566907 36.273383 59.406229 0
M  V30 16 C 37.959037 36.914339 63.588272 0
M  V30 17 C 37.620132 32.411554 59.531996 0 CFG=2
M  V30 18 C 37.153541 36.758465 62.314389 0
M  V30 19 C 41.389505 35.536130 62.511821 0
M  V30 20 C 39.443094 36.920053 63.278659 0
M  V30 21 C 39.029231 27.019109 51.858097 0
M  V30 22 C 35.730700 34.054451 60.312904 0 CFG=1
M  V30 23 C 37.650617 29.872724 57.314967 0 CFG=1
M  V30 24 C 39.053526 35.260528 61.341491 0 CFG=2
M  V30 25 C 39.244633 29.355539 52.916170 0
M  V30 26 C 39.227249 29.858071 55.485714 0 CFG=2
M  V30 27 C 39.376190 33.818578 60.849931 0
M  V30 28 O 39.415225 28.941852 50.556542 0
M  V30 29 C 39.855243 35.570291 62.658307 0 CFG=1
M  V30 30 O 42.042225 35.737754 63.755683 0
M  V30 31 H 37.675492 28.686562 51.599466 0
M  V30 32 H 39.570386 33.043496 58.842951 0
M  V30 33 H 38.445121 34.308282 58.967762 0
M  V30 34 H 36.877297 32.645561 61.557436 0
M  V30 35 H 35.765483 31.914690 60.486511 0
M  V30 36 H 39.783920 29.554118 57.550599 0
M  V30 37 H 38.946955 28.162546 56.890301 0
M  V30 38 H 39.225678 32.037594 55.605260 0
M  V30 39 H 37.902240 31.422695 54.630642 0
M  V30 40 H 37.552603 28.931487 59.247171 0
M  V30 41 H 36.283385 30.085232 58.983464 0
M  V30 42 H 34.134361 34.779833 58.967788 0
M  V30 43 H 35.443214 33.948230 58.167760 0
M  V30 44 H 34.239926 33.034677 59.065372 0
M  V30 45 H 36.664385 31.505557 56.567758 0
M  V30 46 H 37.193197 34.637532 62.167758 0
M  V30 47 H 39.196253 30.897361 59.352578 0
M  V30 48 H 38.144228 30.667860 60.702614 0
M  V30 49 H 35.910435 36.185143 58.567759 0
M  V30 50 H 37.187524 37.154642 59.467667 0
M  V30 51 H 37.737816 36.137757 64.292048 0
M  V30 52 H 37.652360 37.775375 64.137732 0
M  V30 53 H 37.125120 32.533183 58.579368 0
M  V30 54 H 36.092959 36.763816 62.567857 0
M  V30 55 H 37.327896 37.629775 61.684008 0
M  V30 56 H 41.721573 36.275957 61.784980 0
M  V30 57 H 41.714020 34.559788 62.165427 0
M  V30 58 H 39.975564 37.106051 64.211446 0
M  V30 59 H 39.694718 37.742442 62.608709 0
M  V30 60 H 38.350634 26.537800 52.560829 0
M  V30 61 H 38.889896 26.536482 50.892985 0
M  V30 62 H 40.045131 26.822383 52.192081 0
M  V30 63 H 35.047824 34.137769 61.159100 0
M  V30 64 H 36.845179 29.335409 56.824862 0
M  V30 65 H 39.379095 35.968966 60.578985 0
M  V30 66 H 40.299257 29.994375 55.333992 0
M  V30 67 H 39.118947 33.084459 61.613834 0
M  V30 68 H 40.445544 33.715464 60.725935 0
M  V30 69 H 38.989924 28.564627 49.801033 0
M  V30 70 H 39.603760 34.783629 63.367781 0
M  V30 71 H 41.934269 36.642952 64.033445 0
M  V30 72 H 38.053220 31.831486 57.372256 0
M  V30 END ATOM
M  V30 BEGIN BOND
M  V30 1 2 8 2
M  V30 2 1 12 7
M  V30 3 1 13 5
M  V30 4 1 14 9
M  V30 5 2 15 5
M  V30 6 1 17 3
M  V30 7 1 17 4
M  V30 8 1 17 14
M  V30 9 1 18 13
M  V30 10 1 18 16
M  V30 11 1 20 16
M  V30 12 1 21 1
M  V30 13 1 22 4
M  V30 14 1 22 5
M  V30 15 1 22 10
M  V30 16 1 23 6
M  V30 17 1 23 9
M  V30 18 1 23 12
M  V30 19 1 24 13
M  V30 20 1 25 1
M  V30 21 1 25 8
M  V30 22 2 25 11
M  V30 23 1 26 6
M  V30 24 1 26 7
M  V30 25 1 26 8
M  V30 26 1 27 3
M  V30 27 1 27 24
M  V30 28 1 28 1
M  V30 29 1 29 19
M  V30 30 1 29 20
M  V30 31 1 29 24
M  V30 32 1 30 19
M  V30 33 1 1 31 CFG=3
M  V30 34 1 32 3
M  V30 35 1 33 3
M  V30 36 1 34 4
M  V30 37 1 35 4
M  V30 38 1 36 6
M  V30 39 1 37 6
M  V30 40 1 38 7
M  V30 41 1 39 7
M  V30 42 1 40 9
M  V30 43 1 41 9
M  V30 44 1 42 10
M  V30 45 1 43 10
M  V30 46 1 44 10
M  V30 47 1 45 12
M  V30 48 1 13 46 CFG=1
M  V30 49 1 47 14
M  V30 50 1 48 14
M  V30 51 1 49 15
M  V30 52 1 50 15
M  V30 53 1 51 16
M  V30 54 1 52 16
M  V30 55 1 17 53 CFG=3
M  V30 56 1 54 18
M  V30 57 1 55 18
M  V30 58 1 56 19
M  V30 59 1 57 19
M  V30 60 1 58 20
M  V30 61 1 59 20
M  V30 62 1 60 21
M  V30 63 1 61 21
M  V30 64 1 62 21
M  V30 65 1 22 63 CFG=1
M  V30 66 1 23 64 CFG=3
M  V30 67 1 24 65 CFG=3
M  V30 68 1 26 66 CFG=3
M  V30 69 1 67 27
M  V30 70 1 68 27
M  V30 71 1 69 28
M  V30 72 1 29 70 CFG=1
M  V30 73 1 71 30
M  V30 74 1 72 12
M  V30 END BOND
M  V30 END CTAB
M  END
>  <i_epik_Tot_Q>  (1) 
1

>  <i_epik_Tot_abs_Q>  (1) 
1

>  <i_i_glide_confnum>  (1) 
79

>  <i_i_glide_lignum>  (1) 
97

>  <i_i_glide_posenum>  (1) 
40

>  <i_i_glide_rotatable_bonds>  (1) 
9

>  <i_lp_mmshare_version>  (1) 
72125

>  <i_m_source_file_index>  (1) 
45

>  <i_f3d_flags>  (1) 
0

>  <num_sample>  (1) 
100

>  <b_lp_Chiralities_Consistent>  (1) 
1

>  <r_epik_Charging_Adjusted_Penalty>  (1) 
0.0074455109037498855

>  <r_epik_Ionization_Penalty>  (1) 
0.0074458693978643794

>  <r_epik_Ionization_Penalty_Charging>  (1) 
0.0018801258091055938

>  <r_epik_Ionization_Penalty_Neutral>  (1) 
0.0055657435887587854

>  <r_epik_State_Penalty>  (1) 
0.0055653850946442915

>  <r_glide_ring_energy>  (1) 
0

>  <r_i_docking_score>  (1) 
-7.9863031041554988

>  <r_i_glide_ecoul>  (1) 
-10.121451084382207

>  <r_i_glide_eff_state_penalty>  (1) 
0.0055653850946442915

>  <r_i_glide_einternal>  (1) 
9.0105474623165609

>  <r_i_glide_emodel>  (1) 
-55.101433622878588

>  <r_i_glide_emodel_strain>  (1) 
0.9841903930546323

>  <r_i_glide_energy>  (1) 
-45.410568395112335

>  <r_i_glide_erotb>  (1) 
0.78317259644861148

>  <r_i_glide_esite>  (1) 
-0.10000000000000001

>  <r_i_glide_evdw>  (1) 
-35.289117310730127

>  <r_i_glide_gscore>  (1) 
-7.9918684892501428

>  <r_i_glide_gscore_strain>  (1) 
0

>  <r_i_glide_hbond>  (1) 
-0.46926196142098014

>  <r_i_glide_ligand_efficiency>  (1) 
-0.26621010347184998

>  <r_i_glide_ligand_efficiency_ln>  (1) 
-1.8145750830060232

>  <r_i_glide_ligand_efficiency_sa>  (1) 
-0.82717668692107249

>  <r_i_glide_lipo>  (1) 
-2.8903426616805681

>  <r_i_glide_metal>  (1) 
-0

>  <r_i_glide_rewards>  (1) 
-2.0327629344033693

>  <r_lp_Energy>  (1) 
44.150161999999995

>  <s_epik_cmdline>  (1) 
J2VwaWtfcHl0aG9uJywgJy1waHQnLCAnMS4wJywgJy1waCcsICc3LjQnLCAnLXRuJywgJzgnLCAnLW1hJywgJzUwMCcsICctaW1hZScsICc8aW5maWxlLm1hZT4nLCAnLW9tYWUnLCAnPG91dGZpbGUubWFlPic=

>  <s_epik_input>  (1) 
W0NIM11bQ0BIXShbT0hdKUMoPU8pQyg9TylbQ0BASF0oW0NIMl1bTkhdMSlbQ0gyXVtDQEhdMVtDSDJdW0NIMl1bQ0BASF0oW0NIMl1bQ0BIXShbQ0gzXSlDMj1bQ0gyXSlbQ0gyXVtDSDJdW0NAQEhdKFtDQEhdMjMpW0NAQEhdKFtDSDJdW09IXSlbQ0gyXVtDSDJdW0NIMl0z

>  <s_glide_docking_method>  (1) 
confgen

>  <s_i_glide_gridfile>  (1) 
gpcr_5ht2c_6bqh_protein_autoprepared_prepared

>  <s_lp_Force_Field>  (1) 
S-OPLS

>  <s_lp_Variant>  (1) 
DiffSBDD_44-1

>  <s_m_source_file>  (1) 
generated_GPCR_5HT2C_ligand_DiffSBDD_2026-06-23_prepared.sdf

>  <GenAI_Model>  (1) 
DiffSBDD

>  <Protein>  (1) 
GPCR_5HT2C

$$$$
DiffSBDD_95
     RDKit          3D

  0  0  0  0  0  0  0  0  0  0999 V3000
M  V30 BEGIN CTAB
M  V30 COUNTS 57 59 0 0 1
M  V30 BEGIN ATOM
M  V30 1 O 36.016007 33.945808 60.123541 0
M  V30 2 C 39.255238 34.565772 62.054141 0
M  V30 3 C 39.491939 34.578719 60.567761 0
M  V30 4 C 37.067542 25.337784 57.367750 0
M  V30 5 C 38.477878 29.398860 54.602338 0
M  V30 6 O 38.045136 31.867607 55.976907 0
M  V30 7 O 38.894689 31.525516 61.272020 0 CHG=-1
M  V30 8 C 38.842191 25.690183 55.222165 0
M  V30 9 O 36.445136 30.941867 60.967748 0
M  V30 10 C 40.520724 28.217657 57.724031 0
M  V30 11 C 38.934161 30.995625 56.648729 0 CFG=2
M  V30 12 C 38.078267 34.678542 61.107640 0
M  V30 13 C 40.169836 28.776811 56.360903 0 CFG=2
M  V30 14 C 37.728761 24.840539 55.089960 0
M  V30 15 C 39.351753 30.173188 53.581504 0
M  V30 16 C 39.254496 29.735922 52.116445 0
M  V30 17 C 38.485856 28.706574 51.708733 0
M  V30 18 C 37.030806 33.566788 61.031517 0 CFG=2
M  V30 19 C 38.865603 29.537029 56.098195 0 CFG=2
M  V30 20 C 40.085659 30.542854 51.138593 0
M  V30 21 C 38.721493 31.035754 58.164533 0
M  V30 22 C 37.810117 31.801753 58.792399 0
M  V30 23 C 36.845132 24.665068 56.159993 0
M  V30 24 P 37.597000 31.801948 60.616563 0
M  V30 25 C 38.179908 26.188781 57.510530 0
M  V30 26 C 39.078104 26.373028 56.433520 0
M  V30 27 C 40.270656 27.277021 56.564331 0 CFG=2
M  V30 28 H 35.658746 33.151627 59.746080 0
M  V30 29 H 39.528304 35.457406 62.614930 0
M  V30 30 H 39.398676 33.628326 62.585655 0
M  V30 31 H 39.811230 33.653211 60.095595 0
M  V30 32 H 39.946554 35.481004 60.167757 0
M  V30 33 H 36.383718 25.203141 58.184206 0
M  V30 34 H 38.520950 28.333866 54.387936 0
M  V30 35 H 37.434032 29.685044 54.465766 0
M  V30 36 H 37.149670 31.737759 56.290278 0
M  V30 37 H 39.520137 25.819856 54.391265 0
M  V30 38 H 41.548776 28.357348 58.052297 0
M  V30 39 H 39.778280 28.277614 58.513541 0
M  V30 40 H 39.928561 31.392839 56.446398 0
M  V30 41 H 37.632171 35.671277 61.077574 0
M  V30 42 H 40.992386 29.164968 55.767770 0
M  V30 43 H 37.554411 24.322274 54.167760 0
M  V30 44 H 39.088282 31.230482 53.623687 0
M  V30 45 H 40.402974 30.133321 53.861587 0
M  V30 46 H 38.445134 28.427456 50.665812 0
M  V30 47 H 37.891805 28.133740 52.401806 0
M  V30 48 H 36.546761 33.523640 62.006634 0
M  V30 49 H 38.075684 29.027408 56.652285 0
M  V30 50 H 41.146602 30.456683 51.367711 0
M  V30 51 H 39.933693 30.205445 50.112651 0
M  V30 52 H 39.807933 31.595617 51.188619 0
M  V30 53 H 39.355675 30.395646 58.754428 0
M  V30 54 H 37.178916 32.453336 58.209017 0
M  V30 55 H 35.992055 24.012406 56.053440 0
M  V30 56 H 38.342000 26.700543 58.445870 0
M  V30 57 H 41.150595 26.774848 56.167766 0
M  V30 END ATOM
M  V30 BEGIN BOND
M  V30 1 1 3 2
M  V30 2 1 11 6
M  V30 3 1 12 2
M  V30 4 1 12 3
M  V30 5 1 13 10
M  V30 6 2 14 8
M  V30 7 1 15 5
M  V30 8 1 16 15
M  V30 9 2 17 16
M  V30 10 1 18 1
M  V30 11 1 18 12
M  V30 12 1 19 5
M  V30 13 1 19 11
M  V30 14 1 19 13
M  V30 15 1 20 16
M  V30 16 1 21 11
M  V30 17 2 22 21
M  V30 18 2 23 4
M  V30 19 1 23 14
M  V30 20 1 24 7
M  V30 21 2 24 9
M  V30 22 1 24 18
M  V30 23 1 24 22
M  V30 24 1 25 4
M  V30 25 1 26 8
M  V30 26 2 26 25
M  V30 27 1 27 10
M  V30 28 1 27 13
M  V30 29 1 27 26
M  V30 30 1 28 1
M  V30 31 1 29 2
M  V30 32 1 30 2
M  V30 33 1 31 3
M  V30 34 1 32 3
M  V30 35 1 33 4
M  V30 36 1 34 5
M  V30 37 1 35 5
M  V30 38 1 36 6
M  V30 39 1 37 8
M  V30 40 1 38 10
M  V30 41 1 39 10
M  V30 42 1 11 40 CFG=1
M  V30 43 1 41 12
M  V30 44 1 13 42 CFG=3
M  V30 45 1 43 14
M  V30 46 1 44 15
M  V30 47 1 45 15
M  V30 48 1 46 17
M  V30 49 1 47 17
M  V30 50 1 18 48 CFG=1
M  V30 51 1 19 49 CFG=1
M  V30 52 1 50 20
M  V30 53 1 51 20
M  V30 54 1 52 20
M  V30 55 1 53 21
M  V30 56 1 54 22
M  V30 57 1 55 23
M  V30 58 1 56 25
M  V30 59 1 27 57 CFG=3
M  V30 END BOND
M  V30 END CTAB
M  END
>  <i_epik_Tot_Q>  (1) 
-1

>  <i_epik_Tot_abs_Q>  (1) 
1

>  <i_i_glide_confnum>  (1) 
2420

>  <i_i_glide_lignum>  (1) 
226

>  <i_i_glide_posenum>  (1) 
162

>  <i_i_glide_rotatable_bonds>  (1) 
12

>  <i_lp_mmshare_version>  (1) 
72125

>  <i_m_source_file_index>  (1) 
96

>  <i_f3d_flags>  (1) 
0

>  <num_sample>  (1) 
100

>  <b_lp_Chiralities_Consistent>  (1) 
1

>  <r_epik_Charging_Adjusted_Penalty>  (1) 
1.080755722854454e-05

>  <r_epik_Ionization_Penalty>  (1) 
1.1075885964492435e-05

>  <r_epik_Ionization_Penalty_Charging>  (1) 
1.080755722854454e-05

>  <r_epik_Ionization_Penalty_Neutral>  (1) 
2.6832873594789518e-07

>  <r_epik_State_Penalty>  (1) 
-0

>  <r_glide_ring_energy>  (1) 
0

>  <r_i_docking_score>  (1) 
-7.9786986683055501

>  <r_i_glide_ecoul>  (1) 
-6.1555166413296423

>  <r_i_glide_eff_state_penalty>  (1) 
-0

>  <r_i_glide_einternal>  (1) 
4.931719770212629

>  <r_i_glide_emodel>  (1) 
-65.634994772104676

>  <r_i_glide_emodel_strain>  (1) 
1.2818099451378835

>  <r_i_glide_energy>  (1) 
-44.790651127525358

>  <r_i_glide_erotb>  (1) 
1.1567431559220434

>  <r_i_glide_esite>  (1) 
0

>  <r_i_glide_evdw>  (1) 
-38.635134486195717

>  <r_i_glide_gscore>  (1) 
-7.9786986683055501

>  <r_i_glide_gscore_strain>  (1) 
0

>  <r_i_glide_hbond>  (1) 
-0.32000000000000001

>  <r_i_glide_ligand_efficiency>  (1) 
-0.29550735808539075

>  <r_i_glide_ligand_efficiency_ln>  (1) 
-1.8573095108536437

>  <r_i_glide_ligand_efficiency_sa>  (1) 
-0.88652207425617235

>  <r_i_glide_lipo>  (1) 
-4.4660857919359325

>  <r_i_glide_metal>  (1) 
-0

>  <r_i_glide_rewards>  (1) 
-1.494271811782429

>  <r_lp_Energy>  (1) 
31.602691999999998

>  <r_lp_tautomer_probability>  (1) 
1

>  <s_epik_cmdline>  (1) 
J2VwaWtfcHl0aG9uJywgJy1waHQnLCAnMS4wJywgJy1waCcsICc3LjQnLCAnLXRuJywgJzgnLCAnLW1hJywgJzUwMCcsICctaW1hZScsICc8aW5maWxlLm1hZT4nLCAnLW9tYWUnLCAnPG91dGZpbGUubWFlPic=

>  <s_epik_input>  (1) 
W0NIMl0xW0NIMl1bQ0hdMVtDQEBIXShbT0hdKVtQQF0oPU8pKFtPSF0pXFtDSF09W0NIXVxbQ0BIXShbT0hdKVtDQEBIXShbQ0gyXVtDSDJdQyg9W0NIMl0pW0NIM10pW0NASF0yW0NIMl1bQ0BIXTJjM1tjSF1bY0hdW2NIXVtjSF1bY0hdMw==

>  <s_glide_docking_method>  (1) 
confgen

>  <s_i_glide_gridfile>  (1) 
gpcr_5ht2c_6bqh_protein_autoprepared_prepared

>  <s_lp_Force_Field>  (1) 
S-OPLS

>  <s_lp_Variant>  (1) 
DiffSBDD_95-1

>  <s_m_source_file>  (1) 
generated_GPCR_5HT2C_ligand_DiffSBDD_2026-06-23_prepared.sdf

>  <GenAI_Model>  (1) 
DiffSBDD

>  <Protein>  (1) 
GPCR_5HT2C

$$$$
DiffSBDD_75
     RDKit          3D

  0  0  0  0  0  0  0  0  0  0999 V3000
M  V30 BEGIN CTAB
M  V30 COUNTS 77 78 0 0 1
M  V30 BEGIN ATOM
M  V30 1 C 38.984494 31.907790 60.032819 0
M  V30 2 C 40.609459 28.542989 60.342202 0
M  V30 3 O 40.845137 28.237266 64.009792 0
M  V30 4 C 37.119994 33.852343 58.703969 0
M  V30 5 C 43.454819 29.435014 65.191955 0 CFG=2
M  V30 6 C 38.334675 30.647838 54.503970 0
M  V30 7 C 40.874982 29.561674 64.490469 0 CFG=2
M  V30 8 C 37.335520 29.654397 54.565632 0
M  V30 9 O 44.234215 27.323578 64.309630 0
M  V30 10 C 41.652470 29.155145 66.951393 0 CFG=2
M  V30 11 O 38.445128 27.394592 51.868001 0
M  V30 12 S 39.272829 30.565433 62.431433 0
M  V30 13 C 36.195274 34.946424 59.291817 0
M  V30 14 C 38.411683 28.451123 52.732264 0
M  V30 15 C 40.884749 30.512654 63.282261 0
M  V30 16 C 38.282460 31.843377 55.445505 0
M  V30 17 C 39.375257 30.537716 53.557570 0
M  V30 18 O 41.645138 27.103056 68.251188 0
M  V30 19 C 40.274044 29.568769 67.490159 0
M  V30 20 C 41.985696 29.795509 65.568634 0 CFG=1
M  V30 21 O 36.688336 36.226983 58.967765 0
M  V30 22 O 39.782774 29.612390 59.915597 0
M  V30 23 O 37.866748 29.647494 57.545454 0
M  V30 24 C 35.618233 32.262815 59.973681 0
M  V30 25 N 36.700199 32.434976 58.967761 0 CFG=2 CHG=1
M  V30 26 C 38.170705 30.806799 57.815515 0
M  V30 27 C 37.376221 28.554384 53.681836 0
M  V30 28 C 38.976807 31.634671 56.804144 0
M  V30 29 C 37.781125 31.423766 59.177127 0 CFG=1
M  V30 30 C 39.410648 29.441401 52.671007 0
M  V30 31 C 43.257655 27.191561 66.507160 0
M  V30 32 C 39.813032 30.790651 60.711319 0 CFG=1
M  V30 33 C 43.987733 30.077927 63.903685 0
M  V30 34 C 41.844069 27.615912 66.949532 0 CFG=2
M  V30 35 C 43.698980 27.921116 65.240848 0
M  V30 36 H 39.645131 32.537740 59.438148 0
M  V30 37 H 38.622058 32.576527 60.815105 0
M  V30 38 H 40.566419 27.737886 59.608774 0
M  V30 39 H 41.645128 28.854676 60.430288 0
M  V30 40 H 40.280375 28.133830 61.297056 0
M  V30 41 H 39.929009 28.038122 63.840746 0
M  V30 42 H 38.119258 34.061699 59.073952 0
M  V30 43 H 37.184583 33.970630 57.621646 0
M  V30 44 H 39.913513 29.737809 64.965829 0
M  V30 45 H 36.535274 29.737774 55.287165 0
M  V30 46 H 43.979737 27.424731 67.290281 0
M  V30 47 H 42.379967 29.562203 67.656629 0
M  V30 48 H 37.619478 26.929055 51.801016 0
M  V30 49 H 35.181333 34.867439 58.897409 0
M  V30 50 H 36.141745 34.879415 60.378500 0
M  V30 51 H 41.645162 30.198518 62.573512 0
M  V30 52 H 41.131326 31.529201 63.588953 0
M  V30 53 H 38.746031 32.692248 54.942648 0
M  V30 54 H 37.245144 32.133931 55.592587 0
M  V30 55 H 40.141412 31.297043 53.505270 0
M  V30 56 H 40.741448 27.274103 68.517205 0
M  V30 57 H 39.462345 29.035492 66.993353 0
M  V30 58 H 40.202523 29.337756 68.552439 0
M  V30 59 H 40.103287 30.638900 67.367756 0
M  V30 60 H 41.984651 30.871336 65.751137 0
M  V30 61 H 36.559980 36.334280 58.026257 0
M  V30 62 H 35.942027 32.577005 60.966967 0
M  V30 63 H 34.717417 32.812742 59.700599 0
M  V30 64 H 35.311052 31.218819 60.035325 0
M  V30 65 H 36.608804 27.795511 53.729958 0
M  V30 66 H 39.947986 31.164259 56.651017 0
M  V30 67 H 39.174593 32.610624 57.243310 0
M  V30 68 H 37.333462 30.605134 59.741625 0
M  V30 69 H 40.204656 29.362257 51.942730 0
M  V30 70 H 43.300274 26.114925 66.346282 0
M  V30 71 H 44.072022 29.838714 65.995284 0
M  V30 72 H 40.841328 31.150879 60.742176 0
M  V30 73 H 45.078671 30.087597 63.900486 0
M  V30 74 H 43.672702 29.531114 63.015974 0
M  V30 75 H 43.645079 31.106542 63.817397 0
M  V30 76 H 41.104506 27.141736 66.304609 0
M  V30 77 H 36.226723 32.138203 58.095869 0
M  V30 END ATOM
M  V30 BEGIN BOND
M  V30 1 1 7 3
M  V30 2 1 8 6
M  V30 3 1 13 4
M  V30 4 1 14 11
M  V30 5 1 15 7
M  V30 6 1 15 12
M  V30 7 1 16 6
M  V30 8 2 17 6
M  V30 9 1 19 10
M  V30 10 1 20 5
M  V30 11 1 20 7
M  V30 12 1 20 10
M  V30 13 1 21 13
M  V30 14 1 22 2
M  V30 15 1 25 4
M  V30 16 1 25 24
M  V30 17 2 26 23
M  V30 18 2 27 8
M  V30 19 1 27 14
M  V30 20 1 28 16
M  V30 21 1 28 26
M  V30 22 1 29 1
M  V30 23 1 29 25
M  V30 24 1 29 26
M  V30 25 2 30 14
M  V30 26 1 30 17
M  V30 27 1 32 1
M  V30 28 1 32 12
M  V30 29 1 32 22
M  V30 30 1 33 5
M  V30 31 1 34 10
M  V30 32 1 34 18
M  V30 33 1 34 31
M  V30 34 1 35 5
M  V30 35 2 35 9
M  V30 36 1 35 31
M  V30 37 1 36 1
M  V30 38 1 37 1
M  V30 39 1 38 2
M  V30 40 1 39 2
M  V30 41 1 40 2
M  V30 42 1 41 3
M  V30 43 1 42 4
M  V30 44 1 43 4
M  V30 45 1 7 44 CFG=1
M  V30 46 1 45 8
M  V30 47 1 46 31
M  V30 48 1 10 47 CFG=1
M  V30 49 1 48 11
M  V30 50 1 49 13
M  V30 51 1 50 13
M  V30 52 1 51 15
M  V30 53 1 52 15
M  V30 54 1 53 16
M  V30 55 1 54 16
M  V30 56 1 55 17
M  V30 57 1 56 18
M  V30 58 1 57 19
M  V30 59 1 58 19
M  V30 60 1 59 19
M  V30 61 1 20 60 CFG=1
M  V30 62 1 61 21
M  V30 63 1 62 24
M  V30 64 1 63 24
M  V30 65 1 64 24
M  V30 66 1 65 27
M  V30 67 1 66 28
M  V30 68 1 67 28
M  V30 69 1 29 68 CFG=1
M  V30 70 1 69 30
M  V30 71 1 70 31
M  V30 72 1 5 71 CFG=1
M  V30 73 1 32 72 CFG=1
M  V30 74 1 73 33
M  V30 75 1 74 33
M  V30 76 1 75 33
M  V30 77 1 34 76 CFG=3
M  V30 78 1 25 77 CFG=3
M  V30 END BOND
M  V30 END CTAB
M  END
>  <i_epik_Tot_Q>  (1) 
1

>  <i_epik_Tot_abs_Q>  (1) 
1

>  <i_i_glide_confnum>  (1) 
6994

>  <i_i_glide_lignum>  (1) 
165

>  <i_i_glide_posenum>  (1) 
302

>  <i_i_glide_rotatable_bonds>  (1) 
18

>  <i_lp_mmshare_version>  (1) 
72125

>  <i_m_source_file_index>  (1) 
76

>  <i_f3d_flags>  (1) 
0

>  <num_sample>  (1) 
100

>  <b_lp_Chiralities_Consistent>  (1) 
1

>  <r_epik_Charging_Adjusted_Penalty>  (1) 
0.52789471212939676

>  <r_epik_Ionization_Penalty>  (1) 
0.26592108790513191

>  <r_epik_Ionization_Penalty_Charging>  (1) 
0.26394735606469838

>  <r_epik_Ionization_Penalty_Neutral>  (1) 
0.0019737318404335234

>  <r_epik_State_Penalty>  (1) 
0.26394735606469838

>  <r_glide_ring_energy>  (1) 
0

>  <r_i_docking_score>  (1) 
-7.975614326429727

>  <r_i_glide_ecoul>  (1) 
-19.766255604195759

>  <r_i_glide_eff_state_penalty>  (1) 
0.26394735606469838

>  <r_i_glide_einternal>  (1) 
12.866252117972316

>  <r_i_glide_emodel>  (1) 
-81.59405545204433

>  <r_i_glide_emodel_strain>  (1) 
4.3171094740265161

>  <r_i_glide_energy>  (1) 
-61.875874729188652

>  <r_i_glide_erotb>  (1) 
1.0139394581015995

>  <r_i_glide_esite>  (1) 
-0.17878728654458045

>  <r_i_glide_evdw>  (1) 
-42.109619124992889

>  <r_i_glide_gscore>  (1) 
-8.2395616824944256

>  <r_i_glide_gscore_strain>  (1) 
0.079277368506629031

>  <r_i_glide_hbond>  (1) 
-1.4198101711520581

>  <r_i_glide_ligand_efficiency>  (1) 
-0.22787469504084934

>  <r_i_glide_ligand_efficiency_ln>  (1) 
-1.7508243538742956

>  <r_i_glide_ligand_efficiency_sa>  (1) 
-0.74539323789262135

>  <r_i_glide_lipo>  (1) 
-2.0702748844385335

>  <r_i_glide_metal>  (1) 
-0

>  <r_i_glide_rewards>  (1) 
-0.59348687008847467

>  <r_lp_Energy>  (1) 
36.415389999999995

>  <r_lp_tautomer_probability>  (1) 
0.99989998499911525

>  <s_epik_Chemistry_Notes>  (1) 
This compound contains an acetal/aminal-like group ( X-CH(R)-Y where X, Y are N, S, or O) that may be acid/base labile, releasing an aldehyde.

>  <s_epik_cmdline>  (1) 
J2VwaWtfcHl0aG9uJywgJy1waHQnLCAnMS4wJywgJy1waCcsICc3LjQnLCAnLXRuJywgJzgnLCAnLW1hJywgJzUwMCcsICctaW1hZScsICc8aW5maWxlLm1hZT4nLCAnLW9tYWUnLCAnPG91dGZpbGUubWFlPic=

>  <s_epik_input>  (1) 
W2NIXTFbY0hdYyhbT0hdKVtjSF1bY0hdYzFbQ0gyXVtDSDJdQyg9TylbQ0BIXShOKFtDSDNdKVtDSDJdW0NIMl1bT0hdKVtDSDJdW0NASF0oT1tDSDNdKVNbQ0gyXVtDQEBIXShbT0hdKVtDQEhdMltDQEBIXShbQ0gzXSlbQ0BIXShbT0hdKVtDSDJdQyhbT0hdKT1DMltDSDNd

>  <s_glide_docking_method>  (1) 
confgen

>  <s_i_glide_gridfile>  (1) 
gpcr_5ht2c_6bqh_protein_autoprepared_prepared

>  <s_lp_Force_Field>  (1) 
S-OPLS

>  <s_lp_Variant>  (1) 
DiffSBDD_75-2

>  <s_m_source_file>  (1) 
generated_GPCR_5HT2C_ligand_DiffSBDD_2026-06-23_prepared.sdf

>  <GenAI_Model>  (1) 
DiffSBDD

>  <Protein>  (1) 
GPCR_5HT2C

$$$$
DiffSBDD_56
     RDKit          3D

  0  0  0  0  0  0  0  0  0  0999 V3000
M  V30 BEGIN CTAB
M  V30 COUNTS 73 78 0 0 1
M  V30 BEGIN ATOM
M  V30 1 C 39.452824 29.667288 56.571942 0 CFG=1
M  V30 2 C 38.709630 26.081010 55.896098 0
M  V30 3 C 39.361661 27.655053 57.799007 0
M  V30 4 C 40.826966 29.893366 65.183285 0
M  V30 5 C 38.042733 31.900715 56.410969 0
M  V30 6 C 38.041324 28.502111 53.461006 0
M  V30 7 C 38.430109 27.435085 56.594057 0 CFG=1
M  V30 8 C 39.390291 31.195094 56.308576 0
M  V30 9 C 39.316884 28.084866 51.418818 0
M  V30 10 C 41.105635 31.148802 65.706216 0
M  V30 11 C 41.105854 33.284043 62.787189 0
M  V30 12 C 40.623290 29.722724 63.797986 0
M  V30 13 C 38.738372 29.731550 53.633188 0
M  V30 14 C 37.843711 32.756603 57.682068 0
M  V30 15 C 41.191836 32.276710 64.829944 0
M  V30 16 C 39.645354 30.163820 52.643435 0
M  V30 17 N 39.063655 28.613159 54.406897 0
M  V30 18 N 38.450811 31.047104 59.407994 0 CFG=2 CHG=1
M  V30 19 F 40.939714 29.684981 50.688917 0
M  V30 20 C 39.426136 29.169816 58.027635 0 CFG=2
M  V30 21 C 40.004531 29.301927 51.589459 0
M  V30 22 C 41.743721 34.306596 66.322870 0
M  V30 23 F 39.594179 27.295799 50.357678 0
M  V30 24 C 38.718092 31.105882 60.874574 0
M  V30 25 C 40.693229 30.794446 62.956223 0
M  V30 26 C 38.503841 28.751834 55.756083 0 CFG=2
M  V30 27 C 38.272725 27.739174 52.300543 0
M  V30 28 S 40.438627 30.631598 61.211804 0
M  V30 29 C 41.451057 33.609076 65.020822 0
M  V30 30 C 41.392033 34.205977 63.751391 0
M  V30 31 C 37.410115 32.004665 58.955111 0
M  V30 32 O 41.304109 31.329809 67.064397 0
M  V30 33 N 40.971540 32.042410 63.431491 0
M  V30 34 C 38.239760 29.666451 58.884705 0
M  V30 35 C 37.493739 25.491774 55.168748 0
M  V30 36 C 41.303792 30.206929 67.938454 0
M  V30 37 O 42.044993 35.658023 66.059019 0
M  V30 38 H 40.447551 29.373682 56.239321 0
M  V30 39 H 39.566314 26.157183 55.224918 0
M  V30 40 H 39.005747 25.356361 56.654472 0
M  V30 41 H 39.039736 27.102193 58.683306 0
M  V30 42 H 40.361747 27.295597 57.548505 0
M  V30 43 H 40.761163 29.033389 65.839400 0
M  V30 44 H 37.245174 31.181084 56.287719 0
M  V30 45 H 37.952698 32.568547 55.552056 0
M  V30 46 H 37.421999 27.386946 57.009189 0
M  V30 47 H 40.045174 31.722221 56.967775 0
M  V30 48 H 39.811716 31.394909 55.324246 0
M  V30 49 H 40.983269 33.361472 61.718898 0
M  V30 50 H 40.404220 28.737986 63.399239 0
M  V30 51 H 38.734677 33.352458 57.877424 0
M  V30 52 H 37.065435 33.487171 57.461215 0
M  V30 53 H 40.052677 31.163462 52.683886 0
M  V30 54 H 40.363338 29.405029 58.533902 0
M  V30 55 H 40.899284 34.240471 67.009267 0
M  V30 56 H 42.601679 33.851675 66.818870 0
M  V30 57 H 38.597856 32.118697 61.258570 0
M  V30 58 H 38.030078 30.473543 61.436115 0
M  V30 59 H 37.498943 29.175637 55.722308 0
M  V30 60 H 37.645137 26.894671 52.080216 0
M  V30 61 H 41.556791 35.261801 63.583246 0
M  V30 62 H 37.231211 32.762727 59.717344 0
M  V30 63 H 36.445631 31.511273 58.838308 0
M  V30 64 H 37.321102 29.590436 58.300514 0
M  V30 65 H 38.094023 28.985240 59.724941 0
M  V30 66 H 37.734426 24.523053 54.730472 0
M  V30 67 H 37.154385 26.138165 54.363931 0
M  V30 68 H 36.656811 25.349954 55.853388 0
M  V30 69 H 41.501707 30.543077 68.956359 0
M  V30 70 H 42.086142 29.495139 67.672589 0
M  V30 71 H 40.339560 29.697437 67.947112 0
M  V30 72 H 41.268968 36.101757 65.750193 0
M  V30 73 H 39.292940 31.382737 58.965298 0
M  V30 END ATOM
M  V30 BEGIN BOND
M  V30 1 1 7 2
M  V30 2 1 7 3
M  V30 3 1 8 1
M  V30 4 1 8 5
M  V30 5 2 10 4
M  V30 6 1 12 4
M  V30 7 2 13 6
M  V30 8 1 14 5
M  V30 9 1 15 10
M  V30 10 1 16 13
M  V30 11 1 17 6
M  V30 12 1 17 13
M  V30 13 1 20 1
M  V30 14 1 20 3
M  V30 15 1 21 9
M  V30 16 2 21 16
M  V30 17 1 21 19
M  V30 18 1 23 9
M  V30 19 1 24 18
M  V30 20 2 25 12
M  V30 21 1 26 1
M  V30 22 1 26 7
M  V30 23 1 26 17
M  V30 24 1 27 6
M  V30 25 2 27 9
M  V30 26 1 28 24
M  V30 27 1 28 25
M  V30 28 2 29 15
M  V30 29 1 29 22
M  V30 30 2 30 11
M  V30 31 1 30 29
M  V30 32 1 31 14
M  V30 33 1 31 18
M  V30 34 1 32 10
M  V30 35 1 33 11
M  V30 36 1 33 15
M  V30 37 1 33 25
M  V30 38 1 34 18
M  V30 39 1 34 20
M  V30 40 1 35 2
M  V30 41 1 36 32
M  V30 42 1 37 22
M  V30 43 1 1 38 CFG=3
M  V30 44 1 39 2
M  V30 45 1 40 2
M  V30 46 1 41 3
M  V30 47 1 42 3
M  V30 48 1 43 4
M  V30 49 1 44 5
M  V30 50 1 45 5
M  V30 51 1 7 46 CFG=1
M  V30 52 1 47 8
M  V30 53 1 48 8
M  V30 54 1 49 11
M  V30 55 1 50 12
M  V30 56 1 51 14
M  V30 57 1 52 14
M  V30 58 1 53 16
M  V30 59 1 20 54 CFG=1
M  V30 60 1 55 22
M  V30 61 1 56 22
M  V30 62 1 57 24
M  V30 63 1 58 24
M  V30 64 1 26 59 CFG=3
M  V30 65 1 60 27
M  V30 66 1 61 30
M  V30 67 1 62 31
M  V30 68 1 63 31
M  V30 69 1 64 34
M  V30 70 1 65 34
M  V30 71 1 66 35
M  V30 72 1 67 35
M  V30 73 1 68 35
M  V30 74 1 69 36
M  V30 75 1 70 36
M  V30 76 1 71 36
M  V30 77 1 72 37
M  V30 78 1 18 73 CFG=3
M  V30 END BOND
M  V30 END CTAB
M  END
>  <i_epik_Tot_Q>  (1) 
1

>  <i_epik_Tot_abs_Q>  (1) 
1

>  <i_i_glide_confnum>  (1) 
151

>  <i_i_glide_lignum>  (1) 
124

>  <i_i_glide_posenum>  (1) 
320

>  <i_i_glide_rotatable_bonds>  (1) 
8

>  <i_lp_mmshare_version>  (1) 
72125

>  <i_m_source_file_index>  (1) 
57

>  <i_f3d_flags>  (1) 
0

>  <num_sample>  (1) 
100

>  <b_lp_Chiralities_Consistent>  (1) 
1

>  <r_epik_Charging_Adjusted_Penalty>  (1) 
1.9649939919035475

>  <r_epik_Ionization_Penalty>  (1) 
0.98409533599364529

>  <r_epik_Ionization_Penalty_Charging>  (1) 
0.98249699595177398

>  <r_epik_Ionization_Penalty_Neutral>  (1) 
0.0015983400418712683

>  <r_epik_State_Penalty>  (1) 
0.98249699595177364

>  <r_glide_ring_energy>  (1) 
0

>  <r_i_docking_score>  (1) 
-7.9755182255746959

>  <r_i_glide_ecoul>  (1) 
-2.9621531560337648

>  <r_i_glide_eff_state_penalty>  (1) 
0.98249699595177364

>  <r_i_glide_einternal>  (1) 
12.268332061364401

>  <r_i_glide_emodel>  (1) 
-73.962711829869676

>  <r_i_glide_emodel_strain>  (1) 
0

>  <r_i_glide_energy>  (1) 
-50.830567819688156

>  <r_i_glide_erotb>  (1) 
0.36855175673704876

>  <r_i_glide_esite>  (1) 
-0.023583776976973388

>  <r_i_glide_evdw>  (1) 
-47.868414663654391

>  <r_i_glide_gscore>  (1) 
-8.9580152215264697

>  <r_i_glide_gscore_strain>  (1) 
0

>  <r_i_glide_hbond>  (1) 
0

>  <r_i_glide_ligand_efficiency>  (1) 
-0.21555454663715395

>  <r_i_glide_ligand_efficiency_ln>  (1) 
-1.7297029304520788

>  <r_i_glide_ligand_efficiency_sa>  (1) 
-0.71827557052596125

>  <r_i_glide_lipo>  (1) 
-4.435147891896138

>  <r_i_glide_metal>  (1) 
-0

>  <r_i_glide_rewards>  (1) 
-2.030091602802623

>  <r_lp_Energy>  (1) 
113.81728699999999

>  <s_epik_Chemistry_Notes>  (1) 
This compound contains an acetal/aminal-like group ( X-CH(R)-Y where X, Y are N, S, or O) that may be acid/base labile, releasing an aldehyde.

>  <s_epik_cmdline>  (1) 
J2VwaWtfcHl0aG9uJywgJy1waHQnLCAnMS4wJywgJy1waCcsICc3LjQnLCAnLXRuJywgJzgnLCAnLW1hJywgJzUwMCcsICctaW1hZScsICc8aW5maWxlLm1hZT4nLCAnLW9tYWUnLCAnPG91dGZpbGUubWFlPic=

>  <s_epik_input>  (1) 
RmMoW2NIXTEpYyhGKVtjSF1jKGMxMilOMltDQEhdM1tDQEBIXShbQ0gyXVtDSDNdKVtDSDJdW0NAQEhdKFtDQEBIXTM0KVtDSDJdTihbQ0gyXVtDSDJdW0NIMl1bQ0gyXTQpW0NIMl1TYyhbY0hdW2NIXWM1T1tDSDNdKW4oYzU2KVtjSF1bY0hdYzZbQ0gyXVtPSF0=

>  <s_glide_docking_method>  (1) 
confgen

>  <s_i_glide_gridfile>  (1) 
gpcr_5ht2c_6bqh_protein_autoprepared_prepared

>  <s_lp_Force_Field>  (1) 
S-OPLS

>  <s_lp_Variant>  (1) 
DiffSBDD_56-3

>  <s_m_source_file>  (1) 
generated_GPCR_5HT2C_ligand_DiffSBDD_2026-06-23_prepared.sdf

>  <GenAI_Model>  (1) 
DiffSBDD

>  <Protein>  (1) 
GPCR_5HT2C

$$$$
DiffSBDD_66
     RDKit          3D

  0  0  0  0  0  0  0  0  0  0999 V3000
M  V30 BEGIN CTAB
M  V30 COUNTS 62 65 0 0 1
M  V30 BEGIN ATOM
M  V30 1 C 39.142063 30.399289 60.230883 0
M  V30 2 C 39.988522 29.022989 60.091643 0
M  V30 3 C 38.556023 30.781283 56.712611 0 CFG=1
M  V30 4 N 36.585008 34.177896 60.527240 0
M  V30 5 O 42.045133 35.737754 63.767759 0 CHG=-1
M  V30 6 O 36.845141 30.616757 54.967762 0
M  V30 7 O 38.045140 31.938236 57.345054 0
M  V30 8 C 40.800044 34.824816 61.946100 0
M  V30 9 C 37.783086 29.337789 58.667004 0
M  V30 10 C 38.669595 28.196584 56.850430 0
M  V30 11 N 37.835310 30.316025 59.580569 0
M  V30 12 C 38.625023 26.430297 54.990396 0
M  V30 13 C 38.491395 35.557398 61.571731 0
M  V30 14 N 37.104167 32.997866 60.929921 0
M  V30 15 C 36.903030 24.654703 54.567766 0
M  V30 16 C 38.215691 29.425976 57.399076 0
M  V30 17 C 39.749792 27.439879 57.678403 0 CFG=1
M  V30 18 C 40.547815 28.427020 58.694786 0
M  V30 19 C 38.473088 25.334748 57.748057 0
M  V30 20 C 36.317772 32.082739 60.368329 0
M  V30 21 C 36.695140 30.628868 60.446609 0
M  V30 22 C 38.199076 30.918823 55.217858 0
M  V30 23 C 35.184180 32.673123 59.734993 0
M  V30 24 C 39.814268 36.521823 63.386828 0
M  V30 25 C 39.240549 26.193365 58.357839 0
M  V30 26 C 37.179124 35.482625 60.821685 0
M  V30 27 C 39.612293 34.754285 61.199270 0
M  V30 28 O 36.557543 36.492118 60.486729 0
M  V30 29 Cl 39.561413 33.737754 59.806498 0
M  V30 30 C 35.410747 34.012276 59.842981 0
M  V30 31 C 37.768996 24.780174 56.803436 0
M  V30 32 C 38.217087 27.748686 55.647480 0
M  V30 33 C 38.617458 36.461161 62.650222 0
M  V30 34 C 37.724394 25.258063 55.438286 0
M  V30 35 C 40.896830 35.693443 63.042420 0
M  V30 36 H 39.040665 30.662262 61.284511 0
M  V30 37 H 39.455152 28.230649 60.618035 0
M  V30 38 H 39.638915 30.880935 56.789340 0
M  V30 39 H 36.307024 31.130225 55.572277 0
M  V30 40 H 37.090635 31.876905 57.367246 0
M  V30 41 H 41.645106 34.211940 61.670657 0
M  V30 42 H 37.645156 28.372940 59.121338 0
M  V30 43 H 40.870948 29.185173 60.709652 0
M  V30 44 H 39.664626 26.181126 55.197984 0
M  V30 45 H 38.563653 26.558297 53.908897 0
M  V30 46 H 36.275412 23.829001 54.871044 0
M  V30 47 H 36.844972 24.980712 53.540271 0
M  V30 48 H 39.658334 31.220744 59.767751 0
M  V30 49 H 40.511544 27.108168 56.973143 0
M  V30 50 H 41.439247 27.862828 58.973286 0
M  V30 51 H 40.943995 29.265752 58.124748 0
M  V30 52 H 36.938315 30.389895 61.477564 0
M  V30 53 H 35.843493 30.010341 60.166253 0
M  V30 54 H 38.405635 31.930420 54.864611 0
M  V30 55 H 38.820627 30.257625 54.615096 0
M  V30 56 H 34.367882 32.186302 59.221491 0
M  V30 57 H 39.899868 37.200342 64.223918 0
M  V30 58 H 39.534537 26.048836 59.367758 0
M  V30 59 H 34.845260 34.853667 59.471469 0
M  V30 60 H 37.196565 23.893463 57.035293 0
M  V30 61 H 37.478751 28.321096 55.116043 0
M  V30 62 H 37.784332 37.089982 62.928159 0
M  V30 END ATOM
M  V30 BEGIN BOND
M  V30 1 1 2 1
M  V30 2 1 7 3
M  V30 3 1 11 1
M  V30 4 1 11 9
M  V30 5 1 14 4
M  V30 6 1 16 3
M  V30 7 2 16 9
M  V30 8 1 16 10
M  V30 9 1 17 10
M  V30 10 1 18 2
M  V30 11 1 18 17
M  V30 12 2 20 14
M  V30 13 1 21 11
M  V30 14 1 21 20
M  V30 15 1 22 3
M  V30 16 1 22 6
M  V30 17 1 23 20
M  V30 18 1 25 17
M  V30 19 2 25 19
M  V30 20 1 26 4
M  V30 21 1 26 13
M  V30 22 1 27 8
M  V30 23 2 27 13
M  V30 24 2 28 26
M  V30 25 1 29 27
M  V30 26 1 30 4
M  V30 27 2 30 23
M  V30 28 2 31 19
M  V30 29 2 32 10
M  V30 30 1 32 12
M  V30 31 1 33 13
M  V30 32 2 33 24
M  V30 33 1 34 12
M  V30 34 2 34 15
M  V30 35 1 34 31
M  V30 36 1 35 5
M  V30 37 2 35 8
M  V30 38 1 35 24
M  V30 39 1 36 1
M  V30 40 1 37 2
M  V30 41 1 3 38 CFG=3
M  V30 42 1 39 6
M  V30 43 1 40 7
M  V30 44 1 41 8
M  V30 45 1 42 9
M  V30 46 1 43 2
M  V30 47 1 44 12
M  V30 48 1 45 12
M  V30 49 1 46 15
M  V30 50 1 47 15
M  V30 51 1 48 1
M  V30 52 1 17 49 CFG=3
M  V30 53 1 50 18
M  V30 54 1 51 18
M  V30 55 1 52 21
M  V30 56 1 53 21
M  V30 57 1 54 22
M  V30 58 1 55 22
M  V30 59 1 56 23
M  V30 60 1 57 24
M  V30 61 1 58 25
M  V30 62 1 59 30
M  V30 63 1 60 31
M  V30 64 1 61 32
M  V30 65 1 62 33
M  V30 END BOND
M  V30 END CTAB
M  END
>  <i_epik_Tot_Q>  (1) 
-1

>  <i_epik_Tot_abs_Q>  (1) 
1

>  <i_i_glide_confnum>  (1) 
17

>  <i_i_glide_lignum>  (1) 
146

>  <i_i_glide_posenum>  (1) 
341

>  <i_i_glide_rotatable_bonds>  (1) 
8

>  <i_lp_mmshare_version>  (1) 
72125

>  <i_m_source_file_index>  (1) 
67

>  <i_f3d_flags>  (1) 
0

>  <num_sample>  (1) 
100

>  <b_lp_Chiralities_Consistent>  (1) 
1

>  <r_epik_Charging_Adjusted_Penalty>  (1) 
0.13314888727576835

>  <r_epik_Ionization_Penalty>  (1) 
0.066709733675270222

>  <r_epik_Ionization_Penalty_Charging>  (1) 
0.066574443637884173

>  <r_epik_Ionization_Penalty_Neutral>  (1) 
0.00013529003738605556

>  <r_epik_State_Penalty>  (1) 
0.066574443637884159

>  <r_glide_ring_energy>  (1) 
0

>  <r_i_docking_score>  (1) 
-7.9694474110141504

>  <r_i_glide_ecoul>  (1) 
-4.8388314003433317

>  <r_i_glide_eff_state_penalty>  (1) 
0.066574443637884159

>  <r_i_glide_einternal>  (1) 
13.532705414770852

>  <r_i_glide_emodel>  (1) 
-65.384654627817568

>  <r_i_glide_emodel_strain>  (1) 
0.65202369504177682

>  <r_i_glide_energy>  (1) 
-50.21842586052076

>  <r_i_glide_erotb>  (1) 
0.50284807503681039

>  <r_i_glide_esite>  (1) 
0

>  <r_i_glide_evdw>  (1) 
-45.379594460177429

>  <r_i_glide_gscore>  (1) 
-8.0360218546520343

>  <r_i_glide_gscore_strain>  (1) 
0

>  <r_i_glide_hbond>  (1) 
-0.30399999999999999

>  <r_i_glide_ligand_efficiency>  (1) 
-0.22769849745754717

>  <r_i_glide_ligand_efficiency_ln>  (1) 
-1.7494705790732632

>  <r_i_glide_ligand_efficiency_sa>  (1) 
-0.74481688391394485

>  <r_i_glide_lipo>  (1) 
-4.2593312352313246

>  <r_i_glide_metal>  (1) 
-0

>  <r_i_glide_rewards>  (1) 
-0.98073426139714892

>  <r_lp_Energy>  (1) 
66.601000999999997

>  <r_lp_tautomer_probability>  (1) 
0.99999944244275329

>  <s_epik_cmdline>  (1) 
J2VwaWtfcHl0aG9uJywgJy1waHQnLCAnMS4wJywgJy1waCcsICc3LjQnLCAnLXRuJywgJzgnLCAnLW1hJywgJzUwMCcsICctaW1hZScsICc8aW5maWxlLm1hZT4nLCAnLW9tYWUnLCAnPG91dGZpbGUubWFlPic=

>  <s_epik_input>  (1) 
W0NIXTEvW0NIMl1DKD1bQ0gyXSlbQ0hdPUM9W0NIXVtDQEBIXShDPTFcMilbQ0gyXS9bQ0hdPVtDSF1cTihbQ0gyXVtDQEBIXTJbQ0BASF0oW09IXSlbQ0gyXVtPSF0pW0NIMl1jKFtjSF1bY0hdMylubjNDKD1PKWM0YyhDbClbY0hdYyhbT0hdKVtjSF1bY0hdNA==

>  <s_glide_docking_method>  (1) 
confgen

>  <s_i_glide_gridfile>  (1) 
gpcr_5ht2c_6bqh_protein_autoprepared_prepared

>  <s_lp_Force_Field>  (1) 
S-OPLS

>  <s_lp_Variant>  (1) 
DiffSBDD_66-2

>  <s_m_source_file>  (1) 
generated_GPCR_5HT2C_ligand_DiffSBDD_2026-06-23_prepared.sdf

>  <GenAI_Model>  (1) 
DiffSBDD

>  <Protein>  (1) 
GPCR_5HT2C

$$$$
DiffSBDD_66
     RDKit          3D

  0  0  0  0  0  0  0  0  0  0999 V3000
M  V30 BEGIN CTAB
M  V30 COUNTS 63 66 0 0 1
M  V30 BEGIN ATOM
M  V30 1 C 38.472746 29.239859 59.504279 0
M  V30 2 C 38.113042 30.469430 58.519339 0
M  V30 3 C 38.291296 26.439754 57.483124 0 CFG=2
M  V30 4 N 40.789527 30.510394 62.917529 0
M  V30 5 O 40.230514 36.966178 61.767729 0
M  V30 6 O 39.645096 24.937813 56.125101 0
M  V30 7 O 37.039787 26.121041 56.917188 0
M  V30 8 C 39.502861 34.687876 61.752936 0
M  V30 9 C 39.671448 28.541393 57.661350 0
M  V30 10 C 38.526391 28.268546 55.645579 0
M  V30 11 N 39.676363 28.561014 59.001819 0
M  V30 12 C 37.831516 27.984188 53.188397 0
M  V30 13 C 40.612788 33.062281 63.222340 0
M  V30 14 N 40.824174 30.570595 61.563670 0
M  V30 15 C 39.177262 27.906233 51.079826 0
M  V30 16 C 38.931761 27.721966 56.905267 0
M  V30 17 C 38.179047 29.776957 55.640006 0 CFG=1
M  V30 18 C 37.517120 30.309416 57.020571 0
M  V30 19 C 39.560856 30.393934 53.707983 0
M  V30 20 C 40.845112 29.287446 61.183049 0
M  V30 21 C 40.905426 28.936727 59.707823 0
M  V30 22 C 39.187277 25.193875 57.429866 0
M  V30 23 C 40.836029 28.403208 62.299327 0
M  V30 24 C 41.313928 35.403203 63.216229 0
M  V30 25 C 39.215885 30.630635 54.947691 0
M  V30 26 C 40.767362 31.669970 63.797124 0
M  V30 27 C 39.610363 33.372229 62.243026 0
M  V30 28 O 40.921881 31.478378 65.005126 0
M  V30 29 Cl 38.466410 32.183851 61.704966 0
M  V30 30 C 40.823414 29.226305 63.377584 0
M  V30 31 C 39.666475 29.737837 52.578811 0
M  V30 32 C 38.329122 27.481982 54.552984 0
M  V30 33 C 41.441755 34.095236 63.710263 0
M  V30 34 C 38.917491 28.529951 52.241805 0
M  V30 35 C 40.352016 35.697290 62.236557 0
M  V30 36 H 38.547936 29.596204 60.528694 0
M  V30 37 H 38.960314 31.152844 58.479982 0
M  V30 38 H 38.064323 26.606452 58.533707 0
M  V30 39 H 40.790371 37.572322 62.228315 0
M  V30 40 H 40.313232 24.269046 56.164835 0
M  V30 41 H 36.653685 26.922402 56.599223 0
M  V30 42 H 38.747748 34.927673 61.018689 0
M  V30 43 H 40.075465 29.454498 57.247585 0
M  V30 44 H 37.353355 31.040023 59.054719 0
M  V30 45 H 37.048533 28.731860 53.286389 0
M  V30 46 H 37.329578 27.144224 52.708130 0
M  V30 47 H 39.930802 28.280958 50.401578 0
M  V30 48 H 38.639837 27.014409 50.793144 0
M  V30 49 H 37.644824 28.538445 59.507962 0
M  V30 50 H 37.317554 29.881946 54.984217 0
M  V30 51 H 37.245158 31.327012 56.757160 0
M  V30 52 H 36.576935 29.766380 57.132037 0
M  V30 53 H 41.392734 29.737818 59.158116 0
M  V30 54 H 41.586227 28.091965 59.598708 0
M  V30 55 H 40.049468 25.330720 58.084089 0
M  V30 56 H 38.638968 24.314405 57.769405 0
M  V30 57 H 40.845059 27.337770 62.304107 0
M  V30 58 H 41.959012 36.184939 63.593443 0
M  V30 59 H 39.631679 31.456940 55.505585 0
M  V30 60 H 40.816465 29.000190 64.434559 0
M  V30 61 H 40.368913 30.098016 51.840434 0
M  V30 62 H 38.538086 26.428292 54.614436 0
M  V30 63 H 42.185249 33.878597 64.463868 0
M  V30 END ATOM
M  V30 BEGIN BOND
M  V30 1 1 2 1
M  V30 2 1 7 3
M  V30 3 1 11 1
M  V30 4 1 11 9
M  V30 5 1 14 4
M  V30 6 1 16 3
M  V30 7 2 16 9
M  V30 8 1 16 10
M  V30 9 1 17 10
M  V30 10 1 18 2
M  V30 11 1 18 17
M  V30 12 2 20 14
M  V30 13 1 21 11
M  V30 14 1 21 20
M  V30 15 1 22 3
M  V30 16 1 22 6
M  V30 17 1 23 20
M  V30 18 1 25 17
M  V30 19 2 25 19
M  V30 20 1 26 4
M  V30 21 1 26 13
M  V30 22 1 27 8
M  V30 23 2 27 13
M  V30 24 2 28 26
M  V30 25 1 29 27
M  V30 26 1 30 4
M  V30 27 2 30 23
M  V30 28 2 31 19
M  V30 29 2 32 10
M  V30 30 1 32 12
M  V30 31 1 33 13
M  V30 32 2 33 24
M  V30 33 1 34 12
M  V30 34 2 34 15
M  V30 35 1 34 31
M  V30 36 1 35 5
M  V30 37 2 35 8
M  V30 38 1 35 24
M  V30 39 1 36 1
M  V30 40 1 37 2
M  V30 41 1 3 38 CFG=1
M  V30 42 1 39 5
M  V30 43 1 40 6
M  V30 44 1 41 7
M  V30 45 1 42 8
M  V30 46 1 43 9
M  V30 47 1 44 2
M  V30 48 1 45 12
M  V30 49 1 46 12
M  V30 50 1 47 15
M  V30 51 1 48 15
M  V30 52 1 49 1
M  V30 53 1 17 50 CFG=3
M  V30 54 1 51 18
M  V30 55 1 52 18
M  V30 56 1 53 21
M  V30 57 1 54 21
M  V30 58 1 55 22
M  V30 59 1 56 22
M  V30 60 1 57 23
M  V30 61 1 58 24
M  V30 62 1 59 25
M  V30 63 1 60 30
M  V30 64 1 61 31
M  V30 65 1 62 32
M  V30 66 1 63 33
M  V30 END BOND
M  V30 END CTAB
M  END
>  <i_epik_Tot_Q>  (1) 
0

>  <i_epik_Tot_abs_Q>  (1) 
0

>  <i_i_glide_confnum>  (1) 
165

>  <i_i_glide_lignum>  (1) 
147

>  <i_i_glide_posenum>  (1) 
52

>  <i_i_glide_rotatable_bonds>  (1) 
9

>  <i_lp_mmshare_version>  (1) 
72125

>  <i_m_source_file_index>  (1) 
67

>  <i_f3d_flags>  (1) 
0

>  <num_sample>  (1) 
100

>  <b_lp_Chiralities_Consistent>  (1) 
1

>  <r_epik_Charging_Adjusted_Penalty>  (1) 
1.3281530491987052

>  <r_epik_Ionization_Penalty>  (1) 
1.3282883392360914

>  <r_epik_Ionization_Penalty_Charging>  (1) 
0

>  <r_epik_Ionization_Penalty_Neutral>  (1) 
1.3282883392360914

>  <r_epik_State_Penalty>  (1) 
1.3281530491987052

>  <r_glide_ring_energy>  (1) 
0

>  <r_i_docking_score>  (1) 
-7.9595176354319177

>  <r_i_glide_ecoul>  (1) 
-4.0015018446653201

>  <r_i_glide_eff_state_penalty>  (1) 
1.3281530491987052

>  <r_i_glide_einternal>  (1) 
25.685637402273439

>  <r_i_glide_emodel>  (1) 
-59.77977307844192

>  <r_i_glide_emodel_strain>  (1) 
0.58494754506205027

>  <r_i_glide_energy>  (1) 
-55.884624620815224

>  <r_i_glide_erotb>  (1) 
0.50097048188181392

>  <r_i_glide_esite>  (1) 
-0.011637950899144081

>  <r_i_glide_evdw>  (1) 
-51.883122776149904

>  <r_i_glide_gscore>  (1) 
-9.2876706846306227

>  <r_i_glide_gscore_strain>  (1) 
0

>  <r_i_glide_hbond>  (1) 
-0.32000000000000001

>  <r_i_glide_ligand_efficiency>  (1) 
-0.22741478958376907

>  <r_i_glide_ligand_efficiency_ln>  (1) 
-1.7472907729534677

>  <r_i_glide_ligand_efficiency_sa>  (1) 
-0.74388885664609417

>  <r_i_glide_lipo>  (1) 
-5.0292317507897133

>  <r_i_glide_metal>  (1) 
-0

>  <r_i_glide_rewards>  (1) 
-1.2333900493162873

>  <r_lp_Energy>  (1) 
65.328841999999995

>  <r_lp_tautomer_probability>  (1) 
0.99999944244275329

>  <s_epik_cmdline>  (1) 
J2VwaWtfcHl0aG9uJywgJy1waHQnLCAnMS4wJywgJy1waCcsICc3LjQnLCAnLXRuJywgJzgnLCAnLW1hJywgJzUwMCcsICctaW1hZScsICc8aW5maWxlLm1hZT4nLCAnLW9tYWUnLCAnPG91dGZpbGUubWFlPic=

>  <s_epik_input>  (1) 
W0NIXTEvW0NIMl1DKD1bQ0gyXSlbQ0hdPUM9W0NIXVtDQEBIXShDPTFcMilbQ0gyXS9bQ0hdPVtDSF1cTihbQ0gyXVtDQEBIXTJbQ0BASF0oW09IXSlbQ0gyXVtPSF0pW0NIMl1jKFtjSF1bY0hdMylubjNDKD1PKWM0YyhDbClbY0hdYyhbT0hdKVtjSF1bY0hdNA==

>  <s_glide_docking_method>  (1) 
confgen

>  <s_i_glide_gridfile>  (1) 
gpcr_5ht2c_6bqh_protein_autoprepared_prepared

>  <s_lp_Force_Field>  (1) 
S-OPLS

>  <s_lp_Variant>  (1) 
DiffSBDD_66-3

>  <s_m_source_file>  (1) 
generated_GPCR_5HT2C_ligand_DiffSBDD_2026-06-23_prepared.sdf

>  <GenAI_Model>  (1) 
DiffSBDD

>  <Protein>  (1) 
GPCR_5HT2C

$$$$
DiffSBDD_74
     RDKit          3D

  0  0  0  0  0  0  0  0  0  0999 V3000
M  V30 BEGIN CTAB
M  V30 COUNTS 71 73 0 0 1
M  V30 BEGIN ATOM
M  V30 1 C 38.441531 35.377042 60.933738 0
M  V30 2 C 38.347064 31.654594 59.765272 0
M  V30 3 C 40.261868 31.248439 63.047127 0
M  V30 4 F 41.453931 30.232165 50.567774 0
M  V30 5 C 38.910189 31.089745 60.851317 0
M  V30 6 C 39.591717 29.334514 51.659166 0
M  V30 7 C 39.520741 28.164339 50.900952 0
M  V30 8 C 37.804030 28.275918 54.875556 0
M  V30 9 O 40.127707 26.136890 55.680448 0
M  V30 10 F 42.389037 31.400144 64.079351 0
M  V30 11 F 42.211422 32.164280 62.048754 0
M  V30 12 C 36.557545 28.944209 58.177829 0
M  V30 13 F 39.544409 31.163682 50.167746 0
M  V30 14 C 37.450199 36.210784 60.098470 0
M  V30 15 C 39.005614 33.172934 62.056821 0
M  V30 16 N 38.817918 28.651782 55.887487 0 CHG=1
M  V30 17 C 40.170236 26.831991 56.908072 0 CFG=1
M  V30 18 C 41.494072 27.608072 57.010203 0
M  V30 19 C 38.171133 33.160773 59.653775 0
M  V30 20 C 38.406284 28.234724 53.487801 0
M  V30 21 N 37.830654 29.388247 58.732110 0
M  V30 22 F 40.446090 31.337758 52.123647 0
M  V30 23 C 39.019540 28.565865 58.384668 0 CFG=1
M  V30 24 C 38.109999 33.868865 61.029018 0 CFG=2
M  V30 25 C 38.932240 27.751023 57.057136 0 CFG=1
M  V30 26 C 40.383059 29.295900 58.500525 0
M  V30 27 C 38.898598 27.030478 51.426373 0
M  V30 28 F 39.645165 31.242579 64.224413 0
M  V30 29 F 40.568878 29.989146 62.728441 0
M  V30 30 O 36.767996 33.749032 61.462999 0
M  V30 31 C 37.872257 30.848070 58.562075 0
M  V30 32 C 40.272633 30.547377 51.092127 0
M  V30 33 C 39.027401 29.373192 52.958742 0
M  V30 34 C 39.367882 31.876294 61.978071 0
M  V30 35 C 41.584100 32.021713 63.217298 0
M  V30 36 C 38.343555 27.058794 52.723179 0
M  V30 37 C 41.578971 28.363321 58.328752 0
M  V30 38 H 38.478530 35.807203 61.935830 0
M  V30 39 H 39.446209 35.498348 60.526137 0
M  V30 40 H 39.034123 30.019344 60.883525 0
M  V30 41 H 39.945972 28.137681 49.909500 0
M  V30 42 H 37.344337 27.309997 55.091065 0
M  V30 43 H 37.005405 29.018199 54.885042 0
M  V30 44 H 40.869982 25.546295 55.657839 0
M  V30 45 H 36.443540 27.863713 58.167742 0
M  V30 46 H 35.733394 29.346739 58.769783 0
M  V30 47 H 36.445055 29.337720 57.167984 0
M  V30 48 H 37.792855 37.241848 60.008880 0
M  V30 49 H 37.325128 35.816102 59.090147 0
M  V30 50 H 36.462850 36.237660 60.560111 0
M  V30 51 H 39.344064 33.772456 62.888633 0
M  V30 52 H 38.591736 29.574281 56.233038 0
M  V30 53 H 40.147029 26.082323 57.700917 0
M  V30 54 H 41.595887 28.305597 56.178035 0
M  V30 55 H 42.349315 26.937798 56.967762 0
M  V30 56 H 37.279926 33.390059 59.066534 0
M  V30 57 H 39.018240 33.533364 59.076838 0
M  V30 58 H 39.023304 27.807627 59.169798 0
M  V30 59 H 38.070936 27.086298 57.104991 0
M  V30 60 H 40.444018 30.095954 57.767576 0
M  V30 61 H 40.527874 29.738789 59.475293 0
M  V30 62 H 38.845170 26.137758 50.833745 0
M  V30 63 H 36.607326 34.387262 62.140746 0
M  V30 64 H 36.861230 31.222524 58.392889 0
M  V30 65 H 38.432656 31.127404 57.670448 0
M  V30 66 H 39.074039 30.278327 53.546469 0
M  V30 67 H 41.420683 33.023555 63.613099 0
M  V30 68 H 37.863705 26.177376 53.123882 0
M  V30 69 H 42.505524 28.937397 58.365114 0
M  V30 70 H 41.623018 27.661029 59.161614 0
M  V30 71 H 39.721424 28.673920 55.437378 0
M  V30 END ATOM
M  V30 BEGIN BOND
M  V30 1 2 5 2
M  V30 2 2 7 6
M  V30 3 1 14 1
M  V30 4 1 16 8
M  V30 5 1 17 9
M  V30 6 1 18 17
M  V30 7 1 19 2
M  V30 8 1 20 8
M  V30 9 1 21 12
M  V30 10 1 23 21
M  V30 11 1 24 1
M  V30 12 1 24 15
M  V30 13 1 24 19
M  V30 14 1 25 16
M  V30 15 1 25 17
M  V30 16 1 25 23
M  V30 17 1 26 23
M  V30 18 1 27 7
M  V30 19 1 28 3
M  V30 20 1 29 3
M  V30 21 1 24 30 CFG=1
M  V30 22 1 31 2
M  V30 23 1 31 21
M  V30 24 1 32 4
M  V30 25 1 32 6
M  V30 26 1 32 13
M  V30 27 1 32 22
M  V30 28 1 33 6
M  V30 29 2 33 20
M  V30 30 1 34 3
M  V30 31 1 34 5
M  V30 32 2 34 15
M  V30 33 1 35 3
M  V30 34 1 35 10
M  V30 35 1 35 11
M  V30 36 1 36 20
M  V30 37 2 36 27
M  V30 38 1 37 18
M  V30 39 1 37 26
M  V30 40 1 38 1
M  V30 41 1 39 1
M  V30 42 1 40 5
M  V30 43 1 41 7
M  V30 44 1 42 8
M  V30 45 1 43 8
M  V30 46 1 44 9
M  V30 47 1 45 12
M  V30 48 1 46 12
M  V30 49 1 47 12
M  V30 50 1 48 14
M  V30 51 1 49 14
M  V30 52 1 50 14
M  V30 53 1 51 15
M  V30 54 1 52 16
M  V30 55 1 17 53 CFG=1
M  V30 56 1 54 18
M  V30 57 1 55 18
M  V30 58 1 56 19
M  V30 59 1 57 19
M  V30 60 1 23 58 CFG=1
M  V30 61 1 25 59 CFG=1
M  V30 62 1 60 26
M  V30 63 1 61 26
M  V30 64 1 62 27
M  V30 65 1 63 30
M  V30 66 1 64 31
M  V30 67 1 65 31
M  V30 68 1 66 33
M  V30 69 1 67 35
M  V30 70 1 68 36
M  V30 71 1 69 37
M  V30 72 1 70 37
M  V30 73 1 71 16
M  V30 END BOND
M  V30 END CTAB
M  END
>  <i_epik_Tot_Q>  (1) 
1

>  <i_epik_Tot_abs_Q>  (1) 
1

>  <i_i_glide_confnum>  (1) 
677

>  <i_i_glide_lignum>  (1) 
162

>  <i_i_glide_posenum>  (1) 
48

>  <i_i_glide_rotatable_bonds>  (1) 
12

>  <i_lp_mmshare_version>  (1) 
72125

>  <i_m_source_file_index>  (1) 
75

>  <i_f3d_flags>  (1) 
0

>  <num_sample>  (1) 
100

>  <b_lp_Chiralities_Consistent>  (1) 
1

>  <r_epik_Charging_Adjusted_Penalty>  (1) 
0.26612613870957635

>  <r_epik_Ionization_Penalty>  (1) 
0.1330997432788415

>  <r_epik_Ionization_Penalty_Charging>  (1) 
0.13306306935478829

>  <r_epik_Ionization_Penalty_Neutral>  (1) 
3.6673924053210746e-05

>  <r_epik_State_Penalty>  (1) 
0.13306306935478809

>  <r_glide_ring_energy>  (1) 
0

>  <r_i_docking_score>  (1) 
-7.9573437119385861

>  <r_i_glide_ecoul>  (1) 
-2.4024102311048252

>  <r_i_glide_eff_state_penalty>  (1) 
0.13306306935478809

>  <r_i_glide_einternal>  (1) 
23.744746479321673

>  <r_i_glide_emodel>  (1) 
-47.853427512087187

>  <r_i_glide_emodel_strain>  (1) 
3.0399526775335346

>  <r_i_glide_energy>  (1) 
-37.933871613888485

>  <r_i_glide_erotb>  (1) 
0.49698158257681319

>  <r_i_glide_esite>  (1) 
-0.043753812971581846

>  <r_i_glide_evdw>  (1) 
-35.531461382783661

>  <r_i_glide_gscore>  (1) 
-8.0904067812933746

>  <r_i_glide_gscore_strain>  (1) 
0

>  <r_i_glide_hbond>  (1) 
-0.074749768820726453

>  <r_i_glide_ligand_efficiency>  (1) 
-0.21506334356590773

>  <r_i_glide_ligand_efficiency_ln>  (1) 
-1.7257613045154574

>  <r_i_glide_ligand_efficiency_sa>  (1) 
-0.71663877291835898

>  <r_i_glide_lipo>  (1) 
-4.4691899024173258

>  <r_i_glide_metal>  (1) 
-0

>  <r_i_glide_rewards>  (1) 
-1.8627602758556474

>  <r_lp_Energy>  (1) 
43.081995999999997

>  <s_epik_cmdline>  (1) 
J2VwaWtfcHl0aG9uJywgJy1waHQnLCAnMS4wJywgJy1waCcsICc3LjQnLCAnLXRuJywgJzgnLCAnLW1hJywgJzUwMCcsICctaW1hZScsICc8aW5maWxlLm1hZT4nLCAnLW9tYWUnLCAnPG91dGZpbGUubWFlPic=

>  <s_epik_input>  (1) 
W0NIM11bQ0gyXVtDQF0xKFtPSF0pW0NIXT1DKEMoRikoRilbQ0hdKEYpRilbQ0hdPUMoW0NIMl0xKVtDSDJdTihbQ0gzXSlbQ0BIXShbQ0gyXVtDSDJdW0NIMl1bQ0BASF0yW09IXSlbQ0BIXTJbTkhdW0NIMl1jKFtjSF0zKVtjSF1bY0hdW2NIXWMzQyhGKShGKUY=

>  <s_glide_docking_method>  (1) 
confgen

>  <s_i_glide_gridfile>  (1) 
gpcr_5ht2c_6bqh_protein_autoprepared_prepared

>  <s_lp_Force_Field>  (1) 
S-OPLS

>  <s_lp_Variant>  (1) 
DiffSBDD_74-1

>  <s_m_source_file>  (1) 
generated_GPCR_5HT2C_ligand_DiffSBDD_2026-06-23_prepared.sdf

>  <GenAI_Model>  (1) 
DiffSBDD

>  <Protein>  (1) 
GPCR_5HT2C

$$$$
DiffSBDD_7
     RDKit          3D

  0  0  0  0  0  0  0  0  0  0999 V3000
M  V30 BEGIN CTAB
M  V30 COUNTS 75 77 0 0 1
M  V30 BEGIN ATOM
M  V30 1 C 39.097777 31.342200 57.097366 0
M  V30 2 C 37.455944 36.969486 61.634462 0
M  V30 3 O 36.842383 38.073181 62.148039 0
M  V30 4 C 36.422719 30.934635 59.971388 0 CFG=1
M  V30 5 C 38.623767 28.826801 56.383164 0 CFG=1
M  V30 6 C 38.595942 25.422969 54.971697 0
M  V30 7 O 35.719865 30.228119 58.967760 0
M  V30 8 C 37.376497 24.729982 54.890689 0
M  V30 9 C 38.530712 25.243117 57.392744 0
M  V30 10 C 39.176103 25.700902 56.223671 0
M  V30 11 C 37.549414 35.196218 59.962915 0
M  V30 12 C 37.324023 24.537318 57.303638 0
M  V30 13 C 38.721060 34.687962 60.567760 0
M  V30 14 C 39.793302 29.376137 59.508455 0
M  V30 15 N 37.855094 30.679594 59.842180 0
M  V30 16 S 40.390881 28.297265 56.220126 0 CHG=1
M  V30 17 O 36.849137 29.768468 54.962284 0
M  V30 18 C 38.368263 30.003991 57.422601 0 CFG=1
M  V30 19 C 38.214553 28.275446 53.802497 0
M  V30 20 C 38.621847 36.462229 62.241292 0
M  V30 21 C 36.923476 36.338461 60.497329 0
M  V30 22 C 40.464915 26.459197 56.311055 0 CFG=1
M  V30 23 C 38.438423 32.336050 56.117490 0
M  V30 24 C 36.744223 24.285112 56.053400 0
M  V30 25 C 34.762202 32.874454 60.170013 0
M  V30 26 O 40.012012 28.865643 60.603667 0
M  V30 27 C 36.223953 32.463143 59.992651 0 CFG=2
M  V30 28 C 42.312014 27.337753 57.977571 0
M  V30 29 O 38.045136 28.936342 52.568581 0
M  V30 30 C 36.964370 34.526061 58.728314 0
M  V30 31 C 38.175117 29.292740 54.952888 0 CFG=2
M  V30 32 N 36.845137 33.055474 58.792455 0 CHG=1
M  V30 33 C 38.394197 29.625764 58.960305 0 CFG=1
M  V30 34 C 40.859840 27.178622 57.571790 0 CFG=1
M  V30 35 C 39.255010 35.321654 61.707214 0
M  V30 36 H 40.069840 31.117352 56.699353 0
M  V30 37 H 39.245135 31.899479 58.019277 0
M  V30 38 H 36.125798 38.394136 61.620882 0
M  V30 39 H 36.097148 30.537738 60.931603 0
M  V30 40 H 38.008138 27.980166 56.681027 0
M  V30 41 H 39.085140 25.746120 54.069739 0
M  V30 42 H 35.490133 30.815835 58.245145 0
M  V30 43 H 36.928622 24.537755 53.928145 0
M  V30 44 H 38.964627 25.429057 58.361713 0
M  V30 45 H 36.845118 24.187991 58.195146 0
M  V30 46 H 39.208819 33.815666 60.158329 0
M  V30 47 H 40.586079 29.714035 58.842752 0
M  V30 48 H 38.229169 30.557967 60.776370 0
M  V30 49 H 36.647253 30.063120 54.085817 0
M  V30 50 H 37.330265 30.257424 57.257892 0
M  V30 51 H 37.439234 27.516951 53.910726 0
M  V30 52 H 39.189413 27.799858 53.737476 0
M  V30 53 H 39.031761 36.947993 63.115353 0
M  V30 54 H 36.033503 36.731962 60.031696 0
M  V30 55 H 41.242474 26.064900 55.663923 0
M  V30 56 H 38.820147 33.341953 56.291341 0
M  V30 57 H 37.356716 32.378062 56.215554 0
M  V30 58 H 38.655846 32.124440 55.073692 0
M  V30 59 H 35.811853 23.744724 55.986653 0
M  V30 60 H 34.445138 32.543615 61.154623 0
M  V30 61 H 34.109376 32.432658 59.415672 0
M  V30 62 H 34.625604 33.954618 60.148568 0
M  V30 63 H 36.761364 32.831884 60.866358 0
M  V30 64 H 42.635356 26.482157 58.567759 0
M  V30 65 H 42.445137 28.237104 58.577466 0
M  V30 66 H 42.960276 27.407696 57.104726 0
M  V30 67 H 38.006845 28.288534 51.878175 0
M  V30 68 H 37.569668 34.780584 57.858660 0
M  V30 69 H 35.967842 34.935741 58.567746 0
M  V30 70 H 38.837393 30.095800 54.643627 0
M  V30 71 H 37.766687 32.648729 58.728599 0
M  V30 72 H 37.811307 28.716450 59.113775 0
M  V30 73 H 40.143620 27.155678 58.379346 0
M  V30 74 H 40.149878 34.934126 62.171502 0
M  V30 75 H 36.313581 32.724657 57.982503 0
M  V30 END ATOM
M  V30 BEGIN BOND
M  V30 1 1 3 2
M  V30 2 1 7 4
M  V30 3 1 8 6
M  V30 4 2 10 6
M  V30 5 1 10 9
M  V30 6 2 12 9
M  V30 7 2 13 11
M  V30 8 1 15 4
M  V30 9 1 16 5
M  V30 10 1 18 1
M  V30 11 1 18 5
M  V30 12 1 20 2
M  V30 13 2 21 2
M  V30 14 1 21 11
M  V30 15 1 22 10
M  V30 16 1 16 22 CFG=3
M  V30 17 1 23 1
M  V30 18 2 24 8
M  V30 19 1 24 12
M  V30 20 2 26 14
M  V30 21 1 27 4
M  V30 22 1 27 25
M  V30 23 1 29 19
M  V30 24 1 30 11
M  V30 25 1 31 5
M  V30 26 1 31 17
M  V30 27 1 31 19
M  V30 28 1 32 27
M  V30 29 1 32 30
M  V30 30 1 33 14
M  V30 31 1 33 15
M  V30 32 1 33 18
M  V30 33 1 34 16
M  V30 34 1 34 22
M  V30 35 1 34 28
M  V30 36 1 35 13
M  V30 37 2 35 20
M  V30 38 1 36 1
M  V30 39 1 37 1
M  V30 40 1 38 3
M  V30 41 1 4 39 CFG=1
M  V30 42 1 5 40 CFG=1
M  V30 43 1 41 6
M  V30 44 1 42 7
M  V30 45 1 43 8
M  V30 46 1 44 9
M  V30 47 1 45 12
M  V30 48 1 46 13
M  V30 49 1 47 14
M  V30 50 1 48 15
M  V30 51 1 49 17
M  V30 52 1 18 50 CFG=3
M  V30 53 1 51 19
M  V30 54 1 52 19
M  V30 55 1 53 20
M  V30 56 1 54 21
M  V30 57 1 22 55 CFG=3
M  V30 58 1 56 23
M  V30 59 1 57 23
M  V30 60 1 58 23
M  V30 61 1 59 24
M  V30 62 1 60 25
M  V30 63 1 61 25
M  V30 64 1 62 25
M  V30 65 1 27 63 CFG=1
M  V30 66 1 64 28
M  V30 67 1 65 28
M  V30 68 1 66 28
M  V30 69 1 67 29
M  V30 70 1 68 30
M  V30 71 1 69 30
M  V30 72 1 31 70 CFG=3
M  V30 73 1 71 32
M  V30 74 1 33 72 CFG=3
M  V30 75 1 34 73 CFG=1
M  V30 76 1 74 35
M  V30 77 1 75 32
M  V30 END BOND
M  V30 END CTAB
M  END
>  <i_epik_Tot_Q>  (1) 
2

>  <i_epik_Tot_abs_Q>  (1) 
2

>  <i_i_glide_confnum>  (1) 
3859

>  <i_i_glide_lignum>  (1) 
10

>  <i_i_glide_posenum>  (1) 
292

>  <i_i_glide_rotatable_bonds>  (1) 
18

>  <i_lp_mmshare_version>  (1) 
72125

>  <i_m_source_file_index>  (1) 
8

>  <i_f3d_flags>  (1) 
0

>  <num_sample>  (1) 
100

>  <b_lp_Chiralities_Consistent>  (1) 
1

>  <r_epik_Charging_Adjusted_Penalty>  (1) 
0.016656697635693843

>  <r_epik_Ionization_Penalty>  (1) 
0.030146097982287068

>  <r_epik_Ionization_Penalty_Charging>  (1) 
0.016656697635693843

>  <r_epik_Ionization_Penalty_Neutral>  (1) 
0.013489400346593225

>  <r_epik_State_Penalty>  (1) 
-0

>  <r_glide_ring_energy>  (1) 
0

>  <r_i_docking_score>  (1) 
-7.9537665872154086

>  <r_i_glide_ecoul>  (1) 
-9.6311283150428881

>  <r_i_glide_eff_state_penalty>  (1) 
-0

>  <r_i_glide_einternal>  (1) 
19.328049108680261

>  <r_i_glide_emodel>  (1) 
-78.348582712714233

>  <r_i_glide_emodel_strain>  (1) 
6.7921379776502349

>  <r_i_glide_energy>  (1) 
-53.126355696886669

>  <r_i_glide_erotb>  (1) 
0.96334785482901231

>  <r_i_glide_esite>  (1) 
-0.16991105738407139

>  <r_i_glide_evdw>  (1) 
-43.495227381843783

>  <r_i_glide_gscore>  (1) 
-7.9537665872154086

>  <r_i_glide_gscore_strain>  (1) 
0.69803449441255871

>  <r_i_glide_hbond>  (1) 
-0.35999999999999999

>  <r_i_glide_ligand_efficiency>  (1) 
-0.22725047392044026

>  <r_i_glide_ligand_efficiency_ln>  (1) 
-1.7460282902323059

>  <r_i_glide_ligand_efficiency_sa>  (1) 
-0.7433513692155429

>  <r_i_glide_lipo>  (1) 
-4.1730002512373412

>  <r_i_glide_metal>  (1) 
-0

>  <r_i_glide_rewards>  (1) 
-1.2928070114869461

>  <r_lp_Energy>  (1) 
35.191997999999998

>  <r_lp_tautomer_probability>  (1) 
1

>  <s_epik_Chemistry_Notes>  (1) 
This compound contains an acetal/aminal-like group ( X-CH(R)-Y where X, Y are N, S, or O) that may be acid/base labile, releasing an aldehyde.

>  <s_epik_cmdline>  (1) 
J2VwaWtfcHl0aG9uJywgJy1waHQnLCAnMS4wJywgJy1waCcsICc3LjQnLCAnLXRuJywgJzgnLCAnLW1hJywgJzUwMCcsICctaW1hZScsICc8aW5maWxlLm1hZT4nLCAnLW9tYWUnLCAnPG91dGZpbGUubWFlPic=

>  <s_epik_input>  (1) 
W2NIXTFbY0hdW2NIXVtjSF1bY0hdYzFbQ0BIXShbQ0BIXTJbQ0gzXSlbUytdMltDQEhdKFtDQEhdKFtPSF0pW0NIMl1bT0hdKVtDQEhdKFtDSDJdW0NIM10pW0NAQEhdKFtDSF09TylbTkhdW0NASF0oW09IXSlbQ0BIXShbQ0gzXSlbTkhdW0NIMl1jKFtjSF0zKVtjSF1bY0hdW2NIXWMzW09IXQ==

>  <s_glide_docking_method>  (1) 
confgen

>  <s_i_glide_gridfile>  (1) 
gpcr_5ht2c_6bqh_protein_autoprepared_prepared

>  <s_lp_Force_Field>  (1) 
S-OPLS

>  <s_lp_Variant>  (1) 
DiffSBDD_7-1

>  <s_m_source_file>  (1) 
generated_GPCR_5HT2C_ligand_DiffSBDD_2026-06-23_prepared.sdf

>  <GenAI_Model>  (1) 
DiffSBDD

>  <Protein>  (1) 
GPCR_5HT2C

$$$$
DiffSBDD_95
     RDKit          3D

  0  0  0  0  0  0  0  0  0  0999 V3000
M  V30 BEGIN CTAB
M  V30 COUNTS 57 59 0 0 1
M  V30 BEGIN ATOM
M  V30 1 O 36.044629 30.703595 59.367745 0
M  V30 2 C 35.645188 33.963326 61.263043 0
M  V30 3 C 35.410199 34.095495 59.772866 0
M  V30 4 C 37.582278 24.880218 57.408697 0
M  V30 5 C 38.656423 29.442142 53.725321 0
M  V30 6 O 37.645354 31.749565 55.112210 0
M  V30 7 O 38.485335 33.692952 60.059251 0 CHG=-1
M  V30 8 C 38.432320 25.943188 54.949922 0
M  V30 9 O 39.210127 31.263414 60.168676 0
M  V30 10 C 40.233233 28.424981 57.204640 0
M  V30 11 C 38.780703 31.116021 55.665990 0 CFG=2
M  V30 12 C 35.426604 32.729382 60.422961 0
M  V30 13 C 40.043146 28.881740 55.771658 0 CFG=2
M  V30 14 C 37.404721 24.982327 54.987594 0
M  V30 15 C 39.639975 30.296914 52.889676 0
M  V30 16 C 39.764165 29.914588 51.418527 0
M  V30 17 C 39.645124 30.819118 50.433292 0
M  V30 18 C 36.528226 31.691106 60.261458 0 CFG=2
M  V30 19 C 38.788622 29.609265 55.265072 0 CFG=2
M  V30 20 C 40.037198 28.455079 51.131806 0
M  V30 21 C 38.874524 31.320462 57.165721 0
M  V30 22 C 38.077554 32.121432 57.885713 0
M  V30 23 C 36.982234 24.450868 56.213040 0
M  V30 24 P 38.244625 32.280349 59.691174 0
M  V30 25 C 38.607267 25.843633 57.376976 0
M  V30 26 C 39.041249 26.383707 56.144188 0
M  V30 27 C 40.148994 27.395111 56.108013 0 CFG=2
M  V30 28 H 35.845866 31.117678 58.524720 0
M  V30 29 H 34.845008 34.191861 61.959917 0
M  V30 30 H 36.642733 34.166878 61.643049 0
M  V30 31 H 36.248397 34.387035 59.145172 0
M  V30 32 H 34.445941 34.467743 59.434429 0
M  V30 33 H 37.258296 24.469155 58.352348 0
M  V30 34 H 38.789172 28.392042 53.492665 0
M  V30 35 H 37.640051 29.677263 53.416904 0
M  V30 36 H 36.927375 31.730260 55.739880 0
M  V30 37 H 38.758497 26.338675 54.001986 0
M  V30 38 H 41.209240 28.589604 57.659850 0
M  V30 39 H 39.384130 28.528225 57.877966 0
M  V30 40 H 39.659813 31.606904 55.248663 0
M  V30 41 H 34.446182 32.276039 60.537927 0
M  V30 42 H 40.939826 29.336875 55.367720 0
M  V30 43 H 36.942426 24.650731 54.074178 0
M  V30 44 H 39.350515 31.345265 52.953947 0
M  V30 45 H 40.625622 30.244926 53.331814 0
M  V30 46 H 39.736016 30.528936 49.396603 0
M  V30 47 H 39.454840 31.858154 50.650981 0
M  V30 48 H 36.649419 31.197546 61.225342 0
M  V30 49 H 37.927464 29.124098 55.728131 0
M  V30 50 H 39.182124 27.827640 51.381132 0
M  V30 51 H 40.260936 28.295488 50.077989 0
M  V30 52 H 40.896868 28.137844 51.716416 0
M  V30 53 H 39.644897 30.770195 57.672948 0
M  V30 54 H 37.302977 32.688903 57.393336 0
M  V30 55 H 36.198965 23.709283 56.235244 0
M  V30 56 H 39.068105 26.167584 58.300172 0
M  V30 57 H 41.073981 26.890551 55.844693 0
M  V30 END ATOM
M  V30 BEGIN BOND
M  V30 1 1 3 2
M  V30 2 1 11 6
M  V30 3 1 12 2
M  V30 4 1 12 3
M  V30 5 1 13 10
M  V30 6 2 14 8
M  V30 7 1 15 5
M  V30 8 1 16 15
M  V30 9 2 17 16
M  V30 10 1 18 1
M  V30 11 1 18 12
M  V30 12 1 19 5
M  V30 13 1 19 11
M  V30 14 1 19 13
M  V30 15 1 20 16
M  V30 16 1 21 11
M  V30 17 2 22 21
M  V30 18 2 23 4
M  V30 19 1 23 14
M  V30 20 1 24 7
M  V30 21 2 24 9
M  V30 22 1 24 18
M  V30 23 1 24 22
M  V30 24 1 25 4
M  V30 25 1 26 8
M  V30 26 2 26 25
M  V30 27 1 27 10
M  V30 28 1 27 13
M  V30 29 1 27 26
M  V30 30 1 28 1
M  V30 31 1 29 2
M  V30 32 1 30 2
M  V30 33 1 31 3
M  V30 34 1 32 3
M  V30 35 1 33 4
M  V30 36 1 34 5
M  V30 37 1 35 5
M  V30 38 1 36 6
M  V30 39 1 37 8
M  V30 40 1 38 10
M  V30 41 1 39 10
M  V30 42 1 11 40 CFG=3
M  V30 43 1 41 12
M  V30 44 1 13 42 CFG=3
M  V30 45 1 43 14
M  V30 46 1 44 15
M  V30 47 1 45 15
M  V30 48 1 46 17
M  V30 49 1 47 17
M  V30 50 1 18 48 CFG=1
M  V30 51 1 19 49 CFG=1
M  V30 52 1 50 20
M  V30 53 1 51 20
M  V30 54 1 52 20
M  V30 55 1 53 21
M  V30 56 1 54 22
M  V30 57 1 55 23
M  V30 58 1 56 25
M  V30 59 1 27 57 CFG=3
M  V30 END BOND
M  V30 END CTAB
M  END
>  <i_epik_Tot_Q>  (1) 
-1

>  <i_epik_Tot_abs_Q>  (1) 
1

>  <i_i_glide_confnum>  (1) 
1954

>  <i_i_glide_lignum>  (1) 
226

>  <i_i_glide_posenum>  (1) 
333

>  <i_i_glide_rotatable_bonds>  (1) 
12

>  <i_lp_mmshare_version>  (1) 
72125

>  <i_m_source_file_index>  (1) 
96

>  <i_f3d_flags>  (1) 
0

>  <num_sample>  (1) 
100

>  <b_lp_Chiralities_Consistent>  (1) 
1

>  <r_epik_Charging_Adjusted_Penalty>  (1) 
1.080755722854454e-05

>  <r_epik_Ionization_Penalty>  (1) 
1.1075885964492435e-05

>  <r_epik_Ionization_Penalty_Charging>  (1) 
1.080755722854454e-05

>  <r_epik_Ionization_Penalty_Neutral>  (1) 
2.6832873594789518e-07

>  <r_epik_State_Penalty>  (1) 
-0

>  <r_glide_ring_energy>  (1) 
0

>  <r_i_docking_score>  (1) 
-7.9486374374956812

>  <r_i_glide_ecoul>  (1) 
-6.9085697313834808

>  <r_i_glide_eff_state_penalty>  (1) 
-0

>  <r_i_glide_einternal>  (1) 
6.658111202735931

>  <r_i_glide_emodel>  (1) 
-65.060206472650691

>  <r_i_glide_emodel_strain>  (1) 
2.9633132370027013

>  <r_i_glide_energy>  (1) 
-46.853216819658094

>  <r_i_glide_erotb>  (1) 
1.1567431559220434

>  <r_i_glide_esite>  (1) 
-0.0230333822604975

>  <r_i_glide_evdw>  (1) 
-39.944647088274614

>  <r_i_glide_gscore>  (1) 
-7.9486374374956812

>  <r_i_glide_gscore_strain>  (1) 
0

>  <r_i_glide_hbond>  (1) 
-0.30898436368519533

>  <r_i_glide_ligand_efficiency>  (1) 
-0.29439397916650673

>  <r_i_glide_ligand_efficiency_ln>  (1) 
-1.8503117519192291

>  <r_i_glide_ligand_efficiency_sa>  (1) 
-0.88318193749952034

>  <r_i_glide_lipo>  (1) 
-4.4033575636064137

>  <r_i_glide_metal>  (1) 
-0

>  <r_i_glide_rewards>  (1) 
-1.3364874697443661

>  <r_lp_Energy>  (1) 
31.602691999999998

>  <r_lp_tautomer_probability>  (1) 
1

>  <s_epik_cmdline>  (1) 
J2VwaWtfcHl0aG9uJywgJy1waHQnLCAnMS4wJywgJy1waCcsICc3LjQnLCAnLXRuJywgJzgnLCAnLW1hJywgJzUwMCcsICctaW1hZScsICc8aW5maWxlLm1hZT4nLCAnLW9tYWUnLCAnPG91dGZpbGUubWFlPic=

>  <s_epik_input>  (1) 
W0NIMl0xW0NIMl1bQ0hdMVtDQEBIXShbT0hdKVtQQF0oPU8pKFtPSF0pXFtDSF09W0NIXVxbQ0BIXShbT0hdKVtDQEBIXShbQ0gyXVtDSDJdQyg9W0NIMl0pW0NIM10pW0NASF0yW0NIMl1bQ0BIXTJjM1tjSF1bY0hdW2NIXVtjSF1bY0hdMw==

>  <s_glide_docking_method>  (1) 
confgen

>  <s_i_glide_gridfile>  (1) 
gpcr_5ht2c_6bqh_protein_autoprepared_prepared

>  <s_lp_Force_Field>  (1) 
S-OPLS

>  <s_lp_Variant>  (1) 
DiffSBDD_95-1

>  <s_m_source_file>  (1) 
generated_GPCR_5HT2C_ligand_DiffSBDD_2026-06-23_prepared.sdf

>  <GenAI_Model>  (1) 
DiffSBDD

>  <Protein>  (1) 
GPCR_5HT2C

$$$$
DiffSBDD_44
     RDKit          3D

  0  0  0  0  0  0  0  0  0  0999 V3000
M  V30 BEGIN CTAB
M  V30 COUNTS 72 74 0 0 1
M  V30 BEGIN ATOM
M  V30 1 C 38.784092 28.496492 51.643371 0 CFG=1
M  V30 2 O 37.838731 28.134208 54.386677 0
M  V30 3 C 38.789785 33.446578 59.485010 0
M  V30 4 C 36.512977 32.710970 60.524889 0
M  V30 5 C 36.594712 35.320525 60.358471 0
M  V30 6 C 38.975799 29.242508 56.804944 0
M  V30 7 C 38.467432 31.215679 55.456007 0
M  V30 8 C 38.676083 29.022969 54.232149 0
M  V30 9 C 37.406215 29.911781 58.809976 0
M  V30 10 C 34.830597 33.931267 59.062011 0
M  V30 11 O 40.042869 30.280691 52.690943 0
M  V30 12 N 37.645139 31.195763 56.673066 0 CHG=1
M  V30 13 C 37.490458 35.463709 61.572856 0 CFG=2
M  V30 14 C 38.198248 30.969308 59.613130 0
M  V30 15 C 36.540668 36.271603 59.409647 0
M  V30 16 C 37.923112 36.915650 63.599089 0
M  V30 17 C 37.644189 32.417783 59.513838 0 CFG=2
M  V30 18 C 37.113839 36.756549 62.325452 0
M  V30 19 C 41.363289 35.622937 62.477608 0
M  V30 20 C 39.405497 36.941952 63.283958 0
M  V30 21 C 39.041738 26.996871 51.819461 0
M  V30 22 C 35.730382 34.039937 60.306479 0 CFG=1
M  V30 23 C 37.665698 29.869162 57.283405 0 CFG=1
M  V30 24 C 39.029415 35.282326 61.342244 0 CFG=2
M  V30 25 C 39.245139 29.351271 52.834863 0
M  V30 26 C 39.197552 29.862677 55.408937 0 CFG=2
M  V30 27 C 39.372659 33.843341 60.850107 0
M  V30 28 O 39.531463 28.869433 50.498149 0
M  V30 29 C 39.833765 35.604347 62.652908 0 CFG=1
M  V30 30 O 42.025989 35.737740 63.726471 0
M  V30 31 H 37.725555 28.674907 51.453126 0
M  V30 32 H 39.591393 33.085094 58.841573 0
M  V30 33 H 38.441354 34.328573 58.967763 0
M  V30 34 H 36.892904 32.637740 61.541491 0
M  V30 35 H 35.788889 31.896820 60.468792 0
M  V30 36 H 39.799716 29.525347 57.459966 0
M  V30 37 H 38.931989 28.151862 56.799794 0
M  V30 38 H 39.179270 32.039455 55.517613 0
M  V30 39 H 37.831090 31.402722 54.588967 0
M  V30 40 H 37.631952 28.926945 59.217628 0
M  V30 41 H 36.340255 30.057798 58.988615 0
M  V30 42 H 34.127454 34.755958 58.968800 0
M  V30 43 H 35.444005 33.933365 58.167745 0
M  V30 44 H 34.246023 33.010749 59.067596 0
M  V30 45 H 36.659894 31.502640 56.567822 0
M  V30 46 H 37.178583 34.632415 62.167760 0
M  V30 47 H 39.239824 30.926425 59.295618 0
M  V30 48 H 38.221338 30.679161 60.663536 0
M  V30 49 H 35.888170 36.178260 58.567759 0
M  V30 50 H 37.149050 37.160468 59.478072 0
M  V30 51 H 37.712335 36.137756 64.304191 0
M  V30 52 H 37.613334 37.770020 64.155782 0
M  V30 53 H 37.153994 32.540358 58.559875 0
M  V30 54 H 36.052869 36.747032 62.578106 0
M  V30 55 H 37.271828 37.634470 61.698751 0
M  V30 56 H 41.650799 36.437393 61.812952 0
M  V30 57 H 41.716170 34.697016 62.036463 0
M  V30 58 H 39.944075 37.126769 64.213845 0
M  V30 59 H 39.640027 37.773076 62.616621 0
M  V30 60 H 38.330587 26.539066 52.506490 0
M  V30 61 H 38.931155 26.498298 50.857778 0
M  V30 62 H 40.045066 26.799082 52.193074 0
M  V30 63 H 35.049991 34.122839 61.154522 0
M  V30 64 H 36.845158 29.336463 56.815196 0
M  V30 65 H 39.340508 35.996221 60.577480 0
M  V30 66 H 40.265336 30.016833 55.248883 0
M  V30 67 H 39.115197 33.108195 61.613811 0
M  V30 68 H 40.444903 33.743528 60.728829 0
M  V30 69 H 39.381516 29.786647 50.320339 0
M  V30 70 H 39.609477 34.812392 63.367757 0
M  V30 71 H 41.938396 36.628934 64.052228 0
M  V30 72 H 38.073765 31.829136 57.330952 0
M  V30 END ATOM
M  V30 BEGIN BOND
M  V30 1 2 8 2
M  V30 2 1 12 7
M  V30 3 1 13 5
M  V30 4 1 14 9
M  V30 5 2 15 5
M  V30 6 1 17 3
M  V30 7 1 17 4
M  V30 8 1 17 14
M  V30 9 1 18 13
M  V30 10 1 18 16
M  V30 11 1 20 16
M  V30 12 1 21 1
M  V30 13 1 22 4
M  V30 14 1 22 5
M  V30 15 1 22 10
M  V30 16 1 23 6
M  V30 17 1 23 9
M  V30 18 1 23 12
M  V30 19 1 24 13
M  V30 20 1 25 1
M  V30 21 1 25 8
M  V30 22 2 25 11
M  V30 23 1 26 6
M  V30 24 1 26 7
M  V30 25 1 26 8
M  V30 26 1 27 3
M  V30 27 1 27 24
M  V30 28 1 28 1
M  V30 29 1 29 19
M  V30 30 1 29 20
M  V30 31 1 29 24
M  V30 32 1 30 19
M  V30 33 1 1 31 CFG=3
M  V30 34 1 32 3
M  V30 35 1 33 3
M  V30 36 1 34 4
M  V30 37 1 35 4
M  V30 38 1 36 6
M  V30 39 1 37 6
M  V30 40 1 38 7
M  V30 41 1 39 7
M  V30 42 1 40 9
M  V30 43 1 41 9
M  V30 44 1 42 10
M  V30 45 1 43 10
M  V30 46 1 44 10
M  V30 47 1 45 12
M  V30 48 1 13 46 CFG=1
M  V30 49 1 47 14
M  V30 50 1 48 14
M  V30 51 1 49 15
M  V30 52 1 50 15
M  V30 53 1 51 16
M  V30 54 1 52 16
M  V30 55 1 17 53 CFG=3
M  V30 56 1 54 18
M  V30 57 1 55 18
M  V30 58 1 56 19
M  V30 59 1 57 19
M  V30 60 1 58 20
M  V30 61 1 59 20
M  V30 62 1 60 21
M  V30 63 1 61 21
M  V30 64 1 62 21
M  V30 65 1 22 63 CFG=1
M  V30 66 1 23 64 CFG=3
M  V30 67 1 24 65 CFG=3
M  V30 68 1 26 66 CFG=3
M  V30 69 1 67 27
M  V30 70 1 68 27
M  V30 71 1 69 28
M  V30 72 1 29 70 CFG=1
M  V30 73 1 71 30
M  V30 74 1 72 12
M  V30 END BOND
M  V30 END CTAB
M  END
>  <i_epik_Tot_Q>  (1) 
1

>  <i_epik_Tot_abs_Q>  (1) 
1

>  <i_i_glide_confnum>  (1) 
79

>  <i_i_glide_lignum>  (1) 
97

>  <i_i_glide_posenum>  (1) 
40

>  <i_i_glide_rotatable_bonds>  (1) 
9

>  <i_lp_mmshare_version>  (1) 
72125

>  <i_m_source_file_index>  (1) 
45

>  <i_f3d_flags>  (1) 
0

>  <num_sample>  (1) 
100

>  <b_lp_Chiralities_Consistent>  (1) 
1

>  <r_epik_Charging_Adjusted_Penalty>  (1) 
0.0074455109037498855

>  <r_epik_Ionization_Penalty>  (1) 
0.0074458693978643794

>  <r_epik_Ionization_Penalty_Charging>  (1) 
0.0018801258091055938

>  <r_epik_Ionization_Penalty_Neutral>  (1) 
0.0055657435887587854

>  <r_epik_State_Penalty>  (1) 
0.0055653850946442915

>  <r_glide_ring_energy>  (1) 
0

>  <r_i_docking_score>  (1) 
-7.9296991268849508

>  <r_i_glide_ecoul>  (1) 
-9.7237513529875557

>  <r_i_glide_eff_state_penalty>  (1) 
0.0055653850946442915

>  <r_i_glide_einternal>  (1) 
10.483405334642908

>  <r_i_glide_emodel>  (1) 
-53.83639599278326

>  <r_i_glide_emodel_strain>  (1) 
1.1261078328448093

>  <r_i_glide_energy>  (1) 
-45.131394803298591

>  <r_i_glide_erotb>  (1) 
0.78317259644861148

>  <r_i_glide_esite>  (1) 
-0.10000000000000001

>  <r_i_glide_evdw>  (1) 
-35.407643450311035

>  <r_i_glide_gscore>  (1) 
-7.9352645119795948

>  <r_i_glide_gscore_strain>  (1) 
0

>  <r_i_glide_hbond>  (1) 
-0.44986627964254533

>  <r_i_glide_ligand_efficiency>  (1) 
-0.26432330422949835

>  <r_i_glide_ligand_efficiency_ln>  (1) 
-1.8017140426204246

>  <r_i_glide_ligand_efficiency_sa>  (1) 
-0.8213139629830285

>  <r_i_glide_lipo>  (1) 
-2.8795245666133473

>  <r_i_glide_metal>  (1) 
-0

>  <r_i_glide_rewards>  (1) 
-2.0601013867086277

>  <r_lp_Energy>  (1) 
44.150161999999995

>  <s_epik_cmdline>  (1) 
J2VwaWtfcHl0aG9uJywgJy1waHQnLCAnMS4wJywgJy1waCcsICc3LjQnLCAnLXRuJywgJzgnLCAnLW1hJywgJzUwMCcsICctaW1hZScsICc8aW5maWxlLm1hZT4nLCAnLW9tYWUnLCAnPG91dGZpbGUubWFlPic=

>  <s_epik_input>  (1) 
W0NIM11bQ0BIXShbT0hdKUMoPU8pQyg9TylbQ0BASF0oW0NIMl1bTkhdMSlbQ0gyXVtDQEhdMVtDSDJdW0NIMl1bQ0BASF0oW0NIMl1bQ0BIXShbQ0gzXSlDMj1bQ0gyXSlbQ0gyXVtDSDJdW0NAQEhdKFtDQEhdMjMpW0NAQEhdKFtDSDJdW09IXSlbQ0gyXVtDSDJdW0NIMl0z

>  <s_glide_docking_method>  (1) 
confgen

>  <s_i_glide_gridfile>  (1) 
gpcr_5ht2c_6bqh_protein_autoprepared_prepared

>  <s_lp_Force_Field>  (1) 
S-OPLS

>  <s_lp_Variant>  (1) 
DiffSBDD_44-1

>  <s_m_source_file>  (1) 
generated_GPCR_5HT2C_ligand_DiffSBDD_2026-06-23_prepared.sdf

>  <GenAI_Model>  (1) 
DiffSBDD

>  <Protein>  (1) 
GPCR_5HT2C

$$$$
DiffSBDD_71
     RDKit          3D

  0  0  0  0  0  0  0  0  0  0999 V3000
M  V30 BEGIN CTAB
M  V30 COUNTS 52 54 0 0 1
M  V30 BEGIN ATOM
M  V30 1 N 38.893397 34.773455 61.778923 0 CHG=1
M  V30 2 C 38.894130 29.383642 54.767096 0 CFG=1
M  V30 3 C 39.583911 28.643327 57.207544 0
M  V30 4 C 40.028783 29.288990 50.546723 0
M  V30 5 C 39.556411 28.335087 55.710143 0
M  V30 6 C 38.634018 34.420705 60.373853 0
M  V30 7 O 39.093762 30.691447 55.294779 0
M  V30 8 C 39.299099 28.219505 51.102098 0
M  V30 9 C 39.296825 29.343443 53.278061 0
M  V30 10 C 40.397854 30.384141 51.350473 0
M  V30 11 C 37.020306 32.590914 61.199709 0
M  V30 12 C 38.049327 31.177958 56.116735 0
M  V30 13 C 37.563323 32.793879 58.779691 0
M  V30 14 C 38.254441 30.751941 57.588811 0 CFG=1
M  V30 15 C 39.875441 36.466503 63.342527 0
M  V30 16 C 40.037694 30.413395 52.712966 0
M  V30 17 C 39.424941 36.135956 61.942652 0
M  V30 18 O 36.421553 33.526367 61.767829 0
M  V30 19 Cl 38.040550 26.937950 53.127262 0
M  V30 20 C 38.930848 28.245156 52.463265 0
M  V30 21 N 37.245139 31.382570 58.472322 0 CHG=1
M  V30 22 C 38.119285 32.973039 60.195327 0 CFG=1
M  V30 23 C 38.275423 29.229553 57.760688 0
M  V30 24 O 40.041805 27.292732 55.275501 0
M  V30 25 O 36.808219 31.370429 61.370714 0 CHG=-1
M  V30 26 C 40.894509 36.135775 62.271016 0
M  V30 27 H 38.000570 34.680765 62.256956 0
M  V30 28 H 37.824478 29.163523 54.773227 0
M  V30 29 H 40.425545 29.305922 57.416405 0
M  V30 30 H 40.306677 29.267894 49.502913 0
M  V30 31 H 39.552793 34.544514 59.800007 0
M  V30 32 H 37.912945 35.134055 59.970429 0
M  V30 33 H 39.019989 27.376291 50.482500 0
M  V30 34 H 40.955377 31.207304 50.922124 0
M  V30 35 H 38.092543 32.264816 56.030879 0
M  V30 36 H 37.071799 30.887942 55.732331 0
M  V30 37 H 38.263411 33.211202 58.054683 0
M  V30 38 H 36.644165 33.366999 58.661588 0
M  V30 39 H 39.227562 31.116011 57.919563 0
M  V30 40 H 39.798508 37.504883 63.660916 0
M  V30 41 H 39.699396 35.737201 64.127130 0
M  V30 42 H 40.324752 31.256353 53.323027 0
M  V30 43 H 38.957645 36.923414 61.353354 0
M  V30 44 H 36.351527 31.398592 57.955019 0
M  V30 45 H 38.953271 32.285129 60.346110 0
M  V30 46 H 38.223934 28.993231 58.824141 0
M  V30 47 H 37.405359 28.757651 57.300020 0
M  V30 48 H 39.797816 27.711240 57.733705 0
M  V30 49 H 41.414561 35.182579 62.349159 0
M  V30 50 H 41.489592 36.938995 61.852341 0
M  V30 51 H 39.541242 34.110522 62.180268 0
M  V30 52 H 37.123550 30.874427 59.341792 0
M  V30 END ATOM
M  V30 BEGIN BOND
M  V30 1 1 5 2
M  V30 2 1 5 3
M  V30 3 1 6 1
M  V30 4 1 7 2
M  V30 5 1 8 4
M  V30 6 1 9 2
M  V30 7 2 10 4
M  V30 8 1 12 7
M  V30 9 1 14 12
M  V30 10 2 16 9
M  V30 11 1 16 10
M  V30 12 1 17 1
M  V30 13 1 17 15
M  V30 14 2 18 11
M  V30 15 2 20 8
M  V30 16 1 20 9
M  V30 17 1 20 19
M  V30 18 1 21 13
M  V30 19 1 21 14
M  V30 20 1 22 6
M  V30 21 1 22 11
M  V30 22 1 22 13
M  V30 23 1 23 3
M  V30 24 1 23 14
M  V30 25 2 24 5
M  V30 26 1 25 11
M  V30 27 1 26 15
M  V30 28 1 26 17
M  V30 29 1 27 1
M  V30 30 1 2 28 CFG=3
M  V30 31 1 29 3
M  V30 32 1 30 4
M  V30 33 1 31 6
M  V30 34 1 32 6
M  V30 35 1 33 8
M  V30 36 1 34 10
M  V30 37 1 35 12
M  V30 38 1 36 12
M  V30 39 1 37 13
M  V30 40 1 38 13
M  V30 41 1 14 39 CFG=1
M  V30 42 1 40 15
M  V30 43 1 41 15
M  V30 44 1 42 16
M  V30 45 1 43 17
M  V30 46 1 44 21
M  V30 47 1 22 45 CFG=3
M  V30 48 1 46 23
M  V30 49 1 47 23
M  V30 50 1 48 3
M  V30 51 1 49 26
M  V30 52 1 50 26
M  V30 53 1 51 1
M  V30 54 1 52 21
M  V30 END BOND
M  V30 END CTAB
M  END
>  <i_epik_Tot_Q>  (1) 
1

>  <i_epik_Tot_abs_Q>  (1) 
3

>  <i_i_glide_confnum>  (1) 
332

>  <i_i_glide_lignum>  (1) 
156

>  <i_i_glide_posenum>  (1) 
122

>  <i_i_glide_rotatable_bonds>  (1) 
8

>  <i_lp_mmshare_version>  (1) 
72125

>  <i_m_source_file_index>  (1) 
72

>  <i_f3d_flags>  (1) 
0

>  <num_sample>  (1) 
100

>  <b_lp_Chiralities_Consistent>  (1) 
1

>  <r_epik_Charging_Adjusted_Penalty>  (1) 
0.028021554502508948

>  <r_epik_Ionization_Penalty>  (1) 
0.028021554963738291

>  <r_epik_Ionization_Penalty_Charging>  (1) 
0.028021554502508948

>  <r_epik_Ionization_Penalty_Neutral>  (1) 
4.6122934257721838e-10

>  <r_epik_State_Penalty>  (1) 
-0

>  <r_glide_ring_energy>  (1) 
0

>  <r_i_docking_score>  (1) 
-7.9271919662977979

>  <r_i_glide_ecoul>  (1) 
-9.1404752326251302

>  <r_i_glide_eff_state_penalty>  (1) 
-0

>  <r_i_glide_einternal>  (1) 
6.117374636318841

>  <r_i_glide_emodel>  (1) 
-74.990475776938553

>  <r_i_glide_emodel_strain>  (1) 
1.3516521893729632

>  <r_i_glide_energy>  (1) 
-47.358912970352542

>  <r_i_glide_erotb>  (1) 
0.79881325193843611

>  <r_i_glide_esite>  (1) 
-0.10000000000000001

>  <r_i_glide_evdw>  (1) 
-38.218437737727413

>  <r_i_glide_gscore>  (1) 
-7.9271919662977979

>  <r_i_glide_gscore_strain>  (1) 
0

>  <r_i_glide_hbond>  (1) 
-0.35253430505381733

>  <r_i_glide_ligand_efficiency>  (1) 
-0.30489199870376144

>  <r_i_glide_ligand_efficiency_ln>  (1) 
-1.8616750220466247

>  <r_i_glide_ligand_efficiency_sa>  (1) 
-0.90324134744875861

>  <r_i_glide_lipo>  (1) 
-2.9988113909660234

>  <r_i_glide_metal>  (1) 
-0

>  <r_i_glide_rewards>  (1) 
-1.9926663504362527

>  <r_lp_Energy>  (1) 
38.533868999999996

>  <r_lp_tautomer_probability>  (1) 
1

>  <s_epik_cmdline>  (1) 
J2VwaWtfcHl0aG9uJywgJy1waHQnLCAnMS4wJywgJy1waCcsICc3LjQnLCAnLXRuJywgJzgnLCAnLW1hJywgJzUwMCcsICctaW1hZScsICc8aW5maWxlLm1hZT4nLCAnLW9tYWUnLCAnPG91dGZpbGUubWFlPic=

>  <s_epik_input>  (1) 
W0NIMl0xW0NIMl1bQ0hdMVtOSF1bQ0gyXVtDQEBIXShDKD1PKVtPSF0pW0NIMl1bTkhdW0NASF0oW0NIMl1PMilbQ0gyXVtDSF09QyhbT0hdKVtDQEBIXTJjM1tjSF1bY0hdW2NIXVtjSF1jM0Ns

>  <s_glide_docking_method>  (1) 
confgen

>  <s_i_glide_gridfile>  (1) 
gpcr_5ht2c_6bqh_protein_autoprepared_prepared

>  <s_lp_Force_Field>  (1) 
S-OPLS

>  <s_lp_Variant>  (1) 
DiffSBDD_71-1

>  <s_m_source_file>  (1) 
generated_GPCR_5HT2C_ligand_DiffSBDD_2026-06-23_prepared.sdf

>  <GenAI_Model>  (1) 
DiffSBDD

>  <Protein>  (1) 
GPCR_5HT2C

$$$$
DiffSBDD_75
     RDKit          3D

  0  0  0  0  0  0  0  0  0  0999 V3000
M  V30 BEGIN CTAB
M  V30 COUNTS 76 77 0 0 1
M  V30 BEGIN ATOM
M  V30 1 C 39.394611 29.692700 61.736513 0
M  V30 2 C 36.553691 31.735470 60.520021 0
M  V30 3 O 41.259852 28.137655 57.008198 0
M  V30 4 C 40.568129 30.420486 65.309577 0
M  V30 5 C 38.635221 26.349407 57.017453 0 CFG=2
M  V30 6 C 39.560098 35.506859 61.693074 0
M  V30 7 C 39.945747 28.604577 57.238827 0 CFG=2
M  V30 8 C 38.285140 35.378030 61.097184 0
M  V30 9 O 36.624407 25.089371 56.602106 0
M  V30 10 C 39.259595 27.744808 54.896460 0 CFG=1
M  V30 11 O 37.245614 38.915361 60.967758 0
M  V30 12 S 38.138901 29.337740 59.258832 0
M  V30 13 C 40.843908 29.492227 66.506298 0
M  V30 14 C 37.993987 37.797954 61.201033 0
M  V30 15 C 39.756815 28.682142 58.761332 0
M  V30 16 C 40.419461 34.282048 61.938929 0
M  V30 17 C 40.044142 36.780322 62.040107 0
M  V30 18 O 37.105251 27.575725 53.767755 0
M  V30 19 C 39.383424 29.163824 54.285255 0
M  V30 20 C 38.915930 27.766574 56.422518 0 CFG=1
M  V30 21 O 40.849714 30.234778 67.702085 0
M  V30 22 O 37.394115 30.937748 61.342024 0
M  V30 23 O 41.645569 31.815849 62.049184 0
M  V30 24 C 41.832856 29.227551 63.617771 0
M  V30 25 N 40.510040 29.737643 64.011318 0
M  V30 26 C 40.519783 31.818417 62.543441 0
M  V30 27 C 37.501397 36.525286 60.853698 0
M  V30 28 C 39.740809 33.126668 62.693175 0
M  V30 29 C 39.802674 30.529427 62.978351 0 CFG=1
M  V30 30 C 39.264455 37.921742 61.788525 0
M  V30 31 C 37.971408 25.502212 54.652424 0
M  V30 32 C 38.539829 30.424725 60.670252 0 CFG=1
M  V30 33 C 39.865173 25.442077 57.220331 0
M  V30 34 C 38.299699 26.876946 54.040827 0 CFG=2
M  V30 35 C 37.639179 25.600770 56.135454 0
M  V30 36 H 40.294524 29.306809 61.269730 0
M  V30 37 H 38.845392 28.814718 62.073660 0
M  V30 38 H 35.813010 32.238672 61.140864 0
M  V30 39 H 37.116335 32.493989 59.976399 0
M  V30 40 H 36.013471 31.127346 59.793799 0
M  V30 41 H 41.306527 27.219070 57.231374 0
M  V30 42 H 41.310197 31.219434 65.283492 0
M  V30 43 H 39.614444 30.909899 65.502081 0
M  V30 44 H 39.912683 29.634387 56.885124 0
M  V30 45 H 37.911273 34.404524 60.824152 0
M  V30 46 H 37.155349 25.013882 54.120805 0
M  V30 47 H 40.231034 27.262525 54.808489 0
M  V30 48 H 36.516879 38.827066 60.365291 0
M  V30 49 H 40.075401 28.721094 66.579541 0
M  V30 50 H 41.807798 28.992953 66.424946 0
M  V30 51 H 40.532678 29.347704 59.137571 0
M  V30 52 H 39.907006 27.716356 59.242537 0
M  V30 53 H 40.759860 33.942836 60.967482 0
M  V30 54 H 41.319612 34.578358 62.479064 0
M  V30 55 H 41.020492 36.884769 62.492066 0
M  V30 56 H 36.660175 27.129934 53.061349 0
M  V30 57 H 38.484443 29.754457 54.465246 0
M  V30 58 H 40.226418 29.724986 54.688506 0
M  V30 59 H 39.532553 29.117405 53.205870 0
M  V30 60 H 37.968854 28.304652 56.499632 0
M  V30 61 H 40.863516 29.623400 68.424913 0
M  V30 62 H 42.183182 28.473398 64.320509 0
M  V30 63 H 41.819817 28.732619 62.648580 0
M  V30 64 H 42.584743 30.015963 63.588050 0
M  V30 65 H 36.527426 36.426857 60.398927 0
M  V30 66 H 39.645138 33.365063 63.751366 0
M  V30 67 H 38.737059 32.952465 62.308081 0
M  V30 68 H 38.853363 30.833881 63.417915 0
M  V30 69 H 39.645158 38.897301 62.050752 0
M  V30 70 H 38.836540 24.845743 54.567750 0
M  V30 71 H 38.155388 26.475695 57.988199 0
M  V30 72 H 39.110543 31.258748 60.259788 0
M  V30 73 H 39.569492 24.429388 57.499559 0
M  V30 74 H 40.445242 25.361805 56.301731 0
M  V30 75 H 40.515053 25.799664 58.017669 0
M  V30 76 H 38.775488 26.704144 53.074316 0
M  V30 END ATOM
M  V30 BEGIN BOND
M  V30 1 1 7 3
M  V30 2 1 8 6
M  V30 3 1 13 4
M  V30 4 1 14 11
M  V30 5 1 15 7
M  V30 6 1 15 12
M  V30 7 1 16 6
M  V30 8 2 17 6
M  V30 9 1 19 10
M  V30 10 1 20 5
M  V30 11 1 20 7
M  V30 12 1 20 10
M  V30 13 1 21 13
M  V30 14 1 22 2
M  V30 15 1 25 4
M  V30 16 1 25 24
M  V30 17 2 26 23
M  V30 18 2 27 8
M  V30 19 1 27 14
M  V30 20 1 28 16
M  V30 21 1 28 26
M  V30 22 1 29 1
M  V30 23 1 29 25
M  V30 24 1 29 26
M  V30 25 2 30 14
M  V30 26 1 30 17
M  V30 27 1 32 1
M  V30 28 1 32 12
M  V30 29 1 32 22
M  V30 30 1 33 5
M  V30 31 1 34 10
M  V30 32 1 34 18
M  V30 33 1 34 31
M  V30 34 1 35 5
M  V30 35 2 35 9
M  V30 36 1 35 31
M  V30 37 1 36 1
M  V30 38 1 37 1
M  V30 39 1 38 2
M  V30 40 1 39 2
M  V30 41 1 40 2
M  V30 42 1 41 3
M  V30 43 1 42 4
M  V30 44 1 43 4
M  V30 45 1 7 44 CFG=3
M  V30 46 1 45 8
M  V30 47 1 46 31
M  V30 48 1 10 47 CFG=1
M  V30 49 1 48 11
M  V30 50 1 49 13
M  V30 51 1 50 13
M  V30 52 1 51 15
M  V30 53 1 52 15
M  V30 54 1 53 16
M  V30 55 1 54 16
M  V30 56 1 55 17
M  V30 57 1 56 18
M  V30 58 1 57 19
M  V30 59 1 58 19
M  V30 60 1 59 19
M  V30 61 1 20 60 CFG=3
M  V30 62 1 61 21
M  V30 63 1 62 24
M  V30 64 1 63 24
M  V30 65 1 64 24
M  V30 66 1 65 27
M  V30 67 1 66 28
M  V30 68 1 67 28
M  V30 69 1 29 68 CFG=1
M  V30 70 1 69 30
M  V30 71 1 70 31
M  V30 72 1 5 71 CFG=1
M  V30 73 1 32 72 CFG=3
M  V30 74 1 73 33
M  V30 75 1 74 33
M  V30 76 1 75 33
M  V30 77 1 34 76 CFG=3
M  V30 END BOND
M  V30 END CTAB
M  END
>  <i_epik_Tot_Q>  (1) 
0

>  <i_epik_Tot_abs_Q>  (1) 
0

>  <i_i_glide_confnum>  (1) 
7766

>  <i_i_glide_lignum>  (1) 
175

>  <i_i_glide_posenum>  (1) 
235

>  <i_i_glide_rotatable_bonds>  (1) 
18

>  <i_lp_mmshare_version>  (1) 
72125

>  <i_m_source_file_index>  (1) 
76

>  <i_f3d_flags>  (1) 
0

>  <num_sample>  (1) 
100

>  <b_lp_Chiralities_Consistent>  (1) 
1

>  <r_epik_Charging_Adjusted_Penalty>  (1) 
0.60615279515584763

>  <r_epik_Ionization_Penalty>  (1) 
0.6077244911787385

>  <r_epik_Ionization_Penalty_Charging>  (1) 
0

>  <r_epik_Ionization_Penalty_Neutral>  (1) 
0.6077244911787385

>  <r_epik_State_Penalty>  (1) 
0.60615279515584763

>  <r_glide_ring_energy>  (1) 
0

>  <r_i_docking_score>  (1) 
-7.9266194871708473

>  <r_i_glide_ecoul>  (1) 
-7.6226342234337503

>  <r_i_glide_eff_state_penalty>  (1) 
0.60615279515584763

>  <r_i_glide_einternal>  (1) 
9.8268224232136099

>  <r_i_glide_emodel>  (1) 
-73.60665146427668

>  <r_i_glide_emodel_strain>  (1) 
0.73102548388504829

>  <r_i_glide_energy>  (1) 
-54.194205477923049

>  <r_i_glide_erotb>  (1) 
1.0176109525924779

>  <r_i_glide_esite>  (1) 
0

>  <r_i_glide_evdw>  (1) 
-46.571571254489299

>  <r_i_glide_gscore>  (1) 
-8.5327722823266949

>  <r_i_glide_gscore_strain>  (1) 
0

>  <r_i_glide_hbond>  (1) 
-0.70564856554490396

>  <r_i_glide_ligand_efficiency>  (1) 
-0.22647484249059563

>  <r_i_glide_ligand_efficiency_ln>  (1) 
-1.7400688992751008

>  <r_i_glide_ligand_efficiency_sa>  (1) 
-0.7408142273762548

>  <r_i_glide_lipo>  (1) 
-4.2474777137592019

>  <r_i_glide_metal>  (1) 
-0

>  <r_i_glide_rewards>  (1) 
-1.1252832593755402

>  <r_lp_Energy>  (1) 
27.707881

>  <r_lp_tautomer_probability>  (1) 
0.99999993999736703

>  <s_epik_Chemistry_Notes>  (1) 
This compound contains an acetal/aminal-like group ( X-CH(R)-Y where X, Y are N, S, or O) that may be acid/base labile, releasing an aldehyde.

>  <s_epik_cmdline>  (1) 
J2VwaWtfcHl0aG9uJywgJy1waHQnLCAnMS4wJywgJy1waCcsICc3LjQnLCAnLXRuJywgJzgnLCAnLW1hJywgJzUwMCcsICctaW1hZScsICc8aW5maWxlLm1hZT4nLCAnLW9tYWUnLCAnPG91dGZpbGUubWFlPic=

>  <s_epik_input>  (1) 
W2NIXTFbY0hdYyhbT0hdKVtjSF1bY0hdYzFbQ0gyXVtDSDJdQyg9TylbQ0BIXShOKFtDSDNdKVtDSDJdW0NIMl1bT0hdKVtDSDJdW0NASF0oT1tDSDNdKVNbQ0gyXVtDQEBIXShbT0hdKVtDQEhdMltDQEBIXShbQ0gzXSlbQ0BIXShbT0hdKVtDSDJdQyhbT0hdKT1DMltDSDNd

>  <s_glide_docking_method>  (1) 
confgen

>  <s_i_glide_gridfile>  (1) 
gpcr_5ht2c_6bqh_protein_autoprepared_prepared

>  <s_lp_Force_Field>  (1) 
S-OPLS

>  <s_lp_Variant>  (1) 
DiffSBDD_75-12

>  <s_m_source_file>  (1) 
generated_GPCR_5HT2C_ligand_DiffSBDD_2026-06-23_prepared.sdf

>  <GenAI_Model>  (1) 
DiffSBDD

>  <Protein>  (1) 
GPCR_5HT2C

$$$$
DiffSBDD_18
     RDKit          3D

  0  0  0  0  0  0  0  0  0  0999 V3000
M  V30 BEGIN CTAB
M  V30 COUNTS 77 79 0 0 1
M  V30 BEGIN ATOM
M  V30 1 C 36.512897 36.608015 59.996987 0
M  V30 2 C 40.321344 27.548195 56.507967 0 CFG=2
M  V30 3 C 41.204303 34.276398 62.402138 0
M  V30 4 C 40.650752 33.003216 62.221379 0
M  V30 5 C 39.359370 35.251504 61.143393 0
M  V30 6 O 39.550165 27.188652 52.991904 0
M  V30 7 C 37.298548 31.124083 59.470752 0
M  V30 8 C 37.669230 25.891337 57.554917 0
M  V30 9 C 39.362196 31.475231 55.663313 0
M  V30 10 C 40.772721 30.685658 63.146584 0
M  V30 11 C 38.737513 26.850947 53.880309 0
M  V30 12 C 40.559346 35.399743 61.865181 0
M  V30 13 C 38.284397 32.681910 57.774774 0
M  V30 14 C 38.155514 27.104774 57.555388 0
M  V30 15 C 36.962827 25.357707 56.341750 0
M  V30 16 C 36.209033 30.180397 58.964630 0
M  V30 17 C 36.598848 35.359478 59.104371 0
M  V30 18 C 39.110965 30.434139 56.724368 0 CFG=2
M  V30 19 C 40.294995 26.118847 55.864684 0
M  V30 20 C 41.381258 27.671109 57.613389 0
M  V30 21 C 38.006876 24.799701 55.344565 0
M  V30 22 C 41.618545 29.547013 63.622296 0
M  V30 23 C 38.944296 27.982108 56.988553 0
M  V30 24 C 35.825075 33.383599 61.230411 0
M  V30 25 C 39.178396 25.716754 54.833766 0 CFG=1
M  V30 26 N 39.437814 30.537760 63.140241 0 CHG=1
M  V30 27 C 39.445488 32.837111 61.487705 0
M  V30 28 P 37.166801 33.783524 59.979743 0 CFG=2 CHG=1
M  V30 29 N 38.489063 29.159360 56.426542 0
M  V30 30 O 37.601286 27.344852 54.057940 0 CHG=-1
M  V30 31 C 38.231866 31.654000 56.656560 0 CFG=2
M  V30 32 C 38.785279 33.971842 60.943915 0
M  V30 33 N 37.245142 32.459748 58.814426 0 CFG=2 CHG=1
M  V30 34 N 41.387838 31.852052 62.774275 0
M  V30 35 H 35.646077 37.210557 59.733807 0
M  V30 36 H 36.445219 36.360651 61.056743 0
M  V30 37 H 37.372938 37.261536 59.853061 0
M  V30 38 H 40.622495 28.237148 55.719353 0
M  V30 39 H 42.120270 34.394863 62.961416 0
M  V30 40 H 38.880686 36.122975 60.741167 0
M  V30 41 H 38.283689 30.667356 59.371562 0
M  V30 42 H 37.124704 31.215395 60.540527 0
M  V30 43 H 38.119754 25.128344 58.172264 0
M  V30 44 H 40.225634 32.128309 55.768983 0
M  V30 45 H 39.101094 31.214832 54.639635 0
M  V30 46 H 40.983451 36.383422 62.006139 0
M  V30 47 H 39.270019 32.687099 58.234402 0
M  V30 48 H 38.140456 33.661637 57.319102 0
M  V30 49 H 36.274092 24.570392 56.637521 0
M  V30 50 H 36.364417 26.131678 55.871837 0
M  V30 51 H 36.147666 29.306920 59.606320 0
M  V30 52 H 35.234899 30.664907 58.967773 0
M  V30 53 H 36.394581 29.834706 57.949537 0
M  V30 54 H 37.245116 35.575311 58.257813 0
M  V30 55 H 35.608440 35.168695 58.689164 0
M  V30 56 H 39.822898 30.357470 57.542785 0
M  V30 57 H 41.245146 25.967654 55.367173 0
M  V30 58 H 40.306390 25.374531 56.660119 0
M  V30 59 H 41.433471 28.685047 58.009660 0
M  V30 60 H 41.158261 27.001345 58.443588 0
M  V30 61 H 42.371982 27.412556 57.235901 0
M  V30 62 H 37.459601 24.435279 54.476639 0
M  V30 63 H 38.444754 23.909678 55.793972 0
M  V30 64 H 41.593727 28.729827 62.900182 0
M  V30 65 H 42.657578 29.854500 63.747201 0
M  V30 66 H 41.257155 29.172733 64.580079 0
M  V30 67 H 35.339099 34.280187 61.611725 0
M  V30 68 H 35.048590 32.745783 60.807339 0
M  V30 69 H 36.256653 32.866407 62.086176 0
M  V30 70 H 39.725013 25.053212 54.167761 0
M  V30 71 H 39.021383 29.660031 63.461184 0
M  V30 72 H 39.040434 31.863848 61.317044 0
M  V30 73 H 37.480991 29.224861 56.383524 0
M  V30 74 H 37.254408 31.542034 56.192305 0
M  V30 75 H 42.359351 31.955373 63.037195 0
M  V30 76 H 38.845611 31.306461 62.876780 0
M  V30 77 H 36.371011 32.451616 58.287690 0
M  V30 END ATOM
M  V30 BEGIN BOND
M  V30 1 1 4 3
M  V30 2 2 11 6
M  V30 3 2 12 3
M  V30 4 1 12 5
M  V30 5 2 14 8
M  V30 6 1 15 8
M  V30 7 1 16 7
M  V30 8 1 17 1
M  V30 9 1 18 9
M  V30 10 1 19 2
M  V30 11 1 20 2
M  V30 12 1 21 15
M  V30 13 1 22 10
M  V30 14 1 23 2
M  V30 15 2 23 14
M  V30 16 1 25 11
M  V30 17 1 25 19
M  V30 18 1 25 21
M  V30 19 2 26 10
M  V30 20 2 27 4
M  V30 21 1 28 17 CFG=3
M  V30 22 1 28 24
M  V30 23 1 29 18
M  V30 24 1 29 23
M  V30 25 1 30 11
M  V30 26 1 31 9
M  V30 27 1 31 13
M  V30 28 1 31 18
M  V30 29 2 32 5
M  V30 30 1 32 27
M  V30 31 1 32 28
M  V30 32 1 33 7
M  V30 33 1 33 13
M  V30 34 1 33 28
M  V30 35 1 34 4
M  V30 36 1 34 10
M  V30 37 1 35 1
M  V30 38 1 36 1
M  V30 39 1 37 1
M  V30 40 1 2 38 CFG=3
M  V30 41 1 39 3
M  V30 42 1 40 5
M  V30 43 1 41 7
M  V30 44 1 42 7
M  V30 45 1 43 8
M  V30 46 1 44 9
M  V30 47 1 45 9
M  V30 48 1 46 12
M  V30 49 1 47 13
M  V30 50 1 48 13
M  V30 51 1 49 15
M  V30 52 1 50 15
M  V30 53 1 51 16
M  V30 54 1 52 16
M  V30 55 1 53 16
M  V30 56 1 54 17
M  V30 57 1 55 17
M  V30 58 1 18 56 CFG=1
M  V30 59 1 57 19
M  V30 60 1 58 19
M  V30 61 1 59 20
M  V30 62 1 60 20
M  V30 63 1 61 20
M  V30 64 1 62 21
M  V30 65 1 63 21
M  V30 66 1 64 22
M  V30 67 1 65 22
M  V30 68 1 66 22
M  V30 69 1 67 24
M  V30 70 1 68 24
M  V30 71 1 69 24
M  V30 72 1 25 70 CFG=3
M  V30 73 1 71 26
M  V30 74 1 72 27
M  V30 75 1 73 29
M  V30 76 1 31 74 CFG=3
M  V30 77 1 75 34
M  V30 78 1 76 26
M  V30 79 1 33 77 CFG=3
M  V30 END BOND
M  V30 END CTAB
M  END
>  <i_epik_Tot_Q>  (1) 
2

>  <i_epik_Tot_abs_Q>  (1) 
4

>  <i_i_glide_confnum>  (1) 
383

>  <i_i_glide_lignum>  (1) 
43

>  <i_i_glide_posenum>  (1) 
218

>  <i_i_glide_rotatable_bonds>  (1) 
11

>  <i_lp_mmshare_version>  (1) 
72125

>  <i_m_source_file_index>  (1) 
19

>  <i_f3d_flags>  (1) 
0

>  <num_sample>  (1) 
100

>  <b_lp_Chiralities_Consistent>  (1) 
1

>  <r_epik_Charging_Adjusted_Penalty>  (1) 
0.035732071636325656

>  <r_epik_Ionization_Penalty>  (1) 
0.019213783482484162

>  <r_epik_Ionization_Penalty_Charging>  (1) 
0.019186760244236628

>  <r_epik_Ionization_Penalty_Neutral>  (1) 
2.7023238247534635e-05

>  <r_epik_State_Penalty>  (1) 
0.016545311392089028

>  <r_glide_ring_energy>  (1) 
0

>  <r_i_docking_score>  (1) 
-7.9223787008201647

>  <r_i_glide_ecoul>  (1) 
-7.8391049932686059

>  <r_i_glide_eff_state_penalty>  (1) 
0.016545311392089028

>  <r_i_glide_einternal>  (1) 
27.834995119832328

>  <r_i_glide_emodel>  (1) 
-61.606031988622952

>  <r_i_glide_emodel_strain>  (1) 
1.4494007384953278

>  <r_i_glide_energy>  (1) 
-49.889813723890626

>  <r_i_glide_erotb>  (1) 
0.68654883804919686

>  <r_i_glide_esite>  (1) 
-0.12317167928037143

>  <r_i_glide_evdw>  (1) 
-42.05070873062202

>  <r_i_glide_gscore>  (1) 
-7.9389240122122535

>  <r_i_glide_gscore_strain>  (1) 
0

>  <r_i_glide_hbond>  (1) 
-0.20000000000000001

>  <r_i_glide_ligand_efficiency>  (1) 
-0.23301113825941661

>  <r_i_glide_ligand_efficiency_ln>  (1) 
-1.7502756702068021

>  <r_i_glide_ligand_efficiency_sa>  (1) 
-0.75486563333430545

>  <r_i_glide_lipo>  (1) 
-4.1049534464674897

>  <r_i_glide_metal>  (1) 
-0

>  <r_i_glide_rewards>  (1) 
-0.91894653899219725

>  <r_lp_Energy>  (1) 
34.203074999999998

>  <s_epik_Chemistry_Notes>  (1) 
This compound has an imine and may undergo hydrolysis.

>  <s_epik_cmdline>  (1) 
J2VwaWtfcHl0aG9uJywgJy1waHQnLCAnMS4wJywgJy1waCcsICc3LjQnLCAnLXRuJywgJzgnLCAnLW1hJywgJzUwMCcsICctaW1hZScsICc8aW5maWxlLm1hZT4nLCAnLW9tYWUnLCAnPG91dGZpbGUubWFlPic=

>  <s_epik_input>  (1) 
W0hdL049QyhcW0NIM10pW05IXWMxW2NIXVtjSF1bY0hdYyhbY0hdMSlbUEBAK10oW0NIM10pKFtDSDJdW0NIM10pTihbQ0gyXVtDSDNdKVtDSDJdW0NASF0yW0NIMl1bQ0BASF0yW05IXUMzPUM9W0NIXVtDSDJdW0NIMl1bQ0BASF0oQyg9TylbT0hdKVtDSDJdW0NAQEhdM1tDSDNd

>  <s_glide_docking_method>  (1) 
confgen

>  <s_i_glide_gridfile>  (1) 
gpcr_5ht2c_6bqh_protein_autoprepared_prepared

>  <s_lp_Force_Field>  (1) 
S-OPLS

>  <s_lp_Variant>  (1) 
DiffSBDD_18-2

>  <s_m_source_file>  (1) 
generated_GPCR_5HT2C_ligand_DiffSBDD_2026-06-23_prepared.sdf

>  <GenAI_Model>  (1) 
DiffSBDD

>  <Protein>  (1) 
GPCR_5HT2C

$$$$
DiffSBDD_95
     RDKit          3D

  0  0  0  0  0  0  0  0  0  0999 V3000
M  V30 BEGIN CTAB
M  V30 COUNTS 57 59 0 0 1
M  V30 BEGIN ATOM
M  V30 1 O 35.045550 32.172224 59.767762 0
M  V30 2 C 36.892627 35.358919 60.730960 0
M  V30 3 C 37.135513 35.062957 59.278010 0
M  V30 4 C 37.071429 25.337758 57.357573 0
M  V30 5 C 38.749475 29.217879 54.338576 0
M  V30 6 O 38.045112 31.671006 55.624529 0
M  V30 7 O 38.820383 32.781409 60.795578 0 CHG=-1
M  V30 8 C 38.878093 25.629000 55.229333 0
M  V30 9 O 37.535915 30.595060 60.787496 0
M  V30 10 C 40.518723 28.191405 57.696208 0
M  V30 11 C 39.018549 30.913718 56.318716 0 CFG=2
M  V30 12 C 36.030811 34.335374 60.017960 0
M  V30 13 C 40.281936 28.676477 56.281424 0 CFG=2
M  V30 14 C 37.744656 24.807614 55.089826 0
M  V30 15 C 39.568904 30.102541 53.364049 0
M  V30 16 C 39.503537 29.737235 51.877787 0
M  V30 17 C 38.870888 28.638273 51.421416 0
M  V30 18 C 36.075982 32.868467 60.446238 0 CFG=2
M  V30 19 C 39.008348 29.424012 55.858067 0 CFG=2
M  V30 20 C 40.198618 30.702025 50.938561 0
M  V30 21 C 38.837421 31.053582 57.829027 0
M  V30 22 C 37.915238 31.834097 58.419546 0
M  V30 23 C 36.845139 24.662260 56.151498 0
M  V30 24 P 37.729369 31.953233 60.234678 0
M  V30 25 C 38.203394 26.159471 57.506829 0
M  V30 26 C 39.117616 26.313312 56.438845 0
M  V30 27 C 40.328860 27.188865 56.579315 0 CFG=2
M  V30 28 H 35.245148 32.137413 58.833224 0
M  V30 29 H 36.445254 36.319466 60.974669 0
M  V30 30 H 37.627932 34.998477 61.447131 0
M  V30 31 H 38.045126 34.530417 59.023787 0
M  V30 32 H 36.845146 35.832651 58.567783 0
M  V30 33 H 36.375355 25.227334 58.167776 0
M  V30 34 H 38.941473 28.168767 54.126765 0
M  V30 35 H 37.689067 29.372121 54.134115 0
M  V30 36 H 37.191734 31.564267 56.038762 0
M  V30 37 H 39.567974 25.736504 54.405144 0
M  V30 38 H 41.523984 28.324453 58.090674 0
M  V30 39 H 39.722638 28.318950 58.423270 0
M  V30 40 H 39.984135 31.350383 56.061164 0
M  V30 41 H 35.025260 34.669645 59.769635 0
M  V30 42 H 41.167353 29.033122 55.767761 0
M  V30 43 H 37.566942 24.288433 54.167762 0
M  V30 44 H 39.221681 31.132452 53.437592 0
M  V30 45 H 40.611807 30.137757 53.669434 0
M  V30 46 H 38.845121 28.413899 50.364406 0
M  V30 47 H 38.373493 27.953679 52.089708 0
M  V30 48 H 35.812571 32.840404 61.502847 0
M  V30 49 H 38.173311 28.942334 56.369389 0
M  V30 50 H 41.245154 30.820773 51.211772 0
M  V30 51 H 40.153533 30.358688 49.904429 0
M  V30 52 H 39.719811 31.680232 50.987309 0
M  V30 53 H 39.503492 30.478065 58.447626 0
M  V30 54 H 37.245146 32.414826 57.806344 0
M  V30 55 H 35.976463 24.031529 56.039651 0
M  V30 56 H 38.368627 26.673166 58.440579 0
M  V30 57 H 41.216390 26.642984 56.265413 0
M  V30 END ATOM
M  V30 BEGIN BOND
M  V30 1 1 3 2
M  V30 2 1 11 6
M  V30 3 1 12 2
M  V30 4 1 12 3
M  V30 5 1 13 10
M  V30 6 2 14 8
M  V30 7 1 15 5
M  V30 8 1 16 15
M  V30 9 2 17 16
M  V30 10 1 18 1
M  V30 11 1 18 12
M  V30 12 1 19 5
M  V30 13 1 19 11
M  V30 14 1 19 13
M  V30 15 1 20 16
M  V30 16 1 21 11
M  V30 17 2 22 21
M  V30 18 2 23 4
M  V30 19 1 23 14
M  V30 20 1 24 7
M  V30 21 2 24 9
M  V30 22 1 24 18
M  V30 23 1 24 22
M  V30 24 1 25 4
M  V30 25 1 26 8
M  V30 26 2 26 25
M  V30 27 1 27 10
M  V30 28 1 27 13
M  V30 29 1 27 26
M  V30 30 1 28 1
M  V30 31 1 29 2
M  V30 32 1 30 2
M  V30 33 1 31 3
M  V30 34 1 32 3
M  V30 35 1 33 4
M  V30 36 1 34 5
M  V30 37 1 35 5
M  V30 38 1 36 6
M  V30 39 1 37 8
M  V30 40 1 38 10
M  V30 41 1 39 10
M  V30 42 1 11 40 CFG=1
M  V30 43 1 41 12
M  V30 44 1 13 42 CFG=3
M  V30 45 1 43 14
M  V30 46 1 44 15
M  V30 47 1 45 15
M  V30 48 1 46 17
M  V30 49 1 47 17
M  V30 50 1 18 48 CFG=1
M  V30 51 1 19 49 CFG=1
M  V30 52 1 50 20
M  V30 53 1 51 20
M  V30 54 1 52 20
M  V30 55 1 53 21
M  V30 56 1 54 22
M  V30 57 1 55 23
M  V30 58 1 56 25
M  V30 59 1 27 57 CFG=3
M  V30 END BOND
M  V30 END CTAB
M  END
>  <i_epik_Tot_Q>  (1) 
-1

>  <i_epik_Tot_abs_Q>  (1) 
1

>  <i_i_glide_confnum>  (1) 
906

>  <i_i_glide_lignum>  (1) 
226

>  <i_i_glide_posenum>  (1) 
165

>  <i_i_glide_rotatable_bonds>  (1) 
12

>  <i_lp_mmshare_version>  (1) 
72125

>  <i_m_source_file_index>  (1) 
96

>  <i_f3d_flags>  (1) 
0

>  <num_sample>  (1) 
100

>  <b_lp_Chiralities_Consistent>  (1) 
1

>  <r_epik_Charging_Adjusted_Penalty>  (1) 
1.080755722854454e-05

>  <r_epik_Ionization_Penalty>  (1) 
1.1075885964492435e-05

>  <r_epik_Ionization_Penalty_Charging>  (1) 
1.080755722854454e-05

>  <r_epik_Ionization_Penalty_Neutral>  (1) 
2.6832873594789518e-07

>  <r_epik_State_Penalty>  (1) 
-0

>  <r_glide_ring_energy>  (1) 
0

>  <r_i_docking_score>  (1) 
-7.9196538997791954

>  <r_i_glide_ecoul>  (1) 
-7.192058433713699

>  <r_i_glide_eff_state_penalty>  (1) 
-0

>  <r_i_glide_einternal>  (1) 
5.992189913474391

>  <r_i_glide_emodel>  (1) 
-66.336888483694338

>  <r_i_glide_emodel_strain>  (1) 
1.4794169389100951

>  <r_i_glide_energy>  (1) 
-46.402375196541975

>  <r_i_glide_erotb>  (1) 
1.1567431559220434

>  <r_i_glide_esite>  (1) 
-0.0084907485630771034

>  <r_i_glide_evdw>  (1) 
-39.210316762828278

>  <r_i_glide_gscore>  (1) 
-7.9196538997791954

>  <r_i_glide_gscore_strain>  (1) 
0

>  <r_i_glide_hbond>  (1) 
-0.30024694944809077

>  <r_i_glide_ligand_efficiency>  (1) 
-0.29332051480663685

>  <r_i_glide_ligand_efficiency_ln>  (1) 
-1.8435648621697951

>  <r_i_glide_ligand_efficiency_sa>  (1) 
-0.87996154441991081

>  <r_i_glide_lipo>  (1) 
-4.2675218923642628

>  <r_i_glide_metal>  (1) 
-0

>  <r_i_glide_rewards>  (1) 
-1.4608128621273395

>  <r_lp_Energy>  (1) 
31.602691999999998

>  <r_lp_tautomer_probability>  (1) 
1

>  <s_epik_cmdline>  (1) 
J2VwaWtfcHl0aG9uJywgJy1waHQnLCAnMS4wJywgJy1waCcsICc3LjQnLCAnLXRuJywgJzgnLCAnLW1hJywgJzUwMCcsICctaW1hZScsICc8aW5maWxlLm1hZT4nLCAnLW9tYWUnLCAnPG91dGZpbGUubWFlPic=

>  <s_epik_input>  (1) 
W0NIMl0xW0NIMl1bQ0hdMVtDQEBIXShbT0hdKVtQQF0oPU8pKFtPSF0pXFtDSF09W0NIXVxbQ0BIXShbT0hdKVtDQEBIXShbQ0gyXVtDSDJdQyg9W0NIMl0pW0NIM10pW0NASF0yW0NIMl1bQ0BIXTJjM1tjSF1bY0hdW2NIXVtjSF1bY0hdMw==

>  <s_glide_docking_method>  (1) 
confgen

>  <s_i_glide_gridfile>  (1) 
gpcr_5ht2c_6bqh_protein_autoprepared_prepared

>  <s_lp_Force_Field>  (1) 
S-OPLS

>  <s_lp_Variant>  (1) 
DiffSBDD_95-1

>  <s_m_source_file>  (1) 
generated_GPCR_5HT2C_ligand_DiffSBDD_2026-06-23_prepared.sdf

>  <GenAI_Model>  (1) 
DiffSBDD

>  <Protein>  (1) 
GPCR_5HT2C

$$$$
DiffSBDD_95
     RDKit          3D

  0  0  0  0  0  0  0  0  0  0999 V3000
M  V30 BEGIN CTAB
M  V30 COUNTS 57 59 0 0 1
M  V30 BEGIN ATOM
M  V30 1 O 34.554725 32.942988 59.767749 0
M  V30 2 C 36.768842 35.900126 60.671954 0
M  V30 3 C 37.245152 35.339218 59.366517 0
M  V30 4 C 38.845100 24.937756 55.433138 0
M  V30 5 C 39.644153 29.327082 55.361924 0
M  V30 6 O 38.045137 31.679004 56.255338 0
M  V30 7 O 38.137600 33.054116 61.428168 0 CHG=-1
M  V30 8 C 37.948636 26.299824 57.704977 0
M  V30 9 O 36.474734 31.141956 61.361685 0
M  V30 10 C 39.753937 28.325565 59.127348 0
M  V30 11 C 38.940608 31.059117 57.154310 0 CFG=2
M  V30 12 C 35.899157 34.913270 59.912963 0
M  V30 13 C 40.147889 28.886636 57.781352 0 CFG=2
M  V30 14 C 37.072817 25.451598 57.006028 0
M  V30 15 C 38.590032 29.439850 54.239804 0
M  V30 16 C 39.104367 28.923489 52.904463 0
M  V30 17 C 39.638486 29.740691 51.981444 0
M  V30 18 C 35.570795 33.558814 60.542636 0 CFG=2
M  V30 19 C 39.146551 29.551596 56.818207 0 CFG=2
M  V30 20 C 38.977982 27.429250 52.678454 0
M  V30 21 C 38.540077 31.326002 58.608991 0
M  V30 22 C 37.473070 32.053501 58.983497 0
M  V30 23 C 37.521432 24.769537 55.868406 0
M  V30 24 P 37.026918 32.363859 60.736115 0
M  V30 25 C 39.719024 25.785284 56.131694 0
M  V30 26 C 39.274296 26.475921 57.273460 0
M  V30 27 C 40.199378 27.392399 58.012296 0 CFG=2
M  V30 28 H 34.959987 32.357102 59.139807 0
M  V30 29 H 36.445303 36.938730 60.687376 0
M  V30 30 H 37.262082 35.552327 61.577319 0
M  V30 31 H 38.082950 34.650624 59.399669 0
M  V30 32 H 37.245142 36.021115 58.521295 0
M  V30 33 H 39.193499 24.411468 54.567766 0
M  V30 34 H 40.471405 30.003376 55.147524 0
M  V30 35 H 40.068718 28.328504 55.300296 0
M  V30 36 H 37.142856 31.596721 56.567749 0
M  V30 37 H 37.606307 26.819905 58.567759 0
M  V30 38 H 40.449807 28.504103 59.944206 0
M  V30 39 H 38.705580 28.417345 59.397170 0
M  V30 40 H 39.884739 31.564851 56.967754 0
M  V30 41 H 35.059254 35.337736 59.367744 0
M  V30 42 H 41.130072 29.337752 57.767916 0
M  V30 43 H 36.055008 25.329569 57.345218 0
M  V30 44 H 37.685127 28.893047 54.507662 0
M  V30 45 H 38.290618 30.477486 54.100055 0
M  V30 46 H 39.998525 29.356853 51.037906 0
M  V30 47 H 39.721445 30.803496 52.159420 0
M  V30 48 H 35.139386 33.752995 61.524512 0
M  V30 49 H 38.186796 29.047740 56.938340 0
M  V30 50 H 37.942771 27.111239 52.803752 0
M  V30 51 H 39.294835 27.149327 51.673557 0
M  V30 52 H 39.595268 26.884031 53.390631 0
M  V30 53 H 39.172365 30.895367 59.369395 0
M  V30 54 H 36.845128 32.489758 58.224350 0
M  V30 55 H 36.851788 24.116374 55.328674 0
M  V30 56 H 40.736302 25.908618 55.788649 0
M  V30 57 H 41.183919 26.937754 58.110935 0
M  V30 END ATOM
M  V30 BEGIN BOND
M  V30 1 1 3 2
M  V30 2 1 11 6
M  V30 3 1 12 2
M  V30 4 1 12 3
M  V30 5 1 13 10
M  V30 6 2 14 8
M  V30 7 1 15 5
M  V30 8 1 16 15
M  V30 9 2 17 16
M  V30 10 1 18 1
M  V30 11 1 18 12
M  V30 12 1 19 5
M  V30 13 1 19 11
M  V30 14 1 19 13
M  V30 15 1 20 16
M  V30 16 1 21 11
M  V30 17 2 22 21
M  V30 18 2 23 4
M  V30 19 1 23 14
M  V30 20 1 24 7
M  V30 21 2 24 9
M  V30 22 1 24 18
M  V30 23 1 24 22
M  V30 24 1 25 4
M  V30 25 1 26 8
M  V30 26 2 26 25
M  V30 27 1 27 10
M  V30 28 1 27 13
M  V30 29 1 27 26
M  V30 30 1 28 1
M  V30 31 1 29 2
M  V30 32 1 30 2
M  V30 33 1 31 3
M  V30 34 1 32 3
M  V30 35 1 33 4
M  V30 36 1 34 5
M  V30 37 1 35 5
M  V30 38 1 36 6
M  V30 39 1 37 8
M  V30 40 1 38 10
M  V30 41 1 39 10
M  V30 42 1 11 40 CFG=1
M  V30 43 1 41 12
M  V30 44 1 13 42 CFG=1
M  V30 45 1 43 14
M  V30 46 1 44 15
M  V30 47 1 45 15
M  V30 48 1 46 17
M  V30 49 1 47 17
M  V30 50 1 18 48 CFG=1
M  V30 51 1 19 49 CFG=3
M  V30 52 1 50 20
M  V30 53 1 51 20
M  V30 54 1 52 20
M  V30 55 1 53 21
M  V30 56 1 54 22
M  V30 57 1 55 23
M  V30 58 1 56 25
M  V30 59 1 27 57 CFG=1
M  V30 END BOND
M  V30 END CTAB
M  END
>  <i_epik_Tot_Q>  (1) 
-1

>  <i_epik_Tot_abs_Q>  (1) 
1

>  <i_i_glide_confnum>  (1) 
1048

>  <i_i_glide_lignum>  (1) 
226

>  <i_i_glide_posenum>  (1) 
261

>  <i_i_glide_rotatable_bonds>  (1) 
12

>  <i_lp_mmshare_version>  (1) 
72125

>  <i_m_source_file_index>  (1) 
96

>  <i_f3d_flags>  (1) 
0

>  <num_sample>  (1) 
100

>  <b_lp_Chiralities_Consistent>  (1) 
1

>  <r_epik_Charging_Adjusted_Penalty>  (1) 
1.080755722854454e-05

>  <r_epik_Ionization_Penalty>  (1) 
1.1075885964492435e-05

>  <r_epik_Ionization_Penalty_Charging>  (1) 
1.080755722854454e-05

>  <r_epik_Ionization_Penalty_Neutral>  (1) 
2.6832873594789518e-07

>  <r_epik_State_Penalty>  (1) 
-0

>  <r_glide_ring_energy>  (1) 
0

>  <r_i_docking_score>  (1) 
-7.9024018006357775

>  <r_i_glide_ecoul>  (1) 
-10.151786648267109

>  <r_i_glide_eff_state_penalty>  (1) 
-0

>  <r_i_glide_einternal>  (1) 
7.4790208514476895

>  <r_i_glide_emodel>  (1) 
-65.35450619103149

>  <r_i_glide_emodel_strain>  (1) 
0.72937481141356386

>  <r_i_glide_energy>  (1) 
-45.466540813333481

>  <r_i_glide_erotb>  (1) 
1.1567431559220434

>  <r_i_glide_esite>  (1) 
-0.0099060677260760857

>  <r_i_glide_evdw>  (1) 
-35.314754165066375

>  <r_i_glide_gscore>  (1) 
-7.9024018006357775

>  <r_i_glide_gscore_strain>  (1) 
0

>  <r_i_glide_hbond>  (1) 
-0.38031410746900918

>  <r_i_glide_ligand_efficiency>  (1) 
-0.29268154817169545

>  <r_i_glide_ligand_efficiency_ln>  (1) 
-1.8395488579122907

>  <r_i_glide_ligand_efficiency_sa>  (1) 
-0.87804464451508657

>  <r_i_glide_lipo>  (1) 
-4.099179297636864

>  <r_i_glide_metal>  (1) 
-0

>  <r_i_glide_rewards>  (1) 
-1.2812397782324862

>  <r_lp_Energy>  (1) 
31.602691999999998

>  <r_lp_tautomer_probability>  (1) 
1

>  <s_epik_cmdline>  (1) 
J2VwaWtfcHl0aG9uJywgJy1waHQnLCAnMS4wJywgJy1waCcsICc3LjQnLCAnLXRuJywgJzgnLCAnLW1hJywgJzUwMCcsICctaW1hZScsICc8aW5maWxlLm1hZT4nLCAnLW9tYWUnLCAnPG91dGZpbGUubWFlPic=

>  <s_epik_input>  (1) 
W0NIMl0xW0NIMl1bQ0hdMVtDQEBIXShbT0hdKVtQQF0oPU8pKFtPSF0pXFtDSF09W0NIXVxbQ0BIXShbT0hdKVtDQEBIXShbQ0gyXVtDSDJdQyg9W0NIMl0pW0NIM10pW0NASF0yW0NIMl1bQ0BIXTJjM1tjSF1bY0hdW2NIXVtjSF1bY0hdMw==

>  <s_glide_docking_method>  (1) 
confgen

>  <s_i_glide_gridfile>  (1) 
gpcr_5ht2c_6bqh_protein_autoprepared_prepared

>  <s_lp_Force_Field>  (1) 
S-OPLS

>  <s_lp_Variant>  (1) 
DiffSBDD_95-1

>  <s_m_source_file>  (1) 
generated_GPCR_5HT2C_ligand_DiffSBDD_2026-06-23_prepared.sdf

>  <GenAI_Model>  (1) 
DiffSBDD

>  <Protein>  (1) 
GPCR_5HT2C

$$$$
DiffSBDD_64
     RDKit          3D

  0  0  0  0  0  0  0  0  0  0999 V3000
M  V30 BEGIN CTAB
M  V30 COUNTS 77 80 0 0 1
M  V30 BEGIN ATOM
M  V30 1 C 37.388526 38.120713 61.375045 0
M  V30 2 C 38.115453 33.235592 61.475723 0
M  V30 3 C 39.429850 33.419382 62.255675 0 CFG=2
M  V30 4 C 41.754888 32.519227 62.984541 0
M  V30 5 N 37.304899 34.455091 61.367758 0 CHG=1
M  V30 6 C 40.022458 37.609013 63.276076 0
M  V30 7 C 38.240052 32.507325 56.195636 0
M  V30 8 N 36.966981 36.739726 61.327287 0
M  V30 9 O 37.245138 33.359787 58.159627 0
M  V30 10 C 41.739776 33.073181 64.210366 0
M  V30 11 C 39.550527 30.420874 59.894644 0
M  V30 12 C 39.561420 29.783107 53.036555 0
M  V30 13 O 39.637482 29.833451 57.672330 0
M  V30 14 C 37.811659 35.701158 61.486709 0
M  V30 15 O 36.536799 39.004189 61.367758 0
M  V30 16 O 39.245134 39.599552 61.178505 0 CHG=-1
M  V30 17 C 38.174725 32.387580 57.733038 0 CFG=1
M  V30 18 C 39.169656 35.886272 61.782247 0
M  V30 19 C 39.944536 34.841181 62.128661 0
M  V30 20 C 37.640889 31.050353 58.316273 0
M  V30 21 C 40.622379 28.522729 56.046219 0
M  V30 22 C 39.137956 31.533959 55.415631 0
M  V30 23 C 38.676651 29.981554 58.705851 0 CFG=2
M  V30 24 F 38.998521 27.174842 50.531890 0
M  V30 25 C 40.516780 32.309765 62.109249 0 CFG=1
M  V30 26 C 37.946343 28.161910 53.889184 0
M  V30 27 N 38.732335 38.352822 61.367757 0
M  V30 28 C 39.301312 29.158535 56.477906 0 CFG=2
M  V30 29 C 39.059344 30.208169 61.331460 0
M  V30 30 C 37.938615 28.687455 59.045301 0
M  V30 31 C 38.045119 27.439380 52.695275 0
M  V30 32 C 38.896002 27.882717 51.670417 0
M  V30 33 C 39.646727 29.058579 51.835096 0
M  V30 34 C 39.659472 37.295763 61.815167 0 CFG=1
M  V30 35 C 40.002622 30.858543 62.369403 0
M  V30 36 C 38.633067 30.065685 55.405519 0 CFG=2
M  V30 37 C 38.709343 29.330011 54.072958 0
M  V30 38 H 38.326675 32.928562 60.458843 0
M  V30 39 H 37.489987 32.477062 61.940996 0
M  V30 40 H 39.129017 33.343127 63.297065 0
M  V30 41 H 42.695944 32.189401 62.567659 0
M  V30 42 H 40.794632 36.937723 63.653168 0
M  V30 43 H 40.398977 38.626437 63.367770 0
M  V30 44 H 39.160831 37.521714 63.938182 0
M  V30 45 H 37.245137 32.435306 55.769007 0
M  V30 46 H 38.573310 33.519608 55.958851 0
M  V30 47 H 36.002289 36.483861 61.224230 0
M  V30 48 H 36.413047 33.101590 57.765960 0
M  V30 49 H 42.652418 33.190865 64.775898 0
M  V30 50 H 40.821090 33.413475 64.662505 0
M  V30 51 H 40.546544 29.981878 59.811606 0
M  V30 52 H 39.645110 31.483285 59.767728 0
M  V30 53 H 40.159135 30.671391 53.166099 0
M  V30 54 H 39.143917 32.668412 58.138463 0
M  V30 55 H 40.978270 35.009868 62.392961 0
M  V30 56 H 37.064038 31.260885 59.218294 0
M  V30 57 H 36.913600 30.596674 57.644574 0
M  V30 58 H 40.451601 27.689010 55.367635 0
M  V30 59 H 41.245134 29.259781 55.544167 0
M  V30 60 H 41.172931 28.121014 56.897489 0
M  V30 61 H 39.091054 31.943471 54.408766 0
M  V30 62 H 40.181936 31.602211 55.718713 0
M  V30 63 H 40.931399 32.395067 61.107538 0
M  V30 64 H 37.296561 27.811182 54.677329 0
M  V30 65 H 38.656138 28.303809 56.658060 0
M  V30 66 H 38.036964 30.556001 61.439876 0
M  V30 67 H 39.015087 29.140096 61.547304 0
M  V30 68 H 37.239589 28.937754 59.837864 0
M  V30 69 H 37.314411 28.313713 58.234330 0
M  V30 70 H 38.604417 27.891873 59.378923 0
M  V30 71 H 37.471396 26.537753 52.567784 0
M  V30 72 H 40.301638 29.396584 51.045500 0
M  V30 73 H 40.616208 37.339406 61.302345 0
M  V30 74 H 39.534089 30.807226 63.353647 0
M  V30 75 H 40.873031 30.203975 62.437433 0
M  V30 76 H 37.563956 30.103980 55.615182 0
M  V30 77 H 36.324971 34.339123 61.151356 0
M  V30 END ATOM
M  V30 BEGIN BOND
M  V30 1 1 3 2
M  V30 2 1 5 2
M  V30 3 1 8 1
M  V30 4 2 10 4
M  V30 5 2 14 5
M  V30 6 1 14 8
M  V30 7 2 15 1
M  V30 8 1 17 7
M  V30 9 1 17 9
M  V30 10 1 18 14
M  V30 11 1 19 3
M  V30 12 2 19 18
M  V30 13 1 20 17
M  V30 14 1 22 7
M  V30 15 1 23 11 CFG=1
M  V30 16 1 23 13
M  V30 17 1 23 20
M  V30 18 1 25 3
M  V30 19 1 25 4
M  V30 20 1 27 1
M  V30 21 1 27 16
M  V30 22 1 28 13
M  V30 23 1 28 21
M  V30 24 1 29 11
M  V30 25 1 30 23
M  V30 26 2 31 26
M  V30 27 1 32 24
M  V30 28 1 32 31
M  V30 29 1 33 12
M  V30 30 2 33 32
M  V30 31 1 34 6
M  V30 32 1 34 18
M  V30 33 1 34 27
M  V30 34 1 35 25
M  V30 35 1 35 29
M  V30 36 1 36 22
M  V30 37 1 36 28
M  V30 38 2 37 12
M  V30 39 1 37 26
M  V30 40 1 37 36
M  V30 41 1 38 2
M  V30 42 1 39 2
M  V30 43 1 3 40 CFG=1
M  V30 44 1 41 4
M  V30 45 1 42 6
M  V30 46 1 43 6
M  V30 47 1 44 6
M  V30 48 1 45 7
M  V30 49 1 46 7
M  V30 50 1 47 8
M  V30 51 1 48 9
M  V30 52 1 49 10
M  V30 53 1 50 10
M  V30 54 1 51 11
M  V30 55 1 52 11
M  V30 56 1 53 12
M  V30 57 1 17 54 CFG=1
M  V30 58 1 55 19
M  V30 59 1 56 20
M  V30 60 1 57 20
M  V30 61 1 58 21
M  V30 62 1 59 21
M  V30 63 1 60 21
M  V30 64 1 61 22
M  V30 65 1 62 22
M  V30 66 1 25 63 CFG=3
M  V30 67 1 64 26
M  V30 68 1 28 65 CFG=1
M  V30 69 1 66 29
M  V30 70 1 67 29
M  V30 71 1 68 30
M  V30 72 1 69 30
M  V30 73 1 70 30
M  V30 74 1 71 31
M  V30 75 1 72 33
M  V30 76 1 34 73 CFG=3
M  V30 77 1 74 35
M  V30 78 1 75 35
M  V30 79 1 36 76 CFG=1
M  V30 80 1 77 5
M  V30 END BOND
M  V30 END CTAB
M  END
>  <i_epik_Tot_Q>  (1) 
0

>  <i_epik_Tot_abs_Q>  (1) 
2

>  <i_i_glide_confnum>  (1) 
642

>  <i_i_glide_lignum>  (1) 
143

>  <i_i_glide_posenum>  (1) 
35

>  <i_i_glide_rotatable_bonds>  (1) 
8

>  <i_lp_mmshare_version>  (1) 
72125

>  <i_m_source_file_index>  (1) 
65

>  <i_f3d_flags>  (1) 
0

>  <num_sample>  (1) 
100

>  <b_lp_Chiralities_Consistent>  (1) 
1

>  <r_epik_Charging_Adjusted_Penalty>  (1) 
0.059234021973178383

>  <r_epik_Ionization_Penalty>  (1) 
0.05923416388853827

>  <r_epik_Ionization_Penalty_Charging>  (1) 
0.059234021973178383

>  <r_epik_Ionization_Penalty_Neutral>  (1) 
1.4191535988443934e-07

>  <r_epik_State_Penalty>  (1) 
-0

>  <r_glide_ring_energy>  (1) 
0.4351030857825629

>  <r_i_docking_score>  (1) 
-7.8895678913737521

>  <r_i_glide_ecoul>  (1) 
-5.1444048212813804

>  <r_i_glide_eff_state_penalty>  (1) 
-0

>  <r_i_glide_einternal>  (1) 
8.2124192273734096

>  <r_i_glide_emodel>  (1) 
-45.466870722482057

>  <r_i_glide_emodel_strain>  (1) 
2.115248965403083

>  <r_i_glide_energy>  (1) 
-37.13203267440479

>  <r_i_glide_erotb>  (1) 
0.54408064829906078

>  <r_i_glide_esite>  (1) 
0

>  <r_i_glide_evdw>  (1) 
-31.98762785312341

>  <r_i_glide_gscore>  (1) 
-7.8895678913737521

>  <r_i_glide_gscore_strain>  (1) 
0

>  <r_i_glide_hbond>  (1) 
-0.32000000000000001

>  <r_i_glide_ligand_efficiency>  (1) 
-0.21323156463172302

>  <r_i_glide_ligand_efficiency_ln>  (1) 
-1.7110623179256124

>  <r_i_glide_ligand_efficiency_sa>  (1) 
-0.71053487912648394

>  <r_i_glide_lipo>  (1) 
-3.9203162545309636

>  <r_i_glide_metal>  (1) 
-0

>  <r_i_glide_rewards>  (1) 
-1.8222901692934712

>  <r_lp_Energy>  (1) 
57.935866999999995

>  <r_lp_tautomer_probability>  (1) 
1

>  <s_epik_Chemistry_Notes>  (1) 
This compound has an imine and may undergo hydrolysis.

>  <s_epik_cmdline>  (1) 
J2VwaWtfcHl0aG9uJywgJy1waHQnLCAnMS4wJywgJy1waCcsICc3LjQnLCAnLXRuJywgJzgnLCAnLW1hJywgJzUwMCcsICctaW1hZScsICc8aW5maWxlLm1hZT4nLCAnLW9tYWUnLCAnPG91dGZpbGUubWFlPic=

>  <s_epik_input>  (1) 
W05IXTFDKD1PKU4oW09IXSlbQ0BASF0oW0NIM10pQyhDMTIpPVtDSF1bQ0BASF0oW0NIMl1OPTIpW0NAQEhdKFtDSF09W0NIMl0pW0NIMl1bQ0gyXVtDSDJdW0NAXTMoW0NIM10pT1tDQEhdKFtDSDNdKVtDQEBIXShbQ0gyXVtDSDJdW0NAQEhdKFtPSF0pW0NIMl0zKWMoW2NIXVtjSF00KVtjSF1bY0hdYzRG

>  <s_glide_docking_method>  (1) 
confgen

>  <s_i_glide_gridfile>  (1) 
gpcr_5ht2c_6bqh_protein_autoprepared_prepared

>  <s_lp_Force_Field>  (1) 
S-OPLS

>  <s_lp_Variant>  (1) 
DiffSBDD_64-1

>  <s_m_source_file>  (1) 
generated_GPCR_5HT2C_ligand_DiffSBDD_2026-06-23_prepared.sdf

>  <GenAI_Model>  (1) 
DiffSBDD

>  <Protein>  (1) 
GPCR_5HT2C

$$$$
DiffSBDD_12
     RDKit          3D

  0  0  0  0  0  0  0  0  0  0999 V3000
M  V30 BEGIN CTAB
M  V30 COUNTS 68 70 0 0 1
M  V30 BEGIN ATOM
M  V30 1 C 39.081754 29.107938 51.330706 0 CFG=1
M  V30 2 C 39.409789 29.504376 59.204833 0
M  V30 3 N 38.434516 28.873600 52.642101 0 CFG=2 CHG=1
M  V30 4 C 37.872046 25.075470 57.549387 0
M  V30 5 O 37.120245 30.448506 54.666271 0
M  V30 6 O 41.069583 30.537699 50.966299 0
M  V30 7 N 38.925702 31.752705 62.412872 0 CHG=-1
M  V30 8 C 40.129453 32.310270 62.643537 0
M  V30 9 O 38.749196 32.248762 59.892293 0
M  V30 10 C 39.151064 29.687634 53.634149 0 CFG=1
M  V30 11 C 41.478302 34.811608 64.041137 0
M  V30 12 S 39.624385 27.557614 56.152428 0
M  V30 13 C 39.236238 28.325544 58.660678 0
M  V30 14 C 38.217407 27.474066 53.083441 0
M  V30 15 C 41.543164 33.337551 64.368826 0 CFG=1
M  V30 16 C 38.080197 28.365217 55.488018 0 CFG=1
M  V30 17 O 39.830314 26.255727 55.499187 0
M  V30 18 O 42.330402 34.574567 66.186712 0
M  V30 19 C 39.606881 30.949955 52.899740 0
M  V30 20 C 41.592248 33.399085 65.887768 0 CFG=2
M  V30 21 C 39.303337 29.751990 60.690634 0
M  V30 22 N 42.445113 35.356454 64.964700 0
M  V30 23 O 41.003138 32.521253 61.799071 0
M  V30 24 O 36.951914 30.937770 61.051099 0
M  V30 25 C 38.346841 29.795216 54.941379 0 CFG=2
M  V30 26 C 37.432783 27.469169 54.402579 0
M  V30 27 C 38.880220 25.876791 58.384242 0
M  V30 28 C 39.213953 27.268104 57.884165 0
M  V30 29 O 40.718257 28.537776 56.167787 0
M  V30 30 C 39.736706 30.514506 51.423051 0 CFG=2
M  V30 31 C 40.045170 28.000912 50.929291 0
M  V30 32 C 42.247405 32.178475 66.540400 0
M  V30 33 S 38.370169 31.317299 60.966565 0
M  V30 34 N 40.344689 32.655502 63.916144 0
M  V30 35 H 38.325852 29.089598 50.567829 0
M  V30 36 H 39.644949 30.359910 58.594217 0
M  V30 37 H 37.524120 24.214497 58.121445 0
M  V30 38 H 36.998484 25.674689 57.297507 0
M  V30 39 H 38.306581 24.686597 56.629680 0
M  V30 40 H 36.740601 30.792323 55.472514 0
M  V30 41 H 41.352599 31.439779 50.891754 0
M  V30 42 H 40.045137 29.154345 53.878352 0
M  V30 43 H 41.731388 35.038307 63.004340 0
M  V30 44 H 40.493743 35.230038 64.259678 0
M  V30 45 H 37.652903 26.938644 52.320909 0
M  V30 46 H 39.165467 26.952375 53.203944 0
M  V30 47 H 42.446520 32.882284 63.963344 0
M  V30 48 H 37.420353 28.455038 56.348737 0
M  V30 49 H 38.855761 31.736047 52.992675 0
M  V30 50 H 40.535132 31.337618 53.315550 0
M  V30 51 H 40.587548 33.539341 66.290007 0
M  V30 52 H 38.845185 28.940272 61.252139 0
M  V30 53 H 40.309604 29.896407 61.077192 0
M  V30 54 H 42.220876 36.317261 65.206139 0
M  V30 55 H 38.896029 30.389916 55.673888 0
M  V30 56 H 36.445122 27.840740 54.168158 0
M  V30 57 H 37.289307 26.450987 54.763237 0
M  V30 58 H 39.819764 25.337723 58.499953 0
M  V30 59 H 38.445173 25.987198 59.367752 0
M  V30 60 H 39.245147 31.225724 50.762946 0
M  V30 61 H 40.445131 28.209413 49.940894 0
M  V30 62 H 40.845096 27.991967 51.662197 0
M  V30 63 H 39.580210 27.015450 50.875567 0
M  V30 64 H 41.716514 31.263860 66.278314 0
M  V30 65 H 43.283441 32.073192 66.218226 0
M  V30 66 H 42.241133 32.268298 67.626829 0
M  V30 67 H 39.623068 32.472263 64.597063 0
M  V30 68 H 37.517599 29.296793 52.601037 0
M  V30 END ATOM
M  V30 BEGIN BOND
M  V30 1 1 3 1
M  V30 2 1 8 7
M  V30 3 1 10 3
M  V30 4 2 13 2
M  V30 5 1 14 3
M  V30 6 1 15 11
M  V30 7 1 16 12
M  V30 8 2 17 12
M  V30 9 1 19 10
M  V30 10 1 20 15
M  V30 11 1 20 18
M  V30 12 1 21 2
M  V30 13 1 22 11
M  V30 14 1 22 18
M  V30 15 2 23 8
M  V30 16 1 25 5
M  V30 17 1 25 10
M  V30 18 1 25 16
M  V30 19 1 26 14
M  V30 20 1 26 16
M  V30 21 1 27 4
M  V30 22 1 28 12
M  V30 23 2 28 13
M  V30 24 1 28 27
M  V30 25 2 29 12
M  V30 26 1 30 1
M  V30 27 1 30 6
M  V30 28 1 30 19
M  V30 29 1 31 1
M  V30 30 1 32 20
M  V30 31 1 33 7
M  V30 32 2 33 9
M  V30 33 1 33 21
M  V30 34 2 33 24
M  V30 35 1 34 8
M  V30 36 1 34 15
M  V30 37 1 1 35 CFG=3
M  V30 38 1 36 2
M  V30 39 1 37 4
M  V30 40 1 38 4
M  V30 41 1 39 4
M  V30 42 1 40 5
M  V30 43 1 41 6
M  V30 44 1 10 42 CFG=1
M  V30 45 1 43 11
M  V30 46 1 44 11
M  V30 47 1 45 14
M  V30 48 1 46 14
M  V30 49 1 15 47 CFG=3
M  V30 50 1 16 48 CFG=1
M  V30 51 1 49 19
M  V30 52 1 50 19
M  V30 53 1 20 51 CFG=1
M  V30 54 1 52 21
M  V30 55 1 53 21
M  V30 56 1 54 22
M  V30 57 1 25 55 CFG=1
M  V30 58 1 56 26
M  V30 59 1 57 26
M  V30 60 1 58 27
M  V30 61 1 59 27
M  V30 62 1 30 60 CFG=3
M  V30 63 1 61 31
M  V30 64 1 62 31
M  V30 65 1 63 31
M  V30 66 1 64 32
M  V30 67 1 65 32
M  V30 68 1 66 32
M  V30 69 1 67 34
M  V30 70 1 3 68 CFG=3
M  V30 END BOND
M  V30 END CTAB
M  END
>  <i_epik_Tot_Q>  (1) 
0

>  <i_epik_Tot_abs_Q>  (1) 
2

>  <i_i_glide_confnum>  (1) 
81

>  <i_i_glide_lignum>  (1) 
20

>  <i_i_glide_posenum>  (1) 
308

>  <i_i_glide_rotatable_bonds>  (1) 
11

>  <i_lp_mmshare_version>  (1) 
72125

>  <i_m_source_file_index>  (1) 
13

>  <i_f3d_flags>  (1) 
0

>  <num_sample>  (1) 
100

>  <b_lp_Chiralities_Consistent>  (1) 
1

>  <r_epik_Charging_Adjusted_Penalty>  (1) 
0.60912623126161669

>  <r_epik_Ionization_Penalty>  (1) 
0.30573665464692801

>  <r_epik_Ionization_Penalty_Charging>  (1) 
0.30464155940026277

>  <r_epik_Ionization_Penalty_Neutral>  (1) 
0.0010950952466652615

>  <r_epik_State_Penalty>  (1) 
0.30448467186135392

>  <r_glide_ring_energy>  (1) 
0

>  <r_i_docking_score>  (1) 
-7.8886000008420742

>  <r_i_glide_ecoul>  (1) 
-8.9098650123213012

>  <r_i_glide_eff_state_penalty>  (1) 
0.30448467186135392

>  <r_i_glide_einternal>  (1) 
3.0535810073536362

>  <r_i_glide_emodel>  (1) 
-63.380387271890733

>  <r_i_glide_emodel_strain>  (1) 
0.88740632468134351

>  <r_i_glide_energy>  (1) 
-49.318746646012215

>  <r_i_glide_erotb>  (1) 
0.67758354065758886

>  <r_i_glide_esite>  (1) 
-0.046425579807804977

>  <r_i_glide_evdw>  (1) 
-40.408881633690918

>  <r_i_glide_gscore>  (1) 
-8.1930846727034279

>  <r_i_glide_gscore_strain>  (1) 
0

>  <r_i_glide_hbond>  (1) 
-0.33495682706511704

>  <r_i_glide_ligand_efficiency>  (1) 
-0.23201764708359041

>  <r_i_glide_ligand_efficiency_ln>  (1) 
-1.7428130079212001

>  <r_i_glide_ligand_efficiency_sa>  (1) 
-0.75164710759663389

>  <r_i_glide_lipo>  (1) 
-4.1001073945161295

>  <r_i_glide_metal>  (1) 
-0

>  <r_i_glide_rewards>  (1) 
-1.0322545784392247

>  <r_lp_Energy>  (1) 
-7.8299149999999997

>  <s_epik_Chemistry_Notes>  (1) 
This compound has a N-S or N-O group and may undergo hydrolysis at high or low pH.

>  <s_epik_cmdline>  (1) 
J2VwaWtfcHl0aG9uJywgJy1waHQnLCAnMS4wJywgJy1waCcsICc3LjQnLCAnLXRuJywgJzgnLCAnLW1hJywgJzUwMCcsICctaW1hZScsICc8aW5maWxlLm1hZT4nLCAnLW9tYWUnLCAnPG91dGZpbGUubWFlPic=

>  <s_epik_input>  (1) 
W0NIM11bQ0BASF0xW0NASF0oW09IXSlbQ0gyXVtDQEhdKE4xMilbQ0BASF0oW09IXSlbQ0BASF0oW0NIMl1bQ0gyXTIpUyg9TykoPU8pQyhbQ0gyXVtDSDNdKT1DPVtDSF1bQ0gyXVMoPU8pKD1PKVtOSF1DKD1PKVtOSF1bQ0BIXTNbQ0gyXVtOSF1PW0NAQEhdM1tDSDNd

>  <s_glide_docking_method>  (1) 
confgen

>  <s_i_glide_gridfile>  (1) 
gpcr_5ht2c_6bqh_protein_autoprepared_prepared

>  <s_lp_Force_Field>  (1) 
S-OPLS

>  <s_lp_Variant>  (1) 
DiffSBDD_12-2

>  <s_m_source_file>  (1) 
generated_GPCR_5HT2C_ligand_DiffSBDD_2026-06-23_prepared.sdf

>  <GenAI_Model>  (1) 
DiffSBDD

>  <Protein>  (1) 
GPCR_5HT2C

$$$$
DiffSBDD_66
     RDKit          3D

  0  0  0  0  0  0  0  0  0  0999 V3000
M  V30 BEGIN CTAB
M  V30 COUNTS 63 66 0 0 1
M  V30 BEGIN ATOM
M  V30 1 C 38.351759 29.657128 58.867839 0
M  V30 2 C 37.986381 30.734456 57.709364 0
M  V30 3 C 38.349008 26.593054 57.022288 0 CFG=2
M  V30 4 N 40.495498 30.458625 62.565475 0
M  V30 5 O 40.401940 36.984606 61.771814 0
M  V30 6 O 39.646086 24.937748 55.934519 0
M  V30 7 O 37.242538 26.095920 56.300645 0
M  V30 8 C 39.522038 34.767206 61.600935 0
M  V30 9 C 39.608111 28.755244 57.143875 0
M  V30 10 C 38.624409 28.303021 55.082560 0
M  V30 11 N 39.517049 28.847732 58.473236 0
M  V30 12 C 38.164938 27.849541 52.602579 0
M  V30 13 C 40.449013 32.993362 63.021259 0
M  V30 14 N 40.602420 30.595331 61.219167 0
M  V30 15 C 39.630956 27.843121 50.580887 0
M  V30 16 C 38.969432 27.857405 56.398341 0
M  V30 17 C 38.154169 29.771550 54.960770 0 CFG=1
M  V30 18 C 37.392178 30.347898 56.248638 0
M  V30 19 C 39.650440 30.416572 53.142555 0
M  V30 20 C 40.590172 29.332591 60.766724 0
M  V30 21 C 40.721348 29.050229 59.282863 0
M  V30 22 C 39.339501 25.439537 57.206458 0
M  V30 23 C 40.478505 28.391032 61.825294 0
M  V30 24 C 41.298575 35.280247 63.186480 0
M  V30 25 C 39.175727 30.674198 54.328990 0
M  V30 26 C 40.487257 31.563267 63.513912 0
M  V30 27 C 39.519605 33.423839 62.018398 0
M  V30 28 O 40.558186 31.290617 64.713625 0
M  V30 29 Cl 38.331101 32.346490 61.359118 0
M  V30 30 C 40.445526 29.151070 62.948104 0
M  V30 31 C 39.902603 29.728759 52.059172 0
M  V30 32 C 38.590569 27.453317 54.023422 0
M  V30 33 C 41.315797 33.939938 63.610225 0
M  V30 34 C 39.262781 28.462412 51.709183 0
M  V30 35 C 40.411340 35.689407 62.178951 0
M  V30 36 H 38.488769 30.178473 59.807721 0
M  V30 37 H 38.837961 31.398955 57.564403 0
M  V30 38 H 37.960822 26.855914 58.006114 0
M  V30 39 H 39.752894 37.160054 61.109432 0
M  V30 40 H 38.814744 24.840679 55.487125 0
M  V30 41 H 36.688115 26.828246 56.074822 0
M  V30 42 H 38.822615 35.094146 60.845597 0
M  V30 43 H 39.989410 29.663892 56.702077 0
M  V30 44 H 37.242884 31.387100 58.163769 0
M  V30 45 H 37.296430 28.505720 52.597622 0
M  V30 46 H 37.798315 26.937268 52.138567 0
M  V30 47 H 40.390345 28.261347 49.939176 0
M  V30 48 H 39.174937 26.911036 50.283571 0
M  V30 49 H 37.502727 28.992633 59.025432 0
M  V30 50 H 37.334107 29.760827 54.246181 0
M  V30 51 H 37.034916 31.280886 55.810183 0
M  V30 52 H 36.500341 29.740980 56.421177 0
M  V30 53 H 41.399138 29.737843 58.796124 0
M  V30 54 H 41.258381 28.105685 59.196997 0
M  V30 55 H 40.246637 25.754382 57.722936 0
M  V30 56 H 38.884532 24.636782 57.784492 0
M  V30 57 H 40.445333 27.327786 61.764879 0
M  V30 58 H 41.971530 35.998108 63.636530 0
M  V30 59 H 39.468493 31.554153 54.881159 0
M  V30 60 H 40.379450 28.865287 63.989064 0
M  V30 61 H 40.634640 30.115041 51.362424 0
M  V30 62 H 38.887158 26.426815 54.156277 0
M  V30 63 H 42.002762 33.630726 64.386281 0
M  V30 END ATOM
M  V30 BEGIN BOND
M  V30 1 1 2 1
M  V30 2 1 7 3
M  V30 3 1 11 1
M  V30 4 1 11 9
M  V30 5 1 14 4
M  V30 6 1 16 3
M  V30 7 2 16 9
M  V30 8 1 16 10
M  V30 9 1 17 10
M  V30 10 1 18 2
M  V30 11 1 18 17
M  V30 12 2 20 14
M  V30 13 1 21 11
M  V30 14 1 21 20
M  V30 15 1 22 3
M  V30 16 1 22 6
M  V30 17 1 23 20
M  V30 18 1 25 17
M  V30 19 2 25 19
M  V30 20 1 26 4
M  V30 21 1 26 13
M  V30 22 1 27 8
M  V30 23 2 27 13
M  V30 24 2 28 26
M  V30 25 1 29 27
M  V30 26 1 30 4
M  V30 27 2 30 23
M  V30 28 2 31 19
M  V30 29 2 32 10
M  V30 30 1 32 12
M  V30 31 1 33 13
M  V30 32 2 33 24
M  V30 33 1 34 12
M  V30 34 2 34 15
M  V30 35 1 34 31
M  V30 36 1 35 5
M  V30 37 2 35 8
M  V30 38 1 35 24
M  V30 39 1 36 1
M  V30 40 1 37 2
M  V30 41 1 3 38 CFG=1
M  V30 42 1 39 5
M  V30 43 1 40 6
M  V30 44 1 41 7
M  V30 45 1 42 8
M  V30 46 1 43 9
M  V30 47 1 44 2
M  V30 48 1 45 12
M  V30 49 1 46 12
M  V30 50 1 47 15
M  V30 51 1 48 15
M  V30 52 1 49 1
M  V30 53 1 17 50 CFG=3
M  V30 54 1 51 18
M  V30 55 1 52 18
M  V30 56 1 53 21
M  V30 57 1 54 21
M  V30 58 1 55 22
M  V30 59 1 56 22
M  V30 60 1 57 23
M  V30 61 1 58 24
M  V30 62 1 59 25
M  V30 63 1 60 30
M  V30 64 1 61 31
M  V30 65 1 62 32
M  V30 66 1 63 33
M  V30 END BOND
M  V30 END CTAB
M  END
>  <i_epik_Tot_Q>  (1) 
0

>  <i_epik_Tot_abs_Q>  (1) 
0

>  <i_i_glide_confnum>  (1) 
165

>  <i_i_glide_lignum>  (1) 
147

>  <i_i_glide_posenum>  (1) 
160

>  <i_i_glide_rotatable_bonds>  (1) 
9

>  <i_lp_mmshare_version>  (1) 
72125

>  <i_m_source_file_index>  (1) 
67

>  <i_f3d_flags>  (1) 
0

>  <num_sample>  (1) 
100

>  <b_lp_Chiralities_Consistent>  (1) 
1

>  <r_epik_Charging_Adjusted_Penalty>  (1) 
1.3281530491987052

>  <r_epik_Ionization_Penalty>  (1) 
1.3282883392360914

>  <r_epik_Ionization_Penalty_Charging>  (1) 
0

>  <r_epik_Ionization_Penalty_Neutral>  (1) 
1.3282883392360914

>  <r_epik_State_Penalty>  (1) 
1.3281530491987052

>  <r_glide_ring_energy>  (1) 
0

>  <r_i_docking_score>  (1) 
-7.8853675039356768

>  <r_i_glide_ecoul>  (1) 
-2.1656758630975439

>  <r_i_glide_eff_state_penalty>  (1) 
1.3281530491987052

>  <r_i_glide_einternal>  (1) 
23.571869933057759

>  <r_i_glide_emodel>  (1) 
-58.288326666160479

>  <r_i_glide_emodel_strain>  (1) 
0.5525430770711921

>  <r_i_glide_energy>  (1) 
-53.442191249250314

>  <r_i_glide_erotb>  (1) 
0.50097048188181392

>  <r_i_glide_esite>  (1) 
-0.011451586505262432

>  <r_i_glide_evdw>  (1) 
-51.276515386152766

>  <r_i_glide_gscore>  (1) 
-9.2135205531343818

>  <r_i_glide_gscore_strain>  (1) 
0

>  <r_i_glide_hbond>  (1) 
-0.21966474901916436

>  <r_i_glide_ligand_efficiency>  (1) 
-0.22529621439816219

>  <r_i_glide_ligand_efficiency_ln>  (1) 
-1.7310131734165408

>  <r_i_glide_ligand_efficiency_sa>  (1) 
-0.73695885673085393

>  <r_i_glide_lipo>  (1) 
-5.2000831965859033

>  <r_i_glide_metal>  (1) 
-0

>  <r_i_glide_rewards>  (1) 
-1.3946143541335951

>  <r_lp_Energy>  (1) 
65.328841999999995

>  <r_lp_tautomer_probability>  (1) 
0.99999944244275329

>  <s_epik_cmdline>  (1) 
J2VwaWtfcHl0aG9uJywgJy1waHQnLCAnMS4wJywgJy1waCcsICc3LjQnLCAnLXRuJywgJzgnLCAnLW1hJywgJzUwMCcsICctaW1hZScsICc8aW5maWxlLm1hZT4nLCAnLW9tYWUnLCAnPG91dGZpbGUubWFlPic=

>  <s_epik_input>  (1) 
W0NIXTEvW0NIMl1DKD1bQ0gyXSlbQ0hdPUM9W0NIXVtDQEBIXShDPTFcMilbQ0gyXS9bQ0hdPVtDSF1cTihbQ0gyXVtDQEBIXTJbQ0BASF0oW09IXSlbQ0gyXVtPSF0pW0NIMl1jKFtjSF1bY0hdMylubjNDKD1PKWM0YyhDbClbY0hdYyhbT0hdKVtjSF1bY0hdNA==

>  <s_glide_docking_method>  (1) 
confgen

>  <s_i_glide_gridfile>  (1) 
gpcr_5ht2c_6bqh_protein_autoprepared_prepared

>  <s_lp_Force_Field>  (1) 
S-OPLS

>  <s_lp_Variant>  (1) 
DiffSBDD_66-3

>  <s_m_source_file>  (1) 
generated_GPCR_5HT2C_ligand_DiffSBDD_2026-06-23_prepared.sdf

>  <GenAI_Model>  (1) 
DiffSBDD

>  <Protein>  (1) 
GPCR_5HT2C

$$$$
DiffSBDD_64
     RDKit          3D

  0  0  0  0  0  0  0  0  0  0999 V3000
M  V30 BEGIN CTAB
M  V30 COUNTS 77 80 0 0 1
M  V30 BEGIN ATOM
M  V30 1 C 37.823429 37.598097 61.155868 0
M  V30 2 C 38.036910 32.702014 61.529108 0
M  V30 3 C 39.279523 32.770968 62.427994 0 CFG=2
M  V30 4 C 41.528009 31.893496 63.258482 0
M  V30 5 N 37.408209 33.976140 61.206724 0 CHG=1
M  V30 6 C 39.645395 36.921978 63.968912 0
M  V30 7 C 38.241131 32.570501 56.224091 0
M  V30 8 N 37.306554 36.262899 61.028304 0
M  V30 9 O 37.245911 33.337899 58.185680 0
M  V30 10 C 41.422176 31.604663 64.566761 0
M  V30 11 C 39.493891 30.122311 59.763837 0
M  V30 12 C 39.682228 30.114288 52.921965 0
M  V30 13 O 39.543607 29.761028 57.497350 0
M  V30 14 C 37.955826 35.176966 61.475208 0
M  V30 15 O 37.198202 38.521902 60.670867 0
M  V30 16 O 39.645107 38.937711 61.767705 0 CHG=-1
M  V30 17 C 38.172497 32.363106 57.747609 0 CFG=1
M  V30 18 C 39.159379 35.272243 62.191718 0
M  V30 19 C 39.788121 34.177068 62.633514 0
M  V30 20 C 37.605205 31.006415 58.226473 0
M  V30 21 C 40.506392 28.542372 55.810275 0
M  V30 22 C 39.128578 31.638235 55.391275 0
M  V30 23 C 38.589395 29.868283 58.538421 0 CFG=2
M  V30 24 F 39.310613 27.744018 50.167776 0
M  V30 25 C 40.402477 31.704285 62.243711 0 CFG=1
M  V30 26 C 38.013917 28.428449 53.507107 0
M  V30 27 N 39.020035 37.748850 61.767674 0
M  V30 28 C 39.193075 29.181125 56.259674 0 CFG=2
M  V30 29 C 38.983450 29.747278 61.164380 0
M  V30 30 C 37.735642 28.625218 58.777071 0
M  V30 31 C 38.202214 27.817264 52.261918 0
M  V30 32 C 39.125548 28.345675 51.350337 0
M  V30 33 C 39.859866 29.497232 51.672768 0
M  V30 34 C 39.672323 36.642502 62.453490 0 CFG=1
M  V30 35 C 39.922883 30.225277 62.287194 0
M  V30 36 C 38.590205 30.188225 55.235238 0 CFG=2
M  V30 37 C 38.759008 29.573888 53.849925 0
M  V30 38 H 38.285105 32.314429 60.556487 0
M  V30 39 H 37.280017 32.047611 61.960791 0
M  V30 40 H 38.847934 32.520425 63.367826 0
M  V30 41 H 42.458441 32.286726 62.877070 0
M  V30 42 H 40.255764 36.214198 64.529236 0
M  V30 43 H 40.039811 37.912101 64.183518 0
M  V30 44 H 38.630614 36.883157 64.367680 0
M  V30 45 H 37.245217 32.535132 55.792664 0
M  V30 46 H 38.582189 33.590605 56.044963 0
M  V30 47 H 36.438076 36.072814 60.555762 0
M  V30 48 H 36.421379 33.104400 57.759716 0
M  V30 49 H 42.253633 31.760810 65.238481 0
M  V30 50 H 40.505286 31.210443 64.979835 0
M  V30 51 H 40.462191 29.639159 59.624012 0
M  V30 52 H 39.676459 31.179303 59.767705 0
M  V30 53 H 40.268592 30.983659 53.171956 0
M  V30 54 H 39.142140 32.580381 58.194700 0
M  V30 55 H 40.704399 34.285723 63.193797 0
M  V30 56 H 37.008472 31.168513 59.124101 0
M  V30 57 H 36.889329 30.610761 57.506424 0
M  V30 58 H 40.330264 27.745901 55.086820 0
M  V30 59 H 41.150223 29.306004 55.368310 0
M  V30 60 H 41.038604 28.087469 56.645941 0
M  V30 61 H 39.104652 32.137401 54.424009 0
M  V30 62 H 40.167605 31.656259 55.716401 0
M  V30 63 H 40.897524 31.901329 61.294094 0
M  V30 64 H 37.311438 28.007599 54.211058 0
M  V30 65 H 38.515609 28.339973 56.374441 0
M  V30 66 H 37.983848 30.137648 61.317974 0
M  V30 67 H 38.879469 28.665155 61.244735 0
M  V30 68 H 37.034058 28.937805 59.554868 0
M  V30 69 H 37.115666 28.331165 57.930551 0
M  V30 70 H 38.323167 27.765052 59.101707 0
M  V30 71 H 37.645850 26.934952 52.006570 0
M  V30 72 H 40.570635 29.901227 50.966178 0
M  V30 73 H 40.714492 36.648551 62.129325 0
M  V30 74 H 39.443984 30.021355 63.244368 0
M  V30 75 H 40.803745 29.581886 62.264430 0
M  V30 76 H 37.510799 30.227143 55.386969 0
M  V30 77 H 36.540872 33.937299 60.689840 0
M  V30 END ATOM
M  V30 BEGIN BOND
M  V30 1 1 3 2
M  V30 2 1 5 2
M  V30 3 1 8 1
M  V30 4 2 10 4
M  V30 5 2 14 5
M  V30 6 1 14 8
M  V30 7 2 15 1
M  V30 8 1 17 7
M  V30 9 1 17 9
M  V30 10 1 18 14
M  V30 11 1 19 3
M  V30 12 2 19 18
M  V30 13 1 20 17
M  V30 14 1 22 7
M  V30 15 1 23 11 CFG=1
M  V30 16 1 23 13
M  V30 17 1 23 20
M  V30 18 1 25 3
M  V30 19 1 25 4
M  V30 20 1 27 1
M  V30 21 1 27 16
M  V30 22 1 28 13
M  V30 23 1 28 21
M  V30 24 1 29 11
M  V30 25 1 30 23
M  V30 26 2 31 26
M  V30 27 1 32 24
M  V30 28 1 32 31
M  V30 29 1 33 12
M  V30 30 2 33 32
M  V30 31 1 34 6
M  V30 32 1 34 18
M  V30 33 1 34 27
M  V30 34 1 35 25
M  V30 35 1 35 29
M  V30 36 1 36 22
M  V30 37 1 36 28
M  V30 38 2 37 12
M  V30 39 1 37 26
M  V30 40 1 37 36
M  V30 41 1 38 2
M  V30 42 1 39 2
M  V30 43 1 3 40 CFG=1
M  V30 44 1 41 4
M  V30 45 1 42 6
M  V30 46 1 43 6
M  V30 47 1 44 6
M  V30 48 1 45 7
M  V30 49 1 46 7
M  V30 50 1 47 8
M  V30 51 1 48 9
M  V30 52 1 49 10
M  V30 53 1 50 10
M  V30 54 1 51 11
M  V30 55 1 52 11
M  V30 56 1 53 12
M  V30 57 1 17 54 CFG=1
M  V30 58 1 55 19
M  V30 59 1 56 20
M  V30 60 1 57 20
M  V30 61 1 58 21
M  V30 62 1 59 21
M  V30 63 1 60 21
M  V30 64 1 61 22
M  V30 65 1 62 22
M  V30 66 1 25 63 CFG=3
M  V30 67 1 64 26
M  V30 68 1 28 65 CFG=1
M  V30 69 1 66 29
M  V30 70 1 67 29
M  V30 71 1 68 30
M  V30 72 1 69 30
M  V30 73 1 70 30
M  V30 74 1 71 31
M  V30 75 1 72 33
M  V30 76 1 34 73 CFG=3
M  V30 77 1 74 35
M  V30 78 1 75 35
M  V30 79 1 36 76 CFG=1
M  V30 80 1 77 5
M  V30 END BOND
M  V30 END CTAB
M  END
>  <i_epik_Tot_Q>  (1) 
0

>  <i_epik_Tot_abs_Q>  (1) 
2

>  <i_i_glide_confnum>  (1) 
586

>  <i_i_glide_lignum>  (1) 
143

>  <i_i_glide_posenum>  (1) 
174

>  <i_i_glide_rotatable_bonds>  (1) 
8

>  <i_lp_mmshare_version>  (1) 
72125

>  <i_m_source_file_index>  (1) 
65

>  <i_f3d_flags>  (1) 
0

>  <num_sample>  (1) 
100

>  <b_lp_Chiralities_Consistent>  (1) 
1

>  <r_epik_Charging_Adjusted_Penalty>  (1) 
0.059234021973178383

>  <r_epik_Ionization_Penalty>  (1) 
0.05923416388853827

>  <r_epik_Ionization_Penalty_Charging>  (1) 
0.059234021973178383

>  <r_epik_Ionization_Penalty_Neutral>  (1) 
1.4191535988443934e-07

>  <r_epik_State_Penalty>  (1) 
-0

>  <r_glide_ring_energy>  (1) 
0.4351030857825629

>  <r_i_docking_score>  (1) 
-7.8788902833460392

>  <r_i_glide_ecoul>  (1) 
-5.5102947229104711

>  <r_i_glide_eff_state_penalty>  (1) 
-0

>  <r_i_glide_einternal>  (1) 
10.269915173162889

>  <r_i_glide_emodel>  (1) 
-46.784528908670971

>  <r_i_glide_emodel_strain>  (1) 
1.7501004850302735

>  <r_i_glide_energy>  (1) 
-39.132990599296413

>  <r_i_glide_erotb>  (1) 
0.54408064829906078

>  <r_i_glide_esite>  (1) 
0

>  <r_i_glide_evdw>  (1) 
-33.62269587638594

>  <r_i_glide_gscore>  (1) 
-7.8788902833460392

>  <r_i_glide_gscore_strain>  (1) 
0

>  <r_i_glide_hbond>  (1) 
-0.25280981287091797

>  <r_i_glide_ligand_efficiency>  (1) 
-0.21294298063097403

>  <r_i_glide_ligand_efficiency_ln>  (1) 
-1.7087465950630492

>  <r_i_glide_ligand_efficiency_sa>  (1) 
-0.70957325321315279

>  <r_i_glide_lipo>  (1) 
-3.7868506957979036

>  <r_i_glide_metal>  (1) 
-0

>  <r_i_glide_rewards>  (1) 
-1.8756314207204092

>  <r_lp_Energy>  (1) 
57.935866999999995

>  <r_lp_tautomer_probability>  (1) 
1

>  <s_epik_Chemistry_Notes>  (1) 
This compound has an imine and may undergo hydrolysis.

>  <s_epik_cmdline>  (1) 
J2VwaWtfcHl0aG9uJywgJy1waHQnLCAnMS4wJywgJy1waCcsICc3LjQnLCAnLXRuJywgJzgnLCAnLW1hJywgJzUwMCcsICctaW1hZScsICc8aW5maWxlLm1hZT4nLCAnLW9tYWUnLCAnPG91dGZpbGUubWFlPic=

>  <s_epik_input>  (1) 
W05IXTFDKD1PKU4oW09IXSlbQ0BASF0oW0NIM10pQyhDMTIpPVtDSF1bQ0BASF0oW0NIMl1OPTIpW0NAQEhdKFtDSF09W0NIMl0pW0NIMl1bQ0gyXVtDSDJdW0NAXTMoW0NIM10pT1tDQEhdKFtDSDNdKVtDQEBIXShbQ0gyXVtDSDJdW0NAQEhdKFtPSF0pW0NIMl0zKWMoW2NIXVtjSF00KVtjSF1bY0hdYzRG

>  <s_glide_docking_method>  (1) 
confgen

>  <s_i_glide_gridfile>  (1) 
gpcr_5ht2c_6bqh_protein_autoprepared_prepared

>  <s_lp_Force_Field>  (1) 
S-OPLS

>  <s_lp_Variant>  (1) 
DiffSBDD_64-1

>  <s_m_source_file>  (1) 
generated_GPCR_5HT2C_ligand_DiffSBDD_2026-06-23_prepared.sdf

>  <GenAI_Model>  (1) 
DiffSBDD

>  <Protein>  (1) 
GPCR_5HT2C

$$$$
DiffSBDD_2
     RDKit          3D

  0  0  0  0  0  0  0  0  0  0999 V3000
M  V30 BEGIN CTAB
M  V30 COUNTS 81 84 0 0 1
M  V30 BEGIN ATOM
M  V30 1 F 40.584518 31.541278 65.420759 0
M  V30 2 C 38.316727 28.669731 54.389437 0
M  V30 3 C 37.498565 32.363476 58.641399 0 CFG=2
M  V30 4 C 43.122648 30.819720 67.732278 0
M  V30 5 C 37.632281 30.861232 58.882769 0 CFG=2
M  V30 6 N 37.645138 32.494839 57.187800 0 CHG=1
M  V30 7 O 39.600100 36.537752 64.093489 0
M  V30 8 C 38.054359 35.860883 61.518899 0
M  V30 9 C 38.698286 32.870174 60.834794 0 CFG=1
M  V30 10 N 38.760918 29.213740 55.580362 0
M  V30 11 C 39.009093 27.148769 52.695782 0
M  V30 12 C 38.007598 30.133183 56.366311 0 CFG=2
M  V30 13 C 38.028654 30.478297 60.318231 0
M  V30 14 C 41.740473 31.357930 67.445640 0
M  V30 15 O 45.645137 30.937750 66.204198 0
M  V30 16 C 39.498698 35.354384 61.248366 0 CFG=2
M  V30 17 C 38.603309 31.469901 56.717372 0 CFG=2
M  V30 18 O 39.244708 27.828559 53.917738 0
M  V30 19 N 41.684842 35.662457 64.078291 0
M  V30 20 C 38.568628 33.203767 59.338517 0
M  V30 21 C 38.540769 30.389935 57.771991 0 CFG=1
M  V30 22 O 37.245141 28.902361 53.831585 0
M  V30 23 C 39.107284 31.374947 60.967296 0 CFG=2
M  V30 24 O 42.717399 30.714470 65.401614 0
M  V30 25 C 39.341357 30.921433 62.423600 0
M  V30 26 C 41.479001 34.223322 66.100014 0
M  V30 27 C 44.860360 29.767030 66.098740 0
M  V30 28 C 39.672739 33.840026 61.548767 0
M  V30 29 C 41.804842 31.666964 65.942246 0 CFG=1
M  V30 30 C 37.801352 37.314095 61.093512 0
M  V30 31 C 41.824444 35.606285 65.531937 0
M  V30 32 C 43.387626 30.025522 66.452123 0 CFG=1
M  V30 33 C 40.584991 36.137754 63.474524 0
M  V30 34 C 40.608021 36.178891 61.944909 0
M  V30 35 O 39.865205 29.611154 62.454694 0
M  V30 36 C 42.351929 33.065804 65.582545 0
M  V30 37 H 36.511270 32.709180 58.953493 0
M  V30 38 H 43.167190 30.204512 68.631148 0
M  V30 39 H 43.822082 31.647744 67.850725 0
M  V30 40 H 36.661735 30.400295 58.687112 0
M  V30 41 H 36.696541 32.236271 56.857697 0
M  V30 42 H 37.335462 35.246573 60.979801 0
M  V30 43 H 37.790425 35.737860 62.567281 0
M  V30 44 H 37.718397 32.992318 61.298921 0
M  V30 45 H 39.668875 28.916180 55.905208 0
M  V30 46 H 39.849798 26.494197 52.468889 0
M  V30 47 H 38.107644 26.537880 52.758813 0
M  V30 48 H 38.894654 27.855385 51.872632 0
M  V30 49 H 36.923542 30.092190 56.254081 0
M  V30 50 H 37.129646 30.537766 60.932993 0
M  V30 51 H 38.335672 29.431964 60.335193 0
M  V30 52 H 41.470877 32.207439 68.071244 0
M  V30 53 H 41.004739 30.572844 67.629513 0
M  V30 54 H 46.555207 30.662610 66.167774 0
M  V30 55 H 39.694935 35.503511 60.187546 0
M  V30 56 H 39.579209 31.811423 56.376342 0
M  V30 57 H 42.462595 35.354568 63.516349 0
M  V30 58 H 38.275944 34.237943 59.183334 0
M  V30 59 H 39.540488 33.086722 58.858375 0
M  V30 60 H 39.483858 29.932554 58.066936 0
M  V30 61 H 40.045098 31.232073 60.431229 0
M  V30 62 H 40.051437 31.562244 62.942940 0
M  V30 63 H 38.406113 30.944045 62.980083 0
M  V30 64 H 40.445018 34.008692 65.861646 0
M  V30 65 H 41.535894 34.273327 67.186918 0
M  V30 66 H 44.952577 29.348471 65.096057 0
M  V30 67 H 45.273184 29.029588 66.787952 0
M  V30 68 H 40.695773 33.552821 61.302432 0
M  V30 69 H 39.571839 33.694296 62.624281 0
M  V30 70 H 36.754425 37.580711 61.240787 0
M  V30 71 H 38.396734 38.015681 61.676771 0
M  V30 72 H 38.034424 37.462653 60.039216 0
M  V30 73 H 41.206661 36.364726 66.017418 0
M  V30 74 H 42.845135 35.873450 65.784731 0
M  V30 75 H 42.882817 29.061876 66.538827 0
M  V30 76 H 40.548624 37.223877 61.644265 0
M  V30 77 H 41.582538 35.839773 61.590177 0
M  V30 78 H 39.531453 29.173843 63.231142 0
M  V30 79 H 43.369760 33.181501 65.956284 0
M  V30 80 H 42.424727 33.121260 64.496188 0
M  V30 81 H 37.866981 33.432712 56.890788 0
M  V30 END ATOM
M  V30 BEGIN BOND
M  V30 1 1 5 3
M  V30 2 1 6 3
M  V30 3 1 10 2
M  V30 4 1 12 10
M  V30 5 1 13 5
M  V30 6 1 14 4
M  V30 7 1 16 8
M  V30 8 1 17 6
M  V30 9 1 17 12
M  V30 10 1 18 2
M  V30 11 1 18 11
M  V30 12 1 20 3
M  V30 13 1 20 9
M  V30 14 1 21 5
M  V30 15 1 21 12
M  V30 16 1 21 17
M  V30 17 2 22 2
M  V30 18 1 23 9
M  V30 19 1 23 13
M  V30 20 1 25 23
M  V30 21 1 27 15
M  V30 22 1 28 9
M  V30 23 1 28 16
M  V30 24 1 29 1 CFG=3
M  V30 25 1 29 14
M  V30 26 1 29 24
M  V30 27 1 30 8
M  V30 28 1 31 19
M  V30 29 1 31 26
M  V30 30 1 32 4
M  V30 31 1 32 24
M  V30 32 1 32 27
M  V30 33 2 33 7
M  V30 34 1 33 19
M  V30 35 1 34 16
M  V30 36 1 34 33
M  V30 37 1 35 25
M  V30 38 1 36 26
M  V30 39 1 36 29
M  V30 40 1 3 37 CFG=1
M  V30 41 1 38 4
M  V30 42 1 39 4
M  V30 43 1 5 40 CFG=3
M  V30 44 1 41 6
M  V30 45 1 42 8
M  V30 46 1 43 8
M  V30 47 1 9 44 CFG=1
M  V30 48 1 45 10
M  V30 49 1 46 11
M  V30 50 1 47 11
M  V30 51 1 48 11
M  V30 52 1 12 49 CFG=1
M  V30 53 1 50 13
M  V30 54 1 51 13
M  V30 55 1 52 14
M  V30 56 1 53 14
M  V30 57 1 54 15
M  V30 58 1 16 55 CFG=3
M  V30 59 1 17 56 CFG=3
M  V30 60 1 57 19
M  V30 61 1 58 20
M  V30 62 1 59 20
M  V30 63 1 21 60 CFG=1
M  V30 64 1 23 61 CFG=3
M  V30 65 1 62 25
M  V30 66 1 63 25
M  V30 67 1 64 26
M  V30 68 1 65 26
M  V30 69 1 66 27
M  V30 70 1 67 27
M  V30 71 1 68 28
M  V30 72 1 69 28
M  V30 73 1 70 30
M  V30 74 1 71 30
M  V30 75 1 72 30
M  V30 76 1 73 31
M  V30 77 1 74 31
M  V30 78 1 32 75 CFG=1
M  V30 79 1 76 34
M  V30 80 1 77 34
M  V30 81 1 78 35
M  V30 82 1 79 36
M  V30 83 1 80 36
M  V30 84 1 81 6
M  V30 END BOND
M  V30 END CTAB
M  END
>  <i_epik_Tot_Q>  (1) 
1

>  <i_epik_Tot_abs_Q>  (1) 
1

>  <i_i_glide_confnum>  (1) 
4492

>  <i_i_glide_lignum>  (1) 
4

>  <i_i_glide_posenum>  (1) 
264

>  <i_i_glide_rotatable_bonds>  (1) 
17

>  <i_lp_mmshare_version>  (1) 
72125

>  <i_m_source_file_index>  (1) 
3

>  <i_f3d_flags>  (1) 
0

>  <num_sample>  (1) 
100

>  <b_lp_Chiralities_Consistent>  (1) 
1

>  <r_epik_Charging_Adjusted_Penalty>  (1) 
0.00072413823026253119

>  <r_epik_Ionization_Penalty>  (1) 
0.00072547203534686021

>  <r_epik_Ionization_Penalty_Charging>  (1) 
0.00072413823026253119

>  <r_epik_Ionization_Penalty_Neutral>  (1) 
1.3338050843290484e-06

>  <r_epik_State_Penalty>  (1) 
-0

>  <r_glide_ring_energy>  (1) 
1.337252785472008

>  <r_i_docking_score>  (1) 
-7.8614607213236445

>  <r_i_glide_ecoul>  (1) 
-13.782668490837858

>  <r_i_glide_eff_state_penalty>  (1) 
-0

>  <r_i_glide_einternal>  (1) 
9.1850649088705811

>  <r_i_glide_emodel>  (1) 
-78.298313616557166

>  <r_i_glide_emodel_strain>  (1) 
0.45053826062542157

>  <r_i_glide_energy>  (1) 
-55.893806415522739

>  <r_i_glide_erotb>  (1) 
1.0068127819832642

>  <r_i_glide_esite>  (1) 
-0.11970654949246695

>  <r_i_glide_evdw>  (1) 
-42.111137924684883

>  <r_i_glide_gscore>  (1) 
-7.8614607213236445

>  <r_i_glide_gscore_strain>  (1) 
0

>  <r_i_glide_hbond>  (1) 
-0.7644012093760002

>  <r_i_glide_ligand_efficiency>  (1) 
-0.21837390892565678

>  <r_i_glide_ligand_efficiency_ln>  (1) 
-1.7151583372690635

>  <r_i_glide_ligand_efficiency_sa>  (1) 
-0.72105476032925986

>  <r_i_glide_lipo>  (1) 
-2.6583661407910806

>  <r_i_glide_metal>  (1) 
-0

>  <r_i_glide_rewards>  (1) 
-1.1528424337874383

>  <r_lp_Energy>  (1) 
40.418917

>  <r_lp_tautomer_probability>  (1) 
1

>  <s_epik_Chemistry_Notes>  (1) 
This compound has an ester and may undergo hydrolysis at high or low pH.

>  <s_epik_cmdline>  (1) 
J2VwaWtfcHl0aG9uJywgJy1waHQnLCAnMS4wJywgJy1waCcsICc3LjQnLCAnLXRuJywgJzgnLCAnLW1hJywgJzUwMCcsICctaW1hZScsICc8aW5maWxlLm1hZT4nLCAnLW9tYWUnLCAnPG91dGZpbGUubWFlPic=

>  <s_epik_input>  (1) 
W09IXVtDSDJdW0NASF0oTzEpW0NIMl1bQ0gyXVtDQEBdMShGKVtDSDJdW0NIMl1bQ0gyXVtOSF1DKD1PKVtDSDJdW0NASF0oW0NIMl1bQ0gzXSlbQ0gyXVtDQEBIXShbQ0gyXTIpW0NAQEhdKFtDSDJdW09IXSlbQ0gyXVtDQEBIXShbQ0BASF0yMylbQ0BASF00W0NASF0oW05IXTMpW0NASF00W05IXUMoPU8pT1tDSDNd

>  <s_glide_docking_method>  (1) 
confgen

>  <s_i_glide_gridfile>  (1) 
gpcr_5ht2c_6bqh_protein_autoprepared_prepared

>  <s_lp_Force_Field>  (1) 
S-OPLS

>  <s_lp_Variant>  (1) 
DiffSBDD_2-1

>  <s_m_source_file>  (1) 
generated_GPCR_5HT2C_ligand_DiffSBDD_2026-06-23_prepared.sdf

>  <GenAI_Model>  (1) 
DiffSBDD

>  <Protein>  (1) 
GPCR_5HT2C

$$$$
DiffSBDD_56
     RDKit          3D

  0  0  0  0  0  0  0  0  0  0999 V3000
M  V30 BEGIN CTAB
M  V30 COUNTS 73 78 0 0 1
M  V30 BEGIN ATOM
M  V30 1 C 39.429982 29.845090 56.665270 0 CFG=1
M  V30 2 C 39.125931 26.314518 56.231999 0
M  V30 3 C 39.038811 28.004783 58.131717 0
M  V30 4 C 41.326456 34.089071 63.379768 0
M  V30 5 C 38.102611 32.094638 56.153709 0
M  V30 6 C 37.987209 28.569102 53.617990 0
M  V30 7 C 38.443056 27.603057 56.766735 0 CFG=1
M  V30 8 C 39.437795 31.341518 56.259551 0
M  V30 9 C 39.184797 27.985595 51.571864 0
M  V30 10 C 41.645095 33.546809 64.618897 0
M  V30 11 C 40.685377 30.081317 64.286840 0
M  V30 12 C 40.764432 33.282999 62.367951 0
M  V30 13 C 38.745372 29.770952 53.711377 0
M  V30 14 C 37.946086 33.165364 57.248688 0
M  V30 15 C 41.405067 32.160215 64.869896 0
M  V30 16 C 39.645208 30.108922 52.677641 0
M  V30 17 N 39.037225 28.677076 54.532405 0
M  V30 18 N 38.317934 31.632807 59.231389 0 CFG=2 CHG=1
M  V30 19 F 40.856458 29.467603 50.715518 0
M  V30 20 C 39.193106 29.529014 58.149974 0 CFG=2
M  V30 21 C 39.932292 29.176805 51.659693 0
M  V30 22 C 42.182268 31.701965 67.292977 0
M  V30 23 F 39.395636 27.128320 50.547433 0
M  V30 24 C 38.375058 31.769816 60.710813 0
M  V30 25 C 40.525675 31.955831 62.603842 0
M  V30 26 C 38.507104 28.890097 55.881656 0 CFG=2
M  V30 27 C 38.150124 27.737919 52.496380 0
M  V30 28 S 39.819914 30.891567 61.376883 0
M  V30 29 C 41.603641 31.339219 65.951988 0
M  V30 30 C 41.151615 30.070643 65.567941 0
M  V30 31 C 37.452429 32.672104 58.617678 0
M  V30 32 O 42.194431 34.326292 65.615799 0
M  V30 33 N 40.829194 31.391491 63.806366 0
M  V30 34 C 37.979752 30.246601 58.786306 0
M  V30 35 C 38.206891 25.422130 55.386325 0
M  V30 36 C 42.152899 35.737984 65.496713 0
M  V30 37 O 42.845310 30.562238 67.798990 0
M  V30 38 H 40.441601 29.484994 56.469250 0
M  V30 39 H 40.040329 26.553766 55.687391 0
M  V30 40 H 39.453538 25.701741 57.073079 0
M  V30 41 H 38.449227 27.622442 58.966192 0
M  V30 42 H 40.034487 27.571066 58.240390 0
M  V30 43 H 41.512137 35.139337 63.183426 0
M  V30 44 H 37.245257 31.427098 56.114682 0
M  V30 45 H 38.091058 32.611132 55.192963 0
M  V30 46 H 37.392179 27.371066 56.942429 0
M  V30 47 H 40.045138 31.885005 56.964404 0
M  V30 48 H 39.973527 31.449651 55.317058 0
M  V30 49 H 40.263404 29.310757 63.658154 0
M  V30 50 H 40.520969 33.713385 61.402786 0
M  V30 51 H 38.867829 33.728684 57.369338 0
M  V30 52 H 37.232561 33.901143 56.891371 0
M  V30 53 H 40.099376 31.088792 52.655644 0
M  V30 54 H 40.087046 29.752073 58.730323 0
M  V30 55 H 42.902917 32.515535 67.217425 0
M  V30 56 H 41.400680 32.013877 67.986372 0
M  V30 57 H 38.461947 32.818687 60.990935 0
M  V30 58 H 37.460219 31.399814 61.176291 0
M  V30 59 H 37.500676 29.311441 55.848298 0
M  V30 60 H 37.477938 26.915333 52.340181 0
M  V30 61 H 41.178910 29.209596 66.221347 0
M  V30 62 H 37.400031 33.554226 59.256204 0
M  V30 63 H 36.437434 32.308231 58.568267 0
M  V30 64 H 37.137408 30.234704 58.094019 0
M  V30 65 H 37.629572 29.672875 59.645493 0
M  V30 66 H 38.752063 24.558617 55.003928 0
M  V30 67 H 37.790674 25.953907 54.535302 0
M  V30 68 H 37.372288 25.048938 55.980667 0
M  V30 69 H 42.445263 36.188059 66.443655 0
M  V30 70 H 41.148070 36.096314 65.268836 0
M  V30 71 H 42.845913 36.093408 64.733494 0
M  V30 72 H 43.226262 30.782074 68.634950 0
M  V30 73 H 39.245151 31.832594 58.888833 0
M  V30 END ATOM
M  V30 BEGIN BOND
M  V30 1 1 7 2
M  V30 2 1 7 3
M  V30 3 1 8 1
M  V30 4 1 8 5
M  V30 5 2 10 4
M  V30 6 1 12 4
M  V30 7 2 13 6
M  V30 8 1 14 5
M  V30 9 1 15 10
M  V30 10 1 16 13
M  V30 11 1 17 6
M  V30 12 1 17 13
M  V30 13 1 20 1
M  V30 14 1 20 3
M  V30 15 1 21 9
M  V30 16 2 21 16
M  V30 17 1 21 19
M  V30 18 1 23 9
M  V30 19 1 24 18
M  V30 20 2 25 12
M  V30 21 1 26 1
M  V30 22 1 26 7
M  V30 23 1 26 17
M  V30 24 1 27 6
M  V30 25 2 27 9
M  V30 26 1 28 24
M  V30 27 1 28 25
M  V30 28 2 29 15
M  V30 29 1 29 22
M  V30 30 2 30 11
M  V30 31 1 30 29
M  V30 32 1 31 14
M  V30 33 1 31 18
M  V30 34 1 32 10
M  V30 35 1 33 11
M  V30 36 1 33 15
M  V30 37 1 33 25
M  V30 38 1 34 18
M  V30 39 1 34 20
M  V30 40 1 35 2
M  V30 41 1 36 32
M  V30 42 1 37 22
M  V30 43 1 1 38 CFG=3
M  V30 44 1 39 2
M  V30 45 1 40 2
M  V30 46 1 41 3
M  V30 47 1 42 3
M  V30 48 1 43 4
M  V30 49 1 44 5
M  V30 50 1 45 5
M  V30 51 1 7 46 CFG=1
M  V30 52 1 47 8
M  V30 53 1 48 8
M  V30 54 1 49 11
M  V30 55 1 50 12
M  V30 56 1 51 14
M  V30 57 1 52 14
M  V30 58 1 53 16
M  V30 59 1 20 54 CFG=1
M  V30 60 1 55 22
M  V30 61 1 56 22
M  V30 62 1 57 24
M  V30 63 1 58 24
M  V30 64 1 26 59 CFG=3
M  V30 65 1 60 27
M  V30 66 1 61 30
M  V30 67 1 62 31
M  V30 68 1 63 31
M  V30 69 1 64 34
M  V30 70 1 65 34
M  V30 71 1 66 35
M  V30 72 1 67 35
M  V30 73 1 68 35
M  V30 74 1 69 36
M  V30 75 1 70 36
M  V30 76 1 71 36
M  V30 77 1 72 37
M  V30 78 1 18 73 CFG=3
M  V30 END BOND
M  V30 END CTAB
M  END
>  <i_epik_Tot_Q>  (1) 
1

>  <i_epik_Tot_abs_Q>  (1) 
1

>  <i_i_glide_confnum>  (1) 
113

>  <i_i_glide_lignum>  (1) 
124

>  <i_i_glide_posenum>  (1) 
179

>  <i_i_glide_rotatable_bonds>  (1) 
8

>  <i_lp_mmshare_version>  (1) 
72125

>  <i_m_source_file_index>  (1) 
57

>  <i_f3d_flags>  (1) 
0

>  <num_sample>  (1) 
100

>  <b_lp_Chiralities_Consistent>  (1) 
1

>  <r_epik_Charging_Adjusted_Penalty>  (1) 
1.9649939919035475

>  <r_epik_Ionization_Penalty>  (1) 
0.98409533599364529

>  <r_epik_Ionization_Penalty_Charging>  (1) 
0.98249699595177398

>  <r_epik_Ionization_Penalty_Neutral>  (1) 
0.0015983400418712683

>  <r_epik_State_Penalty>  (1) 
0.98249699595177364

>  <r_glide_ring_energy>  (1) 
0

>  <r_i_docking_score>  (1) 
-7.8492102537417487

>  <r_i_glide_ecoul>  (1) 
-2.204221169595511

>  <r_i_glide_eff_state_penalty>  (1) 
0.98249699595177364

>  <r_i_glide_einternal>  (1) 
4.2177741533816082

>  <r_i_glide_emodel>  (1) 
-77.230905304880139

>  <r_i_glide_emodel_strain>  (1) 
0.23697041227137561

>  <r_i_glide_energy>  (1) 
-50.723107584755702

>  <r_i_glide_erotb>  (1) 
0.36855175673704876

>  <r_i_glide_esite>  (1) 
-0.037679721616199063

>  <r_i_glide_evdw>  (1) 
-48.518886415160189

>  <r_i_glide_gscore>  (1) 
-8.8317072496935225

>  <r_i_glide_gscore_strain>  (1) 
0

>  <r_i_glide_hbond>  (1) 
0

>  <r_i_glide_ligand_efficiency>  (1) 
-0.21214081766869591

>  <r_i_glide_ligand_efficiency_ln>  (1) 
-1.702309692440493

>  <r_i_glide_ligand_efficiency_sa>  (1) 
-0.70690026826166852

>  <r_i_glide_lipo>  (1) 
-4.3529644668674443

>  <r_i_glide_metal>  (1) 
-0

>  <r_i_glide_rewards>  (1) 
-2.0530373217495916

>  <r_lp_Energy>  (1) 
113.81728699999999

>  <s_epik_Chemistry_Notes>  (1) 
This compound contains an acetal/aminal-like group ( X-CH(R)-Y where X, Y are N, S, or O) that may be acid/base labile, releasing an aldehyde.

>  <s_epik_cmdline>  (1) 
J2VwaWtfcHl0aG9uJywgJy1waHQnLCAnMS4wJywgJy1waCcsICc3LjQnLCAnLXRuJywgJzgnLCAnLW1hJywgJzUwMCcsICctaW1hZScsICc8aW5maWxlLm1hZT4nLCAnLW9tYWUnLCAnPG91dGZpbGUubWFlPic=

>  <s_epik_input>  (1) 
RmMoW2NIXTEpYyhGKVtjSF1jKGMxMilOMltDQEhdM1tDQEBIXShbQ0gyXVtDSDNdKVtDSDJdW0NAQEhdKFtDQEBIXTM0KVtDSDJdTihbQ0gyXVtDSDJdW0NIMl1bQ0gyXTQpW0NIMl1TYyhbY0hdW2NIXWM1T1tDSDNdKW4oYzU2KVtjSF1bY0hdYzZbQ0gyXVtPSF0=

>  <s_glide_docking_method>  (1) 
confgen

>  <s_i_glide_gridfile>  (1) 
gpcr_5ht2c_6bqh_protein_autoprepared_prepared

>  <s_lp_Force_Field>  (1) 
S-OPLS

>  <s_lp_Variant>  (1) 
DiffSBDD_56-3

>  <s_m_source_file>  (1) 
generated_GPCR_5HT2C_ligand_DiffSBDD_2026-06-23_prepared.sdf

>  <GenAI_Model>  (1) 
DiffSBDD

>  <Protein>  (1) 
GPCR_5HT2C

$$$$
DiffSBDD_84
     RDKit          3D

  0  0  0  0  0  0  0  0  0  0999 V3000
M  V30 BEGIN CTAB
M  V30 COUNTS 77 81 0 0 1
M  V30 BEGIN ATOM
M  V30 1 C 38.400009 31.307614 54.752441 0
M  V30 2 C 41.855737 32.235545 63.384330 0
M  V30 3 C 39.645131 29.800988 61.418683 0
M  V30 4 C 37.601699 24.474757 55.835619 0
M  V30 5 S 38.042562 26.976142 57.446480 0
M  V30 6 C 42.178798 33.601982 67.330220 0
M  V30 7 C 41.121118 32.051268 65.833153 0
M  V30 8 C 35.434808 32.005147 60.092325 0
M  V30 9 O 37.156661 23.461002 54.967756 0
M  V30 10 C 39.351707 32.207216 61.900146 0
M  V30 11 C 40.411326 30.742247 65.520145 0
M  V30 12 C 41.317891 32.984885 64.627652 0 CFG=1
M  V30 13 C 37.614376 30.976279 60.544901 0
M  V30 14 N 37.645148 32.066817 55.767704 0 CHG=1
M  V30 15 C 38.366501 25.588314 55.074852 0
M  V30 16 C 39.382079 30.262571 55.341121 0
M  V30 17 N 41.499627 32.349039 67.017885 0
M  V30 18 C 36.322365 30.919222 59.969982 0
M  V30 19 N 39.468493 29.013557 58.186597 0
M  V30 20 N 40.011372 30.909718 62.120579 0
M  V30 21 C 41.857198 34.736506 66.343360 0
M  V30 22 C 37.987773 32.134258 61.256656 0
M  V30 23 N 38.925479 26.545540 56.043567 0
M  V30 24 C 37.460865 26.278317 54.021045 0
M  V30 25 C 41.180759 30.880614 63.045416 0 CFG=2
M  V30 26 O 40.187509 28.708656 61.591260 0
M  V30 27 C 37.100252 33.223955 61.367773 0
M  V30 28 O 38.227778 26.937783 53.027815 0
M  V30 29 C 42.167677 34.232836 64.939909 0
M  V30 30 C 38.381634 28.729585 57.251704 0 CFG=1
M  V30 31 C 41.013353 30.007855 64.313033 0
M  V30 32 N 39.245160 30.139578 58.998385 0
M  V30 33 N 39.488017 27.718013 55.362950 0 CHG=1
M  V30 34 C 35.825465 33.157663 60.787137 0
M  V30 35 C 38.594219 29.884462 60.280922 0 CFG=1
M  V30 36 C 38.727223 28.922288 55.766586 0 CFG=2
M  V30 37 H 38.966060 32.035662 54.169548 0
M  V30 38 H 37.700124 30.841671 54.058144 0
M  V30 39 H 42.891813 31.994225 63.599523 0
M  V30 40 H 41.900272 32.895157 62.517670 0
M  V30 41 H 36.712474 24.865163 56.331905 0
M  V30 42 H 38.233962 24.027763 56.604175 0
M  V30 43 H 41.897345 33.918407 68.335110 0
M  V30 44 H 43.255495 33.429035 67.362396 0
M  V30 45 H 34.453696 31.952929 59.642330 0
M  V30 46 H 37.902895 23.087175 54.519258 0
M  V30 47 H 39.186631 32.697364 62.852330 0
M  V30 48 H 39.985835 32.848642 61.287430 0
M  V30 49 H 39.356158 30.937679 65.345783 0
M  V30 50 H 37.047411 32.765566 55.331713 0
M  V30 51 H 36.985614 31.501548 56.297919 0
M  V30 52 H 39.210164 25.120376 54.567753 0
M  V30 53 H 39.975609 30.699006 56.144221 0
M  V30 54 H 40.102633 30.046854 54.550608 0
M  V30 55 H 36.016452 30.039740 59.422476 0
M  V30 56 H 40.370387 29.093422 57.721631 0
M  V30 57 H 40.809060 35.028333 66.422550 0
M  V30 58 H 42.445115 35.626161 66.567685 0
M  V30 59 H 36.845290 25.543519 53.500375 0
M  V30 60 H 36.781124 26.982321 54.492297 0
M  V30 61 H 41.943757 30.363096 62.465453 0
M  V30 62 H 37.400804 34.111136 61.902244 0
M  V30 63 H 37.721196 26.937015 52.223085 0
M  V30 64 H 41.987346 35.014416 64.200978 0
M  V30 65 H 43.231137 34.000592 64.891033 0
M  V30 66 H 37.489733 29.293184 57.529573 0
M  V30 67 H 40.445031 29.101781 64.108598 0
M  V30 68 H 42.002734 29.654026 64.607068 0
M  V30 69 H 38.740338 30.859084 58.485384 0
M  V30 70 H 40.461122 27.767422 55.630275 0
M  V30 71 H 35.145996 33.992969 60.875476 0
M  V30 72 H 38.063909 28.932778 60.215316 0
M  V30 73 H 37.785221 28.847401 55.224118 0
M  V30 74 H 39.375027 27.542335 54.366317 0
M  V30 75 H 40.328287 33.368796 64.413058 0
M  V30 76 H 40.450346 30.092823 66.395998 0
M  V30 77 H 38.262490 32.541040 56.408875 0
M  V30 END ATOM
M  V30 BEGIN BOND
M  V30 1 1 9 4
M  V30 2 1 11 7
M  V30 3 1 12 2
M  V30 4 1 12 7
M  V30 5 1 14 1
M  V30 6 1 15 4
M  V30 7 1 16 1
M  V30 8 1 17 6
M  V30 9 2 17 7
M  V30 10 1 18 8
M  V30 11 2 18 13
M  V30 12 1 20 3
M  V30 13 1 20 10
M  V30 14 1 21 6
M  V30 15 1 22 10
M  V30 16 1 22 13
M  V30 17 1 23 5
M  V30 18 1 23 15
M  V30 19 1 24 15
M  V30 20 1 25 2
M  V30 21 1 25 20
M  V30 22 2 26 3
M  V30 23 2 27 22
M  V30 24 1 28 24
M  V30 25 1 29 12
M  V30 26 1 29 21
M  V30 27 1 30 5
M  V30 28 1 30 19
M  V30 29 1 31 11
M  V30 30 1 31 25
M  V30 31 1 32 19
M  V30 32 1 33 23
M  V30 33 2 34 8
M  V30 34 1 34 27
M  V30 35 1 35 3
M  V30 36 1 35 13
M  V30 37 1 35 32
M  V30 38 1 36 16
M  V30 39 1 36 30
M  V30 40 1 36 33
M  V30 41 1 37 1
M  V30 42 1 38 1
M  V30 43 1 39 2
M  V30 44 1 40 2
M  V30 45 1 41 4
M  V30 46 1 42 4
M  V30 47 1 43 6
M  V30 48 1 44 6
M  V30 49 1 45 8
M  V30 50 1 46 9
M  V30 51 1 47 10
M  V30 52 1 48 10
M  V30 53 1 49 11
M  V30 54 1 50 14
M  V30 55 1 51 14
M  V30 56 1 52 15
M  V30 57 1 53 16
M  V30 58 1 54 16
M  V30 59 1 55 18
M  V30 60 1 56 19
M  V30 61 1 57 21
M  V30 62 1 58 21
M  V30 63 1 59 24
M  V30 64 1 60 24
M  V30 65 1 25 61 CFG=3
M  V30 66 1 62 27
M  V30 67 1 63 28
M  V30 68 1 64 29
M  V30 69 1 65 29
M  V30 70 1 30 66 CFG=1
M  V30 71 1 67 31
M  V30 72 1 68 31
M  V30 73 1 69 32
M  V30 74 1 70 33
M  V30 75 1 71 34
M  V30 76 1 35 72 CFG=3
M  V30 77 1 36 73 CFG=3
M  V30 78 1 74 33
M  V30 79 1 12 75 CFG=3
M  V30 80 1 76 11
M  V30 81 1 77 14
M  V30 END BOND
M  V30 END CTAB
M  END
>  <i_epik_Tot_Q>  (1) 
2

>  <i_epik_Tot_abs_Q>  (1) 
2

>  <i_i_glide_confnum>  (1) 
918

>  <i_i_glide_lignum>  (1) 
199

>  <i_i_glide_posenum>  (1) 
358

>  <i_i_glide_rotatable_bonds>  (1) 
11

>  <i_lp_mmshare_version>  (1) 
72125

>  <i_m_source_file_index>  (1) 
85

>  <i_f3d_flags>  (1) 
0

>  <num_sample>  (1) 
100

>  <b_lp_Chiralities_Consistent>  (1) 
1

>  <r_epik_Charging_Adjusted_Penalty>  (1) 
0.034284474231679775

>  <r_epik_Ionization_Penalty>  (1) 
0.42650113434003467

>  <r_epik_Ionization_Penalty_Charging>  (1) 
0.012847136256187231

>  <r_epik_Ionization_Penalty_Neutral>  (1) 
0.41365399808384745

>  <r_epik_State_Penalty>  (1) 
0.021437337975492542

>  <r_glide_ring_energy>  (1) 
0.20284343658850779

>  <r_i_docking_score>  (1) 
-7.8084866862402498

>  <r_i_glide_ecoul>  (1) 
-7.3968159088215586

>  <r_i_glide_eff_state_penalty>  (1) 
0.021437337975492542

>  <r_i_glide_einternal>  (1) 
13.604620482228409

>  <r_i_glide_emodel>  (1) 
-71.369094857753666

>  <r_i_glide_emodel_strain>  (1) 
3.7642706546676976

>  <r_i_glide_energy>  (1) 
-55.454168609281815

>  <r_i_glide_erotb>  (1) 
0.60855438394346106

>  <r_i_glide_esite>  (1) 
-0.10083157194166766

>  <r_i_glide_evdw>  (1) 
-48.057352700460257

>  <r_i_glide_gscore>  (1) 
-7.8299240242157424

>  <r_i_glide_gscore_strain>  (1) 
0

>  <r_i_glide_hbond>  (1) 
-0.59898020251761652

>  <r_i_glide_ligand_efficiency>  (1) 
-0.21690240795111804

>  <r_i_glide_ligand_efficiency_ln>  (1) 
-1.7036008340069

>  <r_i_glide_ligand_efficiency_sa>  (1) 
-0.71619597116465539

>  <r_i_glide_lipo>  (1) 
-3.3099241700646114

>  <r_i_glide_metal>  (1) 
-0

>  <r_i_glide_rewards>  (1) 
-0.91635244228906065

>  <r_lp_Energy>  (1) 
55.540033999999999

>  <r_lp_tautomer_probability>  (1) 
0.99998399999999998

>  <s_epik_Chemistry_Notes>  (1) 
This compound has an imine and may undergo hydrolysis. This compound contains an acetal/aminal-like group ( X-CH(R)-Y where X, Y are N, S, or O) that may be acid/base labile, releasing an aldehyde. This compound has a N-S or N-O group and may undergo hydrolysis at high or low pH.

>  <s_epik_cmdline>  (1) 
J2VwaWtfcHl0aG9uJywgJy1waHQnLCAnMS4wJywgJy1waCcsICc3LjQnLCAnLXRuJywgJzgnLCAnLW1hJywgJzUwMCcsICctaW1hZScsICc8aW5maWxlLm1hZT4nLCAnLW9tYWUnLCAnPG91dGZpbGUubWFlPic=

>  <s_epik_input>  (1) 
W09IXVtDSDJdW0NIXShbQ0gyXVtPSF0pTjFTW0NASF0oW0NASF0oW05IXTEpW0NIMl1bQ0gyXVtOSDJdKVtOSF1bTkhdW0NASF0yQyg9TylOKFtDSDJdYyhjMjMpW2NIXVtjSF1bY0hdW2NIXTMpW0NASF0oW0NIMl1bQ0gyXTQpW0NIMl1DKD1DNDUpW0NIMl1bQ0gyXVtDSDJdW05IXTU=

>  <s_glide_docking_method>  (1) 
confgen

>  <s_i_glide_gridfile>  (1) 
gpcr_5ht2c_6bqh_protein_autoprepared_prepared

>  <s_lp_Force_Field>  (1) 
S-OPLS

>  <s_lp_Variant>  (1) 
DiffSBDD_84-2

>  <s_m_source_file>  (1) 
generated_GPCR_5HT2C_ligand_DiffSBDD_2026-06-23_prepared.sdf

>  <GenAI_Model>  (1) 
DiffSBDD

>  <Protein>  (1) 
GPCR_5HT2C

$$$$
DiffSBDD_63
     RDKit          3D

  0  0  0  0  0  0  0  0  0  0999 V3000
M  V30 BEGIN CTAB
M  V30 COUNTS 83 88 0 0 1
M  V30 BEGIN ATOM
M  V30 1 F 38.043620 27.539150 56.693814 0
M  V30 2 C 38.826350 36.188991 62.365136 0
M  V30 3 C 38.916468 27.732824 55.707983 0 CFG=1
M  V30 4 C 40.849623 28.802219 66.301336 0
M  V30 5 C 37.414745 30.539712 58.528396 0
M  V30 6 C 38.826295 29.768124 60.550119 0 CFG=1
M  V30 7 N 38.679888 28.483601 53.433523 0 CHG=1
M  V30 8 C 42.314748 33.578432 64.997291 0
M  V30 9 C 40.063465 36.363860 64.502679 0
M  V30 10 C 40.497816 33.060748 63.290687 0 CFG=2
M  V30 11 C 41.738218 32.532304 64.056357 0 CFG=2
M  V30 12 C 37.673580 30.623722 57.018355 0
M  V30 13 C 42.070595 34.894883 64.898586 0
M  V30 14 C 39.528540 35.063059 62.017842 0
M  V30 15 N 37.761092 36.459345 61.496454 0
M  V30 16 N 39.520778 29.579874 58.111195 0 CHG=1
M  V30 17 C 39.113111 30.135325 56.808251 0 CFG=1
M  V30 18 C 43.218152 28.172091 65.582735 0
M  V30 19 C 36.586766 35.642707 59.460854 0
M  V30 20 O 40.845146 28.460622 60.474536 0
M  V30 21 O 40.190653 32.210285 62.183209 0
M  V30 22 S 38.871396 34.334262 60.567737 0
M  V30 23 C 38.804632 29.697237 54.260095 0 CFG=2
M  V30 24 C 38.807917 30.377264 59.131057 0 CFG=1
M  V30 25 C 39.642176 30.794355 53.586751 0
M  V30 26 C 40.722021 34.497905 62.733179 0 CFG=1
M  V30 27 C 40.186276 29.320492 61.051853 0
M  V30 28 C 37.645954 35.577078 60.509311 0
M  V30 29 O 41.245122 28.949014 67.651616 0
M  V30 30 C 42.009745 29.089504 65.325106 0 CFG=2
M  V30 31 C 42.426251 30.573193 65.285242 0
M  V30 32 C 39.653261 30.962182 62.493866 0 CFG=2
M  V30 33 O 41.355158 31.362010 64.776702 0
M  V30 34 C 41.195001 35.520417 63.830710 0 CFG=1
M  V30 35 O 40.560199 29.959406 62.161909 0
M  V30 36 C 38.286815 27.394595 54.346288 0
M  V30 37 C 38.402475 30.747809 61.633555 0
M  V30 38 C 39.382731 29.199365 55.600963 0 CFG=2
M  V30 39 C 39.113840 37.075650 63.521959 0
M  V30 40 H 39.763806 27.077155 55.915989 0
M  V30 41 H 40.494840 27.781088 66.160566 0
M  V30 42 H 40.000398 29.456279 66.099424 0
M  V30 43 H 36.798867 29.665082 58.743682 0
M  V30 44 H 36.885762 31.415058 58.908320 0
M  V30 45 H 38.187085 28.888499 60.557562 0
M  V30 46 H 39.581703 28.263169 53.035845 0
M  V30 47 H 42.957006 33.216930 65.786207 0
M  V30 48 H 39.498848 35.737768 65.167498 0
M  V30 49 H 40.445024 37.084405 65.214644 0
M  V30 50 H 39.645332 33.079294 63.965138 0
M  V30 51 H 42.507223 32.278982 63.325606 0
M  V30 52 H 36.924454 30.046164 56.476252 0
M  V30 53 H 37.621938 31.657164 56.672014 0
M  V30 54 H 42.519594 35.574230 65.609350 0
M  V30 55 H 40.521543 29.592888 58.250696 0
M  V30 56 H 39.719445 31.030668 56.661980 0
M  V30 57 H 43.681731 28.383226 66.547230 0
M  V30 58 H 42.924354 27.121713 65.576435 0
M  V30 59 H 43.981259 28.300882 64.814229 0
M  V30 60 H 36.395939 36.678357 59.177591 0
M  V30 61 H 36.896630 35.092735 58.572265 0
M  V30 62 H 35.660198 35.205813 59.833361 0
M  V30 63 H 37.789240 30.070954 54.396352 0
M  V30 64 H 39.245117 31.374496 59.169020 0
M  V30 65 H 39.637522 31.706425 54.185689 0
M  V30 66 H 40.680705 30.496583 53.457732 0
M  V30 67 H 39.249510 31.054917 52.604692 0
M  V30 68 H 41.532188 34.418611 62.007253 0
M  V30 69 H 40.570664 28.568546 68.202932 0
M  V30 70 H 41.645464 28.839218 64.327909 0
M  V30 71 H 42.712303 30.926841 66.276641 0
M  V30 72 H 43.304914 30.668963 64.644659 0
M  V30 73 H 39.399482 30.889128 63.552269 0
M  V30 74 H 41.829792 36.245586 63.318187 0
M  V30 75 H 38.597513 26.420718 53.966434 0
M  V30 76 H 37.198326 27.388812 54.425510 0
M  V30 77 H 37.645139 30.296631 62.265348 0
M  V30 78 H 38.008948 31.694074 61.263547 0
M  V30 79 H 40.465778 29.149951 55.483969 0
M  V30 80 H 38.196250 37.369054 64.032165 0
M  V30 81 H 39.604040 37.982999 63.167099 0
M  V30 82 H 39.183916 28.628061 58.170731 0
M  V30 83 H 38.006606 28.599699 52.688571 0
M  V30 END ATOM
M  V30 BEGIN BOND
M  V30 1 1 3 1
M  V30 2 1 11 8
M  V30 3 1 11 10
M  V30 4 1 12 5
M  V30 5 2 13 8
M  V30 6 2 14 2
M  V30 7 1 15 2
M  V30 8 1 17 12
M  V30 9 1 17 16
M  V30 10 1 21 10
M  V30 11 1 22 14
M  V30 12 1 23 7
M  V30 13 1 24 5
M  V30 14 1 24 6
M  V30 15 1 24 16
M  V30 16 1 25 23
M  V30 17 1 26 10
M  V30 18 1 26 14
M  V30 19 1 27 6
M  V30 20 2 27 20
M  V30 21 2 28 15
M  V30 22 1 28 19
M  V30 23 1 28 22
M  V30 24 1 29 4
M  V30 25 1 30 4
M  V30 26 1 30 18
M  V30 27 1 31 30
M  V30 28 1 32 21
M  V30 29 1 33 11
M  V30 30 1 33 31
M  V30 31 1 34 9
M  V30 32 1 34 13
M  V30 33 1 34 26
M  V30 34 1 35 27
M  V30 35 1 35 32
M  V30 36 1 36 3
M  V30 37 1 36 7
M  V30 38 1 37 6
M  V30 39 1 37 32
M  V30 40 1 38 3
M  V30 41 1 38 17
M  V30 42 1 38 23
M  V30 43 1 39 2
M  V30 44 1 39 9
M  V30 45 1 3 40 CFG=1
M  V30 46 1 41 4
M  V30 47 1 42 4
M  V30 48 1 43 5
M  V30 49 1 44 5
M  V30 50 1 6 45 CFG=3
M  V30 51 1 46 7
M  V30 52 1 47 8
M  V30 53 1 48 9
M  V30 54 1 49 9
M  V30 55 1 10 50 CFG=1
M  V30 56 1 11 51 CFG=3
M  V30 57 1 52 12
M  V30 58 1 53 12
M  V30 59 1 54 13
M  V30 60 1 55 16
M  V30 61 1 17 56 CFG=3
M  V30 62 1 57 18
M  V30 63 1 58 18
M  V30 64 1 59 18
M  V30 65 1 60 19
M  V30 66 1 61 19
M  V30 67 1 62 19
M  V30 68 1 23 63 CFG=1
M  V30 69 1 24 64 CFG=1
M  V30 70 1 65 25
M  V30 71 1 66 25
M  V30 72 1 67 25
M  V30 73 1 26 68 CFG=3
M  V30 74 1 69 29
M  V30 75 1 30 70 CFG=3
M  V30 76 1 71 31
M  V30 77 1 72 31
M  V30 78 1 32 73 CFG=1
M  V30 79 1 34 74 CFG=3
M  V30 80 1 75 36
M  V30 81 1 76 36
M  V30 82 1 77 37
M  V30 83 1 78 37
M  V30 84 1 38 79 CFG=3
M  V30 85 1 80 39
M  V30 86 1 81 39
M  V30 87 1 82 16
M  V30 88 1 83 7
M  V30 END BOND
M  V30 END CTAB
M  END
>  <i_epik_Tot_Q>  (1) 
2

>  <i_epik_Tot_abs_Q>  (1) 
2

>  <i_i_glide_confnum>  (1) 
466

>  <i_i_glide_lignum>  (1) 
140

>  <i_i_glide_posenum>  (1) 
112

>  <i_i_glide_rotatable_bonds>  (1) 
9

>  <i_lp_mmshare_version>  (1) 
72125

>  <i_m_source_file_index>  (1) 
64

>  <i_f3d_flags>  (1) 
0

>  <num_sample>  (1) 
100

>  <b_lp_Chiralities_Consistent>  (1) 
1

>  <r_epik_Charging_Adjusted_Penalty>  (1) 
0.080070908620723774

>  <r_epik_Ionization_Penalty>  (1) 
0.041568301575603359

>  <r_epik_Ionization_Penalty_Charging>  (1) 
0.040241786303222601

>  <r_epik_Ionization_Penalty_Neutral>  (1) 
0.0013265152723807572

>  <r_epik_State_Penalty>  (1) 
0.039829122317501166

>  <r_glide_ring_energy>  (1) 
0.99687478685236663

>  <r_i_docking_score>  (1) 
-7.7950449644873938

>  <r_i_glide_ecoul>  (1) 
-4.1344121919377841

>  <r_i_glide_eff_state_penalty>  (1) 
0.039829122317501166

>  <r_i_glide_einternal>  (1) 
7.5260307362642873

>  <r_i_glide_emodel>  (1) 
-63.875746802517241

>  <r_i_glide_emodel_strain>  (1) 
1.4563557011433375

>  <r_i_glide_energy>  (1) 
-49.00292983025858

>  <r_i_glide_erotb>  (1) 
0.43483266289788453

>  <r_i_glide_esite>  (1) 
0

>  <r_i_glide_evdw>  (1) 
-44.868517638320796

>  <r_i_glide_gscore>  (1) 
-7.8348740868048949

>  <r_i_glide_gscore_strain>  (1) 
0

>  <r_i_glide_hbond>  (1) 
-0.37961921826772504

>  <r_i_glide_ligand_efficiency>  (1) 
-0.19987294780736908

>  <r_i_glide_ligand_efficiency_ln>  (1) 
-1.6714789158960959

>  <r_i_glide_ligand_efficiency_sa>  (1) 
-0.67781142775332337

>  <r_i_glide_lipo>  (1) 
-3.7177665081297295

>  <r_i_glide_metal>  (1) 
-0

>  <r_i_glide_rewards>  (1) 
-1.3087333125986169

>  <r_lp_Energy>  (1) 
33.407150000000001

>  <s_epik_Chemistry_Notes>  (1) 
This compound has an ester and may undergo hydrolysis at high or low pH. This compound contains an acetal/aminal-like group ( X-CH(R)-Y where X, Y are N, S, or O) that may be acid/base labile, releasing an aldehyde.

>  <s_epik_cmdline>  (1) 
J2VwaWtfcHl0aG9uJywgJy1waHQnLCAnMS4wJywgJy1waCcsICc3LjQnLCAnLXRuJywgJzgnLCAnLW1hJywgJzUwMCcsICctaW1hZScsICc8aW5maWxlLm1hZT4nLCAnLW9tYWUnLCAnPG91dGZpbGUubWFlPic=

>  <s_epik_input>  (1) 
RltDQEhdMVtDSDJdW05IXVtDQEhdKFtDSDNdKVtDQEhdMVtDQEhdMltDSDJdW0NIMl1bQ0BIXShbTkhdMilbQ0BIXTNDKD1PKU9bQ0BIXShbQ0gyXTMpT1tDQEhdNFtDQEhdKE9bQ0gyXVtDQEBIXShbQ0gzXSlbQ0gyXVtPSF0pW0NIXT1bQ0hdW0NASF0oW0NIMl1bQ0gyXTUpW0NAQEhdNGMoYzU2KXNjKG42KVtDSDNd

>  <s_glide_docking_method>  (1) 
confgen

>  <s_i_glide_gridfile>  (1) 
gpcr_5ht2c_6bqh_protein_autoprepared_prepared

>  <s_lp_Force_Field>  (1) 
S-OPLS

>  <s_lp_Variant>  (1) 
DiffSBDD_63-2

>  <s_m_source_file>  (1) 
generated_GPCR_5HT2C_ligand_DiffSBDD_2026-06-23_prepared.sdf

>  <GenAI_Model>  (1) 
DiffSBDD

>  <Protein>  (1) 
GPCR_5HT2C

$$$$
DiffSBDD_95
     RDKit          3D

  0  0  0  0  0  0  0  0  0  0999 V3000
M  V30 BEGIN CTAB
M  V30 COUNTS 57 59 0 0 1
M  V30 BEGIN ATOM
M  V30 1 O 37.645217 33.764299 58.494558 0
M  V30 2 C 36.959876 36.083809 60.466149 0
M  V30 3 C 36.918511 35.324700 61.767271 0
M  V30 4 C 37.640882 24.605456 55.180707 0
M  V30 5 C 37.475853 29.726636 55.117444 0
M  V30 6 O 38.045135 31.578083 57.062004 0
M  V30 7 O 39.080003 31.674414 60.167765 0 CHG=-1
M  V30 8 C 38.714695 25.762947 57.504770 0
M  V30 9 O 37.245067 31.853050 61.908311 0
M  V30 10 C 40.515873 28.238278 57.285964 0
M  V30 11 C 38.088904 30.282356 57.593797 0 CFG=2
M  V30 12 C 37.655777 34.744780 60.585545 0
M  V30 13 C 39.669438 28.850074 56.187088 0 CFG=2
M  V30 14 C 37.784443 24.711718 57.601877 0
M  V30 15 C 37.507398 28.782554 53.891705 0
M  V30 16 C 38.636380 28.935442 52.865595 0
M  V30 17 C 39.571162 29.901335 52.943109 0
M  V30 18 C 37.130609 33.567193 59.786918 0 CFG=2
M  V30 19 C 38.212574 29.258920 56.419399 0 CFG=2
M  V30 20 C 38.632836 27.922507 51.739029 0
M  V30 21 C 36.838707 30.054737 58.430904 0
M  V30 22 C 36.566261 30.654319 59.613427 0
M  V30 23 C 37.245167 24.137775 56.440967 0
M  V30 24 P 37.649721 31.876931 60.484321 0
M  V30 25 C 38.575067 25.651492 55.077587 0
M  V30 26 C 39.113510 26.247196 56.236651 0
M  V30 27 C 40.093561 27.384983 56.113912 0 CFG=2
M  V30 28 H 37.974049 32.927225 58.168886 0
M  V30 29 H 37.591469 36.968424 60.413063 0
M  V30 30 H 36.050989 36.122507 59.868140 0
M  V30 31 H 35.984257 34.851300 62.061404 0
M  V30 32 H 37.516674 35.737844 62.573486 0
M  V30 33 H 37.227720 24.162320 54.288594 0
M  V30 34 H 36.428211 29.856055 55.389386 0
M  V30 35 H 37.775377 30.723961 54.804277 0
M  V30 36 H 37.123927 31.741057 56.838755 0
M  V30 37 H 39.119766 26.199570 58.403577 0
M  V30 38 H 41.560970 28.537389 57.327111 0
M  V30 39 H 40.038884 28.122052 58.254895 0
M  V30 40 H 38.957866 30.200736 58.241920 0
M  V30 41 H 38.741380 34.767490 60.664534 0
M  V30 42 H 40.229743 29.571194 55.599274 0
M  V30 43 H 37.483909 24.347804 58.568344 0
M  V30 44 H 37.432603 27.754297 54.224811 0
M  V30 45 H 36.596639 28.937734 53.317768 0
M  V30 46 H 40.350250 29.977813 52.199295 0
M  V30 47 H 39.571631 30.623424 53.742332 0
M  V30 48 H 36.042589 33.617033 59.732812 0
M  V30 49 H 37.701859 28.356389 56.751108 0
M  V30 50 H 37.647598 27.888123 51.276713 0
M  V30 51 H 39.363042 28.174977 50.969291 0
M  V30 52 H 38.867531 26.927143 52.108282 0
M  V30 53 H 36.121931 29.355445 58.028783 0
M  V30 54 H 35.645064 30.395668 60.102986 0
M  V30 55 H 36.528966 23.333019 56.517788 0
M  V30 56 H 38.875256 26.005765 54.105299 0
M  V30 57 H 40.845155 27.135000 55.371604 0
M  V30 END ATOM
M  V30 BEGIN BOND
M  V30 1 1 3 2
M  V30 2 1 11 6
M  V30 3 1 12 2
M  V30 4 1 12 3
M  V30 5 1 13 10
M  V30 6 2 14 8
M  V30 7 1 15 5
M  V30 8 1 16 15
M  V30 9 2 17 16
M  V30 10 1 18 1
M  V30 11 1 18 12
M  V30 12 1 19 5
M  V30 13 1 19 11
M  V30 14 1 19 13
M  V30 15 1 20 16
M  V30 16 1 21 11
M  V30 17 2 22 21
M  V30 18 2 23 4
M  V30 19 1 23 14
M  V30 20 1 24 7
M  V30 21 2 24 9
M  V30 22 1 24 18
M  V30 23 1 24 22
M  V30 24 1 25 4
M  V30 25 1 26 8
M  V30 26 2 26 25
M  V30 27 1 27 10
M  V30 28 1 27 13
M  V30 29 1 27 26
M  V30 30 1 28 1
M  V30 31 1 29 2
M  V30 32 1 30 2
M  V30 33 1 31 3
M  V30 34 1 32 3
M  V30 35 1 33 4
M  V30 36 1 34 5
M  V30 37 1 35 5
M  V30 38 1 36 6
M  V30 39 1 37 8
M  V30 40 1 38 10
M  V30 41 1 39 10
M  V30 42 1 11 40 CFG=1
M  V30 43 1 41 12
M  V30 44 1 13 42 CFG=3
M  V30 45 1 43 14
M  V30 46 1 44 15
M  V30 47 1 45 15
M  V30 48 1 46 17
M  V30 49 1 47 17
M  V30 50 1 18 48 CFG=3
M  V30 51 1 19 49 CFG=1
M  V30 52 1 50 20
M  V30 53 1 51 20
M  V30 54 1 52 20
M  V30 55 1 53 21
M  V30 56 1 54 22
M  V30 57 1 55 23
M  V30 58 1 56 25
M  V30 59 1 27 57 CFG=3
M  V30 END BOND
M  V30 END CTAB
M  END
>  <i_epik_Tot_Q>  (1) 
-1

>  <i_epik_Tot_abs_Q>  (1) 
1

>  <i_i_glide_confnum>  (1) 
243

>  <i_i_glide_lignum>  (1) 
227

>  <i_i_glide_posenum>  (1) 
357

>  <i_i_glide_rotatable_bonds>  (1) 
12

>  <i_lp_mmshare_version>  (1) 
72125

>  <i_m_source_file_index>  (1) 
96

>  <i_f3d_flags>  (1) 
0

>  <num_sample>  (1) 
100

>  <b_lp_Chiralities_Consistent>  (1) 
1

>  <r_epik_Charging_Adjusted_Penalty>  (1) 
1.080755722854454e-05

>  <r_epik_Ionization_Penalty>  (1) 
1.1075885964492435e-05

>  <r_epik_Ionization_Penalty_Charging>  (1) 
1.080755722854454e-05

>  <r_epik_Ionization_Penalty_Neutral>  (1) 
2.6832873594789518e-07

>  <r_epik_State_Penalty>  (1) 
-0

>  <r_glide_ring_energy>  (1) 
0

>  <r_i_docking_score>  (1) 
-7.7896545048967818

>  <r_i_glide_ecoul>  (1) 
-7.095453600612343

>  <r_i_glide_eff_state_penalty>  (1) 
-0

>  <r_i_glide_einternal>  (1) 
13.990659398724613

>  <r_i_glide_emodel>  (1) 
-62.317135258900578

>  <r_i_glide_emodel_strain>  (1) 
2.1400193053871668

>  <r_i_glide_energy>  (1) 
-46.287566200620127

>  <r_i_glide_erotb>  (1) 
1.1567431559220434

>  <r_i_glide_esite>  (1) 
0

>  <r_i_glide_evdw>  (1) 
-39.192112600007782

>  <r_i_glide_gscore>  (1) 
-7.7896545048967818

>  <r_i_glide_gscore_strain>  (1) 
0

>  <r_i_glide_hbond>  (1) 
-0.32000000000000001

>  <r_i_glide_ligand_efficiency>  (1) 
-0.28850572240358452

>  <r_i_glide_ligand_efficiency_ln>  (1) 
-1.8133031462486946

>  <r_i_glide_ligand_efficiency_sa>  (1) 
-0.86551716721075367

>  <r_i_glide_lipo>  (1) 
-4.2403367802193674

>  <r_i_glide_metal>  (1) 
-0

>  <r_i_glide_rewards>  (1) 
-1.3621372105072176

>  <r_lp_Energy>  (1) 
33.993966

>  <r_lp_tautomer_probability>  (1) 
1

>  <s_epik_cmdline>  (1) 
J2VwaWtfcHl0aG9uJywgJy1waHQnLCAnMS4wJywgJy1waCcsICc3LjQnLCAnLXRuJywgJzgnLCAnLW1hJywgJzUwMCcsICctaW1hZScsICc8aW5maWxlLm1hZT4nLCAnLW9tYWUnLCAnPG91dGZpbGUubWFlPic=

>  <s_epik_input>  (1) 
W0NIMl0xW0NIMl1bQ0hdMVtDQEBIXShbT0hdKVtQQF0oPU8pKFtPSF0pL1tDSF09W0NIXVxbQ0BIXShbT0hdKVtDQEBIXShbQ0gyXVtDSDJdQyg9W0NIMl0pW0NIM10pW0NASF0yW0NIMl1bQ0BIXTJjM1tjSF1bY0hdW2NIXVtjSF1bY0hdMw==

>  <s_glide_docking_method>  (1) 
confgen

>  <s_i_glide_gridfile>  (1) 
gpcr_5ht2c_6bqh_protein_autoprepared_prepared

>  <s_lp_Force_Field>  (1) 
S-OPLS

>  <s_lp_Variant>  (1) 
DiffSBDD_95-2

>  <s_m_source_file>  (1) 
generated_GPCR_5HT2C_ligand_DiffSBDD_2026-06-23_prepared.sdf

>  <GenAI_Model>  (1) 
DiffSBDD

>  <Protein>  (1) 
GPCR_5HT2C

$$$$
DiffSBDD_75
     RDKit          3D

  0  0  0  0  0  0  0  0  0  0999 V3000
M  V30 BEGIN CTAB
M  V30 COUNTS 77 78 0 0 1
M  V30 BEGIN ATOM
M  V30 1 C 38.839512 30.348458 59.071573 0
M  V30 2 C 38.047827 32.539062 56.196957 0
M  V30 3 O 37.182455 35.446651 59.367816 0
M  V30 4 C 40.113987 28.112828 60.466175 0
M  V30 5 C 37.243779 36.521508 61.933598 0 CFG=1
M  V30 6 C 38.821727 28.939556 53.607524 0
M  V30 7 C 38.272838 35.005279 60.156121 0 CFG=2
M  V30 8 C 39.497585 30.154851 53.370470 0
M  V30 9 O 37.791398 38.656388 60.967760 0
M  V30 10 C 39.342793 35.200846 62.526817 0 CFG=2
M  V30 11 O 40.445095 29.737823 49.834874 0
M  V30 12 S 37.225275 32.506294 59.367600 0
M  V30 13 C 40.489162 29.002727 61.668736 0
M  V30 14 C 39.918871 29.475255 51.065667 0
M  V30 15 C 38.646947 33.602866 59.639421 0
M  V30 16 C 38.234397 28.655303 54.977534 0
M  V30 17 C 38.696518 27.991107 52.570450 0
M  V30 18 O 41.409956 36.395298 62.967797 0
M  V30 19 C 40.112658 33.868410 62.567755 0
M  V30 20 C 38.022845 35.193704 61.676386 0 CFG=1
M  V30 21 O 41.645126 28.537996 62.344067 0
M  V30 22 O 38.789829 31.851203 57.195902 0
M  V30 23 O 37.929311 27.728653 57.860698 0
M  V30 24 C 41.566641 27.647121 58.488848 0
M  V30 25 N 40.678592 28.617487 59.179794 0 CFG=1 CHG=1
M  V30 26 C 38.880264 28.370462 57.425732 0
M  V30 27 C 40.045101 30.421262 52.100676 0
M  V30 28 C 39.314008 28.192315 55.970189 0
M  V30 29 C 39.715008 29.344545 58.287374 0 CFG=1
M  V30 30 C 39.245934 28.259492 51.300654 0
M  V30 31 C 39.496585 37.737288 62.392489 0
M  V30 32 C 37.983703 31.298986 58.232029 0 CFG=1
M  V30 33 C 36.529852 36.612220 63.288921 0
M  V30 34 C 40.245811 36.410973 62.175199 0 CFG=2
M  V30 35 C 38.142884 37.729534 61.692307 0
M  V30 36 H 38.152813 29.833687 59.742591 0
M  V30 37 H 39.488876 30.938633 59.711060 0
M  V30 38 H 38.726755 32.930002 55.438912 0
M  V30 39 H 37.340988 31.876405 55.696742 0
M  V30 40 H 37.502193 33.386028 56.614210 0
M  V30 41 H 37.073370 36.379020 59.476315 0
M  V30 42 H 39.031880 28.005659 60.398023 0
M  V30 43 H 40.445137 27.107897 60.674489 0
M  V30 44 H 39.091766 35.657756 59.899281 0
M  V30 45 H 39.596374 30.882805 54.162985 0
M  V30 46 H 39.329150 37.884215 63.459551 0
M  V30 47 H 39.048440 35.369639 63.556435 0
M  V30 48 H 40.828554 30.600282 49.774764 0
M  V30 49 H 40.639529 30.041799 61.380687 0
M  V30 50 H 39.674062 28.997761 62.394442 0
M  V30 51 H 39.376715 33.095133 60.254466 0
M  V30 52 H 39.134493 33.737642 58.675890 0
M  V30 53 H 37.740097 29.559166 55.336269 0
M  V30 54 H 37.454653 27.896974 54.894729 0
M  V30 55 H 38.180025 27.058571 52.747876 0
M  V30 56 H 41.345934 37.037397 63.668324 0
M  V30 57 H 40.772909 33.756291 61.708640 0
M  V30 58 H 40.749546 33.820337 63.451466 0
M  V30 59 H 39.436390 33.015088 62.618193 0
M  V30 60 H 37.387323 34.365636 61.985901 0
M  V30 61 H 42.269699 28.137854 61.747809 0
M  V30 62 H 41.028351 26.749782 58.179694 0
M  V30 63 H 42.022062 28.091916 57.602569 0
M  V30 64 H 42.380143 27.337792 59.145743 0
M  V30 65 H 40.560380 31.352254 51.921868 0
M  V30 66 H 39.575946 27.150248 55.786703 0
M  V30 67 H 40.222018 28.773628 55.813652 0
M  V30 68 H 40.334864 29.927316 57.607889 0
M  V30 69 H 39.149145 27.533679 50.506481 0
M  V30 70 H 40.045123 38.598226 62.022860 0
M  V30 71 H 36.444813 36.615147 61.207623 0
M  V30 72 H 37.189572 30.709287 57.775286 0
M  V30 73 H 35.989742 37.555262 63.383697 0
M  V30 74 H 35.791793 35.815516 63.367520 0
M  V30 75 H 37.211458 36.537783 64.135046 0
M  V30 76 H 40.612736 36.349309 61.152392 0
M  V30 77 H 41.321125 29.338819 59.471428 0
M  V30 END ATOM
M  V30 BEGIN BOND
M  V30 1 1 7 3
M  V30 2 1 8 6
M  V30 3 1 13 4
M  V30 4 1 14 11
M  V30 5 1 15 7
M  V30 6 1 15 12
M  V30 7 1 16 6
M  V30 8 2 17 6
M  V30 9 1 19 10
M  V30 10 1 20 5
M  V30 11 1 20 7
M  V30 12 1 20 10
M  V30 13 1 21 13
M  V30 14 1 22 2
M  V30 15 1 25 4
M  V30 16 1 25 24
M  V30 17 2 26 23
M  V30 18 2 27 8
M  V30 19 1 27 14
M  V30 20 1 28 16
M  V30 21 1 28 26
M  V30 22 1 29 1
M  V30 23 1 29 25
M  V30 24 1 29 26
M  V30 25 2 30 14
M  V30 26 1 30 17
M  V30 27 1 32 1
M  V30 28 1 32 12
M  V30 29 1 32 22
M  V30 30 1 33 5
M  V30 31 1 34 10
M  V30 32 1 34 18
M  V30 33 1 34 31
M  V30 34 1 35 5
M  V30 35 2 35 9
M  V30 36 1 35 31
M  V30 37 1 36 1
M  V30 38 1 37 1
M  V30 39 1 38 2
M  V30 40 1 39 2
M  V30 41 1 40 2
M  V30 42 1 41 3
M  V30 43 1 42 4
M  V30 44 1 43 4
M  V30 45 1 7 44 CFG=3
M  V30 46 1 45 8
M  V30 47 1 46 31
M  V30 48 1 10 47 CFG=1
M  V30 49 1 48 11
M  V30 50 1 49 13
M  V30 51 1 50 13
M  V30 52 1 51 15
M  V30 53 1 52 15
M  V30 54 1 53 16
M  V30 55 1 54 16
M  V30 56 1 55 17
M  V30 57 1 56 18
M  V30 58 1 57 19
M  V30 59 1 58 19
M  V30 60 1 59 19
M  V30 61 1 20 60 CFG=1
M  V30 62 1 61 21
M  V30 63 1 62 24
M  V30 64 1 63 24
M  V30 65 1 64 24
M  V30 66 1 65 27
M  V30 67 1 66 28
M  V30 68 1 67 28
M  V30 69 1 29 68 CFG=3
M  V30 70 1 69 30
M  V30 71 1 70 31
M  V30 72 1 5 71 CFG=3
M  V30 73 1 32 72 CFG=3
M  V30 74 1 73 33
M  V30 75 1 74 33
M  V30 76 1 75 33
M  V30 77 1 34 76 CFG=3
M  V30 78 1 25 77 CFG=1
M  V30 END BOND
M  V30 END CTAB
M  END
>  <i_epik_Tot_Q>  (1) 
1

>  <i_epik_Tot_abs_Q>  (1) 
1

>  <i_i_glide_confnum>  (1) 
6979

>  <i_i_glide_lignum>  (1) 
166

>  <i_i_glide_posenum>  (1) 
276

>  <i_i_glide_rotatable_bonds>  (1) 
18

>  <i_lp_mmshare_version>  (1) 
72125

>  <i_m_source_file_index>  (1) 
76

>  <i_f3d_flags>  (1) 
0

>  <num_sample>  (1) 
100

>  <b_lp_Chiralities_Consistent>  (1) 
1

>  <r_epik_Charging_Adjusted_Penalty>  (1) 
0.52789471212939676

>  <r_epik_Ionization_Penalty>  (1) 
0.26592108790513191

>  <r_epik_Ionization_Penalty_Charging>  (1) 
0.26394735606469838

>  <r_epik_Ionization_Penalty_Neutral>  (1) 
0.0019737318404335234

>  <r_epik_State_Penalty>  (1) 
0.26394735606469838

>  <r_glide_ring_energy>  (1) 
0

>  <r_i_docking_score>  (1) 
-7.7896043310418301

>  <r_i_glide_ecoul>  (1) 
-7.4973930994587521

>  <r_i_glide_eff_state_penalty>  (1) 
0.26394735606469838

>  <r_i_glide_einternal>  (1) 
16.354889740238214

>  <r_i_glide_emodel>  (1) 
-68.141739512853832

>  <r_i_glide_emodel_strain>  (1) 
3.4276940174597428

>  <r_i_glide_energy>  (1) 
-51.902004155163581

>  <r_i_glide_erotb>  (1) 
1.0139394581015995

>  <r_i_glide_esite>  (1) 
0

>  <r_i_glide_evdw>  (1) 
-44.404611055704827

>  <r_i_glide_gscore>  (1) 
-8.0535516871065287

>  <r_i_glide_gscore_strain>  (1) 
0

>  <r_i_glide_hbond>  (1) 
-0.75166746938259177

>  <r_i_glide_ligand_efficiency>  (1) 
-0.22256012374405229

>  <r_i_glide_ligand_efficiency_ln>  (1) 
-1.70999103161723

>  <r_i_glide_ligand_efficiency_sa>  (1) 
-0.72800892277057316

>  <r_i_glide_lipo>  (1) 
-4.0892805600808231

>  <r_i_glide_metal>  (1) 
-0

>  <r_i_glide_rewards>  (1) 
-0.88170359804066167

>  <r_lp_Energy>  (1) 
31.761440999999998

>  <r_lp_tautomer_probability>  (1) 
0.99989998499911525

>  <s_epik_Chemistry_Notes>  (1) 
This compound contains an acetal/aminal-like group ( X-CH(R)-Y where X, Y are N, S, or O) that may be acid/base labile, releasing an aldehyde.

>  <s_epik_cmdline>  (1) 
J2VwaWtfcHl0aG9uJywgJy1waHQnLCAnMS4wJywgJy1waCcsICc3LjQnLCAnLXRuJywgJzgnLCAnLW1hJywgJzUwMCcsICctaW1hZScsICc8aW5maWxlLm1hZT4nLCAnLW9tYWUnLCAnPG91dGZpbGUubWFlPic=

>  <s_epik_input>  (1) 
W2NIXTFbY0hdYyhbT0hdKVtjSF1bY0hdYzFbQ0gyXVtDSDJdQyg9TylbQ0BIXShOKFtDSDNdKVtDSDJdW0NIMl1bT0hdKVtDSDJdW0NASF0oT1tDSDNdKVNbQ0gyXVtDQEBIXShbT0hdKVtDQEhdMltDQEBIXShbQ0gzXSlbQ0BIXShbT0hdKVtDSDJdQyhbT0hdKT1DMltDSDNd

>  <s_glide_docking_method>  (1) 
confgen

>  <s_i_glide_gridfile>  (1) 
gpcr_5ht2c_6bqh_protein_autoprepared_prepared

>  <s_lp_Force_Field>  (1) 
S-OPLS

>  <s_lp_Variant>  (1) 
DiffSBDD_75-3

>  <s_m_source_file>  (1) 
generated_GPCR_5HT2C_ligand_DiffSBDD_2026-06-23_prepared.sdf

>  <GenAI_Model>  (1) 
DiffSBDD

>  <Protein>  (1) 
GPCR_5HT2C

$$$$
DiffSBDD_84
     RDKit          3D

  0  0  0  0  0  0  0  0  0  0999 V3000
M  V30 BEGIN CTAB
M  V30 COUNTS 77 81 0 0 1
M  V30 BEGIN ATOM
M  V30 1 C 38.391955 31.639856 54.795089 0
M  V30 2 C 41.765762 33.092011 62.907461 0
M  V30 3 C 39.706193 30.458406 61.034795 0
M  V30 4 C 37.972231 24.595203 56.009072 0
M  V30 5 S 38.043383 27.347985 57.389427 0
M  V30 6 C 42.124778 34.082791 67.029576 0
M  V30 7 C 41.243532 32.566594 65.385071 0
M  V30 8 C 35.148212 32.184473 60.167739 0
M  V30 9 O 38.844812 24.138152 57.017186 0
M  V30 10 C 39.114650 32.742482 61.774961 0
M  V30 11 C 40.717297 31.210746 64.953951 0
M  V30 12 C 41.278479 33.635772 64.275274 0 CFG=1
M  V30 13 C 37.429281 31.363798 60.496605 0
M  V30 14 N 38.045153 32.408835 56.003540 0 CHG=1
M  V30 15 C 38.612737 25.748145 55.199227 0
M  V30 16 C 39.369803 30.472741 55.057558 0
M  V30 17 N 41.607974 32.794302 66.587470 0
M  V30 18 C 36.119530 31.185207 59.995625 0
M  V30 19 N 39.255541 29.578441 57.966576 0
M  V30 20 N 40.001637 31.569259 61.761631 0
M  V30 21 C 41.734693 35.261951 66.122907 0
M  V30 22 C 37.732446 32.544331 61.202472 0
M  V30 23 N 39.034015 26.840659 56.092136 0
M  V30 24 C 37.612145 26.240877 54.125304 0
M  V30 25 C 41.287058 31.673867 62.501779 0 CFG=2
M  V30 26 O 40.455120 29.479873 61.017117 0
M  V30 27 C 36.756287 33.545952 61.367753 0
M  V30 28 O 38.265102 26.937904 53.076910 0
M  V30 29 C 42.065446 34.894621 64.680929 0
M  V30 30 C 38.262102 29.094778 57.013994 0 CFG=1
M  V30 31 C 41.414321 30.696790 63.692799 0
M  V30 32 N 38.842608 30.690034 58.724169 0
M  V30 33 N 39.556347 27.965516 55.319075 0 CHG=1
M  V30 34 C 35.467593 33.364650 60.850070 0
M  V30 35 C 38.473626 30.391273 60.105833 0 CFG=1
M  V30 36 C 38.712460 29.159261 55.547093 0 CFG=2
M  V30 37 H 38.849275 32.337214 54.095682 0
M  V30 38 H 37.478339 31.290327 54.313058 0
M  V30 39 H 42.845214 33.022513 62.967863 0
M  V30 40 H 41.595516 33.821005 62.115805 0
M  V30 41 H 37.751464 23.754324 55.350143 0
M  V30 42 H 37.022203 24.887606 56.458900 0
M  V30 43 H 41.754101 34.276503 68.036087 0
M  V30 44 H 43.210774 34.019624 67.114976 0
M  V30 45 H 34.154932 32.045265 59.767235 0
M  V30 46 H 39.068871 24.868580 57.574443 0
M  V30 47 H 38.955783 33.041872 62.806570 0
M  V30 48 H 39.577326 33.573951 61.243769 0
M  V30 49 H 39.645156 31.281285 64.784022 0
M  V30 50 H 37.515209 33.226563 55.723341 0
M  V30 51 H 37.400290 31.878048 56.578089 0
M  V30 52 H 39.499303 25.350911 54.700949 0
M  V30 53 H 40.179618 30.791178 55.712530 0
M  V30 54 H 39.848782 30.256418 54.101105 0
M  V30 55 H 35.867662 30.283483 59.456289 0
M  V30 56 H 40.150135 29.773132 57.522923 0
M  V30 57 H 40.670268 35.479239 66.220755 0
M  V30 58 H 42.268232 36.166292 66.417171 0
M  V30 59 H 37.095811 25.387775 53.682010 0
M  V30 60 H 36.845144 26.873165 54.565995 0
M  V30 61 H 42.030806 31.358898 61.770337 0
M  V30 62 H 36.999297 34.455611 61.895270 0
M  V30 63 H 37.703374 26.907651 52.310205 0
M  V30 64 H 41.836396 35.726012 64.012741 0
M  V30 65 H 43.137170 34.712788 64.599094 0
M  V30 66 H 37.312188 29.613657 57.162674 0
M  V30 67 H 41.037335 29.702846 63.453948 0
M  V30 68 H 42.473272 30.555816 63.918409 0
M  V30 69 H 38.068878 31.167562 58.269123 0
M  V30 70 H 40.510137 28.102477 55.623695 0
M  V30 71 H 34.722735 34.132998 60.978056 0
M  V30 72 H 38.057915 29.382824 60.165965 0
M  V30 73 H 37.821385 29.001081 54.938788 0
M  V30 74 H 39.504773 27.680813 54.343951 0
M  V30 75 H 40.253438 33.968427 64.163862 0
M  V30 76 H 40.854316 30.492869 65.764854 0
M  V30 77 H 38.859983 32.692023 56.527889 0
M  V30 END ATOM
M  V30 BEGIN BOND
M  V30 1 1 9 4
M  V30 2 1 11 7
M  V30 3 1 12 2
M  V30 4 1 12 7
M  V30 5 1 14 1
M  V30 6 1 15 4
M  V30 7 1 16 1
M  V30 8 1 17 6
M  V30 9 2 17 7
M  V30 10 1 18 8
M  V30 11 2 18 13
M  V30 12 1 20 3
M  V30 13 1 20 10
M  V30 14 1 21 6
M  V30 15 1 22 10
M  V30 16 1 22 13
M  V30 17 1 23 5
M  V30 18 1 23 15
M  V30 19 1 24 15
M  V30 20 1 25 2
M  V30 21 1 25 20
M  V30 22 2 26 3
M  V30 23 2 27 22
M  V30 24 1 28 24
M  V30 25 1 29 12
M  V30 26 1 29 21
M  V30 27 1 30 5
M  V30 28 1 30 19
M  V30 29 1 31 11
M  V30 30 1 31 25
M  V30 31 1 32 19
M  V30 32 1 33 23
M  V30 33 2 34 8
M  V30 34 1 34 27
M  V30 35 1 35 3
M  V30 36 1 35 13
M  V30 37 1 35 32
M  V30 38 1 36 16
M  V30 39 1 36 30
M  V30 40 1 36 33
M  V30 41 1 37 1
M  V30 42 1 38 1
M  V30 43 1 39 2
M  V30 44 1 40 2
M  V30 45 1 41 4
M  V30 46 1 42 4
M  V30 47 1 43 6
M  V30 48 1 44 6
M  V30 49 1 45 8
M  V30 50 1 46 9
M  V30 51 1 47 10
M  V30 52 1 48 10
M  V30 53 1 49 11
M  V30 54 1 50 14
M  V30 55 1 51 14
M  V30 56 1 52 15
M  V30 57 1 53 16
M  V30 58 1 54 16
M  V30 59 1 55 18
M  V30 60 1 56 19
M  V30 61 1 57 21
M  V30 62 1 58 21
M  V30 63 1 59 24
M  V30 64 1 60 24
M  V30 65 1 25 61 CFG=3
M  V30 66 1 62 27
M  V30 67 1 63 28
M  V30 68 1 64 29
M  V30 69 1 65 29
M  V30 70 1 30 66 CFG=3
M  V30 71 1 67 31
M  V30 72 1 68 31
M  V30 73 1 69 32
M  V30 74 1 70 33
M  V30 75 1 71 34
M  V30 76 1 35 72 CFG=3
M  V30 77 1 36 73 CFG=3
M  V30 78 1 74 33
M  V30 79 1 12 75 CFG=3
M  V30 80 1 76 11
M  V30 81 1 77 14
M  V30 END BOND
M  V30 END CTAB
M  END
>  <i_epik_Tot_Q>  (1) 
2

>  <i_epik_Tot_abs_Q>  (1) 
2

>  <i_i_glide_confnum>  (1) 
918

>  <i_i_glide_lignum>  (1) 
199

>  <i_i_glide_posenum>  (1) 
358

>  <i_i_glide_rotatable_bonds>  (1) 
11

>  <i_lp_mmshare_version>  (1) 
72125

>  <i_m_source_file_index>  (1) 
85

>  <i_f3d_flags>  (1) 
0

>  <num_sample>  (1) 
100

>  <b_lp_Chiralities_Consistent>  (1) 
1

>  <r_epik_Charging_Adjusted_Penalty>  (1) 
0.034284474231679775

>  <r_epik_Ionization_Penalty>  (1) 
0.42650113434003467

>  <r_epik_Ionization_Penalty_Charging>  (1) 
0.012847136256187231

>  <r_epik_Ionization_Penalty_Neutral>  (1) 
0.41365399808384745

>  <r_epik_State_Penalty>  (1) 
0.021437337975492542

>  <r_glide_ring_energy>  (1) 
0.20284343658850779

>  <r_i_docking_score>  (1) 
-7.778505531328217

>  <r_i_glide_ecoul>  (1) 
-6.4284028644985636

>  <r_i_glide_eff_state_penalty>  (1) 
0.021437337975492542

>  <r_i_glide_einternal>  (1) 
24.938250469223942

>  <r_i_glide_emodel>  (1) 
-67.133011282081654

>  <r_i_glide_emodel_strain>  (1) 
2.9081661578402418

>  <r_i_glide_energy>  (1) 
-56.130194492203692

>  <r_i_glide_erotb>  (1) 
0.60855438394346106

>  <r_i_glide_esite>  (1) 
-0.12218872990752748

>  <r_i_glide_evdw>  (1) 
-49.701791627705127

>  <r_i_glide_gscore>  (1) 
-7.7999428693037096

>  <r_i_glide_gscore_strain>  (1) 
0

>  <r_i_glide_hbond>  (1) 
-0.36879524419084542

>  <r_i_glide_ligand_efficiency>  (1) 
-0.21606959809245047

>  <r_i_glide_ligand_efficiency_ln>  (1) 
-1.6970597560022935

>  <r_i_glide_ligand_efficiency_sa>  (1) 
-0.71344609359917277

>  <r_i_glide_lipo>  (1) 
-3.3842686451145889

>  <r_i_glide_metal>  (1) 
-0

>  <r_i_glide_rewards>  (1) 
-1.0838946229741673

>  <r_lp_Energy>  (1) 
55.540033999999999

>  <r_lp_tautomer_probability>  (1) 
0.99998399999999998

>  <s_epik_Chemistry_Notes>  (1) 
This compound has an imine and may undergo hydrolysis. This compound contains an acetal/aminal-like group ( X-CH(R)-Y where X, Y are N, S, or O) that may be acid/base labile, releasing an aldehyde. This compound has a N-S or N-O group and may undergo hydrolysis at high or low pH.

>  <s_epik_cmdline>  (1) 
J2VwaWtfcHl0aG9uJywgJy1waHQnLCAnMS4wJywgJy1waCcsICc3LjQnLCAnLXRuJywgJzgnLCAnLW1hJywgJzUwMCcsICctaW1hZScsICc8aW5maWxlLm1hZT4nLCAnLW9tYWUnLCAnPG91dGZpbGUubWFlPic=

>  <s_epik_input>  (1) 
W09IXVtDSDJdW0NIXShbQ0gyXVtPSF0pTjFTW0NASF0oW0NASF0oW05IXTEpW0NIMl1bQ0gyXVtOSDJdKVtOSF1bTkhdW0NASF0yQyg9TylOKFtDSDJdYyhjMjMpW2NIXVtjSF1bY0hdW2NIXTMpW0NASF0oW0NIMl1bQ0gyXTQpW0NIMl1DKD1DNDUpW0NIMl1bQ0gyXVtDSDJdW05IXTU=

>  <s_glide_docking_method>  (1) 
confgen

>  <s_i_glide_gridfile>  (1) 
gpcr_5ht2c_6bqh_protein_autoprepared_prepared

>  <s_lp_Force_Field>  (1) 
S-OPLS

>  <s_lp_Variant>  (1) 
DiffSBDD_84-2

>  <s_m_source_file>  (1) 
generated_GPCR_5HT2C_ligand_DiffSBDD_2026-06-23_prepared.sdf

>  <GenAI_Model>  (1) 
DiffSBDD

>  <Protein>  (1) 
GPCR_5HT2C

$$$$
DiffSBDD_97
     RDKit          3D

  0  0  0  0  0  0  0  0  0  0999 V3000
M  V30 BEGIN CTAB
M  V30 COUNTS 54 56 0 0 1
M  V30 BEGIN ATOM
M  V30 1 C 37.645155 26.684429 53.908430 0
M  V30 2 C 38.727774 30.821211 56.713132 0
M  V30 3 N 35.213206 32.292356 59.767755 0 CHG=1
M  V30 4 C 37.599666 25.860940 54.944480 0
M  V30 5 C 38.441335 26.314564 55.906490 0
M  V30 6 S 40.045133 28.452595 56.406547 0
M  V30 7 C 38.277656 33.111998 58.669977 0
M  V30 8 C 36.719662 24.642453 55.080204 0
M  V30 9 C 37.581473 24.542455 57.479213 0
M  V30 10 C 39.185558 33.612592 61.601206 0
M  V30 11 C 38.454802 32.284733 56.315540 0
M  V30 12 C 38.622455 25.672359 57.269624 0
M  V30 13 C 39.018837 27.421669 55.473197 0
M  V30 14 C 38.192674 34.476468 60.802201 0
M  V30 15 S 38.068362 29.583247 54.325532 0
M  V30 16 C 39.341286 29.946484 55.614635 0 CFG=1
M  V30 17 C 34.194059 33.357210 59.757853 0
M  V30 18 N 37.645138 32.991909 57.334172 0 CHG=1
M  V30 19 C 37.350087 33.711226 59.753930 0 CFG=2
M  V30 20 C 38.641628 27.896254 54.041193 0 CFG=2
M  V30 21 C 37.261883 23.753265 56.184359 0
M  V30 22 C 36.468329 32.646266 60.467857 0
M  V30 23 H 37.053782 26.554746 53.014503 0
M  V30 24 H 39.412905 30.802661 57.558216 0
M  V30 25 H 37.804722 30.352126 57.058866 0
M  V30 26 H 35.383642 32.019941 58.801446 0
M  V30 27 H 38.644646 32.151490 59.024964 0
M  V30 28 H 39.161967 33.737701 58.541187 0
M  V30 29 H 35.735787 24.937744 55.407118 0
M  V30 30 H 36.617739 24.105799 54.142457 0
M  V30 31 H 37.933471 23.854209 58.245676 0
M  V30 32 H 36.656111 24.975701 57.860154 0
M  V30 33 H 39.740109 34.226028 62.312183 0
M  V30 34 H 39.918676 33.130618 60.955308 0
M  V30 35 H 38.679741 32.836430 62.175532 0
M  V30 36 H 39.391190 32.818011 56.144420 0
M  V30 37 H 37.896531 32.321392 55.378902 0
M  V30 38 H 38.544008 26.417499 58.061634 0
M  V30 39 H 39.630644 25.258290 57.313939 0
M  V30 40 H 38.743892 35.278254 60.308348 0
M  V30 41 H 37.525067 34.979439 61.502644 0
M  V30 42 H 40.171464 30.468035 55.136529 0
M  V30 43 H 33.245137 32.971156 59.389352 0
M  V30 44 H 34.483122 34.186192 59.111923 0
M  V30 45 H 34.045145 33.737719 60.765970 0
M  V30 46 H 37.460747 33.921096 56.980848 0
M  V30 47 H 36.717688 34.467241 59.287551 0
M  V30 48 H 39.487152 27.832049 53.355809 0
M  V30 49 H 38.167291 23.337769 55.767763 0
M  V30 50 H 36.566578 22.937757 56.383229 0
M  V30 51 H 36.194198 32.991705 61.466445 0
M  V30 52 H 37.038599 31.729878 60.626082 0
M  V30 53 H 34.808336 31.496971 60.240450 0
M  V30 54 H 36.741115 32.509070 57.366215 0
M  V30 END ATOM
M  V30 BEGIN BOND
M  V30 1 2 4 1
M  V30 2 1 5 4
M  V30 3 1 8 4
M  V30 4 1 11 2
M  V30 5 1 12 5
M  V30 6 1 12 9
M  V30 7 2 13 5
M  V30 8 1 13 6
M  V30 9 1 14 10
M  V30 10 1 16 2
M  V30 11 1 16 6
M  V30 12 1 16 15
M  V30 13 1 17 3
M  V30 14 1 18 7
M  V30 15 1 18 11
M  V30 16 1 19 7
M  V30 17 1 19 14
M  V30 18 1 20 1
M  V30 19 1 20 13
M  V30 20 1 20 15
M  V30 21 1 21 8
M  V30 22 1 21 9
M  V30 23 1 22 3
M  V30 24 1 22 19
M  V30 25 1 23 1
M  V30 26 1 24 2
M  V30 27 1 25 2
M  V30 28 1 26 3
M  V30 29 1 27 7
M  V30 30 1 28 7
M  V30 31 1 29 8
M  V30 32 1 30 8
M  V30 33 1 31 9
M  V30 34 1 32 9
M  V30 35 1 33 10
M  V30 36 1 34 10
M  V30 37 1 35 10
M  V30 38 1 36 11
M  V30 39 1 37 11
M  V30 40 1 38 12
M  V30 41 1 39 12
M  V30 42 1 40 14
M  V30 43 1 41 14
M  V30 44 1 16 42 CFG=3
M  V30 45 1 43 17
M  V30 46 1 44 17
M  V30 47 1 45 17
M  V30 48 1 46 18
M  V30 49 1 19 47 CFG=3
M  V30 50 1 20 48 CFG=3
M  V30 51 1 49 21
M  V30 52 1 50 21
M  V30 53 1 51 22
M  V30 54 1 52 22
M  V30 55 1 53 3
M  V30 56 1 54 18
M  V30 END BOND
M  V30 END CTAB
M  END
>  <i_epik_Tot_Q>  (1) 
2

>  <i_epik_Tot_abs_Q>  (1) 
2

>  <i_i_glide_confnum>  (1) 
200

>  <i_i_glide_lignum>  (1) 
230

>  <i_i_glide_posenum>  (1) 
277

>  <i_i_glide_rotatable_bonds>  (1) 
8

>  <i_lp_mmshare_version>  (1) 
72125

>  <i_m_source_file_index>  (1) 
98

>  <i_f3d_flags>  (1) 
0

>  <num_sample>  (1) 
100

>  <b_lp_Chiralities_Consistent>  (1) 
1

>  <r_epik_Charging_Adjusted_Penalty>  (1) 
0.023784372846060081

>  <r_epik_Ionization_Penalty>  (1) 
0.011913947957046679

>  <r_epik_Ionization_Penalty_Charging>  (1) 
0.011913947957046679

>  <r_epik_Ionization_Penalty_Neutral>  (1) 
0

>  <r_epik_State_Penalty>  (1) 
0.011870424889013402

>  <r_glide_ring_energy>  (1) 
0

>  <r_i_docking_score>  (1) 
-7.7746153361614807

>  <r_i_glide_ecoul>  (1) 
-7.4673361338471356

>  <r_i_glide_eff_state_penalty>  (1) 
0.011870424889013402

>  <r_i_glide_einternal>  (1) 
9.9407856701693973

>  <r_i_glide_emodel>  (1) 
-58.144154086661061

>  <r_i_glide_emodel_strain>  (1) 
0.27552854294705753

>  <r_i_glide_energy>  (1) 
-36.647292775366175

>  <r_i_glide_erotb>  (1) 
0.81630680719182536

>  <r_i_glide_esite>  (1) 
-0.19030944805414934

>  <r_i_glide_evdw>  (1) 
-29.179956641519038

>  <r_i_glide_gscore>  (1) 
-7.7864857610504945

>  <r_i_glide_gscore_strain>  (1) 
0

>  <r_i_glide_hbond>  (1) 
-0.40000000000000002

>  <r_i_glide_ligand_efficiency>  (1) 
-0.35339160618915821

>  <r_i_glide_ligand_efficiency_ln>  (1) 
-1.9003995741426096

>  <r_i_glide_ligand_efficiency_sa>  (1) 
-0.99021717966550116

>  <r_i_glide_lipo>  (1) 
-3.6245335639091216

>  <r_i_glide_metal>  (1) 
-0

>  <r_i_glide_rewards>  (1) 
-1.8088513041260255

>  <r_lp_Energy>  (1) 
24.890995

>  <s_epik_Chemistry_Notes>  (1) 
This compound contains an acetal/aminal-like group ( X-CH(R)-Y where X, Y are N, S, or O) that may be acid/base labile, releasing an aldehyde.

>  <s_epik_cmdline>  (1) 
J2VwaWtfcHl0aG9uJywgJy1waHQnLCAnMS4wJywgJy1waCcsICc3LjQnLCAnLXRuJywgJzgnLCAnLW1hJywgJzUwMCcsICctaW1hZScsICc8aW5maWxlLm1hZT4nLCAnLW9tYWUnLCAnPG91dGZpbGUubWFlPic=

>  <s_epik_input>  (1) 
W0NIMl0xW0NIMl1bQ0gyXVtDSDJdQyhDMTIpPUMzW0NAQEhdKFtDSF09MilTW0NASF0oUzMpW0NIMl1bQ0gyXVtOSF1bQ0gyXVtDQEhdKFtDSDJdW0NIM10pW0NIMl1bTkhdW0NIM10=

>  <s_glide_docking_method>  (1) 
confgen

>  <s_i_glide_gridfile>  (1) 
gpcr_5ht2c_6bqh_protein_autoprepared_prepared

>  <s_lp_Force_Field>  (1) 
S-OPLS

>  <s_lp_Variant>  (1) 
DiffSBDD_97-1

>  <s_m_source_file>  (1) 
generated_GPCR_5HT2C_ligand_DiffSBDD_2026-06-23_prepared.sdf

>  <GenAI_Model>  (1) 
DiffSBDD

>  <Protein>  (1) 
GPCR_5HT2C

$$$$
DiffSBDD_75
     RDKit          3D

  0  0  0  0  0  0  0  0  0  0999 V3000
M  V30 BEGIN CTAB
M  V30 COUNTS 77 78 0 0 1
M  V30 BEGIN ATOM
M  V30 1 C 39.472572 29.888710 61.709953 0
M  V30 2 C 36.571681 31.958371 60.789038 0
M  V30 3 O 36.845371 30.137908 55.726133 0
M  V30 4 C 40.058352 30.447620 65.340422 0
M  V30 5 C 39.688188 30.638443 55.468013 0 CFG=2
M  V30 6 C 38.742383 35.389589 61.383861 0
M  V30 7 C 37.646004 29.503702 56.697904 0 CFG=2
M  V30 8 C 37.930475 35.684894 60.269800 0
M  V30 9 O 38.845079 31.737652 53.503111 0
M  V30 10 C 39.471783 28.104113 55.454037 0 CFG=2
M  V30 11 O 35.990082 38.534327 61.581585 0
M  V30 12 S 38.223825 29.273451 59.388287 0
M  V30 13 C 40.787214 29.789088 66.522271 0
M  V30 14 C 36.879302 37.498908 61.516868 0
M  V30 15 C 37.400627 30.176878 58.057377 0
M  V30 16 C 39.754232 34.262377 61.313745 0
M  V30 17 C 38.608443 36.140393 62.566762 0
M  V30 18 O 39.221405 27.000113 53.296506 0
M  V30 19 C 39.133545 26.800763 56.211539 0
M  V30 20 C 39.140297 29.403282 56.240581 0 CFG=1
M  V30 21 O 42.101918 30.295719 66.598038 0
M  V30 22 O 37.347249 30.937756 61.398587 0
M  V30 23 O 41.647883 32.138880 62.072741 0
M  V30 24 C 41.207161 28.849033 63.750398 0
M  V30 25 N 40.671655 30.217247 63.996104 0 CFG=1 CHG=1
M  V30 26 C 40.483059 32.085824 62.460971 0
M  V30 27 C 37.006037 36.746540 60.332008 0
M  V30 28 C 39.615406 33.333201 62.526661 0
M  V30 29 C 39.809112 30.796511 62.918034 0 CFG=1
M  V30 30 C 37.671700 37.181454 62.636643 0
M  V30 31 C 39.245759 29.391640 53.212919 0
M  V30 32 C 38.503805 30.516572 60.679296 0 CFG=1
M  V30 33 C 39.431386 31.983514 56.183575 0
M  V30 34 C 38.847697 28.147193 54.036834 0 CFG=2
M  V30 35 C 39.216883 30.691048 54.011930 0
M  V30 36 H 40.381835 29.594712 61.185038 0
M  V30 37 H 39.021985 28.968518 62.081985 0
M  V30 38 H 35.808011 32.294353 61.491010 0
M  V30 39 H 37.180508 32.821384 60.523558 0
M  V30 40 H 36.053381 31.608141 59.900484 0
M  V30 41 H 36.257557 30.765180 56.167796 0
M  V30 42 H 40.038551 31.524627 65.508974 0
M  V30 43 H 39.013809 30.135739 65.348088 0
M  V30 44 H 37.245534 28.505754 56.828259 0
M  V30 45 H 38.021545 35.102320 59.366234 0
M  V30 46 H 40.243911 29.330081 52.783759 0
M  V30 47 H 40.557034 28.091464 55.367795 0
M  V30 48 H 35.732884 38.868315 60.730022 0
M  V30 49 H 40.269990 30.026162 67.452581 0
M  V30 50 H 40.791074 28.701386 66.448956 0
M  V30 51 H 36.332783 30.145683 58.271808 0
M  V30 52 H 37.697933 31.222152 58.065097 0
M  V30 53 H 39.623711 33.706561 60.383483 0
M  V30 54 H 40.754344 34.698887 61.288441 0
M  V30 55 H 39.221076 35.914066 63.426373 0
M  V30 56 H 40.163072 26.955944 53.245626 0
M  V30 57 H 38.063195 26.596590 56.232404 0
M  V30 58 H 39.606348 25.942117 55.732653 0
M  V30 59 H 39.494452 26.830712 57.239887 0
M  V30 60 H 39.752594 29.334613 57.138900 0
M  V30 61 H 42.525639 29.923001 67.358019 0
M  V30 62 H 40.437770 28.081305 63.776286 0
M  V30 63 H 41.714427 28.793842 62.787859 0
M  V30 64 H 41.966628 28.577387 64.481940 0
M  V30 65 H 36.393020 36.978331 59.473043 0
M  V30 66 H 39.872088 33.862343 63.442435 0
M  V30 67 H 38.573683 33.025819 62.615881 0
M  V30 68 H 38.850339 31.051533 63.363805 0
M  V30 69 H 37.566714 37.737927 63.550073 0
M  V30 70 H 38.567307 29.485029 52.364547 0
M  V30 71 H 40.765330 30.512703 55.367833 0
M  V30 72 H 38.988511 31.373743 60.212065 0
M  V30 73 H 40.046108 32.780522 55.771327 0
M  V30 74 H 38.392916 32.302795 56.085168 0
M  V30 75 H 39.645397 31.923861 57.246377 0
M  V30 76 H 37.761071 28.128737 54.125640 0
M  V30 77 H 41.503935 30.793394 64.007134 0
M  V30 END ATOM
M  V30 BEGIN BOND
M  V30 1 1 7 3
M  V30 2 1 8 6
M  V30 3 1 13 4
M  V30 4 1 14 11
M  V30 5 1 15 7
M  V30 6 1 15 12
M  V30 7 1 16 6
M  V30 8 2 17 6
M  V30 9 1 19 10
M  V30 10 1 20 5
M  V30 11 1 20 7
M  V30 12 1 20 10
M  V30 13 1 21 13
M  V30 14 1 22 2
M  V30 15 1 25 4
M  V30 16 1 25 24
M  V30 17 2 26 23
M  V30 18 2 27 8
M  V30 19 1 27 14
M  V30 20 1 28 16
M  V30 21 1 28 26
M  V30 22 1 29 1
M  V30 23 1 29 25
M  V30 24 1 29 26
M  V30 25 2 30 14
M  V30 26 1 30 17
M  V30 27 1 32 1
M  V30 28 1 32 12
M  V30 29 1 32 22
M  V30 30 1 33 5
M  V30 31 1 34 10
M  V30 32 1 34 18
M  V30 33 1 34 31
M  V30 34 1 35 5
M  V30 35 2 35 9
M  V30 36 1 35 31
M  V30 37 1 36 1
M  V30 38 1 37 1
M  V30 39 1 38 2
M  V30 40 1 39 2
M  V30 41 1 40 2
M  V30 42 1 41 3
M  V30 43 1 42 4
M  V30 44 1 43 4
M  V30 45 1 7 44 CFG=1
M  V30 46 1 45 8
M  V30 47 1 46 31
M  V30 48 1 10 47 CFG=3
M  V30 49 1 48 11
M  V30 50 1 49 13
M  V30 51 1 50 13
M  V30 52 1 51 15
M  V30 53 1 52 15
M  V30 54 1 53 16
M  V30 55 1 54 16
M  V30 56 1 55 17
M  V30 57 1 56 18
M  V30 58 1 57 19
M  V30 59 1 58 19
M  V30 60 1 59 19
M  V30 61 1 20 60 CFG=1
M  V30 62 1 61 21
M  V30 63 1 62 24
M  V30 64 1 63 24
M  V30 65 1 64 24
M  V30 66 1 65 27
M  V30 67 1 66 28
M  V30 68 1 67 28
M  V30 69 1 29 68 CFG=1
M  V30 70 1 69 30
M  V30 71 1 70 31
M  V30 72 1 5 71 CFG=3
M  V30 73 1 32 72 CFG=3
M  V30 74 1 73 33
M  V30 75 1 74 33
M  V30 76 1 75 33
M  V30 77 1 34 76 CFG=1
M  V30 78 1 25 77 CFG=1
M  V30 END BOND
M  V30 END CTAB
M  END
>  <i_epik_Tot_Q>  (1) 
1

>  <i_epik_Tot_abs_Q>  (1) 
1

>  <i_i_glide_confnum>  (1) 
3262

>  <i_i_glide_lignum>  (1) 
167

>  <i_i_glide_posenum>  (1) 
264

>  <i_i_glide_rotatable_bonds>  (1) 
18

>  <i_lp_mmshare_version>  (1) 
72125

>  <i_m_source_file_index>  (1) 
76

>  <i_f3d_flags>  (1) 
0

>  <num_sample>  (1) 
100

>  <b_lp_Chiralities_Consistent>  (1) 
1

>  <r_epik_Charging_Adjusted_Penalty>  (1) 
0.52789471212939676

>  <r_epik_Ionization_Penalty>  (1) 
0.26592108790513191

>  <r_epik_Ionization_Penalty_Charging>  (1) 
0.26394735606469838

>  <r_epik_Ionization_Penalty_Neutral>  (1) 
0.0019737318404335234

>  <r_epik_State_Penalty>  (1) 
0.26394735606469838

>  <r_glide_ring_energy>  (1) 
0

>  <r_i_docking_score>  (1) 
-7.7565613276739951

>  <r_i_glide_ecoul>  (1) 
-12.36082693296472

>  <r_i_glide_eff_state_penalty>  (1) 
0.26394735606469838

>  <r_i_glide_einternal>  (1) 
14.390763830408119

>  <r_i_glide_emodel>  (1) 
-68.314016695773859

>  <r_i_glide_emodel_strain>  (1) 
1.833776915379552

>  <r_i_glide_energy>  (1) 
-51.232003411275649

>  <r_i_glide_erotb>  (1) 
1.0139394581015995

>  <r_i_glide_esite>  (1) 
-0.020063847647619856

>  <r_i_glide_evdw>  (1) 
-38.871176478310929

>  <r_i_glide_gscore>  (1) 
-8.0205086837386936

>  <r_i_glide_gscore_strain>  (1) 
0

>  <r_i_glide_hbond>  (1) 
-0.71999999999999997

>  <r_i_glide_ligand_efficiency>  (1) 
-0.2216160379335427

>  <r_i_glide_ligand_efficiency_ln>  (1) 
-1.7027373590280424

>  <r_i_glide_ligand_efficiency_sa>  (1) 
-0.72492075548188817

>  <r_i_glide_lipo>  (1) 
-3.4730615022177616

>  <r_i_glide_metal>  (1) 
-0

>  <r_i_glide_rewards>  (1) 
-1.0236399281146558

>  <r_lp_Energy>  (1) 
30.915486999999999

>  <r_lp_tautomer_probability>  (1) 
0.99989998499911525

>  <s_epik_Chemistry_Notes>  (1) 
This compound contains an acetal/aminal-like group ( X-CH(R)-Y where X, Y are N, S, or O) that may be acid/base labile, releasing an aldehyde.

>  <s_epik_cmdline>  (1) 
J2VwaWtfcHl0aG9uJywgJy1waHQnLCAnMS4wJywgJy1waCcsICc3LjQnLCAnLXRuJywgJzgnLCAnLW1hJywgJzUwMCcsICctaW1hZScsICc8aW5maWxlLm1hZT4nLCAnLW9tYWUnLCAnPG91dGZpbGUubWFlPic=

>  <s_epik_input>  (1) 
W2NIXTFbY0hdYyhbT0hdKVtjSF1bY0hdYzFbQ0gyXVtDSDJdQyg9TylbQ0BIXShOKFtDSDNdKVtDSDJdW0NIMl1bT0hdKVtDSDJdW0NASF0oT1tDSDNdKVNbQ0gyXVtDQEBIXShbT0hdKVtDQEhdMltDQEBIXShbQ0gzXSlbQ0BIXShbT0hdKVtDSDJdQyhbT0hdKT1DMltDSDNd

>  <s_glide_docking_method>  (1) 
confgen

>  <s_i_glide_gridfile>  (1) 
gpcr_5ht2c_6bqh_protein_autoprepared_prepared

>  <s_lp_Force_Field>  (1) 
S-OPLS

>  <s_lp_Variant>  (1) 
DiffSBDD_75-4

>  <s_m_source_file>  (1) 
generated_GPCR_5HT2C_ligand_DiffSBDD_2026-06-23_prepared.sdf

>  <GenAI_Model>  (1) 
DiffSBDD

>  <Protein>  (1) 
GPCR_5HT2C

$$$$
DiffSBDD_62
     RDKit          3D

  0  0  0  0  0  0  0  0  0  0999 V3000
M  V30 BEGIN CTAB
M  V30 COUNTS 79 83 0 0 1
M  V30 BEGIN ATOM
M  V30 1 C 38.741161 35.635365 61.557168 0
M  V30 2 C 40.441732 29.950529 50.891160 0
M  V30 3 C 38.823434 28.195965 57.300203 0
M  V30 4 C 36.962010 36.252854 59.796882 0
M  V30 5 C 42.457130 34.325505 65.536007 0
M  V30 6 C 39.241653 27.690514 50.345764 0
M  V30 7 C 37.788923 29.328417 57.456937 0 CFG=2
M  V30 8 C 39.015916 28.995606 52.423744 0
M  V30 9 C 37.645096 28.544542 54.270388 0
M  V30 10 O 40.393240 35.880626 63.974124 0
M  V30 11 C 41.554635 33.835579 64.423846 0
M  V30 12 C 39.482603 31.729870 54.840343 0
M  V30 13 C 37.632730 35.161359 60.629215 0
M  V30 14 C 40.952287 34.872904 63.535369 0
M  V30 15 C 38.993149 30.491093 54.241180 0
M  V30 16 N 39.435038 30.105464 53.007218 0
M  V30 17 C 38.165783 26.802467 57.273575 0
M  V30 18 O 37.049137 31.043641 60.780885 0
M  V30 19 C 41.101057 33.764056 65.869357 0
M  V30 20 N 41.192615 35.738251 61.367770 0
M  V30 21 N 40.341339 30.898990 52.178488 0
M  V30 22 N 37.308107 33.931769 60.557637 0
M  V30 23 C 36.476787 33.403231 59.495157 0
M  V30 24 C 39.509972 28.828300 51.279252 0
M  V30 25 C 38.148389 29.791565 54.890032 0
M  V30 26 C 38.657835 31.566800 56.205024 0
M  V30 27 N 41.051296 34.596596 62.220852 0
M  V30 28 C 36.923132 30.984864 59.374109 0 CFG=2
M  V30 29 C 40.060377 34.939998 61.188570 0 CFG=1
M  V30 30 C 38.496067 24.295737 57.300876 0
M  V30 31 C 39.175806 25.663184 57.138021 0
M  V30 32 C 37.691228 30.269326 56.217866 0 CFG=2
M  V30 33 C 40.282955 25.843439 58.167656 0
M  V30 34 C 37.985579 29.993525 58.853756 0
M  V30 35 N 37.244528 32.321150 58.894393 0
M  V30 36 N 38.072813 28.159486 53.112195 0
M  V30 37 H 38.858835 36.718813 61.515680 0
M  V30 38 H 38.434749 35.377415 62.567726 0
M  V30 39 H 41.465438 29.609192 50.751939 0
M  V30 40 H 40.097316 30.474892 49.999822 0
M  V30 41 H 39.473155 28.318842 56.435700 0
M  V30 42 H 39.516314 28.260511 58.137669 0
M  V30 43 H 37.219992 37.250224 60.152247 0
M  V30 44 H 37.247161 36.182488 58.748395 0
M  V30 45 H 35.878255 36.159893 59.842769 0
M  V30 46 H 43.332270 33.721677 65.767639 0
M  V30 47 H 42.593408 35.400359 65.646252 0
M  V30 48 H 38.846153 28.130479 49.434182 0
M  V30 49 H 40.161865 27.140265 50.167693 0
M  V30 50 H 38.503725 26.994190 50.744808 0
M  V30 51 H 36.814126 28.853454 57.523657 0
M  V30 52 H 36.908207 27.982765 54.836613 0
M  V30 53 H 41.848939 32.902609 63.945581 0
M  V30 54 H 40.565071 31.737811 54.969472 0
M  V30 55 H 39.125768 32.553727 54.238364 0
M  V30 56 H 37.599538 26.668991 58.191055 0
M  V30 57 H 37.438420 26.718983 56.471167 0
M  V30 58 H 40.368119 34.477644 66.238395 0
M  V30 59 H 41.046880 32.773485 66.315431 0
M  V30 60 H 41.079264 36.624696 61.843146 0
M  V30 61 H 39.881347 31.776965 51.942139 0
M  V30 62 H 36.268916 34.128262 58.707833 0
M  V30 63 H 35.513315 33.055313 59.870544 0
M  V30 64 H 38.067377 32.469464 56.364545 0
M  V30 65 H 39.373741 31.520531 57.023361 0
M  V30 66 H 35.909274 30.693056 59.095503 0
M  V30 67 H 40.045581 34.313807 60.298023 0
M  V30 68 H 37.895872 24.251332 58.208656 0
M  V30 69 H 37.837686 24.084798 56.458206 0
M  V30 70 H 39.236117 23.496881 57.367759 0
M  V30 71 H 39.628109 25.699388 56.145237 0
M  V30 72 H 36.660334 30.537679 56.042120 0
M  V30 73 H 39.860172 26.088236 59.140806 0
M  V30 74 H 40.845517 24.937748 58.267622 0
M  V30 75 H 40.990347 26.624938 57.886298 0
M  V30 76 H 38.978684 30.438012 58.934956 0
M  V30 77 H 37.998984 29.170100 59.571279 0
M  V30 78 H 36.938582 32.284464 57.922404 0
M  V30 79 H 37.350589 31.924397 60.972273 0
M  V30 END ATOM
M  V30 BEGIN BOND
M  V30 1 1 7 3
M  V30 2 1 11 5
M  V30 3 1 13 1
M  V30 4 1 13 4
M  V30 5 2 14 10
M  V30 6 1 14 11
M  V30 7 1 15 12
M  V30 8 1 16 8
M  V30 9 1 16 15
M  V30 10 1 17 3
M  V30 11 1 19 5
M  V30 12 1 19 11
M  V30 13 1 21 2
M  V30 14 1 21 16
M  V30 15 2 22 13
M  V30 16 1 23 22
M  V30 17 1 24 2
M  V30 18 1 24 6
M  V30 19 2 24 8
M  V30 20 1 25 9
M  V30 21 2 25 15
M  V30 22 1 26 12
M  V30 23 1 27 14
M  V30 24 1 27 20
M  V30 25 1 28 18
M  V30 26 1 29 1
M  V30 27 1 29 20
M  V30 28 1 29 27
M  V30 29 1 31 17
M  V30 30 1 31 30
M  V30 31 1 32 7
M  V30 32 1 32 25
M  V30 33 1 32 26
M  V30 34 1 33 31
M  V30 35 1 34 7
M  V30 36 1 34 28
M  V30 37 1 35 23
M  V30 38 1 35 28
M  V30 39 1 36 8
M  V30 40 2 36 9
M  V30 41 1 37 1
M  V30 42 1 38 1
M  V30 43 1 39 2
M  V30 44 1 40 2
M  V30 45 1 41 3
M  V30 46 1 42 3
M  V30 47 1 43 4
M  V30 48 1 44 4
M  V30 49 1 45 4
M  V30 50 1 46 5
M  V30 51 1 47 5
M  V30 52 1 48 6
M  V30 53 1 49 6
M  V30 54 1 50 6
M  V30 55 1 7 51 CFG=1
M  V30 56 1 52 9
M  V30 57 1 53 11
M  V30 58 1 54 12
M  V30 59 1 55 12
M  V30 60 1 56 17
M  V30 61 1 57 17
M  V30 62 1 58 19
M  V30 63 1 59 19
M  V30 64 1 60 20
M  V30 65 1 61 21
M  V30 66 1 62 23
M  V30 67 1 63 23
M  V30 68 1 64 26
M  V30 69 1 65 26
M  V30 70 1 28 66 CFG=1
M  V30 71 1 29 67 CFG=3
M  V30 72 1 68 30
M  V30 73 1 69 30
M  V30 74 1 70 30
M  V30 75 1 71 31
M  V30 76 1 32 72 CFG=3
M  V30 77 1 73 33
M  V30 78 1 74 33
M  V30 79 1 75 33
M  V30 80 1 76 34
M  V30 81 1 77 34
M  V30 82 1 78 35
M  V30 83 1 79 18
M  V30 END BOND
M  V30 END CTAB
M  END
>  <i_epik_Tot_Q>  (1) 
0

>  <i_epik_Tot_abs_Q>  (1) 
0

>  <i_i_glide_confnum>  (1) 
2916

>  <i_i_glide_lignum>  (1) 
136

>  <i_i_glide_posenum>  (1) 
181

>  <i_i_glide_rotatable_bonds>  (1) 
14

>  <i_lp_mmshare_version>  (1) 
72125

>  <i_m_source_file_index>  (1) 
63

>  <i_f3d_flags>  (1) 
0

>  <num_sample>  (1) 
100

>  <b_lp_Chiralities_Consistent>  (1) 
1

>  <r_epik_Charging_Adjusted_Penalty>  (1) 
0.66759273229091232

>  <r_epik_Ionization_Penalty>  (1) 
2.307606927441598

>  <r_epik_Ionization_Penalty_Charging>  (1) 
0

>  <r_epik_Ionization_Penalty_Neutral>  (1) 
2.307606927441598

>  <r_epik_State_Penalty>  (1) 
0.66759273229091232

>  <r_glide_ring_energy>  (1) 
0

>  <r_i_docking_score>  (1) 
-7.7496733085459129

>  <r_i_glide_ecoul>  (1) 
-4.1764244861096769

>  <r_i_glide_eff_state_penalty>  (1) 
0.66759273229091232

>  <r_i_glide_einternal>  (1) 
32.799535030089643

>  <r_i_glide_emodel>  (1) 
-59.520932259463855

>  <r_i_glide_emodel_strain>  (1) 
4.3987629128812671

>  <r_i_glide_energy>  (1) 
-55.081587576904759

>  <r_i_glide_erotb>  (1) 
0.98835574197518972

>  <r_i_glide_esite>  (1) 
-0.14496647468503171

>  <r_i_glide_evdw>  (1) 
-50.905163090795085

>  <r_i_glide_gscore>  (1) 
-8.4172660408368252

>  <r_i_glide_gscore_strain>  (1) 
0.099690728220316771

>  <r_i_glide_hbond>  (1) 
-0.178149963212581

>  <r_i_glide_ligand_efficiency>  (1) 
-0.21526870301516424

>  <r_i_glide_ligand_efficiency_ln>  (1) 
-1.6907693439478346

>  <r_i_glide_ligand_efficiency_sa>  (1) 
-0.71080159631997586

>  <r_i_glide_lipo>  (1) 
-3.8227293398765831

>  <r_i_glide_metal>  (1) 
-0

>  <r_i_glide_rewards>  (1) 
-2.1877449058019298

>  <r_lp_Energy>  (1) 
35.107028999999997

>  <r_lp_tautomer_probability>  (1) 
0.49999399997599986

>  <s_epik_Chemistry_Notes>  (1) 
This compound has an imine and may undergo hydrolysis. This compound contains an acetal/aminal-like group ( X-CH(R)-Y where X, Y are N, S, or O) that may be acid/base labile, releasing an aldehyde.

>  <s_epik_cmdline>  (1) 
J2VwaWtfcHl0aG9uJywgJy1waHQnLCAnMS4wJywgJy1waCcsICc3LjQnLCAnLXRuJywgJzgnLCAnLW1hJywgJzUwMCcsICctaW1hZScsICc8aW5maWxlLm1hZT4nLCAnLW9tYWUnLCAnPG91dGZpbGUubWFlPic=

>  <s_epik_input>  (1) 
W0NIMl0xW0NIMl1bQ0hdMUMoPU8pTjJbTkhdW0NAQEhdMltDSDJdL0MoW0NIM10pPU4vW0NIMl1bTkhdW0NASF0oW09IXSlbQ0gyXVtDQEhdKFtDSDJdW0NIMl1bQ0hdKFtDSDNdKVtDSDNdKVtDQEBIXShbQ0gyXVtDSDJdMylDKFtDSF09TjQpPUMzTihDND01KVtOSF1bQ0gyXUM1W0NIM10=

>  <s_glide_docking_method>  (1) 
confgen

>  <s_i_glide_gridfile>  (1) 
gpcr_5ht2c_6bqh_protein_autoprepared_prepared

>  <s_lp_Force_Field>  (1) 
S-OPLS

>  <s_lp_Variant>  (1) 
DiffSBDD_62-2

>  <s_m_source_file>  (1) 
generated_GPCR_5HT2C_ligand_DiffSBDD_2026-06-23_prepared.sdf

>  <GenAI_Model>  (1) 
DiffSBDD

>  <Protein>  (1) 
GPCR_5HT2C

$$$$
DiffSBDD_84
     RDKit          3D

  0  0  0  0  0  0  0  0  0  0999 V3000
M  V30 BEGIN CTAB
M  V30 COUNTS 77 81 0 0 1
M  V30 BEGIN ATOM
M  V30 1 C 39.183239 36.602332 63.612099 0
M  V30 2 C 38.540024 27.811508 58.124427 0
M  V30 3 C 39.645008 30.525418 60.607115 0
M  V30 4 C 40.742044 33.915320 67.031504 0
M  V30 5 S 42.045137 32.749542 64.214215 0
M  V30 6 C 39.385899 25.773832 54.833465 0
M  V30 7 C 40.327636 26.873883 56.746810 0
M  V30 8 C 35.787484 33.661515 61.144250 0
M  V30 9 O 40.267575 35.252760 67.085848 0
M  V30 10 C 37.575332 30.194733 59.306293 0
M  V30 11 C 41.384135 27.712342 57.446542 0
M  V30 12 C 39.145559 26.495067 57.627135 0 CFG=2
M  V30 13 C 37.756208 32.221305 60.814129 0
M  V30 14 N 39.245130 37.028796 65.025240 0 CHG=1
M  V30 15 C 42.251900 33.911822 66.696168 0
M  V30 16 C 40.559943 36.400312 62.937944 0
M  V30 17 N 40.422370 26.538206 55.517663 0
M  V30 18 C 37.143957 33.380506 61.367758 0
M  V30 19 N 39.845879 33.453506 62.919499 0
M  V30 20 N 38.942392 29.820500 59.681857 0
M  V30 21 C 37.992490 25.914925 55.462982 0
M  V30 22 C 36.964904 31.395186 59.983540 0
M  V30 23 N 42.450621 34.045798 65.256681 0
M  V30 24 C 43.007641 32.675186 67.227573 0
M  V30 25 C 39.520739 28.604345 59.033178 0 CFG=2
M  V30 26 O 40.709952 30.091616 61.055877 0
M  V30 27 C 35.604993 31.686520 59.767759 0
M  V30 28 O 43.094984 32.726399 68.636536 0
M  V30 29 C 38.110935 25.578534 56.945108 0
M  V30 30 C 41.252918 33.817511 62.989441 0 CFG=1
M  V30 31 C 40.760984 28.937484 58.163116 0
M  V30 32 N 39.579378 32.114357 62.507326 0
M  V30 33 N 41.932720 35.337754 64.825419 0 CHG=1
M  V30 34 C 35.019054 32.814082 60.347806 0
M  V30 35 C 39.212698 31.943281 61.087568 0 CFG=1
M  V30 36 C 41.516701 35.280077 63.416439 0 CFG=2
M  V30 37 H 38.666048 37.394384 63.070998 0
M  V30 38 H 38.542606 35.737760 63.502754 0
M  V30 39 H 37.645166 27.552579 58.645222 0
M  V30 40 H 38.222655 28.415121 57.272082 0
M  V30 41 H 40.552349 33.456539 68.002543 0
M  V30 42 H 40.175184 33.344867 66.295156 0
M  V30 43 H 39.335983 26.106262 53.795712 0
M  V30 44 H 39.661427 24.719779 54.809264 0
M  V30 45 H 35.340033 34.537760 61.583649 0
M  V30 46 H 40.478199 35.598367 67.945766 0
M  V30 47 H 37.529728 30.376632 58.231167 0
M  V30 48 H 36.902920 29.368086 59.531274 0
M  V30 49 H 42.128856 28.049451 56.726771 0
M  V30 50 H 38.338668 37.382469 65.299361 0
M  V30 51 H 39.470745 36.265377 65.655071 0
M  V30 52 H 42.725870 34.777377 67.143783 0
M  V30 53 H 41.104013 37.337760 62.967765 0
M  V30 54 H 40.382735 36.238776 61.873452 0
M  V30 55 H 37.719186 34.056136 61.968147 0
M  V30 56 H 39.360340 34.080357 62.281213 0
M  V30 57 H 37.611038 26.928328 55.328735 0
M  V30 58 H 37.285959 25.242838 54.974489 0
M  V30 59 H 42.530426 31.741581 66.925598 0
M  V30 60 H 44.025875 32.659183 66.836240 0
M  V30 61 H 39.830861 27.935017 59.838609 0
M  V30 62 H 35.013579 31.043151 59.131469 0
M  V30 63 H 42.289848 32.403211 69.011609 0
M  V30 64 H 37.140947 25.636528 57.439403 0
M  V30 65 H 38.437532 24.541970 57.044261 0
M  V30 66 H 41.699512 33.635767 62.010833 0
M  V30 67 H 40.445126 29.664625 57.413830 0
M  V30 68 H 41.545583 29.406583 58.755237 0
M  V30 69 H 38.853223 31.722919 63.104732 0
M  V30 70 H 41.158656 35.513035 65.453297 0
M  V30 71 H 33.977558 33.035437 60.167792 0
M  V30 72 H 39.815187 32.631820 60.493748 0
M  V30 73 H 42.445135 35.558860 62.951693 0
M  V30 74 H 42.662423 36.026226 64.967699 0
M  V30 75 H 39.530962 25.955719 58.493948 0
M  V30 76 H 41.906594 27.080213 58.165808 0
M  V30 77 H 39.921856 37.775000 65.128586 0
M  V30 END ATOM
M  V30 BEGIN BOND
M  V30 1 1 9 4
M  V30 2 1 11 7
M  V30 3 1 12 2
M  V30 4 1 12 7
M  V30 5 1 14 1
M  V30 6 1 15 4
M  V30 7 1 16 1
M  V30 8 1 17 6
M  V30 9 2 17 7
M  V30 10 1 18 8
M  V30 11 2 18 13
M  V30 12 1 20 3
M  V30 13 1 20 10
M  V30 14 1 21 6
M  V30 15 1 22 10
M  V30 16 1 22 13
M  V30 17 1 23 5
M  V30 18 1 23 15
M  V30 19 1 24 15
M  V30 20 1 25 2
M  V30 21 1 25 20
M  V30 22 2 26 3
M  V30 23 2 27 22
M  V30 24 1 28 24
M  V30 25 1 29 12
M  V30 26 1 29 21
M  V30 27 1 30 5
M  V30 28 1 30 19
M  V30 29 1 31 11
M  V30 30 1 31 25
M  V30 31 1 32 19
M  V30 32 1 33 23
M  V30 33 2 34 8
M  V30 34 1 34 27
M  V30 35 1 35 3
M  V30 36 1 35 13
M  V30 37 1 35 32
M  V30 38 1 36 16
M  V30 39 1 36 30
M  V30 40 1 36 33
M  V30 41 1 37 1
M  V30 42 1 38 1
M  V30 43 1 39 2
M  V30 44 1 40 2
M  V30 45 1 41 4
M  V30 46 1 42 4
M  V30 47 1 43 6
M  V30 48 1 44 6
M  V30 49 1 45 8
M  V30 50 1 46 9
M  V30 51 1 47 10
M  V30 52 1 48 10
M  V30 53 1 49 11
M  V30 54 1 50 14
M  V30 55 1 51 14
M  V30 56 1 52 15
M  V30 57 1 53 16
M  V30 58 1 54 16
M  V30 59 1 55 18
M  V30 60 1 56 19
M  V30 61 1 57 21
M  V30 62 1 58 21
M  V30 63 1 59 24
M  V30 64 1 60 24
M  V30 65 1 25 61 CFG=1
M  V30 66 1 62 27
M  V30 67 1 63 28
M  V30 68 1 64 29
M  V30 69 1 65 29
M  V30 70 1 30 66 CFG=3
M  V30 71 1 67 31
M  V30 72 1 68 31
M  V30 73 1 69 32
M  V30 74 1 70 33
M  V30 75 1 71 34
M  V30 76 1 35 72 CFG=3
M  V30 77 1 36 73 CFG=3
M  V30 78 1 74 33
M  V30 79 1 12 75 CFG=1
M  V30 80 1 76 11
M  V30 81 1 77 14
M  V30 END BOND
M  V30 END CTAB
M  END
>  <i_epik_Tot_Q>  (1) 
2

>  <i_epik_Tot_abs_Q>  (1) 
2

>  <i_i_glide_confnum>  (1) 
3441

>  <i_i_glide_lignum>  (1) 
198

>  <i_i_glide_posenum>  (1) 
36

>  <i_i_glide_rotatable_bonds>  (1) 
11

>  <i_lp_mmshare_version>  (1) 
72125

>  <i_m_source_file_index>  (1) 
85

>  <i_f3d_flags>  (1) 
0

>  <num_sample>  (1) 
100

>  <b_lp_Chiralities_Consistent>  (1) 
1

>  <r_epik_Charging_Adjusted_Penalty>  (1) 
0.034284474231679775

>  <r_epik_Ionization_Penalty>  (1) 
0.42650113434003467

>  <r_epik_Ionization_Penalty_Charging>  (1) 
0.012847136256187231

>  <r_epik_Ionization_Penalty_Neutral>  (1) 
0.41365399808384745

>  <r_epik_State_Penalty>  (1) 
0.021437337975492542

>  <r_glide_ring_energy>  (1) 
0.54760512030191355

>  <r_i_docking_score>  (1) 
-7.7467498124834107

>  <r_i_glide_ecoul>  (1) 
-7.2564522263871032

>  <r_i_glide_eff_state_penalty>  (1) 
0.021437337975492542

>  <r_i_glide_einternal>  (1) 
26.053272998889682

>  <r_i_glide_emodel>  (1) 
-62.29069135730829

>  <r_i_glide_emodel_strain>  (1) 
6.0812069315376078

>  <r_i_glide_energy>  (1) 
-50.755594095041957

>  <r_i_glide_erotb>  (1) 
0.60855438394346106

>  <r_i_glide_esite>  (1) 
0

>  <r_i_glide_evdw>  (1) 
-43.499141868654853

>  <r_i_glide_gscore>  (1) 
-7.7681871504589033

>  <r_i_glide_gscore_strain>  (1) 
0.52030173288440196

>  <r_i_glide_hbond>  (1) 
-0.32000000000000001

>  <r_i_glide_ligand_efficiency>  (1) 
-0.21518749479120586

>  <r_i_glide_ligand_efficiency_ln>  (1) 
-1.6901315160907326

>  <r_i_glide_ligand_efficiency_sa>  (1) 
-0.71053345267245327

>  <r_i_glide_lipo>  (1) 
-3.89923086734533

>  <r_i_glide_metal>  (1) 
-0

>  <r_i_glide_rewards>  (1) 
-1.414387472550626

>  <r_lp_Energy>  (1) 
53.693352999999995

>  <r_lp_tautomer_probability>  (1) 
0.99998399999999998

>  <s_epik_Chemistry_Notes>  (1) 
This compound has an imine and may undergo hydrolysis. This compound contains an acetal/aminal-like group ( X-CH(R)-Y where X, Y are N, S, or O) that may be acid/base labile, releasing an aldehyde. This compound has a N-S or N-O group and may undergo hydrolysis at high or low pH.

>  <s_epik_cmdline>  (1) 
J2VwaWtfcHl0aG9uJywgJy1waHQnLCAnMS4wJywgJy1waCcsICc3LjQnLCAnLXRuJywgJzgnLCAnLW1hJywgJzUwMCcsICctaW1hZScsICc8aW5maWxlLm1hZT4nLCAnLW9tYWUnLCAnPG91dGZpbGUubWFlPic=

>  <s_epik_input>  (1) 
W09IXVtDSDJdW0NIXShbQ0gyXVtPSF0pTjFTW0NASF0oW0NASF0oW05IXTEpW0NIMl1bQ0gyXVtOSDJdKVtOSF1bTkhdW0NASF0yQyg9TylOKFtDSDJdYyhjMjMpW2NIXVtjSF1bY0hdW2NIXTMpW0NASF0oW0NIMl1bQ0gyXTQpW0NIMl1DKD1DNDUpW0NIMl1bQ0gyXVtDSDJdW05IXTU=

>  <s_glide_docking_method>  (1) 
confgen

>  <s_i_glide_gridfile>  (1) 
gpcr_5ht2c_6bqh_protein_autoprepared_prepared

>  <s_lp_Force_Field>  (1) 
S-OPLS

>  <s_lp_Variant>  (1) 
DiffSBDD_84-1

>  <s_m_source_file>  (1) 
generated_GPCR_5HT2C_ligand_DiffSBDD_2026-06-23_prepared.sdf

>  <GenAI_Model>  (1) 
DiffSBDD

>  <Protein>  (1) 
GPCR_5HT2C

$$$$
DiffSBDD_93
     RDKit          3D

  0  0  0  0  0  0  0  0  0  0999 V3000
M  V30 BEGIN CTAB
M  V30 COUNTS 84 85 0 0 1
M  V30 BEGIN ATOM
M  V30 1 C 39.917046 29.723418 61.242769 0
M  V30 2 O 39.645175 28.445651 61.767757 0
M  V30 3 C 36.903193 33.924219 58.851532 0
M  V30 4 C 38.942092 28.893690 53.504710 0
M  V30 5 O 36.687048 30.896138 60.122389 0
M  V30 6 C 39.800708 26.664347 57.732147 0
M  V30 7 N 40.993633 26.937752 57.213895 0
M  V30 8 O 39.645109 26.343968 58.901720 0
M  V30 9 O 42.113332 31.932132 62.640136 0
M  V30 10 C 39.706607 30.153040 53.154422 0
M  V30 11 C 38.365581 33.534296 59.077783 0
M  V30 12 C 38.059620 29.207428 59.117799 0
M  V30 13 C 38.456002 31.528404 62.197131 0
M  V30 14 C 38.511648 28.044720 55.881436 0 CFG=1
M  V30 15 C 38.598928 26.759095 56.796553 0 CFG=1
M  V30 16 C 37.654846 34.880431 60.954475 0 CFG=1
M  V30 17 C 39.898522 33.541161 61.098575 0 CFG=1
M  V30 18 C 41.031873 34.571121 61.367778 0
M  V30 19 C 39.038631 29.668967 58.006267 0
M  V30 20 S 40.810443 32.446570 63.595993 0 CHG=1
M  V30 21 O 37.245133 30.933873 55.040117 0
M  V30 22 N 38.699008 30.535228 61.125672 0
M  V30 23 O 40.404034 31.011802 64.406663 0
M  V30 24 O 36.879086 36.299660 59.099101 0
M  V30 25 F 38.838451 35.900055 62.737406 0
M  V30 26 C 39.636616 29.012079 52.167728 0
M  V30 27 C 37.292150 30.317433 56.310471 0
M  V30 28 C 38.569087 29.485899 56.539765 0 CFG=2
M  V30 29 C 37.755088 30.289304 60.167680 0
M  V30 30 C 38.546245 25.360573 56.112951 0
M  V30 31 C 36.805336 36.881750 62.375515 0
M  V30 32 C 39.435058 32.748917 62.382507 0 CFG=2
M  V30 33 O 36.445207 24.344277 55.740904 0
M  V30 34 C 39.431765 27.998817 54.640554 0
M  V30 35 C 38.007947 36.176995 61.736591 0 CFG=2
M  V30 36 C 37.305569 25.118355 55.271212 0
M  V30 37 C 36.650223 35.093196 59.799552 0 CFG=1
M  V30 38 O 37.245155 25.702913 54.169307 0 CHG=-1
M  V30 39 N 38.830585 34.240923 60.296556 0 CFG=1 CHG=1
M  V30 40 H 40.448517 29.634753 60.297513 0
M  V30 41 H 40.625108 30.167894 61.922348 0
M  V30 42 H 39.323351 28.524690 62.658683 0
M  V30 43 H 36.692687 34.137261 57.803154 0
M  V30 44 H 36.241162 33.103745 59.124762 0
M  V30 45 H 37.858013 28.917184 53.409798 0
M  V30 46 H 41.071791 27.190106 56.241466 0
M  V30 47 H 41.819377 26.872349 57.790082 0
M  V30 48 H 42.875525 32.389759 62.964975 0
M  V30 49 H 39.120595 31.048680 52.967737 0
M  V30 50 H 40.651025 30.333528 53.659956 0
M  V30 51 H 38.990126 33.753858 58.214713 0
M  V30 52 H 38.458225 32.472050 59.179943 0
M  V30 53 H 38.387212 28.295770 59.603643 0
M  V30 54 H 37.105117 28.937830 58.664918 0
M  V30 55 H 38.364117 30.937869 63.106252 0
M  V30 56 H 37.458833 31.956359 62.097895 0
M  V30 57 H 37.514391 27.968810 55.455764 0
M  V30 58 H 37.725906 26.811836 57.449439 0
M  V30 59 H 37.191324 34.163585 61.630377 0
M  V30 60 H 40.350084 32.803064 60.435630 0
M  V30 61 H 42.010787 34.096206 61.367919 0
M  V30 62 H 41.079506 35.338702 60.592440 0
M  V30 63 H 40.944859 35.088597 62.321193 0
M  V30 64 H 39.244337 30.730022 58.130114 0
M  V30 65 H 40.023167 29.234914 58.147856 0
M  V30 66 H 36.547692 31.579149 55.095067 0
M  V30 67 H 40.459561 31.196067 65.332821 0
M  V30 68 H 36.444853 36.234420 58.253585 0
M  V30 69 H 40.510367 28.392768 52.000242 0
M  V30 70 H 39.003254 29.150267 51.292836 0
M  V30 71 H 36.390455 29.737760 56.480240 0
M  V30 72 H 37.253041 31.124534 57.040477 0
M  V30 73 H 39.345674 30.032628 56.003641 0
M  V30 74 H 39.419918 25.186364 55.483977 0
M  V30 75 H 38.578672 24.573289 56.869897 0
M  V30 76 H 36.164313 37.337765 61.621112 0
M  V30 77 H 36.205144 36.190005 62.967965 0
M  V30 78 H 37.133137 37.681300 63.039750 0
M  V30 79 H 38.847606 33.448350 62.967733 0
M  V30 80 H 40.422170 28.301876 54.967760 0
M  V30 81 H 39.521085 26.994759 54.232378 0
M  V30 82 H 38.537468 36.881219 61.093450 0
M  V30 83 H 35.623184 35.093259 60.158689 0
M  V30 84 H 39.302343 35.038111 59.892278 0
M  V30 END ATOM
M  V30 BEGIN BOND
M  V30 1 1 2 1
M  V30 2 1 7 6
M  V30 3 2 8 6
M  V30 4 1 10 4
M  V30 5 1 11 3
M  V30 6 1 15 6
M  V30 7 1 15 14
M  V30 8 1 18 17
M  V30 9 1 19 12
M  V30 10 1 20 9
M  V30 11 1 22 1
M  V30 12 1 22 13
M  V30 13 1 23 20
M  V30 14 1 26 4
M  V30 15 1 26 10
M  V30 16 1 27 21
M  V30 17 1 28 14
M  V30 18 1 28 19
M  V30 19 1 28 27
M  V30 20 2 29 5
M  V30 21 1 29 12
M  V30 22 1 29 22
M  V30 23 1 30 15
M  V30 24 1 32 13
M  V30 25 1 32 17
M  V30 26 1 32 20
M  V30 27 1 34 4
M  V30 28 1 34 14
M  V30 29 1 35 16
M  V30 30 1 35 25
M  V30 31 1 35 31
M  V30 32 1 36 30
M  V30 33 2 36 33
M  V30 34 1 37 3
M  V30 35 1 37 16
M  V30 36 1 37 24
M  V30 37 1 38 36
M  V30 38 1 39 11
M  V30 39 1 39 16
M  V30 40 1 39 17
M  V30 41 1 40 1
M  V30 42 1 41 1
M  V30 43 1 42 2
M  V30 44 1 43 3
M  V30 45 1 44 3
M  V30 46 1 45 4
M  V30 47 1 46 7
M  V30 48 1 47 7
M  V30 49 1 48 9
M  V30 50 1 49 10
M  V30 51 1 50 10
M  V30 52 1 51 11
M  V30 53 1 52 11
M  V30 54 1 53 12
M  V30 55 1 54 12
M  V30 56 1 55 13
M  V30 57 1 56 13
M  V30 58 1 14 57 CFG=3
M  V30 59 1 15 58 CFG=1
M  V30 60 1 16 59 CFG=1
M  V30 61 1 17 60 CFG=3
M  V30 62 1 61 18
M  V30 63 1 62 18
M  V30 64 1 63 18
M  V30 65 1 64 19
M  V30 66 1 65 19
M  V30 67 1 66 21
M  V30 68 1 67 23
M  V30 69 1 68 24
M  V30 70 1 69 26
M  V30 71 1 70 26
M  V30 72 1 71 27
M  V30 73 1 72 27
M  V30 74 1 28 73 CFG=3
M  V30 75 1 74 30
M  V30 76 1 75 30
M  V30 77 1 76 31
M  V30 78 1 77 31
M  V30 79 1 78 31
M  V30 80 1 32 79 CFG=1
M  V30 81 1 80 34
M  V30 82 1 81 34
M  V30 83 1 35 82 CFG=3
M  V30 84 1 37 83 CFG=1
M  V30 85 1 39 84 CFG=3
M  V30 END BOND
M  V30 END CTAB
M  END
>  <i_epik_Tot_Q>  (1) 
1

>  <i_epik_Tot_abs_Q>  (1) 
3

>  <i_i_glide_confnum>  (1) 
5911

>  <i_i_glide_lignum>  (1) 
222

>  <i_i_glide_posenum>  (1) 
19

>  <i_i_glide_rotatable_bonds>  (1) 
24

>  <i_lp_mmshare_version>  (1) 
72125

>  <i_m_source_file_index>  (1) 
94

>  <i_f3d_flags>  (1) 
0

>  <num_sample>  (1) 
100

>  <b_lp_Chiralities_Consistent>  (1) 
1

>  <r_epik_Charging_Adjusted_Penalty>  (1) 
0.90916677635763199

>  <r_epik_Ionization_Penalty>  (1) 
0.45507897092921873

>  <r_epik_Ionization_Penalty_Charging>  (1) 
0.45507471778648678

>  <r_epik_Ionization_Penalty_Neutral>  (1) 
4.2531427319391784e-06

>  <r_epik_State_Penalty>  (1) 
0.45409205857114521

>  <r_glide_ring_energy>  (1) 
0

>  <r_i_docking_score>  (1) 
-7.7414203480538379

>  <r_i_glide_ecoul>  (1) 
-8.1002236349509431

>  <r_i_glide_eff_state_penalty>  (1) 
0.45409205857114521

>  <r_i_glide_einternal>  (1) 
29.515956938790925

>  <r_i_glide_emodel>  (1) 
-57.88132881332691

>  <r_i_glide_emodel_strain>  (1) 
3.7128641560591689

>  <r_i_glide_energy>  (1) 
-49.050061619293025

>  <r_i_glide_erotb>  (1) 
0.82188833391367333

>  <r_i_glide_esite>  (1) 
0

>  <r_i_glide_evdw>  (1) 
-40.949837984342082

>  <r_i_glide_gscore>  (1) 
-8.1955124066249834

>  <r_i_glide_gscore_strain>  (1) 
0

>  <r_i_glide_hbond>  (1) 
-0.70282461404943974

>  <r_i_glide_ligand_efficiency>  (1) 
-0.1984979576424061

>  <r_i_glide_ligand_efficiency_ln>  (1) 
-1.6599802759074813

>  <r_i_glide_ligand_efficiency_sa>  (1) 
-0.67314854537186897

>  <r_i_glide_lipo>  (1) 
-3.0736183481599397

>  <r_i_glide_metal>  (1) 
-0

>  <r_i_glide_rewards>  (1) 
-1.9784323338695309

>  <r_lp_Energy>  (1) 
31.842893

>  <s_epik_Chemistry_Notes>  (1) 
This compound contains an acetal/aminal-like group ( X-CH(R)-Y where X, Y are N, S, or O) that may be acid/base labile, releasing an aldehyde.

>  <s_epik_cmdline>  (1) 
J2VwaWtfcHl0aG9uJywgJy1waHQnLCAnMS4wJywgJy1waCcsICc3LjQnLCAnLXRuJywgJzgnLCAnLW1hJywgJzUwMCcsICctaW1hZScsICc8aW5maWxlLm1hZT4nLCAnLW9tYWUnLCAnPG91dGZpbGUubWFlPic=

>  <s_epik_input>  (1) 
W0NIMl0xW0NIMl1bQ0hdMVtDSDJdW0NAQEhdKFtDQEBIXShDKD1PKVtOSDJdKVtDSDJdQyg9TylbT0hdKVtDQEBIXShbQ0gyXVtPSF0pW0NIMl1bQ0gyXUMoPU8pTihbQ0gyXVtPSF0pW0NIMl1bQ0BASF0oW1MrXShbT0hdKVtPSF0pW0NASF0oW0NIM10pTjJbQ0gyXVtDSDJdW0NASF0oW09IXSlbQ0BASF0yW0NASF0oRilbQ0gzXQ==

>  <s_glide_docking_method>  (1) 
confgen

>  <s_i_glide_gridfile>  (1) 
gpcr_5ht2c_6bqh_protein_autoprepared_prepared

>  <s_lp_Force_Field>  (1) 
S-OPLS

>  <s_lp_Variant>  (1) 
DiffSBDD_93-10

>  <s_m_source_file>  (1) 
generated_GPCR_5HT2C_ligand_DiffSBDD_2026-06-23_prepared.sdf

>  <GenAI_Model>  (1) 
DiffSBDD

>  <Protein>  (1) 
GPCR_5HT2C

$$$$
DiffSBDD_75
     RDKit          3D

  0  0  0  0  0  0  0  0  0  0999 V3000
M  V30 BEGIN CTAB
M  V30 COUNTS 77 78 0 0 1
M  V30 BEGIN ATOM
M  V30 1 C 39.515153 29.914046 61.579152 0
M  V30 2 C 36.353525 31.733829 60.945654 0
M  V30 3 O 39.245129 31.072077 57.082211 0
M  V30 4 C 41.259518 28.624553 63.512312 0
M  V30 5 C 38.625910 27.923980 56.364649 0 CFG=2
M  V30 6 C 39.269572 35.461535 61.204993 0
M  V30 7 C 38.022740 30.477659 56.750379 0 CFG=2
M  V30 8 C 38.038054 35.580911 60.527763 0
M  V30 9 O 37.863508 25.787679 55.538383 0
M  V30 10 C 39.022556 29.617610 54.478791 0 CFG=1
M  V30 11 O 37.364634 39.179877 60.967760 0
M  V30 12 S 38.045139 29.337762 59.367754 0
M  V30 13 C 42.563806 28.193495 64.212579 0
M  V30 14 C 37.971894 37.958580 61.066134 0
M  V30 15 C 37.199699 30.251631 58.036716 0
M  V30 16 C 39.993612 34.138425 61.234582 0
M  V30 17 C 39.838206 36.583692 61.835124 0
M  V30 18 O 37.545968 28.537676 52.860228 0
M  V30 19 C 38.754310 31.014505 53.888338 0
M  V30 20 C 38.188740 29.289383 55.756150 0 CFG=1
M  V30 21 O 42.327147 27.774979 65.540571 0
M  V30 22 O 37.375854 30.937759 61.519476 0
M  V30 23 O 41.743268 32.137669 62.298943 0
M  V30 24 C 40.522520 30.289106 65.213615 0
M  V30 25 N 40.876916 30.041414 63.791467 0 CFG=2 CHG=1
M  V30 26 C 40.534620 32.037430 62.515593 0
M  V30 27 C 37.390211 36.829833 60.456842 0
M  V30 28 C 39.629426 33.265333 62.437028 0
M  V30 29 C 39.889526 30.696898 62.870807 0 CFG=1
M  V30 30 C 39.192493 37.829656 61.767758 0
M  V30 31 C 39.128588 27.082155 53.944283 0
M  V30 32 C 38.448061 30.559923 60.659433 0 CFG=1
M  V30 33 C 40.061108 27.888418 56.937030 0
M  V30 34 C 38.849113 28.504130 53.409615 0 CFG=2
M  V30 35 C 38.476806 26.827236 55.304931 0
M  V30 36 H 40.403357 29.728754 60.973764 0
M  V30 37 H 39.139470 28.935480 61.878208 0
M  V30 38 H 35.723617 32.136752 61.738391 0
M  V30 39 H 36.759272 32.573859 60.382641 0
M  V30 40 H 35.711912 31.137976 60.297098 0
M  V30 41 H 39.069747 31.955848 57.366991 0
M  V30 42 H 40.445139 27.940008 63.744790 0
M  V30 43 H 41.468953 28.512770 62.450162 0
M  V30 44 H 37.480573 31.248416 56.201717 0
M  V30 45 H 37.600627 34.720242 60.045510 0
M  V30 46 H 38.790534 26.332914 53.228022 0
M  V30 47 H 40.073899 29.630992 54.762874 0
M  V30 48 H 36.636651 39.237172 60.354315 0
M  V30 49 H 43.008437 27.350213 63.681306 0
M  V30 50 H 43.304401 28.994466 64.197056 0
M  V30 51 H 36.270453 29.737696 57.791215 0
M  V30 52 H 36.910172 31.225471 58.422213 0
M  V30 53 H 39.796195 33.607285 60.302584 0
M  V30 54 H 41.061576 34.361633 61.236940 0
M  V30 55 H 40.781506 36.493507 62.355488 0
M  V30 56 H 36.924944 28.288622 53.526906 0
M  V30 57 H 37.686622 31.190355 53.767734 0
M  V30 58 H 39.140075 31.804639 54.531415 0
M  V30 59 H 39.245154 31.136888 52.923030 0
M  V30 60 H 37.172151 29.139855 55.397385 0
M  V30 61 H 41.858186 26.953345 65.532506 0
M  V30 62 H 39.674276 29.677777 65.524370 0
M  V30 63 H 41.361249 30.088546 65.878690 0
M  V30 64 H 40.254087 31.333979 65.374600 0
M  V30 65 H 36.455464 36.922911 59.923750 0
M  V30 66 H 39.752328 33.834023 63.358839 0
M  V30 67 H 38.582791 32.966365 62.387850 0
M  V30 68 H 38.968112 30.872715 63.425560 0
M  V30 69 H 39.645134 38.691395 62.233086 0
M  V30 70 H 40.200137 26.933138 54.065949 0
M  V30 71 H 37.932297 27.669689 57.164991 0
M  V30 72 H 38.868979 31.442356 60.176738 0
M  V30 73 H 40.257049 26.932605 57.424867 0
M  V30 74 H 40.822418 28.016596 56.167901 0
M  V30 75 H 40.226524 28.666072 57.680657 0
M  V30 76 H 39.538610 28.699330 52.586931 0
M  V30 77 H 41.723592 30.572492 63.627075 0
M  V30 END ATOM
M  V30 BEGIN BOND
M  V30 1 1 7 3
M  V30 2 1 8 6
M  V30 3 1 13 4
M  V30 4 1 14 11
M  V30 5 1 15 7
M  V30 6 1 15 12
M  V30 7 1 16 6
M  V30 8 2 17 6
M  V30 9 1 19 10
M  V30 10 1 20 5
M  V30 11 1 20 7
M  V30 12 1 20 10
M  V30 13 1 21 13
M  V30 14 1 22 2
M  V30 15 1 25 4
M  V30 16 1 25 24
M  V30 17 2 26 23
M  V30 18 2 27 8
M  V30 19 1 27 14
M  V30 20 1 28 16
M  V30 21 1 28 26
M  V30 22 1 29 1
M  V30 23 1 29 25
M  V30 24 1 29 26
M  V30 25 2 30 14
M  V30 26 1 30 17
M  V30 27 1 32 1
M  V30 28 1 32 12
M  V30 29 1 32 22
M  V30 30 1 33 5
M  V30 31 1 34 10
M  V30 32 1 34 18
M  V30 33 1 34 31
M  V30 34 1 35 5
M  V30 35 2 35 9
M  V30 36 1 35 31
M  V30 37 1 36 1
M  V30 38 1 37 1
M  V30 39 1 38 2
M  V30 40 1 39 2
M  V30 41 1 40 2
M  V30 42 1 41 3
M  V30 43 1 42 4
M  V30 44 1 43 4
M  V30 45 1 7 44 CFG=3
M  V30 46 1 45 8
M  V30 47 1 46 31
M  V30 48 1 10 47 CFG=1
M  V30 49 1 48 11
M  V30 50 1 49 13
M  V30 51 1 50 13
M  V30 52 1 51 15
M  V30 53 1 52 15
M  V30 54 1 53 16
M  V30 55 1 54 16
M  V30 56 1 55 17
M  V30 57 1 56 18
M  V30 58 1 57 19
M  V30 59 1 58 19
M  V30 60 1 59 19
M  V30 61 1 20 60 CFG=3
M  V30 62 1 61 21
M  V30 63 1 62 24
M  V30 64 1 63 24
M  V30 65 1 64 24
M  V30 66 1 65 27
M  V30 67 1 66 28
M  V30 68 1 67 28
M  V30 69 1 29 68 CFG=1
M  V30 70 1 69 30
M  V30 71 1 70 31
M  V30 72 1 5 71 CFG=1
M  V30 73 1 32 72 CFG=3
M  V30 74 1 73 33
M  V30 75 1 74 33
M  V30 76 1 75 33
M  V30 77 1 34 76 CFG=3
M  V30 78 1 25 77 CFG=3
M  V30 END BOND
M  V30 END CTAB
M  END
>  <i_epik_Tot_Q>  (1) 
1

>  <i_epik_Tot_abs_Q>  (1) 
1

>  <i_i_glide_confnum>  (1) 
2628

>  <i_i_glide_lignum>  (1) 
169

>  <i_i_glide_posenum>  (1) 
189

>  <i_i_glide_rotatable_bonds>  (1) 
18

>  <i_lp_mmshare_version>  (1) 
72125

>  <i_m_source_file_index>  (1) 
76

>  <i_f3d_flags>  (1) 
0

>  <num_sample>  (1) 
100

>  <b_lp_Chiralities_Consistent>  (1) 
1

>  <r_epik_Charging_Adjusted_Penalty>  (1) 
0.52789471212939676

>  <r_epik_Ionization_Penalty>  (1) 
0.26592108790513191

>  <r_epik_Ionization_Penalty_Charging>  (1) 
0.26394735606469838

>  <r_epik_Ionization_Penalty_Neutral>  (1) 
0.0019737318404335234

>  <r_epik_State_Penalty>  (1) 
0.26394735606469838

>  <r_glide_ring_energy>  (1) 
0

>  <r_i_docking_score>  (1) 
-7.7382065298700757

>  <r_i_glide_ecoul>  (1) 
-10.042848062274759

>  <r_i_glide_eff_state_penalty>  (1) 
0.26394735606469838

>  <r_i_glide_einternal>  (1) 
13.508619402806895

>  <r_i_glide_emodel>  (1) 
-74.826806621601051

>  <r_i_glide_emodel_strain>  (1) 
0.25594533993734103

>  <r_i_glide_energy>  (1) 
-54.292932060630505

>  <r_i_glide_erotb>  (1) 
1.0139394581015995

>  <r_i_glide_esite>  (1) 
-0.018138723924299199

>  <r_i_glide_evdw>  (1) 
-44.250083998355748

>  <r_i_glide_gscore>  (1) 
-8.0021538859347743

>  <r_i_glide_gscore_strain>  (1) 
0

>  <r_i_glide_hbond>  (1) 
-0.60799999999999998

>  <r_i_glide_ligand_efficiency>  (1) 
-0.22109161513914502

>  <r_i_glide_ligand_efficiency_ln>  (1) 
-1.6987080735472928

>  <r_i_glide_ligand_efficiency_sa>  (1) 
-0.72320533374683893

>  <r_i_glide_lipo>  (1) 
-3.4422133127806203

>  <r_i_glide_metal>  (1) 
-0

>  <r_i_glide_rewards>  (1) 
-1.228809898072452

>  <r_lp_Energy>  (1) 
26.361654999999999

>  <r_lp_tautomer_probability>  (1) 
0.99989998499911525

>  <s_epik_Chemistry_Notes>  (1) 
This compound contains an acetal/aminal-like group ( X-CH(R)-Y where X, Y are N, S, or O) that may be acid/base labile, releasing an aldehyde.

>  <s_epik_cmdline>  (1) 
J2VwaWtfcHl0aG9uJywgJy1waHQnLCAnMS4wJywgJy1waCcsICc3LjQnLCAnLXRuJywgJzgnLCAnLW1hJywgJzUwMCcsICctaW1hZScsICc8aW5maWxlLm1hZT4nLCAnLW9tYWUnLCAnPG91dGZpbGUubWFlPic=

>  <s_epik_input>  (1) 
W2NIXTFbY0hdYyhbT0hdKVtjSF1bY0hdYzFbQ0gyXVtDSDJdQyg9TylbQ0BIXShOKFtDSDNdKVtDSDJdW0NIMl1bT0hdKVtDSDJdW0NASF0oT1tDSDNdKVNbQ0gyXVtDQEBIXShbT0hdKVtDQEhdMltDQEBIXShbQ0gzXSlbQ0BIXShbT0hdKVtDSDJdQyhbT0hdKT1DMltDSDNd

>  <s_glide_docking_method>  (1) 
confgen

>  <s_i_glide_gridfile>  (1) 
gpcr_5ht2c_6bqh_protein_autoprepared_prepared

>  <s_lp_Force_Field>  (1) 
S-OPLS

>  <s_lp_Variant>  (1) 
DiffSBDD_75-6

>  <s_m_source_file>  (1) 
generated_GPCR_5HT2C_ligand_DiffSBDD_2026-06-23_prepared.sdf

>  <GenAI_Model>  (1) 
DiffSBDD

>  <Protein>  (1) 
GPCR_5HT2C

$$$$
DiffSBDD_77
     RDKit          3D

  0  0  0  0  0  0  0  0  0  0999 V3000
M  V30 BEGIN CTAB
M  V30 COUNTS 71 74 0 0 1
M  V30 BEGIN ATOM
M  V30 1 C 38.096543 29.699564 59.780505 0 CFG=1
M  V30 2 S 38.045602 31.684458 55.505298 0
M  V30 3 C 39.645139 38.937764 61.664930 0
M  V30 4 C 38.522839 30.470305 58.479209 0 CFG=2
M  V30 5 C 40.842775 28.584636 61.710978 0
M  V30 6 C 38.764207 30.077935 55.932565 0 CFG=2
M  V30 7 C 38.916689 29.665478 53.380976 0 CFG=2
M  V30 8 C 38.336249 32.904576 59.445414 0
M  V30 9 C 38.506685 32.586249 56.995533 0
M  V30 10 C 39.353208 27.725791 54.993894 0
M  V30 11 C 39.574117 35.152226 62.383056 0
M  V30 12 C 37.944931 37.109015 61.173077 0
M  V30 13 C 39.111753 26.707370 53.860408 0
M  V30 14 F 40.045217 25.759283 53.953813 0
M  V30 15 C 39.128331 27.337738 52.477956 0
M  V30 16 C 37.346690 32.911986 60.629101 0 CFG=1
M  V30 17 C 39.170097 37.485320 61.767749 0
M  V30 18 C 40.454661 34.093561 63.030373 0
M  V30 19 O 40.045084 30.520429 53.356415 0
M  V30 20 C 36.940386 31.529149 61.114831 0
M  V30 21 C 38.593458 29.056047 54.773900 0 CFG=1
M  V30 22 C 39.047548 28.654049 52.272854 0
M  V30 23 F 39.245127 26.538008 51.410339 0
M  V30 24 O 41.167633 28.625971 59.327932 0
M  V30 25 C 37.982606 31.934439 58.297912 0 CFG=1
M  V30 26 C 38.873442 28.372348 60.016688 0
M  V30 27 C 38.121755 29.616560 57.249670 0
M  V30 28 O 38.771122 39.824197 60.967760 0
M  V30 29 C 38.362327 34.781784 61.767749 0
M  V30 30 O 41.164480 36.834069 62.967564 0
M  V30 31 C 37.542618 35.765928 61.173864 0
M  V30 32 F 37.924525 26.136950 54.065157 0
M  V30 33 O 37.985277 33.463375 61.767754 0
M  V30 34 C 38.110262 30.540458 61.077502 0
M  V30 35 C 40.373287 28.537676 60.261455 0
M  V30 36 C 39.980144 36.498811 62.387414 0
M  V30 37 H 37.062600 29.386236 59.627286 0
M  V30 38 H 40.045139 39.332326 62.598367 0
M  V30 39 H 40.474126 38.937715 60.967761 0
M  V30 40 H 39.607192 30.537720 58.482120 0
M  V30 41 H 40.889999 29.614850 62.062833 0
M  V30 42 H 38.448757 27.849192 60.872269 0
M  V30 43 H 40.157419 28.033349 62.355157 0
M  V30 44 H 39.831929 30.233157 56.093072 0
M  V30 45 H 38.049735 30.252778 53.117884 0
M  V30 46 H 38.365674 33.928388 59.072170 0
M  V30 47 H 39.354741 32.711907 59.781548 0
M  V30 48 H 39.592339 32.684822 57.021321 0
M  V30 49 H 38.100158 33.592381 56.882655 0
M  V30 50 H 40.415687 27.924445 55.113576 0
M  V30 51 H 39.057103 27.247326 55.924947 0
M  V30 52 H 37.323299 37.849830 60.693892 0
M  V30 53 H 36.430437 33.440806 60.370392 0
M  V30 54 H 39.935461 33.147812 63.178047 0
M  V30 55 H 41.324925 33.910033 62.400641 0
M  V30 56 H 40.806534 34.431427 64.005568 0
M  V30 57 H 40.755765 30.115683 53.827556 0
M  V30 58 H 36.568134 31.636755 62.132835 0
M  V30 59 H 36.095669 31.159680 60.532061 0
M  V30 60 H 37.534712 28.791842 54.744433 0
M  V30 61 H 39.072199 29.040494 51.263653 0
M  V30 62 H 41.832115 28.137900 61.805264 0
M  V30 63 H 36.898005 31.894289 58.236920 0
M  V30 64 H 38.744288 27.676677 59.190816 0
M  V30 65 H 38.395508 28.584254 57.420437 0
M  V30 66 H 37.034970 29.615040 57.143904 0
M  V30 67 H 37.913259 39.789246 61.366802 0
M  V30 68 H 41.173455 37.558959 63.587558 0
M  V30 69 H 36.609314 35.490838 60.709961 0
M  V30 70 H 39.068251 31.042018 61.212489 0
M  V30 71 H 38.045147 29.910869 61.961583 0
M  V30 END ATOM
M  V30 BEGIN BOND
M  V30 1 1 4 1
M  V30 2 1 6 2
M  V30 3 1 9 2
M  V30 4 1 13 10
M  V30 5 1 14 13
M  V30 6 1 15 13
M  V30 7 1 16 8
M  V30 8 1 17 3
M  V30 9 1 17 12
M  V30 10 1 18 11
M  V30 11 1 19 7
M  V30 12 1 20 16
M  V30 13 1 21 6
M  V30 14 1 21 7
M  V30 15 1 21 10
M  V30 16 1 22 7
M  V30 17 2 22 15
M  V30 18 1 23 15
M  V30 19 1 25 4
M  V30 20 1 25 8
M  V30 21 1 25 9
M  V30 22 1 26 1
M  V30 23 1 27 4
M  V30 24 1 27 6
M  V30 25 1 28 3
M  V30 26 2 29 11
M  V30 27 2 31 12
M  V30 28 1 31 29
M  V30 29 1 32 13
M  V30 30 1 33 16
M  V30 31 1 33 29
M  V30 32 1 34 1
M  V30 33 1 34 20
M  V30 34 1 35 5
M  V30 35 2 35 24
M  V30 36 1 35 26
M  V30 37 1 36 11
M  V30 38 2 36 17
M  V30 39 1 36 30
M  V30 40 1 1 37 CFG=3
M  V30 41 1 38 3
M  V30 42 1 39 3
M  V30 43 1 4 40 CFG=1
M  V30 44 1 41 5
M  V30 45 1 42 26
M  V30 46 1 43 5
M  V30 47 1 6 44 CFG=1
M  V30 48 1 7 45 CFG=3
M  V30 49 1 46 8
M  V30 50 1 47 8
M  V30 51 1 48 9
M  V30 52 1 49 9
M  V30 53 1 50 10
M  V30 54 1 51 10
M  V30 55 1 52 12
M  V30 56 1 16 53 CFG=3
M  V30 57 1 54 18
M  V30 58 1 55 18
M  V30 59 1 56 18
M  V30 60 1 57 19
M  V30 61 1 58 20
M  V30 62 1 59 20
M  V30 63 1 21 60 CFG=3
M  V30 64 1 61 22
M  V30 65 1 62 5
M  V30 66 1 25 63 CFG=3
M  V30 67 1 64 26
M  V30 68 1 65 27
M  V30 69 1 66 27
M  V30 70 1 67 28
M  V30 71 1 68 30
M  V30 72 1 69 31
M  V30 73 1 70 34
M  V30 74 1 71 34
M  V30 END BOND
M  V30 END CTAB
M  END
>  <i_epik_Tot_Q>  (1) 
0

>  <i_epik_Tot_abs_Q>  (1) 
0

>  <i_i_glide_confnum>  (1) 
41

>  <i_i_glide_lignum>  (1) 
178

>  <i_i_glide_posenum>  (1) 
129

>  <i_i_glide_rotatable_bonds>  (1) 
9

>  <i_lp_mmshare_version>  (1) 
72125

>  <i_m_source_file_index>  (1) 
78

>  <i_f3d_flags>  (1) 
0

>  <num_sample>  (1) 
100

>  <b_lp_Chiralities_Consistent>  (1) 
1

>  <r_epik_Charging_Adjusted_Penalty>  (1) 
0

>  <r_epik_Ionization_Penalty>  (1) 
0.0013117502669173318

>  <r_epik_Ionization_Penalty_Charging>  (1) 
0

>  <r_epik_Ionization_Penalty_Neutral>  (1) 
0.0013117502669173318

>  <r_epik_State_Penalty>  (1) 
-0

>  <r_glide_ring_energy>  (1) 
0

>  <r_i_docking_score>  (1) 
-7.733875582361609

>  <r_i_glide_ecoul>  (1) 
-3.7760247924224966

>  <r_i_glide_eff_state_penalty>  (1) 
-0

>  <r_i_glide_einternal>  (1) 
3.7094400641419547

>  <r_i_glide_emodel>  (1) 
-42.731921140089511

>  <r_i_glide_emodel_strain>  (1) 
1.3692653511780932

>  <r_i_glide_energy>  (1) 
-37.838715562759916

>  <r_i_glide_erotb>  (1) 
0.36862077086586142

>  <r_i_glide_esite>  (1) 
0

>  <r_i_glide_evdw>  (1) 
-34.062690770337419

>  <r_i_glide_gscore>  (1) 
-7.733875582361609

>  <r_i_glide_gscore_strain>  (1) 
0

>  <r_i_glide_hbond>  (1) 
-0.5911498920545899

>  <r_i_glide_ligand_efficiency>  (1) 
-0.21482987728782246

>  <r_i_glide_ligand_efficiency_ln>  (1) 
-1.6873227068996577

>  <r_i_glide_ligand_efficiency_sa>  (1) 
-0.70935262569335

>  <r_i_glide_lipo>  (1) 
-3.2969058285300648

>  <r_i_glide_metal>  (1) 
-0

>  <r_i_glide_rewards>  (1) 
-1.9449023752625707

>  <r_lp_Energy>  (1) 
44.297061999999997

>  <r_lp_tautomer_probability>  (1) 
1

>  <s_epik_cmdline>  (1) 
J2VwaWtfcHl0aG9uJywgJy1waHQnLCAnMS4wJywgJy1waCcsICc3LjQnLCAnLXRuJywgJzgnLCAnLW1hJywgJzUwMCcsICctaW1hZScsICc8aW5maWxlLm1hZT4nLCAnLW9tYWUnLCAnPG91dGZpbGUubWFlPic=

>  <s_epik_input>  (1) 
W09IXVtDSDJdYyhjMVtPSF0pW2NIXVtjSF1jKGMxW0NIM10pT1tDQEhdKFtDSDJdW0NIMl1bQ0BASF0yL1tDSF09QygvW0NIM10pW09IXSlbQ0gyXVtDQEhdKFtDQEBIXTIzKVtDSDJdU1tDQEBIXShbQ0gyXTMpW0NASF0oW0NIMl1DNChGKUYpW0NAQEhdKFtPSF0pW0NIXT1DNEY=

>  <s_glide_docking_method>  (1) 
confgen

>  <s_i_glide_gridfile>  (1) 
gpcr_5ht2c_6bqh_protein_autoprepared_prepared

>  <s_lp_Force_Field>  (1) 
S-OPLS

>  <s_lp_Variant>  (1) 
DiffSBDD_77-1

>  <s_m_source_file>  (1) 
generated_GPCR_5HT2C_ligand_DiffSBDD_2026-06-23_prepared.sdf

>  <GenAI_Model>  (1) 
DiffSBDD

>  <Protein>  (1) 
GPCR_5HT2C

$$$$
DiffSBDD_66
     RDKit          3D

  0  0  0  0  0  0  0  0  0  0999 V3000
M  V30 BEGIN CTAB
M  V30 COUNTS 62 65 0 0 1
M  V30 BEGIN ATOM
M  V30 1 C 38.866605 30.549334 59.772715 0
M  V30 2 C 39.935981 29.316757 59.628793 0
M  V30 3 C 37.759627 30.412160 56.026618 0 CFG=1
M  V30 4 N 37.115315 34.196374 60.616079 0
M  V30 5 O 42.444092 33.708615 64.572384 0 CHG=-1
M  V30 6 O 39.645560 30.054949 54.515066 0
M  V30 7 O 36.825937 30.235104 54.979422 0
M  V30 8 C 41.204639 35.384827 63.407305 0
M  V30 9 C 37.692481 29.259493 58.261215 0
M  V30 10 C 38.457750 27.963561 56.528224 0
M  V30 11 N 37.653747 30.361734 58.982048 0
M  V30 12 C 38.546243 26.004407 54.893492 0
M  V30 13 C 39.170096 34.769035 62.165677 0
M  V30 14 N 37.360952 32.886414 60.588074 0
M  V30 15 C 36.845116 24.159873 54.801865 0
M  V30 16 C 37.876189 29.184262 56.952095 0
M  V30 17 C 39.629337 27.410179 57.421342 0 CFG=1
M  V30 18 C 40.418857 28.573667 58.255946 0
M  V30 19 C 38.568140 25.230743 57.769915 0
M  V30 20 C 36.410829 32.364364 59.825920 0
M  V30 21 C 36.406928 30.878507 59.554398 0
M  V30 22 C 39.089013 30.945655 55.456448 0
M  V30 23 C 35.498602 33.361579 59.367898 0
M  V30 24 C 40.488522 33.065983 63.359545 0
M  V30 25 C 39.229888 26.233206 58.271295 0
M  V30 26 C 37.930624 35.190140 61.316740 0
M  V30 27 C 40.108032 35.757586 62.608581 0
M  V30 28 O 37.587920 36.366629 61.195096 0
M  V30 29 Cl 39.919961 37.416703 62.184677 0
M  V30 30 C 35.999523 34.518079 59.884289 0
M  V30 31 C 37.859396 24.538454 56.931400 0
M  V30 32 C 38.044491 27.350376 55.391093 0
M  V30 33 C 39.384869 33.409691 62.560600 0
M  V30 34 C 37.712917 24.863436 55.532128 0
M  V30 35 C 41.390295 34.049298 63.783088 0
M  V30 36 H 38.623875 30.664691 60.830235 0
M  V30 37 H 39.601898 28.527334 60.302872 0
M  V30 38 H 37.355119 31.234309 56.614413 0
M  V30 39 H 38.951004 29.825472 53.916318 0
M  V30 40 H 36.044782 30.697861 55.264600 0
M  V30 41 H 41.904498 36.136513 63.741356 0
M  V30 42 H 37.848480 28.387390 58.875936 0
M  V30 43 H 40.845477 29.683409 60.103552 0
M  V30 44 H 39.602479 25.848976 55.103588 0
M  V30 45 H 38.449412 26.000789 53.807076 0
M  V30 46 H 36.260999 23.362669 55.239584 0
M  V30 47 H 36.694061 24.381218 53.767654 0
M  V30 48 H 39.246710 31.506470 59.432571 0
M  V30 49 H 40.382655 27.035453 56.728297 0
M  V30 50 H 41.372054 28.114201 58.521367 0
M  V30 51 H 40.702109 29.338704 57.542973 0
M  V30 52 H 36.215327 30.345688 60.485281 0
M  V30 53 H 35.576782 30.620465 58.896173 0
M  V30 54 H 38.921290 31.905201 54.966894 0
M  V30 55 H 39.812009 31.126149 56.250331 0
M  V30 56 H 34.626998 33.243959 58.740485 0
M  V30 57 H 40.633451 32.038633 63.660878 0
M  V30 58 H 39.498791 26.267049 59.314963 0
M  V30 59 H 35.652050 35.537448 59.790893 0
M  V30 60 H 37.334941 23.665973 57.294136 0
M  V30 61 H 37.245918 27.792304 54.814957 0
M  V30 62 H 38.708283 32.637330 62.291899 0
M  V30 END ATOM
M  V30 BEGIN BOND
M  V30 1 1 2 1
M  V30 2 1 7 3
M  V30 3 1 11 1
M  V30 4 1 11 9
M  V30 5 1 14 4
M  V30 6 1 16 3
M  V30 7 2 16 9
M  V30 8 1 16 10
M  V30 9 1 17 10
M  V30 10 1 18 2
M  V30 11 1 18 17
M  V30 12 2 20 14
M  V30 13 1 21 11
M  V30 14 1 21 20
M  V30 15 1 22 3
M  V30 16 1 22 6
M  V30 17 1 23 20
M  V30 18 1 25 17
M  V30 19 2 25 19
M  V30 20 1 26 4
M  V30 21 1 26 13
M  V30 22 1 27 8
M  V30 23 2 27 13
M  V30 24 2 28 26
M  V30 25 1 29 27
M  V30 26 1 30 4
M  V30 27 2 30 23
M  V30 28 2 31 19
M  V30 29 2 32 10
M  V30 30 1 32 12
M  V30 31 1 33 13
M  V30 32 2 33 24
M  V30 33 1 34 12
M  V30 34 2 34 15
M  V30 35 1 34 31
M  V30 36 1 35 5
M  V30 37 2 35 8
M  V30 38 1 35 24
M  V30 39 1 36 1
M  V30 40 1 37 2
M  V30 41 1 3 38 CFG=1
M  V30 42 1 39 6
M  V30 43 1 40 7
M  V30 44 1 41 8
M  V30 45 1 42 9
M  V30 46 1 43 2
M  V30 47 1 44 12
M  V30 48 1 45 12
M  V30 49 1 46 15
M  V30 50 1 47 15
M  V30 51 1 48 1
M  V30 52 1 17 49 CFG=3
M  V30 53 1 50 18
M  V30 54 1 51 18
M  V30 55 1 52 21
M  V30 56 1 53 21
M  V30 57 1 54 22
M  V30 58 1 55 22
M  V30 59 1 56 23
M  V30 60 1 57 24
M  V30 61 1 58 25
M  V30 62 1 59 30
M  V30 63 1 60 31
M  V30 64 1 61 32
M  V30 65 1 62 33
M  V30 END BOND
M  V30 END CTAB
M  END
>  <i_epik_Tot_Q>  (1) 
-1

>  <i_epik_Tot_abs_Q>  (1) 
1

>  <i_i_glide_confnum>  (1) 
17

>  <i_i_glide_lignum>  (1) 
146

>  <i_i_glide_posenum>  (1) 
233

>  <i_i_glide_rotatable_bonds>  (1) 
8

>  <i_lp_mmshare_version>  (1) 
72125

>  <i_m_source_file_index>  (1) 
67

>  <i_f3d_flags>  (1) 
0

>  <num_sample>  (1) 
100

>  <b_lp_Chiralities_Consistent>  (1) 
1

>  <r_epik_Charging_Adjusted_Penalty>  (1) 
0.13314888727576835

>  <r_epik_Ionization_Penalty>  (1) 
0.066709733675270222

>  <r_epik_Ionization_Penalty_Charging>  (1) 
0.066574443637884173

>  <r_epik_Ionization_Penalty_Neutral>  (1) 
0.00013529003738605556

>  <r_epik_State_Penalty>  (1) 
0.066574443637884159

>  <r_glide_ring_energy>  (1) 
0

>  <r_i_docking_score>  (1) 
-7.7281917071737087

>  <r_i_glide_ecoul>  (1) 
-2.7436353134552638

>  <r_i_glide_eff_state_penalty>  (1) 
0.066574443637884159

>  <r_i_glide_einternal>  (1) 
22.742912378014303

>  <r_i_glide_emodel>  (1) 
-61.195528939085762

>  <r_i_glide_emodel_strain>  (1) 
0.74653882939415439

>  <r_i_glide_energy>  (1) 
-51.406948902007464

>  <r_i_glide_erotb>  (1) 
0.50284807503681039

>  <r_i_glide_esite>  (1) 
-0.039461771220159987

>  <r_i_glide_evdw>  (1) 
-48.663313588552199

>  <r_i_glide_gscore>  (1) 
-7.7947661508115926

>  <r_i_glide_gscore_strain>  (1) 
0

>  <r_i_glide_hbond>  (1) 
-0.12459649355211612

>  <r_i_glide_ligand_efficiency>  (1) 
-0.22080547734782024

>  <r_i_glide_ligand_efficiency_ln>  (1) 
-1.6965095976984259

>  <r_i_glide_ligand_efficiency_sa>  (1) 
-0.72226935805756476

>  <r_i_glide_lipo>  (1) 
-4.2931213292757509

>  <r_i_glide_metal>  (1) 
-0

>  <r_i_glide_rewards>  (1) 
-0.99572365535447704

>  <r_lp_Energy>  (1) 
66.601000999999997

>  <r_lp_tautomer_probability>  (1) 
0.99999944244275329

>  <s_epik_cmdline>  (1) 
J2VwaWtfcHl0aG9uJywgJy1waHQnLCAnMS4wJywgJy1waCcsICc3LjQnLCAnLXRuJywgJzgnLCAnLW1hJywgJzUwMCcsICctaW1hZScsICc8aW5maWxlLm1hZT4nLCAnLW9tYWUnLCAnPG91dGZpbGUubWFlPic=

>  <s_epik_input>  (1) 
W0NIXTEvW0NIMl1DKD1bQ0gyXSlbQ0hdPUM9W0NIXVtDQEBIXShDPTFcMilbQ0gyXS9bQ0hdPVtDSF1cTihbQ0gyXVtDQEBIXTJbQ0BASF0oW09IXSlbQ0gyXVtPSF0pW0NIMl1jKFtjSF1bY0hdMylubjNDKD1PKWM0YyhDbClbY0hdYyhbT0hdKVtjSF1bY0hdNA==

>  <s_glide_docking_method>  (1) 
confgen

>  <s_i_glide_gridfile>  (1) 
gpcr_5ht2c_6bqh_protein_autoprepared_prepared

>  <s_lp_Force_Field>  (1) 
S-OPLS

>  <s_lp_Variant>  (1) 
DiffSBDD_66-2

>  <s_m_source_file>  (1) 
generated_GPCR_5HT2C_ligand_DiffSBDD_2026-06-23_prepared.sdf

>  <GenAI_Model>  (1) 
DiffSBDD

>  <Protein>  (1) 
GPCR_5HT2C

$$$$
DiffSBDD_29
     RDKit          3D

  0  0  0  0  0  0  0  0  0  0999 V3000
M  V30 BEGIN CTAB
M  V30 COUNTS 67 69 0 0 1
M  V30 BEGIN ATOM
M  V30 1 C 37.822942 29.975079 56.473417 0 CFG=2
M  V30 2 C 37.420689 31.529430 59.992651 0 CFG=1
M  V30 3 C 40.455845 35.400387 62.856264 0
M  V30 4 O 39.996002 30.539396 55.665754 0 CHG=-1
M  V30 5 C 38.848253 30.969771 55.894279 0
M  V30 6 N 37.246327 30.521055 57.718519 0 CHG=1
M  V30 7 C 38.665088 27.689470 55.378399 0
M  V30 8 N 41.231167 32.683621 64.082559 0
M  V30 9 C 40.359809 30.040699 50.786502 0
M  V30 10 C 38.165412 31.055712 58.739645 0
M  V30 11 O 34.044915 33.089240 59.368134 0
M  V30 12 C 40.105982 33.316981 61.876249 0
M  V30 13 C 39.116826 29.455036 52.786813 0
M  V30 14 O 36.302891 33.618170 60.794019 0
M  V30 15 C 39.280534 27.855665 50.965773 0
M  V30 16 C 39.668826 31.238151 63.037776 0
M  V30 17 C 39.895807 30.372030 52.063209 0
M  V30 18 C 38.675988 30.801264 61.980571 0
M  V30 19 C 41.351613 35.154488 64.011661 0
M  V30 20 C 39.183488 32.985059 60.958081 0
M  V30 21 C 37.574535 27.627675 54.272824 0
M  V30 22 O 38.075011 27.267155 52.977141 0
M  V30 23 C 38.288309 28.494717 56.655044 0
M  V30 24 C 40.877045 34.559283 61.712866 0
M  V30 25 C 40.044389 28.788408 50.232726 0
M  V30 26 N 42.534506 34.002397 65.635252 0
M  V30 27 C 34.976604 32.081432 59.688262 0
M  V30 28 C 38.816420 28.186801 52.251532 0
M  V30 29 C 41.696914 33.953734 64.548175 0
M  V30 30 N 38.419302 31.838892 61.001156 0
M  V30 31 C 36.393766 32.676786 59.731324 0 CFG=2
M  V30 32 C 40.334262 32.415784 63.017030 0
M  V30 33 O 38.453363 32.139026 55.695439 0
M  V30 34 H 36.980617 29.984151 55.784964 0
M  V30 35 H 36.856052 30.680676 60.378498 0
M  V30 36 H 39.411030 35.280686 63.149353 0
M  V30 37 H 40.589114 36.447904 62.583005 0
M  V30 38 H 36.605080 31.265400 57.393435 0
M  V30 39 H 39.603349 28.073989 54.983652 0
M  V30 40 H 38.914293 26.668922 55.674259 0
M  V30 41 H 41.458581 31.894769 64.667753 0
M  V30 42 H 40.956916 30.748323 50.227448 0
M  V30 43 H 38.741172 31.896399 58.352212 0
M  V30 44 H 38.878597 30.274733 59.003791 0
M  V30 45 H 34.125437 33.260874 58.437856 0
M  V30 46 H 38.751928 29.725538 53.745551 0
M  V30 47 H 35.501143 34.112123 60.664405 0
M  V30 48 H 39.052905 26.890171 50.539759 0
M  V30 49 H 39.825283 30.549981 63.857267 0
M  V30 50 H 40.126259 31.336433 52.490803 0
M  V30 51 H 39.025026 29.894784 61.482400 0
M  V30 52 H 37.743072 30.553365 62.478002 0
M  V30 53 H 41.759274 36.048931 64.464892 0
M  V30 54 H 38.975579 33.612860 60.101383 0
M  V30 55 H 36.848720 26.874472 54.570606 0
M  V30 56 H 37.005797 28.552702 54.185888 0
M  V30 57 H 39.143846 28.474601 57.332498 0
M  V30 58 H 37.501833 27.947362 57.175537 0
M  V30 59 H 40.628843 35.042741 60.768247 0
M  V30 60 H 41.939198 34.323307 61.688638 0
M  V30 61 H 40.405869 28.538649 49.253777 0
M  V30 62 H 42.876541 34.879092 66.000937 0
M  V30 63 H 42.845104 33.166415 66.110107 0
M  V30 64 H 34.737955 31.663937 60.665501 0
M  V30 65 H 34.892719 31.263198 58.967760 0
M  V30 66 H 36.646017 33.223470 58.813712 0
M  V30 67 H 36.664890 29.809651 58.123826 0
M  V30 END ATOM
M  V30 BEGIN BOND
M  V30 1 1 5 1
M  V30 2 1 5 4
M  V30 3 1 6 1
M  V30 4 1 10 2
M  V30 5 1 10 6
M  V30 6 2 17 9
M  V30 7 1 17 13
M  V30 8 1 18 16
M  V30 9 1 19 3
M  V30 10 2 20 12
M  V30 11 1 21 7
M  V30 12 1 22 21
M  V30 13 1 23 1
M  V30 14 1 23 7
M  V30 15 1 24 3
M  V30 16 1 24 12
M  V30 17 1 25 9
M  V30 18 2 25 15
M  V30 19 1 27 11
M  V30 20 2 28 13
M  V30 21 1 28 15
M  V30 22 1 28 22
M  V30 23 1 29 8
M  V30 24 2 29 19
M  V30 25 1 29 26
M  V30 26 1 30 2
M  V30 27 1 30 18
M  V30 28 1 30 20
M  V30 29 1 31 2
M  V30 30 1 31 14
M  V30 31 1 31 27
M  V30 32 1 32 8
M  V30 33 1 32 12
M  V30 34 2 32 16
M  V30 35 2 33 5
M  V30 36 1 1 34 CFG=3
M  V30 37 1 2 35 CFG=1
M  V30 38 1 36 3
M  V30 39 1 37 3
M  V30 40 1 38 6
M  V30 41 1 39 7
M  V30 42 1 40 7
M  V30 43 1 41 8
M  V30 44 1 42 9
M  V30 45 1 43 10
M  V30 46 1 44 10
M  V30 47 1 45 11
M  V30 48 1 46 13
M  V30 49 1 47 14
M  V30 50 1 48 15
M  V30 51 1 49 16
M  V30 52 1 50 17
M  V30 53 1 51 18
M  V30 54 1 52 18
M  V30 55 1 53 19
M  V30 56 1 54 20
M  V30 57 1 55 21
M  V30 58 1 56 21
M  V30 59 1 57 23
M  V30 60 1 58 23
M  V30 61 1 59 24
M  V30 62 1 60 24
M  V30 63 1 61 25
M  V30 64 1 62 26
M  V30 65 1 63 26
M  V30 66 1 64 27
M  V30 67 1 65 27
M  V30 68 1 31 66 CFG=3
M  V30 69 1 67 6
M  V30 END BOND
M  V30 END CTAB
M  END
>  <i_epik_Tot_Q>  (1) 
0

>  <i_epik_Tot_abs_Q>  (1) 
2

>  <i_i_glide_confnum>  (1) 
1061

>  <i_i_glide_lignum>  (1) 
71

>  <i_i_glide_posenum>  (1) 
234

>  <i_i_glide_rotatable_bonds>  (1) 
14

>  <i_lp_mmshare_version>  (1) 
72125

>  <i_m_source_file_index>  (1) 
30

>  <i_f3d_flags>  (1) 
0

>  <num_sample>  (1) 
100

>  <b_lp_Chiralities_Consistent>  (1) 
1

>  <r_epik_Charging_Adjusted_Penalty>  (1) 
0.034631310211383798

>  <r_epik_Ionization_Penalty>  (1) 
0.017323838479102703

>  <r_epik_Ionization_Penalty_Charging>  (1) 
0.017317780737554234

>  <r_epik_Ionization_Penalty_Neutral>  (1) 
6.0577415484694341e-06

>  <r_epik_State_Penalty>  (1) 
0.017313529473829564

>  <r_glide_ring_energy>  (1) 
0

>  <r_i_docking_score>  (1) 
-7.7275351745739638

>  <r_i_glide_ecoul>  (1) 
-7.8455331679797897

>  <r_i_glide_eff_state_penalty>  (1) 
0.017313529473829564

>  <r_i_glide_einternal>  (1) 
21.253242447501997

>  <r_i_glide_emodel>  (1) 
-74.716431739729799

>  <r_i_glide_emodel_strain>  (1) 
1.6547947159392606

>  <r_i_glide_energy>  (1) 
-53.456676557946388

>  <r_i_glide_erotb>  (1) 
0.9565242385311874

>  <r_i_glide_esite>  (1) 
-0.12386702982104808

>  <r_i_glide_evdw>  (1) 
-45.6111433899666

>  <r_i_glide_gscore>  (1) 
-7.7448487040477936

>  <r_i_glide_gscore_strain>  (1) 
0

>  <r_i_glide_hbond>  (1) 
-0.19016549675219899

>  <r_i_glide_ligand_efficiency>  (1) 
-0.2341677325628474

>  <r_i_glide_ligand_efficiency_ln>  (1) 
-1.7185638117894602

>  <r_i_glide_ligand_efficiency_sa>  (1) 
-0.75110104117261467

>  <r_i_glide_lipo>  (1) 
-3.9020308263225285

>  <r_i_glide_metal>  (1) 
-0

>  <r_i_glide_rewards>  (1) 
-1.027922444987907

>  <r_lp_Energy>  (1) 
46.756611999999997

>  <r_lp_tautomer_probability>  (1) 
1

>  <s_epik_Chemistry_Notes>  (1) 
This compound has an imine and may undergo hydrolysis.

>  <s_epik_cmdline>  (1) 
J2VwaWtfcHl0aG9uJywgJy1waHQnLCAnMS4wJywgJy1waCcsICc3LjQnLCAnLXRuJywgJzgnLCAnLW1hJywgJzUwMCcsICctaW1hZScsICc8aW5maWxlLm1hZT4nLCAnLW9tYWUnLCAnPG91dGZpbGUubWFlPic=

>  <s_epik_input>  (1) 
W2NIXTFbY0hdW2NIXVtjSF1bY0hdYzFPW0NIMl1bQ0gyXVtDSDJdW0NASF0oQyg9TylbT0hdKVtOSF1bQ0gyXVtDQEhdKFtDQEhdKFtPSF0pW0NIMl1bT0hdKU4oW0NIXTIpW0NIMl1bQ0hdPUMoQz0yMylbTkhdQyhbTkgyXSk9W0NIXVtDSDJdW0NIMl0z

>  <s_glide_docking_method>  (1) 
confgen

>  <s_i_glide_gridfile>  (1) 
gpcr_5ht2c_6bqh_protein_autoprepared_prepared

>  <s_lp_Force_Field>  (1) 
S-OPLS

>  <s_lp_Variant>  (1) 
DiffSBDD_29-1

>  <s_m_source_file>  (1) 
generated_GPCR_5HT2C_ligand_DiffSBDD_2026-06-23_prepared.sdf

>  <GenAI_Model>  (1) 
DiffSBDD

>  <Protein>  (1) 
GPCR_5HT2C

$$$$
DiffSBDD_29
     RDKit          3D

  0  0  0  0  0  0  0  0  0  0999 V3000
M  V30 BEGIN CTAB
M  V30 COUNTS 67 69 0 0 1
M  V30 BEGIN ATOM
M  V30 1 C 36.940411 31.620796 59.741125 0 CFG=2
M  V30 2 C 37.856499 28.258240 58.059183 0 CFG=1
M  V30 3 C 40.108196 30.715358 53.342059 0
M  V30 4 O 39.228737 31.493327 60.394599 0 CHG=-1
M  V30 5 C 38.043745 31.470019 60.798240 0
M  V30 6 N 37.315440 30.772487 58.586972 0 CHG=1
M  V30 7 C 36.456560 34.088018 60.447343 0
M  V30 8 N 38.839177 28.091592 52.412034 0
M  V30 9 C 40.639968 36.164866 63.014934 0
M  V30 10 C 36.906436 29.349645 58.677824 0
M  V30 11 O 41.584743 28.137152 58.907958 0
M  V30 12 C 38.554685 29.458429 54.587656 0
M  V30 13 C 39.213035 35.607761 61.119877 0
M  V30 14 O 39.042526 28.137767 60.177165 0
M  V30 15 C 38.325620 36.937734 62.966796 0
M  V30 16 C 38.336082 27.042220 54.475931 0
M  V30 17 C 40.459249 35.537482 61.770104 0
M  V30 18 C 38.045752 26.959072 55.961566 0
M  V30 19 C 40.045197 30.190996 51.962219 0
M  V30 20 C 38.294512 29.411267 55.898990 0
M  V30 21 C 36.588984 35.556215 59.999049 0
M  V30 22 O 36.899658 36.400584 61.102948 0
M  V30 23 C 36.811964 33.104151 59.318048 0
M  V30 24 C 38.784774 30.770812 53.968048 0
M  V30 25 C 39.574163 36.864383 63.613020 0
M  V30 26 N 39.599533 28.746212 50.211488 0
M  V30 27 C 40.426045 28.701588 58.338980 0
M  V30 28 C 38.135647 36.313751 61.720298 0
M  V30 29 C 39.486281 29.029027 51.552622 0
M  V30 30 N 38.045199 28.262855 56.611916 0
M  V30 31 C 39.183080 27.918196 58.795879 0 CFG=2
M  V30 32 C 38.591114 28.192264 53.811868 0
M  V30 33 O 37.677074 31.337760 61.982254 0
M  V30 34 H 35.978422 31.289506 60.136562 0
M  V30 35 H 37.252868 27.358959 58.168539 0
M  V30 36 H 40.845202 30.198090 53.953594 0
M  V30 37 H 40.445145 31.737753 53.231675 0
M  V30 38 H 36.888485 31.170530 57.754346 0
M  V30 39 H 35.448579 33.900752 60.818932 0
M  V30 40 H 37.107098 33.916174 61.301395 0
M  V30 41 H 38.612752 27.201056 51.993392 0
M  V30 42 H 41.597281 36.112499 63.512882 0
M  V30 43 H 35.918053 29.271440 58.226510 0
M  V30 44 H 36.756833 29.123506 59.731358 0
M  V30 45 H 41.771468 27.315979 58.477135 0
M  V30 46 H 39.087067 35.121937 60.167890 0
M  V30 47 H 39.910320 28.126823 60.559125 0
M  V30 48 H 37.510576 37.474022 63.429307 0
M  V30 49 H 38.340280 26.105004 53.938774 0
M  V30 50 H 41.277274 35.001606 61.312061 0
M  V30 51 H 37.078444 26.474282 56.096831 0
M  V30 52 H 38.799057 26.315361 56.416625 0
M  V30 53 H 40.524255 30.815825 51.219907 0
M  V30 54 H 38.268950 30.303490 56.489169 0
M  V30 55 H 37.310162 35.692504 59.195471 0
M  V30 56 H 35.646240 35.888733 59.568204 0
M  V30 57 H 37.742308 33.421076 58.843706 0
M  V30 58 H 36.035049 33.204173 58.567402 0
M  V30 59 H 38.836596 31.533455 54.747741 0
M  V30 60 H 37.948363 31.072246 53.367754 0
M  V30 61 H 39.714376 37.346330 64.569894 0
M  V30 62 H 39.972424 29.422200 49.560453 0
M  V30 63 H 39.149433 27.940019 49.801717 0
M  V30 64 H 40.354676 29.738377 58.638270 0
M  V30 65 H 40.557850 28.674582 57.257654 0
M  V30 66 H 39.385039 26.856141 58.648481 0
M  V30 67 H 38.323992 30.840499 58.549159 0
M  V30 END ATOM
M  V30 BEGIN BOND
M  V30 1 1 5 1
M  V30 2 1 5 4
M  V30 3 1 6 1
M  V30 4 1 10 2
M  V30 5 1 10 6
M  V30 6 2 17 9
M  V30 7 1 17 13
M  V30 8 1 18 16
M  V30 9 1 19 3
M  V30 10 2 20 12
M  V30 11 1 21 7
M  V30 12 1 22 21
M  V30 13 1 23 1
M  V30 14 1 23 7
M  V30 15 1 24 3
M  V30 16 1 24 12
M  V30 17 1 25 9
M  V30 18 2 25 15
M  V30 19 1 27 11
M  V30 20 2 28 13
M  V30 21 1 28 15
M  V30 22 1 28 22
M  V30 23 1 29 8
M  V30 24 2 29 19
M  V30 25 1 29 26
M  V30 26 1 30 2
M  V30 27 1 30 18
M  V30 28 1 30 20
M  V30 29 1 31 2
M  V30 30 1 31 14
M  V30 31 1 31 27
M  V30 32 1 32 8
M  V30 33 1 32 12
M  V30 34 2 32 16
M  V30 35 2 33 5
M  V30 36 1 1 34 CFG=1
M  V30 37 1 2 35 CFG=3
M  V30 38 1 36 3
M  V30 39 1 37 3
M  V30 40 1 38 6
M  V30 41 1 39 7
M  V30 42 1 40 7
M  V30 43 1 41 8
M  V30 44 1 42 9
M  V30 45 1 43 10
M  V30 46 1 44 10
M  V30 47 1 45 11
M  V30 48 1 46 13
M  V30 49 1 47 14
M  V30 50 1 48 15
M  V30 51 1 49 16
M  V30 52 1 50 17
M  V30 53 1 51 18
M  V30 54 1 52 18
M  V30 55 1 53 19
M  V30 56 1 54 20
M  V30 57 1 55 21
M  V30 58 1 56 21
M  V30 59 1 57 23
M  V30 60 1 58 23
M  V30 61 1 59 24
M  V30 62 1 60 24
M  V30 63 1 61 25
M  V30 64 1 62 26
M  V30 65 1 63 26
M  V30 66 1 64 27
M  V30 67 1 65 27
M  V30 68 1 31 66 CFG=1
M  V30 69 1 67 6
M  V30 END BOND
M  V30 END CTAB
M  END
>  <i_epik_Tot_Q>  (1) 
0

>  <i_epik_Tot_abs_Q>  (1) 
2

>  <i_i_glide_confnum>  (1) 
318

>  <i_i_glide_lignum>  (1) 
71

>  <i_i_glide_posenum>  (1) 
12

>  <i_i_glide_rotatable_bonds>  (1) 
14

>  <i_lp_mmshare_version>  (1) 
72125

>  <i_m_source_file_index>  (1) 
30

>  <i_f3d_flags>  (1) 
0

>  <num_sample>  (1) 
100

>  <b_lp_Chiralities_Consistent>  (1) 
1

>  <r_epik_Charging_Adjusted_Penalty>  (1) 
0.034631310211383798

>  <r_epik_Ionization_Penalty>  (1) 
0.017323838479102703

>  <r_epik_Ionization_Penalty_Charging>  (1) 
0.017317780737554234

>  <r_epik_Ionization_Penalty_Neutral>  (1) 
6.0577415484694341e-06

>  <r_epik_State_Penalty>  (1) 
0.017313529473829564

>  <r_glide_ring_energy>  (1) 
0

>  <r_i_docking_score>  (1) 
-7.7149468760140909

>  <r_i_glide_ecoul>  (1) 
-7.7164115387079786

>  <r_i_glide_eff_state_penalty>  (1) 
0.017313529473829564

>  <r_i_glide_einternal>  (1) 
15.969127985021315

>  <r_i_glide_emodel>  (1) 
-74.792694316772767

>  <r_i_glide_emodel_strain>  (1) 
2.4563432759940014

>  <r_i_glide_energy>  (1) 
-51.746947510199277

>  <r_i_glide_erotb>  (1) 
0.9565242385311874

>  <r_i_glide_esite>  (1) 
-0.092870337517780829

>  <r_i_glide_evdw>  (1) 
-44.030535971491297

>  <r_i_glide_gscore>  (1) 
-7.7322604054879207

>  <r_i_glide_gscore_strain>  (1) 
0

>  <r_i_glide_hbond>  (1) 
-0.33388990493117299

>  <r_i_glide_ligand_efficiency>  (1) 
-0.23378626897012397

>  <r_i_glide_ligand_efficiency_ln>  (1) 
-1.715764239368466

>  <r_i_glide_ligand_efficiency_sa>  (1) 
-0.74987748360331075

>  <r_i_glide_lipo>  (1) 
-4.0032395478628029

>  <r_i_glide_metal>  (1) 
-0

>  <r_i_glide_rewards>  (1) 
-0.89979632432659029

>  <r_lp_Energy>  (1) 
46.756611999999997

>  <r_lp_tautomer_probability>  (1) 
1

>  <s_epik_Chemistry_Notes>  (1) 
This compound has an imine and may undergo hydrolysis.

>  <s_epik_cmdline>  (1) 
J2VwaWtfcHl0aG9uJywgJy1waHQnLCAnMS4wJywgJy1waCcsICc3LjQnLCAnLXRuJywgJzgnLCAnLW1hJywgJzUwMCcsICctaW1hZScsICc8aW5maWxlLm1hZT4nLCAnLW9tYWUnLCAnPG91dGZpbGUubWFlPic=

>  <s_epik_input>  (1) 
W2NIXTFbY0hdW2NIXVtjSF1bY0hdYzFPW0NIMl1bQ0gyXVtDSDJdW0NASF0oQyg9TylbT0hdKVtOSF1bQ0gyXVtDQEhdKFtDQEhdKFtPSF0pW0NIMl1bT0hdKU4oW0NIXTIpW0NIMl1bQ0hdPUMoQz0yMylbTkhdQyhbTkgyXSk9W0NIXVtDSDJdW0NIMl0z

>  <s_glide_docking_method>  (1) 
confgen

>  <s_i_glide_gridfile>  (1) 
gpcr_5ht2c_6bqh_protein_autoprepared_prepared

>  <s_lp_Force_Field>  (1) 
S-OPLS

>  <s_lp_Variant>  (1) 
DiffSBDD_29-1

>  <s_m_source_file>  (1) 
generated_GPCR_5HT2C_ligand_DiffSBDD_2026-06-23_prepared.sdf

>  <GenAI_Model>  (1) 
DiffSBDD

>  <Protein>  (1) 
GPCR_5HT2C

$$$$
DiffSBDD_25
     RDKit          3D

  0  0  0  0  0  0  0  0  0  0999 V3000
M  V30 BEGIN CTAB
M  V30 COUNTS 67 70 0 0 1
M  V30 BEGIN ATOM
M  V30 1 C 40.416102 34.459209 62.651383 0
M  V30 2 C 39.739985 25.905641 56.481096 0
M  V30 3 O 40.988195 35.166656 63.511239 0 CHG=-1
M  V30 4 C 39.330628 28.638191 60.413520 0
M  V30 5 N 38.314192 32.120352 59.837447 0
M  V30 6 C 39.361343 25.537075 55.040050 0
M  V30 7 C 39.020209 36.489286 61.841205 0
M  V30 8 C 37.245200 36.330161 60.359298 0
M  V30 9 C 36.858660 28.240438 53.722670 0
M  V30 10 C 38.109165 26.245767 54.504883 0
M  V30 11 C 38.117244 27.800711 54.478754 0 CFG=2
M  V30 12 C 36.324410 34.163418 59.427546 0
M  V30 13 O 39.148569 27.752269 52.377466 0
M  V30 14 O 38.486049 32.144975 62.167810 0
M  V30 15 N 39.210550 28.933839 58.072017 0
M  V30 16 C 38.320688 34.257067 61.068979 0
M  V30 17 O 40.785396 33.294407 62.393803 0
M  V30 18 C 39.412987 29.764440 53.564298 0
M  V30 19 C 39.228665 35.071204 61.855401 0
M  V30 20 C 38.104004 28.362845 55.926972 0
M  V30 21 C 39.445160 28.487548 56.692375 0 CFG=2
M  V30 22 C 38.384315 32.732834 61.086449 0
M  V30 23 C 38.663139 30.281043 58.237118 0
M  V30 24 N 38.045101 37.087893 61.127646 0
M  V30 25 C 39.830461 29.918814 52.120865 0
M  V30 26 C 39.458583 28.165008 59.180787 0
M  V30 27 N 39.845480 37.337863 62.567788 0
M  V30 28 N 39.245135 28.313247 53.711064 0
M  V30 29 C 40.409178 27.283702 56.553512 0
M  V30 30 C 38.623053 30.867603 59.677024 0
M  V30 31 C 39.536409 28.315003 50.160189 0
M  V30 32 N 38.946369 29.938555 60.699774 0
M  V30 33 C 39.023138 28.828546 51.475747 0 CFG=1
M  V30 34 C 37.322845 34.930469 60.294317 0
M  V30 35 H 40.445150 25.159720 56.843396 0
M  V30 36 H 38.879432 25.843636 57.148759 0
M  V30 37 H 39.530971 28.036833 61.289051 0
M  V30 38 H 40.202653 25.715135 54.370451 0
M  V30 39 H 39.174504 24.466842 54.996870 0
M  V30 40 H 36.494931 36.859727 59.790384 0
M  V30 41 H 36.045141 27.737747 54.167834 0
M  V30 42 H 36.682498 29.314606 53.767732 0
M  V30 43 H 36.810796 27.912163 52.687608 0
M  V30 44 H 37.914450 25.867981 53.502100 0
M  V30 45 H 37.254776 25.905353 55.091806 0
M  V30 46 H 35.484447 34.803868 59.156474 0
M  V30 47 H 36.787339 33.838316 58.494990 0
M  V30 48 H 35.900197 33.300543 59.942397 0
M  V30 49 H 38.496957 30.320234 53.751937 0
M  V30 50 H 40.171980 30.150047 54.244296 0
M  V30 51 H 37.448505 27.748145 56.541667 0
M  V30 52 H 37.637636 29.347504 55.896644 0
M  V30 53 H 39.989560 29.317979 56.244513 0
M  V30 54 H 39.228416 30.967869 57.605094 0
M  V30 55 H 37.640256 30.291816 57.862304 0
M  V30 56 H 40.876987 29.689717 51.992452 0
M  V30 57 H 39.645057 30.912675 51.712492 0
M  V30 58 H 39.768268 27.153363 58.975190 0
M  V30 59 H 40.573854 36.958130 63.173168 0
M  V30 60 H 39.685141 38.329586 62.604603 0
M  V30 61 H 40.985842 27.422378 55.644853 0
M  V30 62 H 41.173968 27.302447 57.330953 0
M  V30 63 H 39.659296 29.109294 49.423828 0
M  V30 64 H 40.470911 27.789513 50.291961 0
M  V30 65 H 38.845138 27.575323 49.767774 0
M  V30 66 H 37.990122 29.145918 51.369330 0
M  V30 67 H 38.939108 30.206396 61.676019 0
M  V30 END ATOM
M  V30 BEGIN BOND
M  V30 1 1 3 1
M  V30 2 1 6 2
M  V30 3 1 10 6
M  V30 4 1 11 9 CFG=3
M  V30 5 1 11 10
M  V30 6 2 17 1
M  V30 7 1 19 1
M  V30 8 2 19 7
M  V30 9 1 19 16
M  V30 10 1 20 11
M  V30 11 1 21 15
M  V30 12 1 21 20
M  V30 13 1 22 5
M  V30 14 2 22 14
M  V30 15 1 22 16
M  V30 16 1 23 15
M  V30 17 1 24 7
M  V30 18 2 24 8
M  V30 19 1 25 18
M  V30 20 2 26 4
M  V30 21 1 26 15
M  V30 22 1 27 7
M  V30 23 1 28 11
M  V30 24 1 28 13
M  V30 25 1 28 18
M  V30 26 1 29 2
M  V30 27 1 29 21
M  V30 28 2 30 5
M  V30 29 1 30 23
M  V30 30 1 32 4
M  V30 31 1 32 30
M  V30 32 1 33 13
M  V30 33 1 33 25
M  V30 34 1 33 31
M  V30 35 1 34 8
M  V30 36 1 34 12
M  V30 37 2 34 16
M  V30 38 1 35 2
M  V30 39 1 36 2
M  V30 40 1 37 4
M  V30 41 1 38 6
M  V30 42 1 39 6
M  V30 43 1 40 8
M  V30 44 1 41 9
M  V30 45 1 42 9
M  V30 46 1 43 9
M  V30 47 1 44 10
M  V30 48 1 45 10
M  V30 49 1 46 12
M  V30 50 1 47 12
M  V30 51 1 48 12
M  V30 52 1 49 18
M  V30 53 1 50 18
M  V30 54 1 51 20
M  V30 55 1 52 20
M  V30 56 1 21 53 CFG=3
M  V30 57 1 54 23
M  V30 58 1 55 23
M  V30 59 1 56 25
M  V30 60 1 57 25
M  V30 61 1 58 26
M  V30 62 1 59 27
M  V30 63 1 60 27
M  V30 64 1 61 29
M  V30 65 1 62 29
M  V30 66 1 63 31
M  V30 67 1 64 31
M  V30 68 1 65 31
M  V30 69 1 33 66 CFG=3
M  V30 70 1 67 32
M  V30 END BOND
M  V30 END CTAB
M  END
>  <i_epik_Tot_Q>  (1) 
-1

>  <i_epik_Tot_abs_Q>  (1) 
1

>  <i_i_glide_confnum>  (1) 
379

>  <i_i_glide_lignum>  (1) 
62

>  <i_i_glide_posenum>  (1) 
232

>  <i_i_glide_rotatable_bonds>  (1) 
5

>  <i_lp_mmshare_version>  (1) 
72125

>  <i_m_source_file_index>  (1) 
26

>  <i_f3d_flags>  (1) 
0

>  <num_sample>  (1) 
100

>  <b_lp_Chiralities_Consistent>  (1) 
1

>  <r_epik_Charging_Adjusted_Penalty>  (1) 
0.31558791334810349

>  <r_epik_Ionization_Penalty>  (1) 
0.22690283062159758

>  <r_epik_Ionization_Penalty_Charging>  (1) 
2.1847890769935955e-05

>  <r_epik_Ionization_Penalty_Neutral>  (1) 
0.22688098273082763

>  <r_epik_State_Penalty>  (1) 
0.31556606545733357

>  <r_glide_ring_energy>  (1) 
1.261254924330955

>  <r_i_docking_score>  (1) 
-7.703103584466251

>  <r_i_glide_ecoul>  (1) 
-0.81365605216103443

>  <r_i_glide_eff_state_penalty>  (1) 
0.31556606545733357

>  <r_i_glide_einternal>  (1) 
1.4925262510556365

>  <r_i_glide_emodel>  (1) 
-65.244869298657775

>  <r_i_glide_emodel_strain>  (1) 
0.52653169541196121

>  <r_i_glide_energy>  (1) 
-46.803558282093654

>  <r_i_glide_erotb>  (1) 
0.36642180475109298

>  <r_i_glide_esite>  (1) 
-0.0048402328879259878

>  <r_i_glide_evdw>  (1) 
-45.989902229932618

>  <r_i_glide_gscore>  (1) 
-8.0186696499235843

>  <r_i_glide_gscore_strain>  (1) 
0

>  <r_i_glide_hbond>  (1) 
0

>  <r_i_glide_ligand_efficiency>  (1) 
-0.22656187013136031

>  <r_i_glide_ligand_efficiency_ln>  (1) 
-1.7018316465455388

>  <r_i_glide_ligand_efficiency_sa>  (1) 
-0.73397250819705151

>  <r_i_glide_lipo>  (1) 
-4.2307670542067459

>  <r_i_glide_metal>  (1) 
-0

>  <r_i_glide_rewards>  (1) 
-1.7279406482592192

>  <r_lp_Energy>  (1) 
74.56592599999999

>  <s_epik_Chemistry_Notes>  (1) 
This compound has an imine and may undergo hydrolysis. This compound has a N-S or N-O group and may undergo hydrolysis at high or low pH.

>  <s_epik_cmdline>  (1) 
J2VwaWtfcHl0aG9uJywgJy1waHQnLCAnMS4wJywgJy1waCcsICc3LjQnLCAnLXRuJywgJzgnLCAnLW1hJywgJzUwMCcsICctaW1hZScsICc8aW5maWxlLm1hZT4nLCAnLW9tYWUnLCAnPG91dGZpbGUubWFlPic=

>  <s_epik_input>  (1) 
W09IXUMoPU8pYyhjMVtOSDJdKWMoYyhbY0hdbjEpW0NIM10pQyg9TylbTkhdQyg9TltDSF09W0NIXTIpW0NIMl1OMltDQEhdKFtDSDJdMylbQ0gyXVtDSDJdW0NIMl1bQ0gyXVtDQF0zKFtDSDNdKU40T1tDQEBIXShbQ0gzXSlbQ0gyXVtDSDJdNA==

>  <s_glide_docking_method>  (1) 
confgen

>  <s_i_glide_gridfile>  (1) 
gpcr_5ht2c_6bqh_protein_autoprepared_prepared

>  <s_lp_Force_Field>  (1) 
S-OPLS

>  <s_lp_Variant>  (1) 
DiffSBDD_25-2

>  <s_m_source_file>  (1) 
generated_GPCR_5HT2C_ligand_DiffSBDD_2026-06-23_prepared.sdf

>  <GenAI_Model>  (1) 
DiffSBDD

>  <Protein>  (1) 
GPCR_5HT2C

$$$$
DiffSBDD_29
     RDKit          3D

  0  0  0  0  0  0  0  0  0  0999 V3000
M  V30 BEGIN CTAB
M  V30 COUNTS 67 69 0 0 1
M  V30 BEGIN ATOM
M  V30 1 C 37.739893 29.640121 56.320865 0 CFG=2
M  V30 2 C 37.645203 31.122750 59.913698 0 CFG=1
M  V30 3 C 40.061441 35.559180 62.471085 0
M  V30 4 O 39.645130 30.978178 55.803352 0 CHG=-1
M  V30 5 C 38.435222 30.784052 55.562943 0
M  V30 6 N 37.245079 30.137949 57.623085 0 CHG=1
M  V30 7 C 39.211742 27.760942 55.178916 0
M  V30 8 N 41.228499 33.120137 63.912256 0
M  V30 9 C 40.250814 30.538286 50.317551 0
M  V30 10 C 38.238006 30.762464 58.539794 0
M  V30 11 O 34.845047 33.337777 61.197848 0
M  V30 12 C 40.091264 33.387024 61.625924 0
M  V30 13 C 39.634503 28.193302 50.588600 0
M  V30 14 O 36.588900 33.155229 58.966743 0
M  V30 15 C 39.643758 29.684609 52.505895 0
M  V30 16 C 39.897391 31.385261 62.982737 0
M  V30 17 C 40.045157 29.265062 49.768028 0
M  V30 18 C 38.999290 30.715376 61.954109 0
M  V30 19 C 41.039245 35.559226 63.585860 0
M  V30 20 C 39.274937 32.833323 60.711188 0
M  V30 21 C 38.287551 27.609329 53.951733 0
M  V30 22 O 39.022902 27.342445 52.755736 0
M  V30 23 C 38.539310 28.309304 56.455638 0
M  V30 24 C 40.641984 34.737567 61.380553 0
M  V30 25 C 40.048474 30.748305 51.686463 0
M  V30 26 N 42.445045 34.743654 65.240294 0
M  V30 27 C 36.094576 32.706308 61.260736 0
M  V30 28 C 39.427884 28.400055 51.959228 0
M  V30 29 C 41.562965 34.476914 64.217812 0
M  V30 30 N 38.686157 31.587688 60.833570 0
M  V30 31 C 36.424114 32.094542 59.888407 0 CFG=2
M  V30 32 C 40.404374 32.634369 62.857689 0
M  V30 33 O 37.739001 31.433723 54.756698 0
M  V30 34 H 36.845250 29.409417 55.743797 0
M  V30 35 H 37.268614 30.189550 60.333290 0
M  V30 36 H 39.069621 35.247489 62.805840 0
M  V30 37 H 39.959766 36.590490 62.129103 0
M  V30 38 H 36.551420 30.849271 57.367859 0
M  V30 39 H 40.045510 28.414485 54.961597 0
M  V30 40 H 39.668541 26.795009 55.393159 0
M  V30 41 H 41.538172 32.430713 64.579563 0
M  V30 42 H 40.565582 31.353437 49.687389 0
M  V30 43 H 38.645576 31.672563 58.098398 0
M  V30 44 H 39.079092 30.082496 58.682262 0
M  V30 45 H 34.886638 33.976931 60.498747 0
M  V30 46 H 39.475263 27.212485 50.167058 0
M  V30 47 H 36.209887 32.889530 58.128407 0
M  V30 48 H 39.500600 29.851383 53.541964 0
M  V30 49 H 40.119668 30.807410 63.869266 0
M  V30 50 H 40.203186 29.107148 48.716233 0
M  V30 51 H 39.487041 29.810705 61.593242 0
M  V30 52 H 38.078170 30.414011 62.453474 0
M  V30 53 H 41.350369 36.536525 63.913152 0
M  V30 54 H 39.006486 33.353160 59.801610 0
M  V30 55 H 37.612536 26.770045 54.120679 0
M  V30 56 H 37.640550 28.474057 53.810193 0
M  V30 57 H 39.317426 28.412893 57.211529 0
M  V30 58 H 37.862776 27.541653 56.833479 0
M  V30 59 H 40.306996 35.116473 60.414071 0
M  V30 60 H 41.731530 34.733489 61.366969 0
M  V30 61 H 40.206119 31.730160 52.112431 0
M  V30 62 H 42.676448 35.692328 65.506245 0
M  V30 63 H 42.860108 34.010305 65.795530 0
M  V30 64 H 36.833774 33.442969 61.572945 0
M  V30 65 H 36.071777 31.932350 62.023049 0
M  V30 66 H 35.559145 31.526314 59.543520 0
M  V30 67 H 36.766863 29.388094 58.094462 0
M  V30 END ATOM
M  V30 BEGIN BOND
M  V30 1 1 5 1
M  V30 2 1 5 4
M  V30 3 1 6 1
M  V30 4 1 10 2
M  V30 5 1 10 6
M  V30 6 2 17 9
M  V30 7 1 17 13
M  V30 8 1 18 16
M  V30 9 1 19 3
M  V30 10 2 20 12
M  V30 11 1 21 7
M  V30 12 1 22 21
M  V30 13 1 23 1
M  V30 14 1 23 7
M  V30 15 1 24 3
M  V30 16 1 24 12
M  V30 17 1 25 9
M  V30 18 2 25 15
M  V30 19 1 27 11
M  V30 20 2 28 13
M  V30 21 1 28 15
M  V30 22 1 28 22
M  V30 23 1 29 8
M  V30 24 2 29 19
M  V30 25 1 29 26
M  V30 26 1 30 2
M  V30 27 1 30 18
M  V30 28 1 30 20
M  V30 29 1 31 2
M  V30 30 1 31 14
M  V30 31 1 31 27
M  V30 32 1 32 8
M  V30 33 1 32 12
M  V30 34 2 32 16
M  V30 35 2 33 5
M  V30 36 1 1 34 CFG=3
M  V30 37 1 2 35 CFG=1
M  V30 38 1 36 3
M  V30 39 1 37 3
M  V30 40 1 38 6
M  V30 41 1 39 7
M  V30 42 1 40 7
M  V30 43 1 41 8
M  V30 44 1 42 9
M  V30 45 1 43 10
M  V30 46 1 44 10
M  V30 47 1 45 11
M  V30 48 1 46 13
M  V30 49 1 47 14
M  V30 50 1 48 15
M  V30 51 1 49 16
M  V30 52 1 50 17
M  V30 53 1 51 18
M  V30 54 1 52 18
M  V30 55 1 53 19
M  V30 56 1 54 20
M  V30 57 1 55 21
M  V30 58 1 56 21
M  V30 59 1 57 23
M  V30 60 1 58 23
M  V30 61 1 59 24
M  V30 62 1 60 24
M  V30 63 1 61 25
M  V30 64 1 62 26
M  V30 65 1 63 26
M  V30 66 1 64 27
M  V30 67 1 65 27
M  V30 68 1 31 66 CFG=3
M  V30 69 1 67 6
M  V30 END BOND
M  V30 END CTAB
M  END
>  <i_epik_Tot_Q>  (1) 
0

>  <i_epik_Tot_abs_Q>  (1) 
2

>  <i_i_glide_confnum>  (1) 
1061

>  <i_i_glide_lignum>  (1) 
71

>  <i_i_glide_posenum>  (1) 
181

>  <i_i_glide_rotatable_bonds>  (1) 
14

>  <i_lp_mmshare_version>  (1) 
72125

>  <i_m_source_file_index>  (1) 
30

>  <i_f3d_flags>  (1) 
0

>  <num_sample>  (1) 
100

>  <b_lp_Chiralities_Consistent>  (1) 
1

>  <r_epik_Charging_Adjusted_Penalty>  (1) 
0.034631310211383798

>  <r_epik_Ionization_Penalty>  (1) 
0.017323838479102703

>  <r_epik_Ionization_Penalty_Charging>  (1) 
0.017317780737554234

>  <r_epik_Ionization_Penalty_Neutral>  (1) 
6.0577415484694341e-06

>  <r_epik_State_Penalty>  (1) 
0.017313529473829564

>  <r_glide_ring_energy>  (1) 
0

>  <r_i_docking_score>  (1) 
-7.6958932815126584

>  <r_i_glide_ecoul>  (1) 
-8.8612107499982997

>  <r_i_glide_eff_state_penalty>  (1) 
0.017313529473829564

>  <r_i_glide_einternal>  (1) 
12.94643807207836

>  <r_i_glide_emodel>  (1) 
-80.027077868485392

>  <r_i_glide_emodel_strain>  (1) 
1.5595460427041843

>  <r_i_glide_energy>  (1) 
-54.655705638852304

>  <r_i_glide_erotb>  (1) 
0.9565242385311874

>  <r_i_glide_esite>  (1) 
-0.13624941143488054

>  <r_i_glide_evdw>  (1) 
-45.794494888854004

>  <r_i_glide_gscore>  (1) 
-7.7132068109864882

>  <r_i_glide_gscore_strain>  (1) 
0

>  <r_i_glide_hbond>  (1) 
-0.35999999999999999

>  <r_i_glide_ligand_efficiency>  (1) 
-0.2332088873185654

>  <r_i_glide_ligand_efficiency_ln>  (1) 
-1.7115268186055799

>  <r_i_glide_ligand_efficiency_sa>  (1) 
-0.74802551213442692

>  <r_i_glide_lipo>  (1) 
-3.6777218141265884

>  <r_i_glide_metal>  (1) 
-0

>  <r_i_glide_rewards>  (1) 
-0.87685346701376077

>  <r_lp_Energy>  (1) 
46.756611999999997

>  <r_lp_tautomer_probability>  (1) 
1

>  <s_epik_Chemistry_Notes>  (1) 
This compound has an imine and may undergo hydrolysis.

>  <s_epik_cmdline>  (1) 
J2VwaWtfcHl0aG9uJywgJy1waHQnLCAnMS4wJywgJy1waCcsICc3LjQnLCAnLXRuJywgJzgnLCAnLW1hJywgJzUwMCcsICctaW1hZScsICc8aW5maWxlLm1hZT4nLCAnLW9tYWUnLCAnPG91dGZpbGUubWFlPic=

>  <s_epik_input>  (1) 
W2NIXTFbY0hdW2NIXVtjSF1bY0hdYzFPW0NIMl1bQ0gyXVtDSDJdW0NASF0oQyg9TylbT0hdKVtOSF1bQ0gyXVtDQEhdKFtDQEhdKFtPSF0pW0NIMl1bT0hdKU4oW0NIXTIpW0NIMl1bQ0hdPUMoQz0yMylbTkhdQyhbTkgyXSk9W0NIXVtDSDJdW0NIMl0z

>  <s_glide_docking_method>  (1) 
confgen

>  <s_i_glide_gridfile>  (1) 
gpcr_5ht2c_6bqh_protein_autoprepared_prepared

>  <s_lp_Force_Field>  (1) 
S-OPLS

>  <s_lp_Variant>  (1) 
DiffSBDD_29-1

>  <s_m_source_file>  (1) 
generated_GPCR_5HT2C_ligand_DiffSBDD_2026-06-23_prepared.sdf

>  <GenAI_Model>  (1) 
DiffSBDD

>  <Protein>  (1) 
GPCR_5HT2C

$$$$
DiffSBDD_71
     RDKit          3D

  0  0  0  0  0  0  0  0  0  0999 V3000
M  V30 BEGIN CTAB
M  V30 COUNTS 52 54 0 0 1
M  V30 BEGIN ATOM
M  V30 1 N 39.800747 34.461291 61.964861 0 CHG=1
M  V30 2 C 38.941940 29.529300 54.773278 0 CFG=1
M  V30 3 C 39.598591 28.880528 57.246335 0
M  V30 4 C 39.719602 28.843327 50.542689 0
M  V30 5 C 39.577482 28.513839 55.760003 0
M  V30 6 C 39.229290 34.578221 60.610093 0
M  V30 7 O 39.307997 30.859850 55.134911 0
M  V30 8 C 38.911226 27.940087 51.260271 0
M  V30 9 C 39.218588 29.278435 53.284564 0
M  V30 10 C 40.278105 29.959770 51.187150 0
M  V30 11 C 37.489173 32.754254 61.075904 0
M  V30 12 C 38.355873 31.540211 55.929108 0
M  V30 13 C 38.097120 33.308107 58.692909 0
M  V30 14 C 38.572737 31.205164 57.406478 0 CFG=1
M  V30 15 C 39.909285 36.524400 63.364466 0
M  V30 16 C 40.029604 30.179466 52.554740 0
M  V30 17 C 40.610268 35.615350 62.388901 0
M  V30 18 O 37.239176 31.530019 61.069724 0
M  V30 19 Cl 37.645677 27.049844 53.494729 0
M  V30 20 C 38.653851 28.155356 52.627525 0
M  V30 21 N 37.643700 31.979786 58.237322 0 CHG=1
M  V30 22 C 38.614308 33.240613 60.144785 0 CFG=1
M  V30 23 C 38.408031 29.715837 57.729303 0
M  V30 24 O 40.040298 27.445084 55.370702 0
M  V30 25 O 36.911324 33.614088 61.767708 0 CHG=-1
M  V30 26 C 40.962324 35.548630 63.851933 0
M  V30 27 H 39.030071 34.331834 62.608765 0
M  V30 28 H 37.863773 29.410458 54.876233 0
M  V30 29 H 40.538792 29.366919 57.503176 0
M  V30 30 H 39.910050 28.679616 49.493617 0
M  V30 31 H 40.025921 34.867386 59.923048 0
M  V30 32 H 38.492572 35.385094 60.591437 0
M  V30 33 H 38.481298 27.085213 50.756628 0
M  V30 34 H 40.899809 30.650898 50.630588 0
M  V30 35 H 38.518643 32.607862 55.777407 0
M  V30 36 H 37.332295 31.343589 55.606712 0
M  V30 37 H 38.861087 33.698607 58.021121 0
M  V30 38 H 37.253939 33.998073 58.632970 0
M  V30 39 H 39.583705 31.495571 57.669021 0
M  V30 40 H 40.178477 37.578070 63.361912 0
M  V30 41 H 38.869351 36.314767 63.608260 0
M  V30 42 H 40.459422 31.039870 53.044030 0
M  V30 43 H 41.349999 35.987657 61.681670 0
M  V30 44 H 36.747959 32.062436 57.737035 0
M  V30 45 H 39.404796 32.491737 60.188988 0
M  V30 46 H 38.342540 29.591283 58.812382 0
M  V30 47 H 37.466692 29.330628 57.333150 0
M  V30 48 H 39.589441 27.941263 57.796769 0
M  V30 49 H 40.622882 34.686897 64.425118 0
M  V30 50 H 41.916156 35.968294 64.168772 0
M  V30 51 H 40.384634 33.638990 61.992570 0
M  V30 52 H 37.438803 31.454114 59.083782 0
M  V30 END ATOM
M  V30 BEGIN BOND
M  V30 1 1 5 2
M  V30 2 1 5 3
M  V30 3 1 6 1
M  V30 4 1 7 2
M  V30 5 1 8 4
M  V30 6 1 9 2
M  V30 7 2 10 4
M  V30 8 1 12 7
M  V30 9 1 14 12
M  V30 10 2 16 9
M  V30 11 1 16 10
M  V30 12 1 17 1
M  V30 13 1 17 15
M  V30 14 2 18 11
M  V30 15 2 20 8
M  V30 16 1 20 9
M  V30 17 1 20 19
M  V30 18 1 21 13
M  V30 19 1 21 14
M  V30 20 1 22 6
M  V30 21 1 22 11
M  V30 22 1 22 13
M  V30 23 1 23 3
M  V30 24 1 23 14
M  V30 25 2 24 5
M  V30 26 1 25 11
M  V30 27 1 26 15
M  V30 28 1 26 17
M  V30 29 1 27 1
M  V30 30 1 2 28 CFG=3
M  V30 31 1 29 3
M  V30 32 1 30 4
M  V30 33 1 31 6
M  V30 34 1 32 6
M  V30 35 1 33 8
M  V30 36 1 34 10
M  V30 37 1 35 12
M  V30 38 1 36 12
M  V30 39 1 37 13
M  V30 40 1 38 13
M  V30 41 1 14 39 CFG=1
M  V30 42 1 40 15
M  V30 43 1 41 15
M  V30 44 1 42 16
M  V30 45 1 43 17
M  V30 46 1 44 21
M  V30 47 1 22 45 CFG=3
M  V30 48 1 46 23
M  V30 49 1 47 23
M  V30 50 1 48 3
M  V30 51 1 49 26
M  V30 52 1 50 26
M  V30 53 1 51 1
M  V30 54 1 52 21
M  V30 END BOND
M  V30 END CTAB
M  END
>  <i_epik_Tot_Q>  (1) 
1

>  <i_epik_Tot_abs_Q>  (1) 
3

>  <i_i_glide_confnum>  (1) 
472

>  <i_i_glide_lignum>  (1) 
156

>  <i_i_glide_posenum>  (1) 
282

>  <i_i_glide_rotatable_bonds>  (1) 
8

>  <i_lp_mmshare_version>  (1) 
72125

>  <i_m_source_file_index>  (1) 
72

>  <i_f3d_flags>  (1) 
0

>  <num_sample>  (1) 
100

>  <b_lp_Chiralities_Consistent>  (1) 
1

>  <r_epik_Charging_Adjusted_Penalty>  (1) 
0.028021554502508948

>  <r_epik_Ionization_Penalty>  (1) 
0.028021554963738291

>  <r_epik_Ionization_Penalty_Charging>  (1) 
0.028021554502508948

>  <r_epik_Ionization_Penalty_Neutral>  (1) 
4.6122934257721838e-10

>  <r_epik_State_Penalty>  (1) 
-0

>  <r_glide_ring_energy>  (1) 
1.2699943937118825

>  <r_i_docking_score>  (1) 
-7.6947265231946158

>  <r_i_glide_ecoul>  (1) 
-6.7877674698371884

>  <r_i_glide_eff_state_penalty>  (1) 
-0

>  <r_i_glide_einternal>  (1) 
7.4071480324912882

>  <r_i_glide_emodel>  (1) 
-73.885558036588975

>  <r_i_glide_emodel_strain>  (1) 
0.77785551555368571

>  <r_i_glide_energy>  (1) 
-47.264716217035541

>  <r_i_glide_erotb>  (1) 
0.79881325193843611

>  <r_i_glide_esite>  (1) 
-0.10000000000000001

>  <r_i_glide_evdw>  (1) 
-40.47694874719835

>  <r_i_glide_gscore>  (1) 
-7.6947265231946158

>  <r_i_glide_gscore_strain>  (1) 
0

>  <r_i_glide_hbond>  (1) 
-0.23143578306585072

>  <r_i_glide_ligand_efficiency>  (1) 
-0.29595102012286983

>  <r_i_glide_ligand_efficiency_ln>  (1) 
-1.8070812755151764

>  <r_i_glide_ligand_efficiency_sa>  (1) 
-0.87675373355515263

>  <r_i_glide_lipo>  (1) 
-3.0334529247128819

>  <r_i_glide_metal>  (1) 
-0

>  <r_i_glide_rewards>  (1) 
-2.0866385095188242

>  <r_lp_Energy>  (1) 
38.533868999999996

>  <r_lp_tautomer_probability>  (1) 
1

>  <s_epik_cmdline>  (1) 
J2VwaWtfcHl0aG9uJywgJy1waHQnLCAnMS4wJywgJy1waCcsICc3LjQnLCAnLXRuJywgJzgnLCAnLW1hJywgJzUwMCcsICctaW1hZScsICc8aW5maWxlLm1hZT4nLCAnLW9tYWUnLCAnPG91dGZpbGUubWFlPic=

>  <s_epik_input>  (1) 
W0NIMl0xW0NIMl1bQ0hdMVtOSF1bQ0gyXVtDQEBIXShDKD1PKVtPSF0pW0NIMl1bTkhdW0NASF0oW0NIMl1PMilbQ0gyXVtDSF09QyhbT0hdKVtDQEBIXTJjM1tjSF1bY0hdW2NIXVtjSF1jM0Ns

>  <s_glide_docking_method>  (1) 
confgen

>  <s_i_glide_gridfile>  (1) 
gpcr_5ht2c_6bqh_protein_autoprepared_prepared

>  <s_lp_Force_Field>  (1) 
S-OPLS

>  <s_lp_Variant>  (1) 
DiffSBDD_71-1

>  <s_m_source_file>  (1) 
generated_GPCR_5HT2C_ligand_DiffSBDD_2026-06-23_prepared.sdf

>  <GenAI_Model>  (1) 
DiffSBDD

>  <Protein>  (1) 
GPCR_5HT2C

$$$$
DiffSBDD_93
     RDKit          3D

  0  0  0  0  0  0  0  0  0  0999 V3000
M  V30 BEGIN CTAB
M  V30 COUNTS 84 85 0 0 1
M  V30 BEGIN ATOM
M  V30 1 C 36.163826 32.141695 60.110079 0
M  V30 2 O 35.667172 31.737009 61.367710 0
M  V30 3 C 39.601940 37.194414 63.551155 0
M  V30 4 C 39.722565 29.927752 52.465611 0
M  V30 5 O 36.527279 29.543893 59.261654 0
M  V30 6 C 37.568275 28.335505 54.056552 0
M  V30 7 N 37.245056 27.664398 52.967755 0
M  V30 8 O 36.845149 29.191671 54.535820 0
M  V30 9 O 40.045208 31.979925 63.880093 0
M  V30 10 C 40.378913 30.652250 51.312909 0
M  V30 11 C 40.227152 35.823927 63.267326 0
M  V30 12 C 38.917697 29.648269 59.065591 0
M  V30 13 C 38.647259 32.376336 59.986340 0
M  V30 14 C 39.687257 29.344178 55.107106 0 CFG=2
M  V30 15 C 38.926025 28.017373 54.681175 0 CFG=1
M  V30 16 C 38.559566 36.191377 61.634728 0 CFG=1
M  V30 17 C 39.867652 34.014224 61.499368 0 CFG=1
M  V30 18 C 41.366423 33.698825 61.729958 0
M  V30 19 C 39.018510 29.184418 57.612356 0
M  V30 20 S 39.321098 31.316400 62.499134 0 CHG=1
M  V30 21 O 38.045160 32.271887 56.921775 0
M  V30 22 N 37.463478 31.522269 59.822652 0
M  V30 23 O 40.648540 30.584623 61.733227 0
M  V30 24 O 37.212719 36.937780 63.514667 0
M  V30 25 F 37.579752 35.158346 59.780956 0
M  V30 26 C 40.605472 29.171094 51.495019 0
M  V30 27 C 37.994009 31.064505 56.203073 0
M  V30 28 C 39.224008 30.143231 56.406195 0 CFG=2
M  V30 29 C 37.530199 30.239489 59.396505 0
M  V30 30 C 38.881851 26.869756 55.752509 0
M  V30 31 C 36.533284 37.073365 60.275064 0
M  V30 32 C 38.902001 32.782584 61.449623 0 CFG=2
M  V30 33 O 37.645295 25.337721 54.427096 0
M  V30 34 C 40.048844 30.327172 53.921541 0
M  V30 35 C 37.260421 35.847167 60.858726 0 CFG=2
M  V30 36 C 38.422208 25.462600 55.390725 0
M  V30 37 C 38.333300 37.237079 62.703109 0 CFG=1
M  V30 38 O 38.845072 24.537748 56.110988 0 CHG=-1
M  V30 39 N 39.295207 35.112390 62.348975 0 CFG=1 CHG=1
M  V30 40 H 36.208776 33.227020 60.073516 0
M  V30 41 H 35.431972 31.861133 59.351954 0
M  V30 42 H 34.765928 31.470364 61.243498 0
M  V30 43 H 39.407421 37.353270 64.613345 0
M  V30 44 H 40.281867 37.981829 63.229118 0
M  V30 45 H 38.674529 29.737745 52.288300 0
M  V30 46 H 37.861634 26.943946 52.619866 0
M  V30 47 H 36.368896 27.842792 52.509445 0
M  V30 48 H 39.702341 31.490665 64.614323 0
M  V30 49 H 39.741627 30.967451 50.488081 0
M  V30 50 H 41.205378 31.320865 51.538045 0
M  V30 51 H 40.394064 35.250063 64.179522 0
M  V30 52 H 41.199300 36.009114 62.812607 0
M  V30 53 H 39.829228 30.137895 59.364926 0
M  V30 54 H 38.948024 28.739673 59.667817 0
M  V30 55 H 38.463249 33.222174 59.340578 0
M  V30 56 H 39.583096 32.050384 59.575232 0
M  V30 57 H 40.659038 28.952189 55.407306 0
M  V30 58 H 39.531797 27.595475 53.876591 0
M  V30 59 H 39.268753 36.611497 60.930145 0
M  V30 60 H 39.888135 34.439020 60.494764 0
M  V30 61 H 41.685483 32.826339 61.162652 0
M  V30 62 H 41.982733 34.520102 61.367959 0
M  V30 63 H 41.631403 33.530319 62.771713 0
M  V30 64 H 39.803917 28.432057 57.604438 0
M  V30 65 H 38.060529 28.712923 57.443704 0
M  V30 66 H 37.133472 32.555814 56.963382 0
M  V30 67 H 40.443955 29.660816 61.694065 0
M  V30 68 H 36.422191 37.236011 63.087689 0
M  V30 69 H 41.606513 28.864073 51.767752 0
M  V30 70 H 40.108058 28.501929 50.796276 0
M  V30 71 H 37.821813 31.351013 55.169016 0
M  V30 72 H 37.096136 30.537754 56.519510 0
M  V30 73 H 40.045062 30.808123 56.654811 0
M  V30 74 H 39.853488 26.763812 56.233246 0
M  V30 75 H 38.127092 27.043013 56.502839 0
M  V30 76 H 36.117726 37.729051 61.040413 0
M  V30 77 H 37.208459 37.670877 59.661052 0
M  V30 78 H 35.709011 36.760876 59.633890 0
M  V30 79 H 37.950332 33.122952 61.854288 0
M  V30 80 H 39.583004 31.298682 54.065906 0
M  V30 81 H 41.103443 30.574593 54.005092 0
M  V30 82 H 36.573839 35.240859 61.452957 0
M  V30 83 H 38.185911 38.163319 62.167748 0
M  V30 84 H 38.612878 34.701404 62.970745 0
M  V30 END ATOM
M  V30 BEGIN BOND
M  V30 1 1 2 1
M  V30 2 1 7 6
M  V30 3 2 8 6
M  V30 4 1 10 4
M  V30 5 1 11 3
M  V30 6 1 15 6
M  V30 7 1 15 14
M  V30 8 1 18 17
M  V30 9 1 19 12
M  V30 10 1 20 9
M  V30 11 1 22 1
M  V30 12 1 22 13
M  V30 13 1 23 20
M  V30 14 1 26 4
M  V30 15 1 26 10
M  V30 16 1 27 21
M  V30 17 1 28 14
M  V30 18 1 28 19
M  V30 19 1 28 27
M  V30 20 2 29 5
M  V30 21 1 29 12
M  V30 22 1 29 22
M  V30 23 1 30 15
M  V30 24 1 32 13
M  V30 25 1 32 17
M  V30 26 1 32 20
M  V30 27 1 34 4
M  V30 28 1 34 14
M  V30 29 1 35 16
M  V30 30 1 35 25
M  V30 31 1 35 31
M  V30 32 1 36 30
M  V30 33 2 36 33
M  V30 34 1 37 3
M  V30 35 1 37 16
M  V30 36 1 37 24
M  V30 37 1 38 36
M  V30 38 1 39 11
M  V30 39 1 39 16
M  V30 40 1 39 17
M  V30 41 1 40 1
M  V30 42 1 41 1
M  V30 43 1 42 2
M  V30 44 1 43 3
M  V30 45 1 44 3
M  V30 46 1 45 4
M  V30 47 1 46 7
M  V30 48 1 47 7
M  V30 49 1 48 9
M  V30 50 1 49 10
M  V30 51 1 50 10
M  V30 52 1 51 11
M  V30 53 1 52 11
M  V30 54 1 53 12
M  V30 55 1 54 12
M  V30 56 1 55 13
M  V30 57 1 56 13
M  V30 58 1 14 57 CFG=1
M  V30 59 1 15 58 CFG=3
M  V30 60 1 16 59 CFG=3
M  V30 61 1 17 60 CFG=3
M  V30 62 1 61 18
M  V30 63 1 62 18
M  V30 64 1 63 18
M  V30 65 1 64 19
M  V30 66 1 65 19
M  V30 67 1 66 21
M  V30 68 1 67 23
M  V30 69 1 68 24
M  V30 70 1 69 26
M  V30 71 1 70 26
M  V30 72 1 71 27
M  V30 73 1 72 27
M  V30 74 1 28 73 CFG=1
M  V30 75 1 74 30
M  V30 76 1 75 30
M  V30 77 1 76 31
M  V30 78 1 77 31
M  V30 79 1 78 31
M  V30 80 1 32 79 CFG=1
M  V30 81 1 80 34
M  V30 82 1 81 34
M  V30 83 1 35 82 CFG=1
M  V30 84 1 37 83 CFG=3
M  V30 85 1 39 84 CFG=1
M  V30 END BOND
M  V30 END CTAB
M  END
>  <i_epik_Tot_Q>  (1) 
1

>  <i_epik_Tot_abs_Q>  (1) 
3

>  <i_i_glide_confnum>  (1) 
6016

>  <i_i_glide_lignum>  (1) 
224

>  <i_i_glide_posenum>  (1) 
34

>  <i_i_glide_rotatable_bonds>  (1) 
24

>  <i_lp_mmshare_version>  (1) 
72125

>  <i_m_source_file_index>  (1) 
94

>  <i_f3d_flags>  (1) 
0

>  <num_sample>  (1) 
100

>  <b_lp_Chiralities_Consistent>  (1) 
1

>  <r_epik_Charging_Adjusted_Penalty>  (1) 
0.90916677635763199

>  <r_epik_Ionization_Penalty>  (1) 
0.45507897092921873

>  <r_epik_Ionization_Penalty_Charging>  (1) 
0.45507471778648678

>  <r_epik_Ionization_Penalty_Neutral>  (1) 
4.2531427319391784e-06

>  <r_epik_State_Penalty>  (1) 
0.45409205857114521

>  <r_glide_ring_energy>  (1) 
0

>  <r_i_docking_score>  (1) 
-7.6938629081440553

>  <r_i_glide_ecoul>  (1) 
-7.4853783486268126

>  <r_i_glide_eff_state_penalty>  (1) 
0.45409205857114521

>  <r_i_glide_einternal>  (1) 
26.178415548771746

>  <r_i_glide_emodel>  (1) 
-63.714530185527408

>  <r_i_glide_emodel_strain>  (1) 
6.3742407020902903

>  <r_i_glide_energy>  (1) 
-46.500958668630375

>  <r_i_glide_erotb>  (1) 
0.82188833391367333

>  <r_i_glide_esite>  (1) 
-0.12947913970286185

>  <r_i_glide_evdw>  (1) 
-39.015580320003565

>  <r_i_glide_gscore>  (1) 
-8.1479549667152007

>  <r_i_glide_gscore_strain>  (1) 
0.59356017552257256

>  <r_i_glide_hbond>  (1) 
-0.6454562792032017

>  <r_i_glide_ligand_efficiency>  (1) 
-0.19727853610625784

>  <r_i_glide_ligand_efficiency_ln>  (1) 
-1.6497826107926112

>  <r_i_glide_ligand_efficiency_sa>  (1) 
-0.66901322910462513

>  <r_i_glide_lipo>  (1) 
-3.43309058439849

>  <r_i_glide_metal>  (1) 
-0

>  <r_i_glide_rewards>  (1) 
-2.2817917045526919

>  <r_lp_Energy>  (1) 
27.571353999999999

>  <s_epik_Chemistry_Notes>  (1) 
This compound contains an acetal/aminal-like group ( X-CH(R)-Y where X, Y are N, S, or O) that may be acid/base labile, releasing an aldehyde.

>  <s_epik_cmdline>  (1) 
J2VwaWtfcHl0aG9uJywgJy1waHQnLCAnMS4wJywgJy1waCcsICc3LjQnLCAnLXRuJywgJzgnLCAnLW1hJywgJzUwMCcsICctaW1hZScsICc8aW5maWxlLm1hZT4nLCAnLW9tYWUnLCAnPG91dGZpbGUubWFlPic=

>  <s_epik_input>  (1) 
W0NIMl0xW0NIMl1bQ0hdMVtDSDJdW0NAQEhdKFtDQEBIXShDKD1PKVtOSDJdKVtDSDJdQyg9TylbT0hdKVtDQEBIXShbQ0gyXVtPSF0pW0NIMl1bQ0gyXUMoPU8pTihbQ0gyXVtPSF0pW0NIMl1bQ0BASF0oW1MrXShbT0hdKVtPSF0pW0NASF0oW0NIM10pTjJbQ0gyXVtDSDJdW0NASF0oW09IXSlbQ0BASF0yW0NASF0oRilbQ0gzXQ==

>  <s_glide_docking_method>  (1) 
confgen

>  <s_i_glide_gridfile>  (1) 
gpcr_5ht2c_6bqh_protein_autoprepared_prepared

>  <s_lp_Force_Field>  (1) 
S-OPLS

>  <s_lp_Variant>  (1) 
DiffSBDD_93-12

>  <s_m_source_file>  (1) 
generated_GPCR_5HT2C_ligand_DiffSBDD_2026-06-23_prepared.sdf

>  <GenAI_Model>  (1) 
DiffSBDD

>  <Protein>  (1) 
GPCR_5HT2C

$$$$
DiffSBDD_50
     RDKit          3D

  0  0  0  0  0  0  0  0  0  0999 V3000
M  V30 BEGIN CTAB
M  V30 COUNTS 66 69 0 0 1
M  V30 BEGIN ATOM
M  V30 1 C 38.650018 29.611798 58.588561 0 CFG=2
M  V30 2 F 39.645152 31.711145 54.168095 0
M  V30 3 C 38.752156 31.928250 61.411400 0
M  V30 4 O 40.845221 29.344774 61.586630 0
M  V30 5 O 40.240031 34.913710 61.107724 0
M  V30 6 O 39.420792 32.507928 62.470581 0
M  V30 7 S 37.051793 31.757554 59.367748 0
M  V30 8 C 37.597855 28.934168 57.657312 0
M  V30 9 C 41.442889 32.574943 63.766302 0 CFG=2
M  V30 10 O 38.776580 26.284857 57.153681 0
M  V30 11 C 41.009535 34.332290 62.134995 0 CFG=1
M  V30 12 C 41.471064 34.135465 65.886679 0
M  V30 13 C 40.403215 28.106541 57.471781 0
M  V30 14 C 38.165310 28.434660 56.309486 0 CFG=2
M  V30 15 C 39.919975 30.413454 52.177746 0
M  V30 16 C 39.502721 29.569944 61.931127 0
M  V30 17 C 39.339432 27.457867 56.571939 0 CFG=2
M  V30 18 C 39.628532 25.150348 57.168121 0
M  V30 19 F 38.973243 26.937772 51.486641 0
M  V30 20 C 38.728919 28.221289 53.489212 0
M  V30 21 C 41.664899 33.989395 64.369384 0 CFG=2
M  V30 22 C 39.833435 28.646558 58.792004 0
M  V30 23 C 39.743225 29.197231 51.493607 0
M  V30 24 C 40.838899 34.951001 63.507372 0
M  V30 25 C 37.944197 30.170911 59.871279 0 CFG=2
M  V30 26 C 38.910717 29.448009 54.180296 0
M  V30 27 C 40.800281 32.820672 62.367733 0 CFG=2
M  V30 28 C 38.779983 30.633716 61.100544 0
M  V30 29 N 38.520560 29.612585 55.524461 0
M  V30 30 C 39.494733 30.537709 53.515472 0
M  V30 31 C 39.145435 28.103170 52.146830 0
M  V30 32 O 41.510134 32.137700 61.367791 0
M  V30 33 O 37.741248 33.922411 60.725362 0
M  V30 34 O 40.642232 31.751287 64.593510 0
M  V30 35 C 37.908681 32.711257 60.600105 0
M  V30 36 H 39.061893 30.472716 58.060595 0
M  V30 37 H 41.173719 28.637900 62.124624 0
M  V30 38 H 39.322018 34.699266 61.237907 0
M  V30 39 H 37.150273 28.084365 58.167766 0
M  V30 40 H 36.772662 29.620460 57.459687 0
M  V30 41 H 42.410629 32.085486 63.646893 0
M  V30 42 H 42.045136 34.470171 61.836022 0
M  V30 43 H 40.445128 33.926547 66.184285 0
M  V30 44 H 42.122158 33.447891 66.427437 0
M  V30 45 H 41.714100 35.146949 66.216664 0
M  V30 46 H 40.845136 28.935781 56.921903 0
M  V30 47 H 41.222332 27.415397 57.671074 0
M  V30 48 H 37.377324 27.898873 55.786894 0
M  V30 49 H 40.372596 31.255971 51.674954 0
M  V30 50 H 38.956284 28.629599 61.866042 0
M  V30 51 H 39.475994 29.863295 62.979912 0
M  V30 52 H 39.814824 27.171198 55.634457 0
M  V30 53 H 39.058172 24.275961 57.481654 0
M  V30 54 H 40.041557 24.938127 56.180984 0
M  V30 55 H 40.445520 25.279496 57.875991 0
M  V30 56 H 38.273890 27.376005 53.978962 0
M  V30 57 H 42.710001 34.240898 64.178059 0
M  V30 58 H 40.656132 29.187019 59.248159 0
M  V30 59 H 39.552663 27.821998 59.447754 0
M  V30 60 H 40.062710 29.104114 50.466059 0
M  V30 61 H 39.783329 34.960807 63.767827 0
M  V30 62 H 41.212310 35.975361 63.552183 0
M  V30 63 H 37.183855 29.454715 60.167766 0
M  V30 64 H 38.724491 30.479542 56.003046 0
M  V30 65 H 41.196386 32.459500 60.536894 0
M  V30 66 H 39.746463 32.037105 64.497606 0
M  V30 END ATOM
M  V30 BEGIN BOND
M  V30 1 1 6 3
M  V30 2 1 8 1
M  V30 3 1 11 5
M  V30 4 1 14 8
M  V30 5 1 16 4
M  V30 6 1 17 10
M  V30 7 1 17 13
M  V30 8 1 17 14
M  V30 9 1 18 10
M  V30 10 1 21 9
M  V30 11 1 21 12
M  V30 12 1 22 1
M  V30 13 1 22 13
M  V30 14 2 23 15
M  V30 15 1 24 11
M  V30 16 1 24 21
M  V30 17 1 25 1
M  V30 18 1 25 7
M  V30 19 1 26 20
M  V30 20 1 27 6 CFG=1
M  V30 21 1 27 9
M  V30 22 1 27 11
M  V30 23 2 28 3
M  V30 24 1 28 16
M  V30 25 1 28 25
M  V30 26 1 29 14
M  V30 27 1 29 26
M  V30 28 1 30 2
M  V30 29 1 30 15
M  V30 30 2 30 26
M  V30 31 1 31 19
M  V30 32 2 31 20
M  V30 33 1 31 23
M  V30 34 1 32 27
M  V30 35 1 34 9
M  V30 36 1 35 3
M  V30 37 1 35 7
M  V30 38 2 35 33
M  V30 39 1 1 36 CFG=3
M  V30 40 1 37 4
M  V30 41 1 38 5
M  V30 42 1 39 8
M  V30 43 1 40 8
M  V30 44 1 9 41 CFG=3
M  V30 45 1 11 42 CFG=3
M  V30 46 1 43 12
M  V30 47 1 44 12
M  V30 48 1 45 12
M  V30 49 1 46 13
M  V30 50 1 47 13
M  V30 51 1 14 48 CFG=3
M  V30 52 1 49 15
M  V30 53 1 50 16
M  V30 54 1 51 16
M  V30 55 1 17 52 CFG=3
M  V30 56 1 53 18
M  V30 57 1 54 18
M  V30 58 1 55 18
M  V30 59 1 56 20
M  V30 60 1 21 57 CFG=1
M  V30 61 1 58 22
M  V30 62 1 59 22
M  V30 63 1 60 23
M  V30 64 1 61 24
M  V30 65 1 62 24
M  V30 66 1 25 63 CFG=1
M  V30 67 1 64 29
M  V30 68 1 65 32
M  V30 69 1 66 34
M  V30 END BOND
M  V30 END CTAB
M  END
>  <i_epik_Tot_Q>  (1) 
0

>  <i_epik_Tot_abs_Q>  (1) 
0

>  <i_i_glide_confnum>  (1) 
130

>  <i_i_glide_lignum>  (1) 
104

>  <i_i_glide_posenum>  (1) 
192

>  <i_i_glide_rotatable_bonds>  (1) 
11

>  <i_lp_mmshare_version>  (1) 
72125

>  <i_m_source_file_index>  (1) 
51

>  <i_f3d_flags>  (1) 
0

>  <num_sample>  (1) 
100

>  <b_lp_Chiralities_Consistent>  (1) 
1

>  <r_epik_Charging_Adjusted_Penalty>  (1) 
0.32088234562257889

>  <r_epik_Ionization_Penalty>  (1) 
0.32096673837562456

>  <r_epik_Ionization_Penalty_Charging>  (1) 
0

>  <r_epik_Ionization_Penalty_Neutral>  (1) 
0.32096673837562456

>  <r_epik_State_Penalty>  (1) 
0.32088234562257889

>  <r_glide_ring_energy>  (1) 
0

>  <r_i_docking_score>  (1) 
-7.6907657238323175

>  <r_i_glide_ecoul>  (1) 
-1.672408357026745

>  <r_i_glide_eff_state_penalty>  (1) 
0.32088234562257889

>  <r_i_glide_einternal>  (1) 
9.5282523581566672

>  <r_i_glide_emodel>  (1) 
-61.863516301544081

>  <r_i_glide_emodel_strain>  (1) 
0.50853252440164454

>  <r_i_glide_energy>  (1) 
-46.719281551600481

>  <r_i_glide_erotb>  (1) 
0.46316945766964901

>  <r_i_glide_esite>  (1) 
0

>  <r_i_glide_evdw>  (1) 
-45.046873194573735

>  <r_i_glide_gscore>  (1) 
-8.0116480694548962

>  <r_i_glide_gscore_strain>  (1) 
0

>  <r_i_glide_hbond>  (1) 
-0.3272430610781612

>  <r_i_glide_ligand_efficiency>  (1) 
-0.21973616353806621

>  <r_i_glide_ligand_efficiency_ln>  (1) 
-1.6882937637300433

>  <r_i_glide_ligand_efficiency_sa>  (1) 
-0.71877156167945888

>  <r_i_glide_lipo>  (1) 
-4.1685110466673772

>  <r_i_glide_metal>  (1) 
-0

>  <r_i_glide_rewards>  (1) 
-1.4758585060963083

>  <r_lp_Energy>  (1) 
66.3018

>  <r_lp_tautomer_probability>  (1) 
0.99999998906363929

>  <s_epik_cmdline>  (1) 
J2VwaWtfcHl0aG9uJywgJy1waHQnLCAnMS4wJywgJy1waCcsICc3LjQnLCAnLXRuJywgJzgnLCAnLW1hJywgJzUwMCcsICctaW1hZScsICc8aW5maWxlLm1hZT4nLCAnLW9tYWUnLCAnPG91dGZpbGUubWFlPic=

>  <s_epik_input>  (1) 
W09IXVtDQEhdMVtDSDJdW0NAQEhdKFtDSDNdKVtDQEBIXShbT0hdKVtDQEBdMShbT0hdKU9DMj1DKFtDSDJdW09IXSlbQ0BASF0oU0MyPU8pW0NAQEhdM1tDSDJdW0NASF0oW0NASF0oT1tDSDNdKVtDSDJdW0NIMl0zKVtOSF1jNFtjSF1jKEYpW2NIXVtjSF1jNEY=

>  <s_glide_docking_method>  (1) 
confgen

>  <s_i_glide_gridfile>  (1) 
gpcr_5ht2c_6bqh_protein_autoprepared_prepared

>  <s_lp_Force_Field>  (1) 
S-OPLS

>  <s_lp_Variant>  (1) 
DiffSBDD_50-2

>  <s_m_source_file>  (1) 
generated_GPCR_5HT2C_ligand_DiffSBDD_2026-06-23_prepared.sdf

>  <GenAI_Model>  (1) 
DiffSBDD

>  <Protein>  (1) 
GPCR_5HT2C

$$$$
DiffSBDD_63
     RDKit          3D

  0  0  0  0  0  0  0  0  0  0999 V3000
M  V30 BEGIN CTAB
M  V30 COUNTS 83 88 0 0 1
M  V30 BEGIN ATOM
M  V30 1 F 38.040786 27.306326 56.633662 0
M  V30 2 C 38.173977 35.974457 61.420173 0
M  V30 3 C 38.849484 27.491311 55.591695 0 CFG=1
M  V30 4 C 41.873202 30.772549 67.071322 0
M  V30 5 C 37.393088 30.354257 58.355441 0
M  V30 6 C 38.782305 29.583673 60.385643 0 CFG=1
M  V30 7 N 38.575915 28.206991 53.317548 0 CHG=1
M  V30 8 C 42.045259 34.116936 64.150232 0
M  V30 9 C 39.540539 36.602300 63.387143 0
M  V30 10 C 40.218161 33.210987 62.646631 0 CFG=2
M  V30 11 C 41.527030 32.905525 63.412357 0 CFG=2
M  V30 12 C 37.643104 30.376455 56.843853 0
M  V30 13 C 41.680920 35.374654 63.873035 0
M  V30 14 C 38.968413 34.882825 61.184109 0
M  V30 15 N 37.017666 35.989248 60.630666 0
M  V30 16 N 39.503664 29.374652 57.959331 0 CHG=1
M  V30 17 C 39.089174 29.906323 56.647759 0 CFG=1
M  V30 18 C 43.199209 28.984890 65.824303 0
M  V30 19 C 35.713355 34.656868 58.984977 0
M  V30 20 O 40.836534 28.327989 60.416056 0
M  V30 21 O 40.006362 32.182829 61.684332 0
M  V30 22 S 38.287806 33.870831 59.923634 0
M  V30 23 C 38.779973 29.432596 54.110420 0 CFG=2
M  V30 24 C 38.783465 30.182456 58.963900 0 CFG=1
M  V30 25 C 39.645131 30.474976 53.391390 0
M  V30 26 C 40.266299 34.556158 61.869202 0 CFG=1
M  V30 27 C 40.157525 29.220928 60.915270 0
M  V30 28 C 36.901427 34.925252 59.842205 0
M  V30 29 O 41.491276 29.876202 68.095971 0
M  V30 30 C 42.087814 30.044939 65.729444 0 CFG=2
M  V30 31 C 42.417202 31.053681 64.617145 0
M  V30 32 C 39.573954 30.966100 62.196971 0 CFG=2
M  V30 33 O 41.281009 31.862451 64.347170 0
M  V30 34 C 40.704295 35.762761 62.773747 0 CFG=1
M  V30 35 O 40.521890 29.976029 61.954370 0
M  V30 36 C 38.129748 27.176429 54.270463 0
M  V30 37 C 38.309991 30.577714 61.438643 0
M  V30 38 C 39.352344 28.945568 55.461481 0 CFG=2
M  V30 39 C 38.449932 37.061484 62.394345 0
M  V30 40 H 39.693836 26.814361 55.735933 0
M  V30 41 H 41.095184 31.531232 66.974132 0
M  V30 42 H 42.784228 31.288924 67.376478 0
M  V30 43 H 36.759480 29.500567 58.604382 0
M  V30 44 H 36.885116 31.254143 58.706279 0
M  V30 45 H 38.171289 28.683722 60.388735 0
M  V30 46 H 39.456492 27.918820 52.915353 0
M  V30 47 H 42.750553 33.933021 64.947325 0
M  V30 48 H 39.061386 36.003909 64.157439 0
M  V30 49 H 39.934207 37.474713 63.908004 0
M  V30 50 H 39.381396 33.258629 63.345554 0
M  V30 51 H 42.290276 32.606292 62.690522 0
M  V30 52 H 36.908758 29.741835 56.347089 0
M  V30 53 H 37.537383 31.382996 56.437751 0
M  V30 54 H 42.100600 36.180511 64.450749 0
M  V30 55 H 40.504351 29.402005 58.097764 0
M  V30 56 H 39.688645 30.805260 56.488100 0
M  V30 57 H 44.162712 29.438437 66.059059 0
M  V30 58 H 42.982831 28.247096 66.596539 0
M  V30 59 H 43.305288 28.445190 64.882913 0
M  V30 60 H 35.318129 35.584544 58.571013 0
M  V30 61 H 35.989107 33.992059 58.167590 0
M  V30 62 H 34.931302 34.178501 59.574199 0
M  V30 63 H 37.786392 29.858881 54.248863 0
M  V30 64 H 39.245112 31.168052 58.995085 0
M  V30 65 H 39.682673 31.404418 53.959266 0
M  V30 66 H 40.668046 30.137858 53.254788 0
M  V30 67 H 39.245769 30.711642 52.407041 0
M  V30 68 H 41.031354 34.448299 61.101941 0
M  V30 69 H 40.692122 29.434766 67.847293 0
M  V30 70 H 41.162943 29.534963 65.455740 0
M  V30 71 H 43.270587 31.664870 64.912726 0
M  V30 72 H 42.698797 30.527071 63.703437 0
M  V30 73 H 39.371921 31.024338 63.267865 0
M  V30 74 H 41.243314 36.452622 62.122257 0
M  V30 75 H 38.329733 26.167577 53.907241 0
M  V30 76 H 37.049772 27.279152 54.394847 0
M  V30 77 H 37.645048 30.137757 62.167195 0
M  V30 78 H 37.794009 31.448827 61.043366 0
M  V30 79 H 40.437368 28.876309 55.367423 0
M  V30 80 H 37.545015 37.342586 62.933930 0
M  V30 81 H 38.791195 37.947484 61.856750 0
M  V30 82 H 39.177394 28.420717 58.033120 0
M  V30 83 H 37.898172 28.340585 52.579339 0
M  V30 END ATOM
M  V30 BEGIN BOND
M  V30 1 1 3 1
M  V30 2 1 11 8
M  V30 3 1 11 10
M  V30 4 1 12 5
M  V30 5 2 13 8
M  V30 6 2 14 2
M  V30 7 1 15 2
M  V30 8 1 17 12
M  V30 9 1 17 16
M  V30 10 1 21 10
M  V30 11 1 22 14
M  V30 12 1 23 7
M  V30 13 1 24 5
M  V30 14 1 24 6
M  V30 15 1 24 16
M  V30 16 1 25 23
M  V30 17 1 26 10
M  V30 18 1 26 14
M  V30 19 1 27 6
M  V30 20 2 27 20
M  V30 21 2 28 15
M  V30 22 1 28 19
M  V30 23 1 28 22
M  V30 24 1 29 4
M  V30 25 1 30 4
M  V30 26 1 30 18
M  V30 27 1 31 30
M  V30 28 1 32 21
M  V30 29 1 33 11
M  V30 30 1 33 31
M  V30 31 1 34 9
M  V30 32 1 34 13
M  V30 33 1 34 26
M  V30 34 1 35 27
M  V30 35 1 35 32
M  V30 36 1 36 3
M  V30 37 1 36 7
M  V30 38 1 37 6
M  V30 39 1 37 32
M  V30 40 1 38 3
M  V30 41 1 38 17
M  V30 42 1 38 23
M  V30 43 1 39 2
M  V30 44 1 39 9
M  V30 45 1 3 40 CFG=1
M  V30 46 1 41 4
M  V30 47 1 42 4
M  V30 48 1 43 5
M  V30 49 1 44 5
M  V30 50 1 6 45 CFG=3
M  V30 51 1 46 7
M  V30 52 1 47 8
M  V30 53 1 48 9
M  V30 54 1 49 9
M  V30 55 1 10 50 CFG=1
M  V30 56 1 11 51 CFG=3
M  V30 57 1 52 12
M  V30 58 1 53 12
M  V30 59 1 54 13
M  V30 60 1 55 16
M  V30 61 1 17 56 CFG=3
M  V30 62 1 57 18
M  V30 63 1 58 18
M  V30 64 1 59 18
M  V30 65 1 60 19
M  V30 66 1 61 19
M  V30 67 1 62 19
M  V30 68 1 23 63 CFG=1
M  V30 69 1 24 64 CFG=1
M  V30 70 1 65 25
M  V30 71 1 66 25
M  V30 72 1 67 25
M  V30 73 1 26 68 CFG=3
M  V30 74 1 69 29
M  V30 75 1 30 70 CFG=3
M  V30 76 1 71 31
M  V30 77 1 72 31
M  V30 78 1 32 73 CFG=1
M  V30 79 1 34 74 CFG=3
M  V30 80 1 75 36
M  V30 81 1 76 36
M  V30 82 1 77 37
M  V30 83 1 78 37
M  V30 84 1 38 79 CFG=3
M  V30 85 1 80 39
M  V30 86 1 81 39
M  V30 87 1 82 16
M  V30 88 1 83 7
M  V30 END BOND
M  V30 END CTAB
M  END
>  <i_epik_Tot_Q>  (1) 
2

>  <i_epik_Tot_abs_Q>  (1) 
2

>  <i_i_glide_confnum>  (1) 
22

>  <i_i_glide_lignum>  (1) 
140

>  <i_i_glide_posenum>  (1) 
88

>  <i_i_glide_rotatable_bonds>  (1) 
9

>  <i_lp_mmshare_version>  (1) 
72125

>  <i_m_source_file_index>  (1) 
64

>  <i_f3d_flags>  (1) 
0

>  <num_sample>  (1) 
100

>  <b_lp_Chiralities_Consistent>  (1) 
1

>  <r_epik_Charging_Adjusted_Penalty>  (1) 
0.080070908620723774

>  <r_epik_Ionization_Penalty>  (1) 
0.041568301575603359

>  <r_epik_Ionization_Penalty_Charging>  (1) 
0.040241786303222601

>  <r_epik_Ionization_Penalty_Neutral>  (1) 
0.0013265152723807572

>  <r_epik_State_Penalty>  (1) 
0.039829122317501166

>  <r_glide_ring_energy>  (1) 
0.99687478685236663

>  <r_i_docking_score>  (1) 
-7.6839415331373697

>  <r_i_glide_ecoul>  (1) 
-2.202752625007439

>  <r_i_glide_eff_state_penalty>  (1) 
0.039829122317501166

>  <r_i_glide_einternal>  (1) 
8.2754041970428833

>  <r_i_glide_emodel>  (1) 
-63.852023181923492

>  <r_i_glide_emodel_strain>  (1) 
0.45890675307219198

>  <r_i_glide_energy>  (1) 
-48.641363827325826

>  <r_i_glide_erotb>  (1) 
0.43483266289788453

>  <r_i_glide_esite>  (1) 
0

>  <r_i_glide_evdw>  (1) 
-46.438611202318384

>  <r_i_glide_gscore>  (1) 
-7.7237706554548708

>  <r_i_glide_gscore_strain>  (1) 
0

>  <r_i_glide_hbond>  (1) 
-0.098865255507852454

>  <r_i_glide_ligand_efficiency>  (1) 
-0.19702414187531717

>  <r_i_glide_ligand_efficiency_ln>  (1) 
-1.6476551863562001

>  <r_i_glide_ligand_efficiency_sa>  (1) 
-0.66815052447762235

>  <r_i_glide_lipo>  (1) 
-3.9996526363196909

>  <r_i_glide_metal>  (1) 
-0

>  <r_i_glide_rewards>  (1) 
-1.4077419726581768

>  <r_lp_Energy>  (1) 
33.407150000000001

>  <s_epik_Chemistry_Notes>  (1) 
This compound has an ester and may undergo hydrolysis at high or low pH. This compound contains an acetal/aminal-like group ( X-CH(R)-Y where X, Y are N, S, or O) that may be acid/base labile, releasing an aldehyde.

>  <s_epik_cmdline>  (1) 
J2VwaWtfcHl0aG9uJywgJy1waHQnLCAnMS4wJywgJy1waCcsICc3LjQnLCAnLXRuJywgJzgnLCAnLW1hJywgJzUwMCcsICctaW1hZScsICc8aW5maWxlLm1hZT4nLCAnLW9tYWUnLCAnPG91dGZpbGUubWFlPic=

>  <s_epik_input>  (1) 
RltDQEhdMVtDSDJdW05IXVtDQEhdKFtDSDNdKVtDQEhdMVtDQEhdMltDSDJdW0NIMl1bQ0BIXShbTkhdMilbQ0BIXTNDKD1PKU9bQ0BIXShbQ0gyXTMpT1tDQEhdNFtDQEhdKE9bQ0gyXVtDQEBIXShbQ0gzXSlbQ0gyXVtPSF0pW0NIXT1bQ0hdW0NASF0oW0NIMl1bQ0gyXTUpW0NAQEhdNGMoYzU2KXNjKG42KVtDSDNd

>  <s_glide_docking_method>  (1) 
confgen

>  <s_i_glide_gridfile>  (1) 
gpcr_5ht2c_6bqh_protein_autoprepared_prepared

>  <s_lp_Force_Field>  (1) 
S-OPLS

>  <s_lp_Variant>  (1) 
DiffSBDD_63-2

>  <s_m_source_file>  (1) 
generated_GPCR_5HT2C_ligand_DiffSBDD_2026-06-23_prepared.sdf

>  <GenAI_Model>  (1) 
DiffSBDD

>  <Protein>  (1) 
GPCR_5HT2C

$$$$
DiffSBDD_66
     RDKit          3D

  0  0  0  0  0  0  0  0  0  0999 V3000
M  V30 BEGIN CTAB
M  V30 COUNTS 62 65 0 0 1
M  V30 BEGIN ATOM
M  V30 1 C 39.352403 35.692335 60.796545 0
M  V30 2 C 40.188928 36.598670 61.890838 0
M  V30 3 C 40.665808 32.038281 62.095448 0 CFG=2
M  V30 4 N 38.377564 30.975714 58.558674 0
M  V30 5 O 38.858115 27.446702 53.004242 0 CHG=-1
M  V30 6 O 40.047790 30.183327 63.624987 0
M  V30 7 O 42.039917 31.737760 62.167770 0
M  V30 8 C 39.520902 27.337609 55.305691 0
M  V30 9 C 39.443784 34.172453 62.567759 0
M  V30 10 C 41.099031 33.661219 64.091989 0
M  V30 11 N 38.977899 34.383609 61.346029 0
M  V30 12 C 42.537342 33.088461 66.134230 0
M  V30 13 C 38.647831 28.990270 56.900374 0
M  V30 14 N 38.171052 31.487895 59.788810 0
M  V30 15 C 41.865921 32.504883 68.469543 0
M  V30 16 C 40.305334 33.252573 62.959014 0
M  V30 17 C 41.392819 35.213656 64.223910 0 CFG=1
M  V30 18 C 41.438309 36.050921 62.797740 0
M  V30 19 C 40.617675 35.343616 66.567734 0
M  V30 20 C 38.075793 32.800875 59.602863 0
M  V30 21 C 37.813884 33.699943 60.781802 0
M  V30 22 C 39.812777 30.773144 62.363628 0
M  V30 23 C 38.243753 33.158759 58.229582 0
M  V30 24 C 37.977644 29.059968 54.542551 0
M  V30 25 C 40.600412 35.845746 65.356854 0
M  V30 26 C 38.549400 29.537439 58.324723 0
M  V30 27 C 39.457088 27.845708 56.617742 0
M  V30 28 O 38.621793 28.807729 59.316120 0
M  V30 29 Cl 40.384758 27.076995 57.864668 0
M  V30 30 C 38.445146 31.966176 57.600150 0
M  V30 31 C 40.845152 34.486984 67.532118 0
M  V30 32 C 41.651240 32.748491 64.935544 0
M  V30 33 C 37.900504 29.580771 55.847422 0
M  V30 34 C 41.738416 33.337660 67.422850 0
M  V30 35 C 38.787504 27.944798 54.271870 0
M  V30 36 H 38.478275 36.232773 60.431603 0
M  V30 37 H 39.467566 37.049990 62.573611 0
M  V30 38 H 40.513812 32.320089 61.054355 0
M  V30 39 H 39.415058 29.485066 63.767712 0
M  V30 40 H 42.185186 31.322341 63.005514 0
M  V30 41 H 40.138937 26.477868 55.091958 0
M  V30 42 H 39.269080 35.018705 63.201686 0
M  V30 43 H 40.578439 37.465148 61.367761 0
M  V30 44 H 43.185117 33.939880 65.943467 0
M  V30 45 H 43.221117 32.251247 66.278818 0
M  V30 46 H 41.314911 32.669717 69.383501 0
M  V30 47 H 42.522269 31.648043 68.423647 0
M  V30 48 H 40.003916 35.497634 59.945639 0
M  V30 49 H 42.430291 35.292239 64.542140 0
M  V30 50 H 42.039181 36.935194 63.001511 0
M  V30 51 H 42.045064 35.475146 62.105597 0
M  V30 52 H 37.075455 34.450672 60.498382 0
M  V30 53 H 37.337792 33.124417 61.576724 0
M  V30 54 H 38.753641 31.023803 62.314880 0
M  V30 55 H 39.996498 30.023945 61.592240 0
M  V30 56 H 38.221362 34.137754 57.780510 0
M  V30 57 H 37.405634 29.514469 53.748194 0
M  V30 58 H 40.022244 36.726642 65.119928 0
M  V30 59 H 38.637176 31.759030 56.563934 0
M  V30 60 H 40.354101 34.637822 68.482659 0
M  V30 61 H 41.452579 31.703918 64.787661 0
M  V30 62 H 37.248709 30.418287 56.041508 0
M  V30 END ATOM
M  V30 BEGIN BOND
M  V30 1 1 2 1
M  V30 2 1 7 3
M  V30 3 1 11 1
M  V30 4 1 11 9
M  V30 5 1 14 4
M  V30 6 1 16 3
M  V30 7 2 16 9
M  V30 8 1 16 10
M  V30 9 1 17 10
M  V30 10 1 18 2
M  V30 11 1 18 17
M  V30 12 2 20 14
M  V30 13 1 21 11
M  V30 14 1 21 20
M  V30 15 1 22 3
M  V30 16 1 22 6
M  V30 17 1 23 20
M  V30 18 1 25 17
M  V30 19 2 25 19
M  V30 20 1 26 4
M  V30 21 1 26 13
M  V30 22 1 27 8
M  V30 23 2 27 13
M  V30 24 2 28 26
M  V30 25 1 29 27
M  V30 26 1 30 4
M  V30 27 2 30 23
M  V30 28 2 31 19
M  V30 29 2 32 10
M  V30 30 1 32 12
M  V30 31 1 33 13
M  V30 32 2 33 24
M  V30 33 1 34 12
M  V30 34 2 34 15
M  V30 35 1 34 31
M  V30 36 1 35 5
M  V30 37 2 35 8
M  V30 38 1 35 24
M  V30 39 1 36 1
M  V30 40 1 37 2
M  V30 41 1 3 38 CFG=3
M  V30 42 1 39 6
M  V30 43 1 40 7
M  V30 44 1 41 8
M  V30 45 1 42 9
M  V30 46 1 43 2
M  V30 47 1 44 12
M  V30 48 1 45 12
M  V30 49 1 46 15
M  V30 50 1 47 15
M  V30 51 1 48 1
M  V30 52 1 17 49 CFG=1
M  V30 53 1 50 18
M  V30 54 1 51 18
M  V30 55 1 52 21
M  V30 56 1 53 21
M  V30 57 1 54 22
M  V30 58 1 55 22
M  V30 59 1 56 23
M  V30 60 1 57 24
M  V30 61 1 58 25
M  V30 62 1 59 30
M  V30 63 1 60 31
M  V30 64 1 61 32
M  V30 65 1 62 33
M  V30 END BOND
M  V30 END CTAB
M  END
>  <i_epik_Tot_Q>  (1) 
-1

>  <i_epik_Tot_abs_Q>  (1) 
1

>  <i_i_glide_confnum>  (1) 
171

>  <i_i_glide_lignum>  (1) 
145

>  <i_i_glide_posenum>  (1) 
57

>  <i_i_glide_rotatable_bonds>  (1) 
8

>  <i_lp_mmshare_version>  (1) 
72125

>  <i_m_source_file_index>  (1) 
67

>  <i_f3d_flags>  (1) 
0

>  <num_sample>  (1) 
100

>  <b_lp_Chiralities_Consistent>  (1) 
1

>  <r_epik_Charging_Adjusted_Penalty>  (1) 
0.13314888727576835

>  <r_epik_Ionization_Penalty>  (1) 
0.066709733675270222

>  <r_epik_Ionization_Penalty_Charging>  (1) 
0.066574443637884173

>  <r_epik_Ionization_Penalty_Neutral>  (1) 
0.00013529003738605556

>  <r_epik_State_Penalty>  (1) 
0.066574443637884159

>  <r_glide_ring_energy>  (1) 
0

>  <r_i_docking_score>  (1) 
-7.6832696622511545

>  <r_i_glide_ecoul>  (1) 
-5.98261043173805

>  <r_i_glide_eff_state_penalty>  (1) 
0.066574443637884159

>  <r_i_glide_einternal>  (1) 
18.860005425739555

>  <r_i_glide_emodel>  (1) 
-58.762179650378457

>  <r_i_glide_emodel_strain>  (1) 
1.9285129633801148

>  <r_i_glide_energy>  (1) 
-49.505429367256468

>  <r_i_glide_erotb>  (1) 
0.50284807503681039

>  <r_i_glide_esite>  (1) 
-0.048256753709527471

>  <r_i_glide_evdw>  (1) 
-43.522818935518416

>  <r_i_glide_gscore>  (1) 
-7.7498441058890384

>  <r_i_glide_gscore_strain>  (1) 
0

>  <r_i_glide_hbond>  (1) 
-0.41112728328348597

>  <r_i_glide_ligand_efficiency>  (1) 
-0.21952199035003298

>  <r_i_glide_ligand_efficiency_ln>  (1) 
-1.6866482118468547

>  <r_i_glide_ligand_efficiency_sa>  (1) 
-0.71807098697953775

>  <r_i_glide_lipo>  (1) 
-3.9501938697542438

>  <r_i_glide_metal>  (1) 
-0

>  <r_i_glide_rewards>  (1) 
-0.76958176264196387

>  <r_lp_Energy>  (1) 
64.718769999999992

>  <r_lp_tautomer_probability>  (1) 
0.99999944244275329

>  <s_epik_cmdline>  (1) 
J2VwaWtfcHl0aG9uJywgJy1waHQnLCAnMS4wJywgJy1waCcsICc3LjQnLCAnLXRuJywgJzgnLCAnLW1hJywgJzUwMCcsICctaW1hZScsICc8aW5maWxlLm1hZT4nLCAnLW9tYWUnLCAnPG91dGZpbGUubWFlPic=

>  <s_epik_input>  (1) 
W0NIXTEvW0NIMl1DKD1bQ0gyXSlbQ0hdPUM9W0NIXVtDQEBIXShDPTFcMilbQ0gyXS9bQ0hdPVtDSF1cTihbQ0gyXVtDQEBIXTJbQ0BASF0oW09IXSlbQ0gyXVtPSF0pW0NIMl1jKFtjSF1bY0hdMylubjNDKD1PKWM0YyhDbClbY0hdYyhbT0hdKVtjSF1bY0hdNA==

>  <s_glide_docking_method>  (1) 
confgen

>  <s_i_glide_gridfile>  (1) 
gpcr_5ht2c_6bqh_protein_autoprepared_prepared

>  <s_lp_Force_Field>  (1) 
S-OPLS

>  <s_lp_Variant>  (1) 
DiffSBDD_66-1

>  <s_m_source_file>  (1) 
generated_GPCR_5HT2C_ligand_DiffSBDD_2026-06-23_prepared.sdf

>  <GenAI_Model>  (1) 
DiffSBDD

>  <Protein>  (1) 
GPCR_5HT2C

$$$$
DiffSBDD_50
     RDKit          3D

  0  0  0  0  0  0  0  0  0  0999 V3000
M  V30 BEGIN CTAB
M  V30 COUNTS 65 68 0 0 1
M  V30 BEGIN ATOM
M  V30 1 C 38.771071 28.304650 58.309138 0 CFG=2
M  V30 2 F 39.914196 31.108438 54.309632 0
M  V30 3 C 39.323009 31.195956 60.390205 0
M  V30 4 O 41.244742 28.664426 60.631995 0 CHG=-1
M  V30 5 O 41.390113 31.483872 63.511400 0
M  V30 6 O 40.184700 31.999197 61.122250 0
M  V30 7 S 37.244155 30.587792 58.864091 0
M  V30 8 C 37.684792 28.050351 57.217297 0
M  V30 9 C 39.583214 34.260334 61.862472 0 CFG=2
M  V30 10 O 38.215673 25.181589 56.369474 0
M  V30 11 C 40.606714 32.651341 63.428636 0 CFG=1
M  V30 12 C 41.135510 36.281549 62.468372 0
M  V30 13 C 40.039080 26.345404 57.336721 0
M  V30 14 C 38.293653 27.575211 55.888230 0 CFG=2
M  V30 15 C 39.825909 30.249308 52.081665 0
M  V30 16 C 40.196095 29.006799 61.320314 0
M  V30 17 C 39.105835 26.265282 56.113945 0 CFG=2
M  V30 18 C 37.653920 24.588019 55.209869 0
M  V30 19 F 38.845144 26.937773 50.859405 0
M  V30 20 C 38.919760 27.780024 53.092544 0
M  V30 21 C 40.486295 34.958533 62.899339 0 CFG=2
M  V30 22 C 39.334819 26.894734 58.590781 0
M  V30 23 C 39.555027 29.186938 51.202950 0
M  V30 24 C 41.487691 33.884366 63.299833 0
M  V30 25 C 38.259127 29.144981 59.531507 0 CFG=2
M  V30 26 C 39.202558 28.848125 53.982687 0
M  V30 27 C 39.650818 32.731847 62.203519 0 CFG=2
M  V30 28 C 39.298907 29.864346 60.425805 0
M  V30 29 N 39.072612 28.703031 55.376763 0
M  V30 30 C 39.646216 30.083361 53.466777 0
M  V30 31 C 39.101006 27.955396 51.706361 0
M  V30 32 O 38.369837 32.280951 62.567760 0
M  V30 33 O 38.253999 32.979774 59.306789 0
M  V30 34 O 40.044962 34.559882 60.567710 0
M  V30 35 C 38.352240 31.778523 59.547144 0
M  V30 36 H 39.576220 28.905913 57.885682 0
M  V30 37 H 41.912352 31.518254 64.297363 0
M  V30 38 H 36.959129 27.321958 57.583942 0
M  V30 39 H 37.111050 28.937895 56.967808 0
M  V30 40 H 38.557052 34.622079 61.944418 0
M  V30 41 H 40.021820 32.739868 64.344556 0
M  V30 42 H 41.740165 36.154533 61.571904 0
M  V30 43 H 40.383958 37.043090 62.261282 0
M  V30 44 H 41.790620 36.656609 63.253183 0
M  V30 45 H 40.892981 26.981794 57.100864 0
M  V30 46 H 40.445144 25.356845 57.551755 0
M  V30 47 H 37.463204 27.390560 55.209084 0
M  V30 48 H 40.172899 31.195996 51.693063 0
M  V30 49 H 40.318821 29.581397 62.233264 0
M  V30 50 H 39.530472 28.233831 61.705948 0
M  V30 51 H 39.719481 26.026293 55.244819 0
M  V30 52 H 36.998880 23.767195 55.502485 0
M  V30 53 H 37.059666 25.295502 54.632474 0
M  V30 54 H 38.432521 24.176440 54.568660 0
M  V30 55 H 38.580783 26.828658 53.465895 0
M  V30 56 H 39.870215 35.181801 63.767912 0
M  V30 57 H 40.044926 26.883334 59.401916 0
M  V30 58 H 38.538391 26.220064 58.906835 0
M  V30 59 H 39.692498 29.317521 50.139481 0
M  V30 60 H 42.218348 33.734734 62.505896 0
M  V30 61 H 42.020007 34.125051 64.220468 0
M  V30 62 H 37.645125 28.537742 60.166929 0
M  V30 63 H 39.166593 29.524184 55.960208 0
M  V30 64 H 38.476626 31.391441 62.872133 0
M  V30 65 H 39.497230 34.073622 59.959084 0
M  V30 END ATOM
M  V30 BEGIN BOND
M  V30 1 1 6 3
M  V30 2 1 8 1
M  V30 3 1 11 5
M  V30 4 1 14 8
M  V30 5 1 16 4
M  V30 6 1 17 10
M  V30 7 1 17 13
M  V30 8 1 17 14
M  V30 9 1 18 10
M  V30 10 1 21 9
M  V30 11 1 21 12
M  V30 12 1 22 1
M  V30 13 1 22 13
M  V30 14 2 23 15
M  V30 15 1 24 11
M  V30 16 1 24 21
M  V30 17 1 25 1
M  V30 18 1 25 7
M  V30 19 1 26 20
M  V30 20 1 27 6 CFG=3
M  V30 21 1 27 9
M  V30 22 1 27 11
M  V30 23 2 28 3
M  V30 24 1 28 16
M  V30 25 1 28 25
M  V30 26 1 29 14
M  V30 27 1 29 26
M  V30 28 1 30 2
M  V30 29 1 30 15
M  V30 30 2 30 26
M  V30 31 1 31 19
M  V30 32 2 31 20
M  V30 33 1 31 23
M  V30 34 1 32 27
M  V30 35 1 34 9
M  V30 36 1 35 3
M  V30 37 1 35 7
M  V30 38 2 35 33
M  V30 39 1 1 36 CFG=3
M  V30 40 1 37 5
M  V30 41 1 38 8
M  V30 42 1 39 8
M  V30 43 1 9 40 CFG=3
M  V30 44 1 11 41 CFG=1
M  V30 45 1 42 12
M  V30 46 1 43 12
M  V30 47 1 44 12
M  V30 48 1 45 13
M  V30 49 1 46 13
M  V30 50 1 14 47 CFG=3
M  V30 51 1 48 15
M  V30 52 1 49 16
M  V30 53 1 50 16
M  V30 54 1 17 51 CFG=3
M  V30 55 1 52 18
M  V30 56 1 53 18
M  V30 57 1 54 18
M  V30 58 1 55 20
M  V30 59 1 21 56 CFG=1
M  V30 60 1 57 22
M  V30 61 1 58 22
M  V30 62 1 59 23
M  V30 63 1 60 24
M  V30 64 1 61 24
M  V30 65 1 25 62 CFG=1
M  V30 66 1 63 29
M  V30 67 1 64 32
M  V30 68 1 65 34
M  V30 END BOND
M  V30 END CTAB
M  END
>  <i_epik_Tot_Q>  (1) 
-1

>  <i_epik_Tot_abs_Q>  (1) 
1

>  <i_i_glide_confnum>  (1) 
43

>  <i_i_glide_lignum>  (1) 
106

>  <i_i_glide_posenum>  (1) 
103

>  <i_i_glide_rotatable_bonds>  (1) 
10

>  <i_lp_mmshare_version>  (1) 
72125

>  <i_m_source_file_index>  (1) 
51

>  <i_f3d_flags>  (1) 
0

>  <num_sample>  (1) 
100

>  <b_lp_Chiralities_Consistent>  (1) 
1

>  <r_epik_Charging_Adjusted_Penalty>  (1) 
1.033121990919972

>  <r_epik_Ionization_Penalty>  (1) 
0.51659959183111048

>  <r_epik_Ionization_Penalty_Charging>  (1) 
0.51656099545998602

>  <r_epik_Ionization_Penalty_Neutral>  (1) 
3.8596371124435187e-05

>  <r_epik_State_Penalty>  (1) 
0.51656099545998602

>  <r_glide_ring_energy>  (1) 
0

>  <r_i_docking_score>  (1) 
-7.6831105109397599

>  <r_i_glide_ecoul>  (1) 
-0.88827923265091635

>  <r_i_glide_eff_state_penalty>  (1) 
0.51656099545998602

>  <r_i_glide_einternal>  (1) 
7.7704379610244985

>  <r_i_glide_emodel>  (1) 
-58.72401799103055

>  <r_i_glide_emodel_strain>  (1) 
2.7153568241542985

>  <r_i_glide_energy>  (1) 
-43.219001824212036

>  <r_i_glide_erotb>  (1) 
0.38736490325272716

>  <r_i_glide_esite>  (1) 
-0.028133889833041978

>  <r_i_glide_evdw>  (1) 
-42.33072259156112

>  <r_i_glide_gscore>  (1) 
-8.1996715063997456

>  <r_i_glide_gscore_strain>  (1) 
0

>  <r_i_glide_hbond>  (1) 
-0.084631988717604911

>  <r_i_glide_ligand_efficiency>  (1) 
-0.21951744316970742

>  <r_i_glide_ligand_efficiency_ln>  (1) 
-1.6866132746018305

>  <r_i_glide_ligand_efficiency_sa>  (1) 
-0.71805611285116844

>  <r_i_glide_lipo>  (1) 
-4.5888399472728452

>  <r_i_glide_metal>  (1) 
-0

>  <r_i_glide_rewards>  (1) 
-1.6356525693532888

>  <r_lp_Energy>  (1) 
68.171737999999991

>  <r_lp_tautomer_probability>  (1) 
0.99999998906363929

>  <s_epik_cmdline>  (1) 
J2VwaWtfcHl0aG9uJywgJy1waHQnLCAnMS4wJywgJy1waCcsICc3LjQnLCAnLXRuJywgJzgnLCAnLW1hJywgJzUwMCcsICctaW1hZScsICc8aW5maWxlLm1hZT4nLCAnLW9tYWUnLCAnPG91dGZpbGUubWFlPic=

>  <s_epik_input>  (1) 
W09IXVtDQEhdMVtDSDJdW0NAQEhdKFtDSDNdKVtDQEBIXShbT0hdKVtDQEBdMShbT0hdKU9DMj1DKFtDSDJdW09IXSlbQ0BASF0oU0MyPU8pW0NAQEhdM1tDSDJdW0NASF0oW0NASF0oT1tDSDNdKVtDSDJdW0NIMl0zKVtOSF1jNFtjSF1jKEYpW2NIXVtjSF1jNEY=

>  <s_glide_docking_method>  (1) 
confgen

>  <s_i_glide_gridfile>  (1) 
gpcr_5ht2c_6bqh_protein_autoprepared_prepared

>  <s_lp_Force_Field>  (1) 
S-OPLS

>  <s_lp_Variant>  (1) 
DiffSBDD_50-4

>  <s_m_source_file>  (1) 
generated_GPCR_5HT2C_ligand_DiffSBDD_2026-06-23_prepared.sdf

>  <GenAI_Model>  (1) 
DiffSBDD

>  <Protein>  (1) 
GPCR_5HT2C

$$$$
DiffSBDD_12
     RDKit          3D

  0  0  0  0  0  0  0  0  0  0999 V3000
M  V30 BEGIN CTAB
M  V30 COUNTS 68 70 0 0 1
M  V30 BEGIN ATOM
M  V30 1 C 39.146997 29.172709 51.213151 0 CFG=1
M  V30 2 C 39.682849 28.525594 59.134360 0
M  V30 3 N 38.447288 28.903208 52.495120 0 CFG=2 CHG=1
M  V30 4 C 37.705445 24.825510 57.608097 0
M  V30 5 O 37.176440 30.335584 54.675983 0
M  V30 6 O 41.103736 30.614081 50.875616 0
M  V30 7 N 40.527174 30.904805 61.556860 0 CHG=-1
M  V30 8 C 40.775997 32.153831 62.014704 0
M  V30 9 O 38.799677 31.122198 59.680716 0
M  V30 10 C 39.167640 29.675000 53.512229 0 CFG=1
M  V30 11 C 41.207643 35.190216 62.170944 0
M  V30 12 S 39.871574 27.462464 55.843370 0
M  V30 13 C 39.504889 27.417438 58.455380 0
M  V30 14 C 38.227222 27.486936 52.879238 0
M  V30 15 C 39.876389 34.467932 62.186702 0 CFG=1
M  V30 16 C 38.239466 28.234182 55.342649 0 CFG=1
M  V30 17 O 40.246867 26.408699 54.889339 0
M  V30 18 O 39.440163 36.658710 61.763873 0
M  V30 19 C 39.645303 30.963254 52.837116 0
M  V30 20 C 39.108024 35.382127 61.249531 0 CFG=2
M  V30 21 C 39.402886 28.655460 60.611617 0
M  V30 22 N 40.801020 36.577121 62.281239 0
M  V30 23 O 41.778887 32.483005 62.645313 0
M  V30 24 O 38.045323 30.537799 61.985006 0
M  V30 25 C 38.428391 29.699913 54.860526 0 CFG=2
M  V30 26 C 37.527008 27.392508 54.251221 0
M  V30 27 C 39.186793 25.161404 57.418617 0
M  V30 28 C 39.490968 26.647541 57.391931 0
M  V30 29 O 40.821108 28.537772 56.167772 0
M  V30 30 C 39.772790 30.583485 51.342830 0 CFG=2
M  V30 31 C 40.139039 28.096868 50.787577 0
M  V30 32 C 37.587753 35.188583 61.199127 0
M  V30 33 S 39.092488 30.454579 60.958455 0
M  V30 34 N 39.831102 33.077230 61.733824 0
M  V30 35 H 38.445133 29.162182 50.408550 0
M  V30 36 H 40.048802 29.413213 58.639772 0
M  V30 37 H 37.543464 23.747512 57.572650 0
M  V30 38 H 37.348076 25.179269 58.567721 0
M  V30 39 H 37.092876 25.283101 56.830201 0
M  V30 40 H 36.841603 30.651021 55.510864 0
M  V30 41 H 41.379144 31.518174 50.794307 0
M  V30 42 H 40.045125 29.105375 53.681445 0
M  V30 43 H 41.863189 34.923955 63.000174 0
M  V30 44 H 41.733814 35.037239 61.227872 0
M  V30 45 H 37.645156 26.993287 52.109151 0
M  V30 46 H 39.171708 26.953132 52.896302 0
M  V30 47 H 39.447801 34.508956 63.187815 0
M  V30 48 H 37.645115 28.252618 56.254392 0
M  V30 49 H 38.904315 31.751009 52.969082 0
M  V30 50 H 40.577691 31.324038 53.271017 0
M  V30 51 H 39.510369 35.300823 60.237108 0
M  V30 52 H 38.522881 28.075947 60.878776 0
M  V30 53 H 40.239676 28.316682 61.221590 0
M  V30 54 H 41.362678 37.151877 61.669134 0
M  V30 55 H 38.997630 30.275592 55.593968 0
M  V30 56 H 36.498069 27.737786 54.142744 0
M  V30 57 H 37.461994 26.348225 54.558960 0
M  V30 58 H 39.517460 24.708014 56.484640 0
M  V30 59 H 39.822835 24.705794 58.167714 0
M  V30 60 H 39.245137 31.300313 50.714453 0
M  V30 61 H 40.445127 28.308821 49.767738 0
M  V30 62 H 41.016000 28.137739 51.431943 0
M  V30 63 H 39.716470 27.093021 50.759502 0
M  V30 64 H 37.324244 34.183844 60.869513 0
M  V30 65 H 37.124040 35.358400 62.167689 0
M  V30 66 H 37.135544 35.889383 60.497284 0
M  V30 67 H 39.021732 32.790786 61.199166 0
M  V30 68 H 37.536656 29.338017 52.450997 0
M  V30 END ATOM
M  V30 BEGIN BOND
M  V30 1 1 3 1
M  V30 2 1 8 7
M  V30 3 1 10 3
M  V30 4 2 13 2
M  V30 5 1 14 3
M  V30 6 1 15 11
M  V30 7 1 16 12
M  V30 8 2 17 12
M  V30 9 1 19 10
M  V30 10 1 20 15
M  V30 11 1 20 18
M  V30 12 1 21 2
M  V30 13 1 22 11
M  V30 14 1 22 18
M  V30 15 2 23 8
M  V30 16 1 25 5
M  V30 17 1 25 10
M  V30 18 1 25 16
M  V30 19 1 26 14
M  V30 20 1 26 16
M  V30 21 1 27 4
M  V30 22 1 28 12
M  V30 23 2 28 13
M  V30 24 1 28 27
M  V30 25 2 29 12
M  V30 26 1 30 1
M  V30 27 1 30 6
M  V30 28 1 30 19
M  V30 29 1 31 1
M  V30 30 1 32 20
M  V30 31 1 33 7
M  V30 32 2 33 9
M  V30 33 1 33 21
M  V30 34 2 33 24
M  V30 35 1 34 8
M  V30 36 1 34 15
M  V30 37 1 1 35 CFG=3
M  V30 38 1 36 2
M  V30 39 1 37 4
M  V30 40 1 38 4
M  V30 41 1 39 4
M  V30 42 1 40 5
M  V30 43 1 41 6
M  V30 44 1 10 42 CFG=1
M  V30 45 1 43 11
M  V30 46 1 44 11
M  V30 47 1 45 14
M  V30 48 1 46 14
M  V30 49 1 15 47 CFG=1
M  V30 50 1 16 48 CFG=1
M  V30 51 1 49 19
M  V30 52 1 50 19
M  V30 53 1 20 51 CFG=3
M  V30 54 1 52 21
M  V30 55 1 53 21
M  V30 56 1 54 22
M  V30 57 1 25 55 CFG=1
M  V30 58 1 56 26
M  V30 59 1 57 26
M  V30 60 1 58 27
M  V30 61 1 59 27
M  V30 62 1 30 60 CFG=3
M  V30 63 1 61 31
M  V30 64 1 62 31
M  V30 65 1 63 31
M  V30 66 1 64 32
M  V30 67 1 65 32
M  V30 68 1 66 32
M  V30 69 1 67 34
M  V30 70 1 3 68 CFG=3
M  V30 END BOND
M  V30 END CTAB
M  END
>  <i_epik_Tot_Q>  (1) 
0

>  <i_epik_Tot_abs_Q>  (1) 
2

>  <i_i_glide_confnum>  (1) 
91

>  <i_i_glide_lignum>  (1) 
20

>  <i_i_glide_posenum>  (1) 
132

>  <i_i_glide_rotatable_bonds>  (1) 
11

>  <i_lp_mmshare_version>  (1) 
72125

>  <i_m_source_file_index>  (1) 
13

>  <i_f3d_flags>  (1) 
0

>  <num_sample>  (1) 
100

>  <b_lp_Chiralities_Consistent>  (1) 
1

>  <r_epik_Charging_Adjusted_Penalty>  (1) 
0.60912623126161669

>  <r_epik_Ionization_Penalty>  (1) 
0.30573665464692801

>  <r_epik_Ionization_Penalty_Charging>  (1) 
0.30464155940026277

>  <r_epik_Ionization_Penalty_Neutral>  (1) 
0.0010950952466652615

>  <r_epik_State_Penalty>  (1) 
0.30448467186135392

>  <r_glide_ring_energy>  (1) 
0

>  <r_i_docking_score>  (1) 
-7.6764617292754469

>  <r_i_glide_ecoul>  (1) 
-5.496694014717999

>  <r_i_glide_eff_state_penalty>  (1) 
0.30448467186135392

>  <r_i_glide_einternal>  (1) 
5.5081857479537311

>  <r_i_glide_emodel>  (1) 
-55.751824394838501

>  <r_i_glide_emodel_strain>  (1) 
3.7135858178730814

>  <r_i_glide_energy>  (1) 
-46.170263894251633

>  <r_i_glide_erotb>  (1) 
0.67758354065758886

>  <r_i_glide_esite>  (1) 
-0.012859343462025075

>  <r_i_glide_evdw>  (1) 
-40.67356987953363

>  <r_i_glide_gscore>  (1) 
-7.9809464011368005

>  <r_i_glide_gscore_strain>  (1) 
0

>  <r_i_glide_hbond>  (1) 
-0.068488417375309543

>  <r_i_glide_ligand_efficiency>  (1) 
-0.22577828615516021

>  <r_i_glide_ligand_efficiency_ln>  (1) 
-1.6959457134551641

>  <r_i_glide_ligand_efficiency_sa>  (1) 
-0.73143400030046168

>  <r_i_glide_lipo>  (1) 
-4.5508503129569675

>  <r_i_glide_metal>  (1) 
-0

>  <r_i_glide_rewards>  (1) 
-1.1681492718157056

>  <r_lp_Energy>  (1) 
-7.8299149999999997

>  <s_epik_Chemistry_Notes>  (1) 
This compound has a N-S or N-O group and may undergo hydrolysis at high or low pH.

>  <s_epik_cmdline>  (1) 
J2VwaWtfcHl0aG9uJywgJy1waHQnLCAnMS4wJywgJy1waCcsICc3LjQnLCAnLXRuJywgJzgnLCAnLW1hJywgJzUwMCcsICctaW1hZScsICc8aW5maWxlLm1hZT4nLCAnLW9tYWUnLCAnPG91dGZpbGUubWFlPic=

>  <s_epik_input>  (1) 
W0NIM11bQ0BASF0xW0NASF0oW09IXSlbQ0gyXVtDQEhdKE4xMilbQ0BASF0oW09IXSlbQ0BASF0oW0NIMl1bQ0gyXTIpUyg9TykoPU8pQyhbQ0gyXVtDSDNdKT1DPVtDSF1bQ0gyXVMoPU8pKD1PKVtOSF1DKD1PKVtOSF1bQ0BIXTNbQ0gyXVtOSF1PW0NAQEhdM1tDSDNd

>  <s_glide_docking_method>  (1) 
confgen

>  <s_i_glide_gridfile>  (1) 
gpcr_5ht2c_6bqh_protein_autoprepared_prepared

>  <s_lp_Force_Field>  (1) 
S-OPLS

>  <s_lp_Variant>  (1) 
DiffSBDD_12-2

>  <s_m_source_file>  (1) 
generated_GPCR_5HT2C_ligand_DiffSBDD_2026-06-23_prepared.sdf

>  <GenAI_Model>  (1) 
DiffSBDD

>  <Protein>  (1) 
GPCR_5HT2C

$$$$
DiffSBDD_84
     RDKit          3D

  0  0  0  0  0  0  0  0  0  0999 V3000
M  V30 BEGIN CTAB
M  V30 COUNTS 77 81 0 0 1
M  V30 BEGIN ATOM
M  V30 1 C 40.487133 28.999431 66.459684 0
M  V30 2 C 38.320460 28.873835 56.507447 0
M  V30 3 C 38.933061 30.050256 59.383680 0
M  V30 4 C 42.010537 35.154384 64.731653 0
M  V30 5 S 41.796027 32.137993 62.411348 0
M  V30 6 C 40.186970 26.135704 53.980940 0
M  V30 7 C 38.866977 26.417521 55.944995 0
M  V30 8 C 36.489551 34.139188 60.557587 0
M  V30 9 O 42.213601 36.137616 63.752609 0
M  V30 10 C 36.465677 30.007632 59.280302 0
M  V30 11 C 38.423646 26.007964 57.339719 0
M  V30 12 C 38.280501 27.753302 55.441730 0 CFG=2
M  V30 13 C 37.668841 32.017624 60.231467 0
M  V30 14 N 40.846327 27.664479 66.967910 0 CHG=1
M  V30 15 C 41.032300 34.055560 64.258469 0
M  V30 16 C 41.232495 29.280023 65.151049 0
M  V30 17 N 39.650847 25.693369 55.251708 0
M  V30 18 C 37.675360 33.386038 60.587069 0
M  V30 19 N 40.211864 29.969768 62.052926 0
M  V30 20 N 37.793211 29.507146 58.886081 0
M  V30 21 C 39.248389 27.075727 53.202437 0
M  V30 22 C 36.466214 31.438795 59.777842 0
M  V30 23 N 41.721881 32.786472 63.987498 0
M  V30 24 C 39.988757 34.477385 63.184563 0
M  V30 25 C 37.825684 28.404725 57.893608 0 CFG=2
M  V30 26 O 40.044354 29.630694 59.066315 0
M  V30 27 C 35.273905 32.190280 59.766874 0
M  V30 28 O 40.566928 34.929559 61.975504 0
M  V30 29 C 38.827084 28.244157 54.091263 0
M  V30 30 C 41.245895 30.500773 62.951658 0 CFG=2
M  V30 31 C 38.633789 27.157837 58.330573 0
M  V30 32 N 39.063551 30.786093 61.803577 0
M  V30 33 N 41.471489 31.778937 65.020150 0 CHG=1
M  V30 34 C 35.286249 33.537651 60.160781 0
M  V30 35 C 38.907701 31.216844 60.405240 0 CFG=1
M  V30 36 C 40.831462 30.580848 64.430532 0 CFG=2
M  V30 37 H 40.725010 29.749959 67.214410 0
M  V30 38 H 39.408264 29.034842 66.303451 0
M  V30 39 H 37.717709 29.718446 56.169772 0
M  V30 40 H 39.341632 29.243725 56.590879 0
M  V30 41 H 42.976193 34.756790 65.042877 0
M  V30 42 H 41.573524 35.658716 65.593882 0
M  V30 43 H 41.170042 26.537598 54.157571 0
M  V30 44 H 40.445088 25.284526 53.367927 0
M  V30 45 H 36.507453 35.182938 60.836573 0
M  V30 46 H 42.222310 37.004973 64.167836 0
M  V30 47 H 35.789664 29.964717 58.424740 0
M  V30 48 H 36.055185 29.350352 60.034753 0
M  V30 49 H 38.996867 25.135288 57.656741 0
M  V30 50 H 40.305622 27.486008 67.817795 0
M  V30 51 H 40.622435 26.955045 66.285400 0
M  V30 52 H 40.445195 33.862360 65.154814 0
M  V30 53 H 41.011493 28.448244 64.479152 0
M  V30 54 H 42.312750 29.248363 65.310400 0
M  V30 55 H 38.596334 33.855975 60.887007 0
M  V30 56 H 39.900799 29.049101 62.361150 0
M  V30 57 H 39.733958 27.440855 52.297577 0
M  V30 58 H 38.358506 26.532473 52.881247 0
M  V30 59 H 39.292488 33.661543 62.988373 0
M  V30 60 H 39.398865 35.317329 63.555477 0
M  V30 61 H 36.800608 28.062313 57.769611 0
M  V30 62 H 34.354286 31.738320 59.428448 0
M  V30 63 H 41.265844 35.528594 62.219657 0
M  V30 64 H 39.661005 28.921567 54.254651 0
M  V30 65 H 38.067233 28.837610 53.581026 0
M  V30 66 H 42.117907 29.851167 62.870726 0
M  V30 67 H 39.702856 27.366012 58.357364 0
M  V30 68 H 38.368714 26.847404 59.338151 0
M  V30 69 H 39.102323 31.609965 62.398945 0
M  V30 70 H 42.388121 31.544720 65.379118 0
M  V30 71 H 34.375839 34.117522 60.136261 0
M  V30 72 H 39.753530 31.859261 60.168026 0
M  V30 73 H 39.751183 30.727853 64.490349 0
M  V30 74 H 40.906564 32.204897 65.740053 0
M  V30 75 H 37.245286 27.517828 55.245890 0
M  V30 76 H 37.375877 25.707356 57.310109 0
M  V30 77 H 41.830004 27.622004 67.190208 0
M  V30 END ATOM
M  V30 BEGIN BOND
M  V30 1 1 9 4
M  V30 2 1 11 7
M  V30 3 1 12 2
M  V30 4 1 12 7
M  V30 5 1 14 1
M  V30 6 1 15 4
M  V30 7 1 16 1
M  V30 8 1 17 6
M  V30 9 2 17 7
M  V30 10 1 18 8
M  V30 11 2 18 13
M  V30 12 1 20 3
M  V30 13 1 20 10
M  V30 14 1 21 6
M  V30 15 1 22 10
M  V30 16 1 22 13
M  V30 17 1 23 5
M  V30 18 1 23 15
M  V30 19 1 24 15
M  V30 20 1 25 2
M  V30 21 1 25 20
M  V30 22 2 26 3
M  V30 23 2 27 22
M  V30 24 1 28 24
M  V30 25 1 29 12
M  V30 26 1 29 21
M  V30 27 1 30 5
M  V30 28 1 30 19
M  V30 29 1 31 11
M  V30 30 1 31 25
M  V30 31 1 32 19
M  V30 32 1 33 23
M  V30 33 2 34 8
M  V30 34 1 34 27
M  V30 35 1 35 3
M  V30 36 1 35 13
M  V30 37 1 35 32
M  V30 38 1 36 16
M  V30 39 1 36 30
M  V30 40 1 36 33
M  V30 41 1 37 1
M  V30 42 1 38 1
M  V30 43 1 39 2
M  V30 44 1 40 2
M  V30 45 1 41 4
M  V30 46 1 42 4
M  V30 47 1 43 6
M  V30 48 1 44 6
M  V30 49 1 45 8
M  V30 50 1 46 9
M  V30 51 1 47 10
M  V30 52 1 48 10
M  V30 53 1 49 11
M  V30 54 1 50 14
M  V30 55 1 51 14
M  V30 56 1 52 15
M  V30 57 1 53 16
M  V30 58 1 54 16
M  V30 59 1 55 18
M  V30 60 1 56 19
M  V30 61 1 57 21
M  V30 62 1 58 21
M  V30 63 1 59 24
M  V30 64 1 60 24
M  V30 65 1 25 61 CFG=3
M  V30 66 1 62 27
M  V30 67 1 63 28
M  V30 68 1 64 29
M  V30 69 1 65 29
M  V30 70 1 30 66 CFG=1
M  V30 71 1 67 31
M  V30 72 1 68 31
M  V30 73 1 69 32
M  V30 74 1 70 33
M  V30 75 1 71 34
M  V30 76 1 35 72 CFG=3
M  V30 77 1 36 73 CFG=3
M  V30 78 1 74 33
M  V30 79 1 12 75 CFG=3
M  V30 80 1 76 11
M  V30 81 1 77 14
M  V30 END BOND
M  V30 END CTAB
M  END
>  <i_epik_Tot_Q>  (1) 
2

>  <i_epik_Tot_abs_Q>  (1) 
2

>  <i_i_glide_confnum>  (1) 
1018

>  <i_i_glide_lignum>  (1) 
200

>  <i_i_glide_posenum>  (1) 
128

>  <i_i_glide_rotatable_bonds>  (1) 
11

>  <i_lp_mmshare_version>  (1) 
72125

>  <i_m_source_file_index>  (1) 
85

>  <i_f3d_flags>  (1) 
0

>  <num_sample>  (1) 
100

>  <b_lp_Chiralities_Consistent>  (1) 
1

>  <r_epik_Charging_Adjusted_Penalty>  (1) 
0.034284474231679775

>  <r_epik_Ionization_Penalty>  (1) 
0.42650113434003467

>  <r_epik_Ionization_Penalty_Charging>  (1) 
0.012847136256187231

>  <r_epik_Ionization_Penalty_Neutral>  (1) 
0.41365399808384745

>  <r_epik_State_Penalty>  (1) 
0.021437337975492542

>  <r_glide_ring_energy>  (1) 
0.11944417741279

>  <r_i_docking_score>  (1) 
-7.6723451409408154

>  <r_i_glide_ecoul>  (1) 
-14.710400206745424

>  <r_i_glide_eff_state_penalty>  (1) 
0.021437337975492542

>  <r_i_glide_einternal>  (1) 
19.991556418792293

>  <r_i_glide_emodel>  (1) 
-70.544482484803552

>  <r_i_glide_emodel_strain>  (1) 
2.0137519600022671

>  <r_i_glide_energy>  (1) 
-55.121041844200604

>  <r_i_glide_erotb>  (1) 
0.60855438394346106

>  <r_i_glide_esite>  (1) 
-0.036794514187993149

>  <r_i_glide_evdw>  (1) 
-40.410641637455178

>  <r_i_glide_gscore>  (1) 
-7.6937824789163081

>  <r_i_glide_gscore_strain>  (1) 
0

>  <r_i_glide_hbond>  (1) 
-0.31339363964687433

>  <r_i_glide_ligand_efficiency>  (1) 
-0.21312069835946709

>  <r_i_glide_ligand_efficiency_ln>  (1) 
-1.6738984269420583

>  <r_i_glide_ligand_efficiency_sa>  (1) 
-0.70370904121657696

>  <r_i_glide_lipo>  (1) 
-2.6413041334676328

>  <r_i_glide_metal>  (1) 
-0

>  <r_i_glide_rewards>  (1) 
-1.0837524626726955

>  <r_lp_Energy>  (1) 
50.953711999999996

>  <r_lp_tautomer_probability>  (1) 
0.99998399999999998

>  <s_epik_Chemistry_Notes>  (1) 
This compound has an imine and may undergo hydrolysis. This compound contains an acetal/aminal-like group ( X-CH(R)-Y where X, Y are N, S, or O) that may be acid/base labile, releasing an aldehyde. This compound has a N-S or N-O group and may undergo hydrolysis at high or low pH.

>  <s_epik_cmdline>  (1) 
J2VwaWtfcHl0aG9uJywgJy1waHQnLCAnMS4wJywgJy1waCcsICc3LjQnLCAnLXRuJywgJzgnLCAnLW1hJywgJzUwMCcsICctaW1hZScsICc8aW5maWxlLm1hZT4nLCAnLW9tYWUnLCAnPG91dGZpbGUubWFlPic=

>  <s_epik_input>  (1) 
W09IXVtDSDJdW0NIXShbQ0gyXVtPSF0pTjFTW0NASF0oW0NASF0oW05IXTEpW0NIMl1bQ0gyXVtOSDJdKVtOSF1bTkhdW0NASF0yQyg9TylOKFtDSDJdYyhjMjMpW2NIXVtjSF1bY0hdW2NIXTMpW0NASF0oW0NIMl1bQ0gyXTQpW0NIMl1DKD1DNDUpW0NIMl1bQ0gyXVtDSDJdW05IXTU=

>  <s_glide_docking_method>  (1) 
confgen

>  <s_i_glide_gridfile>  (1) 
gpcr_5ht2c_6bqh_protein_autoprepared_prepared

>  <s_lp_Force_Field>  (1) 
S-OPLS

>  <s_lp_Variant>  (1) 
DiffSBDD_84-3

>  <s_m_source_file>  (1) 
generated_GPCR_5HT2C_ligand_DiffSBDD_2026-06-23_prepared.sdf

>  <GenAI_Model>  (1) 
DiffSBDD

>  <Protein>  (1) 
GPCR_5HT2C

$$$$
DiffSBDD_74
     RDKit          3D

  0  0  0  0  0  0  0  0  0  0999 V3000
M  V30 BEGIN CTAB
M  V30 COUNTS 71 73 0 0 1
M  V30 BEGIN ATOM
M  V30 1 C 34.850885 33.737046 60.535040 0
M  V30 2 C 38.350166 33.337712 59.044639 0
M  V30 3 C 39.070272 35.834406 61.831541 0
M  V30 4 F 37.146592 24.245066 57.161327 0
M  V30 5 C 39.001808 34.137689 59.897875 0
M  V30 6 C 38.656232 25.975115 57.583051 0
M  V30 7 C 39.784397 26.137742 58.403960 0
M  V30 8 C 37.205135 29.486478 57.649040 0
M  V30 9 O 39.603114 28.054936 55.319661 0
M  V30 10 F 37.229107 37.330862 62.031611 0
M  V30 11 F 39.245866 38.138101 62.167470 0
M  V30 12 C 38.045116 34.004462 56.132163 0
M  V30 13 F 38.545206 24.778554 55.597815 0
M  V30 14 C 33.937825 32.933510 59.610177 0
M  V30 15 C 37.098716 34.390881 61.343410 0
M  V30 16 N 37.530134 29.978311 56.287212 0 CHG=1
M  V30 17 C 39.660612 29.422884 55.000253 0 CFG=1
M  V30 18 C 39.170506 29.620913 53.565182 0
M  V30 19 C 36.871978 33.045689 59.194681 0
M  V30 20 C 38.072056 28.304187 57.953453 0
M  V30 21 N 38.315405 32.651671 56.600053 0
M  V30 22 F 39.234974 23.737805 57.367708 0
M  V30 23 C 39.017598 31.823392 55.604769 0 CFG=1
M  V30 24 C 36.317660 33.316783 60.604042 0 CFG=2
M  V30 25 C 38.955128 30.340243 56.037556 0 CFG=1
M  V30 26 C 38.479347 31.923778 54.156682 0
M  V30 27 C 40.045496 27.375483 59.012467 0
M  V30 28 F 39.007036 35.584397 63.136328 0
M  V30 29 F 40.359777 35.883987 61.486771 0
M  V30 30 O 36.409961 32.119875 61.359525 0
M  V30 31 C 39.046889 32.688591 57.867293 0
M  V30 32 C 38.386412 24.648725 56.914904 0
M  V30 33 C 37.793995 27.055209 57.366020 0
M  V30 34 C 38.349468 34.765156 61.022869 0
M  V30 35 C 38.478985 37.226215 61.578219 0
M  V30 36 C 39.191584 28.457456 58.790154 0
M  V30 37 C 39.381865 31.089577 53.228680 0
M  V30 38 H 34.444915 33.738550 61.545712 0
M  V30 39 H 34.845432 34.752967 60.151715 0
M  V30 40 H 40.045257 34.332372 59.728557 0
M  V30 41 H 40.454420 25.310549 58.567453 0
M  V30 42 H 37.438286 30.251038 58.378730 0
M  V30 43 H 36.146450 29.257811 57.767810 0
M  V30 44 H 40.077716 27.902760 56.124898 0
M  V30 45 H 37.285937 34.002998 55.354225 0
M  V30 46 H 37.662133 34.615169 56.942962 0
M  V30 47 H 38.928403 34.484078 55.721441 0
M  V30 48 H 32.898428 33.226938 59.767810 0
M  V30 49 H 34.162628 33.134828 58.567694 0
M  V30 50 H 34.045212 31.860592 59.767975 0
M  V30 51 H 36.597543 34.862233 62.167867 0
M  V30 52 H 36.980271 30.828871 56.171881 0
M  V30 53 H 40.717787 29.692652 55.020792 0
M  V30 54 H 38.120687 29.340277 53.464242 0
M  V30 55 H 39.721222 28.992725 52.866422 0
M  V30 56 H 36.604553 32.044812 58.886018 0
M  V30 57 H 36.381739 33.708962 58.482818 0
M  V30 58 H 40.059725 32.145723 55.586563 0
M  V30 59 H 39.552271 30.220888 56.934924 0
M  V30 60 H 37.445194 31.582447 54.110980 0
M  V30 61 H 38.444748 32.937751 53.799929 0
M  V30 62 H 40.913055 27.495149 59.643188 0
M  V30 63 H 37.313324 31.840050 61.340607 0
M  V30 64 H 39.996810 33.195968 57.700970 0
M  V30 65 H 39.245150 31.689529 58.236104 0
M  V30 66 H 36.939721 26.934408 56.723370 0
M  V30 67 H 38.445103 37.459806 60.516722 0
M  V30 68 H 39.404675 29.414816 59.245020 0
M  V30 69 H 39.245203 31.287377 52.169152 0
M  V30 70 H 40.431730 31.337707 53.394063 0
M  V30 71 H 37.245121 29.294416 55.603197 0
M  V30 END ATOM
M  V30 BEGIN BOND
M  V30 1 2 5 2
M  V30 2 2 7 6
M  V30 3 1 14 1
M  V30 4 1 16 8
M  V30 5 1 17 9
M  V30 6 1 18 17
M  V30 7 1 19 2
M  V30 8 1 20 8
M  V30 9 1 21 12
M  V30 10 1 23 21
M  V30 11 1 24 1
M  V30 12 1 24 15
M  V30 13 1 24 19
M  V30 14 1 25 16
M  V30 15 1 25 17
M  V30 16 1 25 23
M  V30 17 1 26 23
M  V30 18 1 27 7
M  V30 19 1 28 3
M  V30 20 1 29 3
M  V30 21 1 24 30 CFG=1
M  V30 22 1 31 2
M  V30 23 1 31 21
M  V30 24 1 32 4
M  V30 25 1 32 6
M  V30 26 1 32 13
M  V30 27 1 32 22
M  V30 28 1 33 6
M  V30 29 2 33 20
M  V30 30 1 34 3
M  V30 31 1 34 5
M  V30 32 2 34 15
M  V30 33 1 35 3
M  V30 34 1 35 10
M  V30 35 1 35 11
M  V30 36 1 36 20
M  V30 37 2 36 27
M  V30 38 1 37 18
M  V30 39 1 37 26
M  V30 40 1 38 1
M  V30 41 1 39 1
M  V30 42 1 40 5
M  V30 43 1 41 7
M  V30 44 1 42 8
M  V30 45 1 43 8
M  V30 46 1 44 9
M  V30 47 1 45 12
M  V30 48 1 46 12
M  V30 49 1 47 12
M  V30 50 1 48 14
M  V30 51 1 49 14
M  V30 52 1 50 14
M  V30 53 1 51 15
M  V30 54 1 52 16
M  V30 55 1 17 53 CFG=3
M  V30 56 1 54 18
M  V30 57 1 55 18
M  V30 58 1 56 19
M  V30 59 1 57 19
M  V30 60 1 23 58 CFG=3
M  V30 61 1 25 59 CFG=1
M  V30 62 1 60 26
M  V30 63 1 61 26
M  V30 64 1 62 27
M  V30 65 1 63 30
M  V30 66 1 64 31
M  V30 67 1 65 31
M  V30 68 1 66 33
M  V30 69 1 67 35
M  V30 70 1 68 36
M  V30 71 1 69 37
M  V30 72 1 70 37
M  V30 73 1 71 16
M  V30 END BOND
M  V30 END CTAB
M  END
>  <i_epik_Tot_Q>  (1) 
1

>  <i_epik_Tot_abs_Q>  (1) 
1

>  <i_i_glide_confnum>  (1) 
815

>  <i_i_glide_lignum>  (1) 
162

>  <i_i_glide_posenum>  (1) 
143

>  <i_i_glide_rotatable_bonds>  (1) 
12

>  <i_lp_mmshare_version>  (1) 
72125

>  <i_m_source_file_index>  (1) 
75

>  <i_f3d_flags>  (1) 
0

>  <num_sample>  (1) 
100

>  <b_lp_Chiralities_Consistent>  (1) 
1

>  <r_epik_Charging_Adjusted_Penalty>  (1) 
0.26612613870957635

>  <r_epik_Ionization_Penalty>  (1) 
0.1330997432788415

>  <r_epik_Ionization_Penalty_Charging>  (1) 
0.13306306935478829

>  <r_epik_Ionization_Penalty_Neutral>  (1) 
3.6673924053210746e-05

>  <r_epik_State_Penalty>  (1) 
0.13306306935478809

>  <r_glide_ring_energy>  (1) 
0

>  <r_i_docking_score>  (1) 
-7.6612819841015058

>  <r_i_glide_ecoul>  (1) 
-3.5303913772243583

>  <r_i_glide_eff_state_penalty>  (1) 
0.13306306935478809

>  <r_i_glide_einternal>  (1) 
10.826256685293572

>  <r_i_glide_emodel>  (1) 
-48.773779694345507

>  <r_i_glide_emodel_strain>  (1) 
1.2228076156366754

>  <r_i_glide_energy>  (1) 
-31.486535962413353

>  <r_i_glide_erotb>  (1) 
0.49698158257681319

>  <r_i_glide_esite>  (1) 
-0.085344081257425181

>  <r_i_glide_evdw>  (1) 
-27.956144585188994

>  <r_i_glide_gscore>  (1) 
-7.7943450534562944

>  <r_i_glide_gscore_strain>  (1) 
0

>  <r_i_glide_hbond>  (1) 
-0.34721688429741582

>  <r_i_glide_ligand_efficiency>  (1) 
-0.20706167524598665

>  <r_i_glide_ligand_efficiency_ln>  (1) 
-1.6615524564192445

>  <r_i_glide_ligand_efficiency_sa>  (1) 
-0.68997543889309476

>  <r_i_glide_lipo>  (1) 
-3.4469660000841231

>  <r_i_glide_metal>  (1) 
-0

>  <r_i_glide_rewards>  (1) 
-2.4844337345510406

>  <r_lp_Energy>  (1) 
43.081995999999997

>  <s_epik_cmdline>  (1) 
J2VwaWtfcHl0aG9uJywgJy1waHQnLCAnMS4wJywgJy1waCcsICc3LjQnLCAnLXRuJywgJzgnLCAnLW1hJywgJzUwMCcsICctaW1hZScsICc8aW5maWxlLm1hZT4nLCAnLW9tYWUnLCAnPG91dGZpbGUubWFlPic=

>  <s_epik_input>  (1) 
W0NIM11bQ0gyXVtDQF0xKFtPSF0pW0NIXT1DKEMoRikoRilbQ0hdKEYpRilbQ0hdPUMoW0NIMl0xKVtDSDJdTihbQ0gzXSlbQ0BIXShbQ0gyXVtDSDJdW0NIMl1bQ0BASF0yW09IXSlbQ0BIXTJbTkhdW0NIMl1jKFtjSF0zKVtjSF1bY0hdW2NIXWMzQyhGKShGKUY=

>  <s_glide_docking_method>  (1) 
confgen

>  <s_i_glide_gridfile>  (1) 
gpcr_5ht2c_6bqh_protein_autoprepared_prepared

>  <s_lp_Force_Field>  (1) 
S-OPLS

>  <s_lp_Variant>  (1) 
DiffSBDD_74-1

>  <s_m_source_file>  (1) 
generated_GPCR_5HT2C_ligand_DiffSBDD_2026-06-23_prepared.sdf

>  <GenAI_Model>  (1) 
DiffSBDD

>  <Protein>  (1) 
GPCR_5HT2C

$$$$
DiffSBDD_59
     RDKit          3D

  0  0  0  0  0  0  0  0  0  0999 V3000
M  V30 BEGIN CTAB
M  V30 COUNTS 70 72 0 0 1
M  V30 BEGIN ATOM
M  V30 1 C 40.044825 30.475577 52.280835 0
M  V30 2 O 36.003669 31.822395 60.095956 0
M  V30 3 C 39.038744 28.611898 58.573485 0
M  V30 4 C 39.131796 28.249318 56.002154 0
M  V30 5 C 38.395652 32.336705 59.796065 0 CFG=1
M  V30 6 O 40.386566 32.552988 63.835620 0
M  V30 7 C 38.774202 27.505998 52.354869 0
M  V30 8 C 38.711881 33.161943 61.094205 0 CFG=2
M  V30 9 C 38.528861 30.062469 58.569981 0
M  V30 10 C 38.521776 35.369784 62.223880 0 CFG=1
M  V30 11 C 39.374683 29.737807 53.384213 0
M  V30 12 C 40.504956 31.955594 62.564013 0
M  V30 13 C 38.236529 27.914747 54.782259 0 CFG=1
M  V30 14 C 37.351161 36.293378 62.758038 0
M  V30 15 N 38.282688 34.588651 60.981194 0
M  V30 16 C 40.223857 32.980259 61.451769 0
M  V30 17 C 38.814250 28.344419 53.409822 0
M  V30 18 F 40.870728 30.937662 50.213640 0
M  V30 19 O 35.245292 38.537747 62.232257 0 CHG=-1
M  V30 20 C 36.880661 34.682577 60.558994 0
M  V30 21 O 39.391503 38.937668 61.367768 0
M  V30 22 C 36.463340 38.553957 61.962171 0
M  V30 23 C 40.243405 30.073587 51.023224 0
M  V30 24 O 35.190252 34.166025 58.967795 0
M  V30 25 N 36.843047 39.743569 61.367781 0
M  V30 26 C 38.933945 37.860036 61.767749 0
M  V30 27 C 38.747798 30.820939 59.889541 0
M  V30 28 C 39.245101 27.727207 50.984101 0
M  V30 29 S 39.982801 36.445094 61.951030 0
M  V30 30 C 36.940925 32.534229 59.300315 0 CFG=2
M  V30 31 Cl 37.777253 26.180483 54.902814 0
M  V30 32 C 36.570627 34.014932 59.231613 0 CFG=2
M  V30 33 C 38.530269 27.814576 57.357720 0
M  V30 34 C 37.529216 37.646586 62.132059 0
M  V30 35 C 39.857963 28.804041 50.428392 0
M  V30 36 H 40.400352 31.457249 52.551323 0
M  V30 37 H 35.268043 31.639195 59.525459 0
M  V30 38 H 40.127643 28.587617 58.619580 0
M  V30 39 H 38.683665 28.119544 59.478964 0
M  V30 40 H 39.280896 29.324819 56.034387 0
M  V30 41 H 40.122636 27.808517 55.881091 0
M  V30 42 H 39.030061 32.761695 59.015938 0
M  V30 43 H 41.022264 33.249101 63.907824 0
M  V30 44 H 38.329664 26.542795 52.529781 0
M  V30 45 H 38.128335 32.717759 61.904801 0
M  V30 46 H 37.462857 30.041134 58.340021 0
M  V30 47 H 39.010088 30.622626 57.768652 0
M  V30 48 H 38.845148 34.686487 63.003564 0
M  V30 49 H 38.568305 30.391028 53.719441 0
M  V30 50 H 40.134121 29.787941 54.159491 0
M  V30 51 H 41.520840 31.572036 62.470950 0
M  V30 52 H 39.834051 31.099371 62.504314 0
M  V30 53 H 37.304219 28.471968 54.892599 0
M  V30 54 H 36.336214 35.905437 62.683917 0
M  V30 55 H 37.508731 36.466329 63.823319 0
M  V30 56 H 40.718133 33.909828 61.711909 0
M  V30 57 H 40.771112 32.662065 60.567766 0
M  V30 58 H 36.236264 34.248563 61.324634 0
M  V30 59 H 36.597372 35.729246 60.443526 0
M  V30 60 H 34.715711 33.762698 59.678245 0
M  V30 61 H 37.786151 39.937337 61.060443 0
M  V30 62 H 36.199050 40.490897 61.144298 0
M  V30 63 H 39.790233 30.685776 60.168429 0
M  V30 64 H 38.161720 30.351522 60.681251 0
M  V30 65 H 39.077537 26.900899 50.307614 0
M  V30 66 H 36.866159 32.149495 58.287152 0
M  V30 67 H 37.133032 34.507205 58.436622 0
M  V30 68 H 38.739236 26.755652 57.512902 0
M  V30 69 H 37.443140 27.900491 57.327330 0
M  V30 70 H 40.101173 28.701414 49.381669 0
M  V30 END ATOM
M  V30 BEGIN BOND
M  V30 1 1 8 5
M  V30 2 1 9 3
M  V30 3 1 11 1
M  V30 4 1 12 6
M  V30 5 1 13 4
M  V30 6 1 14 10
M  V30 7 1 15 8
M  V30 8 1 15 10
M  V30 9 1 16 8
M  V30 10 1 16 12
M  V30 11 2 17 7
M  V30 12 1 17 11
M  V30 13 1 17 13
M  V30 14 1 20 15
M  V30 15 1 22 19
M  V30 16 2 23 1
M  V30 17 1 23 18
M  V30 18 1 25 22
M  V30 19 2 26 21
M  V30 20 1 27 5
M  V30 21 1 27 9
M  V30 22 1 28 7
M  V30 23 1 29 10
M  V30 24 1 29 26
M  V30 25 1 30 2
M  V30 26 1 30 5
M  V30 27 1 31 13
M  V30 28 1 32 20
M  V30 29 1 32 24
M  V30 30 1 32 30
M  V30 31 1 33 3
M  V30 32 1 33 4
M  V30 33 1 34 14
M  V30 34 2 34 22
M  V30 35 1 34 26
M  V30 36 1 35 23
M  V30 37 2 35 28
M  V30 38 1 36 1
M  V30 39 1 37 2
M  V30 40 1 38 3
M  V30 41 1 39 3
M  V30 42 1 40 4
M  V30 43 1 41 4
M  V30 44 1 5 42 CFG=3
M  V30 45 1 43 6
M  V30 46 1 44 7
M  V30 47 1 8 45 CFG=1
M  V30 48 1 46 9
M  V30 49 1 47 9
M  V30 50 1 10 48 CFG=1
M  V30 51 1 49 11
M  V30 52 1 50 11
M  V30 53 1 51 12
M  V30 54 1 52 12
M  V30 55 1 13 53 CFG=1
M  V30 56 1 54 14
M  V30 57 1 55 14
M  V30 58 1 56 16
M  V30 59 1 57 16
M  V30 60 1 58 20
M  V30 61 1 59 20
M  V30 62 1 60 24
M  V30 63 1 61 25
M  V30 64 1 62 25
M  V30 65 1 63 27
M  V30 66 1 64 27
M  V30 67 1 65 28
M  V30 68 1 30 66 CFG=3
M  V30 69 1 32 67 CFG=3
M  V30 70 1 68 33
M  V30 71 1 69 33
M  V30 72 1 70 35
M  V30 END BOND
M  V30 END CTAB
M  END
>  <i_epik_Tot_Q>  (1) 
-1

>  <i_epik_Tot_abs_Q>  (1) 
1

>  <i_i_glide_confnum>  (1) 
1025

>  <i_i_glide_lignum>  (1) 
131

>  <i_i_glide_posenum>  (1) 
178

>  <i_i_glide_rotatable_bonds>  (1) 
13

>  <i_lp_mmshare_version>  (1) 
72125

>  <i_m_source_file_index>  (1) 
60

>  <i_f3d_flags>  (1) 
0

>  <num_sample>  (1) 
100

>  <b_lp_Chiralities_Consistent>  (1) 
1

>  <r_epik_Charging_Adjusted_Penalty>  (1) 
0.0074905743673960735

>  <r_epik_Ionization_Penalty>  (1) 
0.0074913792642442509

>  <r_epik_Ionization_Penalty_Charging>  (1) 
4.9207863050936644e-05

>  <r_epik_Ionization_Penalty_Neutral>  (1) 
0.0074421714011933138

>  <r_epik_State_Penalty>  (1) 
0.0074413665043451364

>  <r_glide_ring_energy>  (1) 
0

>  <r_i_docking_score>  (1) 
-7.6611851264544244

>  <r_i_glide_ecoul>  (1) 
-2.9352496423049521

>  <r_i_glide_eff_state_penalty>  (1) 
0.0074413665043451364

>  <r_i_glide_einternal>  (1) 
17.041122767790871

>  <r_i_glide_emodel>  (1) 
-51.01610176007609

>  <r_i_glide_emodel_strain>  (1) 
2.0361775552814834

>  <r_i_glide_energy>  (1) 
-43.217491846036282

>  <r_i_glide_erotb>  (1) 
0.6601858334746602

>  <r_i_glide_esite>  (1) 
-0.019645872863357956

>  <r_i_glide_evdw>  (1) 
-40.282242203731329

>  <r_i_glide_gscore>  (1) 
-7.6686264929587695

>  <r_i_glide_gscore_strain>  (1) 
0

>  <r_i_glide_hbond>  (1) 
-0.22658736161401496

>  <r_i_glide_ligand_efficiency>  (1) 
-0.21889100361298355

>  <r_i_glide_ligand_efficiency_ln>  (1) 
-1.6818001660996085

>  <r_i_glide_ligand_efficiency_sa>  (1) 
-0.71600698752179948

>  <r_i_glide_lipo>  (1) 
-4.4587662116836508

>  <r_i_glide_metal>  (1) 
-0

>  <r_i_glide_rewards>  (1) 
-1.1694133237400959

>  <r_lp_Energy>  (1) 
21.219953

>  <s_epik_Chemistry_Notes>  (1) 
This compound contains an acetal/aminal-like group ( X-CH(R)-Y where X, Y are N, S, or O) that may be acid/base labile, releasing an aldehyde.

>  <s_epik_cmdline>  (1) 
J2VwaWtfcHl0aG9uJywgJy1waHQnLCAnMS4wJywgJy1waCcsICc3LjQnLCAnLXRuJywgJzgnLCAnLW1hJywgJzUwMCcsICctaW1hZScsICc8aW5maWxlLm1hZT4nLCAnLW9tYWUnLCAnPG91dGZpbGUubWFlPic=

>  <s_epik_input>  (1) 
W0NIMl0xW0NIXT1DKEYpW0NIXT1bQ0hdW0NIXT1DMVtDQEBIXShDbClbQ0gyXVtDSDJdW0NIMl1bQ0gyXVtDSDJdW0NAQEhdMltDQEBIXShbQ0gyXVtDSDJdW09IXSlOKFtDSDJdW0NASF0oW09IXSlbQ0BASF0yW09IXSlbQ0BASF0zW0NIMl1bQ0BIXShDKD1PKVMzKUMoPU8pW05IMl0=

>  <s_glide_docking_method>  (1) 
confgen

>  <s_i_glide_gridfile>  (1) 
gpcr_5ht2c_6bqh_protein_autoprepared_prepared

>  <s_lp_Force_Field>  (1) 
S-OPLS

>  <s_lp_Variant>  (1) 
DiffSBDD_59-1

>  <s_m_source_file>  (1) 
generated_GPCR_5HT2C_ligand_DiffSBDD_2026-06-23_prepared.sdf

>  <GenAI_Model>  (1) 
DiffSBDD

>  <Protein>  (1) 
GPCR_5HT2C

$$$$
DiffSBDD_75
     RDKit          3D

  0  0  0  0  0  0  0  0  0  0999 V3000
M  V30 BEGIN CTAB
M  V30 COUNTS 77 78 0 0 1
M  V30 BEGIN ATOM
M  V30 1 C 40.193865 29.784817 62.428973 0
M  V30 2 C 37.298247 31.089985 60.550034 0
M  V30 3 O 38.698464 30.515924 57.755913 0
M  V30 4 C 39.932001 30.206059 65.742195 0
M  V30 5 C 39.127578 30.020909 55.046082 0 CFG=1
M  V30 6 C 39.332492 35.393202 61.247316 0
M  V30 7 C 39.107149 29.181434 57.511548 0 CFG=2
M  V30 8 C 38.097977 35.478578 60.567768 0
M  V30 9 O 36.820770 30.470291 54.567748 0
M  V30 10 C 39.519793 27.519582 55.516462 0 CFG=2
M  V30 11 O 37.351746 39.068520 60.967821 0
M  V30 12 S 39.269935 28.499659 60.205031 0
M  V30 13 C 40.242695 28.840283 66.359465 0
M  V30 14 C 37.986352 37.862276 61.072784 0
M  V30 15 C 40.112738 28.868290 58.640135 0
M  V30 16 C 40.074840 34.081161 61.312065 0
M  V30 17 C 39.882860 36.537595 61.852277 0
M  V30 18 O 37.923768 25.909963 54.611570 0
M  V30 19 C 40.166369 26.427932 56.387928 0
M  V30 20 C 39.688428 28.979735 56.067893 0 CFG=1
M  V30 21 O 41.378462 28.906675 67.190931 0
M  V30 22 O 38.111436 30.559224 61.583757 0
M  V30 23 O 42.037352 32.137832 62.174457 0
M  V30 24 C 41.991009 31.464485 65.250969 0
M  V30 25 N 40.923376 30.582459 64.697594 0 CFG=2 CHG=1
M  V30 26 C 40.934003 32.190557 62.719247 0
M  V30 27 C 37.426716 36.714218 60.478894 0
M  V30 28 C 40.140504 33.492741 62.721730 0
M  V30 29 C 40.267855 30.980861 63.402676 0 CFG=1
M  V30 30 C 39.211431 37.768752 61.767810 0
M  V30 31 C 37.499426 28.202276 54.139144 0
M  V30 32 C 39.367369 30.047458 61.151417 0 CFG=1
M  V30 33 C 40.018597 30.277405 53.827110 0
M  V30 34 C 38.049120 27.203210 55.167531 0 CFG=2
M  V30 35 C 37.724014 29.646040 54.586597 0
M  V30 36 H 41.199075 29.461067 62.155171 0
M  V30 37 H 39.748891 28.939069 62.951811 0
M  V30 38 H 36.391185 31.514021 60.980652 0
M  V30 39 H 37.810138 31.882622 60.004227 0
M  V30 40 H 36.996628 30.313134 59.847776 0
M  V30 41 H 37.901660 30.697255 57.271623 0
M  V30 42 H 39.872719 30.967961 66.519398 0
M  V30 43 H 38.926418 30.138429 65.327062 0
M  V30 44 H 38.221236 28.560836 57.641434 0
M  V30 45 H 37.672622 34.600517 60.102436 0
M  V30 46 H 38.000271 28.066458 53.180500 0
M  V30 47 H 40.045136 27.474541 54.567930 0
M  V30 48 H 36.621302 39.106968 60.358131 0
M  V30 49 H 39.392146 28.538214 66.967627 0
M  V30 50 H 40.387536 28.078970 65.591584 0
M  V30 51 H 40.843484 29.666012 58.771430 0
M  V30 52 H 40.699629 27.984462 58.407453 0
M  V30 53 H 39.637737 33.368915 60.611131 0
M  V30 54 H 41.087221 34.283920 60.968122 0
M  V30 55 H 40.828702 36.473461 62.372075 0
M  V30 56 H 38.419054 25.870266 53.808122 0
M  V30 57 H 39.621403 26.276628 57.319660 0
M  V30 58 H 40.185894 25.467766 55.871884 0
M  V30 59 H 41.201967 26.673093 56.623091 0
M  V30 60 H 40.760215 29.161242 56.130724 0
M  V30 61 H 41.384645 28.138901 67.747158 0
M  V30 62 H 41.617073 32.469685 65.452075 0
M  V30 63 H 42.379818 31.066972 66.188239 0
M  V30 64 H 42.846130 31.531167 64.577539 0
M  V30 65 H 36.488753 36.780854 59.947883 0
M  V30 66 H 40.615911 34.193800 63.407467 0
M  V30 67 H 39.130786 33.315712 63.088059 0
M  V30 68 H 39.245088 31.276811 63.627861 0
M  V30 69 H 39.645220 38.645889 62.221557 0
M  V30 70 H 36.445208 28.020229 53.962185 0
M  V30 71 H 39.058538 30.998665 55.519999 0
M  V30 72 H 39.866535 30.800360 60.540423 0
M  V30 73 H 39.646047 31.124629 53.249338 0
M  V30 74 H 41.025380 30.537721 54.150866 0
M  V30 75 H 40.044944 29.423199 53.151168 0
M  V30 76 H 37.441793 27.210789 56.070486 0
M  V30 77 H 41.402597 29.719109 64.484916 0
M  V30 END ATOM
M  V30 BEGIN BOND
M  V30 1 1 7 3
M  V30 2 1 8 6
M  V30 3 1 13 4
M  V30 4 1 14 11
M  V30 5 1 15 7
M  V30 6 1 15 12
M  V30 7 1 16 6
M  V30 8 2 17 6
M  V30 9 1 19 10
M  V30 10 1 20 5
M  V30 11 1 20 7
M  V30 12 1 20 10
M  V30 13 1 21 13
M  V30 14 1 22 2
M  V30 15 1 25 4
M  V30 16 1 25 24
M  V30 17 2 26 23
M  V30 18 2 27 8
M  V30 19 1 27 14
M  V30 20 1 28 16
M  V30 21 1 28 26
M  V30 22 1 29 1
M  V30 23 1 29 25
M  V30 24 1 29 26
M  V30 25 2 30 14
M  V30 26 1 30 17
M  V30 27 1 32 1
M  V30 28 1 32 12
M  V30 29 1 32 22
M  V30 30 1 33 5
M  V30 31 1 34 10
M  V30 32 1 34 18
M  V30 33 1 34 31
M  V30 34 1 35 5
M  V30 35 2 35 9
M  V30 36 1 35 31
M  V30 37 1 36 1
M  V30 38 1 37 1
M  V30 39 1 38 2
M  V30 40 1 39 2
M  V30 41 1 40 2
M  V30 42 1 41 3
M  V30 43 1 42 4
M  V30 44 1 43 4
M  V30 45 1 7 44 CFG=1
M  V30 46 1 45 8
M  V30 47 1 46 31
M  V30 48 1 10 47 CFG=3
M  V30 49 1 48 11
M  V30 50 1 49 13
M  V30 51 1 50 13
M  V30 52 1 51 15
M  V30 53 1 52 15
M  V30 54 1 53 16
M  V30 55 1 54 16
M  V30 56 1 55 17
M  V30 57 1 56 18
M  V30 58 1 57 19
M  V30 59 1 58 19
M  V30 60 1 59 19
M  V30 61 1 20 60 CFG=1
M  V30 62 1 61 21
M  V30 63 1 62 24
M  V30 64 1 63 24
M  V30 65 1 64 24
M  V30 66 1 65 27
M  V30 67 1 66 28
M  V30 68 1 67 28
M  V30 69 1 29 68 CFG=1
M  V30 70 1 69 30
M  V30 71 1 70 31
M  V30 72 1 5 71 CFG=1
M  V30 73 1 32 72 CFG=3
M  V30 74 1 73 33
M  V30 75 1 74 33
M  V30 76 1 75 33
M  V30 77 1 34 76 CFG=1
M  V30 78 1 25 77 CFG=3
M  V30 END BOND
M  V30 END CTAB
M  END
>  <i_epik_Tot_Q>  (1) 
1

>  <i_epik_Tot_abs_Q>  (1) 
1

>  <i_i_glide_confnum>  (1) 
679

>  <i_i_glide_lignum>  (1) 
164

>  <i_i_glide_posenum>  (1) 
25

>  <i_i_glide_rotatable_bonds>  (1) 
18

>  <i_lp_mmshare_version>  (1) 
72125

>  <i_m_source_file_index>  (1) 
76

>  <i_f3d_flags>  (1) 
0

>  <num_sample>  (1) 
100

>  <b_lp_Chiralities_Consistent>  (1) 
1

>  <r_epik_Charging_Adjusted_Penalty>  (1) 
0.52789471212939676

>  <r_epik_Ionization_Penalty>  (1) 
0.26592108790513191

>  <r_epik_Ionization_Penalty_Charging>  (1) 
0.26394735606469838

>  <r_epik_Ionization_Penalty_Neutral>  (1) 
0.0019737318404335234

>  <r_epik_State_Penalty>  (1) 
0.26394735606469838

>  <r_glide_ring_energy>  (1) 
0

>  <r_i_docking_score>  (1) 
-7.6573566539317817

>  <r_i_glide_ecoul>  (1) 
-9.2730477459730309

>  <r_i_glide_eff_state_penalty>  (1) 
0.26394735606469838

>  <r_i_glide_einternal>  (1) 
8.4816293413497181

>  <r_i_glide_emodel>  (1) 
-78.153286090409665

>  <r_i_glide_emodel_strain>  (1) 
1.1575086957731386

>  <r_i_glide_energy>  (1) 
-53.939575076148536

>  <r_i_glide_erotb>  (1) 
1.0139394581015995

>  <r_i_glide_esite>  (1) 
0

>  <r_i_glide_evdw>  (1) 
-44.666527330175505

>  <r_i_glide_gscore>  (1) 
-7.9213040099964802

>  <r_i_glide_gscore_strain>  (1) 
0

>  <r_i_glide_hbond>  (1) 
-0.35951870082684229

>  <r_i_glide_ligand_efficiency>  (1) 
-0.21878161868376519

>  <r_i_glide_ligand_efficiency_ln>  (1) 
-1.6809597314125186

>  <r_i_glide_ligand_efficiency_sa>  (1) 
-0.71564918216499096

>  <r_i_glide_lipo>  (1) 
-4.0485018866832618

>  <r_i_glide_metal>  (1) 
-0

>  <r_i_glide_rewards>  (1) 
-0.90293935218324717

>  <r_lp_Energy>  (1) 
29.106935999999997

>  <r_lp_tautomer_probability>  (1) 
0.99989998499911525

>  <s_epik_Chemistry_Notes>  (1) 
This compound contains an acetal/aminal-like group ( X-CH(R)-Y where X, Y are N, S, or O) that may be acid/base labile, releasing an aldehyde.

>  <s_epik_cmdline>  (1) 
J2VwaWtfcHl0aG9uJywgJy1waHQnLCAnMS4wJywgJy1waCcsICc3LjQnLCAnLXRuJywgJzgnLCAnLW1hJywgJzUwMCcsICctaW1hZScsICc8aW5maWxlLm1hZT4nLCAnLW9tYWUnLCAnPG91dGZpbGUubWFlPic=

>  <s_epik_input>  (1) 
W2NIXTFbY0hdYyhbT0hdKVtjSF1bY0hdYzFbQ0gyXVtDSDJdQyg9TylbQ0BIXShOKFtDSDNdKVtDSDJdW0NIMl1bT0hdKVtDSDJdW0NASF0oT1tDSDNdKVNbQ0gyXVtDQEBIXShbT0hdKVtDQEhdMltDQEBIXShbQ0gzXSlbQ0BIXShbT0hdKVtDSDJdQyhbT0hdKT1DMltDSDNd

>  <s_glide_docking_method>  (1) 
confgen

>  <s_i_glide_gridfile>  (1) 
gpcr_5ht2c_6bqh_protein_autoprepared_prepared

>  <s_lp_Force_Field>  (1) 
S-OPLS

>  <s_lp_Variant>  (1) 
DiffSBDD_75-1

>  <s_m_source_file>  (1) 
generated_GPCR_5HT2C_ligand_DiffSBDD_2026-06-23_prepared.sdf

>  <GenAI_Model>  (1) 
DiffSBDD

>  <Protein>  (1) 
GPCR_5HT2C

$$$$
DiffSBDD_75
     RDKit          3D

  0  0  0  0  0  0  0  0  0  0999 V3000
M  V30 BEGIN CTAB
M  V30 COUNTS 77 78 0 0 1
M  V30 BEGIN ATOM
M  V30 1 C 38.501813 30.279955 59.146312 0
M  V30 2 C 38.235290 32.764781 56.432531 0
M  V30 3 O 36.878078 35.265166 59.510341 0
M  V30 4 C 41.593411 28.801554 59.247570 0
M  V30 5 C 37.255891 36.869961 61.794082 0 CFG=1
M  V30 6 C 38.706712 28.956002 53.539475 0
M  V30 7 C 37.985798 34.863062 60.298090 0 CFG=2
M  V30 8 C 38.551190 28.038344 52.478920 0
M  V30 9 O 38.006686 38.813276 60.581363 0
M  V30 10 C 39.165084 35.371160 62.590750 0 CFG=2
M  V30 11 O 40.445131 29.743140 49.816947 0
M  V30 12 S 36.843794 32.434085 59.367760 0
M  V30 13 C 42.358349 28.319203 58.010690 0
M  V30 14 C 39.885032 29.482988 51.031571 0
M  V30 15 C 38.144558 33.321287 60.254254 0
M  V30 16 C 38.072020 28.674829 54.890649 0
M  V30 17 C 39.455590 30.137725 53.343231 0
M  V30 18 O 41.357067 36.343217 62.862951 0
M  V30 19 C 39.783081 33.972879 62.821010 0
M  V30 20 C 37.843893 35.425148 61.740879 0 CFG=1
M  V30 21 O 42.398526 26.937753 58.167766 0
M  V30 22 O 38.795435 32.010066 57.497696 0
M  V30 23 O 37.645120 27.699964 57.726885 0
M  V30 24 C 39.642946 28.108843 60.560462 0
M  V30 25 N 40.183987 28.382221 59.204567 0 CFG=1 CHG=1
M  V30 26 C 38.593152 28.396460 57.377695 0
M  V30 27 C 39.141384 28.301360 51.226857 0
M  V30 28 C 39.129481 28.319979 55.946485 0
M  V30 29 C 39.371903 29.286928 58.348910 0 CFG=1
M  V30 30 C 40.045129 30.398620 52.089642 0
M  V30 31 C 39.687177 37.799656 61.972003 0
M  V30 32 C 37.819523 31.345107 58.290377 0 CFG=1
M  V30 33 C 36.645152 37.239299 63.160248 0
M  V30 34 C 40.211657 36.357485 62.036536 0 CFG=2
M  V30 35 C 38.289015 37.912149 61.367759 0
M  V30 36 H 37.729913 29.752967 59.709229 0
M  V30 37 H 39.134584 30.781406 59.877553 0
M  V30 38 H 39.035649 33.214824 55.844890 0
M  V30 39 H 37.645180 32.135251 55.765095 0
M  V30 40 H 37.602294 33.571711 56.802983 0
M  V30 41 H 36.840666 34.722730 58.734294 0
M  V30 42 H 41.645144 29.878425 59.367727 0
M  V30 43 H 42.045137 28.367983 60.136062 0
M  V30 44 H 38.860924 35.296292 59.828642 0
M  V30 45 H 37.978074 27.134222 52.624397 0
M  V30 46 H 39.657059 38.222655 62.974876 0
M  V30 47 H 38.911429 35.737578 63.585697 0
M  V30 48 H 40.080501 29.209369 49.128633 0
M  V30 49 H 41.860923 28.537753 57.067973 0
M  V30 50 H 43.370375 28.722655 57.973156 0
M  V30 51 H 38.114725 32.878381 61.244020 0
M  V30 52 H 39.118367 33.079144 59.829178 0
M  V30 53 H 37.501865 29.554654 55.195294 0
M  V30 54 H 37.353841 27.858486 54.798158 0
M  V30 55 H 39.576229 30.843237 54.152424 0
M  V30 56 H 41.210246 36.870621 63.638602 0
M  V30 57 H 40.263221 33.588428 61.921770 0
M  V30 58 H 40.551051 34.005452 63.594153 0
M  V30 59 H 39.049369 33.245128 63.159724 0
M  V30 60 H 37.077445 34.786171 62.167758 0
M  V30 61 H 42.839341 26.500783 57.443389 0
M  V30 62 H 39.662433 28.989811 61.201648 0
M  V30 63 H 38.619886 27.738036 60.505257 0
M  V30 64 H 40.238134 27.340028 61.053684 0
M  V30 65 H 39.019438 27.597842 50.415293 0
M  V30 66 H 39.540329 27.327318 55.760194 0
M  V30 67 H 39.959249 29.019421 55.855664 0
M  V30 68 H 40.055967 29.886989 57.750446 0
M  V30 69 H 40.613861 31.304888 51.938177 0
M  V30 70 H 40.360491 38.410261 61.368420 0
M  V30 71 H 36.439461 36.948639 61.080588 0
M  V30 72 H 37.141999 30.812129 57.629673 0
M  V30 73 H 36.126918 38.197985 63.105177 0
M  V30 74 H 35.912687 36.495663 63.475819 0
M  V30 75 H 37.394273 37.320129 63.947670 0
M  V30 76 H 40.541075 36.044153 61.045650 0
M  V30 77 H 40.214667 27.484778 58.736205 0
M  V30 END ATOM
M  V30 BEGIN BOND
M  V30 1 1 7 3
M  V30 2 1 8 6
M  V30 3 1 13 4
M  V30 4 1 14 11
M  V30 5 1 15 7
M  V30 6 1 15 12
M  V30 7 1 16 6
M  V30 8 2 17 6
M  V30 9 1 19 10
M  V30 10 1 20 5
M  V30 11 1 20 7
M  V30 12 1 20 10
M  V30 13 1 21 13
M  V30 14 1 22 2
M  V30 15 1 25 4
M  V30 16 1 25 24
M  V30 17 2 26 23
M  V30 18 2 27 8
M  V30 19 1 27 14
M  V30 20 1 28 16
M  V30 21 1 28 26
M  V30 22 1 29 1
M  V30 23 1 29 25
M  V30 24 1 29 26
M  V30 25 2 30 14
M  V30 26 1 30 17
M  V30 27 1 32 1
M  V30 28 1 32 12
M  V30 29 1 32 22
M  V30 30 1 33 5
M  V30 31 1 34 10
M  V30 32 1 34 18
M  V30 33 1 34 31
M  V30 34 1 35 5
M  V30 35 2 35 9
M  V30 36 1 35 31
M  V30 37 1 36 1
M  V30 38 1 37 1
M  V30 39 1 38 2
M  V30 40 1 39 2
M  V30 41 1 40 2
M  V30 42 1 41 3
M  V30 43 1 42 4
M  V30 44 1 43 4
M  V30 45 1 7 44 CFG=3
M  V30 46 1 45 8
M  V30 47 1 46 31
M  V30 48 1 10 47 CFG=1
M  V30 49 1 48 11
M  V30 50 1 49 13
M  V30 51 1 50 13
M  V30 52 1 51 15
M  V30 53 1 52 15
M  V30 54 1 53 16
M  V30 55 1 54 16
M  V30 56 1 55 17
M  V30 57 1 56 18
M  V30 58 1 57 19
M  V30 59 1 58 19
M  V30 60 1 59 19
M  V30 61 1 20 60 CFG=1
M  V30 62 1 61 21
M  V30 63 1 62 24
M  V30 64 1 63 24
M  V30 65 1 64 24
M  V30 66 1 65 27
M  V30 67 1 66 28
M  V30 68 1 67 28
M  V30 69 1 29 68 CFG=3
M  V30 70 1 69 30
M  V30 71 1 70 31
M  V30 72 1 5 71 CFG=3
M  V30 73 1 32 72 CFG=3
M  V30 74 1 73 33
M  V30 75 1 74 33
M  V30 76 1 75 33
M  V30 77 1 34 76 CFG=3
M  V30 78 1 25 77 CFG=3
M  V30 END BOND
M  V30 END CTAB
M  END
>  <i_epik_Tot_Q>  (1) 
1

>  <i_epik_Tot_abs_Q>  (1) 
1

>  <i_i_glide_confnum>  (1) 
597

>  <i_i_glide_lignum>  (1) 
166

>  <i_i_glide_posenum>  (1) 
51

>  <i_i_glide_rotatable_bonds>  (1) 
18

>  <i_lp_mmshare_version>  (1) 
72125

>  <i_m_source_file_index>  (1) 
76

>  <i_f3d_flags>  (1) 
0

>  <num_sample>  (1) 
100

>  <b_lp_Chiralities_Consistent>  (1) 
1

>  <r_epik_Charging_Adjusted_Penalty>  (1) 
0.52789471212939676

>  <r_epik_Ionization_Penalty>  (1) 
0.26592108790513191

>  <r_epik_Ionization_Penalty_Charging>  (1) 
0.26394735606469838

>  <r_epik_Ionization_Penalty_Neutral>  (1) 
0.0019737318404335234

>  <r_epik_State_Penalty>  (1) 
0.26394735606469838

>  <r_glide_ring_energy>  (1) 
0

>  <r_i_docking_score>  (1) 
-7.656119708794396

>  <r_i_glide_ecoul>  (1) 
-6.7801661273566998

>  <r_i_glide_eff_state_penalty>  (1) 
0.26394735606469838

>  <r_i_glide_einternal>  (1) 
19.410109950688515

>  <r_i_glide_emodel>  (1) 
-65.18108544199842

>  <r_i_glide_emodel_strain>  (1) 
2.5273827194670773

>  <r_i_glide_energy>  (1) 
-50.030167320249269

>  <r_i_glide_erotb>  (1) 
1.0139394581015995

>  <r_i_glide_esite>  (1) 
0

>  <r_i_glide_evdw>  (1) 
-43.250001192892569

>  <r_i_glide_gscore>  (1) 
-7.9200670648590945

>  <r_i_glide_gscore_strain>  (1) 
0

>  <r_i_glide_hbond>  (1) 
-0.46330400821219797

>  <r_i_glide_ligand_efficiency>  (1) 
-0.21874627739412561

>  <r_i_glide_ligand_efficiency_ln>  (1) 
-1.6806881945023444

>  <r_i_glide_ligand_efficiency_sa>  (1) 
-0.71553357846309229

>  <r_i_glide_lipo>  (1) 
-4.483502985597684

>  <r_i_glide_metal>  (1) 
-0

>  <r_i_glide_rewards>  (1) 
-0.80767455040267944

>  <r_lp_Energy>  (1) 
31.761440999999998

>  <r_lp_tautomer_probability>  (1) 
0.99989998499911525

>  <s_epik_Chemistry_Notes>  (1) 
This compound contains an acetal/aminal-like group ( X-CH(R)-Y where X, Y are N, S, or O) that may be acid/base labile, releasing an aldehyde.

>  <s_epik_cmdline>  (1) 
J2VwaWtfcHl0aG9uJywgJy1waHQnLCAnMS4wJywgJy1waCcsICc3LjQnLCAnLXRuJywgJzgnLCAnLW1hJywgJzUwMCcsICctaW1hZScsICc8aW5maWxlLm1hZT4nLCAnLW9tYWUnLCAnPG91dGZpbGUubWFlPic=

>  <s_epik_input>  (1) 
W2NIXTFbY0hdYyhbT0hdKVtjSF1bY0hdYzFbQ0gyXVtDSDJdQyg9TylbQ0BIXShOKFtDSDNdKVtDSDJdW0NIMl1bT0hdKVtDSDJdW0NASF0oT1tDSDNdKVNbQ0gyXVtDQEBIXShbT0hdKVtDQEhdMltDQEBIXShbQ0gzXSlbQ0BIXShbT0hdKVtDSDJdQyhbT0hdKT1DMltDSDNd

>  <s_glide_docking_method>  (1) 
confgen

>  <s_i_glide_gridfile>  (1) 
gpcr_5ht2c_6bqh_protein_autoprepared_prepared

>  <s_lp_Force_Field>  (1) 
S-OPLS

>  <s_lp_Variant>  (1) 
DiffSBDD_75-3

>  <s_m_source_file>  (1) 
generated_GPCR_5HT2C_ligand_DiffSBDD_2026-06-23_prepared.sdf

>  <GenAI_Model>  (1) 
DiffSBDD

>  <Protein>  (1) 
GPCR_5HT2C

$$$$
DiffSBDD_42
     RDKit          3D

  0  0  0  0  0  0  0  0  0  0999 V3000
M  V30 BEGIN CTAB
M  V30 COUNTS 89 94 0 0 1
M  V30 BEGIN ATOM
M  V30 1 C 41.122387 34.526419 68.496953 0
M  V30 2 C 37.734251 29.306570 58.334107 0
M  V30 3 C 38.725807 28.298913 53.948389 0
M  V30 4 C 37.272685 26.429815 53.536092 0
M  V30 5 O 39.477347 32.706533 56.110625 0 CHG=-1
M  V30 6 C 38.239780 30.564753 54.661227 0
M  V30 7 C 39.639573 28.158116 54.999537 0
M  V30 8 C 39.148543 30.426915 55.715757 0
M  V30 9 C 39.894151 38.108681 68.282406 0 CFG=2
M  V30 10 C 39.479873 26.956105 51.925956 0
M  V30 11 C 40.048929 35.654642 66.575639 0 CFG=1
M  V30 12 C 38.261360 33.937667 61.455389 0 CFG=1
M  V30 13 C 41.469865 33.795966 66.111433 0
M  V30 14 C 38.299933 34.727211 60.133512 0
M  V30 15 C 40.558549 33.214421 63.228185 0
M  V30 16 C 37.246437 30.647575 57.799866 0
M  V30 17 C 36.786062 33.663554 61.788126 0
M  V30 18 O 40.975036 31.487314 61.611633 0
M  V30 19 C 38.967502 30.308546 60.251992 0
M  V30 20 O 41.159311 38.729810 68.240165 0
M  V30 21 C 40.218240 32.399607 61.950724 0
M  V30 22 C 37.869798 29.350890 59.815879 0
M  V30 23 O 40.289077 31.468195 64.866472 0
M  V30 24 C 37.840355 33.886590 58.911104 0
M  V30 25 C 41.646572 33.417048 67.596674 0
M  V30 26 C 40.778070 30.289098 65.484925 0
M  V30 27 N 38.212946 31.772908 57.625798 0 CFG=2 CHG=1
M  V30 28 C 39.898492 36.686030 68.916036 0
M  V30 29 C 39.336483 31.549582 56.701443 0 CFG=2
M  V30 30 C 39.863878 29.218470 55.875536 0
M  V30 31 C 41.275172 32.268253 64.285863 0 CFG=2
M  V30 32 C 39.427698 38.087513 66.835837 0
M  V30 33 C 38.481097 27.197252 53.030780 0 CFG=2
M  V30 34 C 38.032734 29.502944 53.785087 0
M  V30 35 C 38.535991 31.801988 60.188126 0 CFG=2
M  V30 36 C 40.196089 37.051369 66.052476 0
M  V30 37 O 42.080756 32.912582 65.258232 0
M  V30 38 N 40.845750 34.816363 65.696293 0
M  V30 39 C 40.413358 35.560985 68.031311 0
M  V30 40 C 38.620126 32.555761 58.836882 0 CFG=2
M  V30 41 N 39.051679 32.691791 61.259952 0
M  V30 42 O 38.300487 27.706192 51.694491 0
M  V30 43 H 41.360702 34.464784 69.551061 0
M  V30 44 H 38.662299 28.943938 57.929489 0
M  V30 45 H 36.984790 28.557443 58.079768 0
M  V30 46 H 37.417649 26.117306 54.571623 0
M  V30 47 H 36.445147 27.133406 53.498650 0
M  V30 48 H 36.964111 25.566442 52.969300 0
M  V30 49 H 37.690579 31.488023 54.540414 0
M  V30 50 H 40.174482 27.227974 55.135018 0
M  V30 51 H 39.232692 38.749850 68.870158 0
M  V30 52 H 40.379964 27.567158 51.919079 0
M  V30 53 H 39.519089 26.047524 51.357998 0
M  V30 54 H 39.002701 35.369459 66.568823 0
M  V30 55 H 38.673546 34.597144 62.214721 0
M  V30 56 H 37.703353 35.637540 60.204417 0
M  V30 57 H 39.325797 35.053069 59.979457 0
M  V30 58 H 39.658552 33.578469 63.719001 0
M  V30 59 H 41.201070 34.062169 62.985266 0
M  V30 60 H 36.844990 30.428378 56.816466 0
M  V30 61 H 36.440932 30.977307 58.455995 0
M  V30 62 H 36.289790 34.560402 62.157529 0
M  V30 63 H 36.155307 33.297130 60.981844 0
M  V30 64 H 36.787059 32.899565 62.543485 0
M  V30 65 H 39.895961 30.135900 59.704339 0
M  V30 66 H 39.136577 30.013834 61.288013 0
M  V30 67 H 41.588794 38.537730 69.082134 0
M  V30 68 H 38.093918 28.344982 60.168713 0
M  V30 69 H 36.909166 29.661117 60.229852 0
M  V30 70 H 36.764667 33.710454 58.936236 0
M  V30 71 H 37.992499 34.448543 57.988090 0
M  V30 72 H 42.709352 33.289670 67.800270 0
M  V30 73 H 41.153476 32.469411 67.816484 0
M  V30 74 H 39.945119 29.735734 65.916957 0
M  V30 75 H 41.263696 29.641757 64.754410 0
M  V30 76 H 41.485998 30.509162 66.285273 0
M  V30 77 H 40.307611 36.664081 69.930556 0
M  V30 78 H 38.851003 36.429663 68.967682 0
M  V30 79 H 40.041784 31.091828 57.363489 0
M  V30 80 H 40.564767 29.100436 56.689849 0
M  V30 81 H 41.990841 31.615872 63.781763 0
M  V30 82 H 38.363768 37.871282 66.768677 0
M  V30 83 H 39.643197 39.053938 66.381349 0
M  V30 84 H 37.329787 29.596776 52.986166 0
M  V30 85 H 37.474903 31.734697 60.392495 0
M  V30 86 H 41.248782 37.252767 66.179256 0
M  V30 87 H 39.948869 37.116853 64.992705 0
M  V30 88 H 39.644405 32.905708 58.719499 0
M  V30 89 H 37.692125 32.435850 57.068269 0
M  V30 END ATOM
M  V30 BEGIN BOND
M  V30 1 2 7 3
M  V30 2 1 8 6
M  V30 3 1 14 12
M  V30 4 1 16 2
M  V30 5 1 17 12
M  V30 6 1 20 9
M  V30 7 1 21 15
M  V30 8 2 21 18
M  V30 9 1 22 2
M  V30 10 1 22 19
M  V30 11 1 24 14
M  V30 12 1 25 1
M  V30 13 1 25 13
M  V30 14 1 26 23
M  V30 15 1 27 16
M  V30 16 1 28 9
M  V30 17 1 29 5
M  V30 18 1 29 8
M  V30 19 1 29 27
M  V30 20 1 30 7
M  V30 21 2 30 8
M  V30 22 1 31 15
M  V30 23 1 31 23
M  V30 24 1 32 9
M  V30 25 1 33 3
M  V30 26 1 33 4 CFG=1
M  V30 27 1 33 10
M  V30 28 1 34 3
M  V30 29 2 34 6
M  V30 30 1 35 19
M  V30 31 1 36 11
M  V30 32 1 36 32
M  V30 33 1 37 13
M  V30 34 1 37 31
M  V30 35 1 38 11
M  V30 36 2 38 13
M  V30 37 2 39 1
M  V30 38 1 39 11
M  V30 39 1 39 28
M  V30 40 1 40 24
M  V30 41 1 40 27
M  V30 42 1 40 35
M  V30 43 1 41 12
M  V30 44 1 41 21
M  V30 45 1 41 35
M  V30 46 1 42 10
M  V30 47 1 42 33
M  V30 48 1 43 1
M  V30 49 1 44 2
M  V30 50 1 45 2
M  V30 51 1 46 4
M  V30 52 1 47 4
M  V30 53 1 48 4
M  V30 54 1 49 6
M  V30 55 1 50 7
M  V30 56 1 9 51 CFG=1
M  V30 57 1 52 10
M  V30 58 1 53 10
M  V30 59 1 11 54 CFG=1
M  V30 60 1 12 55 CFG=1
M  V30 61 1 56 14
M  V30 62 1 57 14
M  V30 63 1 58 15
M  V30 64 1 59 15
M  V30 65 1 60 16
M  V30 66 1 61 16
M  V30 67 1 62 17
M  V30 68 1 63 17
M  V30 69 1 64 17
M  V30 70 1 65 19
M  V30 71 1 66 19
M  V30 72 1 67 20
M  V30 73 1 68 22
M  V30 74 1 69 22
M  V30 75 1 70 24
M  V30 76 1 71 24
M  V30 77 1 72 25
M  V30 78 1 73 25
M  V30 79 1 74 26
M  V30 80 1 75 26
M  V30 81 1 76 26
M  V30 82 1 77 28
M  V30 83 1 78 28
M  V30 84 1 29 79 CFG=1
M  V30 85 1 80 30
M  V30 86 1 31 81 CFG=3
M  V30 87 1 82 32
M  V30 88 1 83 32
M  V30 89 1 84 34
M  V30 90 1 35 85 CFG=1
M  V30 91 1 86 36
M  V30 92 1 87 36
M  V30 93 1 40 88 CFG=3
M  V30 94 1 27 89 CFG=3
M  V30 END BOND
M  V30 END CTAB
M  END
>  <i_epik_Tot_Q>  (1) 
0

>  <i_epik_Tot_abs_Q>  (1) 
2

>  <i_i_glide_confnum>  (1) 
124

>  <i_i_glide_lignum>  (1) 
92

>  <i_i_glide_posenum>  (1) 
139

>  <i_i_glide_rotatable_bonds>  (1) 
10

>  <i_lp_mmshare_version>  (1) 
72125

>  <i_m_source_file_index>  (1) 
43

>  <i_f3d_flags>  (1) 
0

>  <num_sample>  (1) 
100

>  <b_lp_Chiralities_Consistent>  (1) 
1

>  <r_epik_Charging_Adjusted_Penalty>  (1) 
0.10762157237222084

>  <r_epik_Ionization_Penalty>  (1) 
0.015049648649627746

>  <r_epik_Ionization_Penalty_Charging>  (1) 
0.014590701191951229

>  <r_epik_Ionization_Penalty_Neutral>  (1) 
0.0004589474576765184

>  <r_epik_State_Penalty>  (1) 
0.093030871180269606

>  <r_glide_ring_energy>  (1) 
0

>  <r_i_docking_score>  (1) 
-7.6504534810040568

>  <r_i_glide_ecoul>  (1) 
-9.3116869573319043

>  <r_i_glide_eff_state_penalty>  (1) 
0.093030871180269606

>  <r_i_glide_einternal>  (1) 
10.596702953682605

>  <r_i_glide_emodel>  (1) 
-26.281748954183335

>  <r_i_glide_emodel_strain>  (1) 
2.455870672517463

>  <r_i_glide_energy>  (1) 
-28.044951881186449

>  <r_i_glide_erotb>  (1) 
0.39316795176799535

>  <r_i_glide_esite>  (1) 
-0.11775598711722451

>  <r_i_glide_evdw>  (1) 
-18.733264923854545

>  <r_i_glide_gscore>  (1) 
-7.7434843521843266

>  <r_i_glide_gscore_strain>  (1) 
0

>  <r_i_glide_hbond>  (1) 
-0.44687167256361615

>  <r_i_glide_ligand_efficiency>  (1) 
-0.18215365430962041

>  <r_i_glide_ligand_efficiency_ln>  (1) 
-1.6148136314697472

>  <r_i_glide_ligand_efficiency_sa>  (1) 
-0.63317095584367611

>  <r_i_glide_lipo>  (1) 
-3.6625740668239435

>  <r_i_glide_metal>  (1) 
-0

>  <r_i_glide_rewards>  (1) 
-1.5760342876550246

>  <r_lp_Energy>  (1) 
81.408011000000002

>  <s_epik_Chemistry_Notes>  (1) 
This compound has an imine and may undergo hydrolysis. This compound contains an acetal/aminal-like group ( X-CH(R)-Y where X, Y are N, S, or O) that may be acid/base labile, releasing an aldehyde.

>  <s_epik_cmdline>  (1) 
J2VwaWtfcHl0aG9uJywgJy1waHQnLCAnMS4wJywgJy1waCcsICc3LjQnLCAnLXRuJywgJzgnLCAnLW1hJywgJzUwMCcsICctaW1hZScsICc8aW5maWxlLm1hZT4nLCAnLW9tYWUnLCAnPG91dGZpbGUubWFlPic=

>  <s_epik_input>  (1) 
W0NIMl0xW0NIMl1bQ0BIXShbT0hdKVtDSDJdQyhbQ0BASF0xMik9W0NIXVtDSDJdQyg9TjIpT1tDQEBIXShPW0NIM10pW0NIMl1DKD1PKU4zW0NASF0oW0NIM10pW0NIMl1bQ0gyXVtDQEBIXShbQ0BIXTM0KU4oW0NIMl1bQ0gyXVtDSDJdW0NIMl00KVtDQEhdKFtPSF0pYyhbY0hdW2NIXTUpW2NIXVtjSF1jNUM2KFtDSDNdKVtDSDJdTzY=

>  <s_glide_docking_method>  (1) 
confgen

>  <s_i_glide_gridfile>  (1) 
gpcr_5ht2c_6bqh_protein_autoprepared_prepared

>  <s_lp_Force_Field>  (1) 
S-OPLS

>  <s_lp_Variant>  (1) 
DiffSBDD_42-1

>  <s_m_source_file>  (1) 
generated_GPCR_5HT2C_ligand_DiffSBDD_2026-06-23_prepared.sdf

>  <GenAI_Model>  (1) 
DiffSBDD

>  <Protein>  (1) 
GPCR_5HT2C

$$$$
DiffSBDD_75
     RDKit          3D

  0  0  0  0  0  0  0  0  0  0999 V3000
M  V30 BEGIN CTAB
M  V30 COUNTS 76 77 0 0 1
M  V30 BEGIN ATOM
M  V30 1 C 39.135778 30.496279 61.029632 0
M  V30 2 C 36.149565 32.709151 60.968113 0
M  V30 3 O 38.568746 30.468155 55.411439 0
M  V30 4 C 40.782837 28.862460 62.798077 0
M  V30 5 C 38.897748 27.730614 54.831812 0 CFG=2
M  V30 6 C 38.604595 35.846961 61.444740 0
M  V30 7 C 38.247093 29.618395 56.498640 0 CFG=2
M  V30 8 C 38.369996 36.378916 62.725997 0
M  V30 9 O 40.416754 26.137742 53.838030 0
M  V30 10 C 38.471047 27.121296 57.321543 0 CFG=1
M  V30 11 O 35.650568 38.747202 62.003182 0
M  V30 12 S 37.262831 30.509183 58.967740 0
M  V30 13 C 41.854455 28.085308 63.589913 0
M  V30 14 C 36.609630 37.793793 61.820471 0
M  V30 15 C 38.626622 30.422408 57.766001 0
M  V30 16 C 39.678789 34.796980 61.244154 0
M  V30 17 C 37.833388 36.289326 60.351181 0
M  V30 18 O 40.444386 25.737684 57.544155 0
M  V30 19 C 38.724322 27.410681 58.812668 0
M  V30 20 C 38.958084 28.230043 56.321288 0 CFG=1
M  V30 21 O 41.245057 27.422572 64.678920 0
M  V30 22 O 37.062954 31.695868 61.376934 0
M  V30 23 O 41.479144 32.537768 61.382288 0
M  V30 24 C 40.660511 30.613298 64.505321 0
M  V30 25 N 40.749303 30.302886 63.071729 0
M  V30 26 C 40.393478 32.450118 61.956032 0
M  V30 27 C 37.363865 37.337756 62.913713 0
M  V30 28 C 39.602211 33.699524 62.317706 0
M  V30 29 C 39.757212 31.101768 62.318651 0 CFG=1
M  V30 30 C 36.844665 37.267666 60.538808 0
M  V30 31 C 39.056689 25.261188 55.610252 0
M  V30 32 C 38.020152 31.362618 60.375201 0 CFG=1
M  V30 33 C 37.483538 27.669768 54.217606 0
M  V30 34 C 39.112063 25.735035 57.064315 0 CFG=2
M  V30 35 C 39.545470 26.353652 54.678591 0
M  V30 36 H 39.933700 30.304772 60.315573 0
M  V30 37 H 38.699902 29.526591 61.261488 0
M  V30 38 H 35.445877 32.927747 61.767710 0
M  V30 39 H 36.668006 33.635018 60.721901 0
M  V30 40 H 35.557209 32.406532 60.103253 0
M  V30 41 H 37.976951 31.208395 55.438373 0
M  V30 42 H 39.802397 28.410321 62.930742 0
M  V30 43 H 41.023547 28.722257 61.744067 0
M  V30 44 H 37.167164 29.480421 56.466695 0
M  V30 45 H 38.957218 36.044701 63.569350 0
M  V30 46 H 39.645402 24.359069 55.474284 0
M  V30 47 H 37.394029 27.007307 57.188077 0
M  V30 48 H 35.358383 39.128643 61.186868 0
M  V30 49 H 42.334712 27.337821 62.967772 0
M  V30 50 H 42.669222 28.724802 63.929599 0
M  V30 51 H 38.878134 31.457011 57.524965 0
M  V30 52 H 39.521105 30.001176 58.215634 0
M  V30 53 H 39.572139 34.365328 60.247965 0
M  V30 54 H 40.655371 35.283009 61.270928 0
M  V30 55 H 38.002137 35.881582 59.368053 0
M  V30 56 H 41.027466 26.107378 56.896200 0
M  V30 57 H 39.742156 27.747339 59.012549 0
M  V30 58 H 38.045118 28.118365 59.248707 0
M  V30 59 H 38.561649 26.494095 59.367752 0
M  V30 60 H 40.016860 28.399861 56.528237 0
M  V30 61 H 40.315667 27.612341 64.659700 0
M  V30 62 H 41.534415 30.266231 65.054280 0
M  V30 63 H 40.598376 31.687349 64.684564 0
M  V30 64 H 39.780016 30.144402 64.950041 0
M  V30 65 H 37.179916 37.737177 63.895511 0
M  V30 66 H 39.952344 34.073959 63.279208 0
M  V30 67 H 38.562089 33.406622 62.455136 0
M  V30 68 H 38.909378 31.283776 62.979883 0
M  V30 69 H 36.260837 37.608701 59.700260 0
M  V30 70 H 38.030734 25.012121 55.338199 0
M  V30 71 H 39.486011 28.418682 54.225063 0
M  V30 72 H 38.457861 32.280072 59.982169 0
M  V30 73 H 37.524072 27.334034 53.179534 0
M  V30 74 H 36.845289 26.973780 54.759227 0
M  V30 75 H 36.996388 28.643291 54.210623 0
M  V30 76 H 38.581167 24.993079 57.661352 0
M  V30 END ATOM
M  V30 BEGIN BOND
M  V30 1 1 7 3
M  V30 2 1 8 6
M  V30 3 1 13 4
M  V30 4 1 14 11
M  V30 5 1 15 7
M  V30 6 1 15 12
M  V30 7 1 16 6
M  V30 8 2 17 6
M  V30 9 1 19 10
M  V30 10 1 20 5
M  V30 11 1 20 7
M  V30 12 1 20 10
M  V30 13 1 21 13
M  V30 14 1 22 2
M  V30 15 1 25 4
M  V30 16 1 25 24
M  V30 17 2 26 23
M  V30 18 2 27 8
M  V30 19 1 27 14
M  V30 20 1 28 16
M  V30 21 1 28 26
M  V30 22 1 29 1
M  V30 23 1 29 25
M  V30 24 1 29 26
M  V30 25 2 30 14
M  V30 26 1 30 17
M  V30 27 1 32 1
M  V30 28 1 32 12
M  V30 29 1 32 22
M  V30 30 1 33 5
M  V30 31 1 34 10
M  V30 32 1 34 18
M  V30 33 1 34 31
M  V30 34 1 35 5
M  V30 35 2 35 9
M  V30 36 1 35 31
M  V30 37 1 36 1
M  V30 38 1 37 1
M  V30 39 1 38 2
M  V30 40 1 39 2
M  V30 41 1 40 2
M  V30 42 1 41 3
M  V30 43 1 42 4
M  V30 44 1 43 4
M  V30 45 1 7 44 CFG=1
M  V30 46 1 45 8
M  V30 47 1 46 31
M  V30 48 1 10 47 CFG=1
M  V30 49 1 48 11
M  V30 50 1 49 13
M  V30 51 1 50 13
M  V30 52 1 51 15
M  V30 53 1 52 15
M  V30 54 1 53 16
M  V30 55 1 54 16
M  V30 56 1 55 17
M  V30 57 1 56 18
M  V30 58 1 57 19
M  V30 59 1 58 19
M  V30 60 1 59 19
M  V30 61 1 20 60 CFG=1
M  V30 62 1 61 21
M  V30 63 1 62 24
M  V30 64 1 63 24
M  V30 65 1 64 24
M  V30 66 1 65 27
M  V30 67 1 66 28
M  V30 68 1 67 28
M  V30 69 1 29 68 CFG=1
M  V30 70 1 69 30
M  V30 71 1 70 31
M  V30 72 1 5 71 CFG=3
M  V30 73 1 32 72 CFG=3
M  V30 74 1 73 33
M  V30 75 1 74 33
M  V30 76 1 75 33
M  V30 77 1 34 76 CFG=1
M  V30 END BOND
M  V30 END CTAB
M  END
>  <i_epik_Tot_Q>  (1) 
0

>  <i_epik_Tot_abs_Q>  (1) 
0

>  <i_i_glide_confnum>  (1) 
3073

>  <i_i_glide_lignum>  (1) 
175

>  <i_i_glide_posenum>  (1) 
68

>  <i_i_glide_rotatable_bonds>  (1) 
18

>  <i_lp_mmshare_version>  (1) 
72125

>  <i_m_source_file_index>  (1) 
76

>  <i_f3d_flags>  (1) 
0

>  <num_sample>  (1) 
100

>  <b_lp_Chiralities_Consistent>  (1) 
1

>  <r_epik_Charging_Adjusted_Penalty>  (1) 
0.60615279515584763

>  <r_epik_Ionization_Penalty>  (1) 
0.6077244911787385

>  <r_epik_Ionization_Penalty_Charging>  (1) 
0

>  <r_epik_Ionization_Penalty_Neutral>  (1) 
0.6077244911787385

>  <r_epik_State_Penalty>  (1) 
0.60615279515584763

>  <r_glide_ring_energy>  (1) 
0

>  <r_i_docking_score>  (1) 
-7.6494790879249246

>  <r_i_glide_ecoul>  (1) 
-8.7627532777528145

>  <r_i_glide_eff_state_penalty>  (1) 
0.60615279515584763

>  <r_i_glide_einternal>  (1) 
20.214921776780944

>  <r_i_glide_emodel>  (1) 
-63.152136236700251

>  <r_i_glide_emodel_strain>  (1) 
3.8217160393006466

>  <r_i_glide_energy>  (1) 
-52.838266155236717

>  <r_i_glide_erotb>  (1) 
1.0176109525924779

>  <r_i_glide_esite>  (1) 
0

>  <r_i_glide_evdw>  (1) 
-44.075512877483902

>  <r_i_glide_gscore>  (1) 
-8.2556318830807722

>  <r_i_glide_gscore_strain>  (1) 
0

>  <r_i_glide_hbond>  (1) 
-0.48625348231730237

>  <r_i_glide_ligand_efficiency>  (1) 
-0.21855654536928357

>  <r_i_glide_ligand_efficiency_ln>  (1) 
-1.6792304308408559

>  <r_i_glide_ligand_efficiency_sa>  (1) 
-0.71491295242866759

>  <r_i_glide_lipo>  (1) 
-4.063223009666503

>  <r_i_glide_metal>  (1) 
-0

>  <r_i_glide_rewards>  (1) 
-1.2055777081523282

>  <r_lp_Energy>  (1) 
27.707881

>  <r_lp_tautomer_probability>  (1) 
0.99999993999736703

>  <s_epik_Chemistry_Notes>  (1) 
This compound contains an acetal/aminal-like group ( X-CH(R)-Y where X, Y are N, S, or O) that may be acid/base labile, releasing an aldehyde.

>  <s_epik_cmdline>  (1) 
J2VwaWtfcHl0aG9uJywgJy1waHQnLCAnMS4wJywgJy1waCcsICc3LjQnLCAnLXRuJywgJzgnLCAnLW1hJywgJzUwMCcsICctaW1hZScsICc8aW5maWxlLm1hZT4nLCAnLW9tYWUnLCAnPG91dGZpbGUubWFlPic=

>  <s_epik_input>  (1) 
W2NIXTFbY0hdYyhbT0hdKVtjSF1bY0hdYzFbQ0gyXVtDSDJdQyg9TylbQ0BIXShOKFtDSDNdKVtDSDJdW0NIMl1bT0hdKVtDSDJdW0NASF0oT1tDSDNdKVNbQ0gyXVtDQEBIXShbT0hdKVtDQEhdMltDQEBIXShbQ0gzXSlbQ0BIXShbT0hdKVtDSDJdQyhbT0hdKT1DMltDSDNd

>  <s_glide_docking_method>  (1) 
confgen

>  <s_i_glide_gridfile>  (1) 
gpcr_5ht2c_6bqh_protein_autoprepared_prepared

>  <s_lp_Force_Field>  (1) 
S-OPLS

>  <s_lp_Variant>  (1) 
DiffSBDD_75-12

>  <s_m_source_file>  (1) 
generated_GPCR_5HT2C_ligand_DiffSBDD_2026-06-23_prepared.sdf

>  <GenAI_Model>  (1) 
DiffSBDD

>  <Protein>  (1) 
GPCR_5HT2C

$$$$
DiffSBDD_24
     RDKit          3D

  0  0  0  0  0  0  0  0  0  0999 V3000
M  V30 BEGIN CTAB
M  V30 COUNTS 76 79 0 0 1
M  V30 BEGIN ATOM
M  V30 1 C 38.195919 31.408197 54.167539 0
M  V30 2 C 38.990231 37.219593 62.538115 0
M  V30 3 C 37.536790 30.847530 55.260415 0
M  V30 4 N 41.125223 36.132017 63.094418 0 CHG=1
M  V30 5 C 38.473594 30.448336 59.476484 0 CFG=2
M  V30 6 N 37.502103 36.122187 60.933433 0
M  V30 7 C 37.676037 33.757805 60.144183 0
M  V30 8 C 41.485193 35.294032 65.458147 0
M  V30 9 O 41.675467 31.602066 63.305346 0 CHG=-1
M  V30 10 N 42.045149 33.788146 63.435041 0
M  V30 11 C 41.364379 32.699363 63.811232 0
M  V30 12 O 39.469339 27.737735 59.693928 0
M  V30 13 C 37.221719 31.368387 59.559424 0
M  V30 14 C 39.560904 31.206166 53.983453 0
M  V30 15 C 38.601653 27.015631 57.568493 0 CFG=2
M  V30 16 C 38.955027 31.305236 61.871105 0
M  V30 17 C 37.539453 37.082426 62.024954 0
M  V30 18 N 37.697285 32.044075 61.810354 0
M  V30 19 O 37.604835 34.137421 58.976026 0
M  V30 20 C 39.645216 29.898268 56.022377 0
M  V30 21 C 39.708326 35.873240 62.751963 0 CFG=2
M  V30 22 C 39.527749 34.980265 61.501788 0
M  V30 23 C 37.135415 25.295644 56.521742 0
M  V30 24 C 40.283004 30.452148 54.905136 0
M  V30 25 C 37.276314 26.253793 57.674352 0
M  V30 26 N 38.297389 29.311567 58.517930 0
M  V30 27 C 41.819533 35.146218 63.957246 0 CFG=1
M  V30 28 C 39.753545 26.001886 57.495518 0
M  V30 29 F 40.372472 29.177531 56.899884 0
M  V30 30 C 38.187218 24.765863 55.891257 0
M  V30 31 C 38.016570 34.797319 61.236089 0 CFG=1
M  V30 32 C 38.249627 30.104451 56.215375 0
M  V30 33 N 37.470201 32.463462 60.501830 0
M  V30 34 C 39.623306 25.071525 56.276087 0
M  V30 35 C 38.823965 28.054913 58.699518 0
M  V30 36 C 39.011076 30.128912 60.903941 0
M  V30 37 O 40.445220 32.803436 64.643927 0
M  V30 38 N 37.558897 29.604639 57.344912 0
M  V30 39 H 37.649879 31.995163 53.459090 0
M  V30 40 H 39.553057 37.834587 61.832872 0
M  V30 41 H 38.987164 37.737752 63.494042 0
M  V30 42 H 36.476313 30.999191 55.367776 0
M  V30 43 H 41.644495 36.249684 62.237083 0
M  V30 44 H 39.245094 31.063130 59.013844 0
M  V30 45 H 36.821277 36.216398 60.190862 0
M  V30 46 H 42.092129 34.617587 66.061276 0
M  V30 47 H 41.691019 36.302323 65.813381 0
M  V30 48 H 40.441999 35.083960 65.678281 0
M  V30 49 H 42.783569 33.669743 62.759107 0
M  V30 50 H 36.946672 31.767941 58.582898 0
M  V30 51 H 36.360484 30.794803 59.904632 0
M  V30 52 H 40.057909 31.636266 53.127055 0
M  V30 53 H 38.610162 27.502063 56.597686 0
M  V30 54 H 39.772790 31.975511 61.626200 0
M  V30 55 H 39.116535 30.963533 62.893924 0
M  V30 56 H 37.155939 38.043216 61.679287 0
M  V30 57 H 36.880649 36.740537 62.825338 0
M  V30 58 H 37.738715 32.852001 62.428377 0
M  V30 59 H 39.245006 35.378801 63.603071 0
M  V30 60 H 40.013102 34.023921 61.653760 0
M  V30 61 H 40.010178 35.429287 60.631307 0
M  V30 62 H 36.131977 25.038326 56.215216 0
M  V30 63 H 41.335865 30.301502 54.763039 0
M  V30 64 H 36.445203 26.947656 57.727461 0
M  V30 65 H 37.270241 25.641718 58.567243 0
M  V30 66 H 42.834561 35.539535 63.926168 0
M  V30 67 H 40.720930 26.506459 57.471912 0
M  V30 68 H 39.754864 25.395230 58.401682 0
M  V30 69 H 38.036308 24.080556 55.069358 0
M  V30 70 H 37.517365 34.500015 62.154997 0
M  V30 71 H 40.096581 24.137887 56.556435 0
M  V30 72 H 40.147652 25.482398 55.413031 0
M  V30 73 H 38.445193 29.330256 61.355802 0
M  V30 74 H 40.048549 29.795347 60.860334 0
M  V30 75 H 36.683237 30.093120 57.505320 0
M  V30 76 H 41.170549 37.006619 63.605871 0
M  V30 END ATOM
M  V30 BEGIN BOND
M  V30 1 1 3 1
M  V30 2 1 11 9
M  V30 3 1 11 10
M  V30 4 1 13 5
M  V30 5 2 14 1
M  V30 6 1 17 2
M  V30 7 1 17 6
M  V30 8 1 18 16
M  V30 9 2 19 7
M  V30 10 1 21 2
M  V30 11 1 21 4
M  V30 12 1 22 21
M  V30 13 1 24 14
M  V30 14 2 24 20
M  V30 15 1 25 15
M  V30 16 1 25 23
M  V30 17 1 26 5
M  V30 18 1 27 4
M  V30 19 1 27 8
M  V30 20 1 27 10
M  V30 21 1 28 15
M  V30 22 1 29 20
M  V30 23 2 30 23
M  V30 24 1 31 6
M  V30 25 1 31 7
M  V30 26 1 31 22
M  V30 27 2 32 3
M  V30 28 1 32 20
M  V30 29 1 33 7
M  V30 30 1 33 13
M  V30 31 1 33 18
M  V30 32 1 34 28
M  V30 33 1 34 30
M  V30 34 2 35 12
M  V30 35 1 35 15
M  V30 36 1 35 26
M  V30 37 1 36 5
M  V30 38 1 36 16
M  V30 39 2 37 11
M  V30 40 1 38 26
M  V30 41 1 38 32
M  V30 42 1 39 1
M  V30 43 1 40 2
M  V30 44 1 41 2
M  V30 45 1 42 3
M  V30 46 1 43 4
M  V30 47 1 5 44 CFG=3
M  V30 48 1 45 6
M  V30 49 1 46 8
M  V30 50 1 47 8
M  V30 51 1 48 8
M  V30 52 1 49 10
M  V30 53 1 50 13
M  V30 54 1 51 13
M  V30 55 1 52 14
M  V30 56 1 15 53 CFG=3
M  V30 57 1 54 16
M  V30 58 1 55 16
M  V30 59 1 56 17
M  V30 60 1 57 17
M  V30 61 1 58 18
M  V30 62 1 21 59 CFG=1
M  V30 63 1 60 22
M  V30 64 1 61 22
M  V30 65 1 62 23
M  V30 66 1 63 24
M  V30 67 1 64 25
M  V30 68 1 65 25
M  V30 69 1 27 66 CFG=1
M  V30 70 1 67 28
M  V30 71 1 68 28
M  V30 72 1 69 30
M  V30 73 1 31 70 CFG=1
M  V30 74 1 71 34
M  V30 75 1 72 34
M  V30 76 1 73 36
M  V30 77 1 74 36
M  V30 78 1 75 38
M  V30 79 1 76 4
M  V30 END BOND
M  V30 END CTAB
M  END
>  <i_epik_Tot_Q>  (1) 
0

>  <i_epik_Tot_abs_Q>  (1) 
2

>  <i_i_glide_confnum>  (1) 
108

>  <i_i_glide_lignum>  (1) 
60

>  <i_i_glide_posenum>  (1) 
23

>  <i_i_glide_rotatable_bonds>  (1) 
11

>  <i_lp_mmshare_version>  (1) 
72125

>  <i_m_source_file_index>  (1) 
25

>  <i_f3d_flags>  (1) 
0

>  <num_sample>  (1) 
100

>  <b_lp_Chiralities_Consistent>  (1) 
1

>  <r_epik_Charging_Adjusted_Penalty>  (1) 
0.077750035834572392

>  <r_epik_Ionization_Penalty>  (1) 
0.10755876975778689

>  <r_epik_Ionization_Penalty_Charging>  (1) 
0.0083338926467225426

>  <r_epik_Ionization_Penalty_Neutral>  (1) 
0.099224877111064341

>  <r_epik_State_Penalty>  (1) 
0.069416143187849846

>  <r_glide_ring_energy>  (1) 
0

>  <r_i_docking_score>  (1) 
-7.6466083555093185

>  <r_i_glide_ecoul>  (1) 
-5.73812854802165

>  <r_i_glide_eff_state_penalty>  (1) 
0.069416143187849846

>  <r_i_glide_einternal>  (1) 
57.668432793451402

>  <r_i_glide_emodel>  (1) 
-42.364789690138245

>  <r_i_glide_emodel_strain>  (1) 
1.5131924627922473

>  <r_i_glide_energy>  (1) 
-46.045051857079386

>  <r_i_glide_erotb>  (1) 
0.72960086390203738

>  <r_i_glide_esite>  (1) 
-0.064309204075252396

>  <r_i_glide_evdw>  (1) 
-40.306923309057737

>  <r_i_glide_gscore>  (1) 
-7.716024498697168

>  <r_i_glide_gscore_strain>  (1) 
0

>  <r_i_glide_hbond>  (1) 
-0.079443344489033813

>  <r_i_glide_ligand_efficiency>  (1) 
-0.20122653567129786

>  <r_i_glide_ligand_efficiency_ln>  (1) 
-1.6488337018757324

>  <r_i_glide_ligand_efficiency_sa>  (1) 
-0.67651866412225781

>  <r_i_glide_lipo>  (1) 
-3.9266318618964116

>  <r_i_glide_metal>  (1) 
-0

>  <r_i_glide_rewards>  (1) 
-1.4991755044823729

>  <r_lp_Energy>  (1) 
53.347089999999994

>  <s_epik_Chemistry_Notes>  (1) 
This compound contains an acetal/aminal-like group ( X-CH(R)-Y where X, Y are N, S, or O) that may be acid/base labile, releasing an aldehyde.

>  <s_epik_cmdline>  (1) 
J2VwaWtfcHl0aG9uJywgJy1waHQnLCAnMS4wJywgJy1waCcsICc3LjQnLCAnLXRuJywgJzgnLCAnLW1hJywgJzUwMCcsICctaW1hZScsICc8aW5maWxlLm1hZT4nLCAnLW9tYWUnLCAnPG91dGZpbGUubWFlPic=

>  <s_epik_input>  (1) 
RmMxW2NIXVtjSF1bY0hdW2NIXWMxW05IXU4oQyg9TylbQ0BASF0yW0NIMl1bQ0hdPVtDSF1bQ0gyXVtDSDJdMilbQ0BIXTNbQ0gyXU4oW05IXVtDSDJdW0NIMl0zKUMoPU8pW0NAQEhdKFtDSDJdNClbTkhdW0NIMl1bQ0gyXVtDQEBIXTRbTkhdW0NASF0oW0NIM10pW05IXUMoPU8pW09IXQ==

>  <s_glide_docking_method>  (1) 
confgen

>  <s_i_glide_gridfile>  (1) 
gpcr_5ht2c_6bqh_protein_autoprepared_prepared

>  <s_lp_Force_Field>  (1) 
S-OPLS

>  <s_lp_Variant>  (1) 
DiffSBDD_24-2

>  <s_m_source_file>  (1) 
generated_GPCR_5HT2C_ligand_DiffSBDD_2026-06-23_prepared.sdf

>  <GenAI_Model>  (1) 
DiffSBDD

>  <Protein>  (1) 
GPCR_5HT2C

$$$$
DiffSBDD_18
     RDKit          3D

  0  0  0  0  0  0  0  0  0  0999 V3000
M  V30 BEGIN CTAB
M  V30 COUNTS 77 79 0 0 1
M  V30 BEGIN ATOM
M  V30 1 C 38.276186 24.369140 57.623414 0
M  V30 2 C 38.391377 33.530519 60.648222 0 CFG=2
M  V30 3 C 39.198677 29.074296 52.576143 0
M  V30 4 C 39.044578 29.777868 53.780984 0
M  V30 5 C 39.245648 26.986484 53.858494 0
M  V30 6 O 39.315329 37.924928 61.767783 0
M  V30 7 C 41.668180 26.909316 57.500058 0
M  V30 8 C 41.089160 33.025761 63.019723 0
M  V30 9 C 39.675159 28.690316 60.798413 0
M  V30 10 C 38.082106 31.836433 54.649812 0
M  V30 11 C 38.669945 36.938401 62.186050 0
M  V30 12 C 39.280832 27.665579 52.612592 0
M  V30 13 C 40.356186 28.916498 58.258370 0
M  V30 14 C 40.180713 32.656220 62.146040 0
M  V30 15 C 41.322510 34.484114 63.411103 0
M  V30 16 C 42.958269 27.699331 57.742627 0
M  V30 17 C 39.160564 25.015128 56.560788 0
M  V30 18 C 39.806016 30.152091 60.472620 0 CFG=2
M  V30 19 C 39.039672 34.940503 60.676002 0
M  V30 20 C 36.919424 33.540128 61.102299 0
M  V30 21 C 40.858272 35.583407 62.418656 0
M  V30 22 C 38.045029 33.314969 54.746068 0
M  V30 23 C 39.201579 32.404954 61.302733 0
M  V30 24 C 37.480418 27.273733 57.512607 0
M  V30 25 C 39.338455 35.561686 62.070867 0 CFG=1
M  V30 26 N 37.245120 31.124222 55.402783 0 CHG=1
M  V30 27 C 39.020462 29.105638 55.010872 0
M  V30 28 P 39.102205 26.889951 56.728580 0 CFG=2 CHG=1
M  V30 29 N 38.830881 31.126045 60.927016 0
M  V30 30 O 37.521175 36.971351 62.678925 0 CHG=-1
M  V30 31 C 39.391040 29.189060 59.390868 0 CFG=2
M  V30 32 C 39.128710 27.718747 55.069878 0
M  V30 33 N 40.359791 27.485507 57.840341 0 CFG=1 CHG=1
M  V30 34 N 38.925066 31.229106 53.767436 0
M  V30 35 H 37.225932 24.362146 57.332779 0
M  V30 36 H 38.574236 23.337658 57.775703 0
M  V30 37 H 38.353355 24.901036 58.567383 0
M  V30 38 H 38.358488 33.267586 59.589627 0
M  V30 39 H 39.229527 29.599414 51.631650 0
M  V30 40 H 39.322188 25.911638 53.881553 0
M  V30 41 H 41.691797 26.051259 58.167776 0
M  V30 42 H 41.645192 26.538550 56.479325 0
M  V30 43 H 41.688780 32.291281 63.536252 0
M  V30 44 H 40.598823 28.138320 60.964855 0
M  V30 45 H 38.845191 28.388314 61.430000 0
M  V30 46 H 39.381616 27.104917 51.693510 0
M  V30 47 H 40.204129 29.608191 57.442391 0
M  V30 48 H 41.317523 29.218094 58.661478 0
M  V30 49 H 40.843964 34.644761 64.378343 0
M  V30 50 H 42.390930 34.607521 63.587551 0
M  V30 51 H 43.826869 27.082430 57.507387 0
M  V30 52 H 43.024757 28.592708 57.126633 0
M  V30 53 H 43.043326 27.962047 58.788994 0
M  V30 54 H 38.826514 24.674062 55.582887 0
M  V30 55 H 40.181419 24.657754 56.681774 0
M  V30 56 H 40.816265 30.556645 60.456829 0
M  V30 57 H 39.953885 34.908625 60.083267 0
M  V30 58 H 38.383104 35.603902 60.110674 0
M  V30 59 H 36.429834 32.587666 60.899113 0
M  V30 60 H 36.823276 33.738081 62.167382 0
M  V30 61 H 36.354832 34.310103 60.574734 0
M  V30 62 H 41.466328 35.538782 61.514309 0
M  V30 63 H 41.126561 36.538062 62.875307 0
M  V30 64 H 37.645037 33.737802 53.826859 0
M  V30 65 H 37.424114 33.639107 55.579543 0
M  V30 66 H 39.040712 33.692769 54.967980 0
M  V30 67 H 36.687535 26.599968 57.189591 0
M  V30 68 H 37.645138 27.124942 58.567646 0
M  V30 69 H 37.177344 28.309038 57.367945 0
M  V30 70 H 38.844943 34.972836 62.840280 0
M  V30 71 H 36.568475 31.603312 56.034946 0
M  V30 72 H 38.931045 29.660772 55.921853 0
M  V30 73 H 38.002140 31.125835 60.349201 0
M  V30 74 H 38.347622 29.254864 59.098200 0
M  V30 75 H 39.285529 31.782771 52.999876 0
M  V30 76 H 37.219858 30.122285 55.321183 0
M  V30 77 H 40.145296 27.020749 58.711126 0
M  V30 END ATOM
M  V30 BEGIN BOND
M  V30 1 1 4 3
M  V30 2 2 11 6
M  V30 3 2 12 3
M  V30 4 1 12 5
M  V30 5 2 14 8
M  V30 6 1 15 8
M  V30 7 1 16 7
M  V30 8 1 17 1
M  V30 9 1 18 9
M  V30 10 1 19 2
M  V30 11 1 20 2
M  V30 12 1 21 15
M  V30 13 1 22 10
M  V30 14 1 23 2
M  V30 15 2 23 14
M  V30 16 1 25 11
M  V30 17 1 25 19
M  V30 18 1 25 21
M  V30 19 2 26 10
M  V30 20 2 27 4
M  V30 21 1 28 17 CFG=3
M  V30 22 1 28 24
M  V30 23 1 29 18
M  V30 24 1 29 23
M  V30 25 1 30 11
M  V30 26 1 31 9
M  V30 27 1 31 13
M  V30 28 1 31 18
M  V30 29 2 32 5
M  V30 30 1 32 27
M  V30 31 1 32 28
M  V30 32 1 33 7
M  V30 33 1 33 13
M  V30 34 1 33 28
M  V30 35 1 34 4
M  V30 36 1 34 10
M  V30 37 1 35 1
M  V30 38 1 36 1
M  V30 39 1 37 1
M  V30 40 1 2 38 CFG=3
M  V30 41 1 39 3
M  V30 42 1 40 5
M  V30 43 1 41 7
M  V30 44 1 42 7
M  V30 45 1 43 8
M  V30 46 1 44 9
M  V30 47 1 45 9
M  V30 48 1 46 12
M  V30 49 1 47 13
M  V30 50 1 48 13
M  V30 51 1 49 15
M  V30 52 1 50 15
M  V30 53 1 51 16
M  V30 54 1 52 16
M  V30 55 1 53 16
M  V30 56 1 54 17
M  V30 57 1 55 17
M  V30 58 1 18 56 CFG=3
M  V30 59 1 57 19
M  V30 60 1 58 19
M  V30 61 1 59 20
M  V30 62 1 60 20
M  V30 63 1 61 20
M  V30 64 1 62 21
M  V30 65 1 63 21
M  V30 66 1 64 22
M  V30 67 1 65 22
M  V30 68 1 66 22
M  V30 69 1 67 24
M  V30 70 1 68 24
M  V30 71 1 69 24
M  V30 72 1 25 70 CFG=1
M  V30 73 1 71 26
M  V30 74 1 72 27
M  V30 75 1 73 29
M  V30 76 1 31 74 CFG=3
M  V30 77 1 75 34
M  V30 78 1 76 26
M  V30 79 1 33 77 CFG=1
M  V30 END BOND
M  V30 END CTAB
M  END
>  <i_epik_Tot_Q>  (1) 
2

>  <i_epik_Tot_abs_Q>  (1) 
4

>  <i_i_glide_confnum>  (1) 
740

>  <i_i_glide_lignum>  (1) 
42

>  <i_i_glide_posenum>  (1) 
378

>  <i_i_glide_rotatable_bonds>  (1) 
11

>  <i_lp_mmshare_version>  (1) 
72125

>  <i_m_source_file_index>  (1) 
19

>  <i_f3d_flags>  (1) 
0

>  <num_sample>  (1) 
100

>  <b_lp_Chiralities_Consistent>  (1) 
1

>  <r_epik_Charging_Adjusted_Penalty>  (1) 
0.035732071636325656

>  <r_epik_Ionization_Penalty>  (1) 
0.019213783482484162

>  <r_epik_Ionization_Penalty_Charging>  (1) 
0.019186760244236628

>  <r_epik_Ionization_Penalty_Neutral>  (1) 
2.7023238247534635e-05

>  <r_epik_State_Penalty>  (1) 
0.016545311392089028

>  <r_glide_ring_energy>  (1) 
0

>  <r_i_docking_score>  (1) 
-7.6431834396152327

>  <r_i_glide_ecoul>  (1) 
-9.4025668169210501

>  <r_i_glide_eff_state_penalty>  (1) 
0.016545311392089028

>  <r_i_glide_einternal>  (1) 
2.9481389857392166

>  <r_i_glide_emodel>  (1) 
-69.824931437010605

>  <r_i_glide_emodel_strain>  (1) 
6.5048272618878542

>  <r_i_glide_energy>  (1) 
-43.849559969059619

>  <r_i_glide_erotb>  (1) 
0.68654883804919686

>  <r_i_glide_esite>  (1) 
-0.1094863319956086

>  <r_i_glide_evdw>  (1) 
-34.446993152138567

>  <r_i_glide_gscore>  (1) 
-7.6597287510073215

>  <r_i_glide_gscore_strain>  (1) 
0.62620681547196355

>  <r_i_glide_hbond>  (1) 
-0.20909054170419089

>  <r_i_glide_ligand_efficiency>  (1) 
-0.22479951292985978

>  <r_i_glide_ligand_efficiency_ln>  (1) 
-1.688593605844815

>  <r_i_glide_ligand_efficiency_sa>  (1) 
-0.72826315500900407

>  <r_i_glide_lipo>  (1) 
-4.7160268761149737

>  <r_i_glide_metal>  (1) 
-0

>  <r_i_glide_rewards>  (1) 
-0.8051459745686238

>  <r_lp_Energy>  (1) 
36.417943999999999

>  <s_epik_Chemistry_Notes>  (1) 
This compound has an imine and may undergo hydrolysis.

>  <s_epik_cmdline>  (1) 
J2VwaWtfcHl0aG9uJywgJy1waHQnLCAnMS4wJywgJy1waCcsICc3LjQnLCAnLXRuJywgJzgnLCAnLW1hJywgJzUwMCcsICctaW1hZScsICc8aW5maWxlLm1hZT4nLCAnLW9tYWUnLCAnPG91dGZpbGUubWFlPic=

>  <s_epik_input>  (1) 
W0hdL049QyhcW0NIM10pW05IXWMxW2NIXVtjSF1bY0hdYyhbY0hdMSlbUEBAK10oW0NIM10pKFtDSDJdW0NIM10pTihbQ0gyXVtDSDNdKVtDSDJdW0NASF0yW0NIMl1bQ0BASF0yW05IXUMzPUM9W0NIXVtDSDJdW0NIMl1bQ0BASF0oQyg9TylbT0hdKVtDSDJdW0NAQEhdM1tDSDNd

>  <s_glide_docking_method>  (1) 
confgen

>  <s_i_glide_gridfile>  (1) 
gpcr_5ht2c_6bqh_protein_autoprepared_prepared

>  <s_lp_Force_Field>  (1) 
S-OPLS

>  <s_lp_Variant>  (1) 
DiffSBDD_18-1

>  <s_m_source_file>  (1) 
generated_GPCR_5HT2C_ligand_DiffSBDD_2026-06-23_prepared.sdf

>  <GenAI_Model>  (1) 
DiffSBDD

>  <Protein>  (1) 
GPCR_5HT2C

$$$$
DiffSBDD_84
     RDKit          3D

  0  0  0  0  0  0  0  0  0  0999 V3000
M  V30 BEGIN CTAB
M  V30 COUNTS 77 81 0 0 1
M  V30 BEGIN ATOM
M  V30 1 C 36.913271 36.901401 61.393994 0
M  V30 2 C 38.853863 31.438553 54.326587 0
M  V30 3 C 38.265903 31.907552 57.599778 0
M  V30 4 C 40.995875 33.402810 65.236231 0
M  V30 5 S 39.644001 33.313524 62.558652 0
M  V30 6 C 39.353048 29.137190 50.863956 0
M  V30 7 C 38.449428 29.191172 53.093496 0
M  V30 8 C 40.496210 29.064449 60.924638 0
M  V30 9 O 41.252262 33.530110 66.620020 0
M  V30 10 C 38.553597 29.516991 57.106181 0
M  V30 11 C 37.416510 28.802919 54.138217 0
M  V30 12 C 39.466900 30.253952 53.545676 0 CFG=1
M  V30 13 C 39.052407 30.363565 59.427796 0
M  V30 14 N 36.626111 37.156388 62.819717 0 CHG=1
M  V30 15 C 40.962253 34.763446 64.479700 0
M  V30 16 C 38.423966 36.928737 61.039924 0
M  V30 17 N 38.465318 28.661029 51.928261 0
M  V30 18 C 39.636460 30.152172 60.703241 0
M  V30 19 N 38.032414 33.669967 60.404852 0
M  V30 20 N 38.213745 30.882245 56.718435 0
M  V30 21 C 40.660884 29.741465 51.360248 0
M  V30 22 C 39.258180 29.387669 58.428437 0
M  V30 23 N 40.655519 34.594399 63.052156 0
M  V30 24 C 42.327024 35.468597 64.600117 0
M  V30 25 C 37.752705 31.094667 55.334097 0 CFG=2
M  V30 26 O 38.230186 33.082818 57.217268 0
M  V30 27 C 40.124396 28.303587 58.652827 0
M  V30 28 O 42.341640 36.137763 65.826907 0
M  V30 29 C 40.291814 30.817319 52.375263 0
M  V30 30 C 38.545678 34.373338 61.581247 0 CFG=2
M  V30 31 C 36.773022 30.029293 54.837993 0
M  V30 32 N 38.929523 32.777810 59.793552 0
M  V30 33 N 40.281500 35.881830 62.428669 0 CHG=1
M  V30 34 C 40.757824 28.156786 59.891916 0
M  V30 35 C 38.302671 31.633924 59.127343 0 CFG=1
M  V30 36 C 39.304899 35.681578 61.327103 0 CFG=2
M  V30 37 H 36.413916 37.683985 60.822639 0
M  V30 38 H 36.440566 35.976311 61.072734 0
M  V30 39 H 38.412147 32.132675 53.610927 0
M  V30 40 H 39.637338 32.008602 54.824644 0
M  V30 41 H 41.747724 32.751139 64.793650 0
M  V30 42 H 40.047594 32.880760 65.175896 0
M  V30 43 H 39.556609 28.330268 50.160670 0
M  V30 44 H 38.848091 29.911589 50.290471 0
M  V30 45 H 40.956878 28.926418 61.892208 0
M  V30 46 H 40.607578 34.098624 67.009016 0
M  V30 47 H 37.642701 28.920433 57.177660 0
M  V30 48 H 39.187004 29.076004 56.337349 0
M  V30 49 H 37.887549 28.125463 54.847358 0
M  V30 50 H 35.622687 37.127182 62.953484 0
M  V30 51 H 37.040422 36.459853 63.420165 0
M  V30 52 H 40.181430 35.387488 64.918960 0
M  V30 53 H 38.899788 37.841015 61.405328 0
M  V30 54 H 38.427130 37.014471 59.955473 0
M  V30 55 H 39.439391 30.841352 61.504869 0
M  V30 56 H 37.658436 34.307996 59.702374 0
M  V30 57 H 41.273197 28.945179 51.767088 0
M  V30 58 H 41.219994 30.189389 50.535506 0
M  V30 59 H 43.158869 34.765297 64.576008 0
M  V30 60 H 42.503777 36.199698 63.810877 0
M  V30 61 H 37.131118 31.989805 55.358558 0
M  V30 62 H 40.298360 27.577086 57.868352 0
M  V30 63 H 42.344713 37.076573 65.628086 0
M  V30 64 H 41.156484 31.335671 52.762158 0
M  V30 65 H 39.713842 31.582584 51.858430 0
M  V30 66 H 37.671956 34.589125 62.167349 0
M  V30 67 H 36.119715 29.739082 55.657765 0
M  V30 68 H 36.088676 30.535518 54.168437 0
M  V30 69 H 39.605675 32.451871 60.482783 0
M  V30 70 H 39.905446 36.455351 63.170312 0
M  V30 71 H 41.431536 27.337756 60.055100 0
M  V30 72 H 37.269515 31.529585 59.467304 0
M  V30 73 H 39.937448 35.516528 60.454529 0
M  V30 74 H 41.138538 36.291772 62.075819 0
M  V30 75 H 40.139612 29.740599 54.230235 0
M  V30 76 H 36.647764 28.194675 53.660501 0
M  V30 77 H 36.952460 38.074858 63.085756 0
M  V30 END ATOM
M  V30 BEGIN BOND
M  V30 1 1 9 4
M  V30 2 1 11 7
M  V30 3 1 12 2
M  V30 4 1 12 7
M  V30 5 1 14 1
M  V30 6 1 15 4
M  V30 7 1 16 1
M  V30 8 1 17 6
M  V30 9 2 17 7
M  V30 10 1 18 8
M  V30 11 2 18 13
M  V30 12 1 20 3
M  V30 13 1 20 10
M  V30 14 1 21 6
M  V30 15 1 22 10
M  V30 16 1 22 13
M  V30 17 1 23 5
M  V30 18 1 23 15
M  V30 19 1 24 15
M  V30 20 1 25 2
M  V30 21 1 25 20
M  V30 22 2 26 3
M  V30 23 2 27 22
M  V30 24 1 28 24
M  V30 25 1 29 12
M  V30 26 1 29 21
M  V30 27 1 30 5
M  V30 28 1 30 19
M  V30 29 1 31 11
M  V30 30 1 31 25
M  V30 31 1 32 19
M  V30 32 1 33 23
M  V30 33 2 34 8
M  V30 34 1 34 27
M  V30 35 1 35 3
M  V30 36 1 35 13
M  V30 37 1 35 32
M  V30 38 1 36 16
M  V30 39 1 36 30
M  V30 40 1 36 33
M  V30 41 1 37 1
M  V30 42 1 38 1
M  V30 43 1 39 2
M  V30 44 1 40 2
M  V30 45 1 41 4
M  V30 46 1 42 4
M  V30 47 1 43 6
M  V30 48 1 44 6
M  V30 49 1 45 8
M  V30 50 1 46 9
M  V30 51 1 47 10
M  V30 52 1 48 10
M  V30 53 1 49 11
M  V30 54 1 50 14
M  V30 55 1 51 14
M  V30 56 1 52 15
M  V30 57 1 53 16
M  V30 58 1 54 16
M  V30 59 1 55 18
M  V30 60 1 56 19
M  V30 61 1 57 21
M  V30 62 1 58 21
M  V30 63 1 59 24
M  V30 64 1 60 24
M  V30 65 1 25 61 CFG=1
M  V30 66 1 62 27
M  V30 67 1 63 28
M  V30 68 1 64 29
M  V30 69 1 65 29
M  V30 70 1 30 66 CFG=1
M  V30 71 1 67 31
M  V30 72 1 68 31
M  V30 73 1 69 32
M  V30 74 1 70 33
M  V30 75 1 71 34
M  V30 76 1 35 72 CFG=1
M  V30 77 1 36 73 CFG=3
M  V30 78 1 74 33
M  V30 79 1 12 75 CFG=1
M  V30 80 1 76 11
M  V30 81 1 77 14
M  V30 END BOND
M  V30 END CTAB
M  END
>  <i_epik_Tot_Q>  (1) 
2

>  <i_epik_Tot_abs_Q>  (1) 
2

>  <i_i_glide_confnum>  (1) 
1949

>  <i_i_glide_lignum>  (1) 
201

>  <i_i_glide_posenum>  (1) 
252

>  <i_i_glide_rotatable_bonds>  (1) 
11

>  <i_lp_mmshare_version>  (1) 
72125

>  <i_m_source_file_index>  (1) 
85

>  <i_f3d_flags>  (1) 
0

>  <num_sample>  (1) 
100

>  <b_lp_Chiralities_Consistent>  (1) 
1

>  <r_epik_Charging_Adjusted_Penalty>  (1) 
0.034284474231679775

>  <r_epik_Ionization_Penalty>  (1) 
0.42650113434003467

>  <r_epik_Ionization_Penalty_Charging>  (1) 
0.012847136256187231

>  <r_epik_Ionization_Penalty_Neutral>  (1) 
0.41365399808384745

>  <r_epik_State_Penalty>  (1) 
0.021437337975492542

>  <r_glide_ring_energy>  (1) 
0.54760512030195185

>  <r_i_docking_score>  (1) 
-7.6425974474012577

>  <r_i_glide_ecoul>  (1) 
-8.4759396633270523

>  <r_i_glide_eff_state_penalty>  (1) 
0.021437337975492542

>  <r_i_glide_einternal>  (1) 
30.063510815056745

>  <r_i_glide_emodel>  (1) 
-54.397348738741421

>  <r_i_glide_emodel_strain>  (1) 
4.7894118557912009

>  <r_i_glide_energy>  (1) 
-45.500837324067369

>  <r_i_glide_erotb>  (1) 
0.60855438394346106

>  <r_i_glide_esite>  (1) 
-0.19216846433560253

>  <r_i_glide_evdw>  (1) 
-37.024897660740315

>  <r_i_glide_gscore>  (1) 
-7.6640347853767503

>  <r_i_glide_gscore_strain>  (1) 
0.19735296394780022

>  <r_i_glide_hbond>  (1) 
-0.32000000000000001

>  <r_i_glide_ligand_efficiency>  (1) 
-0.21229437353892383

>  <r_i_glide_ligand_efficiency_ln>  (1) 
-1.6674082839015285

>  <r_i_glide_ligand_efficiency_sa>  (1) 
-0.7009805767751871

>  <r_i_glide_lipo>  (1) 
-3.5574232282440659

>  <r_i_glide_metal>  (1) 
-0

>  <r_i_glide_rewards>  (1) 
-1.2777146081522688

>  <r_lp_Energy>  (1) 
46.704704999999997

>  <r_lp_tautomer_probability>  (1) 
0.99998399999999998

>  <s_epik_Chemistry_Notes>  (1) 
This compound has an imine and may undergo hydrolysis. This compound contains an acetal/aminal-like group ( X-CH(R)-Y where X, Y are N, S, or O) that may be acid/base labile, releasing an aldehyde. This compound has a N-S or N-O group and may undergo hydrolysis at high or low pH.

>  <s_epik_cmdline>  (1) 
J2VwaWtfcHl0aG9uJywgJy1waHQnLCAnMS4wJywgJy1waCcsICc3LjQnLCAnLXRuJywgJzgnLCAnLW1hJywgJzUwMCcsICctaW1hZScsICc8aW5maWxlLm1hZT4nLCAnLW9tYWUnLCAnPG91dGZpbGUubWFlPic=

>  <s_epik_input>  (1) 
W09IXVtDSDJdW0NIXShbQ0gyXVtPSF0pTjFTW0NASF0oW0NASF0oW05IXTEpW0NIMl1bQ0gyXVtOSDJdKVtOSF1bTkhdW0NASF0yQyg9TylOKFtDSDJdYyhjMjMpW2NIXVtjSF1bY0hdW2NIXTMpW0NASF0oW0NIMl1bQ0gyXTQpW0NIMl1DKD1DNDUpW0NIMl1bQ0gyXVtDSDJdW05IXTU=

>  <s_glide_docking_method>  (1) 
confgen

>  <s_i_glide_gridfile>  (1) 
gpcr_5ht2c_6bqh_protein_autoprepared_prepared

>  <s_lp_Force_Field>  (1) 
S-OPLS

>  <s_lp_Variant>  (1) 
DiffSBDD_84-4

>  <s_m_source_file>  (1) 
generated_GPCR_5HT2C_ligand_DiffSBDD_2026-06-23_prepared.sdf

>  <GenAI_Model>  (1) 
DiffSBDD

>  <Protein>  (1) 
GPCR_5HT2C

$$$$
DiffSBDD_71
     RDKit          3D

  0  0  0  0  0  0  0  0  0  0999 V3000
M  V30 BEGIN CTAB
M  V30 COUNTS 52 54 0 0 1
M  V30 BEGIN ATOM
M  V30 1 N 39.278052 34.289044 61.857263 0 CHG=1
M  V30 2 C 38.359387 28.318047 54.776590 0 CFG=1
M  V30 3 C 40.395300 28.131259 56.440216 0
M  V30 4 C 39.773469 28.949270 50.699358 0
M  V30 5 C 39.366873 27.432620 55.546426 0
M  V30 6 C 38.663715 33.820300 60.593154 0
M  V30 7 O 37.973475 29.507931 55.462559 0
M  V30 8 C 40.045131 29.919558 51.680874 0
M  V30 9 C 38.848704 28.564410 53.342921 0
M  V30 10 C 39.047170 27.791701 51.032207 0
M  V30 11 C 38.279966 31.592249 61.670701 0
M  V30 12 C 37.645119 29.423491 56.839275 0
M  V30 13 C 38.190880 31.717433 59.134114 0
M  V30 14 C 38.875109 29.783640 57.676716 0 CFG=1
M  V30 15 C 40.208273 36.176246 63.173563 0
M  V30 16 C 38.583428 27.600361 52.347588 0
M  V30 17 C 39.365483 35.752504 61.995261 0
M  V30 18 O 39.104306 31.337699 62.567796 0
M  V30 19 Cl 39.955843 30.937448 54.196083 0
M  V30 20 C 39.590355 29.737634 53.003053 0
M  V30 21 N 38.478029 30.263242 59.020112 0 CHG=1
M  V30 22 C 38.818227 32.294247 60.424485 0 CFG=1
M  V30 23 C 39.833760 28.587979 57.796285 0
M  V30 24 O 39.344938 26.207782 55.442716 0
M  V30 25 O 37.059223 31.337754 61.700570 0 CHG=-1
M  V30 26 C 40.754510 36.295575 61.767890 0
M  V30 27 H 38.737932 33.912675 62.625894 0
M  V30 28 H 37.448011 27.724518 54.692274 0
M  V30 29 H 40.831398 28.968762 55.899247 0
M  V30 30 H 40.124580 29.092736 49.687908 0
M  V30 31 H 39.153386 34.329526 59.764273 0
M  V30 32 H 37.611015 34.107262 60.571597 0
M  V30 33 H 40.606418 30.805891 51.421346 0
M  V30 34 H 38.845121 27.046797 50.275779 0
M  V30 35 H 36.845248 30.137952 57.016561 0
M  V30 36 H 37.245156 28.448323 57.116854 0
M  V30 37 H 38.597188 32.261977 58.281092 0
M  V30 38 H 37.110871 31.875162 59.102759 0
M  V30 39 H 39.421962 30.585140 57.178090 0
M  V30 40 H 39.946047 37.104454 63.679296 0
M  V30 41 H 40.635303 35.406786 63.814806 0
M  V30 42 H 38.028119 26.707562 52.596562 0
M  V30 43 H 38.474663 36.324126 61.738971 0
M  V30 44 H 37.677449 29.747956 59.361679 0
M  V30 45 H 39.888586 32.085991 60.386037 0
M  V30 46 H 40.675636 28.864836 58.432518 0
M  V30 47 H 39.344156 27.750360 58.296375 0
M  V30 48 H 41.210279 27.426734 56.611982 0
M  V30 49 H 41.546423 35.608254 61.475146 0
M  V30 50 H 40.845604 37.302419 61.367774 0
M  V30 51 H 40.207276 33.900526 61.930255 0
M  V30 52 H 39.248880 30.070094 59.643325 0
M  V30 END ATOM
M  V30 BEGIN BOND
M  V30 1 1 5 2
M  V30 2 1 5 3
M  V30 3 1 6 1
M  V30 4 1 7 2
M  V30 5 1 8 4
M  V30 6 1 9 2
M  V30 7 2 10 4
M  V30 8 1 12 7
M  V30 9 1 14 12
M  V30 10 2 16 9
M  V30 11 1 16 10
M  V30 12 1 17 1
M  V30 13 1 17 15
M  V30 14 2 18 11
M  V30 15 2 20 8
M  V30 16 1 20 9
M  V30 17 1 20 19
M  V30 18 1 21 13
M  V30 19 1 21 14
M  V30 20 1 22 6
M  V30 21 1 22 11
M  V30 22 1 22 13
M  V30 23 1 23 3
M  V30 24 1 23 14
M  V30 25 2 24 5
M  V30 26 1 25 11
M  V30 27 1 26 15
M  V30 28 1 26 17
M  V30 29 1 27 1
M  V30 30 1 2 28 CFG=3
M  V30 31 1 29 3
M  V30 32 1 30 4
M  V30 33 1 31 6
M  V30 34 1 32 6
M  V30 35 1 33 8
M  V30 36 1 34 10
M  V30 37 1 35 12
M  V30 38 1 36 12
M  V30 39 1 37 13
M  V30 40 1 38 13
M  V30 41 1 14 39 CFG=3
M  V30 42 1 40 15
M  V30 43 1 41 15
M  V30 44 1 42 16
M  V30 45 1 43 17
M  V30 46 1 44 21
M  V30 47 1 22 45 CFG=3
M  V30 48 1 46 23
M  V30 49 1 47 23
M  V30 50 1 48 3
M  V30 51 1 49 26
M  V30 52 1 50 26
M  V30 53 1 51 1
M  V30 54 1 52 21
M  V30 END BOND
M  V30 END CTAB
M  END
>  <i_epik_Tot_Q>  (1) 
1

>  <i_epik_Tot_abs_Q>  (1) 
3

>  <i_i_glide_confnum>  (1) 
18

>  <i_i_glide_lignum>  (1) 
156

>  <i_i_glide_posenum>  (1) 
100

>  <i_i_glide_rotatable_bonds>  (1) 
8

>  <i_lp_mmshare_version>  (1) 
72125

>  <i_m_source_file_index>  (1) 
72

>  <i_f3d_flags>  (1) 
0

>  <num_sample>  (1) 
100

>  <b_lp_Chiralities_Consistent>  (1) 
1

>  <r_epik_Charging_Adjusted_Penalty>  (1) 
0.028021554502508948

>  <r_epik_Ionization_Penalty>  (1) 
0.028021554963738291

>  <r_epik_Ionization_Penalty_Charging>  (1) 
0.028021554502508948

>  <r_epik_Ionization_Penalty_Neutral>  (1) 
4.6122934257721838e-10

>  <r_epik_State_Penalty>  (1) 
-0

>  <r_glide_ring_energy>  (1) 
0

>  <r_i_docking_score>  (1) 
-7.6401560946093232

>  <r_i_glide_ecoul>  (1) 
-4.3603050731334543

>  <r_i_glide_eff_state_penalty>  (1) 
-0

>  <r_i_glide_einternal>  (1) 
6.2652373893495206

>  <r_i_glide_emodel>  (1) 
-72.711477214904434

>  <r_i_glide_emodel_strain>  (1) 
1.1261363357170815

>  <r_i_glide_energy>  (1) 
-46.08853589066409

>  <r_i_glide_erotb>  (1) 
0.79881325193843611

>  <r_i_glide_esite>  (1) 
-0.012835242243882009

>  <r_i_glide_evdw>  (1) 
-41.728230817530637

>  <r_i_glide_gscore>  (1) 
-7.6401560946093232

>  <r_i_glide_gscore_strain>  (1) 
0

>  <r_i_glide_hbond>  (1) 
-0.16

>  <r_i_glide_ligand_efficiency>  (1) 
-0.29385215748497395

>  <r_i_glide_ligand_efficiency_ln>  (1) 
-1.7942655894221013

>  <r_i_glide_ligand_efficiency_sa>  (1) 
-0.87053586124225901

>  <r_i_glide_lipo>  (1) 
-3.5272637629405668

>  <r_i_glide_metal>  (1) 
-0

>  <r_i_glide_rewards>  (1) 
-1.9984130395167596

>  <r_lp_Energy>  (1) 
38.533868999999996

>  <r_lp_tautomer_probability>  (1) 
1

>  <s_epik_cmdline>  (1) 
J2VwaWtfcHl0aG9uJywgJy1waHQnLCAnMS4wJywgJy1waCcsICc3LjQnLCAnLXRuJywgJzgnLCAnLW1hJywgJzUwMCcsICctaW1hZScsICc8aW5maWxlLm1hZT4nLCAnLW9tYWUnLCAnPG91dGZpbGUubWFlPic=

>  <s_epik_input>  (1) 
W0NIMl0xW0NIMl1bQ0hdMVtOSF1bQ0gyXVtDQEBIXShDKD1PKVtPSF0pW0NIMl1bTkhdW0NASF0oW0NIMl1PMilbQ0gyXVtDSF09QyhbT0hdKVtDQEBIXTJjM1tjSF1bY0hdW2NIXVtjSF1jM0Ns

>  <s_glide_docking_method>  (1) 
confgen

>  <s_i_glide_gridfile>  (1) 
gpcr_5ht2c_6bqh_protein_autoprepared_prepared

>  <s_lp_Force_Field>  (1) 
S-OPLS

>  <s_lp_Variant>  (1) 
DiffSBDD_71-1

>  <s_m_source_file>  (1) 
generated_GPCR_5HT2C_ligand_DiffSBDD_2026-06-23_prepared.sdf

>  <GenAI_Model>  (1) 
DiffSBDD

>  <Protein>  (1) 
GPCR_5HT2C

$$$$
DiffSBDD_47
     RDKit          3D

  0  0  0  0  0  0  0  0  0  0999 V3000
M  V30 BEGIN CTAB
M  V30 COUNTS 51 52 0 0 1
M  V30 BEGIN ATOM
M  V30 1 O 40.045168 37.419636 62.647704 0
M  V30 2 C 38.227453 36.072389 61.814573 0
M  V30 3 C 37.582924 32.647780 60.441311 0
M  V30 4 C 39.644909 29.737687 52.527230 0
M  V30 5 C 37.722957 28.359988 54.062413 0
M  V30 6 C 37.267625 36.944769 61.081900 0
M  V30 7 C 39.278768 30.226446 53.797519 0
M  V30 8 C 36.436355 34.873210 59.870622 0
M  V30 9 C 36.862953 31.926467 59.295151 0
M  V30 10 O 36.987594 38.085035 61.449526 0
M  V30 11 C 37.910927 30.062207 55.949799 0 CFG=2
M  V30 12 C 38.620254 29.316908 57.104516 0
M  V30 13 O 39.046934 28.169556 56.957526 0
M  V30 14 C 38.769737 30.057268 58.449512 0 CFG=1
M  V30 15 C 37.758705 34.160698 60.201018 0 CFG=1
M  V30 16 C 36.617130 36.390989 59.812464 0
M  V30 17 C 39.049121 28.558751 52.027662 0
M  V30 18 C 38.444505 34.806413 61.393963 0
M  V30 19 S 37.163835 30.137768 59.305847 0
M  V30 20 C 38.313910 29.537890 54.569537 0
M  V30 21 C 38.093472 27.872514 52.797265 0
M  V30 22 C 39.434750 28.031474 50.666189 0
M  V30 23 C 39.820297 29.402260 59.363657 0
M  V30 24 O 38.045136 31.466669 56.070700 0
M  V30 25 C 38.909361 36.679606 63.030506 0
M  V30 26 H 40.556108 37.623339 63.422638 0
M  V30 27 H 38.573401 32.210217 60.570869 0
M  V30 28 H 37.046087 32.465363 61.373473 0
M  V30 29 H 40.379556 30.265584 51.937149 0
M  V30 30 H 36.988386 27.828599 54.644574 0
M  V30 31 H 39.736055 31.127790 54.179154 0
M  V30 32 H 36.046787 34.527752 58.912178 0
M  V30 33 H 35.680349 34.622338 60.616065 0
M  V30 34 H 35.787671 32.096506 59.367257 0
M  V30 35 H 37.182568 32.335395 58.338431 0
M  V30 36 H 36.846371 29.855491 56.069821 0
M  V30 37 H 39.104240 31.073071 58.244273 0
M  V30 38 H 38.441833 34.280785 59.361065 0
M  V30 39 H 37.244909 36.660463 58.963283 0
M  V30 40 H 35.654341 36.877928 59.660285 0
M  V30 41 H 39.143568 34.185657 61.935280 0
M  V30 42 H 37.644642 26.968776 52.415569 0
M  V30 43 H 39.231405 26.962835 50.582361 0
M  V30 44 H 38.874535 28.544037 49.885495 0
M  V30 45 H 40.494733 28.190919 50.503610 0
M  V30 46 H 40.788753 29.336548 58.866989 0
M  V30 47 H 39.958630 29.982646 60.275757 0
M  V30 48 H 39.525612 28.393111 59.654711 0
M  V30 49 H 37.159167 31.815579 56.168908 0
M  V30 50 H 39.238217 35.878609 63.692665 0
M  V30 51 H 38.225129 37.304384 63.606458 0
M  V30 END ATOM
M  V30 BEGIN BOND
M  V30 1 1 6 2
M  V30 2 2 7 4
M  V30 3 1 9 3
M  V30 4 2 10 6
M  V30 5 1 12 11
M  V30 6 2 13 12
M  V30 7 1 14 12
M  V30 8 1 15 3
M  V30 9 1 15 8
M  V30 10 1 16 6
M  V30 11 1 16 8
M  V30 12 1 17 4
M  V30 13 2 18 2
M  V30 14 1 18 15
M  V30 15 1 19 9
M  V30 16 1 19 14
M  V30 17 2 20 5
M  V30 18 1 20 7
M  V30 19 1 20 11
M  V30 20 1 21 5
M  V30 21 2 21 17
M  V30 22 1 22 17
M  V30 23 1 23 14
M  V30 24 1 24 11
M  V30 25 1 25 1
M  V30 26 1 25 2
M  V30 27 1 26 1
M  V30 28 1 27 3
M  V30 29 1 28 3
M  V30 30 1 29 4
M  V30 31 1 30 5
M  V30 32 1 31 7
M  V30 33 1 32 8
M  V30 34 1 33 8
M  V30 35 1 34 9
M  V30 36 1 35 9
M  V30 37 1 11 36 CFG=1
M  V30 38 1 14 37 CFG=3
M  V30 39 1 15 38 CFG=3
M  V30 40 1 39 16
M  V30 41 1 40 16
M  V30 42 1 41 18
M  V30 43 1 42 21
M  V30 44 1 43 22
M  V30 45 1 44 22
M  V30 46 1 45 22
M  V30 47 1 46 23
M  V30 48 1 47 23
M  V30 49 1 48 23
M  V30 50 1 49 24
M  V30 51 1 50 25
M  V30 52 1 51 25
M  V30 END BOND
M  V30 END CTAB
M  END
>  <i_epik_Tot_Q>  (1) 
0

>  <i_epik_Tot_abs_Q>  (1) 
0

>  <i_i_glide_confnum>  (1) 
516

>  <i_i_glide_lignum>  (1) 
99

>  <i_i_glide_posenum>  (1) 
70

>  <i_i_glide_rotatable_bonds>  (1) 
10

>  <i_lp_mmshare_version>  (1) 
72125

>  <i_m_source_file_index>  (1) 
48

>  <i_f3d_flags>  (1) 
0

>  <num_sample>  (1) 
100

>  <b_lp_Chiralities_Consistent>  (1) 
1

>  <r_epik_Charging_Adjusted_Penalty>  (1) 
0

>  <r_epik_Ionization_Penalty>  (1) 
1.6598549338111207e-05

>  <r_epik_Ionization_Penalty_Charging>  (1) 
0

>  <r_epik_Ionization_Penalty_Neutral>  (1) 
1.6598549338111207e-05

>  <r_epik_State_Penalty>  (1) 
-0

>  <r_glide_ring_energy>  (1) 
0

>  <r_i_docking_score>  (1) 
-7.626269907454593

>  <r_i_glide_ecoul>  (1) 
-7.0467918541130574

>  <r_i_glide_eff_state_penalty>  (1) 
-0

>  <r_i_glide_einternal>  (1) 
8.256946280596166

>  <r_i_glide_emodel>  (1) 
-68.111484359167008

>  <r_i_glide_emodel_strain>  (1) 
2.3443806610486604

>  <r_i_glide_energy>  (1) 
-49.896481200564516

>  <r_i_glide_erotb>  (1) 
1.1691057722696085

>  <r_i_glide_esite>  (1) 
0

>  <r_i_glide_evdw>  (1) 
-42.849689346451456

>  <r_i_glide_gscore>  (1) 
-7.626269907454593

>  <r_i_glide_gscore_strain>  (1) 
0

>  <r_i_glide_hbond>  (1) 
-0.41455213178731443

>  <r_i_glide_ligand_efficiency>  (1) 
-0.30505079629818371

>  <r_i_glide_ligand_efficiency_ln>  (1) 
-1.807654508933749

>  <r_i_glide_ligand_efficiency_sa>  (1) 
-0.89197393943184899

>  <r_i_glide_lipo>  (1) 
-3.2859838007211382

>  <r_i_glide_metal>  (1) 
-0

>  <r_i_glide_rewards>  (1) 
-1.8953365017762192

>  <r_lp_Energy>  (1) 
21.981998999999998

>  <r_lp_tautomer_probability>  (1) 
1

>  <s_epik_cmdline>  (1) 
J2VwaWtfcHl0aG9uJywgJy1waHQnLCAnMS4wJywgJy1waCcsICc3LjQnLCAnLXRuJywgJzgnLCAnLW1hJywgJzUwMCcsICctaW1hZScsICc8aW5maWxlLm1hZT4nLCAnLW9tYWUnLCAnPG91dGZpbGUubWFlPic=

>  <s_epik_input>  (1) 
W09IXVtDSDJdQzE9W0NIXVtDQEhdKFtDSDJdW0NIMl1DMT1PKVtDSDJdW0NIMl1TXEMoW0NIM10pPUMoW09IXSlcW0NAQEhdKFtPSF0pYyhbY0hdW2NIXTIpW2NIXVtjSF1jMltDSDNd

>  <s_glide_docking_method>  (1) 
confgen

>  <s_i_glide_gridfile>  (1) 
gpcr_5ht2c_6bqh_protein_autoprepared_prepared

>  <s_lp_Force_Field>  (1) 
S-OPLS

>  <s_lp_Variant>  (1) 
DiffSBDD_47-1

>  <s_m_source_file>  (1) 
generated_GPCR_5HT2C_ligand_DiffSBDD_2026-06-23_prepared.sdf

>  <GenAI_Model>  (1) 
DiffSBDD

>  <Protein>  (1) 
GPCR_5HT2C

$$$$
DiffSBDD_95
     RDKit          3D

  0  0  0  0  0  0  0  0  0  0999 V3000
M  V30 BEGIN CTAB
M  V30 COUNTS 57 59 0 0 1
M  V30 BEGIN ATOM
M  V30 1 O 37.050815 35.006242 59.367784 0
M  V30 2 C 34.364358 32.959799 59.924734 0
M  V30 3 C 35.229454 31.836309 60.430436 0
M  V30 4 C 37.637410 24.942754 57.648943 0
M  V30 5 C 38.664800 29.141712 53.830170 0
M  V30 6 O 37.245138 31.337627 54.930116 0
M  V30 7 O 39.488214 33.531782 60.054403 0 CHG=-1
M  V30 8 C 38.785786 25.849979 55.250853 0
M  V30 9 O 38.175372 31.362777 60.261486 0
M  V30 10 C 40.074774 28.686026 57.477441 0
M  V30 11 C 38.395368 30.951091 55.642182 0 CFG=2
M  V30 12 C 35.783617 33.243109 60.356456 0
M  V30 13 C 39.970068 28.956570 55.993570 0 CFG=2
M  V30 14 C 37.818437 24.828778 55.229110 0
M  V30 15 C 39.531029 30.061407 52.937412 0
M  V30 16 C 39.645829 29.657873 51.465168 0
M  V30 17 C 39.078170 28.542184 50.967603 0
M  V30 18 C 36.835946 33.607848 59.330191 0 CFG=2
M  V30 19 C 38.672792 29.449973 55.352940 0 CFG=2
M  V30 20 C 40.444830 30.601650 50.590262 0
M  V30 21 C 38.137971 31.282297 57.096044 0
M  V30 22 C 38.796423 32.232950 57.777583 0
M  V30 23 C 37.245126 24.376092 56.426324 0
M  V30 24 P 38.445214 32.621508 59.528094 0
M  V30 25 C 38.596212 25.973380 57.675443 0
M  V30 26 C 39.176388 26.438800 56.473834 0
M  V30 27 C 40.202306 27.537255 56.498923 0 CFG=2
M  V30 28 H 36.845147 35.352497 58.510208 0
M  V30 29 H 33.576758 33.337766 60.567773 0
M  V30 30 H 34.135472 32.973638 58.862703 0
M  V30 31 H 35.574295 31.112109 59.694018 0
M  V30 32 H 35.011280 31.432127 61.416087 0
M  V30 33 H 37.201232 24.588895 58.567760 0
M  V30 34 H 39.003020 28.123100 53.692619 0
M  V30 35 H 37.636967 29.166081 53.465438 0
M  V30 36 H 36.601310 31.671114 55.556501 0
M  V30 37 H 39.229560 26.181652 54.327621 0
M  V30 38 H 40.979099 29.010255 57.987280 0
M  V30 39 H 39.160455 28.768545 58.062275 0
M  V30 40 H 39.228654 31.558993 55.287386 0
M  V30 41 H 35.922833 33.725780 61.322140 0
M  V30 42 H 40.845075 29.423515 55.553467 0
M  V30 43 H 37.520120 24.389720 54.290064 0
M  V30 44 H 39.135579 31.076519 52.967853 0
M  V30 45 H 40.533950 30.137752 53.347818 0
M  V30 46 H 39.179718 28.289246 49.922859 0
M  V30 47 H 38.508259 27.872191 51.590948 0
M  V30 48 H 36.437151 33.381845 58.341909 0
M  V30 49 H 37.858867 28.873776 55.796473 0
M  V30 50 H 41.460081 30.717948 50.967749 0
M  V30 51 H 40.508545 30.237508 49.564616 0
M  V30 52 H 39.969770 31.582502 50.570171 0
M  V30 53 H 37.366728 30.709957 57.593454 0
M  V30 54 H 39.569466 32.796045 57.277247 0
M  V30 55 H 36.506178 23.588511 56.407395 0
M  V30 56 H 38.890166 26.408099 58.619820 0
M  V30 57 H 41.196650 27.115275 56.366332 0
M  V30 END ATOM
M  V30 BEGIN BOND
M  V30 1 1 3 2
M  V30 2 1 11 6
M  V30 3 1 12 2
M  V30 4 1 12 3
M  V30 5 1 13 10
M  V30 6 2 14 8
M  V30 7 1 15 5
M  V30 8 1 16 15
M  V30 9 2 17 16
M  V30 10 1 18 1
M  V30 11 1 18 12
M  V30 12 1 19 5
M  V30 13 1 19 11
M  V30 14 1 19 13
M  V30 15 1 20 16
M  V30 16 1 21 11
M  V30 17 2 22 21
M  V30 18 2 23 4
M  V30 19 1 23 14
M  V30 20 1 24 7
M  V30 21 2 24 9
M  V30 22 1 24 18
M  V30 23 1 24 22
M  V30 24 1 25 4
M  V30 25 1 26 8
M  V30 26 2 26 25
M  V30 27 1 27 10
M  V30 28 1 27 13
M  V30 29 1 27 26
M  V30 30 1 28 1
M  V30 31 1 29 2
M  V30 32 1 30 2
M  V30 33 1 31 3
M  V30 34 1 32 3
M  V30 35 1 33 4
M  V30 36 1 34 5
M  V30 37 1 35 5
M  V30 38 1 36 6
M  V30 39 1 37 8
M  V30 40 1 38 10
M  V30 41 1 39 10
M  V30 42 1 11 40 CFG=3
M  V30 43 1 41 12
M  V30 44 1 13 42 CFG=3
M  V30 45 1 43 14
M  V30 46 1 44 15
M  V30 47 1 45 15
M  V30 48 1 46 17
M  V30 49 1 47 17
M  V30 50 1 18 48 CFG=3
M  V30 51 1 19 49 CFG=1
M  V30 52 1 50 20
M  V30 53 1 51 20
M  V30 54 1 52 20
M  V30 55 1 53 21
M  V30 56 1 54 22
M  V30 57 1 55 23
M  V30 58 1 56 25
M  V30 59 1 27 57 CFG=3
M  V30 END BOND
M  V30 END CTAB
M  END
>  <i_epik_Tot_Q>  (1) 
-1

>  <i_epik_Tot_abs_Q>  (1) 
1

>  <i_i_glide_confnum>  (1) 
96

>  <i_i_glide_lignum>  (1) 
226

>  <i_i_glide_posenum>  (1) 
117

>  <i_i_glide_rotatable_bonds>  (1) 
12

>  <i_lp_mmshare_version>  (1) 
72125

>  <i_m_source_file_index>  (1) 
96

>  <i_f3d_flags>  (1) 
0

>  <num_sample>  (1) 
100

>  <b_lp_Chiralities_Consistent>  (1) 
1

>  <r_epik_Charging_Adjusted_Penalty>  (1) 
1.080755722854454e-05

>  <r_epik_Ionization_Penalty>  (1) 
1.1075885964492435e-05

>  <r_epik_Ionization_Penalty_Charging>  (1) 
1.080755722854454e-05

>  <r_epik_Ionization_Penalty_Neutral>  (1) 
2.6832873594789518e-07

>  <r_epik_State_Penalty>  (1) 
-0

>  <r_glide_ring_energy>  (1) 
0

>  <r_i_docking_score>  (1) 
-7.6232446561429281

>  <r_i_glide_ecoul>  (1) 
-6.3184146134779127

>  <r_i_glide_eff_state_penalty>  (1) 
-0

>  <r_i_glide_einternal>  (1) 
8.4507681368412975

>  <r_i_glide_emodel>  (1) 
-65.630341627240455

>  <r_i_glide_emodel_strain>  (1) 
1.2397433821009329

>  <r_i_glide_energy>  (1) 
-47.599039008225802

>  <r_i_glide_erotb>  (1) 
1.1567431559220434

>  <r_i_glide_esite>  (1) 
-0.012162565484171987

>  <r_i_glide_evdw>  (1) 
-41.280624394747889

>  <r_i_glide_gscore>  (1) 
-7.6232446561429281

>  <r_i_glide_gscore_strain>  (1) 
0

>  <r_i_glide_hbond>  (1) 
-0.34424786414100089

>  <r_i_glide_ligand_efficiency>  (1) 
-0.28234239467196032

>  <r_i_glide_ligand_efficiency_ln>  (1) 
-1.7745656769395688

>  <r_i_glide_ligand_efficiency_sa>  (1) 
-0.84702718401588106

>  <r_i_glide_lipo>  (1) 
-4.2319257292382071

>  <r_i_glide_metal>  (1) 
-0

>  <r_i_glide_rewards>  (1) 
-1.1798582414425109

>  <r_lp_Energy>  (1) 
31.602691999999998

>  <r_lp_tautomer_probability>  (1) 
1

>  <s_epik_cmdline>  (1) 
J2VwaWtfcHl0aG9uJywgJy1waHQnLCAnMS4wJywgJy1waCcsICc3LjQnLCAnLXRuJywgJzgnLCAnLW1hJywgJzUwMCcsICctaW1hZScsICc8aW5maWxlLm1hZT4nLCAnLW9tYWUnLCAnPG91dGZpbGUubWFlPic=

>  <s_epik_input>  (1) 
W0NIMl0xW0NIMl1bQ0hdMVtDQEBIXShbT0hdKVtQQF0oPU8pKFtPSF0pXFtDSF09W0NIXVxbQ0BIXShbT0hdKVtDQEBIXShbQ0gyXVtDSDJdQyg9W0NIMl0pW0NIM10pW0NASF0yW0NIMl1bQ0BIXTJjM1tjSF1bY0hdW2NIXVtjSF1bY0hdMw==

>  <s_glide_docking_method>  (1) 
confgen

>  <s_i_glide_gridfile>  (1) 
gpcr_5ht2c_6bqh_protein_autoprepared_prepared

>  <s_lp_Force_Field>  (1) 
S-OPLS

>  <s_lp_Variant>  (1) 
DiffSBDD_95-1

>  <s_m_source_file>  (1) 
generated_GPCR_5HT2C_ligand_DiffSBDD_2026-06-23_prepared.sdf

>  <GenAI_Model>  (1) 
DiffSBDD

>  <Protein>  (1) 
GPCR_5HT2C

$$$$
DiffSBDD_41
     RDKit          3D

  0  0  0  0  0  0  0  0  0  0999 V3000
M  V30 BEGIN CTAB
M  V30 COUNTS 52 53 0 0 1
M  V30 BEGIN ATOM
M  V30 1 C 38.049840 31.946231 60.258590 0
M  V30 2 C 38.525152 29.230125 58.539397 0 CFG=1
M  V30 3 C 38.401841 28.077303 51.112259 0
M  V30 4 C 38.890179 29.387592 54.659479 0
M  V30 5 C 40.045130 30.871926 53.104580 0
M  V30 6 C 39.650465 30.075227 52.027138 0
M  V30 7 C 39.673005 30.538025 54.415001 0
M  V30 8 O 39.645146 30.652643 63.331990 0
M  V30 9 C 38.880493 29.668184 57.137661 0
M  V30 10 S 36.844243 29.737754 58.996340 0
M  V30 11 N 39.280405 26.937748 50.967847 0 CHG=1
M  V30 12 C 40.000910 32.716830 62.145746 0
M  V30 13 C 39.687078 33.566559 61.067166 0
M  V30 14 C 40.085476 30.451820 50.616640 0
M  V30 15 C 38.734799 27.717485 58.774679 0
M  V30 16 C 39.337423 31.479729 62.286449 0
M  V30 17 C 38.522057 28.992775 56.028749 0
M  V30 18 C 38.715014 33.182002 60.124513 0
M  V30 19 C 41.299393 27.847150 59.073286 0
M  V30 20 C 38.474338 28.594914 53.572404 0
M  V30 21 C 40.119687 27.170322 58.361839 0
M  V30 22 F 40.941333 33.089125 63.047384 0
M  V30 23 C 38.359999 31.096018 61.348209 0
M  V30 24 C 38.851528 28.935507 52.258273 0
M  V30 25 C 36.999830 31.537876 59.226189 0
M  V30 26 H 39.219507 29.745654 59.198198 0
M  V30 27 H 37.386806 27.740581 51.310798 0
M  V30 28 H 38.445139 28.598175 50.167530 0
M  V30 29 H 40.644780 31.737752 52.925194 0
M  V30 30 H 40.000791 31.161721 55.229291 0
M  V30 31 H 39.103497 29.877767 63.414494 0
M  V30 32 H 39.460819 30.570990 57.059268 0
M  V30 33 H 38.995831 26.355147 50.188485 0
M  V30 34 H 40.220822 27.266742 50.810773 0
M  V30 35 H 40.195564 34.513737 60.961873 0
M  V30 36 H 39.245224 30.815195 50.027882 0
M  V30 37 H 40.828691 31.249404 50.640472 0
M  V30 38 H 40.541663 29.606889 50.101052 0
M  V30 39 H 38.575023 27.506115 59.831384 0
M  V30 40 H 37.967341 27.154320 58.243296 0
M  V30 41 H 37.932723 28.093763 56.128115 0
M  V30 42 H 38.478974 33.835611 59.296533 0
M  V30 43 H 42.237968 27.350000 58.825358 0
M  V30 44 H 41.400189 28.892212 58.782504 0
M  V30 45 H 41.181999 27.810455 60.155853 0
M  V30 46 H 37.871203 27.715191 53.748873 0
M  V30 47 H 40.144930 26.099667 58.567705 0
M  V30 48 H 40.260703 27.251921 57.283946 0
M  V30 49 H 37.856204 30.150056 61.458227 0
M  V30 50 H 36.029706 31.935981 59.523932 0
M  V30 51 H 37.245211 31.985681 58.262065 0
M  V30 52 H 39.251214 26.395374 51.818453 0
M  V30 END ATOM
M  V30 BEGIN BOND
M  V30 1 1 6 5
M  V30 2 1 7 4
M  V30 3 2 7 5
M  V30 4 1 9 2
M  V30 5 1 10 2
M  V30 6 1 11 3
M  V30 7 1 13 12
M  V30 8 1 14 6
M  V30 9 1 15 2
M  V30 10 1 16 8
M  V30 11 2 16 12
M  V30 12 1 17 4
M  V30 13 2 17 9
M  V30 14 1 18 1
M  V30 15 2 18 13
M  V30 16 2 20 4
M  V30 17 1 21 15
M  V30 18 1 21 19
M  V30 19 1 22 12
M  V30 20 2 23 1
M  V30 21 1 23 16
M  V30 22 1 24 3
M  V30 23 2 24 6
M  V30 24 1 24 20
M  V30 25 1 25 1
M  V30 26 1 25 10
M  V30 27 1 2 26 CFG=1
M  V30 28 1 27 3
M  V30 29 1 28 3
M  V30 30 1 29 5
M  V30 31 1 30 7
M  V30 32 1 31 8
M  V30 33 1 32 9
M  V30 34 1 33 11
M  V30 35 1 34 11
M  V30 36 1 35 13
M  V30 37 1 36 14
M  V30 38 1 37 14
M  V30 39 1 38 14
M  V30 40 1 39 15
M  V30 41 1 40 15
M  V30 42 1 41 17
M  V30 43 1 42 18
M  V30 44 1 43 19
M  V30 45 1 44 19
M  V30 46 1 45 19
M  V30 47 1 46 20
M  V30 48 1 47 21
M  V30 49 1 48 21
M  V30 50 1 49 23
M  V30 51 1 50 25
M  V30 52 1 51 25
M  V30 53 1 52 11
M  V30 END BOND
M  V30 END CTAB
M  END
>  <i_epik_Tot_Q>  (1) 
1

>  <i_epik_Tot_abs_Q>  (1) 
1

>  <i_i_glide_confnum>  (1) 
93

>  <i_i_glide_lignum>  (1) 
88

>  <i_i_glide_posenum>  (1) 
272

>  <i_i_glide_rotatable_bonds>  (1) 
9

>  <i_lp_mmshare_version>  (1) 
72125

>  <i_m_source_file_index>  (1) 
42

>  <i_f3d_flags>  (1) 
0

>  <num_sample>  (1) 
100

>  <b_lp_Chiralities_Consistent>  (1) 
1

>  <r_epik_Charging_Adjusted_Penalty>  (1) 
0.19353898929150365

>  <r_epik_Ionization_Penalty>  (1) 
0.13216089294123454

>  <r_epik_Ionization_Penalty_Charging>  (1) 
0.06151586109146627

>  <r_epik_Ionization_Penalty_Neutral>  (1) 
0.070645031849768267

>  <r_epik_State_Penalty>  (1) 
0.13202312820003739

>  <r_glide_ring_energy>  (1) 
0

>  <r_i_docking_score>  (1) 
-7.6220806246473654

>  <r_i_glide_ecoul>  (1) 
-6.3680961609418247

>  <r_i_glide_eff_state_penalty>  (1) 
0.13202312820003739

>  <r_i_glide_einternal>  (1) 
5.7668390768174174

>  <r_i_glide_emodel>  (1) 
-58.453407161576919

>  <r_i_glide_emodel_strain>  (1) 
0.8662985934569285

>  <r_i_glide_energy>  (1) 
-38.803853252687887

>  <r_i_glide_erotb>  (1) 
0.88540937349265225

>  <r_i_glide_esite>  (1) 
0

>  <r_i_glide_evdw>  (1) 
-32.435757091746062

>  <r_i_glide_gscore>  (1) 
-7.7541037528474028

>  <r_i_glide_gscore_strain>  (1) 
0

>  <r_i_glide_hbond>  (1) 
-0.29815983027946097

>  <r_i_glide_ligand_efficiency>  (1) 
-0.3048832249858946

>  <r_i_glide_ligand_efficiency_ln>  (1) 
-1.806661523365761

>  <r_i_glide_ligand_efficiency_sa>  (1) 
-0.89148395794229995

>  <r_i_glide_lipo>  (1) 
-3.7428381552234167

>  <r_i_glide_metal>  (1) 
-0

>  <r_i_glide_rewards>  (1) 
-2.0215128621086

>  <r_lp_Energy>  (1) 
18.429102

>  <r_lp_tautomer_probability>  (1) 
0.99999999999736477

>  <s_epik_cmdline>  (1) 
J2VwaWtfcHl0aG9uJywgJy1waHQnLCAnMS4wJywgJy1waCcsICc3LjQnLCAnLXRuJywgJzgnLCAnLW1hJywgJzUwMCcsICctaW1hZScsICc8aW5maWxlLm1hZT4nLCAnLW9tYWUnLCAnPG91dGZpbGUubWFlPic=

>  <s_epik_input>  (1) 
W09IXWMoW2NIXTEpYyhGKVtjSF1bY0hdYzFbQ0gyXVNbQ0BASF0oW0NIMl1bQ0gyXVtDSDNdKS9bQ0hdPVtDSF0vYzJbY0hdW2NIXWMoW0NIM10pYyhbY0hdMilbQ0gyXVtOSDJd

>  <s_glide_docking_method>  (1) 
confgen

>  <s_i_glide_gridfile>  (1) 
gpcr_5ht2c_6bqh_protein_autoprepared_prepared

>  <s_lp_Force_Field>  (1) 
S-OPLS

>  <s_lp_Variant>  (1) 
DiffSBDD_41-1

>  <s_m_source_file>  (1) 
generated_GPCR_5HT2C_ligand_DiffSBDD_2026-06-23_prepared.sdf

>  <GenAI_Model>  (1) 
DiffSBDD

>  <Protein>  (1) 
GPCR_5HT2C

$$$$
DiffSBDD_25
     RDKit          3D

  0  0  0  0  0  0  0  0  0  0999 V3000
M  V30 BEGIN CTAB
M  V30 COUNTS 67 70 0 0 1
M  V30 BEGIN ATOM
M  V30 1 C 39.304435 31.537278 61.987945 0
M  V30 2 C 40.580103 27.442683 56.234639 0
M  V30 3 O 38.188287 31.003802 62.167438 0 CHG=-1
M  V30 4 C 38.568219 33.166914 56.761164 0
M  V30 5 N 37.141049 31.938026 59.913722 0
M  V30 6 C 39.770269 26.268574 55.672484 0
M  V30 7 C 40.543029 33.799880 62.062805 0
M  V30 8 C 39.592065 35.814390 61.439880 0
M  V30 9 C 36.863659 27.739205 53.473420 0
M  V30 10 C 38.397520 26.568352 55.038044 0
M  V30 11 C 38.175358 27.894948 54.253264 0 CFG=2
M  V30 12 C 37.270245 36.079256 60.464326 0
M  V30 13 O 39.045223 29.488856 52.702960 0
M  V30 14 O 35.876578 33.638012 60.854099 0
M  V30 15 N 38.830623 30.822868 56.735815 0
M  V30 16 C 38.254202 33.795445 61.137362 0
M  V30 17 O 40.379999 30.896466 62.062234 0
M  V30 18 C 39.450980 27.244959 52.174979 0
M  V30 19 C 39.370651 33.055175 61.707084 0
M  V30 20 C 37.997391 29.091243 55.229763 0
M  V30 21 C 39.204091 29.589425 56.037927 0 CFG=2
M  V30 22 C 36.967377 33.109982 60.637254 0
M  V30 23 C 38.106218 30.694270 58.008753 0
M  V30 24 N 40.647751 35.132794 61.910644 0
M  V30 25 C 40.173370 28.137734 51.196360 0
M  V30 26 C 38.979116 32.054102 56.167619 0
M  V30 27 N 41.645091 33.167309 62.627105 0
M  V30 28 N 39.245134 28.165609 53.286586 0
M  V30 29 C 39.807084 28.528006 56.985534 0
M  V30 30 C 37.694572 32.011957 58.739910 0
M  V30 31 C 40.142752 30.652458 50.848797 0
M  V30 32 N 37.968574 33.199174 58.011556 0
M  V30 33 C 39.374399 29.411776 51.321159 0 CFG=2
M  V30 34 C 38.389950 35.212681 61.031543 0
M  V30 35 H 41.091386 27.919648 55.414573 0
M  V30 36 H 41.368380 27.045266 56.875984 0
M  V30 37 H 38.680925 34.137563 56.304058 0
M  V30 38 H 40.393240 25.756986 54.938277 0
M  V30 39 H 39.618176 25.540826 56.470152 0
M  V30 40 H 39.716470 36.884542 61.367657 0
M  V30 41 H 36.045167 27.737757 54.167753 0
M  V30 42 H 36.685546 28.537616 52.752403 0
M  V30 43 H 36.820312 26.780401 52.967775 0
M  V30 44 H 38.166924 25.718267 54.393708 0
M  V30 45 H 37.647230 26.518652 55.828318 0
M  V30 46 H 37.625589 37.092610 60.275385 0
M  V30 47 H 36.896805 35.696980 59.514117 0
M  V30 48 H 36.445393 36.149172 61.173328 0
M  V30 49 H 40.027676 26.370504 52.474995 0
M  V30 50 H 38.519889 26.916174 51.717987 0
M  V30 51 H 37.245139 28.838620 55.963516 0
M  V30 52 H 37.587475 29.940181 54.678501 0
M  V30 53 H 39.985662 29.870418 55.330549 0
M  V30 54 H 37.198303 30.116207 57.836649 0
M  V30 55 H 38.711496 30.123009 58.711450 0
M  V30 56 H 40.176098 27.739638 50.181409 0
M  V30 57 H 41.203403 28.312011 51.509220 0
M  V30 58 H 39.448109 32.046895 55.194278 0
M  V30 59 H 41.651653 32.159146 62.758777 0
M  V30 60 H 42.473083 33.676853 62.890538 0
M  V30 61 H 40.512632 29.027111 57.651674 0
M  V30 62 H 39.045728 28.076992 57.622746 0
M  V30 63 H 40.354624 30.596996 49.780778 0
M  V30 64 H 39.588015 31.571162 51.029735 0
M  V30 65 H 41.094977 30.745079 51.367724 0
M  V30 66 H 38.445273 29.305772 50.766032 0
M  V30 67 H 37.720504 34.107644 58.369590 0
M  V30 END ATOM
M  V30 BEGIN BOND
M  V30 1 1 3 1
M  V30 2 1 6 2
M  V30 3 1 10 6
M  V30 4 1 11 9 CFG=3
M  V30 5 1 11 10
M  V30 6 2 17 1
M  V30 7 1 19 1
M  V30 8 2 19 7
M  V30 9 1 19 16
M  V30 10 1 20 11
M  V30 11 1 21 15
M  V30 12 1 21 20
M  V30 13 1 22 5
M  V30 14 2 22 14
M  V30 15 1 22 16
M  V30 16 1 23 15
M  V30 17 1 24 7
M  V30 18 2 24 8
M  V30 19 1 25 18
M  V30 20 2 26 4
M  V30 21 1 26 15
M  V30 22 1 27 7
M  V30 23 1 28 11
M  V30 24 1 28 13
M  V30 25 1 28 18
M  V30 26 1 29 2
M  V30 27 1 29 21
M  V30 28 2 30 5
M  V30 29 1 30 23
M  V30 30 1 32 4
M  V30 31 1 32 30
M  V30 32 1 33 13
M  V30 33 1 33 25
M  V30 34 1 33 31
M  V30 35 1 34 8
M  V30 36 1 34 12
M  V30 37 2 34 16
M  V30 38 1 35 2
M  V30 39 1 36 2
M  V30 40 1 37 4
M  V30 41 1 38 6
M  V30 42 1 39 6
M  V30 43 1 40 8
M  V30 44 1 41 9
M  V30 45 1 42 9
M  V30 46 1 43 9
M  V30 47 1 44 10
M  V30 48 1 45 10
M  V30 49 1 46 12
M  V30 50 1 47 12
M  V30 51 1 48 12
M  V30 52 1 49 18
M  V30 53 1 50 18
M  V30 54 1 51 20
M  V30 55 1 52 20
M  V30 56 1 21 53 CFG=3
M  V30 57 1 54 23
M  V30 58 1 55 23
M  V30 59 1 56 25
M  V30 60 1 57 25
M  V30 61 1 58 26
M  V30 62 1 59 27
M  V30 63 1 60 27
M  V30 64 1 61 29
M  V30 65 1 62 29
M  V30 66 1 63 31
M  V30 67 1 64 31
M  V30 68 1 65 31
M  V30 69 1 33 66 CFG=3
M  V30 70 1 67 32
M  V30 END BOND
M  V30 END CTAB
M  END
>  <i_epik_Tot_Q>  (1) 
-1

>  <i_epik_Tot_abs_Q>  (1) 
1

>  <i_i_glide_confnum>  (1) 
114

>  <i_i_glide_lignum>  (1) 
61

>  <i_i_glide_posenum>  (1) 
66

>  <i_i_glide_rotatable_bonds>  (1) 
5

>  <i_lp_mmshare_version>  (1) 
72125

>  <i_m_source_file_index>  (1) 
26

>  <i_f3d_flags>  (1) 
0

>  <num_sample>  (1) 
100

>  <b_lp_Chiralities_Consistent>  (1) 
1

>  <r_epik_Charging_Adjusted_Penalty>  (1) 
0.31558791334810349

>  <r_epik_Ionization_Penalty>  (1) 
0.22690283062159758

>  <r_epik_Ionization_Penalty_Charging>  (1) 
2.1847890769935955e-05

>  <r_epik_Ionization_Penalty_Neutral>  (1) 
0.22688098273082763

>  <r_epik_State_Penalty>  (1) 
0.31556606545733357

>  <r_glide_ring_energy>  (1) 
0.21864854719495638

>  <r_i_docking_score>  (1) 
-7.6174131144249078

>  <r_i_glide_ecoul>  (1) 
-2.4488800032517082

>  <r_i_glide_eff_state_penalty>  (1) 
0.31556606545733357

>  <r_i_glide_einternal>  (1) 
18.866766547082371

>  <r_i_glide_emodel>  (1) 
-58.314371338731547

>  <r_i_glide_emodel_strain>  (1) 
0.3206817286820467

>  <r_i_glide_energy>  (1) 
-48.366895103093846

>  <r_i_glide_erotb>  (1) 
0.36642180475109298

>  <r_i_glide_esite>  (1) 
-0.19816392798130786

>  <r_i_glide_evdw>  (1) 
-45.918015099842137

>  <r_i_glide_gscore>  (1) 
-7.9329791798822411

>  <r_i_glide_gscore_strain>  (1) 
0

>  <r_i_glide_hbond>  (1) 
-0.053438094639372775

>  <r_i_glide_ligand_efficiency>  (1) 
-0.22404156218896787

>  <r_i_glide_ligand_efficiency_ln>  (1) 
-1.6829002181771346

>  <r_i_glide_ligand_efficiency_sa>  (1) 
-0.72580768884402358

>  <r_i_glide_lipo>  (1) 
-3.8663736448937205

>  <r_i_glide_metal>  (1) 
-0

>  <r_i_glide_rewards>  (1) 
-1.5181925616390699

>  <r_lp_Energy>  (1) 
73.741174999999998

>  <s_epik_Chemistry_Notes>  (1) 
This compound has an imine and may undergo hydrolysis. This compound has a N-S or N-O group and may undergo hydrolysis at high or low pH.

>  <s_epik_cmdline>  (1) 
J2VwaWtfcHl0aG9uJywgJy1waHQnLCAnMS4wJywgJy1waCcsICc3LjQnLCAnLXRuJywgJzgnLCAnLW1hJywgJzUwMCcsICctaW1hZScsICc8aW5maWxlLm1hZT4nLCAnLW9tYWUnLCAnPG91dGZpbGUubWFlPic=

>  <s_epik_input>  (1) 
W09IXUMoPU8pYyhjMVtOSDJdKWMoYyhbY0hdbjEpW0NIM10pQyg9TylbTkhdQyg9TltDSF09W0NIXTIpW0NIMl1OMltDQEhdKFtDSDJdMylbQ0gyXVtDSDJdW0NIMl1bQ0gyXVtDQF0zKFtDSDNdKU40T1tDQEBIXShbQ0gzXSlbQ0gyXVtDSDJdNA==

>  <s_glide_docking_method>  (1) 
confgen

>  <s_i_glide_gridfile>  (1) 
gpcr_5ht2c_6bqh_protein_autoprepared_prepared

>  <s_lp_Force_Field>  (1) 
S-OPLS

>  <s_lp_Variant>  (1) 
DiffSBDD_25-1

>  <s_m_source_file>  (1) 
generated_GPCR_5HT2C_ligand_DiffSBDD_2026-06-23_prepared.sdf

>  <GenAI_Model>  (1) 
DiffSBDD

>  <Protein>  (1) 
GPCR_5HT2C

$$$$
DiffSBDD_47
     RDKit          3D

  0  0  0  0  0  0  0  0  0  0999 V3000
M  V30 BEGIN CTAB
M  V30 COUNTS 51 52 0 0 1
M  V30 BEGIN ATOM
M  V30 1 O 36.845133 35.594548 58.967766 0
M  V30 2 C 36.995285 33.479636 60.178765 0
M  V30 3 C 37.974362 29.999851 59.165959 0
M  V30 4 C 39.278146 28.449241 51.223732 0
M  V30 5 C 39.536756 30.126065 53.476003 0
M  V30 6 C 38.024296 33.850778 61.193053 0
M  V30 7 C 38.769032 28.034154 52.469032 0
M  V30 8 C 39.076168 31.590561 60.819704 0
M  V30 9 C 38.842716 28.799852 59.592897 0
M  V30 10 O 38.213180 35.009786 61.561754 0
M  V30 11 C 38.365784 28.410662 54.950100 0 CFG=2
M  V30 12 C 39.456788 27.618887 55.708826 0
M  V30 13 O 39.936687 26.586219 55.237215 0
M  V30 14 C 39.918459 28.161007 57.072768 0 CFG=1
M  V30 15 C 37.748954 31.043751 60.280656 0 CFG=1
M  V30 16 C 38.862654 32.731492 61.806609 0
M  V30 17 C 39.917827 29.700752 51.103870 0
M  V30 18 C 36.873840 32.190402 59.781853 0
M  V30 19 S 38.845106 27.470737 58.360218 0
M  V30 20 C 38.898781 28.869610 53.599649 0
M  V30 21 C 40.045136 30.537740 52.229714 0
M  V30 22 C 40.462911 30.148432 49.767509 0
M  V30 23 C 41.387171 27.821599 57.375512 0
M  V30 24 O 37.839377 29.484461 55.711501 0
M  V30 25 C 36.112233 34.606499 59.664137 0
M  V30 26 H 36.524760 35.653709 58.068197 0
M  V30 27 H 37.003049 29.630315 58.833249 0
M  V30 28 H 38.422653 30.488797 58.300903 0
M  V30 29 H 39.178489 27.807254 50.360178 0
M  V30 30 H 39.639180 30.769463 54.338191 0
M  V30 31 H 38.282936 27.072985 52.558766 0
M  V30 32 H 39.667756 30.809129 61.295806 0
M  V30 33 H 39.645145 31.968872 59.975462 0
M  V30 34 H 39.873104 29.100283 59.781277 0
M  V30 35 H 38.458324 28.379116 60.521424 0
M  V30 36 H 37.541393 27.722241 54.761361 0
M  V30 37 H 39.822204 29.245501 57.063109 0
M  V30 38 H 37.205518 30.560970 61.093230 0
M  V30 39 H 38.355263 32.367928 62.698853 0
M  V30 40 H 39.822427 33.137567 62.126889 0
M  V30 41 H 36.116131 31.931819 59.054275 0
M  V30 42 H 40.531484 31.496204 52.137063 0
M  V30 43 H 39.859015 30.969737 49.380228 0
M  V30 44 H 41.491427 30.496518 49.869034 0
M  V30 45 H 40.444392 29.337779 49.038071 0
M  V30 46 H 42.044773 28.139828 56.567765 0
M  V30 47 H 41.724516 28.319578 58.284448 0
M  V30 48 H 41.529121 26.749737 57.515735 0
M  V30 49 H 37.359357 29.140801 56.450450 0
M  V30 50 H 35.645138 35.072138 60.526611 0
M  V30 51 H 35.318577 34.217875 59.024279 0
M  V30 END ATOM
M  V30 BEGIN BOND
M  V30 1 1 6 2
M  V30 2 2 7 4
M  V30 3 1 9 3
M  V30 4 2 10 6
M  V30 5 1 12 11
M  V30 6 2 13 12
M  V30 7 1 14 12
M  V30 8 1 15 3
M  V30 9 1 15 8
M  V30 10 1 16 6
M  V30 11 1 16 8
M  V30 12 1 17 4
M  V30 13 2 18 2
M  V30 14 1 18 15
M  V30 15 1 19 9
M  V30 16 1 19 14
M  V30 17 2 20 5
M  V30 18 1 20 7
M  V30 19 1 20 11
M  V30 20 1 21 5
M  V30 21 2 21 17
M  V30 22 1 22 17
M  V30 23 1 23 14
M  V30 24 1 24 11
M  V30 25 1 25 1
M  V30 26 1 25 2
M  V30 27 1 26 1
M  V30 28 1 27 3
M  V30 29 1 28 3
M  V30 30 1 29 4
M  V30 31 1 30 5
M  V30 32 1 31 7
M  V30 33 1 32 8
M  V30 34 1 33 8
M  V30 35 1 34 9
M  V30 36 1 35 9
M  V30 37 1 11 36 CFG=3
M  V30 38 1 14 37 CFG=3
M  V30 39 1 15 38 CFG=1
M  V30 40 1 39 16
M  V30 41 1 40 16
M  V30 42 1 41 18
M  V30 43 1 42 21
M  V30 44 1 43 22
M  V30 45 1 44 22
M  V30 46 1 45 22
M  V30 47 1 46 23
M  V30 48 1 47 23
M  V30 49 1 48 23
M  V30 50 1 49 24
M  V30 51 1 50 25
M  V30 52 1 51 25
M  V30 END BOND
M  V30 END CTAB
M  END
>  <i_epik_Tot_Q>  (1) 
0

>  <i_epik_Tot_abs_Q>  (1) 
0

>  <i_i_glide_confnum>  (1) 
427

>  <i_i_glide_lignum>  (1) 
99

>  <i_i_glide_posenum>  (1) 
382

>  <i_i_glide_rotatable_bonds>  (1) 
10

>  <i_lp_mmshare_version>  (1) 
72125

>  <i_m_source_file_index>  (1) 
48

>  <i_f3d_flags>  (1) 
0

>  <num_sample>  (1) 
100

>  <b_lp_Chiralities_Consistent>  (1) 
1

>  <r_epik_Charging_Adjusted_Penalty>  (1) 
0

>  <r_epik_Ionization_Penalty>  (1) 
1.6598549338111207e-05

>  <r_epik_Ionization_Penalty_Charging>  (1) 
0

>  <r_epik_Ionization_Penalty_Neutral>  (1) 
1.6598549338111207e-05

>  <r_epik_State_Penalty>  (1) 
-0

>  <r_glide_ring_energy>  (1) 
0

>  <r_i_docking_score>  (1) 
-7.6089578563919948

>  <r_i_glide_ecoul>  (1) 
-5.4498652252459507

>  <r_i_glide_eff_state_penalty>  (1) 
-0

>  <r_i_glide_einternal>  (1) 
5.9777288563177784

>  <r_i_glide_emodel>  (1) 
-67.085298226786733

>  <r_i_glide_emodel_strain>  (1) 
0.63477785578750101

>  <r_i_glide_energy>  (1) 
-46.077126340444266

>  <r_i_glide_erotb>  (1) 
1.1691057722696085

>  <r_i_glide_esite>  (1) 
0

>  <r_i_glide_evdw>  (1) 
-40.627261115198316

>  <r_i_glide_gscore>  (1) 
-7.6089578563919948

>  <r_i_glide_gscore_strain>  (1) 
0

>  <r_i_glide_hbond>  (1) 
-0.32000000000000001

>  <r_i_glide_ligand_efficiency>  (1) 
-0.30435831425567977

>  <r_i_glide_ligand_efficiency_ln>  (1) 
-1.8035510340316074

>  <r_i_glide_ligand_efficiency_sa>  (1) 
-0.88994910965617358

>  <r_i_glide_lipo>  (1) 
-3.3810629530197751

>  <r_i_glide_metal>  (1) 
-0

>  <r_i_glide_rewards>  (1) 
-2.2281578360950198

>  <r_lp_Energy>  (1) 
21.981998999999998

>  <r_lp_tautomer_probability>  (1) 
1

>  <s_epik_cmdline>  (1) 
J2VwaWtfcHl0aG9uJywgJy1waHQnLCAnMS4wJywgJy1waCcsICc3LjQnLCAnLXRuJywgJzgnLCAnLW1hJywgJzUwMCcsICctaW1hZScsICc8aW5maWxlLm1hZT4nLCAnLW9tYWUnLCAnPG91dGZpbGUubWFlPic=

>  <s_epik_input>  (1) 
W09IXVtDSDJdQzE9W0NIXVtDQEhdKFtDSDJdW0NIMl1DMT1PKVtDSDJdW0NIMl1TXEMoW0NIM10pPUMoW09IXSlcW0NAQEhdKFtPSF0pYyhbY0hdW2NIXTIpW2NIXVtjSF1jMltDSDNd

>  <s_glide_docking_method>  (1) 
confgen

>  <s_i_glide_gridfile>  (1) 
gpcr_5ht2c_6bqh_protein_autoprepared_prepared

>  <s_lp_Force_Field>  (1) 
S-OPLS

>  <s_lp_Variant>  (1) 
DiffSBDD_47-1

>  <s_m_source_file>  (1) 
generated_GPCR_5HT2C_ligand_DiffSBDD_2026-06-23_prepared.sdf

>  <GenAI_Model>  (1) 
DiffSBDD

>  <Protein>  (1) 
GPCR_5HT2C

$$$$
DiffSBDD_75
     RDKit          3D

  0  0  0  0  0  0  0  0  0  0999 V3000
M  V30 BEGIN CTAB
M  V30 COUNTS 77 78 0 0 1
M  V30 BEGIN ATOM
M  V30 1 C 40.229069 29.624813 62.025530 0
M  V30 2 C 37.363640 30.992016 60.137317 0
M  V30 3 O 38.947917 30.432048 57.473490 0
M  V30 4 C 40.536962 29.756187 65.122533 0
M  V30 5 C 39.137922 29.887668 54.748003 0 CFG=1
M  V30 6 C 39.147453 35.398950 61.088275 0
M  V30 7 C 39.219824 29.068891 57.202566 0 CFG=2
M  V30 8 C 39.644969 36.520999 61.767756 0
M  V30 9 O 36.793039 30.328872 54.567803 0
M  V30 10 C 39.556195 27.391811 55.205186 0 CFG=2
M  V30 11 O 36.845142 38.874623 61.367757 0
M  V30 12 S 39.245110 28.292071 59.866380 0
M  V30 13 C 41.122893 29.673378 66.541529 0
M  V30 14 C 37.592743 37.735044 61.272104 0
M  V30 15 C 40.164748 28.620356 58.337096 0
M  V30 16 C 39.993220 34.163309 60.982816 0
M  V30 17 C 37.864347 35.438452 60.501881 0
M  V30 18 O 37.861338 25.789544 54.447259 0
M  V30 19 C 40.218069 26.282701 56.037256 0
M  V30 20 C 39.766522 28.856865 55.744878 0 CFG=1
M  V30 21 O 40.045141 29.337755 67.367797 0
M  V30 22 O 38.160416 30.456017 61.180673 0
M  V30 23 O 41.831082 32.137954 61.542444 0
M  V30 24 C 41.937740 31.784690 64.732623 0
M  V30 25 N 41.268629 30.590306 64.126819 0 CFG=2 CHG=1
M  V30 26 C 40.770574 32.078329 62.159822 0
M  V30 27 C 38.875022 37.684851 61.852638 0
M  V30 28 C 39.791235 33.243490 62.180392 0
M  V30 29 C 40.351473 30.850282 62.962473 0 CFG=1
M  V30 30 C 37.086392 36.609656 60.593556 0
M  V30 31 C 37.433663 28.085846 53.981089 0
M  V30 32 C 39.386450 29.866542 60.757894 0 CFG=1
M  V30 33 C 39.889095 30.137516 53.434024 0
M  V30 34 C 38.057418 27.087763 54.962739 0 CFG=2
M  V30 35 C 37.697017 29.515669 54.445722 0
M  V30 36 H 41.219669 29.272319 61.735501 0
M  V30 37 H 39.767740 28.799387 62.568107 0
M  V30 38 H 36.460575 31.432277 60.559824 0
M  V30 39 H 37.894903 31.777118 59.598508 0
M  V30 40 H 37.056255 30.217838 59.434111 0
M  V30 41 H 38.179785 30.699769 56.984021 0
M  V30 42 H 39.520570 30.147150 65.208834 0
M  V30 43 H 40.445150 28.741916 64.734025 0
M  V30 44 H 38.268897 28.552318 57.318295 0
M  V30 45 H 40.628003 36.491675 62.216411 0
M  V30 46 H 37.865285 27.963411 52.987386 0
M  V30 47 H 40.045121 27.337441 54.234484 0
M  V30 48 H 36.186836 38.972705 60.690074 0
M  V30 49 H 41.935309 28.949552 66.620331 0
M  V30 50 H 41.468842 30.623341 66.941897 0
M  V30 51 H 40.966972 29.337714 58.509579 0
M  V30 52 H 40.675197 27.694092 58.103420 0
M  V30 53 H 39.793705 33.645001 60.043484 0
M  V30 54 H 41.029925 34.500991 60.967758 0
M  V30 55 H 37.480581 34.575099 59.978148 0
M  V30 56 H 38.220048 25.748369 53.573715 0
M  V30 57 H 39.671879 26.090981 56.960668 0
M  V30 58 H 40.247927 25.341536 55.486299 0
M  V30 59 H 41.245163 26.538353 56.286160 0
M  V30 60 H 40.838551 29.055416 55.767717 0
M  V30 61 H 40.086367 28.426723 67.635842 0
M  V30 62 H 41.215385 32.437221 65.225204 0
M  V30 63 H 42.694651 31.485966 65.456179 0
M  V30 64 H 42.506672 32.380655 64.021847 0
M  V30 65 H 39.272197 38.537747 62.360201 0
M  V30 66 H 39.937674 33.795353 63.109009 0
M  V30 67 H 38.767540 32.868446 62.191086 0
M  V30 68 H 39.357734 31.067801 63.355794 0
M  V30 69 H 36.104664 36.643255 60.143325 0
M  V30 70 H 36.372664 27.892667 53.883874 0
M  V30 71 H 39.112582 30.872135 55.211428 0
M  V30 72 H 39.898871 30.571380 60.105872 0
M  V30 73 H 39.350809 30.847676 52.805904 0
M  V30 74 H 40.845179 30.596444 53.647426 0
M  V30 75 H 40.045131 29.236585 52.842855 0
M  V30 76 H 37.514107 27.107794 55.905720 0
M  V30 77 H 42.027269 30.025640 63.770282 0
M  V30 END ATOM
M  V30 BEGIN BOND
M  V30 1 1 7 3
M  V30 2 1 8 6
M  V30 3 1 13 4
M  V30 4 1 14 11
M  V30 5 1 15 7
M  V30 6 1 15 12
M  V30 7 1 16 6
M  V30 8 2 17 6
M  V30 9 1 19 10
M  V30 10 1 20 5
M  V30 11 1 20 7
M  V30 12 1 20 10
M  V30 13 1 21 13
M  V30 14 1 22 2
M  V30 15 1 25 4
M  V30 16 1 25 24
M  V30 17 2 26 23
M  V30 18 2 27 8
M  V30 19 1 27 14
M  V30 20 1 28 16
M  V30 21 1 28 26
M  V30 22 1 29 1
M  V30 23 1 29 25
M  V30 24 1 29 26
M  V30 25 2 30 14
M  V30 26 1 30 17
M  V30 27 1 32 1
M  V30 28 1 32 12
M  V30 29 1 32 22
M  V30 30 1 33 5
M  V30 31 1 34 10
M  V30 32 1 34 18
M  V30 33 1 34 31
M  V30 34 1 35 5
M  V30 35 2 35 9
M  V30 36 1 35 31
M  V30 37 1 36 1
M  V30 38 1 37 1
M  V30 39 1 38 2
M  V30 40 1 39 2
M  V30 41 1 40 2
M  V30 42 1 41 3
M  V30 43 1 42 4
M  V30 44 1 43 4
M  V30 45 1 7 44 CFG=3
M  V30 46 1 45 8
M  V30 47 1 46 31
M  V30 48 1 10 47 CFG=3
M  V30 49 1 48 11
M  V30 50 1 49 13
M  V30 51 1 50 13
M  V30 52 1 51 15
M  V30 53 1 52 15
M  V30 54 1 53 16
M  V30 55 1 54 16
M  V30 56 1 55 17
M  V30 57 1 56 18
M  V30 58 1 57 19
M  V30 59 1 58 19
M  V30 60 1 59 19
M  V30 61 1 20 60 CFG=1
M  V30 62 1 61 21
M  V30 63 1 62 24
M  V30 64 1 63 24
M  V30 65 1 64 24
M  V30 66 1 65 27
M  V30 67 1 66 28
M  V30 68 1 67 28
M  V30 69 1 29 68 CFG=1
M  V30 70 1 69 30
M  V30 71 1 70 31
M  V30 72 1 5 71 CFG=1
M  V30 73 1 32 72 CFG=3
M  V30 74 1 73 33
M  V30 75 1 74 33
M  V30 76 1 75 33
M  V30 77 1 34 76 CFG=1
M  V30 78 1 25 77 CFG=3
M  V30 END BOND
M  V30 END CTAB
M  END
>  <i_epik_Tot_Q>  (1) 
1

>  <i_epik_Tot_abs_Q>  (1) 
1

>  <i_i_glide_confnum>  (1) 
5729

>  <i_i_glide_lignum>  (1) 
164

>  <i_i_glide_posenum>  (1) 
138

>  <i_i_glide_rotatable_bonds>  (1) 
18

>  <i_lp_mmshare_version>  (1) 
72125

>  <i_m_source_file_index>  (1) 
76

>  <i_f3d_flags>  (1) 
0

>  <num_sample>  (1) 
100

>  <b_lp_Chiralities_Consistent>  (1) 
1

>  <r_epik_Charging_Adjusted_Penalty>  (1) 
0.52789471212939676

>  <r_epik_Ionization_Penalty>  (1) 
0.26592108790513191

>  <r_epik_Ionization_Penalty_Charging>  (1) 
0.26394735606469838

>  <r_epik_Ionization_Penalty_Neutral>  (1) 
0.0019737318404335234

>  <r_epik_State_Penalty>  (1) 
0.26394735606469838

>  <r_glide_ring_energy>  (1) 
0

>  <r_i_docking_score>  (1) 
-7.6012514086768519

>  <r_i_glide_ecoul>  (1) 
-8.8568911153482102

>  <r_i_glide_eff_state_penalty>  (1) 
0.26394735606469838

>  <r_i_glide_einternal>  (1) 
11.425336915828263

>  <r_i_glide_emodel>  (1) 
-70.192874463549686

>  <r_i_glide_emodel_strain>  (1) 
4.3723701242965447

>  <r_i_glide_energy>  (1) 
-50.87561565397759

>  <r_i_glide_erotb>  (1) 
1.0139394581015995

>  <r_i_glide_esite>  (1) 
0

>  <r_i_glide_evdw>  (1) 
-42.018724538629378

>  <r_i_glide_gscore>  (1) 
-7.8651987647415504

>  <r_i_glide_gscore_strain>  (1) 
0.093092531074136176

>  <r_i_glide_hbond>  (1) 
-0.52259515223102215

>  <r_i_glide_ligand_efficiency>  (1) 
-0.21717861167648148

>  <r_i_glide_ligand_efficiency_ln>  (1) 
-1.6686433848902322

>  <r_i_glide_ligand_efficiency_sa>  (1) 
-0.71040563994846895

>  <r_i_glide_lipo>  (1) 
-4.1475854051280647

>  <r_i_glide_metal>  (1) 
-0

>  <r_i_glide_rewards>  (1) 
-0.87258030232450023

>  <r_lp_Energy>  (1) 
29.106935999999997

>  <r_lp_tautomer_probability>  (1) 
0.99989998499911525

>  <s_epik_Chemistry_Notes>  (1) 
This compound contains an acetal/aminal-like group ( X-CH(R)-Y where X, Y are N, S, or O) that may be acid/base labile, releasing an aldehyde.

>  <s_epik_cmdline>  (1) 
J2VwaWtfcHl0aG9uJywgJy1waHQnLCAnMS4wJywgJy1waCcsICc3LjQnLCAnLXRuJywgJzgnLCAnLW1hJywgJzUwMCcsICctaW1hZScsICc8aW5maWxlLm1hZT4nLCAnLW9tYWUnLCAnPG91dGZpbGUubWFlPic=

>  <s_epik_input>  (1) 
W2NIXTFbY0hdYyhbT0hdKVtjSF1bY0hdYzFbQ0gyXVtDSDJdQyg9TylbQ0BIXShOKFtDSDNdKVtDSDJdW0NIMl1bT0hdKVtDSDJdW0NASF0oT1tDSDNdKVNbQ0gyXVtDQEBIXShbT0hdKVtDQEhdMltDQEBIXShbQ0gzXSlbQ0BIXShbT0hdKVtDSDJdQyhbT0hdKT1DMltDSDNd

>  <s_glide_docking_method>  (1) 
confgen

>  <s_i_glide_gridfile>  (1) 
gpcr_5ht2c_6bqh_protein_autoprepared_prepared

>  <s_lp_Force_Field>  (1) 
S-OPLS

>  <s_lp_Variant>  (1) 
DiffSBDD_75-1

>  <s_m_source_file>  (1) 
generated_GPCR_5HT2C_ligand_DiffSBDD_2026-06-23_prepared.sdf

>  <GenAI_Model>  (1) 
DiffSBDD

>  <Protein>  (1) 
GPCR_5HT2C

$$$$
DiffSBDD_74
     RDKit          3D

  0  0  0  0  0  0  0  0  0  0999 V3000
M  V30 BEGIN CTAB
M  V30 COUNTS 71 73 0 0 1
M  V30 BEGIN ATOM
M  V30 1 C 34.840687 33.797014 60.402357 0
M  V30 2 C 38.361903 33.336773 59.066524 0
M  V30 3 C 38.989065 35.693460 62.031207 0
M  V30 4 F 38.361794 24.137743 55.753136 0
M  V30 5 C 38.975683 34.131658 59.964172 0
M  V30 6 C 38.386648 25.727269 57.362865 0
M  V30 7 C 39.749893 25.681202 57.708203 0
M  V30 8 C 37.568978 29.396158 57.924867 0
M  V30 9 O 39.288848 28.006870 55.181149 0
M  V30 10 F 41.138651 34.642867 61.935972 0
M  V30 11 F 40.738200 35.967796 63.600228 0
M  V30 12 C 38.045188 34.015096 56.141127 0
M  V30 13 F 37.697420 23.562207 57.767779 0
M  V30 14 C 33.861666 32.979128 59.569293 0
M  V30 15 C 37.025977 34.292483 61.367722 0
M  V30 16 N 37.644603 29.995438 56.562093 0 CHG=1
M  V30 17 C 39.561409 29.371157 54.971973 0 CFG=1
M  V30 18 C 39.107225 29.663562 53.540075 0
M  V30 19 C 36.898585 32.966079 59.183295 0
M  V30 20 C 38.321231 28.089111 57.909675 0
M  V30 21 N 38.355786 32.676901 56.621688 0
M  V30 22 F 36.445085 24.749110 56.470721 0
M  V30 23 C 39.040694 31.827937 55.629677 0 CFG=1
M  V30 24 C 36.261422 33.274768 60.544300 0 CFG=2
M  V30 25 C 39.008866 30.341151 56.074993 0 CFG=1
M  V30 26 C 38.473756 31.930362 54.199385 0
M  V30 27 C 40.398467 26.840969 58.168333 0
M  V30 28 F 39.422957 36.744301 61.345268 0
M  V30 29 F 38.150517 36.149074 62.964186 0
M  V30 30 O 36.179713 32.072195 61.287341 0
M  V30 31 C 39.093363 32.746676 57.883037 0
M  V30 32 C 37.697347 24.503867 56.838040 0
M  V30 33 C 37.676318 26.920137 57.476295 0
M  V30 34 C 38.288413 34.682610 61.114341 0
M  V30 35 C 40.194159 35.077427 62.771191 0
M  V30 36 C 39.684600 28.046567 58.275189 0
M  V30 37 C 39.373535 31.127591 53.257593 0
M  V30 38 H 34.445122 33.903722 61.410211 0
M  V30 39 H 34.890475 34.786670 59.947093 0
M  V30 40 H 40.018571 34.369894 59.819252 0
M  V30 41 H 40.298339 24.756757 57.611887 0
M  V30 42 H 37.980545 30.052782 58.687433 0
M  V30 43 H 36.521650 29.227750 58.182342 0
M  V30 44 H 39.710929 27.722933 55.980637 0
M  V30 45 H 37.261786 33.980707 55.387437 0
M  V30 46 H 37.672657 34.629078 56.955736 0
M  V30 47 H 38.905404 34.508042 55.697513 0
M  V30 48 H 32.844976 33.326589 59.759129 0
M  V30 49 H 34.045061 33.137963 58.516496 0
M  V30 50 H 33.932213 31.911623 59.767609 0
M  V30 51 H 36.498861 34.709209 62.200009 0
M  V30 52 H 37.101816 30.860942 56.579355 0
M  V30 53 H 40.643224 29.487784 54.995699 0
M  V30 54 H 38.048567 29.430447 53.408701 0
M  V30 55 H 39.645071 29.036826 52.828832 0
M  V30 56 H 36.749309 31.921240 58.921129 0
M  V30 57 H 36.387266 33.533851 58.407097 0
M  V30 58 H 40.082014 32.150253 55.586619 0
M  V30 59 H 39.706680 30.256361 56.901075 0
M  V30 60 H 37.438566 31.585320 54.167885 0
M  V30 61 H 38.436836 32.937735 53.838117 0
M  V30 62 H 41.446325 26.806317 58.431591 0
M  V30 63 H 35.480571 31.560160 60.910236 0
M  V30 64 H 40.045077 33.257799 57.739286 0
M  V30 65 H 39.245140 31.735509 58.234096 0
M  V30 66 H 36.640588 26.937822 57.205415 0
M  V30 67 H 39.889581 34.219813 63.368681 0
M  V30 68 H 40.186045 28.941726 58.614274 0
M  V30 69 H 39.245156 31.386038 52.210703 0
M  V30 70 H 40.427326 31.337743 53.446215 0
M  V30 71 H 37.220508 29.369434 55.894242 0
M  V30 END ATOM
M  V30 BEGIN BOND
M  V30 1 2 5 2
M  V30 2 2 7 6
M  V30 3 1 14 1
M  V30 4 1 16 8
M  V30 5 1 17 9
M  V30 6 1 18 17
M  V30 7 1 19 2
M  V30 8 1 20 8
M  V30 9 1 21 12
M  V30 10 1 23 21
M  V30 11 1 24 1
M  V30 12 1 24 15
M  V30 13 1 24 19
M  V30 14 1 25 16
M  V30 15 1 25 17
M  V30 16 1 25 23
M  V30 17 1 26 23
M  V30 18 1 27 7
M  V30 19 1 28 3
M  V30 20 1 29 3
M  V30 21 1 24 30 CFG=1
M  V30 22 1 31 2
M  V30 23 1 31 21
M  V30 24 1 32 4
M  V30 25 1 32 6
M  V30 26 1 32 13
M  V30 27 1 32 22
M  V30 28 1 33 6
M  V30 29 2 33 20
M  V30 30 1 34 3
M  V30 31 1 34 5
M  V30 32 2 34 15
M  V30 33 1 35 3
M  V30 34 1 35 10
M  V30 35 1 35 11
M  V30 36 1 36 20
M  V30 37 2 36 27
M  V30 38 1 37 18
M  V30 39 1 37 26
M  V30 40 1 38 1
M  V30 41 1 39 1
M  V30 42 1 40 5
M  V30 43 1 41 7
M  V30 44 1 42 8
M  V30 45 1 43 8
M  V30 46 1 44 9
M  V30 47 1 45 12
M  V30 48 1 46 12
M  V30 49 1 47 12
M  V30 50 1 48 14
M  V30 51 1 49 14
M  V30 52 1 50 14
M  V30 53 1 51 15
M  V30 54 1 52 16
M  V30 55 1 17 53 CFG=3
M  V30 56 1 54 18
M  V30 57 1 55 18
M  V30 58 1 56 19
M  V30 59 1 57 19
M  V30 60 1 23 58 CFG=3
M  V30 61 1 25 59 CFG=1
M  V30 62 1 60 26
M  V30 63 1 61 26
M  V30 64 1 62 27
M  V30 65 1 63 30
M  V30 66 1 64 31
M  V30 67 1 65 31
M  V30 68 1 66 33
M  V30 69 1 67 35
M  V30 70 1 68 36
M  V30 71 1 69 37
M  V30 72 1 70 37
M  V30 73 1 71 16
M  V30 END BOND
M  V30 END CTAB
M  END
>  <i_epik_Tot_Q>  (1) 
1

>  <i_epik_Tot_abs_Q>  (1) 
1

>  <i_i_glide_confnum>  (1) 
1185

>  <i_i_glide_lignum>  (1) 
162

>  <i_i_glide_posenum>  (1) 
38

>  <i_i_glide_rotatable_bonds>  (1) 
12

>  <i_lp_mmshare_version>  (1) 
72125

>  <i_m_source_file_index>  (1) 
75

>  <i_f3d_flags>  (1) 
0

>  <num_sample>  (1) 
100

>  <b_lp_Chiralities_Consistent>  (1) 
1

>  <r_epik_Charging_Adjusted_Penalty>  (1) 
0.26612613870957635

>  <r_epik_Ionization_Penalty>  (1) 
0.1330997432788415

>  <r_epik_Ionization_Penalty_Charging>  (1) 
0.13306306935478829

>  <r_epik_Ionization_Penalty_Neutral>  (1) 
3.6673924053210746e-05

>  <r_epik_State_Penalty>  (1) 
0.13306306935478809

>  <r_glide_ring_energy>  (1) 
0.44290784878134554

>  <r_i_docking_score>  (1) 
-7.5789556586686952

>  <r_i_glide_ecoul>  (1) 
-3.2544395344344093

>  <r_i_glide_eff_state_penalty>  (1) 
0.13306306935478809

>  <r_i_glide_einternal>  (1) 
6.6189453651280523

>  <r_i_glide_emodel>  (1) 
-50.797179111855058

>  <r_i_glide_emodel_strain>  (1) 
2.625851579058498

>  <r_i_glide_energy>  (1) 
-33.062007836074905

>  <r_i_glide_erotb>  (1) 
0.49698158257681319

>  <r_i_glide_esite>  (1) 
-0.096562907330230902

>  <r_i_glide_evdw>  (1) 
-29.807568301640497

>  <r_i_glide_gscore>  (1) 
-7.7120187280234838

>  <r_i_glide_gscore_strain>  (1) 
0

>  <r_i_glide_hbond>  (1) 
-0.37648657274677544

>  <r_i_glide_ligand_efficiency>  (1) 
-0.20483663942347824

>  <r_i_glide_ligand_efficiency_ln>  (1) 
-1.6436978064357668

>  <r_i_glide_ligand_efficiency_sa>  (1) 
-0.68256112590463724

>  <r_i_glide_lipo>  (1) 
-3.5584053122497061

>  <r_i_glide_metal>  (1) 
-0

>  <r_i_glide_rewards>  (1) 
-2.1990011730263981

>  <r_lp_Energy>  (1) 
43.081995999999997

>  <s_epik_cmdline>  (1) 
J2VwaWtfcHl0aG9uJywgJy1waHQnLCAnMS4wJywgJy1waCcsICc3LjQnLCAnLXRuJywgJzgnLCAnLW1hJywgJzUwMCcsICctaW1hZScsICc8aW5maWxlLm1hZT4nLCAnLW9tYWUnLCAnPG91dGZpbGUubWFlPic=

>  <s_epik_input>  (1) 
W0NIM11bQ0gyXVtDQF0xKFtPSF0pW0NIXT1DKEMoRikoRilbQ0hdKEYpRilbQ0hdPUMoW0NIMl0xKVtDSDJdTihbQ0gzXSlbQ0BIXShbQ0gyXVtDSDJdW0NIMl1bQ0BASF0yW09IXSlbQ0BIXTJbTkhdW0NIMl1jKFtjSF0zKVtjSF1bY0hdW2NIXWMzQyhGKShGKUY=

>  <s_glide_docking_method>  (1) 
confgen

>  <s_i_glide_gridfile>  (1) 
gpcr_5ht2c_6bqh_protein_autoprepared_prepared

>  <s_lp_Force_Field>  (1) 
S-OPLS

>  <s_lp_Variant>  (1) 
DiffSBDD_74-1

>  <s_m_source_file>  (1) 
generated_GPCR_5HT2C_ligand_DiffSBDD_2026-06-23_prepared.sdf

>  <GenAI_Model>  (1) 
DiffSBDD

>  <Protein>  (1) 
GPCR_5HT2C

$$$$
DiffSBDD_84
     RDKit          3D

  0  0  0  0  0  0  0  0  0  0999 V3000
M  V30 BEGIN CTAB
M  V30 COUNTS 77 81 0 0 1
M  V30 BEGIN ATOM
M  V30 1 C 42.151531 28.522238 66.695615 0
M  V30 2 C 39.259840 25.999401 57.812161 0
M  V30 3 C 40.481563 29.087878 59.333865 0
M  V30 4 C 41.218650 34.799671 63.167976 0
M  V30 5 S 40.235936 31.893126 63.440924 0
M  V30 6 C 37.179885 24.338373 54.679778 0
M  V30 7 C 37.974466 26.373286 55.640375 0
M  V30 8 C 37.178372 32.488041 60.372666 0
M  V30 9 O 41.645131 36.137737 63.247583 0
M  V30 10 C 38.136970 28.475008 59.099841 0
M  V30 11 C 38.443369 27.811888 55.564667 0
M  V30 12 C 37.932326 25.780564 57.060872 0 CFG=1
M  V30 13 C 38.783519 30.642431 60.204042 0
M  V30 14 N 40.845132 27.847554 66.567729 0 CHG=1
M  V30 15 C 41.980253 33.887606 64.164336 0
M  V30 16 C 42.636565 29.189496 65.388491 0
M  V30 17 N 37.631771 25.720725 54.600950 0
M  V30 18 C 38.472126 31.971615 60.577647 0
M  V30 19 N 41.100074 29.484604 62.718271 0
M  V30 20 N 39.536354 28.358127 58.715496 0
M  V30 21 C 36.557295 23.966690 56.023790 0
M  V30 22 C 37.791279 29.867236 59.570245 0
M  V30 23 N 41.806538 32.500181 63.720250 0
M  V30 24 C 41.512445 34.068633 65.629255 0
M  V30 25 C 39.889111 27.393757 57.652289 0 CFG=2
M  V30 26 O 41.645135 29.033884 58.967761 0
M  V30 27 C 36.495964 30.383721 59.367763 0
M  V30 28 O 41.804465 35.371651 66.079250 0
M  V30 29 C 37.581981 24.293542 57.099791 0
M  V30 30 C 40.699211 30.225404 63.930347 0 CFG=1
M  V30 31 C 39.812676 27.986910 56.230209 0
M  V30 32 N 40.042279 29.254093 61.783652 0
M  V30 33 N 42.659843 31.545244 64.447548 0 CHG=1
M  V30 34 C 36.189294 31.691340 59.775234 0
M  V30 35 C 40.107913 30.014556 60.521860 0 CFG=1
M  V30 36 C 41.824368 30.439541 64.964715 0 CFG=2
M  V30 37 H 42.881225 27.775723 67.013135 0
M  V30 38 H 42.096934 29.256859 67.500125 0
M  V30 39 H 39.988482 25.286025 57.420966 0
M  V30 40 H 39.150264 25.744138 58.866523 0
M  V30 41 H 40.142944 34.773034 63.346398 0
M  V30 42 H 41.380451 34.474907 62.138794 0
M  V30 43 H 36.445129 24.151722 53.893804 0
M  V30 44 H 38.031764 23.680757 54.519687 0
M  V30 45 H 36.947801 33.500036 60.671192 0
M  V30 46 H 41.645072 36.419153 64.157779 0
M  V30 47 H 37.462524 28.209856 58.292940 0
M  V30 48 H 38.045137 27.785456 59.935931 0
M  V30 49 H 37.701221 28.454258 56.036903 0
M  V30 50 H 40.567316 27.479028 67.472708 0
M  V30 51 H 40.128663 28.493104 66.268167 0
M  V30 52 H 43.038519 34.137764 64.105675 0
M  V30 53 H 42.697041 28.457308 64.582818 0
M  V30 54 H 43.669248 29.494513 65.564840 0
M  V30 55 H 39.227575 32.594239 61.028967 0
M  V30 56 H 41.504374 28.582171 62.965099 0
M  V30 57 H 35.645147 24.537873 56.167759 0
M  V30 58 H 36.288294 22.910152 56.045015 0
M  V30 59 H 40.445156 33.884317 65.728468 0
M  V30 60 H 42.016552 33.374134 66.300854 0
M  V30 61 H 40.947633 27.155705 57.774029 0
M  V30 62 H 35.740196 29.779253 58.886848 0
M  V30 63 H 41.419171 35.503835 66.933642 0
M  V30 64 H 37.243249 23.999782 58.092647 0
M  V30 65 H 38.494040 23.737752 56.903859 0
M  V30 66 H 39.841273 29.737690 64.386805 0
M  V30 67 H 40.102982 29.038128 56.231333 0
M  V30 68 H 40.551984 27.477268 55.610570 0
M  V30 69 H 39.137819 29.380167 62.236290 0
M  V30 70 H 43.320575 31.195359 63.767000 0
M  V30 71 H 35.197805 32.089318 59.613102 0
M  V30 72 H 40.868120 30.793661 60.598915 0
M  V30 73 H 41.360578 30.855841 65.860376 0
M  V30 74 H 43.139190 32.048285 65.181359 0
M  V30 75 H 37.119544 26.284339 57.577997 0
M  V30 76 H 38.497367 28.126701 54.521703 0
M  V30 77 H 40.908721 27.083728 65.909589 0
M  V30 END ATOM
M  V30 BEGIN BOND
M  V30 1 1 9 4
M  V30 2 1 11 7
M  V30 3 1 12 2
M  V30 4 1 12 7
M  V30 5 1 14 1
M  V30 6 1 15 4
M  V30 7 1 16 1
M  V30 8 1 17 6
M  V30 9 2 17 7
M  V30 10 1 18 8
M  V30 11 2 18 13
M  V30 12 1 20 3
M  V30 13 1 20 10
M  V30 14 1 21 6
M  V30 15 1 22 10
M  V30 16 1 22 13
M  V30 17 1 23 5
M  V30 18 1 23 15
M  V30 19 1 24 15
M  V30 20 1 25 2
M  V30 21 1 25 20
M  V30 22 2 26 3
M  V30 23 2 27 22
M  V30 24 1 28 24
M  V30 25 1 29 12
M  V30 26 1 29 21
M  V30 27 1 30 5
M  V30 28 1 30 19
M  V30 29 1 31 11
M  V30 30 1 31 25
M  V30 31 1 32 19
M  V30 32 1 33 23
M  V30 33 2 34 8
M  V30 34 1 34 27
M  V30 35 1 35 3
M  V30 36 1 35 13
M  V30 37 1 35 32
M  V30 38 1 36 16
M  V30 39 1 36 30
M  V30 40 1 36 33
M  V30 41 1 37 1
M  V30 42 1 38 1
M  V30 43 1 39 2
M  V30 44 1 40 2
M  V30 45 1 41 4
M  V30 46 1 42 4
M  V30 47 1 43 6
M  V30 48 1 44 6
M  V30 49 1 45 8
M  V30 50 1 46 9
M  V30 51 1 47 10
M  V30 52 1 48 10
M  V30 53 1 49 11
M  V30 54 1 50 14
M  V30 55 1 51 14
M  V30 56 1 52 15
M  V30 57 1 53 16
M  V30 58 1 54 16
M  V30 59 1 55 18
M  V30 60 1 56 19
M  V30 61 1 57 21
M  V30 62 1 58 21
M  V30 63 1 59 24
M  V30 64 1 60 24
M  V30 65 1 25 61 CFG=1
M  V30 66 1 62 27
M  V30 67 1 63 28
M  V30 68 1 64 29
M  V30 69 1 65 29
M  V30 70 1 30 66 CFG=1
M  V30 71 1 67 31
M  V30 72 1 68 31
M  V30 73 1 69 32
M  V30 74 1 70 33
M  V30 75 1 71 34
M  V30 76 1 35 72 CFG=1
M  V30 77 1 36 73 CFG=1
M  V30 78 1 74 33
M  V30 79 1 12 75 CFG=1
M  V30 80 1 76 11
M  V30 81 1 77 14
M  V30 END BOND
M  V30 END CTAB
M  END
>  <i_epik_Tot_Q>  (1) 
2

>  <i_epik_Tot_abs_Q>  (1) 
2

>  <i_i_glide_confnum>  (1) 
1799

>  <i_i_glide_lignum>  (1) 
199

>  <i_i_glide_posenum>  (1) 
30

>  <i_i_glide_rotatable_bonds>  (1) 
11

>  <i_lp_mmshare_version>  (1) 
72125

>  <i_m_source_file_index>  (1) 
85

>  <i_f3d_flags>  (1) 
0

>  <num_sample>  (1) 
100

>  <b_lp_Chiralities_Consistent>  (1) 
1

>  <r_epik_Charging_Adjusted_Penalty>  (1) 
0.034284474231679775

>  <r_epik_Ionization_Penalty>  (1) 
0.42650113434003467

>  <r_epik_Ionization_Penalty_Charging>  (1) 
0.012847136256187231

>  <r_epik_Ionization_Penalty_Neutral>  (1) 
0.41365399808384745

>  <r_epik_State_Penalty>  (1) 
0.021437337975492542

>  <r_glide_ring_energy>  (1) 
0.20284343658850779

>  <r_i_docking_score>  (1) 
-7.568565672004282

>  <r_i_glide_ecoul>  (1) 
-6.5017563524534969

>  <r_i_glide_eff_state_penalty>  (1) 
0.021437337975492542

>  <r_i_glide_einternal>  (1) 
12.492107459300112

>  <r_i_glide_emodel>  (1) 
-69.656150084864805

>  <r_i_glide_emodel_strain>  (1) 
0.67080404121101367

>  <r_i_glide_energy>  (1) 
-50.902935156161107

>  <r_i_glide_erotb>  (1) 
0.60855438394346106

>  <r_i_glide_esite>  (1) 
-0.059728078178975456

>  <r_i_glide_evdw>  (1) 
-44.401178803707609

>  <r_i_glide_gscore>  (1) 
-7.5900030099797746

>  <r_i_glide_gscore_strain>  (1) 
0

>  <r_i_glide_hbond>  (1) 
-0.13012510518607254

>  <r_i_glide_ligand_efficiency>  (1) 
-0.21023793533345228

>  <r_i_glide_ligand_efficiency_ln>  (1) 
-1.6512565506173387

>  <r_i_glide_ligand_efficiency_sa>  (1) 
-0.69419036742887263

>  <r_i_glide_lipo>  (1) 
-3.4049970980271476

>  <r_i_glide_metal>  (1) 
-0

>  <r_i_glide_rewards>  (1) 
-1.4083847194776333

>  <r_lp_Energy>  (1) 
55.540033999999999

>  <r_lp_tautomer_probability>  (1) 
0.99998399999999998

>  <s_epik_Chemistry_Notes>  (1) 
This compound has an imine and may undergo hydrolysis. This compound contains an acetal/aminal-like group ( X-CH(R)-Y where X, Y are N, S, or O) that may be acid/base labile, releasing an aldehyde. This compound has a N-S or N-O group and may undergo hydrolysis at high or low pH.

>  <s_epik_cmdline>  (1) 
J2VwaWtfcHl0aG9uJywgJy1waHQnLCAnMS4wJywgJy1waCcsICc3LjQnLCAnLXRuJywgJzgnLCAnLW1hJywgJzUwMCcsICctaW1hZScsICc8aW5maWxlLm1hZT4nLCAnLW9tYWUnLCAnPG91dGZpbGUubWFlPic=

>  <s_epik_input>  (1) 
W09IXVtDSDJdW0NIXShbQ0gyXVtPSF0pTjFTW0NASF0oW0NASF0oW05IXTEpW0NIMl1bQ0gyXVtOSDJdKVtOSF1bTkhdW0NASF0yQyg9TylOKFtDSDJdYyhjMjMpW2NIXVtjSF1bY0hdW2NIXTMpW0NASF0oW0NIMl1bQ0gyXTQpW0NIMl1DKD1DNDUpW0NIMl1bQ0gyXVtDSDJdW05IXTU=

>  <s_glide_docking_method>  (1) 
confgen

>  <s_i_glide_gridfile>  (1) 
gpcr_5ht2c_6bqh_protein_autoprepared_prepared

>  <s_lp_Force_Field>  (1) 
S-OPLS

>  <s_lp_Variant>  (1) 
DiffSBDD_84-2

>  <s_m_source_file>  (1) 
generated_GPCR_5HT2C_ligand_DiffSBDD_2026-06-23_prepared.sdf

>  <GenAI_Model>  (1) 
DiffSBDD

>  <Protein>  (1) 
GPCR_5HT2C

$$$$
DiffSBDD_53
     RDKit          3D

  0  0  0  0  0  0  0  0  0  0999 V3000
M  V30 BEGIN CTAB
M  V30 COUNTS 82 86 0 0 1
M  V30 BEGIN ATOM
M  V30 1 C 38.242875 31.464754 55.840558 0
M  V30 2 C 37.300983 35.885652 62.137676 0
M  V30 3 C 40.846208 33.695968 64.706290 0
M  V30 4 C 38.716218 31.661601 57.288364 0
M  V30 5 C 40.140427 34.907352 61.873897 0
M  V30 6 C 39.771479 26.364292 54.087485 0
M  V30 7 C 37.911118 27.645680 57.761897 0
M  V30 8 N 37.610419 30.147560 55.613484 0 CHG=1
M  V30 9 N 40.898338 36.492122 66.567723 0 CHG=1
M  V30 10 C 37.050777 37.115489 59.451965 0
M  V30 11 C 38.490077 28.967197 55.410315 0 CFG=1
M  V30 12 N 37.645192 31.350224 58.226533 0
M  V30 13 C 39.777379 33.728437 62.403283 0
M  V30 14 C 39.346750 35.463079 60.723975 0
M  V30 15 C 38.837881 28.266342 56.736684 0 CFG=1
M  V30 16 C 37.777499 33.593656 60.988852 0 CFG=1
M  V30 17 C 37.809638 28.017923 54.390711 0 CFG=2
M  V30 18 C 41.828429 35.419211 66.168656 0
M  V30 19 O 40.069156 28.689202 57.275237 0
M  V30 20 C 37.927245 31.711945 59.590556 0
M  V30 21 C 37.291163 37.414935 61.990155 0
M  V30 22 C 36.618533 37.892843 60.702829 0
M  V30 23 C 37.863076 35.151153 60.884514 0
M  V30 24 O 38.050282 33.088722 59.713258 0
M  V30 25 C 37.012956 35.602330 59.669796 0
M  V30 26 C 38.289406 26.552016 54.473627 0 CFG=2
M  V30 27 O 37.944836 28.537178 53.081523 0
M  V30 28 C 41.842537 35.682809 63.613174 0
M  V30 29 N 37.990511 26.048618 55.841229 0 CFG=1 CHG=1
M  V30 30 O 38.669331 33.051360 61.936898 0
M  V30 31 C 38.048813 24.575459 55.980678 0
M  V30 32 C 38.765642 26.752524 56.893542 0 CFG=2
M  V30 33 C 41.276354 35.687983 62.366146 0
M  V30 34 C 40.504913 32.982536 63.456382 0
M  V30 35 C 41.468698 34.883149 64.793240 0
M  V30 36 H 39.064038 31.617788 55.139078 0
M  V30 37 H 37.501056 32.228387 55.604277 0
M  V30 38 H 36.302326 35.522643 62.384960 0
M  V30 39 H 37.936436 35.737752 63.002197 0
M  V30 40 H 40.611458 33.166018 65.618502 0
M  V30 41 H 39.595235 31.058695 57.492554 0
M  V30 42 H 39.017085 32.702868 57.415078 0
M  V30 43 H 39.953945 26.665204 53.055744 0
M  V30 44 H 40.445247 26.934439 54.724535 0
M  V30 45 H 40.062454 25.320395 54.167992 0
M  V30 46 H 38.188706 27.738972 58.810287 0
M  V30 47 H 36.845178 27.671084 57.575738 0
M  V30 48 H 37.079794 30.254435 54.760395 0
M  V30 49 H 41.125711 36.810831 67.499036 0
M  V30 50 H 41.018149 37.259304 65.911386 0
M  V30 51 H 38.044901 37.430877 59.137858 0
M  V30 52 H 36.381677 37.337539 58.622563 0
M  V30 53 H 39.430285 29.300274 54.964672 0
M  V30 54 H 36.748737 31.738178 57.899680 0
M  V30 55 H 39.511851 36.535559 60.678989 0
M  V30 56 H 39.751959 35.020340 59.814386 0
M  V30 57 H 36.766958 33.295512 61.273961 0
M  V30 58 H 36.738609 28.004056 54.567759 0
M  V30 59 H 41.819943 34.624268 66.915597 0
M  V30 60 H 42.839767 35.826282 66.146681 0
M  V30 61 H 40.030646 28.648274 58.220325 0
M  V30 62 H 37.110167 31.350623 60.217687 0
M  V30 63 H 38.849275 31.240106 59.934740 0
M  V30 64 H 38.313957 37.788824 62.022227 0
M  V30 65 H 36.793204 37.860903 62.851905 0
M  V30 66 H 36.845088 38.949329 60.570875 0
M  V30 67 H 35.541447 37.828008 60.808051 0
M  V30 68 H 37.326989 35.121692 58.743905 0
M  V30 69 H 35.977317 35.294052 59.818299 0
M  V30 70 H 37.685098 25.972913 53.770929 0
M  V30 71 H 38.841410 28.446147 52.790258 0
M  V30 72 H 42.634442 36.404064 63.766678 0
M  V30 73 H 39.070857 24.207218 55.900716 0
M  V30 74 H 37.666016 24.274413 56.956594 0
M  V30 75 H 37.442627 24.081963 55.220075 0
M  V30 76 H 39.614248 26.208576 57.308850 0
M  V30 77 H 41.678186 36.412230 61.674986 0
M  V30 78 H 39.905984 32.113051 63.731105 0
M  V30 79 H 41.424817 32.584900 63.026765 0
M  V30 80 H 37.020586 26.279147 56.005743 0
M  V30 81 H 36.956060 30.001015 56.371549 0
M  V30 82 H 39.944763 36.159564 66.538832 0
M  V30 END ATOM
M  V30 BEGIN BOND
M  V30 1 1 4 1
M  V30 2 1 8 1
M  V30 3 1 11 8
M  V30 4 1 12 4
M  V30 5 2 13 5
M  V30 6 1 14 5
M  V30 7 1 15 7
M  V30 8 1 15 11
M  V30 9 1 17 11
M  V30 10 1 18 9
M  V30 11 1 15 19 CFG=1
M  V30 12 1 20 12
M  V30 13 1 21 2
M  V30 14 1 22 10
M  V30 15 1 22 21
M  V30 16 1 23 2
M  V30 17 1 23 14
M  V30 18 1 23 16
M  V30 19 1 24 16
M  V30 20 1 24 20
M  V30 21 1 25 10
M  V30 22 1 25 23
M  V30 23 1 26 6
M  V30 24 1 26 17
M  V30 25 1 27 17
M  V30 26 1 29 26
M  V30 27 1 30 13
M  V30 28 1 30 16
M  V30 29 1 31 29
M  V30 30 1 32 7
M  V30 31 1 32 15
M  V30 32 1 32 29
M  V30 33 1 33 5
M  V30 34 2 33 28
M  V30 35 1 34 3
M  V30 36 1 34 13
M  V30 37 2 35 3
M  V30 38 1 35 18
M  V30 39 1 35 28
M  V30 40 1 36 1
M  V30 41 1 37 1
M  V30 42 1 38 2
M  V30 43 1 39 2
M  V30 44 1 40 3
M  V30 45 1 41 4
M  V30 46 1 42 4
M  V30 47 1 43 6
M  V30 48 1 44 6
M  V30 49 1 45 6
M  V30 50 1 46 7
M  V30 51 1 47 7
M  V30 52 1 48 8
M  V30 53 1 49 9
M  V30 54 1 50 9
M  V30 55 1 51 10
M  V30 56 1 52 10
M  V30 57 1 11 53 CFG=3
M  V30 58 1 54 12
M  V30 59 1 55 14
M  V30 60 1 56 14
M  V30 61 1 16 57 CFG=1
M  V30 62 1 17 58 CFG=1
M  V30 63 1 59 18
M  V30 64 1 60 18
M  V30 65 1 61 19
M  V30 66 1 62 20
M  V30 67 1 63 20
M  V30 68 1 64 21
M  V30 69 1 65 21
M  V30 70 1 66 22
M  V30 71 1 67 22
M  V30 72 1 68 25
M  V30 73 1 69 25
M  V30 74 1 26 70 CFG=3
M  V30 75 1 71 27
M  V30 76 1 72 28
M  V30 77 1 73 31
M  V30 78 1 74 31
M  V30 79 1 75 31
M  V30 80 1 32 76 CFG=1
M  V30 81 1 77 33
M  V30 82 1 78 34
M  V30 83 1 79 34
M  V30 84 1 29 80 CFG=1
M  V30 85 1 81 8
M  V30 86 1 82 9
M  V30 END BOND
M  V30 END CTAB
M  END
>  <i_epik_Tot_Q>  (1) 
3

>  <i_epik_Tot_abs_Q>  (1) 
3

>  <i_i_glide_confnum>  (1) 
578

>  <i_i_glide_lignum>  (1) 
110

>  <i_i_glide_posenum>  (1) 
134

>  <i_i_glide_rotatable_bonds>  (1) 
10

>  <i_lp_mmshare_version>  (1) 
72125

>  <i_m_source_file_index>  (1) 
54

>  <i_f3d_flags>  (1) 
0

>  <num_sample>  (1) 
100

>  <b_lp_Chiralities_Consistent>  (1) 
1

>  <r_epik_Charging_Adjusted_Penalty>  (1) 
0.52217566130243886

>  <r_epik_Ionization_Penalty>  (1) 
0.30399825412207077

>  <r_epik_Ionization_Penalty_Charging>  (1) 
0.29355179195135561

>  <r_epik_Ionization_Penalty_Neutral>  (1) 
0.010446462170715176

>  <r_epik_State_Penalty>  (1) 
0.22862386935108323

>  <r_glide_ring_energy>  (1) 
0.00062545301478619732

>  <r_i_docking_score>  (1) 
-7.5566632431024345

>  <r_i_glide_ecoul>  (1) 
-9.0939531465878662

>  <r_i_glide_eff_state_penalty>  (1) 
0.22862386935108323

>  <r_i_glide_einternal>  (1) 
7.402515126305957

>  <r_i_glide_emodel>  (1) 
-62.77396312177072

>  <r_i_glide_emodel_strain>  (1) 
0.53800036692504705

>  <r_i_glide_energy>  (1) 
-45.035515461172679

>  <r_i_glide_erotb>  (1) 
0.58947078011706677

>  <r_i_glide_esite>  (1) 
-0.10874735706333845

>  <r_i_glide_evdw>  (1) 
-35.941562314584814

>  <r_i_glide_gscore>  (1) 
-7.7852871124535179

>  <r_i_glide_gscore_strain>  (1) 
0

>  <r_i_glide_hbond>  (1) 
-0.16

>  <r_i_glide_ligand_efficiency>  (1) 
-0.21590466408864098

>  <r_i_glide_ligand_efficiency_ln>  (1) 
-1.6588552929656299

>  <r_i_glide_ligand_efficiency_sa>  (1) 
-0.70623847291293784

>  <r_i_glide_lipo>  (1) 
-3.9390901896728061

>  <r_i_glide_metal>  (1) 
-0

>  <r_i_glide_rewards>  (1) 
-1.005749258117018

>  <r_lp_Energy>  (1) 
69.168939999999992

>  <s_epik_Chemistry_Notes>  (1) 
This compound contains an acetal/aminal-like group ( X-CH(R)-Y where X, Y are N, S, or O) that may be acid/base labile, releasing an aldehyde.

>  <s_epik_cmdline>  (1) 
J2VwaWtfcHl0aG9uJywgJy1waHQnLCAnMS4wJywgJy1waCcsICc3LjQnLCAnLXRuJywgJzgnLCAnLW1hJywgJzUwMCcsICctaW1hZScsICc8aW5maWxlLm1hZT4nLCAnLW9tYWUnLCAnPG91dGZpbGUubWFlPic=

>  <s_epik_input>  (1) 
W09IXVtDQEBdMTJbQ0BASF0oW0NIMl0xKU4oW0NIM10pW0NASF0oW0NIM10pW0NASF0oW09IXSlbQ0BIXTJbTkhdW0NIMl1bQ0gyXVtOSF1bQ0gyXU9bQ0BIXTNPQyhbQ0gyXVtDSF09QyhbQ0gyXVtOSDJdKVtDSF09W0NIXTQpPUM0W0NIMl1DMzVbQ0gyXVtDSDJdW0NIMl1bQ0gyXVtDSDJdNQ==

>  <s_glide_docking_method>  (1) 
confgen

>  <s_i_glide_gridfile>  (1) 
gpcr_5ht2c_6bqh_protein_autoprepared_prepared

>  <s_lp_Force_Field>  (1) 
S-OPLS

>  <s_lp_Variant>  (1) 
DiffSBDD_53-2

>  <s_m_source_file>  (1) 
generated_GPCR_5HT2C_ligand_DiffSBDD_2026-06-23_prepared.sdf

>  <GenAI_Model>  (1) 
DiffSBDD

>  <Protein>  (1) 
GPCR_5HT2C

$$$$
DiffSBDD_2
     RDKit          3D

  0  0  0  0  0  0  0  0  0  0999 V3000
M  V30 BEGIN CTAB
M  V30 COUNTS 81 84 0 0 1
M  V30 BEGIN ATOM
M  V30 1 F 43.481368 32.341892 67.839744 0
M  V30 2 C 38.313695 28.676603 54.335965 0
M  V30 3 C 37.478791 32.389966 58.586240 0 CFG=2
M  V30 4 C 43.119191 29.948959 65.344639 0
M  V30 5 C 37.565968 30.878689 58.790966 0 CFG=2
M  V30 6 N 37.645220 32.547209 57.136194 0 CHG=1
M  V30 7 O 39.621786 36.677310 64.082581 0
M  V30 8 C 38.121598 35.795026 61.536838 0
M  V30 9 C 38.689098 32.787951 60.805782 0 CFG=1
M  V30 10 N 38.749475 29.249665 55.515084 0
M  V30 11 C 39.024742 27.125316 52.676957 0
M  V30 12 C 37.987281 30.181925 56.276723 0 CFG=2
M  V30 13 C 37.934677 30.447150 60.216535 0
M  V30 14 C 44.009927 30.955765 66.038170 0
M  V30 15 O 40.845116 28.008137 65.231249 0
M  V30 16 C 39.554242 35.238051 61.294677 0 CFG=2
M  V30 17 C 38.591001 31.510414 56.658984 0 CFG=2
M  V30 18 O 39.245143 27.827139 53.890023 0
M  V30 19 N 41.502448 35.429058 64.258187 0
M  V30 20 C 38.568368 33.177971 59.319620 0
M  V30 21 C 38.491081 30.414683 57.693187 0 CFG=1
M  V30 22 O 37.245143 28.892673 53.767700 0
M  V30 23 C 39.062961 31.278864 60.866970 0 CFG=2
M  V30 24 O 41.791873 31.166567 66.807185 0
M  V30 25 C 39.352395 30.737456 62.281841 0
M  V30 26 C 41.583877 34.037894 66.329253 0
M  V30 27 C 40.661118 29.298104 65.772923 0
M  V30 28 C 39.676373 33.711640 61.567222 0
M  V30 29 C 42.998282 31.917861 66.671258 0 CFG=1
M  V30 30 C 37.903193 37.232892 61.046934 0
M  V30 31 C 41.552196 35.447731 65.720972 0
M  V30 32 C 41.976476 29.832252 66.350059 0 CFG=1
M  V30 33 C 40.549606 36.065322 63.555314 0
M  V30 34 C 40.674236 36.015258 62.029749 0
M  V30 35 O 39.856306 29.421650 62.170936 0
M  V30 36 C 42.716522 33.147825 65.788276 0
M  V30 37 H 36.498833 32.758355 58.895165 0
M  V30 38 H 43.614541 28.996127 65.156219 0
M  V30 39 H 42.760589 30.344003 64.392710 0
M  V30 40 H 36.589392 30.446262 58.566273 0
M  V30 41 H 36.701247 32.310697 56.784074 0
M  V30 42 H 37.382482 35.173794 61.034328 0
M  V30 43 H 37.855877 35.737778 62.588497 0
M  V30 44 H 37.710730 32.910423 61.272546 0
M  V30 45 H 39.656820 28.962761 55.851784 0
M  V30 46 H 39.854917 26.445637 52.487287 0
M  V30 47 H 38.106554 26.537761 52.726038 0
M  V30 48 H 38.950797 27.816185 51.836149 0
M  V30 49 H 36.905090 30.140368 56.150157 0
M  V30 50 H 37.043053 30.537723 60.838307 0
M  V30 51 H 38.188227 29.386040 60.203468 0
M  V30 52 H 44.718946 31.440740 65.367825 0
M  V30 53 H 44.585024 30.450044 66.815356 0
M  V30 54 H 39.990459 27.697217 64.958375 0
M  V30 55 H 39.782629 35.395293 60.241357 0
M  V30 56 H 39.580028 31.841049 56.345984 0
M  V30 57 H 42.239935 34.949186 63.766186 0
M  V30 58 H 38.304229 34.223645 59.199103 0
M  V30 59 H 39.537929 33.052891 58.836771 0
M  V30 60 H 39.422876 29.942253 58.001870 0
M  V30 61 H 39.973498 31.135204 60.284660 0
M  V30 62 H 40.101695 31.332021 62.802605 0
M  V30 63 H 38.449885 30.735576 62.895251 0
M  V30 64 H 40.625686 33.544588 66.165565 0
M  V30 65 H 41.685381 34.141499 67.410315 0
M  V30 66 H 40.279205 29.963714 64.999849 0
M  V30 67 H 39.900970 29.249761 66.553883 0
M  V30 68 H 40.694930 33.401511 61.329762 0
M  V30 69 H 39.555046 33.540519 62.637902 0
M  V30 70 H 36.885667 37.558751 61.263023 0
M  V30 71 H 38.577110 37.935906 61.535387 0
M  V30 72 H 38.045141 37.309239 59.969698 0
M  V30 73 H 40.723870 36.004632 66.162849 0
M  V30 74 H 42.452829 35.991714 66.009350 0
M  V30 75 H 42.293100 29.219741 67.196226 0
M  V30 76 H 40.704611 37.043986 61.673957 0
M  V30 77 H 41.644997 35.600175 61.756182 0
M  V30 78 H 39.699540 28.965595 62.988111 0
M  V30 79 H 43.632706 33.731425 65.708888 0
M  V30 80 H 42.465205 32.828529 64.776197 0
M  V30 81 H 37.889675 33.485864 56.860285 0
M  V30 END ATOM
M  V30 BEGIN BOND
M  V30 1 1 5 3
M  V30 2 1 6 3
M  V30 3 1 10 2
M  V30 4 1 12 10
M  V30 5 1 13 5
M  V30 6 1 14 4
M  V30 7 1 16 8
M  V30 8 1 17 6
M  V30 9 1 17 12
M  V30 10 1 18 2
M  V30 11 1 18 11
M  V30 12 1 20 3
M  V30 13 1 20 9
M  V30 14 1 21 5
M  V30 15 1 21 12
M  V30 16 1 21 17
M  V30 17 2 22 2
M  V30 18 1 23 9
M  V30 19 1 23 13
M  V30 20 1 25 23
M  V30 21 1 27 15
M  V30 22 1 28 9
M  V30 23 1 28 16
M  V30 24 1 29 1 CFG=1
M  V30 25 1 29 14
M  V30 26 1 29 24
M  V30 27 1 30 8
M  V30 28 1 31 19
M  V30 29 1 31 26
M  V30 30 1 32 4
M  V30 31 1 32 24
M  V30 32 1 32 27
M  V30 33 2 33 7
M  V30 34 1 33 19
M  V30 35 1 34 16
M  V30 36 1 34 33
M  V30 37 1 35 25
M  V30 38 1 36 26
M  V30 39 1 36 29
M  V30 40 1 3 37 CFG=1
M  V30 41 1 38 4
M  V30 42 1 39 4
M  V30 43 1 5 40 CFG=3
M  V30 44 1 41 6
M  V30 45 1 42 8
M  V30 46 1 43 8
M  V30 47 1 9 44 CFG=1
M  V30 48 1 45 10
M  V30 49 1 46 11
M  V30 50 1 47 11
M  V30 51 1 48 11
M  V30 52 1 12 49 CFG=1
M  V30 53 1 50 13
M  V30 54 1 51 13
M  V30 55 1 52 14
M  V30 56 1 53 14
M  V30 57 1 54 15
M  V30 58 1 16 55 CFG=3
M  V30 59 1 17 56 CFG=3
M  V30 60 1 57 19
M  V30 61 1 58 20
M  V30 62 1 59 20
M  V30 63 1 21 60 CFG=1
M  V30 64 1 23 61 CFG=3
M  V30 65 1 62 25
M  V30 66 1 63 25
M  V30 67 1 64 26
M  V30 68 1 65 26
M  V30 69 1 66 27
M  V30 70 1 67 27
M  V30 71 1 68 28
M  V30 72 1 69 28
M  V30 73 1 70 30
M  V30 74 1 71 30
M  V30 75 1 72 30
M  V30 76 1 73 31
M  V30 77 1 74 31
M  V30 78 1 32 75 CFG=1
M  V30 79 1 76 34
M  V30 80 1 77 34
M  V30 81 1 78 35
M  V30 82 1 79 36
M  V30 83 1 80 36
M  V30 84 1 81 6
M  V30 END BOND
M  V30 END CTAB
M  END
>  <i_epik_Tot_Q>  (1) 
1

>  <i_epik_Tot_abs_Q>  (1) 
1

>  <i_i_glide_confnum>  (1) 
4492

>  <i_i_glide_lignum>  (1) 
4

>  <i_i_glide_posenum>  (1) 
381

>  <i_i_glide_rotatable_bonds>  (1) 
17

>  <i_lp_mmshare_version>  (1) 
72125

>  <i_m_source_file_index>  (1) 
3

>  <i_f3d_flags>  (1) 
0

>  <num_sample>  (1) 
100

>  <b_lp_Chiralities_Consistent>  (1) 
1

>  <r_epik_Charging_Adjusted_Penalty>  (1) 
0.00072413823026253119

>  <r_epik_Ionization_Penalty>  (1) 
0.00072547203534686021

>  <r_epik_Ionization_Penalty_Charging>  (1) 
0.00072413823026253119

>  <r_epik_Ionization_Penalty_Neutral>  (1) 
1.3338050843290484e-06

>  <r_epik_State_Penalty>  (1) 
-0

>  <r_glide_ring_energy>  (1) 
1.337252785472008

>  <r_i_docking_score>  (1) 
-7.5505992025388897

>  <r_i_glide_ecoul>  (1) 
-11.783089741608864

>  <r_i_glide_eff_state_penalty>  (1) 
-0

>  <r_i_glide_einternal>  (1) 
6.5301814572530201

>  <r_i_glide_emodel>  (1) 
-78.040431723534795

>  <r_i_glide_emodel_strain>  (1) 
0.29714017185806085

>  <r_i_glide_energy>  (1) 
-55.240429538919415

>  <r_i_glide_erotb>  (1) 
1.0068127819832642

>  <r_i_glide_esite>  (1) 
-0.10612524327034695

>  <r_i_glide_evdw>  (1) 
-43.457339797310553

>  <r_i_glide_gscore>  (1) 
-7.5505992025388897

>  <r_i_glide_gscore_strain>  (1) 
0

>  <r_i_glide_hbond>  (1) 
-0.67628181480984839

>  <r_i_glide_ligand_efficiency>  (1) 
-0.20973886673719139

>  <r_i_glide_ligand_efficiency_ln>  (1) 
-1.6473367523779003

>  <r_i_glide_ligand_efficiency_sa>  (1) 
-0.69254247923181123

>  <r_i_glide_lipo>  (1) 
-2.7795494892645318

>  <r_i_glide_metal>  (1) 
-0

>  <r_i_glide_rewards>  (1) 
-1.0551249860705687

>  <r_lp_Energy>  (1) 
40.418917

>  <r_lp_tautomer_probability>  (1) 
1

>  <s_epik_Chemistry_Notes>  (1) 
This compound has an ester and may undergo hydrolysis at high or low pH.

>  <s_epik_cmdline>  (1) 
J2VwaWtfcHl0aG9uJywgJy1waHQnLCAnMS4wJywgJy1waCcsICc3LjQnLCAnLXRuJywgJzgnLCAnLW1hJywgJzUwMCcsICctaW1hZScsICc8aW5maWxlLm1hZT4nLCAnLW9tYWUnLCAnPG91dGZpbGUubWFlPic=

>  <s_epik_input>  (1) 
W09IXVtDSDJdW0NASF0oTzEpW0NIMl1bQ0gyXVtDQEBdMShGKVtDSDJdW0NIMl1bQ0gyXVtOSF1DKD1PKVtDSDJdW0NASF0oW0NIMl1bQ0gzXSlbQ0gyXVtDQEBIXShbQ0gyXTIpW0NAQEhdKFtDSDJdW09IXSlbQ0gyXVtDQEBIXShbQ0BASF0yMylbQ0BASF00W0NASF0oW05IXTMpW0NASF00W05IXUMoPU8pT1tDSDNd

>  <s_glide_docking_method>  (1) 
confgen

>  <s_i_glide_gridfile>  (1) 
gpcr_5ht2c_6bqh_protein_autoprepared_prepared

>  <s_lp_Force_Field>  (1) 
S-OPLS

>  <s_lp_Variant>  (1) 
DiffSBDD_2-1

>  <s_m_source_file>  (1) 
generated_GPCR_5HT2C_ligand_DiffSBDD_2026-06-23_prepared.sdf

>  <GenAI_Model>  (1) 
DiffSBDD

>  <Protein>  (1) 
GPCR_5HT2C

$$$$
DiffSBDD_50
     RDKit          3D

  0  0  0  0  0  0  0  0  0  0999 V3000
M  V30 BEGIN CTAB
M  V30 COUNTS 65 68 0 0 1
M  V30 BEGIN ATOM
M  V30 1 C 38.117309 32.402986 58.752852 0 CFG=1
M  V30 2 F 40.445138 28.890439 56.622158 0
M  V30 3 C 38.763180 34.183540 61.759594 0
M  V30 4 O 37.551451 30.937780 61.767794 0 CHG=-1
M  V30 5 O 40.414460 36.937750 63.367757 0
M  V30 6 O 39.589217 34.307553 62.871874 0
M  V30 7 S 37.160501 34.945855 59.740911 0
M  V30 8 C 37.616043 30.959113 58.529934 0
M  V30 9 C 41.857470 33.581774 63.367790 0 CFG=2
M  V30 10 O 39.057081 30.348977 55.094862 0
M  V30 11 C 41.279132 35.858012 63.567295 0 CFG=1
M  V30 12 C 41.370754 32.890112 65.838659 0
M  V30 13 C 38.773272 32.474942 56.283011 0
M  V30 14 C 38.321621 30.236833 57.380668 0 CFG=2
M  V30 15 C 40.445139 26.537314 56.790898 0
M  V30 16 C 38.630493 31.658248 61.867569 0
M  V30 17 C 38.270071 31.041804 56.059762 0 CFG=2
M  V30 18 C 39.161560 30.941932 53.816181 0
M  V30 19 F 37.741142 24.160824 57.500416 0
M  V30 20 C 37.697390 26.544865 57.362616 0
M  V30 21 C 41.937975 33.940394 64.871816 0 CFG=2
M  V30 22 C 38.008362 33.163957 57.418987 0
M  V30 23 C 39.765190 25.325821 57.012041 0
M  V30 24 C 41.296802 35.328785 65.000482 0
M  V30 25 C 37.434417 33.089508 59.994295 0 CFG=2
M  V30 26 C 38.371797 27.768521 57.150691 0
M  V30 27 C 40.946518 34.646499 62.696990 0 CFG=2
M  V30 28 C 38.323702 33.031798 61.264325 0
M  V30 29 N 37.629584 28.964175 57.230513 0
M  V30 30 C 39.765680 27.752091 56.854460 0
M  V30 31 C 38.394045 25.329736 57.294022 0
M  V30 32 O 41.323241 34.933700 61.367837 0
M  V30 33 O 38.573036 36.495880 61.360230 0
M  V30 34 O 41.610707 32.233139 63.053982 0
M  V30 35 C 38.280567 35.339034 61.078759 0
M  V30 36 H 39.185985 32.350934 58.960026 0
M  V30 37 H 40.741537 37.645673 63.915709 0
M  V30 38 H 37.796047 30.339745 59.401825 0
M  V30 39 H 36.534967 30.939203 58.413816 0
M  V30 40 H 42.845143 33.737689 62.968204 0
M  V30 41 H 42.288747 36.192681 63.317386 0
M  V30 42 H 40.325622 32.673766 65.623288 0
M  V30 43 H 41.928758 31.955004 65.771042 0
M  V30 44 H 41.434102 33.234733 66.871193 0
M  V30 45 H 38.655813 33.068837 55.378059 0
M  V30 46 H 39.839584 32.460090 56.509717 0
M  V30 47 H 39.331238 30.170164 57.768318 0
M  V30 48 H 41.499507 26.537660 56.568136 0
M  V30 49 H 39.530729 31.346106 61.338192 0
M  V30 50 H 39.027362 31.845957 62.862008 0
M  V30 51 H 37.245041 31.082252 55.696646 0
M  V30 52 H 39.503992 30.192057 53.103094 0
M  V30 53 H 38.209793 31.346036 53.476379 0
M  V30 54 H 39.901482 31.737750 53.831528 0
M  V30 55 H 36.640751 26.542401 57.581378 0
M  V30 56 H 42.995349 34.050599 65.116987 0
M  V30 57 H 36.969181 33.337593 57.149320 0
M  V30 58 H 38.445230 34.137774 57.521701 0
M  V30 59 H 40.300754 24.391308 56.962674 0
M  V30 60 H 40.286069 35.270111 65.397501 0
M  V30 61 H 41.861965 35.980144 65.670362 0
M  V30 62 H 36.447972 32.660368 60.179590 0
M  V30 63 H 36.660741 28.921200 57.511047 0
M  V30 64 H 40.935288 35.773185 61.160105 0
M  V30 65 H 40.696012 32.053240 63.219090 0
M  V30 END ATOM
M  V30 BEGIN BOND
M  V30 1 1 6 3
M  V30 2 1 8 1
M  V30 3 1 11 5
M  V30 4 1 14 8
M  V30 5 1 16 4
M  V30 6 1 17 10
M  V30 7 1 17 13
M  V30 8 1 17 14
M  V30 9 1 18 10
M  V30 10 1 21 9
M  V30 11 1 21 12
M  V30 12 1 22 1
M  V30 13 1 22 13
M  V30 14 2 23 15
M  V30 15 1 24 11
M  V30 16 1 24 21
M  V30 17 1 25 1
M  V30 18 1 25 7
M  V30 19 1 26 20
M  V30 20 1 27 6 CFG=3
M  V30 21 1 27 9
M  V30 22 1 27 11
M  V30 23 2 28 3
M  V30 24 1 28 16
M  V30 25 1 28 25
M  V30 26 1 29 14
M  V30 27 1 29 26
M  V30 28 1 30 2
M  V30 29 1 30 15
M  V30 30 2 30 26
M  V30 31 1 31 19
M  V30 32 2 31 20
M  V30 33 1 31 23
M  V30 34 1 32 27
M  V30 35 1 34 9
M  V30 36 1 35 3
M  V30 37 1 35 7
M  V30 38 2 35 33
M  V30 39 1 1 36 CFG=1
M  V30 40 1 37 5
M  V30 41 1 38 8
M  V30 42 1 39 8
M  V30 43 1 9 40 CFG=3
M  V30 44 1 11 41 CFG=3
M  V30 45 1 42 12
M  V30 46 1 43 12
M  V30 47 1 44 12
M  V30 48 1 45 13
M  V30 49 1 46 13
M  V30 50 1 14 47 CFG=1
M  V30 51 1 48 15
M  V30 52 1 49 16
M  V30 53 1 50 16
M  V30 54 1 17 51 CFG=3
M  V30 55 1 52 18
M  V30 56 1 53 18
M  V30 57 1 54 18
M  V30 58 1 55 20
M  V30 59 1 21 56 CFG=1
M  V30 60 1 57 22
M  V30 61 1 58 22
M  V30 62 1 59 23
M  V30 63 1 60 24
M  V30 64 1 61 24
M  V30 65 1 25 62 CFG=1
M  V30 66 1 63 29
M  V30 67 1 64 32
M  V30 68 1 65 34
M  V30 END BOND
M  V30 END CTAB
M  END
>  <i_epik_Tot_Q>  (1) 
-1

>  <i_epik_Tot_abs_Q>  (1) 
1

>  <i_i_glide_confnum>  (1) 
83

>  <i_i_glide_lignum>  (1) 
105

>  <i_i_glide_posenum>  (1) 
46

>  <i_i_glide_rotatable_bonds>  (1) 
10

>  <i_lp_mmshare_version>  (1) 
72125

>  <i_m_source_file_index>  (1) 
51

>  <i_f3d_flags>  (1) 
0

>  <num_sample>  (1) 
100

>  <b_lp_Chiralities_Consistent>  (1) 
1

>  <r_epik_Charging_Adjusted_Penalty>  (1) 
1.033121990919972

>  <r_epik_Ionization_Penalty>  (1) 
0.51659959183111048

>  <r_epik_Ionization_Penalty_Charging>  (1) 
0.51656099545998602

>  <r_epik_Ionization_Penalty_Neutral>  (1) 
3.8596371124435187e-05

>  <r_epik_State_Penalty>  (1) 
0.51656099545998602

>  <r_glide_ring_energy>  (1) 
0

>  <r_i_docking_score>  (1) 
-7.5419132919703804

>  <r_i_glide_ecoul>  (1) 
-9.8511451670797712

>  <r_i_glide_eff_state_penalty>  (1) 
0.51656099545998602

>  <r_i_glide_einternal>  (1) 
13.505506294131436

>  <r_i_glide_emodel>  (1) 
-63.867219516312986

>  <r_i_glide_emodel_strain>  (1) 
1.5195050139756461

>  <r_i_glide_energy>  (1) 
-49.489774134472903

>  <r_i_glide_erotb>  (1) 
0.38736490325272716

>  <r_i_glide_esite>  (1) 
-0.02560578155447002

>  <r_i_glide_evdw>  (1) 
-39.638628967393132

>  <r_i_glide_gscore>  (1) 
-8.0584742874303661

>  <r_i_glide_gscore_strain>  (1) 
0

>  <r_i_glide_hbond>  (1) 
-0.46491395389412776

>  <r_i_glide_ligand_efficiency>  (1) 
-0.21548323691343943

>  <r_i_glide_ligand_efficiency_ln>  (1) 
-1.6556173513346162

>  <r_i_glide_ligand_efficiency_sa>  (1) 
-0.70485995667793822

>  <r_i_glide_lipo>  (1) 
-2.813824394244107

>  <r_i_glide_metal>  (1) 
-0

>  <r_i_glide_rewards>  (1) 
-1.6818918375587675

>  <r_lp_Energy>  (1) 
65.937855999999996

>  <r_lp_tautomer_probability>  (1) 
0.99999998906363929

>  <s_epik_cmdline>  (1) 
J2VwaWtfcHl0aG9uJywgJy1waHQnLCAnMS4wJywgJy1waCcsICc3LjQnLCAnLXRuJywgJzgnLCAnLW1hJywgJzUwMCcsICctaW1hZScsICc8aW5maWxlLm1hZT4nLCAnLW9tYWUnLCAnPG91dGZpbGUubWFlPic=

>  <s_epik_input>  (1) 
W09IXVtDQEhdMVtDSDJdW0NAQEhdKFtDSDNdKVtDQEBIXShbT0hdKVtDQEBdMShbT0hdKU9DMj1DKFtDSDJdW09IXSlbQ0BASF0oU0MyPU8pW0NASF0zW0NIMl1bQ0BIXShbQ0BIXShPW0NIM10pW0NIMl1bQ0gyXTMpW05IXWM0W2NIXWMoRilbY0hdW2NIXWM0Rg==

>  <s_glide_docking_method>  (1) 
confgen

>  <s_i_glide_gridfile>  (1) 
gpcr_5ht2c_6bqh_protein_autoprepared_prepared

>  <s_lp_Force_Field>  (1) 
S-OPLS

>  <s_lp_Variant>  (1) 
DiffSBDD_50-3

>  <s_m_source_file>  (1) 
generated_GPCR_5HT2C_ligand_DiffSBDD_2026-06-23_prepared.sdf

>  <GenAI_Model>  (1) 
DiffSBDD

>  <Protein>  (1) 
GPCR_5HT2C

$$$$
DiffSBDD_25
     RDKit          3D

  0  0  0  0  0  0  0  0  0  0999 V3000
M  V30 BEGIN CTAB
M  V30 COUNTS 67 70 0 0 1
M  V30 BEGIN ATOM
M  V30 1 C 37.097425 34.623058 60.888021 0
M  V30 2 C 40.295610 26.617913 56.430499 0
M  V30 3 O 36.676921 33.474376 61.147612 0 CHG=-1
M  V30 4 C 39.245237 28.596975 60.546898 0
M  V30 5 N 38.965680 32.249295 60.540309 0
M  V30 6 C 39.912957 26.198759 55.007633 0
M  V30 7 C 38.666166 36.503112 61.716624 0
M  V30 8 C 40.649719 36.119673 62.849085 0
M  V30 9 C 36.869895 28.340142 53.788289 0
M  V30 10 C 38.504244 26.629307 54.566355 0
M  V30 11 C 38.190248 28.152812 54.577215 0 CFG=2
M  V30 12 C 41.631349 33.834710 63.318274 0
M  V30 13 O 39.360324 28.291885 52.506881 0
M  V30 14 O 39.641216 31.907010 62.758550 0
M  V30 15 N 39.097266 29.269880 58.284410 0
M  V30 16 C 39.421960 34.175255 62.035543 0
M  V30 17 O 36.468915 35.421788 60.155972 0
M  V30 18 C 39.152870 30.326969 53.694949 0
M  V30 19 C 38.419163 35.100863 61.534152 0
M  V30 20 C 38.048357 28.660882 56.057429 0
M  V30 21 C 39.334459 29.026240 56.849388 0 CFG=2
M  V30 22 C 39.328910 32.659511 61.829516 0
M  V30 23 C 38.712739 30.629044 58.680132 0
M  V30 24 N 39.761680 36.987647 62.334407 0
M  V30 25 C 39.693527 30.535617 52.300195 0
M  V30 26 C 39.259676 28.310616 59.251170 0
M  V30 27 N 37.748445 37.453398 61.276623 0
M  V30 28 N 39.245111 28.874413 53.848960 0
M  V30 29 C 40.563115 28.117861 56.619554 0
M  V30 30 C 38.933668 30.996950 60.189769 0
M  V30 31 C 39.783628 29.044979 50.232507 0
M  V30 32 N 39.090281 29.878992 61.046236 0
M  V30 33 C 39.125033 29.325637 51.574370 0 CFG=1
M  V30 34 C 40.541346 34.726352 62.728999 0
M  V30 35 H 41.234580 26.137735 56.680113 0
M  V30 36 H 39.558427 26.228001 57.128884 0
M  V30 37 H 39.380633 27.842761 61.308209 0
M  V30 38 H 40.661255 26.537756 54.293707 0
M  V30 39 H 39.950882 25.110771 54.959702 0
M  V30 40 H 41.494690 36.551421 63.360401 0
M  V30 41 H 36.061576 27.737745 54.168544 0
M  V30 42 H 36.537399 29.374499 53.803202 0
M  V30 43 H 36.947663 28.025263 52.749372 0
M  V30 44 H 38.348139 26.232935 53.562229 0
M  V30 45 H 37.769761 26.108359 55.181399 0
M  V30 46 H 42.444486 34.434748 63.728470 0
M  V30 47 H 41.242459 33.241124 64.146178 0
M  V30 48 H 42.059718 33.172029 62.564906 0
M  V30 49 H 38.133533 30.699334 53.767718 0
M  V30 50 H 39.747697 30.850139 54.443163 0
M  V30 51 H 37.529877 27.898839 56.637108 0
M  V30 52 H 37.394142 29.534267 56.078891 0
M  V30 53 H 39.648796 29.994204 56.460985 0
M  V30 54 H 39.243927 31.357613 58.067404 0
M  V30 55 H 37.654051 30.761384 58.449836 0
M  V30 56 H 40.780449 30.480678 52.308431 0
M  V30 57 H 39.436610 31.504740 51.873949 0
M  V30 58 H 39.408119 27.314309 58.879500 0
M  V30 59 H 36.923678 37.168192 60.751589 0
M  V30 60 H 37.926096 38.440527 61.360507 0
M  V30 61 H 41.122598 28.488216 55.767779 0
M  V30 62 H 41.264202 28.251596 57.444159 0
M  V30 63 H 39.645078 29.870075 49.534258 0
M  V30 64 H 40.845116 28.925622 50.381671 0
M  V30 65 H 39.384224 28.137718 49.781540 0
M  V30 66 H 38.047018 29.337742 51.428698 0
M  V30 67 H 39.190930 29.990456 62.046684 0
M  V30 END ATOM
M  V30 BEGIN BOND
M  V30 1 1 3 1
M  V30 2 1 6 2
M  V30 3 1 10 6
M  V30 4 1 11 9 CFG=3
M  V30 5 1 11 10
M  V30 6 2 17 1
M  V30 7 1 19 1
M  V30 8 2 19 7
M  V30 9 1 19 16
M  V30 10 1 20 11
M  V30 11 1 21 15
M  V30 12 1 21 20
M  V30 13 1 22 5
M  V30 14 2 22 14
M  V30 15 1 22 16
M  V30 16 1 23 15
M  V30 17 1 24 7
M  V30 18 2 24 8
M  V30 19 1 25 18
M  V30 20 2 26 4
M  V30 21 1 26 15
M  V30 22 1 27 7
M  V30 23 1 28 11
M  V30 24 1 28 13
M  V30 25 1 28 18
M  V30 26 1 29 2
M  V30 27 1 29 21
M  V30 28 2 30 5
M  V30 29 1 30 23
M  V30 30 1 32 4
M  V30 31 1 32 30
M  V30 32 1 33 13
M  V30 33 1 33 25
M  V30 34 1 33 31
M  V30 35 1 34 8
M  V30 36 1 34 12
M  V30 37 2 34 16
M  V30 38 1 35 2
M  V30 39 1 36 2
M  V30 40 1 37 4
M  V30 41 1 38 6
M  V30 42 1 39 6
M  V30 43 1 40 8
M  V30 44 1 41 9
M  V30 45 1 42 9
M  V30 46 1 43 9
M  V30 47 1 44 10
M  V30 48 1 45 10
M  V30 49 1 46 12
M  V30 50 1 47 12
M  V30 51 1 48 12
M  V30 52 1 49 18
M  V30 53 1 50 18
M  V30 54 1 51 20
M  V30 55 1 52 20
M  V30 56 1 21 53 CFG=3
M  V30 57 1 54 23
M  V30 58 1 55 23
M  V30 59 1 56 25
M  V30 60 1 57 25
M  V30 61 1 58 26
M  V30 62 1 59 27
M  V30 63 1 60 27
M  V30 64 1 61 29
M  V30 65 1 62 29
M  V30 66 1 63 31
M  V30 67 1 64 31
M  V30 68 1 65 31
M  V30 69 1 33 66 CFG=3
M  V30 70 1 67 32
M  V30 END BOND
M  V30 END CTAB
M  END
>  <i_epik_Tot_Q>  (1) 
-1

>  <i_epik_Tot_abs_Q>  (1) 
1

>  <i_i_glide_confnum>  (1) 
378

>  <i_i_glide_lignum>  (1) 
62

>  <i_i_glide_posenum>  (1) 
166

>  <i_i_glide_rotatable_bonds>  (1) 
5

>  <i_lp_mmshare_version>  (1) 
72125

>  <i_m_source_file_index>  (1) 
26

>  <i_f3d_flags>  (1) 
0

>  <num_sample>  (1) 
100

>  <b_lp_Chiralities_Consistent>  (1) 
1

>  <r_epik_Charging_Adjusted_Penalty>  (1) 
0.31558791334810349

>  <r_epik_Ionization_Penalty>  (1) 
0.22690283062159758

>  <r_epik_Ionization_Penalty_Charging>  (1) 
2.1847890769935955e-05

>  <r_epik_Ionization_Penalty_Neutral>  (1) 
0.22688098273082763

>  <r_epik_State_Penalty>  (1) 
0.31556606545733357

>  <r_glide_ring_energy>  (1) 
1.261254924330955

>  <r_i_docking_score>  (1) 
-7.5368433299313384

>  <r_i_glide_ecoul>  (1) 
-1.2508237032023

>  <r_i_glide_eff_state_penalty>  (1) 
0.31556606545733357

>  <r_i_glide_einternal>  (1) 
1.7232391261711086

>  <r_i_glide_emodel>  (1) 
-61.840630997038573

>  <r_i_glide_emodel_strain>  (1) 
0.53424650859025746

>  <r_i_glide_energy>  (1) 
-43.931146348651048

>  <r_i_glide_erotb>  (1) 
0.36642180475109298

>  <r_i_glide_esite>  (1) 
0

>  <r_i_glide_evdw>  (1) 
-42.680322645448747

>  <r_i_glide_gscore>  (1) 
-7.8524093953886718

>  <r_i_glide_gscore_strain>  (1) 
0

>  <r_i_glide_hbond>  (1) 
0

>  <r_i_glide_ligand_efficiency>  (1) 
-0.22167186264503935

>  <r_i_glide_ligand_efficiency_ln>  (1) 
-1.6651000928765982

>  <r_i_glide_ligand_efficiency_sa>  (1) 
-0.718130782236031

>  <r_i_glide_lipo>  (1) 
-4.3456722237679397

>  <r_i_glide_metal>  (1) 
-0

>  <r_i_glide_rewards>  (1) 
-1.5515192886190432

>  <r_lp_Energy>  (1) 
74.56592599999999

>  <s_epik_Chemistry_Notes>  (1) 
This compound has an imine and may undergo hydrolysis. This compound has a N-S or N-O group and may undergo hydrolysis at high or low pH.

>  <s_epik_cmdline>  (1) 
J2VwaWtfcHl0aG9uJywgJy1waHQnLCAnMS4wJywgJy1waCcsICc3LjQnLCAnLXRuJywgJzgnLCAnLW1hJywgJzUwMCcsICctaW1hZScsICc8aW5maWxlLm1hZT4nLCAnLW9tYWUnLCAnPG91dGZpbGUubWFlPic=

>  <s_epik_input>  (1) 
W09IXUMoPU8pYyhjMVtOSDJdKWMoYyhbY0hdbjEpW0NIM10pQyg9TylbTkhdQyg9TltDSF09W0NIXTIpW0NIMl1OMltDQEhdKFtDSDJdMylbQ0gyXVtDSDJdW0NIMl1bQ0gyXVtDQF0zKFtDSDNdKU40T1tDQEBIXShbQ0gzXSlbQ0gyXVtDSDJdNA==

>  <s_glide_docking_method>  (1) 
confgen

>  <s_i_glide_gridfile>  (1) 
gpcr_5ht2c_6bqh_protein_autoprepared_prepared

>  <s_lp_Force_Field>  (1) 
S-OPLS

>  <s_lp_Variant>  (1) 
DiffSBDD_25-2

>  <s_m_source_file>  (1) 
generated_GPCR_5HT2C_ligand_DiffSBDD_2026-06-23_prepared.sdf

>  <GenAI_Model>  (1) 
DiffSBDD

>  <Protein>  (1) 
GPCR_5HT2C

$$$$
DiffSBDD_71
     RDKit          3D

  0  0  0  0  0  0  0  0  0  0999 V3000
M  V30 BEGIN CTAB
M  V30 COUNTS 52 54 0 0 1
M  V30 BEGIN ATOM
M  V30 1 N 40.845137 29.155631 63.738481 0 CHG=1
M  V30 2 C 38.381571 28.353028 55.158265 0 CFG=1
M  V30 3 C 40.445322 27.851402 56.684965 0
M  V30 4 C 39.599544 29.077213 51.027590 0
M  V30 5 C 39.347659 27.325529 55.770063 0
M  V30 6 C 40.470588 30.418294 63.062733 0
M  V30 7 O 38.187744 29.501916 55.991172 0
M  V30 8 C 39.958171 30.003934 52.023101 0
M  V30 9 C 38.803003 28.638302 53.705534 0
M  V30 10 C 38.845141 27.938336 51.362837 0
M  V30 11 C 38.455840 31.492885 61.937309 0
M  V30 12 C 37.818490 29.299735 57.355425 0
M  V30 13 C 39.777449 29.780718 60.647214 0
M  V30 14 C 39.062324 29.337699 58.274625 0 CFG=1
M  V30 15 C 42.580144 28.036077 65.133348 0
M  V30 16 C 38.445819 27.720089 52.694004 0
M  V30 17 C 41.866368 29.321016 64.790941 0
M  V30 18 O 37.246418 31.337726 61.661977 0
M  V30 19 Cl 40.045137 30.937749 54.567769 0
M  V30 20 C 39.568208 29.794585 53.362502 0
M  V30 21 N 38.659735 29.542125 59.693000 0 CHG=1
M  V30 22 C 39.307998 30.222255 62.051873 0 CFG=1
M  V30 23 C 39.950471 28.082120 58.117101 0
M  V30 24 O 39.238102 26.124019 55.531315 0
M  V30 25 O 39.032566 32.584210 62.119405 0 CHG=-1
M  V30 26 C 43.282659 29.101490 64.317195 0
M  V30 27 H 39.998851 28.786415 64.167684 0
M  V30 28 H 37.410610 27.861020 55.097084 0
M  V30 29 H 40.857497 28.768361 56.265322 0
M  V30 30 H 39.902380 29.241060 50.003407 0
M  V30 31 H 41.342524 30.853557 62.572709 0
M  V30 32 H 40.177673 31.116097 63.850338 0
M  V30 33 H 40.538319 30.877260 51.761531 0
M  V30 34 H 38.571966 27.227829 50.595755 0
M  V30 35 H 37.153395 30.123418 57.619153 0
M  V30 36 H 37.244976 28.382189 57.490379 0
M  V30 37 H 40.360677 28.866631 60.752824 0
M  V30 38 H 40.444864 30.537835 60.234208 0
M  V30 39 H 39.644950 30.211906 57.982701 0
M  V30 40 H 42.910914 27.902120 66.161797 0
M  V30 41 H 42.287142 27.122293 64.618810 0
M  V30 42 H 37.870237 26.839934 52.943642 0
M  V30 43 H 41.639844 30.039752 65.577065 0
M  V30 44 H 38.052746 30.354985 59.741198 0
M  V30 45 H 38.644674 29.460877 62.456939 0
M  V30 46 H 40.842522 28.169610 58.735669 0
M  V30 47 H 39.422397 27.196337 58.475173 0
M  V30 48 H 41.253816 27.119320 56.690107 0
M  V30 49 H 43.453098 28.893901 63.263252 0
M  V30 50 H 44.072472 29.665153 64.810585 0
M  V30 51 H 41.177729 28.486683 63.060247 0
M  V30 52 H 38.120682 28.748143 60.006720 0
M  V30 END ATOM
M  V30 BEGIN BOND
M  V30 1 1 5 2
M  V30 2 1 5 3
M  V30 3 1 6 1
M  V30 4 1 7 2
M  V30 5 1 8 4
M  V30 6 1 9 2
M  V30 7 2 10 4
M  V30 8 1 12 7
M  V30 9 1 14 12
M  V30 10 2 16 9
M  V30 11 1 16 10
M  V30 12 1 17 1
M  V30 13 1 17 15
M  V30 14 2 18 11
M  V30 15 2 20 8
M  V30 16 1 20 9
M  V30 17 1 20 19
M  V30 18 1 21 13
M  V30 19 1 21 14
M  V30 20 1 22 6
M  V30 21 1 22 11
M  V30 22 1 22 13
M  V30 23 1 23 3
M  V30 24 1 23 14
M  V30 25 2 24 5
M  V30 26 1 25 11
M  V30 27 1 26 15
M  V30 28 1 26 17
M  V30 29 1 27 1
M  V30 30 1 2 28 CFG=3
M  V30 31 1 29 3
M  V30 32 1 30 4
M  V30 33 1 31 6
M  V30 34 1 32 6
M  V30 35 1 33 8
M  V30 36 1 34 10
M  V30 37 1 35 12
M  V30 38 1 36 12
M  V30 39 1 37 13
M  V30 40 1 38 13
M  V30 41 1 14 39 CFG=3
M  V30 42 1 40 15
M  V30 43 1 41 15
M  V30 44 1 42 16
M  V30 45 1 43 17
M  V30 46 1 44 21
M  V30 47 1 22 45 CFG=1
M  V30 48 1 46 23
M  V30 49 1 47 23
M  V30 50 1 48 3
M  V30 51 1 49 26
M  V30 52 1 50 26
M  V30 53 1 51 1
M  V30 54 1 52 21
M  V30 END BOND
M  V30 END CTAB
M  END
>  <i_epik_Tot_Q>  (1) 
1

>  <i_epik_Tot_abs_Q>  (1) 
3

>  <i_i_glide_confnum>  (1) 
235

>  <i_i_glide_lignum>  (1) 
156

>  <i_i_glide_posenum>  (1) 
59

>  <i_i_glide_rotatable_bonds>  (1) 
8

>  <i_lp_mmshare_version>  (1) 
72125

>  <i_m_source_file_index>  (1) 
72

>  <i_f3d_flags>  (1) 
0

>  <num_sample>  (1) 
100

>  <b_lp_Chiralities_Consistent>  (1) 
1

>  <r_epik_Charging_Adjusted_Penalty>  (1) 
0.028021554502508948

>  <r_epik_Ionization_Penalty>  (1) 
0.028021554963738291

>  <r_epik_Ionization_Penalty_Charging>  (1) 
0.028021554502508948

>  <r_epik_Ionization_Penalty_Neutral>  (1) 
4.6122934257721838e-10

>  <r_epik_State_Penalty>  (1) 
-0

>  <r_glide_ring_energy>  (1) 
0

>  <r_i_docking_score>  (1) 
-7.5344775596803224

>  <r_i_glide_ecoul>  (1) 
-6.7817547059317347

>  <r_i_glide_eff_state_penalty>  (1) 
-0

>  <r_i_glide_einternal>  (1) 
10.762019545169244

>  <r_i_glide_emodel>  (1) 
-70.963925142319766

>  <r_i_glide_emodel_strain>  (1) 
0.55217213230188378

>  <r_i_glide_energy>  (1) 
-46.442565895487085

>  <r_i_glide_erotb>  (1) 
0.79881325193843611

>  <r_i_glide_esite>  (1) 
-0.037141155701056985

>  <r_i_glide_evdw>  (1) 
-39.660811189555353

>  <r_i_glide_gscore>  (1) 
-7.5344775596803224

>  <r_i_glide_gscore_strain>  (1) 
0

>  <r_i_glide_hbond>  (1) 
-0.16

>  <r_i_glide_ligand_efficiency>  (1) 
-0.28978759844924318

>  <r_i_glide_ligand_efficiency_ln>  (1) 
-1.7694473322535815

>  <r_i_glide_ligand_efficiency_sa>  (1) 
-0.85849462107909691

>  <r_i_glide_lipo>  (1) 
-3.2377135034237474

>  <r_i_glide_metal>  (1) 
-0

>  <r_i_glide_rewards>  (1) 
-1.8981323871264275

>  <r_lp_Energy>  (1) 
38.533868999999996

>  <r_lp_tautomer_probability>  (1) 
1

>  <s_epik_cmdline>  (1) 
J2VwaWtfcHl0aG9uJywgJy1waHQnLCAnMS4wJywgJy1waCcsICc3LjQnLCAnLXRuJywgJzgnLCAnLW1hJywgJzUwMCcsICctaW1hZScsICc8aW5maWxlLm1hZT4nLCAnLW9tYWUnLCAnPG91dGZpbGUubWFlPic=

>  <s_epik_input>  (1) 
W0NIMl0xW0NIMl1bQ0hdMVtOSF1bQ0gyXVtDQEBIXShDKD1PKVtPSF0pW0NIMl1bTkhdW0NASF0oW0NIMl1PMilbQ0gyXVtDSF09QyhbT0hdKVtDQEBIXTJjM1tjSF1bY0hdW2NIXVtjSF1jM0Ns

>  <s_glide_docking_method>  (1) 
confgen

>  <s_i_glide_gridfile>  (1) 
gpcr_5ht2c_6bqh_protein_autoprepared_prepared

>  <s_lp_Force_Field>  (1) 
S-OPLS

>  <s_lp_Variant>  (1) 
DiffSBDD_71-1

>  <s_m_source_file>  (1) 
generated_GPCR_5HT2C_ligand_DiffSBDD_2026-06-23_prepared.sdf

>  <GenAI_Model>  (1) 
DiffSBDD

>  <Protein>  (1) 
GPCR_5HT2C

$$$$
DiffSBDD_75
     RDKit          3D

  0  0  0  0  0  0  0  0  0  0999 V3000
M  V30 BEGIN CTAB
M  V30 COUNTS 77 78 0 0 1
M  V30 BEGIN ATOM
M  V30 1 C 38.107616 29.447885 59.216428 0
M  V30 2 C 40.162508 29.184362 62.254951 0
M  V30 3 O 39.243917 32.936283 59.403776 0
M  V30 4 C 39.719113 26.833589 58.651808 0
M  V30 5 C 39.023273 35.747418 61.955297 0 CFG=1
M  V30 6 C 38.498449 30.097970 53.786604 0
M  V30 7 C 39.330691 33.478203 60.700997 0 CFG=2
M  V30 8 C 37.746221 28.957097 53.414000 0
M  V30 9 O 39.257231 38.144911 61.765889 0
M  V30 10 C 37.143091 34.945718 60.384938 0 CFG=1
M  V30 11 O 39.700032 27.755937 50.568037 0
M  V30 12 S 37.742625 31.197485 61.310031 0
M  V30 13 C 38.471337 26.047763 58.221042 0
M  V30 14 C 39.303544 28.523479 51.603391 0
M  V30 15 C 38.913711 32.490187 61.814572 0
M  V30 16 C 38.077104 30.949745 54.975517 0
M  V30 17 C 39.644849 30.451324 53.048240 0
M  V30 18 O 37.247950 36.939955 58.967401 0
M  V30 19 C 36.625542 34.104609 59.193720 0
M  V30 20 C 38.676038 34.884566 60.703394 0 CFG=1
M  V30 21 O 38.730016 25.306385 57.043640 0
M  V30 22 O 39.249897 28.899114 61.206240 0
M  V30 23 O 38.083697 27.967726 56.076942 0
M  V30 24 C 41.296931 28.676803 58.432303 0
M  V30 25 N 39.991177 28.144869 57.991625 0 CFG=2 CHG=1
M  V30 26 C 38.129282 29.032486 56.680461 0
M  V30 27 C 38.157367 28.172182 52.327533 0
M  V30 28 C 37.364140 30.225123 56.127476 0
M  V30 29 C 38.960494 29.235319 57.947044 0 CFG=1
M  V30 30 C 40.040886 29.669451 51.952199 0
M  V30 31 C 37.040819 37.326249 61.352650 0
M  V30 32 C 38.837522 30.020444 60.440587 0 CFG=1
M  V30 33 C 40.518843 35.758005 62.349043 0
M  V30 34 C 36.708299 36.415423 60.162548 0 CFG=2
M  V30 35 C 38.511682 37.173173 61.706704 0
M  V30 36 H 37.285148 30.116320 58.963027 0
M  V30 37 H 37.640997 28.531716 59.521124 0
M  V30 38 H 40.491350 28.250690 62.710409 0
M  V30 39 H 41.050542 29.702132 61.887260 0
M  V30 40 H 39.698221 29.792485 63.029888 0
M  V30 41 H 38.328719 32.905198 59.159841 0
M  V30 42 H 40.573456 26.202408 58.403088 0
M  V30 43 H 39.713566 26.953650 59.732976 0
M  V30 44 H 40.402830 33.621327 60.825594 0
M  V30 45 H 36.860240 28.685961 53.965136 0
M  V30 46 H 36.810584 38.366833 61.117340 0
M  V30 47 H 36.614169 34.574500 61.264612 0
M  V30 48 H 40.413733 28.139943 50.083107 0
M  V30 49 H 38.249810 25.332863 59.004313 0
M  V30 50 H 37.572363 26.650683 58.137492 0
M  V30 51 H 38.480372 33.032110 62.647951 0
M  V30 52 H 39.799463 31.988794 62.200584 0
M  V30 53 H 38.956353 31.458854 55.368891 0
M  V30 54 H 37.422907 31.744199 54.618764 0
M  V30 55 H 40.215288 31.325106 53.324486 0
M  V30 56 H 36.893714 36.455146 58.231168 0
M  V30 57 H 37.206838 34.278096 58.284844 0
M  V30 58 H 36.635017 33.037997 59.412943 0
M  V30 59 H 35.586222 34.342944 58.959726 0
M  V30 60 H 39.180564 35.395844 59.896772 0
M  V30 61 H 39.382677 24.649763 57.230129 0
M  V30 62 H 41.440996 28.575430 59.507476 0
M  V30 63 H 42.122019 28.163334 57.937823 0
M  V30 64 H 41.330890 29.737002 58.196741 0
M  V30 65 H 37.594478 27.297617 52.047585 0
M  V30 66 H 37.244914 30.944171 56.933220 0
M  V30 67 H 36.369074 29.900084 55.827507 0
M  V30 68 H 39.455549 30.184449 57.758182 0
M  V30 69 H 40.919392 29.941760 51.387552 0
M  V30 70 H 36.450723 37.038251 62.223332 0
M  V30 71 H 38.459077 35.365512 62.803973 0
M  V30 72 H 39.722470 30.553598 60.103255 0
M  V30 73 H 40.707976 36.469639 63.153017 0
M  V30 74 H 40.853056 34.785410 62.709057 0
M  V30 75 H 41.151693 36.042269 61.505569 0
M  V30 76 H 35.645281 36.437959 60.004412 0
M  V30 77 H 40.091732 27.897681 57.015449 0
M  V30 END ATOM
M  V30 BEGIN BOND
M  V30 1 1 7 3
M  V30 2 1 8 6
M  V30 3 1 13 4
M  V30 4 1 14 11
M  V30 5 1 15 7
M  V30 6 1 15 12
M  V30 7 1 16 6
M  V30 8 2 17 6
M  V30 9 1 19 10
M  V30 10 1 20 5
M  V30 11 1 20 7
M  V30 12 1 20 10
M  V30 13 1 21 13
M  V30 14 1 22 2
M  V30 15 1 25 4
M  V30 16 1 25 24
M  V30 17 2 26 23
M  V30 18 2 27 8
M  V30 19 1 27 14
M  V30 20 1 28 16
M  V30 21 1 28 26
M  V30 22 1 29 1
M  V30 23 1 29 25
M  V30 24 1 29 26
M  V30 25 2 30 14
M  V30 26 1 30 17
M  V30 27 1 32 1
M  V30 28 1 32 12
M  V30 29 1 32 22
M  V30 30 1 33 5
M  V30 31 1 34 10
M  V30 32 1 34 18
M  V30 33 1 34 31
M  V30 34 1 35 5
M  V30 35 2 35 9
M  V30 36 1 35 31
M  V30 37 1 36 1
M  V30 38 1 37 1
M  V30 39 1 38 2
M  V30 40 1 39 2
M  V30 41 1 40 2
M  V30 42 1 41 3
M  V30 43 1 42 4
M  V30 44 1 43 4
M  V30 45 1 7 44 CFG=1
M  V30 46 1 45 8
M  V30 47 1 46 31
M  V30 48 1 10 47 CFG=1
M  V30 49 1 48 11
M  V30 50 1 49 13
M  V30 51 1 50 13
M  V30 52 1 51 15
M  V30 53 1 52 15
M  V30 54 1 53 16
M  V30 55 1 54 16
M  V30 56 1 55 17
M  V30 57 1 56 18
M  V30 58 1 57 19
M  V30 59 1 58 19
M  V30 60 1 59 19
M  V30 61 1 20 60 CFG=3
M  V30 62 1 61 21
M  V30 63 1 62 24
M  V30 64 1 63 24
M  V30 65 1 64 24
M  V30 66 1 65 27
M  V30 67 1 66 28
M  V30 68 1 67 28
M  V30 69 1 29 68 CFG=3
M  V30 70 1 69 30
M  V30 71 1 70 31
M  V30 72 1 5 71 CFG=1
M  V30 73 1 32 72 CFG=3
M  V30 74 1 73 33
M  V30 75 1 74 33
M  V30 76 1 75 33
M  V30 77 1 34 76 CFG=3
M  V30 78 1 25 77 CFG=3
M  V30 END BOND
M  V30 END CTAB
M  END
>  <i_epik_Tot_Q>  (1) 
1

>  <i_epik_Tot_abs_Q>  (1) 
1

>  <i_i_glide_confnum>  (1) 
5281

>  <i_i_glide_lignum>  (1) 
168

>  <i_i_glide_posenum>  (1) 
128

>  <i_i_glide_rotatable_bonds>  (1) 
18

>  <i_lp_mmshare_version>  (1) 
72125

>  <i_m_source_file_index>  (1) 
76

>  <i_f3d_flags>  (1) 
0

>  <num_sample>  (1) 
100

>  <b_lp_Chiralities_Consistent>  (1) 
1

>  <r_epik_Charging_Adjusted_Penalty>  (1) 
0.52789471212939676

>  <r_epik_Ionization_Penalty>  (1) 
0.26592108790513191

>  <r_epik_Ionization_Penalty_Charging>  (1) 
0.26394735606469838

>  <r_epik_Ionization_Penalty_Neutral>  (1) 
0.0019737318404335234

>  <r_epik_State_Penalty>  (1) 
0.26394735606469838

>  <r_glide_ring_energy>  (1) 
0

>  <r_i_docking_score>  (1) 
-7.5342974603638559

>  <r_i_glide_ecoul>  (1) 
-6.3855129014913778

>  <r_i_glide_eff_state_penalty>  (1) 
0.26394735606469838

>  <r_i_glide_einternal>  (1) 
12.445797940181151

>  <r_i_glide_emodel>  (1) 
-68.239229948317018

>  <r_i_glide_emodel_strain>  (1) 
2.9142283982367232

>  <r_i_glide_energy>  (1) 
-49.818257117627653

>  <r_i_glide_erotb>  (1) 
1.0139394581015995

>  <r_i_glide_esite>  (1) 
-0.0074898987773686799

>  <r_i_glide_evdw>  (1) 
-43.432744216136278

>  <r_i_glide_gscore>  (1) 
-7.7982448164285545

>  <r_i_glide_gscore_strain>  (1) 
0

>  <r_i_glide_hbond>  (1) 
-0.32000000000000001

>  <r_i_glide_ligand_efficiency>  (1) 
-0.2152656417246816

>  <r_i_glide_ligand_efficiency_ln>  (1) 
-1.6539455072727083

>  <r_i_glide_ligand_efficiency_sa>  (1) 
-0.70414818838673332

>  <r_i_glide_lipo>  (1) 
-4.416185287717771

>  <r_i_glide_metal>  (1) 
-0

>  <r_i_glide_rewards>  (1) 
-0.93904494200449373

>  <r_lp_Energy>  (1) 
30.563872

>  <r_lp_tautomer_probability>  (1) 
0.99989998499911525

>  <s_epik_Chemistry_Notes>  (1) 
This compound contains an acetal/aminal-like group ( X-CH(R)-Y where X, Y are N, S, or O) that may be acid/base labile, releasing an aldehyde.

>  <s_epik_cmdline>  (1) 
J2VwaWtfcHl0aG9uJywgJy1waHQnLCAnMS4wJywgJy1waCcsICc3LjQnLCAnLXRuJywgJzgnLCAnLW1hJywgJzUwMCcsICctaW1hZScsICc8aW5maWxlLm1hZT4nLCAnLW9tYWUnLCAnPG91dGZpbGUubWFlPic=

>  <s_epik_input>  (1) 
W2NIXTFbY0hdYyhbT0hdKVtjSF1bY0hdYzFbQ0gyXVtDSDJdQyg9TylbQ0BIXShOKFtDSDNdKVtDSDJdW0NIMl1bT0hdKVtDSDJdW0NASF0oT1tDSDNdKVNbQ0gyXVtDQEBIXShbT0hdKVtDQEhdMltDQEBIXShbQ0gzXSlbQ0BIXShbT0hdKVtDSDJdQyhbT0hdKT1DMltDSDNd

>  <s_glide_docking_method>  (1) 
confgen

>  <s_i_glide_gridfile>  (1) 
gpcr_5ht2c_6bqh_protein_autoprepared_prepared

>  <s_lp_Force_Field>  (1) 
S-OPLS

>  <s_lp_Variant>  (1) 
DiffSBDD_75-5

>  <s_m_source_file>  (1) 
generated_GPCR_5HT2C_ligand_DiffSBDD_2026-06-23_prepared.sdf

>  <GenAI_Model>  (1) 
DiffSBDD

>  <Protein>  (1) 
GPCR_5HT2C

$$$$
DiffSBDD_75
     RDKit          3D

  0  0  0  0  0  0  0  0  0  0999 V3000
M  V30 BEGIN CTAB
M  V30 COUNTS 77 78 0 0 1
M  V30 BEGIN ATOM
M  V30 1 C 39.353726 30.817090 56.228686 0
M  V30 2 C 38.274392 34.092388 55.453583 0
M  V30 3 O 36.557318 32.374583 60.776013 0
M  V30 4 C 38.911773 27.542144 58.048122 0
M  V30 5 C 38.440945 35.717488 60.906772 0 CFG=1
M  V30 6 C 38.677622 28.458239 52.261243 0
M  V30 7 C 37.049909 33.612431 60.291987 0 CFG=2
M  V30 8 C 39.140922 27.882891 51.071099 0
M  V30 9 O 39.465157 37.291416 62.441639 0
M  V30 10 C 39.570382 33.380025 61.191253 0 CFG=1
M  V30 11 O 41.363668 30.537660 49.836996 0
M  V30 12 S 38.444532 32.197495 58.356169 0
M  V30 13 C 40.433715 27.303875 57.961903 0
M  V30 14 C 40.491160 29.861907 50.636850 0
M  V30 15 C 37.292910 33.529070 58.771572 0
M  V30 16 C 37.658982 27.709753 53.120255 0
M  V30 17 C 39.144699 29.738203 52.639735 0
M  V30 18 O 40.446248 33.906815 63.416079 0
M  V30 19 C 39.424305 31.905620 61.641197 0
M  V30 20 C 38.217458 34.190770 61.168479 0 CFG=1
M  V30 21 O 40.844757 26.934004 56.666203 0
M  V30 22 O 39.139929 33.077043 55.900994 0
M  V30 23 O 36.845455 29.738701 55.008514 0
M  V30 24 C 37.104522 29.207438 58.182070 0
M  V30 25 N 38.498507 28.937605 57.738650 0 CFG=2 CHG=1
M  V30 26 C 37.765794 28.993980 55.330758 0
M  V30 27 C 40.045175 28.587258 50.265464 0
M  V30 28 C 37.941985 27.645888 54.632100 0
M  V30 29 C 38.833616 29.375273 56.349959 0 CFG=1
M  V30 30 C 40.045064 30.435548 51.826290 0
M  V30 31 C 40.913388 35.522529 61.701949 0
M  V30 32 C 38.466064 32.020837 56.556944 0 CFG=1
M  V30 33 C 37.172437 36.591837 61.040911 0
M  V30 34 C 40.694566 34.042990 62.032337 0 CFG=2
M  V30 35 C 39.594543 36.275726 61.758990 0
M  V30 36 H 40.197346 30.874263 56.892553 0
M  V30 37 H 39.779646 30.948286 55.234957 0
M  V30 38 H 38.846233 34.950323 55.109305 0
M  V30 39 H 37.644007 33.735437 54.637961 0
M  V30 40 H 37.645232 34.439038 56.259893 0
M  V30 41 H 35.856432 32.099982 60.202336 0
M  V30 42 H 38.606577 27.335599 59.074557 0
M  V30 43 H 38.370609 26.826429 57.427824 0
M  V30 44 H 36.184663 34.258787 60.424351 0
M  V30 45 H 38.797847 26.904725 50.769177 0
M  V30 46 H 41.637284 35.978755 62.378150 0
M  V30 47 H 39.968602 33.384332 60.180131 0
M  V30 48 H 41.527096 31.433193 50.104528 0
M  V30 49 H 41.009063 28.157775 58.324702 0
M  V30 50 H 40.690048 26.443924 58.567836 0
M  V30 51 H 37.656258 34.486248 58.407626 0
M  V30 52 H 36.354556 33.340311 58.254887 0
M  V30 53 H 36.673157 28.137250 52.930238 0
M  V30 54 H 37.602939 26.683836 52.756674 0
M  V30 55 H 38.794999 30.204532 53.528360 0
M  V30 56 H 41.158955 34.298190 63.897658 0
M  V30 57 H 38.920648 31.837135 62.605406 0
M  V30 58 H 38.857299 31.297917 60.940985 0
M  V30 59 H 40.397850 31.426585 61.746143 0
M  V30 60 H 37.827899 34.125037 62.167577 0
M  V30 61 H 41.619640 26.384563 56.736676 0
M  V30 62 H 36.445908 28.387733 57.903912 0
M  V30 63 H 37.067715 29.316932 59.266159 0
M  V30 64 H 36.691844 30.120454 57.754610 0
M  V30 65 H 40.411498 28.150522 49.367805 0
M  V30 66 H 37.245789 26.946727 55.094774 0
M  V30 67 H 38.943340 27.250183 54.804237 0
M  V30 68 H 39.715808 28.826828 56.047577 0
M  V30 69 H 40.386971 31.417455 52.118260 0
M  V30 70 H 41.316001 35.622628 60.693248 0
M  V30 71 H 38.778556 35.827054 59.880733 0
M  V30 72 H 37.464147 31.885559 56.157086 0
M  V30 73 H 37.404328 37.655898 60.972861 0
M  V30 74 H 36.461161 36.398829 60.238537 0
M  V30 75 H 36.671874 36.420445 61.994404 0
M  V30 76 H 41.629415 33.516392 61.835299 0
M  V30 77 H 39.073026 29.524026 58.327932 0
M  V30 END ATOM
M  V30 BEGIN BOND
M  V30 1 1 7 3
M  V30 2 1 8 6
M  V30 3 1 13 4
M  V30 4 1 14 11
M  V30 5 1 15 7
M  V30 6 1 15 12
M  V30 7 1 16 6
M  V30 8 2 17 6
M  V30 9 1 19 10
M  V30 10 1 20 5
M  V30 11 1 20 7
M  V30 12 1 20 10
M  V30 13 1 21 13
M  V30 14 1 22 2
M  V30 15 1 25 4
M  V30 16 1 25 24
M  V30 17 2 26 23
M  V30 18 2 27 8
M  V30 19 1 27 14
M  V30 20 1 28 16
M  V30 21 1 28 26
M  V30 22 1 29 1
M  V30 23 1 29 25
M  V30 24 1 29 26
M  V30 25 2 30 14
M  V30 26 1 30 17
M  V30 27 1 32 1
M  V30 28 1 32 12
M  V30 29 1 32 22
M  V30 30 1 33 5
M  V30 31 1 34 10
M  V30 32 1 34 18
M  V30 33 1 34 31
M  V30 34 1 35 5
M  V30 35 2 35 9
M  V30 36 1 35 31
M  V30 37 1 36 1
M  V30 38 1 37 1
M  V30 39 1 38 2
M  V30 40 1 39 2
M  V30 41 1 40 2
M  V30 42 1 41 3
M  V30 43 1 42 4
M  V30 44 1 43 4
M  V30 45 1 7 44 CFG=3
M  V30 46 1 45 8
M  V30 47 1 46 31
M  V30 48 1 10 47 CFG=3
M  V30 49 1 48 11
M  V30 50 1 49 13
M  V30 51 1 50 13
M  V30 52 1 51 15
M  V30 53 1 52 15
M  V30 54 1 53 16
M  V30 55 1 54 16
M  V30 56 1 55 17
M  V30 57 1 56 18
M  V30 58 1 57 19
M  V30 59 1 58 19
M  V30 60 1 59 19
M  V30 61 1 20 60 CFG=1
M  V30 62 1 61 21
M  V30 63 1 62 24
M  V30 64 1 63 24
M  V30 65 1 64 24
M  V30 66 1 65 27
M  V30 67 1 66 28
M  V30 68 1 67 28
M  V30 69 1 29 68 CFG=3
M  V30 70 1 69 30
M  V30 71 1 70 31
M  V30 72 1 5 71 CFG=3
M  V30 73 1 32 72 CFG=3
M  V30 74 1 73 33
M  V30 75 1 74 33
M  V30 76 1 75 33
M  V30 77 1 34 76 CFG=1
M  V30 78 1 25 77 CFG=1
M  V30 END BOND
M  V30 END CTAB
M  END
>  <i_epik_Tot_Q>  (1) 
1

>  <i_epik_Tot_abs_Q>  (1) 
1

>  <i_i_glide_confnum>  (1) 
71

>  <i_i_glide_lignum>  (1) 
168

>  <i_i_glide_posenum>  (1) 
193

>  <i_i_glide_rotatable_bonds>  (1) 
18

>  <i_lp_mmshare_version>  (1) 
72125

>  <i_m_source_file_index>  (1) 
76

>  <i_f3d_flags>  (1) 
0

>  <num_sample>  (1) 
100

>  <b_lp_Chiralities_Consistent>  (1) 
1

>  <r_epik_Charging_Adjusted_Penalty>  (1) 
0.52789471212939676

>  <r_epik_Ionization_Penalty>  (1) 
0.26592108790513191

>  <r_epik_Ionization_Penalty_Charging>  (1) 
0.26394735606469838

>  <r_epik_Ionization_Penalty_Neutral>  (1) 
0.0019737318404335234

>  <r_epik_State_Penalty>  (1) 
0.26394735606469838

>  <r_glide_ring_energy>  (1) 
0

>  <r_i_docking_score>  (1) 
-7.5286453951269463

>  <r_i_glide_ecoul>  (1) 
-7.7404114683140204

>  <r_i_glide_eff_state_penalty>  (1) 
0.26394735606469838

>  <r_i_glide_einternal>  (1) 
12.011091310177925

>  <r_i_glide_emodel>  (1) 
-66.415141547571693

>  <r_i_glide_emodel_strain>  (1) 
3.260415023976563

>  <r_i_glide_energy>  (1) 
-48.142975776046875

>  <r_i_glide_erotb>  (1) 
1.0139394581015995

>  <r_i_glide_esite>  (1) 
0

>  <r_i_glide_evdw>  (1) 
-40.402564307732852

>  <r_i_glide_gscore>  (1) 
-7.7925927511916449

>  <r_i_glide_gscore_strain>  (1) 
0

>  <r_i_glide_hbond>  (1) 
-0.32000000000000001

>  <r_i_glide_ligand_efficiency>  (1) 
-0.21510415414648418

>  <r_i_glide_ligand_efficiency_ln>  (1) 
-1.6527047535123773

>  <r_i_glide_ligand_efficiency_sa>  (1) 
-0.70361995181017778

>  <r_i_glide_lipo>  (1) 
-4.1283936385054689

>  <r_i_glide_metal>  (1) 
-0

>  <r_i_glide_rewards>  (1) 
-1.1769486351540306

>  <r_lp_Energy>  (1) 
30.563872

>  <r_lp_tautomer_probability>  (1) 
0.99989998499911525

>  <s_epik_Chemistry_Notes>  (1) 
This compound contains an acetal/aminal-like group ( X-CH(R)-Y where X, Y are N, S, or O) that may be acid/base labile, releasing an aldehyde.

>  <s_epik_cmdline>  (1) 
J2VwaWtfcHl0aG9uJywgJy1waHQnLCAnMS4wJywgJy1waCcsICc3LjQnLCAnLXRuJywgJzgnLCAnLW1hJywgJzUwMCcsICctaW1hZScsICc8aW5maWxlLm1hZT4nLCAnLW9tYWUnLCAnPG91dGZpbGUubWFlPic=

>  <s_epik_input>  (1) 
W2NIXTFbY0hdYyhbT0hdKVtjSF1bY0hdYzFbQ0gyXVtDSDJdQyg9TylbQ0BIXShOKFtDSDNdKVtDSDJdW0NIMl1bT0hdKVtDSDJdW0NASF0oT1tDSDNdKVNbQ0gyXVtDQEBIXShbT0hdKVtDQEhdMltDQEBIXShbQ0gzXSlbQ0BIXShbT0hdKVtDSDJdQyhbT0hdKT1DMltDSDNd

>  <s_glide_docking_method>  (1) 
confgen

>  <s_i_glide_gridfile>  (1) 
gpcr_5ht2c_6bqh_protein_autoprepared_prepared

>  <s_lp_Force_Field>  (1) 
S-OPLS

>  <s_lp_Variant>  (1) 
DiffSBDD_75-5

>  <s_m_source_file>  (1) 
generated_GPCR_5HT2C_ligand_DiffSBDD_2026-06-23_prepared.sdf

>  <GenAI_Model>  (1) 
DiffSBDD

>  <Protein>  (1) 
GPCR_5HT2C

$$$$
DiffSBDD_53
     RDKit          3D

  0  0  0  0  0  0  0  0  0  0999 V3000
M  V30 BEGIN CTAB
M  V30 COUNTS 81 85 0 0 1
M  V30 BEGIN ATOM
M  V30 1 C 35.606227 32.896570 59.866502 0
M  V30 2 C 39.810413 27.506150 57.001700 0
M  V30 3 C 40.045128 30.698534 52.363170 0
M  V30 4 C 35.970491 31.418810 60.136188 0
M  V30 5 C 38.750693 28.389490 54.222354 0
M  V30 6 C 37.549470 36.968345 62.922007 0
M  V30 7 C 39.855207 33.620834 60.980703 0
M  V30 8 N 36.767865 33.803383 59.697251 0 CHG=1
M  V30 9 N 41.394468 30.537754 49.767789 0
M  V30 10 C 37.560636 25.610340 57.503364 0
M  V30 11 C 37.293872 34.464366 60.921853 0 CFG=1
M  V30 12 N 36.445217 30.695946 58.967757 0
M  V30 13 C 39.161075 29.619906 54.605460 0
M  V30 14 C 37.985703 27.547535 55.209248 0
M  V30 15 C 38.452143 33.678823 61.525072 0 CFG=1
M  V30 16 C 38.107943 29.400421 56.817853 0 CFG=1
M  V30 17 C 37.779839 35.886888 60.579441 0 CFG=2
M  V30 18 C 40.031159 30.116761 49.989455 0
M  V30 19 O 38.086135 32.489872 62.167761 0
M  V30 20 C 37.823568 30.917858 58.598606 0
M  V30 21 C 40.033176 25.982859 56.963081 0
M  V30 22 C 39.002746 25.175824 57.767672 0
M  V30 23 C 38.341114 27.881684 56.668700 0
M  V30 24 O 38.449816 29.763762 58.130782 0
M  V30 25 C 37.472103 27.130988 57.698178 0
M  V30 26 C 38.491145 36.587530 61.761750 0 CFG=2
M  V30 27 O 36.728191 36.683454 60.073858 0
M  V30 28 C 39.475228 28.354455 51.746822 0
M  V30 29 N 39.668369 35.816208 62.267474 0 CFG=2 CHG=1
M  V30 30 O 38.870436 30.102551 55.873895 0
M  V30 31 C 40.972091 36.282302 61.752266 0
M  V30 32 C 39.570367 34.328480 62.307408 0 CFG=2
M  V30 33 C 39.019069 27.791858 52.901631 0
M  V30 34 C 39.981597 30.574702 53.833510 0
M  V30 35 C 39.847297 29.742012 51.443198 0
M  V30 36 H 34.965953 33.268639 60.667528 0
M  V30 37 H 34.994344 32.956521 58.967764 0
M  V30 38 H 40.518303 27.994810 56.332399 0
M  V30 39 H 40.067955 27.859739 58.001000 0
M  V30 40 H 40.322516 31.682238 52.009072 0
M  V30 41 H 36.637083 31.247363 60.967122 0
M  V30 42 H 35.053079 30.937755 60.452379 0
M  V30 43 H 36.846173 37.745829 62.622290 0
M  V30 44 H 36.955290 36.137772 63.288206 0
M  V30 45 H 38.109177 37.356293 63.773586 0
M  V30 46 H 40.364793 32.656854 61.016478 0
M  V30 47 H 40.045131 34.197928 60.080318 0
M  V30 48 H 36.440578 34.557219 59.105271 0
M  V30 49 H 42.029816 29.760252 49.870113 0
M  V30 50 H 41.525248 30.916798 48.841464 0
M  V30 51 H 36.882625 25.090932 58.174746 0
M  V30 52 H 37.238325 25.310383 56.509262 0
M  V30 53 H 36.499085 34.540885 61.665725 0
M  V30 54 H 35.855606 30.946166 58.153866 0
M  V30 55 H 36.934139 27.668398 54.967739 0
M  V30 56 H 38.204640 26.504539 54.988527 0
M  V30 57 H 37.058329 29.635469 56.621002 0
M  V30 58 H 38.491561 35.820937 59.767787 0
M  V30 59 H 39.781107 29.285772 49.330261 0
M  V30 60 H 39.358441 30.940385 49.747705 0
M  V30 61 H 38.861572 32.039664 62.473118 0
M  V30 62 H 37.898110 31.717253 57.857409 0
M  V30 63 H 38.397677 31.212767 59.476854 0
M  V30 64 H 40.995180 25.798658 57.417139 0
M  V30 65 H 40.076497 25.623122 55.934416 0
M  V30 66 H 39.202839 25.342761 58.822923 0
M  V30 67 H 39.127199 24.107442 57.584587 0
M  V30 68 H 37.899298 27.369851 58.669057 0
M  V30 69 H 36.445138 27.476563 57.767760 0
M  V30 70 H 38.868052 37.540345 61.385069 0
M  V30 71 H 36.206739 37.019316 60.788384 0
M  V30 72 H 39.543236 27.673142 50.910811 0
M  V30 73 H 41.070176 36.138723 60.676459 0
M  V30 74 H 41.085966 37.337753 61.961121 0
M  V30 75 H 41.788293 35.762600 62.253906 0
M  V30 76 H 39.955998 33.885725 63.224025 0
M  V30 77 H 38.786992 26.739999 52.825113 0
M  V30 78 H 39.617009 31.552462 54.152686 0
M  V30 79 H 40.999316 30.537716 54.217999 0
M  V30 80 H 39.711481 36.081204 63.242697 0
M  V30 81 H 37.502563 33.319882 59.200983 0
M  V30 END ATOM
M  V30 BEGIN BOND
M  V30 1 1 4 1
M  V30 2 1 8 1
M  V30 3 1 11 8
M  V30 4 1 12 4
M  V30 5 2 13 5
M  V30 6 1 14 5
M  V30 7 1 15 7
M  V30 8 1 15 11
M  V30 9 1 17 11
M  V30 10 1 18 9
M  V30 11 1 15 19 CFG=1
M  V30 12 1 20 12
M  V30 13 1 21 2
M  V30 14 1 22 10
M  V30 15 1 22 21
M  V30 16 1 23 2
M  V30 17 1 23 14
M  V30 18 1 23 16
M  V30 19 1 24 16
M  V30 20 1 24 20
M  V30 21 1 25 10
M  V30 22 1 25 23
M  V30 23 1 26 6
M  V30 24 1 26 17
M  V30 25 1 27 17
M  V30 26 1 29 26
M  V30 27 1 30 13
M  V30 28 1 30 16
M  V30 29 1 31 29
M  V30 30 1 32 7
M  V30 31 1 32 15
M  V30 32 1 32 29
M  V30 33 1 33 5
M  V30 34 2 33 28
M  V30 35 1 34 3
M  V30 36 1 34 13
M  V30 37 2 35 3
M  V30 38 1 35 18
M  V30 39 1 35 28
M  V30 40 1 36 1
M  V30 41 1 37 1
M  V30 42 1 38 2
M  V30 43 1 39 2
M  V30 44 1 40 3
M  V30 45 1 41 4
M  V30 46 1 42 4
M  V30 47 1 43 6
M  V30 48 1 44 6
M  V30 49 1 45 6
M  V30 50 1 46 7
M  V30 51 1 47 7
M  V30 52 1 48 8
M  V30 53 1 49 9
M  V30 54 1 50 9
M  V30 55 1 51 10
M  V30 56 1 52 10
M  V30 57 1 11 53 CFG=1
M  V30 58 1 54 12
M  V30 59 1 55 14
M  V30 60 1 56 14
M  V30 61 1 16 57 CFG=3
M  V30 62 1 17 58 CFG=3
M  V30 63 1 59 18
M  V30 64 1 60 18
M  V30 65 1 61 19
M  V30 66 1 62 20
M  V30 67 1 63 20
M  V30 68 1 64 21
M  V30 69 1 65 21
M  V30 70 1 66 22
M  V30 71 1 67 22
M  V30 72 1 68 25
M  V30 73 1 69 25
M  V30 74 1 26 70 CFG=3
M  V30 75 1 71 27
M  V30 76 1 72 28
M  V30 77 1 73 31
M  V30 78 1 74 31
M  V30 79 1 75 31
M  V30 80 1 32 76 CFG=1
M  V30 81 1 77 33
M  V30 82 1 78 34
M  V30 83 1 79 34
M  V30 84 1 29 80 CFG=1
M  V30 85 1 81 8
M  V30 END BOND
M  V30 END CTAB
M  END
>  <i_epik_Tot_Q>  (1) 
2

>  <i_epik_Tot_abs_Q>  (1) 
2

>  <i_i_glide_confnum>  (1) 
608

>  <i_i_glide_lignum>  (1) 
111

>  <i_i_glide_posenum>  (1) 
270

>  <i_i_glide_rotatable_bonds>  (1) 
10

>  <i_lp_mmshare_version>  (1) 
72125

>  <i_m_source_file_index>  (1) 
54

>  <i_f3d_flags>  (1) 
0

>  <num_sample>  (1) 
100

>  <b_lp_Chiralities_Consistent>  (1) 
1

>  <r_epik_Charging_Adjusted_Penalty>  (1) 
1.1947924258661535

>  <r_epik_Ionization_Penalty>  (1) 
1.111601378610803

>  <r_epik_Ionization_Penalty_Charging>  (1) 
0.15856543202638063

>  <r_epik_Ionization_Penalty_Neutral>  (1) 
0.95303594658442226

>  <r_epik_State_Penalty>  (1) 
1.036226993839773

>  <r_glide_ring_energy>  (1) 
0.00054242717464313866

>  <r_i_docking_score>  (1) 
-7.521285644748164

>  <r_i_glide_ecoul>  (1) 
-6.8299312695015528

>  <r_i_glide_eff_state_penalty>  (1) 
1.036226993839773

>  <r_i_glide_einternal>  (1) 
9.0993332805882208

>  <r_i_glide_emodel>  (1) 
-61.286587020720575

>  <r_i_glide_emodel_strain>  (1) 
2.9226191911812691

>  <r_i_glide_energy>  (1) 
-45.682740494530627

>  <r_i_glide_erotb>  (1) 
0.59168961163588141

>  <r_i_glide_esite>  (1) 
-0.12957114678969076

>  <r_i_glide_evdw>  (1) 
-38.852809225029077

>  <r_i_glide_gscore>  (1) 
-8.5575126385879372

>  <r_i_glide_gscore_strain>  (1) 
0

>  <r_i_glide_hbond>  (1) 
-0.16

>  <r_i_glide_ligand_efficiency>  (1) 
-0.21489387556423326

>  <r_i_glide_ligand_efficiency_ln>  (1) 
-1.6510891249633755

>  <r_i_glide_ligand_efficiency_sa>  (1) 
-0.70293211662402255

>  <r_i_glide_lipo>  (1) 
-4.9290377926665316

>  <r_i_glide_metal>  (1) 
-0

>  <r_i_glide_rewards>  (1) 
-0.96346315909091063

>  <r_lp_Energy>  (1) 
67.197417000000002

>  <s_epik_Chemistry_Notes>  (1) 
This compound contains an acetal/aminal-like group ( X-CH(R)-Y where X, Y are N, S, or O) that may be acid/base labile, releasing an aldehyde.

>  <s_epik_cmdline>  (1) 
J2VwaWtfcHl0aG9uJywgJy1waHQnLCAnMS4wJywgJy1waCcsICc3LjQnLCAnLXRuJywgJzgnLCAnLW1hJywgJzUwMCcsICctaW1hZScsICc8aW5maWxlLm1hZT4nLCAnLW9tYWUnLCAnPG91dGZpbGUubWFlPic=

>  <s_epik_input>  (1) 
W09IXVtDQEBdMTJbQ0BASF0oW0NIMl0xKU4oW0NIM10pW0NASF0oW0NIM10pW0NASF0oW09IXSlbQ0BIXTJbTkhdW0NIMl1bQ0gyXVtOSF1bQ0gyXU9bQ0BIXTNPQyhbQ0gyXVtDSF09QyhbQ0gyXVtOSDJdKVtDSF09W0NIXTQpPUM0W0NIMl1DMzVbQ0gyXVtDSDJdW0NIMl1bQ0gyXVtDSDJdNQ==

>  <s_glide_docking_method>  (1) 
confgen

>  <s_i_glide_gridfile>  (1) 
gpcr_5ht2c_6bqh_protein_autoprepared_prepared

>  <s_lp_Force_Field>  (1) 
S-OPLS

>  <s_lp_Variant>  (1) 
DiffSBDD_53-3

>  <s_m_source_file>  (1) 
generated_GPCR_5HT2C_ligand_DiffSBDD_2026-06-23_prepared.sdf

>  <GenAI_Model>  (1) 
DiffSBDD

>  <Protein>  (1) 
GPCR_5HT2C

$$$$
DiffSBDD_84
     RDKit          3D

  0  0  0  0  0  0  0  0  0  0999 V3000
M  V30 BEGIN CTAB
M  V30 COUNTS 77 81 0 0 1
M  V30 BEGIN ATOM
M  V30 1 C 34.766136 34.354803 58.933971 0
M  V30 2 C 39.423384 29.683301 53.560428 0
M  V30 3 C 37.814726 29.631013 56.220814 0
M  V30 4 C 39.176729 36.731867 61.656063 0
M  V30 5 S 39.478927 33.338001 59.890913 0
M  V30 6 C 40.412031 29.428360 49.432733 0
M  V30 7 C 39.555549 28.318638 51.355010 0
M  V30 8 C 39.888243 29.014317 60.702049 0
M  V30 9 O 38.187592 36.812686 62.666838 0
M  V30 10 C 39.730559 28.087367 56.478656 0
M  V30 11 C 39.115754 27.084703 52.148972 0
M  V30 12 C 39.322005 29.658187 52.041110 0 CFG=2
M  V30 13 C 38.839293 29.326321 58.506841 0
M  V30 14 N 33.432561 33.737765 58.967755 0 CHG=1
M  V30 15 C 39.905273 35.361366 61.663129 0
M  V30 16 C 35.564295 34.014998 60.185989 0
M  V30 17 N 40.045029 28.229728 50.183148 0
M  V30 18 C 38.886547 29.583948 59.900428 0
M  V30 19 N 37.362680 32.228430 58.760797 0
M  V30 20 N 38.694685 28.748590 55.681286 0
M  V30 21 C 41.078557 30.466487 50.333575 0
M  V30 22 C 39.787398 28.436080 57.950881 0
M  V30 23 N 39.076749 34.215269 61.265578 0
M  V30 24 C 40.601540 35.018144 62.991869 0
M  V30 25 C 38.703303 28.506777 54.222777 0 CFG=2
M  V30 26 O 36.952986 30.137791 55.500441 0
M  V30 27 C 40.791536 27.870557 58.759876 0
M  V30 28 O 41.645189 35.920718 63.284379 0
M  V30 29 C 40.063430 30.867433 51.403763 0
M  V30 30 C 37.885051 33.562407 59.082818 0 CFG=1
M  V30 31 C 39.245098 27.159147 53.694280 0
M  V30 32 N 38.131311 31.525448 57.782210 0
M  V30 33 N 37.660281 34.440587 61.367901 0 CHG=1
M  V30 34 C 40.844804 28.167635 60.131262 0
M  V30 35 C 37.838779 30.085632 57.701331 0 CFG=1
M  V30 36 C 37.028796 34.428639 60.041008 0 CFG=2
M  V30 37 H 34.691379 35.429366 58.809604 0
M  V30 38 H 35.306323 34.023141 58.058014 0
M  V30 39 H 38.983545 30.624725 53.891950 0
M  V30 40 H 40.445367 29.737808 53.899229 0
M  V30 41 H 38.711260 36.920998 60.689903 0
M  V30 42 H 39.898670 37.532783 61.820691 0
M  V30 43 H 41.040434 29.191901 48.569633 0
M  V30 44 H 39.535126 29.873458 48.984575 0
M  V30 45 H 39.922758 29.231688 61.759622 0
M  V30 46 H 37.957380 37.722268 62.796208 0
M  V30 47 H 39.590019 27.007409 56.408957 0
M  V30 48 H 40.705100 28.307656 56.042304 0
M  V30 49 H 39.645197 26.210574 51.770034 0
M  V30 50 H 32.897432 34.055786 58.171224 0
M  V30 51 H 33.531538 32.733424 58.916171 0
M  V30 52 H 40.700266 35.435370 60.917556 0
M  V30 53 H 35.482095 32.952285 60.417757 0
M  V30 54 H 35.142839 34.531650 61.045336 0
M  V30 55 H 38.156314 30.239151 60.349081 0
M  V30 56 H 36.417503 32.293701 58.373942 0
M  V30 57 H 41.982059 30.058279 50.787056 0
M  V30 58 H 41.378228 31.337616 49.751001 0
M  V30 59 H 39.883793 35.015063 63.803713 0
M  V30 60 H 41.038394 34.020386 62.943241 0
M  V30 61 H 37.666178 28.515665 53.879952 0
M  V30 62 H 41.521387 27.202710 58.325006 0
M  V30 63 H 41.305395 36.684857 63.734182 0
M  V30 64 H 40.569615 31.453300 52.167979 0
M  V30 65 H 39.344459 31.545179 50.942902 0
M  V30 66 H 38.030869 34.102478 58.145374 0
M  V30 67 H 40.267504 26.937822 53.999703 0
M  V30 68 H 38.651528 26.347174 54.119147 0
M  V30 69 H 39.119084 31.663719 57.984841 0
M  V30 70 H 37.309859 33.681763 61.932480 0
M  V30 71 H 41.617944 27.737959 60.748529 0
M  V30 72 H 36.831795 29.900020 58.081531 0
M  V30 73 H 37.075459 35.459032 59.685182 0
M  V30 74 H 37.545992 35.329494 61.853938 0
M  V30 75 H 38.264498 29.737744 51.878921 0
M  V30 76 H 38.063310 26.937628 51.901421 0
M  V30 77 H 32.947534 34.001995 59.814952 0
M  V30 END ATOM
M  V30 BEGIN BOND
M  V30 1 1 9 4
M  V30 2 1 11 7
M  V30 3 1 12 2
M  V30 4 1 12 7
M  V30 5 1 14 1
M  V30 6 1 15 4
M  V30 7 1 16 1
M  V30 8 1 17 6
M  V30 9 2 17 7
M  V30 10 1 18 8
M  V30 11 2 18 13
M  V30 12 1 20 3
M  V30 13 1 20 10
M  V30 14 1 21 6
M  V30 15 1 22 10
M  V30 16 1 22 13
M  V30 17 1 23 5
M  V30 18 1 23 15
M  V30 19 1 24 15
M  V30 20 1 25 2
M  V30 21 1 25 20
M  V30 22 2 26 3
M  V30 23 2 27 22
M  V30 24 1 28 24
M  V30 25 1 29 12
M  V30 26 1 29 21
M  V30 27 1 30 5
M  V30 28 1 30 19
M  V30 29 1 31 11
M  V30 30 1 31 25
M  V30 31 1 32 19
M  V30 32 1 33 23
M  V30 33 2 34 8
M  V30 34 1 34 27
M  V30 35 1 35 3
M  V30 36 1 35 13
M  V30 37 1 35 32
M  V30 38 1 36 16
M  V30 39 1 36 30
M  V30 40 1 36 33
M  V30 41 1 37 1
M  V30 42 1 38 1
M  V30 43 1 39 2
M  V30 44 1 40 2
M  V30 45 1 41 4
M  V30 46 1 42 4
M  V30 47 1 43 6
M  V30 48 1 44 6
M  V30 49 1 45 8
M  V30 50 1 46 9
M  V30 51 1 47 10
M  V30 52 1 48 10
M  V30 53 1 49 11
M  V30 54 1 50 14
M  V30 55 1 51 14
M  V30 56 1 52 15
M  V30 57 1 53 16
M  V30 58 1 54 16
M  V30 59 1 55 18
M  V30 60 1 56 19
M  V30 61 1 57 21
M  V30 62 1 58 21
M  V30 63 1 59 24
M  V30 64 1 60 24
M  V30 65 1 25 61 CFG=3
M  V30 66 1 62 27
M  V30 67 1 63 28
M  V30 68 1 64 29
M  V30 69 1 65 29
M  V30 70 1 30 66 CFG=3
M  V30 71 1 67 31
M  V30 72 1 68 31
M  V30 73 1 69 32
M  V30 74 1 70 33
M  V30 75 1 71 34
M  V30 76 1 35 72 CFG=1
M  V30 77 1 36 73 CFG=3
M  V30 78 1 74 33
M  V30 79 1 12 75 CFG=1
M  V30 80 1 76 11
M  V30 81 1 77 14
M  V30 END BOND
M  V30 END CTAB
M  END
>  <i_epik_Tot_Q>  (1) 
2

>  <i_epik_Tot_abs_Q>  (1) 
2

>  <i_i_glide_confnum>  (1) 
576

>  <i_i_glide_lignum>  (1) 
198

>  <i_i_glide_posenum>  (1) 
272

>  <i_i_glide_rotatable_bonds>  (1) 
11

>  <i_lp_mmshare_version>  (1) 
72125

>  <i_m_source_file_index>  (1) 
85

>  <i_f3d_flags>  (1) 
0

>  <num_sample>  (1) 
100

>  <b_lp_Chiralities_Consistent>  (1) 
1

>  <r_epik_Charging_Adjusted_Penalty>  (1) 
0.034284474231679775

>  <r_epik_Ionization_Penalty>  (1) 
0.42650113434003467

>  <r_epik_Ionization_Penalty_Charging>  (1) 
0.012847136256187231

>  <r_epik_Ionization_Penalty_Neutral>  (1) 
0.41365399808384745

>  <r_epik_State_Penalty>  (1) 
0.021437337975492542

>  <r_glide_ring_energy>  (1) 
0.20284343658850437

>  <r_i_docking_score>  (1) 
-7.519412658593585

>  <r_i_glide_ecoul>  (1) 
-4.9320118468133787

>  <r_i_glide_eff_state_penalty>  (1) 
0.021437337975492542

>  <r_i_glide_einternal>  (1) 
16.806414716641619

>  <r_i_glide_emodel>  (1) 
-54.548861580148809

>  <r_i_glide_emodel_strain>  (1) 
6.0116757466292796

>  <r_i_glide_energy>  (1) 
-39.217574214952471

>  <r_i_glide_erotb>  (1) 
0.60855438394346106

>  <r_i_glide_esite>  (1) 
-0.24855229925205227

>  <r_i_glide_evdw>  (1) 
-34.28556236813909

>  <r_i_glide_gscore>  (1) 
-7.5408499965690776

>  <r_i_glide_gscore_strain>  (1) 
0.5029189366573199

>  <r_i_glide_hbond>  (1) 
-0.34453213450452441

>  <r_i_glide_ligand_efficiency>  (1) 
-0.2088725738498218

>  <r_i_glide_ligand_efficiency_ln>  (1) 
-1.6405326910520821

>  <r_i_glide_ligand_efficiency_sa>  (1) 
-0.68968204314148196

>  <r_i_glide_lipo>  (1) 
-4.0925766824109626

>  <r_i_glide_metal>  (1) 
-0

>  <r_i_glide_rewards>  (1) 
-1.5125823055733578

>  <r_lp_Energy>  (1) 
53.693352999999995

>  <r_lp_tautomer_probability>  (1) 
0.99998399999999998

>  <s_epik_Chemistry_Notes>  (1) 
This compound has an imine and may undergo hydrolysis. This compound contains an acetal/aminal-like group ( X-CH(R)-Y where X, Y are N, S, or O) that may be acid/base labile, releasing an aldehyde. This compound has a N-S or N-O group and may undergo hydrolysis at high or low pH.

>  <s_epik_cmdline>  (1) 
J2VwaWtfcHl0aG9uJywgJy1waHQnLCAnMS4wJywgJy1waCcsICc3LjQnLCAnLXRuJywgJzgnLCAnLW1hJywgJzUwMCcsICctaW1hZScsICc8aW5maWxlLm1hZT4nLCAnLW9tYWUnLCAnPG91dGZpbGUubWFlPic=

>  <s_epik_input>  (1) 
W09IXVtDSDJdW0NIXShbQ0gyXVtPSF0pTjFTW0NASF0oW0NASF0oW05IXTEpW0NIMl1bQ0gyXVtOSDJdKVtOSF1bTkhdW0NASF0yQyg9TylOKFtDSDJdYyhjMjMpW2NIXVtjSF1bY0hdW2NIXTMpW0NASF0oW0NIMl1bQ0gyXTQpW0NIMl1DKD1DNDUpW0NIMl1bQ0gyXVtDSDJdW05IXTU=

>  <s_glide_docking_method>  (1) 
confgen

>  <s_i_glide_gridfile>  (1) 
gpcr_5ht2c_6bqh_protein_autoprepared_prepared

>  <s_lp_Force_Field>  (1) 
S-OPLS

>  <s_lp_Variant>  (1) 
DiffSBDD_84-1

>  <s_m_source_file>  (1) 
generated_GPCR_5HT2C_ligand_DiffSBDD_2026-06-23_prepared.sdf

>  <GenAI_Model>  (1) 
DiffSBDD

>  <Protein>  (1) 
GPCR_5HT2C

$$$$
DiffSBDD_75
     RDKit          3D

  0  0  0  0  0  0  0  0  0  0999 V3000
M  V30 BEGIN CTAB
M  V30 COUNTS 77 78 0 0 1
M  V30 BEGIN ATOM
M  V30 1 C 39.399604 29.901630 61.663110 0
M  V30 2 C 36.271005 31.576258 60.611961 0
M  V30 3 O 36.846530 30.077008 55.719199 0
M  V30 4 C 39.908576 30.362658 65.172692 0
M  V30 5 C 39.673762 30.494836 55.511671 0 CFG=2
M  V30 6 C 38.751218 35.407956 61.021944 0
M  V30 7 C 37.613905 29.332566 56.650670 0 CFG=2
M  V30 8 C 37.469645 35.633464 60.471348 0
M  V30 9 O 38.727756 31.738515 53.700241 0
M  V30 10 C 39.370240 27.993901 55.281424 0 CFG=2
M  V30 11 O 36.961080 39.170928 61.367619 0
M  V30 12 S 38.214406 29.099053 59.374615 0
M  V30 13 C 40.420058 29.360583 66.225646 0
M  V30 14 C 37.547700 37.945187 61.240961 0
M  V30 15 C 37.324431 29.921297 58.038583 0
M  V30 16 C 39.398667 34.046002 60.912023 0
M  V30 17 C 39.430219 36.456573 61.672557 0
M  V30 18 O 39.025770 27.089222 53.043459 0
M  V30 19 C 39.029217 26.640285 55.920434 0
M  V30 20 C 39.098482 29.224739 56.194869 0 CFG=1
M  V30 21 O 41.633079 29.805976 66.802582 0
M  V30 22 O 37.258377 30.849839 61.324703 0
M  V30 23 O 41.629513 32.038527 61.641828 0
M  V30 24 C 41.489893 29.244914 63.523064 0
M  V30 25 N 40.632787 30.411466 63.865912 0 CFG=1 CHG=1
M  V30 26 C 40.520865 32.134922 62.160207 0
M  V30 27 C 36.870843 36.903809 60.581899 0
M  V30 28 C 39.855123 33.500435 62.274825 0
M  V30 29 C 39.778596 30.934916 62.752872 0 CFG=1
M  V30 30 C 38.831323 37.721742 61.775959 0
M  V30 31 C 39.191858 29.449314 53.175862 0
M  V30 32 C 38.416358 30.428747 60.599203 0 CFG=1
M  V30 33 C 39.445670 31.789550 56.314405 0
M  V30 34 C 38.715719 28.176244 53.890934 0 CFG=2
M  V30 35 C 39.156230 30.666452 54.088453 0
M  V30 36 H 40.294827 29.535668 61.156116 0
M  V30 37 H 38.953809 29.030574 62.146289 0
M  V30 38 H 35.604359 32.035308 61.339190 0
M  V30 39 H 36.691171 32.376334 60.007321 0
M  V30 40 H 35.657262 30.940416 59.977184 0
M  V30 41 H 36.327737 30.751484 56.167786 0
M  V30 42 H 39.927693 31.369048 65.593879 0
M  V30 43 H 38.858291 30.137308 65.004933 0
M  V30 44 H 37.245862 28.316123 56.708101 0
M  V30 45 H 36.949735 34.834080 59.965323 0
M  V30 46 H 40.202904 29.338054 52.793192 0
M  V30 47 H 40.445441 27.959942 55.150477 0
M  V30 48 H 36.308830 39.345805 60.697529 0
M  V30 49 H 39.681790 29.303457 67.026974 0
M  V30 50 H 40.494793 28.343113 65.840953 0
M  V30 51 H 36.265084 29.780556 58.241539 0
M  V30 52 H 37.514079 30.988410 58.092058 0
M  V30 53 H 38.702701 33.365808 60.428081 0
M  V30 54 H 40.246075 34.142465 60.239133 0
M  V30 55 H 40.413938 36.291944 62.086142 0
M  V30 56 H 38.558021 26.325438 53.347317 0
M  V30 57 H 37.963348 26.425627 55.887164 0
M  V30 58 H 39.537887 25.835482 55.393385 0
M  V30 59 H 39.353000 26.602871 56.957985 0
M  V30 60 H 39.695232 29.062791 57.090852 0
M  V30 61 H 42.358375 29.632924 66.220424 0
M  V30 62 H 40.931593 28.317214 63.399117 0
M  V30 63 H 42.035551 29.433051 62.600521 0
M  V30 64 H 42.254889 29.091112 64.280125 0
M  V30 65 H 35.890920 37.074300 60.162299 0
M  V30 66 H 40.578736 34.180275 62.725156 0
M  V30 67 H 39.009970 33.437282 62.958616 0
M  V30 68 H 38.848738 31.301828 63.180988 0
M  V30 69 H 39.360032 38.522115 62.269263 0
M  V30 70 H 38.562332 29.629088 52.306666 0
M  V30 71 H 40.743627 30.352718 55.361331 0
M  V30 72 H 38.867691 31.269658 60.076022 0
M  V30 73 H 40.107638 32.565452 55.945113 0
M  V30 74 H 38.427947 32.179133 56.221079 0
M  V30 75 H 39.642133 31.648602 57.368935 0
M  V30 76 H 37.629294 28.206566 53.989502 0
M  V30 77 H 41.311031 31.145120 64.013495 0
M  V30 END ATOM
M  V30 BEGIN BOND
M  V30 1 1 7 3
M  V30 2 1 8 6
M  V30 3 1 13 4
M  V30 4 1 14 11
M  V30 5 1 15 7
M  V30 6 1 15 12
M  V30 7 1 16 6
M  V30 8 2 17 6
M  V30 9 1 19 10
M  V30 10 1 20 5
M  V30 11 1 20 7
M  V30 12 1 20 10
M  V30 13 1 21 13
M  V30 14 1 22 2
M  V30 15 1 25 4
M  V30 16 1 25 24
M  V30 17 2 26 23
M  V30 18 2 27 8
M  V30 19 1 27 14
M  V30 20 1 28 16
M  V30 21 1 28 26
M  V30 22 1 29 1
M  V30 23 1 29 25
M  V30 24 1 29 26
M  V30 25 2 30 14
M  V30 26 1 30 17
M  V30 27 1 32 1
M  V30 28 1 32 12
M  V30 29 1 32 22
M  V30 30 1 33 5
M  V30 31 1 34 10
M  V30 32 1 34 18
M  V30 33 1 34 31
M  V30 34 1 35 5
M  V30 35 2 35 9
M  V30 36 1 35 31
M  V30 37 1 36 1
M  V30 38 1 37 1
M  V30 39 1 38 2
M  V30 40 1 39 2
M  V30 41 1 40 2
M  V30 42 1 41 3
M  V30 43 1 42 4
M  V30 44 1 43 4
M  V30 45 1 7 44 CFG=1
M  V30 46 1 45 8
M  V30 47 1 46 31
M  V30 48 1 10 47 CFG=3
M  V30 49 1 48 11
M  V30 50 1 49 13
M  V30 51 1 50 13
M  V30 52 1 51 15
M  V30 53 1 52 15
M  V30 54 1 53 16
M  V30 55 1 54 16
M  V30 56 1 55 17
M  V30 57 1 56 18
M  V30 58 1 57 19
M  V30 59 1 58 19
M  V30 60 1 59 19
M  V30 61 1 20 60 CFG=1
M  V30 62 1 61 21
M  V30 63 1 62 24
M  V30 64 1 63 24
M  V30 65 1 64 24
M  V30 66 1 65 27
M  V30 67 1 66 28
M  V30 68 1 67 28
M  V30 69 1 29 68 CFG=1
M  V30 70 1 69 30
M  V30 71 1 70 31
M  V30 72 1 5 71 CFG=3
M  V30 73 1 32 72 CFG=3
M  V30 74 1 73 33
M  V30 75 1 74 33
M  V30 76 1 75 33
M  V30 77 1 34 76 CFG=1
M  V30 78 1 25 77 CFG=1
M  V30 END BOND
M  V30 END CTAB
M  END
>  <i_epik_Tot_Q>  (1) 
1

>  <i_epik_Tot_abs_Q>  (1) 
1

>  <i_i_glide_confnum>  (1) 
3262

>  <i_i_glide_lignum>  (1) 
167

>  <i_i_glide_posenum>  (1) 
264

>  <i_i_glide_rotatable_bonds>  (1) 
18

>  <i_lp_mmshare_version>  (1) 
72125

>  <i_m_source_file_index>  (1) 
76

>  <i_f3d_flags>  (1) 
0

>  <num_sample>  (1) 
100

>  <b_lp_Chiralities_Consistent>  (1) 
1

>  <r_epik_Charging_Adjusted_Penalty>  (1) 
0.52789471212939676

>  <r_epik_Ionization_Penalty>  (1) 
0.26592108790513191

>  <r_epik_Ionization_Penalty_Charging>  (1) 
0.26394735606469838

>  <r_epik_Ionization_Penalty_Neutral>  (1) 
0.0019737318404335234

>  <r_epik_State_Penalty>  (1) 
0.26394735606469838

>  <r_glide_ring_energy>  (1) 
0

>  <r_i_docking_score>  (1) 
-7.510627353648843

>  <r_i_glide_ecoul>  (1) 
-13.64528170043587

>  <r_i_glide_eff_state_penalty>  (1) 
0.26394735606469838

>  <r_i_glide_einternal>  (1) 
11.777284088816813

>  <r_i_glide_emodel>  (1) 
-62.922328586847613

>  <r_i_glide_emodel_strain>  (1) 
5.3875229538526845

>  <r_i_glide_energy>  (1) 
-48.88797197461848

>  <r_i_glide_erotb>  (1) 
1.0139394581015995

>  <r_i_glide_esite>  (1) 
-0.010805727966016594

>  <r_i_glide_evdw>  (1) 
-35.242690274182614

>  <r_i_glide_gscore>  (1) 
-7.7745747097135416

>  <r_i_glide_gscore_strain>  (1) 
0.34688073846317113

>  <r_i_glide_hbond>  (1) 
-0.74501230104258409

>  <r_i_glide_ligand_efficiency>  (1) 
-0.2145893529613955

>  <r_i_glide_ligand_efficiency_ln>  (1) 
-1.6487493935190485

>  <r_i_glide_ligand_efficiency_sa>  (1) 
-0.70193600299718906

>  <r_i_glide_lipo>  (1) 
-3.3893464746239643

>  <r_i_glide_metal>  (1) 
-0

>  <r_i_glide_rewards>  (1) 
-1.1813036338712362

>  <r_lp_Energy>  (1) 
30.915486999999999

>  <r_lp_tautomer_probability>  (1) 
0.99989998499911525

>  <s_epik_Chemistry_Notes>  (1) 
This compound contains an acetal/aminal-like group ( X-CH(R)-Y where X, Y are N, S, or O) that may be acid/base labile, releasing an aldehyde.

>  <s_epik_cmdline>  (1) 
J2VwaWtfcHl0aG9uJywgJy1waHQnLCAnMS4wJywgJy1waCcsICc3LjQnLCAnLXRuJywgJzgnLCAnLW1hJywgJzUwMCcsICctaW1hZScsICc8aW5maWxlLm1hZT4nLCAnLW9tYWUnLCAnPG91dGZpbGUubWFlPic=

>  <s_epik_input>  (1) 
W2NIXTFbY0hdYyhbT0hdKVtjSF1bY0hdYzFbQ0gyXVtDSDJdQyg9TylbQ0BIXShOKFtDSDNdKVtDSDJdW0NIMl1bT0hdKVtDSDJdW0NASF0oT1tDSDNdKVNbQ0gyXVtDQEBIXShbT0hdKVtDQEhdMltDQEBIXShbQ0gzXSlbQ0BIXShbT0hdKVtDSDJdQyhbT0hdKT1DMltDSDNd

>  <s_glide_docking_method>  (1) 
confgen

>  <s_i_glide_gridfile>  (1) 
gpcr_5ht2c_6bqh_protein_autoprepared_prepared

>  <s_lp_Force_Field>  (1) 
S-OPLS

>  <s_lp_Variant>  (1) 
DiffSBDD_75-4

>  <s_m_source_file>  (1) 
generated_GPCR_5HT2C_ligand_DiffSBDD_2026-06-23_prepared.sdf

>  <GenAI_Model>  (1) 
DiffSBDD

>  <Protein>  (1) 
GPCR_5HT2C

$$$$
DiffSBDD_95
     RDKit          3D

  0  0  0  0  0  0  0  0  0  0999 V3000
M  V30 BEGIN CTAB
M  V30 COUNTS 57 59 0 0 1
M  V30 BEGIN ATOM
M  V30 1 O 38.818233 33.338522 59.051444 0
M  V30 2 C 40.216714 34.721783 61.808015 0
M  V30 3 C 40.139048 33.438374 62.595119 0
M  V30 4 C 37.645887 24.588593 55.217777 0
M  V30 5 C 37.537007 29.756137 55.162909 0
M  V30 6 O 38.445091 31.677689 56.968571 0
M  V30 7 O 39.429118 30.446940 60.586370 0 CHG=-1
M  V30 8 C 38.709078 25.776367 57.532529 0
M  V30 9 O 37.645130 31.334900 62.167759 0
M  V30 10 C 40.566333 28.208778 57.297390 0
M  V30 11 C 38.283734 30.418436 57.576492 0 CFG=2
M  V30 12 C 39.998702 33.408909 61.089458 0
M  V30 13 C 39.731338 28.842393 56.204002 0 CFG=2
M  V30 14 C 37.777401 24.727863 57.638096 0
M  V30 15 C 37.583313 28.803450 53.942665 0
M  V30 16 C 38.707471 28.963146 52.911664 0
M  V30 17 C 39.634747 29.937404 52.983502 0
M  V30 18 C 38.677322 33.069577 60.423862 0 CFG=2
M  V30 19 C 38.302411 29.323266 56.463366 0 CFG=2
M  V30 20 C 38.707201 27.947212 51.786240 0
M  V30 21 C 36.981301 30.425409 58.364744 0
M  V30 22 C 36.849103 30.760283 59.669472 0
M  V30 23 C 37.244854 24.137824 56.482017 0
M  V30 24 P 38.220764 31.274724 60.804199 0
M  V30 25 C 38.584430 25.630109 55.105902 0
M  V30 26 C 39.118429 26.240612 56.260231 0
M  V30 27 C 40.110462 27.366466 56.126718 0 CFG=2
M  V30 28 H 38.694191 32.540230 58.542859 0
M  V30 29 H 41.190669 35.195324 61.694074 0
M  V30 30 H 39.372695 35.403582 61.887103 0
M  V30 31 H 39.244761 33.258718 63.186047 0
M  V30 32 H 41.064372 33.058003 63.022844 0
M  V30 33 H 37.236629 24.133783 54.329116 0
M  V30 34 H 36.488354 29.863676 55.443839 0
M  V30 35 H 37.803950 30.754973 54.826873 0
M  V30 36 H 37.592934 31.930534 56.622823 0
M  V30 37 H 39.108996 26.223655 58.428305 0
M  V30 38 H 41.616214 28.491732 57.333927 0
M  V30 39 H 40.091247 28.108897 58.270012 0
M  V30 40 H 39.124706 30.266355 58.241778 0
M  V30 41 H 40.845145 32.937723 60.598810 0
M  V30 42 H 40.312617 29.535798 55.604187 0
M  V30 43 H 37.471020 24.377789 58.607650 0
M  V30 44 H 37.526871 27.777887 54.283862 0
M  V30 45 H 36.670005 28.937767 53.368159 0
M  V30 46 H 40.410845 30.019036 52.236617 0
M  V30 47 H 39.632127 30.661642 53.781799 0
M  V30 48 H 37.900960 33.725520 60.818461 0
M  V30 49 H 37.769046 28.464514 56.870607 0
M  V30 50 H 37.753988 27.979418 51.261236 0
M  V30 51 H 39.500104 28.141967 51.062776 0
M  V30 52 H 38.844544 26.937850 52.167656 0
M  V30 53 H 36.098732 30.137607 57.814765 0
M  V30 54 H 35.859150 30.718522 60.096397 0
M  V30 55 H 36.526972 23.335125 56.566006 0
M  V30 56 H 38.893702 25.967659 54.130826 0
M  V30 57 H 40.845150 27.101761 55.372258 0
M  V30 END ATOM
M  V30 BEGIN BOND
M  V30 1 1 3 2
M  V30 2 1 11 6
M  V30 3 1 12 2
M  V30 4 1 12 3
M  V30 5 1 13 10
M  V30 6 2 14 8
M  V30 7 1 15 5
M  V30 8 1 16 15
M  V30 9 2 17 16
M  V30 10 1 18 1
M  V30 11 1 18 12
M  V30 12 1 19 5
M  V30 13 1 19 11
M  V30 14 1 19 13
M  V30 15 1 20 16
M  V30 16 1 21 11
M  V30 17 2 22 21
M  V30 18 2 23 4
M  V30 19 1 23 14
M  V30 20 1 24 7
M  V30 21 2 24 9
M  V30 22 1 24 18
M  V30 23 1 24 22
M  V30 24 1 25 4
M  V30 25 1 26 8
M  V30 26 2 26 25
M  V30 27 1 27 10
M  V30 28 1 27 13
M  V30 29 1 27 26
M  V30 30 1 28 1
M  V30 31 1 29 2
M  V30 32 1 30 2
M  V30 33 1 31 3
M  V30 34 1 32 3
M  V30 35 1 33 4
M  V30 36 1 34 5
M  V30 37 1 35 5
M  V30 38 1 36 6
M  V30 39 1 37 8
M  V30 40 1 38 10
M  V30 41 1 39 10
M  V30 42 1 11 40 CFG=1
M  V30 43 1 41 12
M  V30 44 1 13 42 CFG=3
M  V30 45 1 43 14
M  V30 46 1 44 15
M  V30 47 1 45 15
M  V30 48 1 46 17
M  V30 49 1 47 17
M  V30 50 1 18 48 CFG=1
M  V30 51 1 19 49 CFG=1
M  V30 52 1 50 20
M  V30 53 1 51 20
M  V30 54 1 52 20
M  V30 55 1 53 21
M  V30 56 1 54 22
M  V30 57 1 55 23
M  V30 58 1 56 25
M  V30 59 1 27 57 CFG=3
M  V30 END BOND
M  V30 END CTAB
M  END
>  <i_epik_Tot_Q>  (1) 
-1

>  <i_epik_Tot_abs_Q>  (1) 
1

>  <i_i_glide_confnum>  (1) 
243

>  <i_i_glide_lignum>  (1) 
227

>  <i_i_glide_posenum>  (1) 
94

>  <i_i_glide_rotatable_bonds>  (1) 
12

>  <i_lp_mmshare_version>  (1) 
72125

>  <i_m_source_file_index>  (1) 
96

>  <i_f3d_flags>  (1) 
0

>  <num_sample>  (1) 
100

>  <b_lp_Chiralities_Consistent>  (1) 
1

>  <r_epik_Charging_Adjusted_Penalty>  (1) 
1.080755722854454e-05

>  <r_epik_Ionization_Penalty>  (1) 
1.1075885964492435e-05

>  <r_epik_Ionization_Penalty_Charging>  (1) 
1.080755722854454e-05

>  <r_epik_Ionization_Penalty_Neutral>  (1) 
2.6832873594789518e-07

>  <r_epik_State_Penalty>  (1) 
-0

>  <r_glide_ring_energy>  (1) 
0

>  <r_i_docking_score>  (1) 
-7.5071534394088246

>  <r_i_glide_ecoul>  (1) 
-5.9265404218090172

>  <r_i_glide_eff_state_penalty>  (1) 
-0

>  <r_i_glide_einternal>  (1) 
11.127683751552004

>  <r_i_glide_emodel>  (1) 
-60.846962167371629

>  <r_i_glide_emodel_strain>  (1) 
1.3063802547559291

>  <r_i_glide_energy>  (1) 
-43.464901854496318

>  <r_i_glide_erotb>  (1) 
1.1567431559220434

>  <r_i_glide_esite>  (1) 
0

>  <r_i_glide_evdw>  (1) 
-37.538361432687303

>  <r_i_glide_gscore>  (1) 
-7.5071534394088246

>  <r_i_glide_gscore_strain>  (1) 
0

>  <r_i_glide_hbond>  (1) 
-0.19382580670136113

>  <r_i_glide_ligand_efficiency>  (1) 
-0.27804271997810459

>  <r_i_glide_ligand_efficiency_ln>  (1) 
-1.7475415555971578

>  <r_i_glide_ligand_efficiency_sa>  (1) 
-0.834128159934314

>  <r_i_glide_lipo>  (1) 
-4.5014113513243279

>  <r_i_glide_metal>  (1) 
-0

>  <r_i_glide_rewards>  (1) 
-1.2027603023994622

>  <r_lp_Energy>  (1) 
33.993966

>  <r_lp_tautomer_probability>  (1) 
1

>  <s_epik_cmdline>  (1) 
J2VwaWtfcHl0aG9uJywgJy1waHQnLCAnMS4wJywgJy1waCcsICc3LjQnLCAnLXRuJywgJzgnLCAnLW1hJywgJzUwMCcsICctaW1hZScsICc8aW5maWxlLm1hZT4nLCAnLW9tYWUnLCAnPG91dGZpbGUubWFlPic=

>  <s_epik_input>  (1) 
W0NIMl0xW0NIMl1bQ0hdMVtDQEBIXShbT0hdKVtQQF0oPU8pKFtPSF0pL1tDSF09W0NIXVxbQ0BIXShbT0hdKVtDQEBIXShbQ0gyXVtDSDJdQyg9W0NIMl0pW0NIM10pW0NASF0yW0NIMl1bQ0BIXTJjM1tjSF1bY0hdW2NIXVtjSF1bY0hdMw==

>  <s_glide_docking_method>  (1) 
confgen

>  <s_i_glide_gridfile>  (1) 
gpcr_5ht2c_6bqh_protein_autoprepared_prepared

>  <s_lp_Force_Field>  (1) 
S-OPLS

>  <s_lp_Variant>  (1) 
DiffSBDD_95-2

>  <s_m_source_file>  (1) 
generated_GPCR_5HT2C_ligand_DiffSBDD_2026-06-23_prepared.sdf

>  <GenAI_Model>  (1) 
DiffSBDD

>  <Protein>  (1) 
GPCR_5HT2C

$$$$
DiffSBDD_66
     RDKit          3D

  0  0  0  0  0  0  0  0  0  0999 V3000
M  V30 BEGIN CTAB
M  V30 COUNTS 63 66 0 0 1
M  V30 BEGIN ATOM
M  V30 1 C 38.130788 29.160040 58.877015 0
M  V30 2 C 37.957911 30.452525 57.928741 0
M  V30 3 C 37.835978 26.529597 56.807825 0 CFG=2
M  V30 4 N 40.194202 30.819891 62.167980 0
M  V30 5 O 37.487429 36.396361 59.960025 0
M  V30 6 O 39.645150 24.937839 56.973348 0
M  V30 7 O 37.246536 25.739693 55.795919 0
M  V30 8 C 37.483531 34.082900 60.600960 0
M  V30 9 C 39.459299 28.441360 57.130354 0
M  V30 10 C 38.464281 28.331693 55.032738 0
M  V30 11 N 39.344733 28.447317 58.464435 0
M  V30 12 C 38.068323 28.166367 52.510607 0
M  V30 13 C 39.283452 33.222658 62.036446 0
M  V30 14 N 40.039899 30.593507 60.843934 0
M  V30 15 C 39.622918 28.137309 50.567728 0
M  V30 16 C 38.696208 27.723352 56.301221 0
M  V30 17 C 38.172751 29.855965 55.052145 0 CFG=1
M  V30 18 C 37.444787 30.381651 56.393975 0
M  V30 19 C 39.768056 30.515294 53.309058 0
M  V30 20 C 40.457626 29.332229 60.674889 0
M  V30 21 C 40.533443 28.734147 59.280485 0
M  V30 22 C 38.576760 25.510445 57.697685 0
M  V30 23 C 40.844602 28.729332 61.911941 0
M  V30 24 C 39.243437 35.580357 61.379292 0
M  V30 25 C 39.300607 30.704048 54.514345 0
M  V30 26 C 39.947251 32.100516 62.812493 0
M  V30 27 C 38.071916 33.011105 61.301835 0
M  V30 28 O 40.333769 32.245880 63.973215 0
M  V30 29 Cl 37.266119 31.477988 61.316618 0
M  V30 30 C 40.670992 29.718946 62.830177 0
M  V30 31 C 39.994554 29.892685 52.179152 0
M  V30 32 C 38.385795 27.597652 53.893520 0
M  V30 33 C 39.845176 34.518269 62.082090 0
M  V30 34 C 39.258470 28.719767 51.715470 0
M  V30 35 C 38.068292 35.362010 60.636529 0
M  V30 36 H 38.104015 29.403184 59.931730 0
M  V30 37 H 38.871315 31.046676 57.964434 0
M  V30 38 H 36.999808 26.941711 57.368977 0
M  V30 39 H 36.767473 36.124190 59.409822 0
M  V30 40 H 40.284401 25.613618 56.794819 0
M  V30 41 H 37.881439 25.073542 55.570531 0
M  V30 42 H 36.568198 33.923759 60.048207 0
M  V30 43 H 40.006932 29.302524 56.769591 0
M  V30 44 H 37.224531 31.079374 58.434701 0
M  V30 45 H 37.276687 28.910797 52.542849 0
M  V30 46 H 37.645271 27.337891 51.946012 0
M  V30 47 H 40.445021 28.518750 49.987127 0
M  V30 48 H 39.097424 27.270954 50.190103 0
M  V30 49 H 37.254322 28.537523 58.732932 0
M  V30 50 H 37.377749 30.013271 54.326518 0
M  V30 51 H 37.245254 31.423499 56.149543 0
M  V30 52 H 36.469825 29.895127 56.423741 0
M  V30 53 H 41.205520 29.354369 58.687899 0
M  V30 54 H 41.058013 27.781645 59.359990 0
M  V30 55 H 38.961437 25.953067 58.613933 0
M  V30 56 H 37.897343 24.718055 58.015463 0
M  V30 57 H 41.223192 27.737777 62.086563 0
M  V30 58 H 39.685127 36.566633 61.412214 0
M  V30 59 H 39.673131 31.493882 55.149656 0
M  V30 60 H 40.858199 29.731026 63.894909 0
M  V30 61 H 40.785573 30.257625 51.540236 0
M  V30 62 H 38.565376 26.535586 53.933594 0
M  V30 63 H 40.747047 34.694540 62.650711 0
M  V30 END ATOM
M  V30 BEGIN BOND
M  V30 1 1 2 1
M  V30 2 1 7 3
M  V30 3 1 11 1
M  V30 4 1 11 9
M  V30 5 1 14 4
M  V30 6 1 16 3
M  V30 7 2 16 9
M  V30 8 1 16 10
M  V30 9 1 17 10
M  V30 10 1 18 2
M  V30 11 1 18 17
M  V30 12 2 20 14
M  V30 13 1 21 11
M  V30 14 1 21 20
M  V30 15 1 22 3
M  V30 16 1 22 6
M  V30 17 1 23 20
M  V30 18 1 25 17
M  V30 19 2 25 19
M  V30 20 1 26 4
M  V30 21 1 26 13
M  V30 22 1 27 8
M  V30 23 2 27 13
M  V30 24 2 28 26
M  V30 25 1 29 27
M  V30 26 1 30 4
M  V30 27 2 30 23
M  V30 28 2 31 19
M  V30 29 2 32 10
M  V30 30 1 32 12
M  V30 31 1 33 13
M  V30 32 2 33 24
M  V30 33 1 34 12
M  V30 34 2 34 15
M  V30 35 1 34 31
M  V30 36 1 35 5
M  V30 37 2 35 8
M  V30 38 1 35 24
M  V30 39 1 36 1
M  V30 40 1 37 2
M  V30 41 1 3 38 CFG=1
M  V30 42 1 39 5
M  V30 43 1 40 6
M  V30 44 1 41 7
M  V30 45 1 42 8
M  V30 46 1 43 9
M  V30 47 1 44 2
M  V30 48 1 45 12
M  V30 49 1 46 12
M  V30 50 1 47 15
M  V30 51 1 48 15
M  V30 52 1 49 1
M  V30 53 1 17 50 CFG=3
M  V30 54 1 51 18
M  V30 55 1 52 18
M  V30 56 1 53 21
M  V30 57 1 54 21
M  V30 58 1 55 22
M  V30 59 1 56 22
M  V30 60 1 57 23
M  V30 61 1 58 24
M  V30 62 1 59 25
M  V30 63 1 60 30
M  V30 64 1 61 31
M  V30 65 1 62 32
M  V30 66 1 63 33
M  V30 END BOND
M  V30 END CTAB
M  END
>  <i_epik_Tot_Q>  (1) 
0

>  <i_epik_Tot_abs_Q>  (1) 
0

>  <i_i_glide_confnum>  (1) 
165

>  <i_i_glide_lignum>  (1) 
147

>  <i_i_glide_posenum>  (1) 
85

>  <i_i_glide_rotatable_bonds>  (1) 
9

>  <i_lp_mmshare_version>  (1) 
72125

>  <i_m_source_file_index>  (1) 
67

>  <i_f3d_flags>  (1) 
0

>  <num_sample>  (1) 
100

>  <b_lp_Chiralities_Consistent>  (1) 
1

>  <r_epik_Charging_Adjusted_Penalty>  (1) 
1.3281530491987052

>  <r_epik_Ionization_Penalty>  (1) 
1.3282883392360914

>  <r_epik_Ionization_Penalty_Charging>  (1) 
0

>  <r_epik_Ionization_Penalty_Neutral>  (1) 
1.3282883392360914

>  <r_epik_State_Penalty>  (1) 
1.3281530491987052

>  <r_glide_ring_energy>  (1) 
0

>  <r_i_docking_score>  (1) 
-7.5022474255612392

>  <r_i_glide_ecoul>  (1) 
-3.7087470938860192

>  <r_i_glide_eff_state_penalty>  (1) 
1.3281530491987052

>  <r_i_glide_einternal>  (1) 
31.98644382193314

>  <r_i_glide_emodel>  (1) 
-58.267337332820105

>  <r_i_glide_emodel_strain>  (1) 
1.8360811816544356

>  <r_i_glide_energy>  (1) 
-59.626604027830616

>  <r_i_glide_erotb>  (1) 
0.50097048188181392

>  <r_i_glide_esite>  (1) 
0

>  <r_i_glide_evdw>  (1) 
-55.917856933944599

>  <r_i_glide_gscore>  (1) 
-8.8304004747599443

>  <r_i_glide_gscore_strain>  (1) 
0

>  <r_i_glide_hbond>  (1) 
0

>  <r_i_glide_ligand_efficiency>  (1) 
-0.21434992644460685

>  <r_i_glide_ligand_efficiency_ln>  (1) 
-1.646909813321336

>  <r_i_glide_ligand_efficiency_sa>  (1) 
-0.70115282298435577

>  <r_i_glide_lipo>  (1) 
-4.6541681360406226

>  <r_i_glide_metal>  (1) 
-0

>  <r_i_glide_rewards>  (1) 
-1.3249979098210036

>  <r_lp_Energy>  (1) 
65.328841999999995

>  <r_lp_tautomer_probability>  (1) 
0.99999944244275329

>  <s_epik_cmdline>  (1) 
J2VwaWtfcHl0aG9uJywgJy1waHQnLCAnMS4wJywgJy1waCcsICc3LjQnLCAnLXRuJywgJzgnLCAnLW1hJywgJzUwMCcsICctaW1hZScsICc8aW5maWxlLm1hZT4nLCAnLW9tYWUnLCAnPG91dGZpbGUubWFlPic=

>  <s_epik_input>  (1) 
W0NIXTEvW0NIMl1DKD1bQ0gyXSlbQ0hdPUM9W0NIXVtDQEBIXShDPTFcMilbQ0gyXS9bQ0hdPVtDSF1cTihbQ0gyXVtDQEBIXTJbQ0BASF0oW09IXSlbQ0gyXVtPSF0pW0NIMl1jKFtjSF1bY0hdMylubjNDKD1PKWM0YyhDbClbY0hdYyhbT0hdKVtjSF1bY0hdNA==

>  <s_glide_docking_method>  (1) 
confgen

>  <s_i_glide_gridfile>  (1) 
gpcr_5ht2c_6bqh_protein_autoprepared_prepared

>  <s_lp_Force_Field>  (1) 
S-OPLS

>  <s_lp_Variant>  (1) 
DiffSBDD_66-3

>  <s_m_source_file>  (1) 
generated_GPCR_5HT2C_ligand_DiffSBDD_2026-06-23_prepared.sdf

>  <GenAI_Model>  (1) 
DiffSBDD

>  <Protein>  (1) 
GPCR_5HT2C

$$$$
DiffSBDD_93
     RDKit          3D

  0  0  0  0  0  0  0  0  0  0999 V3000
M  V30 BEGIN CTAB
M  V30 COUNTS 84 85 0 0 1
M  V30 BEGIN ATOM
M  V30 1 C 37.441532 30.745111 58.861269 0
M  V30 2 O 36.321499 29.930968 59.122810 0
M  V30 3 C 36.870658 25.243039 56.963269 0
M  V30 4 C 40.233061 36.412078 61.714054 0
M  V30 5 O 40.465890 29.073704 59.952937 0
M  V30 6 C 41.617813 34.554495 64.718252 0
M  V30 7 N 40.845140 35.140904 65.629941 0
M  V30 8 O 42.793456 34.853627 64.567804 0
M  V30 9 O 37.245236 31.458629 54.567769 0
M  V30 10 C 38.812562 36.934772 61.791838 0
M  V30 11 C 37.550569 26.610432 57.033464 0
M  V30 12 C 39.031693 30.496147 61.242101 0
M  V30 13 C 39.104131 29.344880 57.556437 0
M  V30 14 C 39.915552 34.018777 62.806399 0 CFG=2
M  V30 15 C 40.966313 33.450791 63.842245 0 CFG=2
M  V30 16 C 37.986910 25.796416 54.836445 0 CFG=1
M  V30 17 C 38.430691 28.319913 55.270217 0 CFG=1
M  V30 18 C 38.001171 28.658348 53.812555 0
M  V30 19 C 39.731149 31.878057 61.307896 0
M  V30 20 S 38.500129 31.203221 55.668714 0 CHG=1
M  V30 21 O 38.013519 34.060973 60.168319 0
M  V30 22 N 38.693556 29.959519 58.838567 0
M  V30 23 O 39.890459 31.057075 54.706577 0
M  V30 24 O 37.239909 23.455811 55.298213 0
M  V30 25 F 40.045033 25.556180 56.033944 0
M  V30 26 C 39.790812 37.241776 62.901102 0
M  V30 27 C 37.732271 33.505791 61.436247 0
M  V30 28 C 38.985402 32.935645 62.152298 0 CFG=2
M  V30 29 C 39.453420 29.771873 59.954171 0
M  V30 30 C 40.486086 32.252668 64.718746 0
M  V30 31 C 40.348218 25.965777 53.755927 0
M  V30 32 C 38.188764 29.494505 56.302523 0 CFG=2
M  V30 33 O 42.623435 31.269107 65.056274 0
M  V30 34 C 40.599483 34.929186 61.747749 0
M  V30 35 C 39.475843 25.337649 54.851539 0 CFG=2
M  V30 36 C 41.583402 31.675927 65.618347 0
M  V30 37 C 37.000050 24.818102 55.495425 0 CFG=1
M  V30 38 O 41.356005 31.655488 66.847057 0 CHG=-1
M  V30 39 N 37.717924 27.036872 55.619652 0 CFG=2 CHG=1
M  V30 40 H 37.466495 31.563235 59.566744 0
M  V30 41 H 37.245174 31.285071 57.947274 0
M  V30 42 H 35.574070 30.343818 58.705580 0
M  V30 43 H 37.350092 24.537474 57.644361 0
M  V30 44 H 35.823266 25.337740 57.251034 0
M  V30 45 H 40.889238 36.938320 61.027765 0
M  V30 46 H 39.883973 34.858517 65.733050 0
M  V30 47 H 41.229080 35.864436 66.218654 0
M  V30 48 H 36.670057 32.104048 54.974977 0
M  V30 49 H 38.532770 37.754597 61.132441 0
M  V30 50 H 38.000096 36.267977 62.055785 0
M  V30 51 H 38.503603 26.461434 57.533709 0
M  V30 52 H 36.969033 27.318011 57.625116 0
M  V30 53 H 37.951617 30.548445 61.362860 0
M  V30 54 H 39.358861 29.896695 62.093795 0
M  V30 55 H 39.336566 28.308096 57.759066 0
M  V30 56 H 40.083451 29.753524 57.307114 0
M  V30 57 H 39.245116 34.653589 63.367742 0
M  V30 58 H 41.787275 33.049094 63.246693 0
M  V30 59 H 37.669733 25.897002 53.799075 0
M  V30 60 H 39.503884 28.152728 55.306131 0
M  V30 61 H 38.540754 29.490244 53.372083 0
M  V30 62 H 38.185233 27.847005 53.111739 0
M  V30 63 H 36.935225 28.884138 53.755709 0
M  V30 64 H 40.730786 31.715740 61.709413 0
M  V30 65 H 39.897246 32.282483 60.309746 0
M  V30 66 H 38.553579 34.827393 60.295999 0
M  V30 67 H 39.594125 30.787678 53.851253 0
M  V30 68 H 36.499275 22.962774 55.622520 0
M  V30 69 H 39.622960 36.761844 63.859523 0
M  V30 70 H 40.131425 38.271115 62.968345 0
M  V30 71 H 36.982961 32.724575 61.316390 0
M  V30 72 H 37.232998 34.261178 62.036413 0
M  V30 73 H 38.541615 32.382506 62.967771 0
M  V30 74 H 39.645147 32.537716 65.343201 0
M  V30 75 H 40.154192 31.418877 64.102699 0
M  V30 76 H 40.046213 25.737832 52.739605 0
M  V30 77 H 40.239529 27.018175 53.792398 0
M  V30 78 H 41.407169 25.737782 53.849284 0
M  V30 79 H 37.138254 29.458938 56.586975 0
M  V30 80 H 41.675792 34.885859 61.875280 0
M  V30 81 H 40.446649 34.534409 60.745517 0
M  V30 82 H 39.524276 24.263639 54.707728 0
M  V30 83 H 36.045102 24.937755 55.011868 0
M  V30 84 H 36.765549 27.245641 55.355697 0
M  V30 END ATOM
M  V30 BEGIN BOND
M  V30 1 1 2 1
M  V30 2 1 7 6
M  V30 3 2 8 6
M  V30 4 1 10 4
M  V30 5 1 11 3
M  V30 6 1 15 6
M  V30 7 1 15 14
M  V30 8 1 18 17
M  V30 9 1 19 12
M  V30 10 1 20 9
M  V30 11 1 22 1
M  V30 12 1 22 13
M  V30 13 1 23 20
M  V30 14 1 26 4
M  V30 15 1 26 10
M  V30 16 1 27 21
M  V30 17 1 28 14
M  V30 18 1 28 19
M  V30 19 1 28 27
M  V30 20 2 29 5
M  V30 21 1 29 12
M  V30 22 1 29 22
M  V30 23 1 30 15
M  V30 24 1 32 13
M  V30 25 1 32 17
M  V30 26 1 32 20
M  V30 27 1 34 4
M  V30 28 1 34 14
M  V30 29 1 35 16
M  V30 30 1 35 25
M  V30 31 1 35 31
M  V30 32 1 36 30
M  V30 33 2 36 33
M  V30 34 1 37 3
M  V30 35 1 37 16
M  V30 36 1 37 24
M  V30 37 1 38 36
M  V30 38 1 39 11
M  V30 39 1 39 16
M  V30 40 1 39 17
M  V30 41 1 40 1
M  V30 42 1 41 1
M  V30 43 1 42 2
M  V30 44 1 43 3
M  V30 45 1 44 3
M  V30 46 1 45 4
M  V30 47 1 46 7
M  V30 48 1 47 7
M  V30 49 1 48 9
M  V30 50 1 49 10
M  V30 51 1 50 10
M  V30 52 1 51 11
M  V30 53 1 52 11
M  V30 54 1 53 12
M  V30 55 1 54 12
M  V30 56 1 55 13
M  V30 57 1 56 13
M  V30 58 1 14 57 CFG=1
M  V30 59 1 15 58 CFG=3
M  V30 60 1 16 59 CFG=3
M  V30 61 1 17 60 CFG=3
M  V30 62 1 61 18
M  V30 63 1 62 18
M  V30 64 1 63 18
M  V30 65 1 64 19
M  V30 66 1 65 19
M  V30 67 1 66 21
M  V30 68 1 67 23
M  V30 69 1 68 24
M  V30 70 1 69 26
M  V30 71 1 70 26
M  V30 72 1 71 27
M  V30 73 1 72 27
M  V30 74 1 28 73 CFG=1
M  V30 75 1 74 30
M  V30 76 1 75 30
M  V30 77 1 76 31
M  V30 78 1 77 31
M  V30 79 1 78 31
M  V30 80 1 32 79 CFG=1
M  V30 81 1 80 34
M  V30 82 1 81 34
M  V30 83 1 35 82 CFG=3
M  V30 84 1 37 83 CFG=3
M  V30 85 1 39 84 CFG=3
M  V30 END BOND
M  V30 END CTAB
M  END
>  <i_epik_Tot_Q>  (1) 
1

>  <i_epik_Tot_abs_Q>  (1) 
3

>  <i_i_glide_confnum>  (1) 
6036

>  <i_i_glide_lignum>  (1) 
219

>  <i_i_glide_posenum>  (1) 
19

>  <i_i_glide_rotatable_bonds>  (1) 
24

>  <i_lp_mmshare_version>  (1) 
72125

>  <i_m_source_file_index>  (1) 
94

>  <i_f3d_flags>  (1) 
0

>  <num_sample>  (1) 
100

>  <b_lp_Chiralities_Consistent>  (1) 
1

>  <r_epik_Charging_Adjusted_Penalty>  (1) 
0.90916677635763199

>  <r_epik_Ionization_Penalty>  (1) 
0.45507897092921873

>  <r_epik_Ionization_Penalty_Charging>  (1) 
0.45507471778648678

>  <r_epik_Ionization_Penalty_Neutral>  (1) 
4.2531427319391784e-06

>  <r_epik_State_Penalty>  (1) 
0.45409205857114521

>  <r_glide_ring_energy>  (1) 
0

>  <r_i_docking_score>  (1) 
-7.4949526051573452

>  <r_i_glide_ecoul>  (1) 
-4.2020116710809052

>  <r_i_glide_eff_state_penalty>  (1) 
0.45409205857114521

>  <r_i_glide_einternal>  (1) 
38.943959727138534

>  <r_i_glide_emodel>  (1) 
-49.466562026356719

>  <r_i_glide_emodel_strain>  (1) 
1.2618105600487723

>  <r_i_glide_energy>  (1) 
-42.707102648701301

>  <r_i_glide_erotb>  (1) 
0.82188833391367333

>  <r_i_glide_esite>  (1) 
-0.1286357495172499

>  <r_i_glide_evdw>  (1) 
-38.505090977620398

>  <r_i_glide_gscore>  (1) 
-7.9490446637284906

>  <r_i_glide_gscore_strain>  (1) 
0

>  <r_i_glide_hbond>  (1) 
-0.22794808173217959

>  <r_i_glide_ligand_efficiency>  (1) 
-0.19217827192711143

>  <r_i_glide_ligand_efficiency_ln>  (1) 
-1.6071305954275332

>  <r_i_glide_ligand_efficiency_sa>  (1) 
-0.65171715485790849

>  <r_i_glide_lipo>  (1) 
-4.5001915156733663

>  <r_i_glide_metal>  (1) 
-0

>  <r_i_glide_rewards>  (1) 
-1.3586013511762127

>  <r_lp_Energy>  (1) 
13.939579

>  <s_epik_Chemistry_Notes>  (1) 
This compound contains an acetal/aminal-like group ( X-CH(R)-Y where X, Y are N, S, or O) that may be acid/base labile, releasing an aldehyde.

>  <s_epik_cmdline>  (1) 
J2VwaWtfcHl0aG9uJywgJy1waHQnLCAnMS4wJywgJy1waCcsICc3LjQnLCAnLXRuJywgJzgnLCAnLW1hJywgJzUwMCcsICctaW1hZScsICc8aW5maWxlLm1hZT4nLCAnLW9tYWUnLCAnPG91dGZpbGUubWFlPic=

>  <s_epik_input>  (1) 
W0NIMl0xW0NIMl1bQ0hdMVtDSDJdW0NAQEhdKFtDQEBIXShDKD1PKVtOSDJdKVtDSDJdQyg9TylbT0hdKVtDQEBIXShbQ0gyXVtPSF0pW0NIMl1bQ0gyXUMoPU8pTihbQ0gyXVtPSF0pW0NIMl1bQ0BASF0oW1MrXShbT0hdKVtPSF0pW0NASF0oW0NIM10pTjJbQ0gyXVtDSDJdW0NASF0oW09IXSlbQ0BASF0yW0NASF0oRilbQ0gzXQ==

>  <s_glide_docking_method>  (1) 
confgen

>  <s_i_glide_gridfile>  (1) 
gpcr_5ht2c_6bqh_protein_autoprepared_prepared

>  <s_lp_Force_Field>  (1) 
S-OPLS

>  <s_lp_Variant>  (1) 
DiffSBDD_93-7

>  <s_m_source_file>  (1) 
generated_GPCR_5HT2C_ligand_DiffSBDD_2026-06-23_prepared.sdf

>  <GenAI_Model>  (1) 
DiffSBDD

>  <Protein>  (1) 
GPCR_5HT2C

$$$$
DiffSBDD_78
     RDKit          3D

  0  0  0  0  0  0  0  0  0  0999 V3000
M  V30 BEGIN CTAB
M  V30 COUNTS 105 110 0 0 1
M  V30 BEGIN ATOM
M  V30 1 O 44.380617 27.106647 68.446624 0
M  V30 2 C 38.675929 34.483913 60.417540 0
M  V30 3 C 37.364323 28.365017 58.118779 0 CFG=1
M  V30 4 C 45.645663 31.997181 67.028894 0
M  V30 5 O 41.801540 34.136874 66.980116 0
M  V30 6 C 38.702178 32.337417 58.819345 0 CFG=2
M  V30 7 C 44.155930 28.500451 68.603161 0
M  V30 8 O 43.736877 30.497351 67.208135 0
M  V30 9 C 39.029709 33.755485 59.116970 0 CFG=1
M  V30 10 O 41.328300 27.172340 64.054245 0
M  V30 11 C 39.650688 28.827049 50.587736 0
M  V30 12 N 37.875782 29.724677 58.231002 0
M  V30 13 N 37.883047 33.410366 58.251354 0 CFG=2 CHG=1
M  V30 14 C 40.814401 30.833137 50.038005 0
M  V30 15 C 37.217747 34.509321 60.874770 0
M  V30 16 C 37.969952 27.385433 57.140214 0 CFG=1
M  V30 17 N 38.058169 30.032363 59.616061 0
M  V30 18 C 44.109327 26.339212 69.605576 0
M  V30 19 C 38.183697 31.453348 59.939429 0 CFG=1
M  V30 20 C 40.044897 30.856056 51.316732 0
M  V30 21 C 38.400393 30.897871 62.380840 0
M  V30 22 C 44.435716 31.537464 67.858726 0 CFG=2
M  V30 23 C 39.773942 28.387749 60.339695 0
M  V30 24 C 38.532821 29.463679 52.770888 0
M  V30 25 C 42.784129 33.160458 66.715964 0
M  V30 26 C 44.260495 29.176855 67.219122 0 CFG=2
M  V30 27 C 39.650736 27.440699 59.152843 0
M  V30 28 C 44.202911 24.857813 69.224738 0
M  V30 29 O 39.542960 35.037657 61.087855 0
M  V30 30 C 39.167877 31.003009 61.058200 0
M  V30 31 C 39.422162 29.767142 51.592380 0
M  V30 32 C 40.398912 31.850222 61.425801 0
M  V30 33 C 41.871621 28.659012 66.382835 0
M  V30 34 C 36.470537 33.603749 58.665757 0
M  V30 35 C 39.241031 28.670473 53.828375 0
M  V30 36 C 38.254077 28.329755 54.915106 0
M  V30 37 O 40.445069 29.438878 49.608960 0
M  V30 38 N 40.445360 28.789083 62.616926 0
M  V30 39 S 41.124453 29.634881 65.043677 0
M  V30 40 C 40.219495 27.958570 61.530637 0
M  V30 41 C 43.385224 32.646865 68.041569 0
M  V30 42 C 40.980877 28.326664 63.809840 0
M  V30 43 C 36.293805 34.722232 59.687364 0
M  V30 44 C 38.984793 27.806771 56.127557 0
M  V30 45 O 39.243891 27.669362 50.567759 0
M  V30 46 C 39.432328 29.839967 60.042302 0 CFG=2
M  V30 47 C 38.270345 27.226406 58.590645 0 CFG=1
M  V30 48 C 43.392232 28.473482 66.161364 0
M  V30 49 H 36.286135 28.234817 58.169370 0
M  V30 50 H 46.048158 32.922546 67.437037 0
M  V30 51 H 45.377965 32.188161 65.989780 0
M  V30 52 H 46.443913 31.254979 67.030755 0
M  V30 53 H 42.203718 34.854445 67.446244 0
M  V30 54 H 39.244977 31.868002 58.004694 0
M  V30 55 H 44.885077 28.913654 69.300503 0
M  V30 56 H 43.166232 28.669878 69.029220 0
M  V30 57 H 39.880507 34.137744 58.567734 0
M  V30 58 H 37.208897 30.370625 57.806525 0
M  V30 59 H 41.887964 30.937347 50.192147 0
M  V30 60 H 37.090334 35.315666 61.597251 0
M  V30 61 H 36.972802 33.588156 61.399657 0
M  V30 62 H 37.286145 26.634560 56.744047 0
M  V30 63 H 44.821045 26.583527 70.395189 0
M  V30 64 H 43.107994 26.554823 69.979923 0
M  V30 65 H 37.241093 31.779128 60.369182 0
M  V30 66 H 40.018733 31.737957 51.934571 0
M  V30 67 H 39.018775 30.734488 63.260338 0
M  V30 68 H 37.645123 30.137793 62.338411 0
M  V30 69 H 37.868311 31.829938 62.568638 0
M  V30 70 H 44.770922 31.210463 68.843716 0
M  V30 71 H 37.635243 28.942524 52.429450 0
M  V30 72 H 38.220441 30.391534 53.253786 0
M  V30 73 H 42.316175 32.349497 66.156619 0
M  V30 74 H 43.547763 33.593123 66.067333 0
M  V30 75 H 45.297030 29.167092 66.881684 0
M  V30 76 H 40.320691 27.827550 58.391020 0
M  V30 77 H 40.045266 26.456396 59.369716 0
M  V30 78 H 44.023843 24.216301 70.088272 0
M  V30 79 H 45.187642 24.614795 68.821879 0
M  V30 80 H 43.462617 24.610943 68.462821 0
M  V30 81 H 40.436615 31.600738 49.367668 0
M  V30 82 H 41.154515 31.262194 61.944657 0
M  V30 83 H 40.143930 32.669637 62.097883 0
M  V30 84 H 40.893566 32.287645 60.567760 0
M  V30 85 H 41.661016 29.183562 67.314506 0
M  V30 86 H 41.369519 27.697142 66.490571 0
M  V30 87 H 35.947861 33.918085 57.767788 0
M  V30 88 H 35.990570 32.674865 58.970739 0
M  V30 89 H 39.645107 27.749213 53.409900 0
M  V30 90 H 40.045125 29.285458 54.236074 0
M  V30 91 H 37.672051 29.210467 55.198619 0
M  V30 92 H 37.545743 27.593293 54.534079 0
M  V30 93 H 40.214153 29.768452 62.549963 0
M  V30 94 H 40.445136 26.937754 61.716907 0
M  V30 95 H 42.580636 32.262426 68.670568 0
M  V30 96 H 43.827928 33.469284 68.599454 0
M  V30 97 H 35.254339 34.758776 60.015009 0
M  V30 98 H 36.505835 35.688856 59.225305 0
M  V30 99 H 39.633825 28.591539 56.516846 0
M  V30 100 H 39.611881 26.952019 55.874861 0
M  V30 101 H 40.125286 30.137745 59.259243 0
M  V30 102 H 37.841274 26.308863 58.967620 0
M  V30 103 H 43.671733 28.873475 65.186235 0
M  V30 104 H 43.630184 27.410566 66.102790 0
M  V30 105 H 38.055217 33.514702 57.260982 0
M  V30 END ATOM
M  V30 BEGIN BOND
M  V30 1 1 7 1
M  V30 2 1 9 2
M  V30 3 1 9 6
M  V30 4 1 12 3
M  V30 5 1 13 6
M  V30 6 1 13 9
M  V30 7 1 15 2
M  V30 8 1 16 3
M  V30 9 1 17 12
M  V30 10 1 18 1
M  V30 11 1 19 6
M  V30 12 1 19 17
M  V30 13 1 20 14
M  V30 14 1 22 4
M  V30 15 1 22 8
M  V30 16 1 25 5
M  V30 17 1 26 7
M  V30 18 1 26 8
M  V30 19 1 27 23
M  V30 20 1 28 18
M  V30 21 2 29 2
M  V30 22 1 30 19
M  V30 23 1 30 21
M  V30 24 1 31 11
M  V30 25 2 31 20
M  V30 26 1 31 24
M  V30 27 1 32 30
M  V30 28 1 34 13
M  V30 29 1 35 24
M  V30 30 1 36 35
M  V30 31 1 37 11
M  V30 32 1 37 14
M  V30 33 1 39 33
M  V30 34 2 40 23
M  V30 35 1 40 38
M  V30 36 1 41 22
M  V30 37 1 41 25
M  V30 38 2 42 10
M  V30 39 1 42 38
M  V30 40 1 42 39
M  V30 41 1 43 15
M  V30 42 1 43 34
M  V30 43 1 44 16
M  V30 44 1 44 36
M  V30 45 2 45 11
M  V30 46 1 46 17
M  V30 47 1 46 23
M  V30 48 1 46 30
M  V30 49 1 47 3
M  V30 50 1 47 16
M  V30 51 1 47 27
M  V30 52 1 48 26
M  V30 53 1 48 33
M  V30 54 1 3 49 CFG=1
M  V30 55 1 50 4
M  V30 56 1 51 4
M  V30 57 1 52 4
M  V30 58 1 53 5
M  V30 59 1 6 54 CFG=3
M  V30 60 1 55 7
M  V30 61 1 56 7
M  V30 62 1 9 57 CFG=3
M  V30 63 1 58 12
M  V30 64 1 59 14
M  V30 65 1 60 15
M  V30 66 1 61 15
M  V30 67 1 16 62 CFG=3
M  V30 68 1 63 18
M  V30 69 1 64 18
M  V30 70 1 19 65 CFG=1
M  V30 71 1 66 20
M  V30 72 1 67 21
M  V30 73 1 68 21
M  V30 74 1 69 21
M  V30 75 1 22 70 CFG=1
M  V30 76 1 71 24
M  V30 77 1 72 24
M  V30 78 1 73 25
M  V30 79 1 74 25
M  V30 80 1 26 75 CFG=3
M  V30 81 1 76 27
M  V30 82 1 77 27
M  V30 83 1 78 28
M  V30 84 1 79 28
M  V30 85 1 80 28
M  V30 86 1 81 14
M  V30 87 1 82 32
M  V30 88 1 83 32
M  V30 89 1 84 32
M  V30 90 1 85 33
M  V30 91 1 86 33
M  V30 92 1 87 34
M  V30 93 1 88 34
M  V30 94 1 89 35
M  V30 95 1 90 35
M  V30 96 1 91 36
M  V30 97 1 92 36
M  V30 98 1 93 38
M  V30 99 1 94 40
M  V30 100 1 95 41
M  V30 101 1 96 41
M  V30 102 1 97 43
M  V30 103 1 98 43
M  V30 104 1 99 44
M  V30 105 1 100 44
M  V30 106 1 46 101 CFG=3
M  V30 107 1 47 102 CFG=1
M  V30 108 1 103 48
M  V30 109 1 104 48
M  V30 110 1 13 105 CFG=3
M  V30 END BOND
M  V30 END CTAB
M  END
>  <i_epik_Tot_Q>  (1) 
1

>  <i_epik_Tot_abs_Q>  (1) 
1

>  <i_i_glide_confnum>  (1) 
8240

>  <i_i_glide_lignum>  (1) 
181

>  <i_i_glide_posenum>  (1) 
122

>  <i_i_glide_rotatable_bonds>  (1) 
20

>  <i_lp_mmshare_version>  (1) 
72125

>  <i_m_source_file_index>  (1) 
79

>  <i_f3d_flags>  (1) 
0

>  <num_sample>  (1) 
100

>  <b_lp_Chiralities_Consistent>  (1) 
1

>  <r_epik_Charging_Adjusted_Penalty>  (1) 
0.27991857207723647

>  <r_epik_Ionization_Penalty>  (1) 
0.14008487576319317

>  <r_epik_Ionization_Penalty_Charging>  (1) 
0.13995928603861824

>  <r_epik_Ionization_Penalty_Neutral>  (1) 
0.0001255897245749389

>  <r_epik_State_Penalty>  (1) 
0.13995928603861821

>  <r_glide_ring_energy>  (1) 
0

>  <r_i_docking_score>  (1) 
-7.4946769459855851

>  <r_i_glide_ecoul>  (1) 
-1.3965755812493965

>  <r_i_glide_eff_state_penalty>  (1) 
0.13995928603861821

>  <r_i_glide_einternal>  (1) 
20.708032325947183

>  <r_i_glide_emodel>  (1) 
-41.438151325685673

>  <r_i_glide_emodel_strain>  (1) 
1.9054918135223602

>  <r_i_glide_energy>  (1) 
-44.348435911589625

>  <r_i_glide_erotb>  (1) 
0.59343049219720367

>  <r_i_glide_esite>  (1) 
-0.1349041805960394

>  <r_i_glide_evdw>  (1) 
-42.951860330340232

>  <r_i_glide_gscore>  (1) 
-7.6346362320242029

>  <r_i_glide_gscore_strain>  (1) 
0

>  <r_i_glide_hbond>  (1) 
0

>  <r_i_glide_ligand_efficiency>  (1) 
-0.15613910304136636

>  <r_i_glide_ligand_efficiency_ln>  (1) 
-1.5385686054020449

>  <r_i_glide_ligand_efficiency_sa>  (1) 
-0.56744715896561237

>  <r_i_glide_lipo>  (1) 
-4.2978837370146996

>  <r_i_glide_metal>  (1) 
-0

>  <r_i_glide_rewards>  (1) 
-1.4381994529062465

>  <r_lp_Energy>  (1) 
49.471941999999999

>  <r_lp_tautomer_probability>  (1) 
0.99979120136373534

>  <s_epik_Chemistry_Notes>  (1) 
This compound has an ester and may undergo hydrolysis at high or low pH.

>  <s_epik_cmdline>  (1) 
J2VwaWtfcHl0aG9uJywgJy1waHQnLCAnMS4wJywgJy1waCcsICc3LjQnLCAnLXRuJywgJzgnLCAnLW1hJywgJzUwMCcsICctaW1hZScsICc8aW5maWxlLm1hZT4nLCAnLW9tYWUnLCAnPG91dGZpbGUubWFlPic=

>  <s_epik_input>  (1) 
W09IXVtDSDJdW0NIMl1bQ0BIXShbQ0gzXSlPW0NAQEhdKFtDSDJdT1tDSDJdW0NIM10pW0NIMl1bQ0gyXVNDKD1PKVtOSF1cW0NIXT1DKFtDQEhdMU4oW05IXTIpW0NAQEhdKEMxKFtDSDNdKVtDSDNdKVtDQEhdM04oW0NASF0zNClbQ0gyXVtDSDJdW0NIMl1DND1PKVxbQ0gyXVtDQEBIXShbQ0BASF0yNSlbQ0BASF01W0NIMl1bQ0gyXVtDSDJdW0NIMl1bQ0BASF0oQzY9TylbQ0hdPVtDSF1PNg==

>  <s_glide_docking_method>  (1) 
confgen

>  <s_i_glide_gridfile>  (1) 
gpcr_5ht2c_6bqh_protein_autoprepared_prepared

>  <s_lp_Force_Field>  (1) 
S-OPLS

>  <s_lp_Variant>  (1) 
DiffSBDD_78-3

>  <s_m_source_file>  (1) 
generated_GPCR_5HT2C_ligand_DiffSBDD_2026-06-23_prepared.sdf

>  <GenAI_Model>  (1) 
DiffSBDD

>  <Protein>  (1) 
GPCR_5HT2C

$$$$
DiffSBDD_25
     RDKit          3D

  0  0  0  0  0  0  0  0  0  0999 V3000
M  V30 BEGIN CTAB
M  V30 COUNTS 67 70 0 0 1
M  V30 BEGIN ATOM
M  V30 1 C 40.716108 35.317972 62.584019 0
M  V30 2 C 39.456783 26.448357 57.806327 0
M  V30 3 O 40.390832 35.016469 61.416784 0 CHG=-1
M  V30 4 C 37.018765 30.717348 59.368411 0
M  V30 5 N 39.824197 31.239540 61.661265 0
M  V30 6 C 38.738577 26.113137 56.501568 0
M  V30 7 C 41.826807 34.439683 64.754491 0
M  V30 8 C 41.753388 32.229289 65.440923 0
M  V30 9 C 37.072634 29.286373 54.694942 0
M  V30 10 C 37.723867 27.192172 56.065574 0
M  V30 11 C 38.240271 28.418109 55.242083 0 CFG=2
M  V30 12 C 40.464083 30.389534 64.282305 0
M  V30 13 O 39.245139 29.014290 53.159110 0
M  V30 14 O 38.648368 33.227616 61.978235 0
M  V30 15 N 38.851873 29.460558 58.577148 0
M  V30 16 C 40.522525 32.828846 63.416440 0
M  V30 17 O 40.845097 36.504495 62.956877 0
M  V30 18 C 38.438743 26.837749 53.274436 0
M  V30 19 C 41.011044 34.184137 63.601366 0
M  V30 20 C 39.209771 29.353578 56.023131 0
M  V30 21 C 39.671177 29.002568 57.455197 0 CFG=2
M  V30 22 C 39.566563 32.458160 62.277392 0
M  V30 23 C 39.533926 29.598293 59.861078 0
M  V30 24 N 42.174722 33.487356 65.640723 0
M  V30 25 C 39.425078 26.970059 52.147542 0
M  V30 26 C 37.578167 29.944982 58.443835 0
M  V30 27 N 42.327641 35.709391 65.008286 0
M  V30 28 N 38.988652 27.911250 54.087187 0
M  V30 29 C 40.386271 27.650227 57.656530 0
M  V30 30 C 39.022775 30.740382 60.771432 0
M  V30 31 C 40.361560 29.074631 50.984262 0
M  V30 32 N 37.681578 31.129795 60.517281 0
M  V30 33 C 39.268750 28.451852 51.855976 0 CFG=2
M  V30 34 C 40.930558 31.840567 64.372790 0
M  V30 35 H 40.049521 25.584054 58.108939 0
M  V30 36 H 38.738183 26.619394 58.608953 0
M  V30 37 H 36.019836 31.117252 59.264898 0
M  V30 38 H 39.472347 25.892725 55.727197 0
M  V30 39 H 38.193160 25.181650 56.657355 0
M  V30 40 H 42.065004 31.503645 66.178072 0
M  V30 41 H 36.449976 29.737197 55.470274 0
M  V30 42 H 37.419435 30.140210 54.113214 0
M  V30 43 H 36.445179 28.688782 54.039110 0
M  V30 44 H 36.949771 26.680031 55.490797 0
M  V30 45 H 37.245137 27.543287 56.973157 0
M  V30 46 H 40.645976 29.871785 65.224032 0
M  V30 47 H 39.393085 30.314916 64.095064 0
M  V30 48 H 41.012372 29.845910 63.512503 0
M  V30 49 H 38.478842 25.867646 53.767589 0
M  V30 50 H 37.416445 27.032006 52.948834 0
M  V30 51 H 38.811920 30.369228 56.039605 0
M  V30 52 H 40.130581 29.478154 55.450242 0
M  V30 53 H 40.451208 29.738501 57.557050 0
M  V30 54 H 39.424598 28.657774 60.401919 0
M  V30 55 H 40.604471 29.737732 59.707569 0
M  V30 56 H 39.230389 26.342007 51.280298 0
M  V30 57 H 40.410860 26.735360 52.567744 0
M  V30 58 H 37.079029 29.669312 57.532788 0
M  V30 59 H 42.045146 36.503599 64.431780 0
M  V30 60 H 42.847916 35.914053 65.844247 0
M  V30 61 H 41.074145 27.476666 56.827431 0
M  V30 62 H 41.019350 27.704623 58.542266 0
M  V30 63 H 40.323502 28.668203 49.974036 0
M  V30 64 H 40.227366 30.154062 50.910144 0
M  V30 65 H 41.355481 28.889156 51.385228 0
M  V30 66 H 38.297384 28.632904 51.391211 0
M  V30 67 H 37.222102 31.836194 61.073147 0
M  V30 END ATOM
M  V30 BEGIN BOND
M  V30 1 1 3 1
M  V30 2 1 6 2
M  V30 3 1 10 6
M  V30 4 1 11 9 CFG=3
M  V30 5 1 11 10
M  V30 6 2 17 1
M  V30 7 1 19 1
M  V30 8 2 19 7
M  V30 9 1 19 16
M  V30 10 1 20 11
M  V30 11 1 21 15
M  V30 12 1 21 20
M  V30 13 1 22 5
M  V30 14 2 22 14
M  V30 15 1 22 16
M  V30 16 1 23 15
M  V30 17 1 24 7
M  V30 18 2 24 8
M  V30 19 1 25 18
M  V30 20 2 26 4
M  V30 21 1 26 15
M  V30 22 1 27 7
M  V30 23 1 28 11
M  V30 24 1 28 13
M  V30 25 1 28 18
M  V30 26 1 29 2
M  V30 27 1 29 21
M  V30 28 2 30 5
M  V30 29 1 30 23
M  V30 30 1 32 4
M  V30 31 1 32 30
M  V30 32 1 33 13
M  V30 33 1 33 25
M  V30 34 1 33 31
M  V30 35 1 34 8
M  V30 36 1 34 12
M  V30 37 2 34 16
M  V30 38 1 35 2
M  V30 39 1 36 2
M  V30 40 1 37 4
M  V30 41 1 38 6
M  V30 42 1 39 6
M  V30 43 1 40 8
M  V30 44 1 41 9
M  V30 45 1 42 9
M  V30 46 1 43 9
M  V30 47 1 44 10
M  V30 48 1 45 10
M  V30 49 1 46 12
M  V30 50 1 47 12
M  V30 51 1 48 12
M  V30 52 1 49 18
M  V30 53 1 50 18
M  V30 54 1 51 20
M  V30 55 1 52 20
M  V30 56 1 21 53 CFG=1
M  V30 57 1 54 23
M  V30 58 1 55 23
M  V30 59 1 56 25
M  V30 60 1 57 25
M  V30 61 1 58 26
M  V30 62 1 59 27
M  V30 63 1 60 27
M  V30 64 1 61 29
M  V30 65 1 62 29
M  V30 66 1 63 31
M  V30 67 1 64 31
M  V30 68 1 65 31
M  V30 69 1 33 66 CFG=3
M  V30 70 1 67 32
M  V30 END BOND
M  V30 END CTAB
M  END
>  <i_epik_Tot_Q>  (1) 
-1

>  <i_epik_Tot_abs_Q>  (1) 
1

>  <i_i_glide_confnum>  (1) 
473

>  <i_i_glide_lignum>  (1) 
61

>  <i_i_glide_posenum>  (1) 
211

>  <i_i_glide_rotatable_bonds>  (1) 
5

>  <i_lp_mmshare_version>  (1) 
72125

>  <i_m_source_file_index>  (1) 
26

>  <i_f3d_flags>  (1) 
0

>  <num_sample>  (1) 
100

>  <b_lp_Chiralities_Consistent>  (1) 
1

>  <r_epik_Charging_Adjusted_Penalty>  (1) 
0.31558791334810349

>  <r_epik_Ionization_Penalty>  (1) 
0.22690283062159758

>  <r_epik_Ionization_Penalty_Charging>  (1) 
2.1847890769935955e-05

>  <r_epik_Ionization_Penalty_Neutral>  (1) 
0.22688098273082763

>  <r_epik_State_Penalty>  (1) 
0.31556606545733357

>  <r_glide_ring_energy>  (1) 
2.3420756030769012

>  <r_i_docking_score>  (1) 
-7.4870016286100265

>  <r_i_glide_ecoul>  (1) 
-2.0473032501410904

>  <r_i_glide_eff_state_penalty>  (1) 
0.31556606545733357

>  <r_i_glide_einternal>  (1) 
21.53082441859307

>  <r_i_glide_emodel>  (1) 
-52.876898989015409

>  <r_i_glide_emodel_strain>  (1) 
1.8008344281381596

>  <r_i_glide_energy>  (1) 
-46.065481107210637

>  <r_i_glide_erotb>  (1) 
0.36642180475109298

>  <r_i_glide_esite>  (1) 
-0.030369682666705013

>  <r_i_glide_evdw>  (1) 
-44.018177857069546

>  <r_i_glide_gscore>  (1) 
-7.8025676940673598

>  <r_i_glide_gscore_strain>  (1) 
0

>  <r_i_glide_hbond>  (1) 
-0.20413468230807738

>  <r_i_glide_ligand_efficiency>  (1) 
-0.22020593025323607

>  <r_i_glide_ligand_efficiency_ln>  (1) 
-1.6540886630423521

>  <r_i_glide_ligand_efficiency_sa>  (1) 
-0.71338173035967012

>  <r_i_glide_lipo>  (1) 
-3.5274173611586734

>  <r_i_glide_metal>  (1) 
-0

>  <r_i_glide_rewards>  (1) 
-1.8990633923103559

>  <r_lp_Energy>  (1) 
73.741174999999998

>  <s_epik_Chemistry_Notes>  (1) 
This compound has an imine and may undergo hydrolysis. This compound has a N-S or N-O group and may undergo hydrolysis at high or low pH.

>  <s_epik_cmdline>  (1) 
J2VwaWtfcHl0aG9uJywgJy1waHQnLCAnMS4wJywgJy1waCcsICc3LjQnLCAnLXRuJywgJzgnLCAnLW1hJywgJzUwMCcsICctaW1hZScsICc8aW5maWxlLm1hZT4nLCAnLW9tYWUnLCAnPG91dGZpbGUubWFlPic=

>  <s_epik_input>  (1) 
W09IXUMoPU8pYyhjMVtOSDJdKWMoYyhbY0hdbjEpW0NIM10pQyg9TylbTkhdQyg9TltDSF09W0NIXTIpW0NIMl1OMltDQEhdKFtDSDJdMylbQ0gyXVtDSDJdW0NIMl1bQ0gyXVtDQF0zKFtDSDNdKU40T1tDQEBIXShbQ0gzXSlbQ0gyXVtDSDJdNA==

>  <s_glide_docking_method>  (1) 
confgen

>  <s_i_glide_gridfile>  (1) 
gpcr_5ht2c_6bqh_protein_autoprepared_prepared

>  <s_lp_Force_Field>  (1) 
S-OPLS

>  <s_lp_Variant>  (1) 
DiffSBDD_25-1

>  <s_m_source_file>  (1) 
generated_GPCR_5HT2C_ligand_DiffSBDD_2026-06-23_prepared.sdf

>  <GenAI_Model>  (1) 
DiffSBDD

>  <Protein>  (1) 
GPCR_5HT2C

$$$$
DiffSBDD_3
     RDKit          3D

  0  0  0  0  0  0  0  0  0  0999 V3000
M  V30 BEGIN CTAB
M  V30 COUNTS 72 76 0 0 1
M  V30 BEGIN ATOM
M  V30 1 C 39.817979 29.978908 66.446829 0
M  V30 2 C 39.290485 34.617532 62.046260 0
M  V30 3 N 38.445126 37.948772 61.367781 0
M  V30 4 C 40.812691 32.336809 63.507936 0
M  V30 5 N 41.137387 31.033930 63.894595 0
M  V30 6 C 39.902484 30.936252 62.021395 0
M  V30 7 C 39.060475 28.766116 51.262197 0 CFG=2
M  V30 8 C 41.890123 30.594856 65.084024 0 CFG=1
M  V30 9 C 39.209876 37.446677 62.084626 0
M  V30 10 C 41.226870 33.431903 64.183171 0
M  V30 11 O 39.654067 29.987755 55.336250 0
M  V30 12 C 38.421711 33.378297 55.684497 0
M  V30 13 C 40.550895 30.214364 62.944670 0
M  V30 14 C 37.885938 32.541328 58.097064 0
M  V30 15 C 37.486094 29.187072 54.705248 0 CFG=1
M  V30 16 C 43.363227 31.048462 65.120304 0
M  V30 17 C 37.971133 27.787790 54.375464 0
M  V30 18 C 41.106308 30.814549 66.394175 0
M  V30 19 O 36.764781 31.682657 60.081540 0
M  V30 20 O 39.470821 27.403995 51.445031 0
M  V30 21 N 38.892710 29.337718 52.578847 0
M  V30 22 C 39.106515 31.058867 59.637264 0
M  V30 23 C 40.445129 28.332944 50.937518 0 CFG=1
M  V30 24 C 40.131432 35.383399 62.961384 0
M  V30 25 O 37.597339 33.685383 58.454035 0
M  V30 26 N 40.049349 32.290703 62.361654 0
M  V30 27 C 38.494666 32.225059 56.708403 0 CFG=1
M  V30 28 N 37.832023 31.073682 56.112135 0
M  V30 29 C 38.429631 30.106665 55.406028 0
M  V30 30 C 40.967776 34.841203 63.882056 0
M  V30 31 C 37.708493 31.355123 59.075035 0 CFG=2
M  V30 32 C 39.874981 29.549264 50.251858 0
M  V30 33 C 40.704990 28.703683 63.015729 0
M  V30 34 N 39.236172 30.386381 60.921913 0
M  V30 35 N 40.045120 36.769858 62.904505 0
M  V30 36 C 39.278189 33.300851 61.820087 0
M  V30 37 C 37.739459 28.776754 53.258744 0 CFG=2
M  V30 38 H 39.265815 30.145741 67.367766 0
M  V30 39 H 39.150104 30.227552 65.622844 0
M  V30 40 H 40.039145 28.912616 66.386824 0
M  V30 41 H 38.581480 35.186236 61.465190 0
M  V30 42 H 41.986292 29.513343 65.005322 0
M  V30 43 H 41.831202 33.255087 65.050882 0
M  V30 44 H 39.245140 34.078435 55.767760 0
M  V30 45 H 38.445401 32.998254 54.662003 0
M  V30 46 H 37.501886 33.949383 55.783166 0
M  V30 47 H 36.445136 29.337753 54.967758 0
M  V30 48 H 43.910850 30.486312 65.876110 0
M  V30 49 H 43.852801 30.856970 64.166075 0
M  V30 50 H 43.500295 32.098472 65.367807 0
M  V30 51 H 39.000919 27.523045 54.611035 0
M  V30 52 H 37.255657 26.976010 54.489697 0
M  V30 53 H 41.731852 30.530915 67.241534 0
M  V30 54 H 40.866372 31.867669 66.535268 0
M  V30 55 H 35.973633 31.954565 59.637157 0
M  V30 56 H 39.717687 29.190106 53.144029 0
M  V30 57 H 39.644402 30.453220 58.906659 0
M  V30 58 H 39.645138 31.995281 59.700786 0
M  V30 59 H 41.243304 28.539087 51.645904 0
M  V30 60 H 39.549300 31.991067 56.860414 0
M  V30 61 H 36.811550 31.104326 56.167642 0
M  V30 62 H 41.504016 35.549567 64.498464 0
M  V30 63 H 37.325299 30.482546 58.547431 0
M  V30 64 H 39.645143 29.435439 49.195441 0
M  V30 65 H 40.256329 30.526785 50.542387 0
M  V30 66 H 40.445382 28.325844 64.003448 0
M  V30 67 H 40.042524 28.210047 62.305096 0
M  V30 68 H 41.728404 28.412124 62.778743 0
M  V30 69 H 39.206443 29.378435 60.871925 0
M  V30 70 H 40.628568 37.296177 63.546242 0
M  V30 71 H 38.577887 32.928260 61.107720 0
M  V30 72 H 36.834948 28.616237 52.673748 0
M  V30 END ATOM
M  V30 BEGIN BOND
M  V30 1 1 5 4
M  V30 2 1 8 5
M  V30 3 3 9 3
M  V30 4 2 10 4
M  V30 5 1 13 5
M  V30 6 2 13 6
M  V30 7 1 16 8
M  V30 8 1 17 15
M  V30 9 1 18 1
M  V30 10 1 18 8
M  V30 11 1 20 7
M  V30 12 1 7 21 CFG=1
M  V30 13 1 23 7
M  V30 14 1 23 20
M  V30 15 1 24 2
M  V30 16 2 25 14
M  V30 17 1 26 4
M  V30 18 1 26 6
M  V30 19 1 27 12
M  V30 20 1 27 14
M  V30 21 1 28 27
M  V30 22 2 29 11
M  V30 23 1 29 15
M  V30 24 1 29 28
M  V30 25 1 30 10
M  V30 26 2 30 24
M  V30 27 1 31 14
M  V30 28 1 31 19
M  V30 29 1 31 22
M  V30 30 1 32 7
M  V30 31 1 32 23
M  V30 32 1 33 13
M  V30 33 1 34 6
M  V30 34 1 34 22
M  V30 35 1 35 9
M  V30 36 1 35 24
M  V30 37 2 36 2
M  V30 38 1 36 26
M  V30 39 1 37 15
M  V30 40 1 37 17
M  V30 41 1 37 21
M  V30 42 1 38 1
M  V30 43 1 39 1
M  V30 44 1 40 1
M  V30 45 1 41 2
M  V30 46 1 8 42 CFG=3
M  V30 47 1 43 10
M  V30 48 1 44 12
M  V30 49 1 45 12
M  V30 50 1 46 12
M  V30 51 1 15 47 CFG=3
M  V30 52 1 48 16
M  V30 53 1 49 16
M  V30 54 1 50 16
M  V30 55 1 51 17
M  V30 56 1 52 17
M  V30 57 1 53 18
M  V30 58 1 54 18
M  V30 59 1 55 19
M  V30 60 1 56 21
M  V30 61 1 57 22
M  V30 62 1 58 22
M  V30 63 1 23 59 CFG=1
M  V30 64 1 27 60 CFG=1
M  V30 65 1 61 28
M  V30 66 1 62 30
M  V30 67 1 31 63 CFG=3
M  V30 68 1 64 32
M  V30 69 1 65 32
M  V30 70 1 66 33
M  V30 71 1 67 33
M  V30 72 1 68 33
M  V30 73 1 69 34
M  V30 74 1 70 35
M  V30 75 1 71 36
M  V30 76 1 37 72 CFG=3
M  V30 END BOND
M  V30 END CTAB
M  END
>  <i_epik_Tot_Q>  (1) 
0

>  <i_epik_Tot_abs_Q>  (1) 
0

>  <i_i_glide_confnum>  (1) 
142

>  <i_i_glide_lignum>  (1) 
5

>  <i_i_glide_posenum>  (1) 
118

>  <i_i_glide_rotatable_bonds>  (1) 
14

>  <i_lp_mmshare_version>  (1) 
72125

>  <i_m_source_file_index>  (1) 
4

>  <i_f3d_flags>  (1) 
0

>  <num_sample>  (1) 
100

>  <b_lp_Chiralities_Consistent>  (1) 
1

>  <r_epik_Charging_Adjusted_Penalty>  (1) 
1.1379790187908705e-13

>  <r_epik_Ionization_Penalty>  (1) 
1.2816857149940913e-05

>  <r_epik_Ionization_Penalty_Charging>  (1) 
1.1379790187908705e-13

>  <r_epik_Ionization_Penalty_Neutral>  (1) 
1.2816857036143011e-05

>  <r_epik_State_Penalty>  (1) 
-0

>  <r_glide_ring_energy>  (1) 
0

>  <r_i_docking_score>  (1) 
-7.4839146490842561

>  <r_i_glide_ecoul>  (1) 
-7.5959157960098116

>  <r_i_glide_eff_state_penalty>  (1) 
-0

>  <r_i_glide_einternal>  (1) 
36.445313124675479

>  <r_i_glide_emodel>  (1) 
-62.98459275549132

>  <r_i_glide_emodel_strain>  (1) 
1.5877834095074945

>  <r_i_glide_energy>  (1) 
-57.726065193193357

>  <r_i_glide_erotb>  (1) 
0.94635060674965676

>  <r_i_glide_esite>  (1) 
-0.21239973737230111

>  <r_i_glide_evdw>  (1) 
-50.130149397183544

>  <r_i_glide_gscore>  (1) 
-7.4839146490842561

>  <r_i_glide_gscore_strain>  (1) 
0

>  <r_i_glide_hbond>  (1) 
-0.39301446592556122

>  <r_i_glide_ligand_efficiency>  (1) 
-0.20226796348876369

>  <r_i_glide_ligand_efficiency_ln>  (1) 
-1.6230856395342883

>  <r_i_glide_ligand_efficiency_sa>  (1) 
-0.6740017278251843

>  <r_i_glide_lipo>  (1) 
-2.9088327606706716

>  <r_i_glide_metal>  (1) 
-0

>  <r_i_glide_rewards>  (1) 
-1.2701234526047289

>  <r_lp_Energy>  (1) 
56.905592999999996

>  <r_lp_tautomer_probability>  (1) 
1

>  <s_epik_Chemistry_Notes>  (1) 
This compound has an imine and may undergo hydrolysis.

>  <s_epik_cmdline>  (1) 
J2VwaWtfcHl0aG9uJywgJy1waHQnLCAnMS4wJywgJy1waCcsICc3LjQnLCAnLXRuJywgJzgnLCAnLW1hJywgJzUwMCcsICctaW1hZScsICc8aW5maWxlLm1hZT4nLCAnLW9tYWUnLCAnPG91dGZpbGUubWFlPic=

>  <s_epik_input>  (1) 
TiNDW05IXUMoPVtDSF1bQ0hdMSlbQ0hdPVtDSF1OKEM9MTIpQyg9QyhbQ0gzXSlOMltDQEBIXShbQ0gzXSlbQ0gyXVtDSDNdKVtOSF1bQ0gyXVtDQEBIXShbT0hdKUMoPU8pW0NASF0oW0NIM10pW05IXUMoPU8pW0NAQEhdM1tDSDJdW0NAQEhdM1tOSF1DNDVbQ0hdKE80KVtDSDJdNQ==

>  <s_glide_docking_method>  (1) 
confgen

>  <s_i_glide_gridfile>  (1) 
gpcr_5ht2c_6bqh_protein_autoprepared_prepared

>  <s_lp_Force_Field>  (1) 
S-OPLS

>  <s_lp_Variant>  (1) 
DiffSBDD_3-1

>  <s_m_source_file>  (1) 
generated_GPCR_5HT2C_ligand_DiffSBDD_2026-06-23_prepared.sdf

>  <GenAI_Model>  (1) 
DiffSBDD

>  <Protein>  (1) 
GPCR_5HT2C

$$$$
DiffSBDD_75
     RDKit          3D

  0  0  0  0  0  0  0  0  0  0999 V3000
M  V30 BEGIN CTAB
M  V30 COUNTS 76 77 0 0 1
M  V30 BEGIN ATOM
M  V30 1 C 38.001353 32.375560 61.646886 0
M  V30 2 C 34.830485 32.923734 59.898087 0
M  V30 3 O 37.181364 29.737755 56.641774 0
M  V30 4 C 39.896437 34.511410 62.723492 0
M  V30 5 C 39.670435 29.680111 55.296508 0 CFG=2
M  V30 6 C 41.822820 29.484940 64.535428 0
M  V30 7 C 38.240015 29.462403 57.525998 0 CFG=2
M  V30 8 C 42.053587 28.169900 64.077830 0
M  V30 9 O 38.129818 29.337444 53.451008 0
M  V30 10 C 39.947279 27.637767 56.779478 0 CFG=2
M  V30 11 O 40.845134 26.224269 66.967638 0
M  V30 12 S 37.030449 30.547361 59.767676 0
M  V30 13 C 41.055087 35.431897 63.130274 0
M  V30 14 C 41.160449 27.286617 66.170097 0
M  V30 15 C 38.357589 30.616517 58.529782 0
M  V30 16 C 42.203489 30.669420 63.670324 0
M  V30 17 C 41.253305 29.696705 65.807273 0
M  V30 18 O 39.314689 25.454551 55.913857 0
M  V30 19 C 40.129234 27.062369 58.201163 0
M  V30 20 C 39.570060 29.147111 56.761864 0 CFG=1
M  V30 21 O 40.929200 35.737753 64.499648 0
M  V30 22 O 35.772333 32.651667 60.926226 0
M  V30 23 O 40.530619 30.288370 61.368363 0
M  V30 24 C 39.690192 34.727481 60.323847 0
M  V30 25 N 40.084974 33.855623 61.422967 0
M  V30 26 C 40.367118 31.366014 61.939889 0
M  V30 27 C 41.722623 27.071140 64.896458 0
M  V30 28 C 41.041201 31.610052 63.301282 0
M  V30 29 C 39.512203 32.497451 61.294865 0 CFG=1
M  V30 30 C 40.922462 28.599401 66.622078 0
M  V30 31 C 38.969600 27.301932 54.436196 0
M  V30 32 C 37.044113 32.233992 60.445269 0 CFG=1
M  V30 33 C 39.446773 31.200335 55.136595 0
M  V30 34 C 38.964885 26.825706 55.902680 0 CFG=2
M  V30 35 C 38.845143 28.823840 54.310013 0
M  V30 36 H 37.819523 31.561009 62.349188 0
M  V30 37 H 37.684238 33.273345 62.167870 0
M  V30 38 H 33.923135 33.338123 60.336174 0
M  V30 39 H 35.210632 33.651662 59.180200 0
M  V30 40 H 34.553584 32.014693 59.364411 0
M  V30 41 H 36.619287 30.436939 56.972651 0
M  V30 42 H 38.971631 35.090871 62.726020 0
M  V30 43 H 39.746321 33.772035 63.503705 0
M  V30 44 H 37.924908 28.587401 58.090475 0
M  V30 45 H 42.489766 28.004207 63.102549 0
M  V30 46 H 39.896725 26.999958 53.949193 0
M  V30 47 H 40.931345 27.561431 56.313158 0
M  V30 48 H 40.387002 26.495213 67.754779 0
M  V30 49 H 42.017495 34.943460 62.978310 0
M  V30 50 H 41.051897 36.351139 62.542897 0
M  V30 51 H 38.362404 31.579695 58.018146 0
M  V30 52 H 39.295870 30.528009 59.069372 0
M  V30 53 H 42.942922 31.241281 64.232157 0
M  V30 54 H 42.730342 30.324807 62.786688 0
M  V30 55 H 41.075232 30.701889 66.159859 0
M  V30 56 H 40.237736 25.373469 55.726434 0
M  V30 57 H 39.183168 26.916100 58.720585 0
M  V30 58 H 40.621298 26.089805 58.166843 0
M  V30 59 H 40.754486 27.712683 58.813812 0
M  V30 60 H 40.371109 29.635789 57.315780 0
M  V30 61 H 41.453930 36.508534 64.683167 0
M  V30 62 H 40.233451 35.672154 60.357098 0
M  V30 63 H 39.914764 34.257903 59.367740 0
M  V30 64 H 38.622710 34.951417 60.349841 0
M  V30 65 H 41.903629 26.064486 64.548893 0
M  V30 66 H 40.294422 31.652665 64.093599 0
M  V30 67 H 41.494710 32.596023 63.241471 0
M  V30 68 H 39.574350 32.269685 60.233783 0
M  V30 69 H 40.489749 28.765372 67.597365 0
M  V30 70 H 38.157607 26.826918 53.884805 0
M  V30 71 H 40.703733 29.520564 54.994995 0
M  V30 72 H 37.351006 32.927839 59.661380 0
M  V30 73 H 39.736846 31.528222 54.138313 0
M  V30 74 H 38.405417 31.491747 55.273314 0
M  V30 75 H 40.044882 31.764284 55.852140 0
M  V30 76 H 37.952884 26.907137 56.301668 0
M  V30 END ATOM
M  V30 BEGIN BOND
M  V30 1 1 7 3
M  V30 2 1 8 6
M  V30 3 1 13 4
M  V30 4 1 14 11
M  V30 5 1 15 7
M  V30 6 1 15 12
M  V30 7 1 16 6
M  V30 8 2 17 6
M  V30 9 1 19 10
M  V30 10 1 20 5
M  V30 11 1 20 7
M  V30 12 1 20 10
M  V30 13 1 21 13
M  V30 14 1 22 2
M  V30 15 1 25 4
M  V30 16 1 25 24
M  V30 17 2 26 23
M  V30 18 2 27 8
M  V30 19 1 27 14
M  V30 20 1 28 16
M  V30 21 1 28 26
M  V30 22 1 29 1
M  V30 23 1 29 25
M  V30 24 1 29 26
M  V30 25 2 30 14
M  V30 26 1 30 17
M  V30 27 1 32 1
M  V30 28 1 32 12
M  V30 29 1 32 22
M  V30 30 1 33 5
M  V30 31 1 34 10
M  V30 32 1 34 18
M  V30 33 1 34 31
M  V30 34 1 35 5
M  V30 35 2 35 9
M  V30 36 1 35 31
M  V30 37 1 36 1
M  V30 38 1 37 1
M  V30 39 1 38 2
M  V30 40 1 39 2
M  V30 41 1 40 2
M  V30 42 1 41 3
M  V30 43 1 42 4
M  V30 44 1 43 4
M  V30 45 1 7 44 CFG=1
M  V30 46 1 45 8
M  V30 47 1 46 31
M  V30 48 1 10 47 CFG=3
M  V30 49 1 48 11
M  V30 50 1 49 13
M  V30 51 1 50 13
M  V30 52 1 51 15
M  V30 53 1 52 15
M  V30 54 1 53 16
M  V30 55 1 54 16
M  V30 56 1 55 17
M  V30 57 1 56 18
M  V30 58 1 57 19
M  V30 59 1 58 19
M  V30 60 1 59 19
M  V30 61 1 20 60 CFG=1
M  V30 62 1 61 21
M  V30 63 1 62 24
M  V30 64 1 63 24
M  V30 65 1 64 24
M  V30 66 1 65 27
M  V30 67 1 66 28
M  V30 68 1 67 28
M  V30 69 1 29 68 CFG=3
M  V30 70 1 69 30
M  V30 71 1 70 31
M  V30 72 1 5 71 CFG=3
M  V30 73 1 32 72 CFG=3
M  V30 74 1 73 33
M  V30 75 1 74 33
M  V30 76 1 75 33
M  V30 77 1 34 76 CFG=1
M  V30 END BOND
M  V30 END CTAB
M  END
>  <i_epik_Tot_Q>  (1) 
0

>  <i_epik_Tot_abs_Q>  (1) 
0

>  <i_i_glide_confnum>  (1) 
4914

>  <i_i_glide_lignum>  (1) 
173

>  <i_i_glide_posenum>  (1) 
88

>  <i_i_glide_rotatable_bonds>  (1) 
18

>  <i_lp_mmshare_version>  (1) 
72125

>  <i_m_source_file_index>  (1) 
76

>  <i_f3d_flags>  (1) 
0

>  <num_sample>  (1) 
100

>  <b_lp_Chiralities_Consistent>  (1) 
1

>  <r_epik_Charging_Adjusted_Penalty>  (1) 
0.60615279515584763

>  <r_epik_Ionization_Penalty>  (1) 
0.6077244911787385

>  <r_epik_Ionization_Penalty_Charging>  (1) 
0

>  <r_epik_Ionization_Penalty_Neutral>  (1) 
0.6077244911787385

>  <r_epik_State_Penalty>  (1) 
0.60615279515584763

>  <r_glide_ring_energy>  (1) 
0

>  <r_i_docking_score>  (1) 
-7.4717213890181844

>  <r_i_glide_ecoul>  (1) 
-11.882391019391275

>  <r_i_glide_eff_state_penalty>  (1) 
0.60615279515584763

>  <r_i_glide_einternal>  (1) 
11.840181549783811

>  <r_i_glide_emodel>  (1) 
-79.096118950064096

>  <r_i_glide_emodel_strain>  (1) 
2.8903189990482119

>  <r_i_glide_energy>  (1) 
-60.920803928089299

>  <r_i_glide_erotb>  (1) 
1.0176109525924779

>  <r_i_glide_esite>  (1) 
0

>  <r_i_glide_evdw>  (1) 
-49.038412908698021

>  <r_i_glide_gscore>  (1) 
-8.077874184174032

>  <r_i_glide_gscore_strain>  (1) 
0

>  <r_i_glide_hbond>  (1) 
-1.0089314558501841

>  <r_i_glide_ligand_efficiency>  (1) 
-0.21347775397194813

>  <r_i_glide_ligand_efficiency_ln>  (1) 
-1.6402086708112567

>  <r_i_glide_ligand_efficiency_sa>  (1) 
-0.69829988899236806

>  <r_i_glide_lipo>  (1) 
-3.1311559329382161

>  <r_i_glide_metal>  (1) 
-0

>  <r_i_glide_rewards>  (1) 
-0.72111844963451821

>  <r_lp_Energy>  (1) 
28.00357

>  <r_lp_tautomer_probability>  (1) 
0.99999993999736703

>  <s_epik_Chemistry_Notes>  (1) 
This compound contains an acetal/aminal-like group ( X-CH(R)-Y where X, Y are N, S, or O) that may be acid/base labile, releasing an aldehyde.

>  <s_epik_cmdline>  (1) 
J2VwaWtfcHl0aG9uJywgJy1waHQnLCAnMS4wJywgJy1waCcsICc3LjQnLCAnLXRuJywgJzgnLCAnLW1hJywgJzUwMCcsICctaW1hZScsICc8aW5maWxlLm1hZT4nLCAnLW9tYWUnLCAnPG91dGZpbGUubWFlPic=

>  <s_epik_input>  (1) 
W2NIXTFbY0hdYyhbT0hdKVtjSF1bY0hdYzFbQ0gyXVtDSDJdQyg9TylbQ0BIXShOKFtDSDNdKVtDSDJdW0NIMl1bT0hdKVtDSDJdW0NASF0oT1tDSDNdKVNbQ0gyXVtDQEBIXShbT0hdKVtDQEhdMltDQEBIXShbQ0gzXSlbQ0BIXShbT0hdKVtDSDJdQyhbT0hdKT1DMltDSDNd

>  <s_glide_docking_method>  (1) 
confgen

>  <s_i_glide_gridfile>  (1) 
gpcr_5ht2c_6bqh_protein_autoprepared_prepared

>  <s_lp_Force_Field>  (1) 
S-OPLS

>  <s_lp_Variant>  (1) 
DiffSBDD_75-10

>  <s_m_source_file>  (1) 
generated_GPCR_5HT2C_ligand_DiffSBDD_2026-06-23_prepared.sdf

>  <GenAI_Model>  (1) 
DiffSBDD

>  <Protein>  (1) 
GPCR_5HT2C

$$$$
DiffSBDD_50
     RDKit          3D

  0  0  0  0  0  0  0  0  0  0999 V3000
M  V30 BEGIN CTAB
M  V30 COUNTS 66 69 0 0 1
M  V30 BEGIN ATOM
M  V30 1 C 38.784350 29.138968 58.230638 0 CFG=2
M  V30 2 F 38.185107 26.623410 53.630901 0
M  V30 3 C 37.900760 31.590041 60.730934 0
M  V30 4 O 40.314857 29.114827 61.530089 0
M  V30 5 O 36.445087 34.689483 61.767756 0
M  V30 6 O 38.302343 32.708038 61.442612 0
M  V30 7 S 36.286568 29.978833 59.350323 0
M  V30 8 C 37.825969 28.410723 57.249030 0
M  V30 9 C 40.010477 34.394062 60.967168 0 CFG=2
M  V30 10 O 39.525798 25.757368 56.248622 0
M  V30 11 C 37.668194 35.072326 61.186406 0 CFG=1
M  V30 12 C 40.988208 36.011196 62.777163 0
M  V30 13 C 40.707485 27.856818 57.048935 0
M  V30 14 C 38.416883 27.959144 55.896676 0 CFG=2
M  V30 15 C 39.081865 27.556082 51.634324 0
M  V30 16 C 40.100330 30.392135 60.965716 0
M  V30 17 C 39.735869 27.159490 56.076450 0 CFG=2
M  V30 18 C 39.409208 25.239998 57.560053 0
M  V30 19 F 40.384060 30.908729 50.922993 0
M  V30 20 C 39.490868 30.015190 52.951590 0
M  V30 21 C 39.921339 35.745874 61.702867 0 CFG=2
M  V30 22 C 40.077261 28.297788 58.384375 0
M  V30 23 C 39.641574 28.642096 50.942433 0
M  V30 24 C 38.504532 35.826019 62.216186 0
M  V30 25 C 38.075079 29.407885 59.606808 0 CFG=2
M  V30 26 C 38.930176 28.934789 53.666496 0
M  V30 27 C 38.560886 33.896643 60.696884 0 CFG=2
M  V30 28 C 38.672456 30.543604 60.467429 0
M  V30 29 N 38.593516 29.133116 55.034347 0
M  V30 30 C 38.723594 27.684784 52.989896 0
M  V30 31 C 39.846734 29.866721 51.597003 0
M  V30 32 O 38.411446 33.738457 59.294766 0
M  V30 33 O 35.704954 32.343689 60.364982 0
M  V30 34 O 40.811514 33.468796 61.673300 0
M  V30 35 C 36.579168 31.495475 60.221685 0
M  V30 36 H 39.043659 30.098324 57.778509 0
M  V30 37 H 39.794977 29.032574 62.318124 0
M  V30 38 H 36.044226 35.448499 62.162342 0
M  V30 39 H 37.381596 27.554947 57.756333 0
M  V30 40 H 36.993427 29.066389 57.000105 0
M  V30 41 H 40.445061 34.604196 59.999011 0
M  V30 42 H 37.477496 35.744612 60.346097 0
M  V30 43 H 40.957673 35.268975 63.575711 0
M  V30 44 H 41.984733 35.997290 62.339164 0
M  V30 45 H 40.838596 36.986883 63.236178 0
M  V30 46 H 41.074391 28.746681 56.541663 0
M  V30 47 H 41.587432 27.236398 57.225157 0
M  V30 48 H 37.623367 27.334860 55.501172 0
M  V30 49 H 38.924015 26.616837 51.123258 0
M  V30 50 H 40.306750 31.107662 61.754754 0
M  V30 51 H 40.814316 30.559029 60.168223 0
M  V30 52 H 40.259180 27.150138 55.122515 0
M  V30 53 H 39.233588 24.166546 57.490400 0
M  V30 54 H 40.328025 25.378932 58.133497 0
M  V30 55 H 38.569674 25.677102 58.097471 0
M  V30 56 H 39.652263 30.962792 53.444428 0
M  V30 57 H 40.025453 36.536336 60.967546 0
M  V30 58 H 40.844317 28.856108 58.910665 0
M  V30 59 H 39.874106 27.431708 59.010235 0
M  V30 60 H 39.914793 28.535719 49.904120 0
M  V30 61 H 38.477943 35.341560 63.179321 0
M  V30 62 H 38.170274 36.854551 62.351853 0
M  V30 63 H 38.051849 28.477430 60.168686 0
M  V30 64 H 38.839269 30.010110 55.470719 0
M  V30 65 H 39.065223 33.124200 59.001311 0
M  V30 66 H 40.381591 33.285564 62.495603 0
M  V30 END ATOM
M  V30 BEGIN BOND
M  V30 1 1 6 3
M  V30 2 1 8 1
M  V30 3 1 11 5
M  V30 4 1 14 8
M  V30 5 1 16 4
M  V30 6 1 17 10
M  V30 7 1 17 13
M  V30 8 1 17 14
M  V30 9 1 18 10
M  V30 10 1 21 9
M  V30 11 1 21 12
M  V30 12 1 22 1
M  V30 13 1 22 13
M  V30 14 2 23 15
M  V30 15 1 24 11
M  V30 16 1 24 21
M  V30 17 1 25 1
M  V30 18 1 25 7
M  V30 19 1 26 20
M  V30 20 1 27 6 CFG=1
M  V30 21 1 27 9
M  V30 22 1 27 11
M  V30 23 2 28 3
M  V30 24 1 28 16
M  V30 25 1 28 25
M  V30 26 1 29 14
M  V30 27 1 29 26
M  V30 28 1 30 2
M  V30 29 1 30 15
M  V30 30 2 30 26
M  V30 31 1 31 19
M  V30 32 2 31 20
M  V30 33 1 31 23
M  V30 34 1 32 27
M  V30 35 1 34 9
M  V30 36 1 35 3
M  V30 37 1 35 7
M  V30 38 2 35 33
M  V30 39 1 1 36 CFG=3
M  V30 40 1 37 4
M  V30 41 1 38 5
M  V30 42 1 39 8
M  V30 43 1 40 8
M  V30 44 1 9 41 CFG=3
M  V30 45 1 11 42 CFG=3
M  V30 46 1 43 12
M  V30 47 1 44 12
M  V30 48 1 45 12
M  V30 49 1 46 13
M  V30 50 1 47 13
M  V30 51 1 14 48 CFG=3
M  V30 52 1 49 15
M  V30 53 1 50 16
M  V30 54 1 51 16
M  V30 55 1 17 52 CFG=3
M  V30 56 1 53 18
M  V30 57 1 54 18
M  V30 58 1 55 18
M  V30 59 1 56 20
M  V30 60 1 21 57 CFG=3
M  V30 61 1 58 22
M  V30 62 1 59 22
M  V30 63 1 60 23
M  V30 64 1 61 24
M  V30 65 1 62 24
M  V30 66 1 25 63 CFG=1
M  V30 67 1 64 29
M  V30 68 1 65 32
M  V30 69 1 66 34
M  V30 END BOND
M  V30 END CTAB
M  END
>  <i_epik_Tot_Q>  (1) 
0

>  <i_epik_Tot_abs_Q>  (1) 
0

>  <i_i_glide_confnum>  (1) 
75

>  <i_i_glide_lignum>  (1) 
104

>  <i_i_glide_posenum>  (1) 
220

>  <i_i_glide_rotatable_bonds>  (1) 
11

>  <i_lp_mmshare_version>  (1) 
72125

>  <i_m_source_file_index>  (1) 
51

>  <i_f3d_flags>  (1) 
0

>  <num_sample>  (1) 
100

>  <b_lp_Chiralities_Consistent>  (1) 
1

>  <r_epik_Charging_Adjusted_Penalty>  (1) 
0.32088234562257889

>  <r_epik_Ionization_Penalty>  (1) 
0.32096673837562456

>  <r_epik_Ionization_Penalty_Charging>  (1) 
0

>  <r_epik_Ionization_Penalty_Neutral>  (1) 
0.32096673837562456

>  <r_epik_State_Penalty>  (1) 
0.32088234562257889

>  <r_glide_ring_energy>  (1) 
0

>  <r_i_docking_score>  (1) 
-7.4683426424316162

>  <r_i_glide_ecoul>  (1) 
-0.18228653071659751

>  <r_i_glide_eff_state_penalty>  (1) 
0.32088234562257889

>  <r_i_glide_einternal>  (1) 
16.539095958153204

>  <r_i_glide_emodel>  (1) 
-55.092425800704902

>  <r_i_glide_emodel_strain>  (1) 
3.783348341358348

>  <r_i_glide_energy>  (1) 
-47.29525191246838

>  <r_i_glide_erotb>  (1) 
0.46316945766964901

>  <r_i_glide_esite>  (1) 
-0.065003230447301497

>  <r_i_glide_evdw>  (1) 
-47.112965381751785

>  <r_i_glide_gscore>  (1) 
-7.7892249880541948

>  <r_i_glide_gscore_strain>  (1) 
0

>  <r_i_glide_hbond>  (1) 
0

>  <r_i_glide_ligand_efficiency>  (1) 
-0.21338121835518903

>  <r_i_glide_ligand_efficiency_ln>  (1) 
-1.6394669609482646

>  <r_i_glide_ligand_efficiency_sa>  (1) 
-0.69798411458865406

>  <r_i_glide_lipo>  (1) 
-4.4896313884207668

>  <r_i_glide_metal>  (1) 
-0

>  <r_i_glide_rewards>  (1) 
-1.3147685781606961

>  <r_lp_Energy>  (1) 
66.3018

>  <r_lp_tautomer_probability>  (1) 
0.99999998906363929

>  <s_epik_cmdline>  (1) 
J2VwaWtfcHl0aG9uJywgJy1waHQnLCAnMS4wJywgJy1waCcsICc3LjQnLCAnLXRuJywgJzgnLCAnLW1hJywgJzUwMCcsICctaW1hZScsICc8aW5maWxlLm1hZT4nLCAnLW9tYWUnLCAnPG91dGZpbGUubWFlPic=

>  <s_epik_input>  (1) 
W09IXVtDQEhdMVtDSDJdW0NAQEhdKFtDSDNdKVtDQEBIXShbT0hdKVtDQEBdMShbT0hdKU9DMj1DKFtDSDJdW09IXSlbQ0BASF0oU0MyPU8pW0NAQEhdM1tDSDJdW0NASF0oW0NASF0oT1tDSDNdKVtDSDJdW0NIMl0zKVtOSF1jNFtjSF1jKEYpW2NIXVtjSF1jNEY=

>  <s_glide_docking_method>  (1) 
confgen

>  <s_i_glide_gridfile>  (1) 
gpcr_5ht2c_6bqh_protein_autoprepared_prepared

>  <s_lp_Force_Field>  (1) 
S-OPLS

>  <s_lp_Variant>  (1) 
DiffSBDD_50-2

>  <s_m_source_file>  (1) 
generated_GPCR_5HT2C_ligand_DiffSBDD_2026-06-23_prepared.sdf

>  <GenAI_Model>  (1) 
DiffSBDD

>  <Protein>  (1) 
GPCR_5HT2C

$$$$
DiffSBDD_53
     RDKit          3D

  0  0  0  0  0  0  0  0  0  0999 V3000
M  V30 BEGIN CTAB
M  V30 COUNTS 82 86 0 0 1
M  V30 BEGIN ATOM
M  V30 1 C 38.753947 29.478904 57.367585 0
M  V30 2 C 37.385635 36.054170 62.357522 0
M  V30 3 C 40.845155 33.668667 64.850571 0
M  V30 4 C 38.194814 29.841217 58.743838 0
M  V30 5 C 40.211013 34.915757 62.049765 0
M  V30 6 C 38.041933 28.333953 52.019467 0
M  V30 7 C 39.675869 31.505661 54.747762 0
M  V30 8 N 37.645149 29.336748 56.409148 0 CHG=1
M  V30 9 N 40.921544 36.537702 66.567720 0 CHG=1
M  V30 10 C 37.066013 37.271404 59.684330 0
M  V30 11 C 37.939237 29.445006 54.965141 0 CFG=1
M  V30 12 N 37.762244 31.231291 58.723759 0
M  V30 13 C 39.801269 33.755360 62.580474 0
M  V30 14 C 39.407081 35.540969 60.942158 0
M  V30 15 C 38.327652 30.856953 54.598815 0 CFG=1
M  V30 16 C 37.734977 33.742200 61.261314 0 CFG=1
M  V30 17 C 38.970565 28.429438 54.441409 0 CFG=2
M  V30 18 C 41.811601 35.389621 66.317555 0
M  V30 19 O 37.245129 31.737749 54.567964 0
M  V30 20 C 37.586095 31.795799 60.025884 0
M  V30 21 C 37.379096 37.581218 62.196772 0
M  V30 22 C 36.647746 38.051949 60.942280 0
M  V30 23 C 37.909369 35.290145 61.109742 0
M  V30 24 O 37.889589 33.149020 60.010230 0
M  V30 25 C 37.065287 35.752976 59.893688 0
M  V30 26 C 39.245136 28.667889 52.928861 0 CFG=2
M  V30 27 O 38.486476 27.121560 54.679583 0
M  V30 28 C 41.973142 35.578170 63.766225 0
M  V30 29 N 39.830210 30.034025 52.709811 0 CFG=1 CHG=1
M  V30 30 O 38.635635 33.153810 62.167763 0
M  V30 31 C 40.194745 30.322499 51.301987 0
M  V30 32 C 39.135750 31.177882 53.367705 0 CFG=2
M  V30 33 C 41.413616 35.611853 62.516001 0
M  V30 34 C 40.536457 32.957837 63.592458 0
M  V30 35 C 41.512090 34.828485 64.945771 0
M  V30 36 H 39.296308 28.534345 57.418985 0
M  V30 37 H 39.471326 30.237386 57.061681 0
M  V30 38 H 36.374867 35.729806 62.606796 0
M  V30 39 H 38.022543 35.844827 63.215652 0
M  V30 40 H 40.535579 33.168167 65.757042 0
M  V30 41 H 37.373303 29.185218 59.036392 0
M  V30 42 H 38.988155 29.715933 59.482527 0
M  V30 43 H 37.736726 27.295872 52.153373 0
M  V30 44 H 37.167272 28.937746 52.233034 0
M  V30 45 H 38.278218 28.441194 50.962688 0
M  V30 46 H 39.645334 32.537758 55.091870 0
M  V30 47 H 40.509304 30.913665 55.118477 0
M  V30 48 H 36.954948 30.047536 56.619474 0
M  V30 49 H 41.073142 36.898606 67.498852 0
M  V30 50 H 41.144669 37.260240 65.885922 0
M  V30 51 H 38.045129 37.603228 59.352555 0
M  V30 52 H 36.385826 37.483584 58.862699 0
M  V30 53 H 36.987885 29.242489 54.471426 0
M  V30 54 H 36.943120 31.404945 58.143404 0
M  V30 55 H 39.624307 36.601878 60.967756 0
M  V30 56 H 39.773803 35.138351 59.999572 0
M  V30 57 H 36.726292 33.525249 61.619888 0
M  V30 58 H 39.906443 28.535289 54.992091 0
M  V30 59 H 41.685400 34.637720 67.098532 0
M  V30 60 H 42.843851 35.732244 66.348439 0
M  V30 61 H 36.960092 32.012421 55.434283 0
M  V30 62 H 36.558724 31.636852 60.358385 0
M  V30 63 H 38.257813 31.308968 60.735910 0
M  V30 64 H 38.401593 37.954533 62.167702 0
M  V30 65 H 36.904501 38.030235 63.070603 0
M  V30 66 H 36.845384 39.114835 60.809399 0
M  V30 67 H 35.575383 37.974632 61.084394 0
M  V30 68 H 37.402621 35.279360 58.971609 0
M  V30 69 H 36.034847 35.422583 60.026781 0
M  V30 70 H 40.019064 27.965622 52.610148 0
M  V30 71 H 39.118786 26.484713 54.376812 0
M  V30 72 H 42.820089 36.233438 63.920780 0
M  V30 73 H 39.315939 30.458068 50.669752 0
M  V30 74 H 40.787637 31.236048 51.242841 0
M  V30 75 H 40.796266 29.514067 50.882953 0
M  V30 76 H 38.888242 32.026484 52.730001 0
M  V30 77 H 41.871676 36.288845 61.811888 0
M  V30 78 H 39.958259 32.065342 63.832532 0
M  V30 79 H 41.469194 32.605402 63.150594 0
M  V30 80 H 40.722594 30.001731 53.182009 0
M  V30 81 H 37.221604 28.432446 56.564120 0
M  V30 82 H 39.957110 36.258492 66.458691 0
M  V30 END ATOM
M  V30 BEGIN BOND
M  V30 1 1 4 1
M  V30 2 1 8 1
M  V30 3 1 11 8
M  V30 4 1 12 4
M  V30 5 2 13 5
M  V30 6 1 14 5
M  V30 7 1 15 7
M  V30 8 1 15 11
M  V30 9 1 17 11
M  V30 10 1 18 9
M  V30 11 1 15 19 CFG=3
M  V30 12 1 20 12
M  V30 13 1 21 2
M  V30 14 1 22 10
M  V30 15 1 22 21
M  V30 16 1 23 2
M  V30 17 1 23 14
M  V30 18 1 23 16
M  V30 19 1 24 16
M  V30 20 1 24 20
M  V30 21 1 25 10
M  V30 22 1 25 23
M  V30 23 1 26 6
M  V30 24 1 26 17
M  V30 25 1 27 17
M  V30 26 1 29 26
M  V30 27 1 30 13
M  V30 28 1 30 16
M  V30 29 1 31 29
M  V30 30 1 32 7
M  V30 31 1 32 15
M  V30 32 1 32 29
M  V30 33 1 33 5
M  V30 34 2 33 28
M  V30 35 1 34 3
M  V30 36 1 34 13
M  V30 37 2 35 3
M  V30 38 1 35 18
M  V30 39 1 35 28
M  V30 40 1 36 1
M  V30 41 1 37 1
M  V30 42 1 38 2
M  V30 43 1 39 2
M  V30 44 1 40 3
M  V30 45 1 41 4
M  V30 46 1 42 4
M  V30 47 1 43 6
M  V30 48 1 44 6
M  V30 49 1 45 6
M  V30 50 1 46 7
M  V30 51 1 47 7
M  V30 52 1 48 8
M  V30 53 1 49 9
M  V30 54 1 50 9
M  V30 55 1 51 10
M  V30 56 1 52 10
M  V30 57 1 11 53 CFG=3
M  V30 58 1 54 12
M  V30 59 1 55 14
M  V30 60 1 56 14
M  V30 61 1 16 57 CFG=1
M  V30 62 1 17 58 CFG=1
M  V30 63 1 59 18
M  V30 64 1 60 18
M  V30 65 1 61 19
M  V30 66 1 62 20
M  V30 67 1 63 20
M  V30 68 1 64 21
M  V30 69 1 65 21
M  V30 70 1 66 22
M  V30 71 1 67 22
M  V30 72 1 68 25
M  V30 73 1 69 25
M  V30 74 1 26 70 CFG=3
M  V30 75 1 71 27
M  V30 76 1 72 28
M  V30 77 1 73 31
M  V30 78 1 74 31
M  V30 79 1 75 31
M  V30 80 1 32 76 CFG=3
M  V30 81 1 77 33
M  V30 82 1 78 34
M  V30 83 1 79 34
M  V30 84 1 29 80 CFG=1
M  V30 85 1 81 8
M  V30 86 1 82 9
M  V30 END BOND
M  V30 END CTAB
M  END
>  <i_epik_Tot_Q>  (1) 
3

>  <i_epik_Tot_abs_Q>  (1) 
3

>  <i_i_glide_confnum>  (1) 
282

>  <i_i_glide_lignum>  (1) 
110

>  <i_i_glide_posenum>  (1) 
7

>  <i_i_glide_rotatable_bonds>  (1) 
10

>  <i_lp_mmshare_version>  (1) 
72125

>  <i_m_source_file_index>  (1) 
54

>  <i_f3d_flags>  (1) 
0

>  <num_sample>  (1) 
100

>  <b_lp_Chiralities_Consistent>  (1) 
1

>  <r_epik_Charging_Adjusted_Penalty>  (1) 
0.52217566130243886

>  <r_epik_Ionization_Penalty>  (1) 
0.30399825412207077

>  <r_epik_Ionization_Penalty_Charging>  (1) 
0.29355179195135561

>  <r_epik_Ionization_Penalty_Neutral>  (1) 
0.010446462170715176

>  <r_epik_State_Penalty>  (1) 
0.22862386935108323

>  <r_glide_ring_energy>  (1) 
0.00062545301478619732

>  <r_i_docking_score>  (1) 
-7.4678826369237594

>  <r_i_glide_ecoul>  (1) 
-9.7838081256227518

>  <r_i_glide_eff_state_penalty>  (1) 
0.22862386935108323

>  <r_i_glide_einternal>  (1) 
8.7235910227839781

>  <r_i_glide_emodel>  (1) 
-60.011909747722825

>  <r_i_glide_emodel_strain>  (1) 
0.51796017479190937

>  <r_i_glide_energy>  (1) 
-43.164585670714331

>  <r_i_glide_erotb>  (1) 
0.58947078011706677

>  <r_i_glide_esite>  (1) 
-0.069185285302973937

>  <r_i_glide_evdw>  (1) 
-33.380777545091576

>  <r_i_glide_gscore>  (1) 
-7.6965065062748428

>  <r_i_glide_gscore_strain>  (1) 
0

>  <r_i_glide_hbond>  (1) 
-0.29726121237194314

>  <r_i_glide_ligand_efficiency>  (1) 
-0.21336807534067884

>  <r_i_glide_ligand_efficiency_ln>  (1) 
-1.6393659795300177

>  <r_i_glide_ligand_efficiency_sa>  (1) 
-0.69794112291667543

>  <r_i_glide_lipo>  (1) 
-3.7583746184265392

>  <r_i_glide_metal>  (1) 
-0

>  <r_i_glide_rewards>  (1) 
-1.0245460741924615

>  <r_lp_Energy>  (1) 
69.168939999999992

>  <s_epik_Chemistry_Notes>  (1) 
This compound contains an acetal/aminal-like group ( X-CH(R)-Y where X, Y are N, S, or O) that may be acid/base labile, releasing an aldehyde.

>  <s_epik_cmdline>  (1) 
J2VwaWtfcHl0aG9uJywgJy1waHQnLCAnMS4wJywgJy1waCcsICc3LjQnLCAnLXRuJywgJzgnLCAnLW1hJywgJzUwMCcsICctaW1hZScsICc8aW5maWxlLm1hZT4nLCAnLW9tYWUnLCAnPG91dGZpbGUubWFlPic=

>  <s_epik_input>  (1) 
W09IXVtDQEBdMTJbQ0BASF0oW0NIMl0xKU4oW0NIM10pW0NASF0oW0NIM10pW0NASF0oW09IXSlbQ0BIXTJbTkhdW0NIMl1bQ0gyXVtOSF1bQ0gyXU9bQ0BIXTNPQyhbQ0gyXVtDSF09QyhbQ0gyXVtOSDJdKVtDSF09W0NIXTQpPUM0W0NIMl1DMzVbQ0gyXVtDSDJdW0NIMl1bQ0gyXVtDSDJdNQ==

>  <s_glide_docking_method>  (1) 
confgen

>  <s_i_glide_gridfile>  (1) 
gpcr_5ht2c_6bqh_protein_autoprepared_prepared

>  <s_lp_Force_Field>  (1) 
S-OPLS

>  <s_lp_Variant>  (1) 
DiffSBDD_53-2

>  <s_m_source_file>  (1) 
generated_GPCR_5HT2C_ligand_DiffSBDD_2026-06-23_prepared.sdf

>  <GenAI_Model>  (1) 
DiffSBDD

>  <Protein>  (1) 
GPCR_5HT2C

$$$$
DiffSBDD_97
     RDKit          3D

  0  0  0  0  0  0  0  0  0  0999 V3000
M  V30 BEGIN CTAB
M  V30 COUNTS 54 56 0 0 1
M  V30 BEGIN ATOM
M  V30 1 C 38.365450 27.744163 52.455212 0
M  V30 2 C 39.019477 29.544264 57.474789 0
M  V30 3 N 35.240255 34.137760 58.967763 0 CHG=1
M  V30 4 C 39.113649 28.565841 51.738400 0
M  V30 5 C 39.344298 29.696373 52.455684 0
M  V30 6 S 38.822275 30.721438 54.938052 0
M  V30 7 C 36.945066 31.654255 59.823589 0
M  V30 8 C 39.648437 28.303019 50.359247 0
M  V30 9 C 41.010269 30.448110 50.719967 0
M  V30 10 C 39.316329 34.649911 60.731635 0
M  V30 11 C 38.682395 30.833281 58.236352 0
M  V30 12 C 40.210406 30.851028 51.990674 0
M  V30 13 C 38.724435 29.590132 53.619565 0
M  V30 14 C 38.523352 33.342039 60.863327 0
M  V30 15 S 38.550770 27.713337 55.437126 0
M  V30 16 C 38.326210 29.410022 56.115654 0 CFG=1
M  V30 17 C 33.943656 33.495419 59.265687 0
M  V30 18 N 37.245139 30.928957 58.567791 0 CHG=1
M  V30 19 C 37.400951 33.141047 59.814063 0 CFG=2
M  V30 20 C 37.912324 28.285874 53.858899 0 CFG=2
M  V30 21 C 40.164111 29.618446 49.733508 0
M  V30 22 C 36.224193 34.111081 60.073804 0
M  V30 23 H 38.045633 26.774031 52.111595 0
M  V30 24 H 40.098369 29.481473 57.331476 0
M  V30 25 H 38.754545 28.688210 58.097320 0
M  V30 26 H 35.056114 35.106439 58.742104 0
M  V30 27 H 35.875447 31.569269 60.001961 0
M  V30 28 H 37.399670 31.109155 60.652849 0
M  V30 29 H 40.445134 27.565552 50.418709 0
M  V30 30 H 38.845144 27.873519 49.767760 0
M  V30 31 H 41.380907 31.337751 50.214818 0
M  V30 32 H 41.891374 29.860423 50.967760 0
M  V30 33 H 40.090405 34.704462 61.497562 0
M  V30 34 H 38.690042 35.533199 60.849032 0
M  V30 35 H 39.817497 34.710684 59.767760 0
M  V30 36 H 39.245138 30.817981 59.168499 0
M  V30 37 H 39.000275 31.718699 57.684974 0
M  V30 38 H 40.845139 31.183404 52.805145 0
M  V30 39 H 39.579044 31.703749 51.751362 0
M  V30 40 H 38.105391 33.272181 61.868789 0
M  V30 41 H 39.245234 32.528470 60.787519 0
M  V30 42 H 37.249722 29.525224 56.247790 0
M  V30 43 H 33.182425 33.839369 58.567760 0
M  V30 44 H 33.597004 33.737750 60.266446 0
M  V30 45 H 34.014139 32.412578 59.175550 0
M  V30 46 H 36.703200 31.337748 57.799623 0
M  V30 47 H 37.816619 33.390995 58.836596 0
M  V30 48 H 36.845135 28.490057 53.891165 0
M  V30 49 H 39.328545 30.242225 49.422852 0
M  V30 50 H 40.737809 29.391511 48.835923 0
M  V30 51 H 36.602876 35.129308 60.151465 0
M  V30 52 H 35.746987 33.900877 61.032894 0
M  V30 53 H 35.633028 33.695715 58.143842 0
M  V30 54 H 36.900833 29.987642 58.691449 0
M  V30 END ATOM
M  V30 BEGIN BOND
M  V30 1 2 4 1
M  V30 2 1 5 4
M  V30 3 1 8 4
M  V30 4 1 11 2
M  V30 5 1 12 5
M  V30 6 1 12 9
M  V30 7 2 13 5
M  V30 8 1 13 6
M  V30 9 1 14 10
M  V30 10 1 16 2
M  V30 11 1 16 6
M  V30 12 1 16 15
M  V30 13 1 17 3
M  V30 14 1 18 7
M  V30 15 1 18 11
M  V30 16 1 19 7
M  V30 17 1 19 14
M  V30 18 1 20 1
M  V30 19 1 20 13
M  V30 20 1 20 15
M  V30 21 1 21 8
M  V30 22 1 21 9
M  V30 23 1 22 3
M  V30 24 1 22 19
M  V30 25 1 23 1
M  V30 26 1 24 2
M  V30 27 1 25 2
M  V30 28 1 26 3
M  V30 29 1 27 7
M  V30 30 1 28 7
M  V30 31 1 29 8
M  V30 32 1 30 8
M  V30 33 1 31 9
M  V30 34 1 32 9
M  V30 35 1 33 10
M  V30 36 1 34 10
M  V30 37 1 35 10
M  V30 38 1 36 11
M  V30 39 1 37 11
M  V30 40 1 38 12
M  V30 41 1 39 12
M  V30 42 1 40 14
M  V30 43 1 41 14
M  V30 44 1 16 42 CFG=1
M  V30 45 1 43 17
M  V30 46 1 44 17
M  V30 47 1 45 17
M  V30 48 1 46 18
M  V30 49 1 19 47 CFG=3
M  V30 50 1 20 48 CFG=1
M  V30 51 1 49 21
M  V30 52 1 50 21
M  V30 53 1 51 22
M  V30 54 1 52 22
M  V30 55 1 53 3
M  V30 56 1 54 18
M  V30 END BOND
M  V30 END CTAB
M  END
>  <i_epik_Tot_Q>  (1) 
2

>  <i_epik_Tot_abs_Q>  (1) 
2

>  <i_i_glide_confnum>  (1) 
243

>  <i_i_glide_lignum>  (1) 
230

>  <i_i_glide_posenum>  (1) 
54

>  <i_i_glide_rotatable_bonds>  (1) 
8

>  <i_lp_mmshare_version>  (1) 
72125

>  <i_m_source_file_index>  (1) 
98

>  <i_f3d_flags>  (1) 
0

>  <num_sample>  (1) 
100

>  <b_lp_Chiralities_Consistent>  (1) 
1

>  <r_epik_Charging_Adjusted_Penalty>  (1) 
0.023784372846060081

>  <r_epik_Ionization_Penalty>  (1) 
0.011913947957046679

>  <r_epik_Ionization_Penalty_Charging>  (1) 
0.011913947957046679

>  <r_epik_Ionization_Penalty_Neutral>  (1) 
0

>  <r_epik_State_Penalty>  (1) 
0.011870424889013402

>  <r_glide_ring_energy>  (1) 
0

>  <r_i_docking_score>  (1) 
-7.465008063496783

>  <r_i_glide_ecoul>  (1) 
-6.1784274270865396

>  <r_i_glide_eff_state_penalty>  (1) 
0.011870424889013402

>  <r_i_glide_einternal>  (1) 
9.9078798745652783

>  <r_i_glide_emodel>  (1) 
-60.882946783761057

>  <r_i_glide_emodel_strain>  (1) 
1.1892758991647554

>  <r_i_glide_energy>  (1) 
-41.346729979413858

>  <r_i_glide_erotb>  (1) 
0.81630680719182536

>  <r_i_glide_esite>  (1) 
-0.10562613944170329

>  <r_i_glide_evdw>  (1) 
-35.168302552327319

>  <r_i_glide_gscore>  (1) 
-7.4768784883857968

>  <r_i_glide_gscore_strain>  (1) 
0

>  <r_i_glide_hbond>  (1) 
-0.29045266177681628

>  <r_i_glide_ligand_efficiency>  (1) 
-0.33931854834076286

>  <r_i_glide_ligand_efficiency_ln>  (1) 
-1.8247202635036934

>  <r_i_glide_ligand_efficiency_sa>  (1) 
-0.95078391807170892

>  <r_i_glide_lipo>  (1) 
-3.2250895708615728

>  <r_i_glide_metal>  (1) 
-0

>  <r_i_glide_rewards>  (1) 
-1.9868376818181823

>  <r_lp_Energy>  (1) 
24.890995

>  <s_epik_Chemistry_Notes>  (1) 
This compound contains an acetal/aminal-like group ( X-CH(R)-Y where X, Y are N, S, or O) that may be acid/base labile, releasing an aldehyde.

>  <s_epik_cmdline>  (1) 
J2VwaWtfcHl0aG9uJywgJy1waHQnLCAnMS4wJywgJy1waCcsICc3LjQnLCAnLXRuJywgJzgnLCAnLW1hJywgJzUwMCcsICctaW1hZScsICc8aW5maWxlLm1hZT4nLCAnLW9tYWUnLCAnPG91dGZpbGUubWFlPic=

>  <s_epik_input>  (1) 
W0NIMl0xW0NIMl1bQ0gyXVtDSDJdQyhDMTIpPUMzW0NAQEhdKFtDSF09MilTW0NASF0oUzMpW0NIMl1bQ0gyXVtOSF1bQ0gyXVtDQEhdKFtDSDJdW0NIM10pW0NIMl1bTkhdW0NIM10=

>  <s_glide_docking_method>  (1) 
confgen

>  <s_i_glide_gridfile>  (1) 
gpcr_5ht2c_6bqh_protein_autoprepared_prepared

>  <s_lp_Force_Field>  (1) 
S-OPLS

>  <s_lp_Variant>  (1) 
DiffSBDD_97-1

>  <s_m_source_file>  (1) 
generated_GPCR_5HT2C_ligand_DiffSBDD_2026-06-23_prepared.sdf

>  <GenAI_Model>  (1) 
DiffSBDD

>  <Protein>  (1) 
GPCR_5HT2C

$$$$
DiffSBDD_63
     RDKit          3D

  0  0  0  0  0  0  0  0  0  0999 V3000
M  V30 BEGIN CTAB
M  V30 COUNTS 83 88 0 0 1
M  V30 BEGIN ATOM
M  V30 1 F 43.490493 29.780004 63.368652 0
M  V30 2 C 38.479056 27.482869 55.278194 0
M  V30 3 C 43.337746 29.051575 64.470172 0 CFG=1
M  V30 4 C 36.936371 36.082200 60.069580 0
M  V30 5 C 40.415614 32.288359 63.593516 0
M  V30 6 C 40.235260 30.469044 61.814773 0 CFG=1
M  V30 7 N 44.866880 29.588169 66.266530 0 CHG=1
M  V30 8 C 38.445139 32.517825 56.372187 0
M  V30 9 C 38.913113 29.589412 54.028296 0
M  V30 10 C 37.908654 30.407043 57.760491 0 CFG=2
M  V30 11 C 38.269886 31.931492 57.771776 0 CFG=2
M  V30 12 C 41.713090 32.030329 64.357014 0
M  V30 13 C 38.430864 31.782800 55.252882 0
M  V30 14 C 38.530112 28.172561 56.464541 0
M  V30 15 N 38.355284 26.098225 55.454985 0
M  V30 16 N 40.445114 29.994438 64.301131 0 CHG=1
M  V30 17 C 41.411743 30.739655 65.131244 0 CFG=1
M  V30 18 C 36.707084 33.833504 61.218767 0
M  V30 19 C 38.170502 24.318353 57.186354 0
M  V30 20 O 40.644094 28.137724 62.263358 0
M  V30 21 O 38.065267 29.828285 59.065043 0
M  V30 22 S 38.445174 27.083017 57.829481 0
M  V30 23 C 43.770141 30.575777 66.275447 0 CFG=2
M  V30 24 C 39.874417 30.888332 63.265378 0 CFG=1
M  V30 25 C 43.438905 31.054350 67.696795 0
M  V30 26 C 38.665422 29.662529 56.614583 0 CFG=1
M  V30 27 C 40.209364 28.984111 61.490000 0
M  V30 28 C 38.313185 25.731838 56.733902 0
M  V30 29 O 36.481090 36.842147 58.967760 0
M  V30 30 C 36.649409 34.579529 59.874760 0 CFG=2
M  V30 31 C 37.639809 33.975631 58.864045 0
M  V30 32 C 39.316004 29.923350 59.666812 0 CFG=2
M  V30 33 O 37.312794 32.626395 58.570486 0
M  V30 34 C 38.239654 30.284208 55.245859 0 CFG=2
M  V30 35 O 39.683915 28.734034 60.290378 0
M  V30 36 C 44.727065 28.750633 65.056913 0
M  V30 37 C 39.267753 30.993008 60.770587 0
M  V30 38 C 42.613278 29.854602 65.566449 0 CFG=2
M  V30 39 C 38.543040 28.086197 53.912135 0
M  V30 40 H 42.805988 28.143036 64.180807 0
M  V30 41 H 38.004920 36.253334 60.207173 0
M  V30 42 H 36.445194 36.465032 60.963366 0
M  V30 43 H 40.564376 32.912901 62.711204 0
M  V30 44 H 39.710516 32.810084 64.237767 0
M  V30 45 H 41.244950 30.808165 61.580455 0
M  V30 46 H 44.762029 28.987438 67.071773 0
M  V30 47 H 38.587718 33.584566 56.302763 0
M  V30 48 H 38.668816 30.099117 53.096414 0
M  V30 49 H 39.992794 29.688865 54.148704 0
M  V30 50 H 36.846343 30.302487 57.545916 0
M  V30 51 H 39.245080 32.075032 58.217906 0
M  V30 52 H 42.528088 31.905230 63.647751 0
M  V30 53 H 41.977868 32.858535 65.014943 0
M  V30 54 H 38.556008 32.264275 54.294205 0
M  V30 55 H 39.700635 29.596234 64.863094 0
M  V30 56 H 40.864580 31.033211 66.029419 0
M  V30 57 H 37.702214 33.884262 61.662136 0
M  V30 58 H 35.998982 34.256233 61.932711 0
M  V30 59 H 36.448207 32.782364 61.091195 0
M  V30 60 H 39.154017 23.861632 57.308017 0
M  V30 61 H 37.650601 24.284060 58.144771 0
M  V30 62 H 37.595284 23.742107 56.460500 0
M  V30 63 H 44.098864 31.424870 65.674379 0
M  V30 64 H 38.789706 30.869880 63.367808 0
M  V30 65 H 42.652863 31.810682 67.679100 0
M  V30 66 H 43.094498 30.235509 68.329943 0
M  V30 67 H 44.309850 31.503129 68.177479 0
M  V30 68 H 39.729586 29.860056 56.744690 0
M  V30 69 H 36.445155 36.290262 58.192789 0
M  V30 70 H 35.637206 34.467018 59.481794 0
M  V30 71 H 37.608804 34.556955 57.944876 0
M  V30 72 H 38.653727 34.042017 59.260232 0
M  V30 73 H 40.081165 30.126327 58.922651 0
M  V30 74 H 37.163193 30.141829 55.127238 0
M  V30 75 H 44.826845 27.700281 65.330442 0
M  V30 76 H 45.520320 28.979209 64.342664 0
M  V30 77 H 39.547362 31.975112 60.392534 0
M  V30 78 H 38.249391 31.047801 61.158550 0
M  V30 79 H 42.219160 29.115349 66.267601 0
M  V30 80 H 37.572680 27.988624 53.423734 0
M  V30 81 H 39.264643 27.566458 53.281510 0
M  V30 82 H 40.902757 29.230354 63.816677 0
M  V30 83 H 45.784191 30.017866 66.304678 0
M  V30 END ATOM
M  V30 BEGIN BOND
M  V30 1 1 3 1
M  V30 2 1 11 8
M  V30 3 1 11 10
M  V30 4 1 12 5
M  V30 5 2 13 8
M  V30 6 2 14 2
M  V30 7 1 15 2
M  V30 8 1 17 12
M  V30 9 1 17 16
M  V30 10 1 21 10
M  V30 11 1 22 14
M  V30 12 1 23 7
M  V30 13 1 24 5
M  V30 14 1 24 6
M  V30 15 1 24 16
M  V30 16 1 25 23
M  V30 17 1 26 10
M  V30 18 1 26 14
M  V30 19 1 27 6
M  V30 20 2 27 20
M  V30 21 2 28 15
M  V30 22 1 28 19
M  V30 23 1 28 22
M  V30 24 1 29 4
M  V30 25 1 30 4
M  V30 26 1 30 18
M  V30 27 1 31 30
M  V30 28 1 32 21
M  V30 29 1 33 11
M  V30 30 1 33 31
M  V30 31 1 34 9
M  V30 32 1 34 13
M  V30 33 1 34 26
M  V30 34 1 35 27
M  V30 35 1 35 32
M  V30 36 1 36 3
M  V30 37 1 36 7
M  V30 38 1 37 6
M  V30 39 1 37 32
M  V30 40 1 38 3
M  V30 41 1 38 17
M  V30 42 1 38 23
M  V30 43 1 39 2
M  V30 44 1 39 9
M  V30 45 1 3 40 CFG=3
M  V30 46 1 41 4
M  V30 47 1 42 4
M  V30 48 1 43 5
M  V30 49 1 44 5
M  V30 50 1 6 45 CFG=3
M  V30 51 1 46 7
M  V30 52 1 47 8
M  V30 53 1 48 9
M  V30 54 1 49 9
M  V30 55 1 10 50 CFG=3
M  V30 56 1 11 51 CFG=1
M  V30 57 1 52 12
M  V30 58 1 53 12
M  V30 59 1 54 13
M  V30 60 1 55 16
M  V30 61 1 17 56 CFG=1
M  V30 62 1 57 18
M  V30 63 1 58 18
M  V30 64 1 59 18
M  V30 65 1 60 19
M  V30 66 1 61 19
M  V30 67 1 62 19
M  V30 68 1 23 63 CFG=3
M  V30 69 1 24 64 CFG=3
M  V30 70 1 65 25
M  V30 71 1 66 25
M  V30 72 1 67 25
M  V30 73 1 26 68 CFG=1
M  V30 74 1 69 29
M  V30 75 1 30 70 CFG=3
M  V30 76 1 71 31
M  V30 77 1 72 31
M  V30 78 1 32 73 CFG=3
M  V30 79 1 34 74 CFG=3
M  V30 80 1 75 36
M  V30 81 1 76 36
M  V30 82 1 77 37
M  V30 83 1 78 37
M  V30 84 1 38 79 CFG=1
M  V30 85 1 80 39
M  V30 86 1 81 39
M  V30 87 1 82 16
M  V30 88 1 83 7
M  V30 END BOND
M  V30 END CTAB
M  END
>  <i_epik_Tot_Q>  (1) 
2

>  <i_epik_Tot_abs_Q>  (1) 
2

>  <i_i_glide_confnum>  (1) 
1291

>  <i_i_glide_lignum>  (1) 
142

>  <i_i_glide_posenum>  (1) 
87

>  <i_i_glide_rotatable_bonds>  (1) 
9

>  <i_lp_mmshare_version>  (1) 
72125

>  <i_m_source_file_index>  (1) 
64

>  <i_f3d_flags>  (1) 
0

>  <num_sample>  (1) 
100

>  <b_lp_Chiralities_Consistent>  (1) 
1

>  <r_epik_Charging_Adjusted_Penalty>  (1) 
0.080070908620723774

>  <r_epik_Ionization_Penalty>  (1) 
0.041568301575603359

>  <r_epik_Ionization_Penalty_Charging>  (1) 
0.040241786303222601

>  <r_epik_Ionization_Penalty_Neutral>  (1) 
0.0013265152723807572

>  <r_epik_State_Penalty>  (1) 
0.039829122317501166

>  <r_glide_ring_energy>  (1) 
1.9359321119516504

>  <r_i_docking_score>  (1) 
-7.464442497271448

>  <r_i_glide_ecoul>  (1) 
-7.1587811318966832

>  <r_i_glide_eff_state_penalty>  (1) 
0.039829122317501166

>  <r_i_glide_einternal>  (1) 
11.827722512820552

>  <r_i_glide_emodel>  (1) 
-73.861922620345211

>  <r_i_glide_emodel_strain>  (1) 
0.86909530152733794

>  <r_i_glide_energy>  (1) 
-55.331735801261601

>  <r_i_glide_erotb>  (1) 
0.43483266289788453

>  <r_i_glide_esite>  (1) 
-0.03981847549778067

>  <r_i_glide_evdw>  (1) 
-48.17295466936492

>  <r_i_glide_gscore>  (1) 
-7.5042716195889492

>  <r_i_glide_gscore_strain>  (1) 
0

>  <r_i_glide_hbond>  (1) 
-0.35812367642665727

>  <r_i_glide_ligand_efficiency>  (1) 
-0.19139596146849866

>  <r_i_glide_ligand_efficiency_ln>  (1) 
-1.600588362215881

>  <r_i_glide_ligand_efficiency_sa>  (1) 
-0.64906417467867128

>  <r_i_glide_lipo>  (1) 
-3.0562950926837398

>  <r_i_glide_metal>  (1) 
-0

>  <r_i_glide_rewards>  (1) 
-1.0024021346259064

>  <r_lp_Energy>  (1) 
32.274032999999996

>  <s_epik_Chemistry_Notes>  (1) 
This compound has an ester and may undergo hydrolysis at high or low pH. This compound contains an acetal/aminal-like group ( X-CH(R)-Y where X, Y are N, S, or O) that may be acid/base labile, releasing an aldehyde.

>  <s_epik_cmdline>  (1) 
J2VwaWtfcHl0aG9uJywgJy1waHQnLCAnMS4wJywgJy1waCcsICc3LjQnLCAnLXRuJywgJzgnLCAnLW1hJywgJzUwMCcsICctaW1hZScsICc8aW5maWxlLm1hZT4nLCAnLW9tYWUnLCAnPG91dGZpbGUubWFlPic=

>  <s_epik_input>  (1) 
RltDQEhdMVtDSDJdW05IXVtDQEhdKFtDSDNdKVtDQEhdMVtDQEhdMltDSDJdW0NIMl1bQ0BIXShbTkhdMilbQ0BIXTNDKD1PKU9bQ0BIXShbQ0gyXTMpT1tDQEhdNFtDQEhdKE9bQ0gyXVtDQEBIXShbQ0gzXSlbQ0gyXVtPSF0pW0NIXT1bQ0hdW0NAQEhdKFtDSDJdW0NIMl01KVtDQEBIXTRjKGM1NilzYyhuNilbQ0gzXQ==

>  <s_glide_docking_method>  (1) 
confgen

>  <s_i_glide_gridfile>  (1) 
gpcr_5ht2c_6bqh_protein_autoprepared_prepared

>  <s_lp_Force_Field>  (1) 
S-OPLS

>  <s_lp_Variant>  (1) 
DiffSBDD_63-4

>  <s_m_source_file>  (1) 
generated_GPCR_5HT2C_ligand_DiffSBDD_2026-06-23_prepared.sdf

>  <GenAI_Model>  (1) 
DiffSBDD

>  <Protein>  (1) 
GPCR_5HT2C

$$$$
DiffSBDD_41
     RDKit          3D

  0  0  0  0  0  0  0  0  0  0999 V3000
M  V30 BEGIN CTAB
M  V30 COUNTS 52 53 0 0 1
M  V30 BEGIN ATOM
M  V30 1 C 37.689123 30.953666 59.668812 0
M  V30 2 C 39.213841 29.458162 57.287221 0 CFG=1
M  V30 3 C 40.469751 30.174157 50.524533 0
M  V30 4 C 39.229348 30.207087 54.159664 0
M  V30 5 C 38.547694 28.090853 53.127537 0
M  V30 6 C 39.147171 28.478806 51.912203 0
M  V30 7 C 38.591262 28.947971 54.247566 0
M  V30 8 O 38.043300 34.612257 59.885253 0
M  V30 9 C 39.256849 30.850977 56.644334 0
M  V30 10 S 37.604667 28.799757 57.791762 0
M  V30 11 N 39.645121 31.125672 49.767570 0 CHG=1
M  V30 12 C 39.312822 32.870960 60.948855 0
M  V30 13 C 39.538698 31.497114 61.167965 0
M  V30 14 C 39.095975 27.544314 50.715974 0
M  V30 15 C 40.161806 28.359132 56.730671 0
M  V30 16 C 38.272758 33.285140 60.091129 0
M  V30 17 C 39.300309 31.151688 55.315004 0
M  V30 18 C 38.724897 30.537635 60.532664 0
M  V30 19 C 42.194677 28.282678 58.287608 0
M  V30 20 C 39.811244 30.595271 52.934727 0
M  V30 21 C 40.937037 27.566279 57.793486 0
M  V30 22 F 40.094640 33.792463 61.563612 0
M  V30 23 C 37.466636 32.327960 59.449750 0
M  V30 24 C 39.789200 29.737452 51.817901 0
M  V30 25 C 36.796767 29.930257 58.990873 0
M  V30 26 H 39.675378 29.692049 58.241149 0
M  V30 27 H 41.406253 30.671365 50.784582 0
M  V30 28 H 40.751731 29.340085 49.885162 0
M  V30 29 H 38.050759 27.132607 53.203320 0
M  V30 30 H 38.112660 28.647575 55.158623 0
M  V30 31 H 37.334589 34.771647 59.278933 0
M  V30 32 H 39.284329 31.672564 57.344349 0
M  V30 33 H 40.187797 31.509325 49.007320 0
M  V30 34 H 38.815160 30.659553 49.403385 0
M  V30 35 H 40.332955 31.179457 61.825508 0
M  V30 36 H 38.845421 28.084073 49.803836 0
M  V30 37 H 40.045189 27.036797 50.566072 0
M  V30 38 H 38.333934 26.780299 50.861792 0
M  V30 39 H 39.587521 27.608266 56.191656 0
M  V30 40 H 40.868784 28.778570 56.016937 0
M  V30 41 H 39.395653 32.192967 55.046990 0
M  V30 42 H 38.894752 29.484685 60.707080 0
M  V30 43 H 42.747392 27.633277 58.964972 0
M  V30 44 H 42.864136 28.532026 57.462934 0
M  V30 45 H 41.951131 29.200788 58.822664 0
M  V30 46 H 40.298536 31.553681 52.856843 0
M  V30 47 H 40.285012 27.314521 58.630917 0
M  V30 48 H 41.248150 26.614621 57.360572 0
M  V30 49 H 36.670170 32.646515 58.791504 0
M  V30 50 H 36.338153 29.328840 59.768002 0
M  V30 51 H 35.957317 30.436568 58.521741 0
M  V30 52 H 39.367822 31.879454 50.379026 0
M  V30 END ATOM
M  V30 BEGIN BOND
M  V30 1 1 6 5
M  V30 2 1 7 4
M  V30 3 2 7 5
M  V30 4 1 9 2
M  V30 5 1 10 2
M  V30 6 1 11 3
M  V30 7 1 13 12
M  V30 8 1 14 6
M  V30 9 1 15 2
M  V30 10 1 16 8
M  V30 11 2 16 12
M  V30 12 1 17 4
M  V30 13 2 17 9
M  V30 14 1 18 1
M  V30 15 2 18 13
M  V30 16 2 20 4
M  V30 17 1 21 15
M  V30 18 1 21 19
M  V30 19 1 22 12
M  V30 20 2 23 1
M  V30 21 1 23 16
M  V30 22 1 24 3
M  V30 23 2 24 6
M  V30 24 1 24 20
M  V30 25 1 25 1
M  V30 26 1 25 10
M  V30 27 1 2 26 CFG=1
M  V30 28 1 27 3
M  V30 29 1 28 3
M  V30 30 1 29 5
M  V30 31 1 30 7
M  V30 32 1 31 8
M  V30 33 1 32 9
M  V30 34 1 33 11
M  V30 35 1 34 11
M  V30 36 1 35 13
M  V30 37 1 36 14
M  V30 38 1 37 14
M  V30 39 1 38 14
M  V30 40 1 39 15
M  V30 41 1 40 15
M  V30 42 1 41 17
M  V30 43 1 42 18
M  V30 44 1 43 19
M  V30 45 1 44 19
M  V30 46 1 45 19
M  V30 47 1 46 20
M  V30 48 1 47 21
M  V30 49 1 48 21
M  V30 50 1 49 23
M  V30 51 1 50 25
M  V30 52 1 51 25
M  V30 53 1 52 11
M  V30 END BOND
M  V30 END CTAB
M  END
>  <i_epik_Tot_Q>  (1) 
1

>  <i_epik_Tot_abs_Q>  (1) 
1

>  <i_i_glide_confnum>  (1) 
28

>  <i_i_glide_lignum>  (1) 
89

>  <i_i_glide_posenum>  (1) 
39

>  <i_i_glide_rotatable_bonds>  (1) 
9

>  <i_lp_mmshare_version>  (1) 
72125

>  <i_m_source_file_index>  (1) 
42

>  <i_f3d_flags>  (1) 
0

>  <num_sample>  (1) 
100

>  <b_lp_Chiralities_Consistent>  (1) 
1

>  <r_epik_Charging_Adjusted_Penalty>  (1) 
0.19353898929150365

>  <r_epik_Ionization_Penalty>  (1) 
0.13216089294123454

>  <r_epik_Ionization_Penalty_Charging>  (1) 
0.06151586109146627

>  <r_epik_Ionization_Penalty_Neutral>  (1) 
0.070645031849768267

>  <r_epik_State_Penalty>  (1) 
0.13202312820003739

>  <r_glide_ring_energy>  (1) 
0

>  <r_i_docking_score>  (1) 
-7.4625924514201465

>  <r_i_glide_ecoul>  (1) 
-5.7884900538836348

>  <r_i_glide_eff_state_penalty>  (1) 
0.13202312820003739

>  <r_i_glide_einternal>  (1) 
7.3391344762090558

>  <r_i_glide_emodel>  (1) 
-59.550331053427122

>  <r_i_glide_emodel_strain>  (1) 
3.5377739687557721

>  <r_i_glide_energy>  (1) 
-43.457173723518018

>  <r_i_glide_erotb>  (1) 
0.88540937349265225

>  <r_i_glide_esite>  (1) 
0

>  <r_i_glide_evdw>  (1) 
-37.668683669634383

>  <r_i_glide_gscore>  (1) 
-7.594615579620184

>  <r_i_glide_gscore_strain>  (1) 
0

>  <r_i_glide_hbond>  (1) 
0

>  <r_i_glide_ligand_efficiency>  (1) 
-0.29850369805680588

>  <r_i_glide_ligand_efficiency_ln>  (1) 
-1.7688580468360384

>  <r_i_glide_ligand_efficiency_sa>  (1) 
-0.87283010804023786

>  <r_i_glide_lipo>  (1) 
-3.7533320954029357

>  <r_i_glide_metal>  (1) 
-0

>  <r_i_glide_rewards>  (1) 
-1.9749851661456366

>  <r_lp_Energy>  (1) 
22.904637999999998

>  <r_lp_tautomer_probability>  (1) 
0.99999999999736477

>  <s_epik_cmdline>  (1) 
J2VwaWtfcHl0aG9uJywgJy1waHQnLCAnMS4wJywgJy1waCcsICc3LjQnLCAnLXRuJywgJzgnLCAnLW1hJywgJzUwMCcsICctaW1hZScsICc8aW5maWxlLm1hZT4nLCAnLW9tYWUnLCAnPG91dGZpbGUubWFlPic=

>  <s_epik_input>  (1) 
W09IXWMoW2NIXTEpYyhGKVtjSF1bY0hdYzFbQ0gyXVNbQ0BASF0oW0NIMl1bQ0gyXVtDSDNdKS9bQ0hdPVtDSF1cYzJbY0hdW2NIXWMoW0NIM10pYyhbY0hdMilbQ0gyXVtOSDJd

>  <s_glide_docking_method>  (1) 
confgen

>  <s_i_glide_gridfile>  (1) 
gpcr_5ht2c_6bqh_protein_autoprepared_prepared

>  <s_lp_Force_Field>  (1) 
S-OPLS

>  <s_lp_Variant>  (1) 
DiffSBDD_41-2

>  <s_m_source_file>  (1) 
generated_GPCR_5HT2C_ligand_DiffSBDD_2026-06-23_prepared.sdf

>  <GenAI_Model>  (1) 
DiffSBDD

>  <Protein>  (1) 
GPCR_5HT2C

$$$$
DiffSBDD_34
     RDKit          3D

  0  0  0  0  0  0  0  0  0  0999 V3000
M  V30 BEGIN CTAB
M  V30 COUNTS 77 79 0 0 1
M  V30 BEGIN ATOM
M  V30 1 C 39.179718 29.303243 52.569499 0
M  V30 2 C 35.690969 33.889880 59.614764 0
M  V30 3 C 39.211898 24.678510 56.988255 0
M  V30 4 C 39.004419 25.706077 55.867906 0
M  V30 5 C 37.641850 37.136630 59.834370 0
M  V30 6 N 38.841651 26.973439 51.838847 0
M  V30 7 C 37.147822 32.039274 60.799510 0
M  V30 8 C 39.034522 27.511643 58.389831 0
M  V30 9 C 35.746890 32.533538 60.351900 0
M  V30 10 C 36.454730 35.016204 60.335178 0
M  V30 11 O 38.845102 32.128357 54.398391 0
M  V30 12 C 38.190649 31.736025 59.690028 0 CFG=2
M  V30 13 N 38.752663 31.615833 56.562840 0
M  V30 14 C 39.177528 29.853562 55.077289 0 CFG=1
M  V30 15 N 40.377319 29.849071 50.794104 0
M  V30 16 C 37.507965 25.932371 55.589965 0
M  V30 17 C 39.897521 26.972254 56.014304 0
M  V30 18 O 38.074672 39.178019 60.967752 0
M  V30 19 C 38.407711 29.289534 53.872141 0
M  V30 20 C 38.710648 28.478228 59.537627 0
M  V30 21 O 36.495688 37.846581 61.800610 0 CHG=-1
M  V30 22 C 41.169308 30.555805 49.814556 0
M  V30 23 C 38.813375 30.534702 57.490752 0 CFG=1
M  V30 24 O 38.544373 32.959268 59.080608 0
M  V30 25 C 37.460497 29.327452 59.243577 0
M  V30 26 N 36.472510 36.271888 59.552067 0 CHG=1
M  V30 27 C 38.908739 31.318724 55.312977 0
M  V30 28 C 37.767143 30.688466 58.617869 0 CFG=1
M  V30 29 C 37.381731 38.137773 60.967692 0
M  V30 30 C 38.729770 29.300758 56.499857 0 CFG=2
M  V30 31 C 39.353509 28.240713 51.640583 0
M  V30 32 C 39.877040 30.320613 51.985039 0
M  V30 33 C 39.561893 28.095253 57.050411 0 CFG=1
M  V30 34 N 40.045170 28.561735 50.567792 0
M  V30 35 H 36.071326 33.764734 58.599699 0
M  V30 36 H 34.645814 34.178836 59.493745 0
M  V30 37 H 38.720613 24.931720 57.922799 0
M  V30 38 H 40.268510 24.517153 57.193198 0
M  V30 39 H 38.777724 23.737757 56.682943 0
M  V30 40 H 39.385803 25.203900 54.976893 0
M  V30 41 H 37.874511 37.697396 58.929093 0
M  V30 42 H 38.520728 36.537810 60.072388 0
M  V30 43 H 38.240636 26.767441 52.621838 0
M  V30 44 H 38.910318 26.268031 51.119031 0
M  V30 45 H 37.578393 32.747315 61.507375 0
M  V30 46 H 37.008155 31.147067 61.405879 0
M  V30 47 H 39.772006 26.799120 58.760783 0
M  V30 48 H 38.122919 26.948574 58.211564 0
M  V30 49 H 35.269710 31.774738 59.730867 0
M  V30 50 H 35.121315 32.609543 61.241097 0
M  V30 51 H 37.481795 34.708928 60.508360 0
M  V30 52 H 36.045156 35.194681 61.327643 0
M  V30 53 H 39.096148 31.378461 60.181250 0
M  V30 54 H 38.568601 32.556722 56.875819 0
M  V30 55 H 40.254364 29.723170 54.957353 0
M  V30 56 H 37.030154 26.537761 56.355356 0
M  V30 57 H 36.973027 24.982733 55.559996 0
M  V30 58 H 37.337547 26.397695 54.623424 0
M  V30 59 H 40.893622 26.607541 56.268852 0
M  V30 60 H 40.044353 27.397237 55.024594 0
M  V30 61 H 37.457733 29.813550 53.765567 0
M  V30 62 H 38.114426 28.275494 54.106465 0
M  V30 63 H 38.502592 27.871087 60.419069 0
M  V30 64 H 39.575239 29.084913 59.804612 0
M  V30 65 H 40.600527 31.405170 49.439825 0
M  V30 66 H 41.417372 29.904768 48.975386 0
M  V30 67 H 42.087985 30.914242 50.275822 0
M  V30 68 H 39.805088 30.537444 57.919352 0
M  V30 69 H 37.787612 33.257589 58.598675 0
M  V30 70 H 36.798166 28.784238 58.567768 0
M  V30 71 H 36.866123 29.445650 60.143818 0
M  V30 72 H 36.469780 36.049811 58.562076 0
M  V30 73 H 36.845129 31.034807 58.167832 0
M  V30 74 H 37.685637 28.996832 56.411645 0
M  V30 75 H 40.048099 31.337398 52.308156 0
M  V30 76 H 40.537993 28.521730 57.284878 0
M  V30 77 H 35.647918 36.810791 59.777064 0
M  V30 END ATOM
M  V30 BEGIN BOND
M  V30 1 1 4 3
M  V30 2 1 9 2
M  V30 3 1 9 7
M  V30 4 1 10 2
M  V30 5 1 12 7
M  V30 6 1 16 4
M  V30 7 1 17 4
M  V30 8 1 19 1
M  V30 9 1 19 14
M  V30 10 1 20 8
M  V30 11 1 22 15
M  V30 12 1 23 13
M  V30 13 1 24 12
M  V30 14 1 25 20
M  V30 15 1 26 5
M  V30 16 1 26 10
M  V30 17 2 27 11
M  V30 18 1 27 13
M  V30 19 1 27 14
M  V30 20 1 28 12
M  V30 21 1 28 23
M  V30 22 1 28 25
M  V30 23 1 29 5
M  V30 24 2 29 18
M  V30 25 1 29 21
M  V30 26 1 30 14
M  V30 27 1 30 23
M  V30 28 1 31 1
M  V30 29 1 31 6
M  V30 30 2 32 1
M  V30 31 1 32 15
M  V30 32 1 33 8
M  V30 33 1 33 17
M  V30 34 1 33 30
M  V30 35 1 34 15
M  V30 36 2 34 31
M  V30 37 1 35 2
M  V30 38 1 36 2
M  V30 39 1 37 3
M  V30 40 1 38 3
M  V30 41 1 39 3
M  V30 42 1 40 4
M  V30 43 1 41 5
M  V30 44 1 42 5
M  V30 45 1 43 6
M  V30 46 1 44 6
M  V30 47 1 45 7
M  V30 48 1 46 7
M  V30 49 1 47 8
M  V30 50 1 48 8
M  V30 51 1 49 9
M  V30 52 1 50 9
M  V30 53 1 51 10
M  V30 54 1 52 10
M  V30 55 1 12 53 CFG=1
M  V30 56 1 54 13
M  V30 57 1 14 55 CFG=3
M  V30 58 1 56 16
M  V30 59 1 57 16
M  V30 60 1 58 16
M  V30 61 1 59 17
M  V30 62 1 60 17
M  V30 63 1 61 19
M  V30 64 1 62 19
M  V30 65 1 63 20
M  V30 66 1 64 20
M  V30 67 1 65 22
M  V30 68 1 66 22
M  V30 69 1 67 22
M  V30 70 1 23 68 CFG=1
M  V30 71 1 69 24
M  V30 72 1 70 25
M  V30 73 1 71 25
M  V30 74 1 72 26
M  V30 75 1 28 73 CFG=3
M  V30 76 1 30 74 CFG=3
M  V30 77 1 75 32
M  V30 78 1 33 76 CFG=1
M  V30 79 1 77 26
M  V30 END BOND
M  V30 END CTAB
M  END
>  <i_epik_Tot_Q>  (1) 
0

>  <i_epik_Tot_abs_Q>  (1) 
2

>  <i_i_glide_confnum>  (1) 
143

>  <i_i_glide_lignum>  (1) 
78

>  <i_i_glide_posenum>  (1) 
318

>  <i_i_glide_rotatable_bonds>  (1) 
13

>  <i_lp_mmshare_version>  (1) 
72125

>  <i_m_source_file_index>  (1) 
35

>  <i_f3d_flags>  (1) 
0

>  <num_sample>  (1) 
100

>  <b_lp_Chiralities_Consistent>  (1) 
1

>  <r_epik_Charging_Adjusted_Penalty>  (1) 
0.0058843035304018774

>  <r_epik_Ionization_Penalty>  (1) 
0.0059063327183222396

>  <r_epik_Ionization_Penalty_Charging>  (1) 
0.0010621566203982099

>  <r_epik_Ionization_Penalty_Neutral>  (1) 
0.0048441760979240295

>  <r_epik_State_Penalty>  (1) 
0.0048221469100036673

>  <r_glide_ring_energy>  (1) 
0

>  <r_i_docking_score>  (1) 
-7.4544905713810108

>  <r_i_glide_ecoul>  (1) 
-3.7636292806399134

>  <r_i_glide_eff_state_penalty>  (1) 
0.0048221469100036673

>  <r_i_glide_einternal>  (1) 
11.676541810224226

>  <r_i_glide_emodel>  (1) 
-51.710283114015752

>  <r_i_glide_emodel_strain>  (1) 
2.0302751973920294

>  <r_i_glide_energy>  (1) 
-52.792405208636644

>  <r_i_glide_erotb>  (1) 
0.88794746620747522

>  <r_i_glide_esite>  (1) 
-0.051015915096069189

>  <r_i_glide_evdw>  (1) 
-49.028775927996733

>  <r_i_glide_gscore>  (1) 
-7.4593127182910148

>  <r_i_glide_gscore_strain>  (1) 
0

>  <r_i_glide_hbond>  (1) 
0

>  <r_i_glide_ligand_efficiency>  (1) 
-0.21924972268767678

>  <r_i_glide_ligand_efficiency_ln>  (1) 
-1.6469060585961957

>  <r_i_glide_ligand_efficiency_sa>  (1) 
-0.71028398904581336

>  <r_i_glide_lipo>  (1) 
-3.7377774717859218

>  <r_i_glide_metal>  (1) 
-0

>  <r_i_glide_rewards>  (1) 
-1.5424836091206744

>  <r_lp_Energy>  (1) 
22.816407999999999

>  <r_lp_tautomer_probability>  (1) 
0.99999999999999989

>  <s_epik_cmdline>  (1) 
J2VwaWtfcHl0aG9uJywgJy1waHQnLCAnMS4wJywgJy1waCcsICc3LjQnLCAnLXRuJywgJzgnLCAnLW1hJywgJzUwMCcsICctaW1hZScsICc8aW5maWxlLm1hZT4nLCAnLW9tYWUnLCAnPG91dGZpbGUubWFlPic=

>  <s_epik_input>  (1) 
W0NIM11uKFtjSF0xKW5jKFtOSDJdKWMxW0NIMl1bQ0BASF0oQyg9TylbTkhdMilbQ0BIXShbQ0BASF0yMylbQ0BIXShbQ0gyXVtDSF0oW0NIM10pW0NIM10pW0NIMl1bQ0gyXVtDSDJdW0NASF0zW0NAQEhdKFtPSF0pW0NIMl1bQ0gyXVtDSDJdW0NIMl1bTkhdW0NIMl1DKD1PKVtPSF0=

>  <s_glide_docking_method>  (1) 
confgen

>  <s_i_glide_gridfile>  (1) 
gpcr_5ht2c_6bqh_protein_autoprepared_prepared

>  <s_lp_Force_Field>  (1) 
S-OPLS

>  <s_lp_Variant>  (1) 
DiffSBDD_34-1

>  <s_m_source_file>  (1) 
generated_GPCR_5HT2C_ligand_DiffSBDD_2026-06-23_prepared.sdf

>  <GenAI_Model>  (1) 
DiffSBDD

>  <Protein>  (1) 
GPCR_5HT2C

$$$$
DiffSBDD_25
     RDKit          3D

  0  0  0  0  0  0  0  0  0  0999 V3000
M  V30 BEGIN CTAB
M  V30 COUNTS 68 71 0 0 1
M  V30 BEGIN ATOM
M  V30 1 C 41.643595 32.834690 63.934905 0
M  V30 2 C 39.442589 26.050710 56.325510 0
M  V30 3 O 42.243630 33.199929 64.971807 0 CHG=-1
M  V30 4 C 40.059384 28.137762 60.511463 0
M  V30 5 N 39.167357 31.693773 60.617218 0
M  V30 6 C 38.739147 25.911538 54.967601 0
M  V30 7 C 41.077892 35.281134 63.369804 0
M  V30 8 C 39.505143 35.915174 61.716680 0
M  V30 9 C 36.928579 29.340214 54.172601 0
M  V30 10 C 37.663460 26.975346 54.671067 0
M  V30 11 C 38.100247 28.477303 54.681011 0 CFG=2
M  V30 12 C 38.077887 34.297172 60.403389 0
M  V30 13 O 38.977099 27.982815 52.524629 0
M  V30 14 O 39.260261 31.305065 62.915152 0
M  V30 15 N 39.651120 28.799679 58.276188 0
M  V30 16 C 39.807896 33.519435 62.170505 0
M  V30 17 O 41.716091 31.670342 63.492390 0
M  V30 18 C 39.763610 30.008475 53.474001 0
M  V30 19 C 40.822810 33.887546 63.156716 0
M  V30 20 C 38.400477 28.941146 56.130079 0
M  V30 21 C 39.744547 28.592368 56.813707 0 CFG=2
M  V30 22 C 39.388525 32.057074 61.944537 0
M  V30 23 C 39.127864 30.092855 58.728153 0
M  V30 24 N 40.419078 36.208378 62.652976 0 CHG=1
M  V30 25 C 40.031768 29.962693 51.982385 0
M  V30 26 C 40.024330 27.867035 59.211375 0
M  V30 27 N 42.012364 35.737754 64.299488 0
M  V30 28 N 39.245128 28.669849 53.781804 0
M  V30 29 C 40.394806 27.255161 56.366075 0
M  V30 30 C 39.346408 30.462684 60.232346 0
M  V30 31 C 39.511533 28.234768 50.207986 0
M  V30 32 N 39.743012 29.374206 61.048974 0
M  V30 33 C 39.044396 28.928987 51.484087 0 CFG=1
M  V30 34 C 39.160916 34.580509 61.441010 0
M  V30 35 H 40.030963 25.147390 56.491952 0
M  V30 36 H 38.717409 26.091876 57.138846 0
M  V30 37 H 40.361848 27.405452 61.245527 0
M  V30 38 H 39.480629 25.897413 54.167884 0
M  V30 39 H 38.261196 24.931849 54.929375 0
M  V30 40 H 39.055442 36.762966 61.220303 0
M  V30 41 H 36.207735 29.502721 54.967846 0
M  V30 42 H 37.203591 30.353586 53.905405 0
M  V30 43 H 36.445141 28.891276 53.304566 0
M  V30 44 H 37.232834 26.729704 53.699797 0
M  V30 45 H 36.845137 26.818528 55.367571 0
M  V30 46 H 37.544340 35.214432 60.152075 0
M  V30 47 H 38.508568 33.921303 59.474439 0
M  V30 48 H 37.328081 33.598233 60.774375 0
M  V30 49 H 39.094717 30.828760 53.712993 0
M  V30 50 H 40.673513 30.198596 54.042920 0
M  V30 51 H 37.596659 28.575842 56.769051 0
M  V30 52 H 38.306033 30.027859 56.158381 0
M  V30 53 H 40.445141 29.354469 56.476985 0
M  V30 54 H 39.507660 30.883770 58.083939 0
M  V30 55 H 38.049619 30.083869 58.566034 0
M  V30 56 H 41.040079 29.612529 51.767809 0
M  V30 57 H 39.908769 30.932969 51.500322 0
M  V30 58 H 40.291172 26.904020 58.814446 0
M  V30 59 H 42.493361 35.083187 64.910611 0
M  V30 60 H 42.130208 36.728695 64.497283 0
M  V30 61 H 40.831695 27.375429 55.377018 0
M  V30 62 H 41.271596 27.032864 56.973440 0
M  V30 63 H 39.621702 28.937751 49.381580 0
M  V30 64 H 40.460263 27.744616 50.376320 0
M  V30 65 H 38.845137 27.435476 49.911068 0
M  V30 66 H 38.045228 29.337752 51.367763 0
M  V30 67 H 39.877893 29.483684 62.047600 0
M  V30 68 H 40.630713 37.191094 62.828155 0
M  V30 END ATOM
M  V30 BEGIN BOND
M  V30 1 1 3 1
M  V30 2 1 6 2
M  V30 3 1 10 6
M  V30 4 1 11 9 CFG=3
M  V30 5 1 11 10
M  V30 6 2 17 1
M  V30 7 1 19 1
M  V30 8 2 19 7
M  V30 9 1 19 16
M  V30 10 1 20 11
M  V30 11 1 21 15
M  V30 12 1 21 20
M  V30 13 1 22 5
M  V30 14 2 22 14
M  V30 15 1 22 16
M  V30 16 1 23 15
M  V30 17 1 24 7
M  V30 18 2 24 8
M  V30 19 1 25 18
M  V30 20 2 26 4
M  V30 21 1 26 15
M  V30 22 1 27 7
M  V30 23 1 28 11
M  V30 24 1 28 13
M  V30 25 1 28 18
M  V30 26 1 29 2
M  V30 27 1 29 21
M  V30 28 2 30 5
M  V30 29 1 30 23
M  V30 30 1 32 4
M  V30 31 1 32 30
M  V30 32 1 33 13
M  V30 33 1 33 25
M  V30 34 1 33 31
M  V30 35 1 34 8
M  V30 36 1 34 12
M  V30 37 2 34 16
M  V30 38 1 35 2
M  V30 39 1 36 2
M  V30 40 1 37 4
M  V30 41 1 38 6
M  V30 42 1 39 6
M  V30 43 1 40 8
M  V30 44 1 41 9
M  V30 45 1 42 9
M  V30 46 1 43 9
M  V30 47 1 44 10
M  V30 48 1 45 10
M  V30 49 1 46 12
M  V30 50 1 47 12
M  V30 51 1 48 12
M  V30 52 1 49 18
M  V30 53 1 50 18
M  V30 54 1 51 20
M  V30 55 1 52 20
M  V30 56 1 21 53 CFG=3
M  V30 57 1 54 23
M  V30 58 1 55 23
M  V30 59 1 56 25
M  V30 60 1 57 25
M  V30 61 1 58 26
M  V30 62 1 59 27
M  V30 63 1 60 27
M  V30 64 1 61 29
M  V30 65 1 62 29
M  V30 66 1 63 31
M  V30 67 1 64 31
M  V30 68 1 65 31
M  V30 69 1 33 66 CFG=3
M  V30 70 1 67 32
M  V30 71 1 68 24
M  V30 END BOND
M  V30 END CTAB
M  END
>  <i_epik_Tot_Q>  (1) 
0

>  <i_epik_Tot_abs_Q>  (1) 
2

>  <i_i_glide_confnum>  (1) 
453

>  <i_i_glide_lignum>  (1) 
64

>  <i_i_glide_posenum>  (1) 
77

>  <i_i_glide_rotatable_bonds>  (1) 
5

>  <i_lp_mmshare_version>  (1) 
72125

>  <i_m_source_file_index>  (1) 
26

>  <i_f3d_flags>  (1) 
0

>  <num_sample>  (1) 
100

>  <b_lp_Chiralities_Consistent>  (1) 
1

>  <r_epik_Charging_Adjusted_Penalty>  (1) 
1.7343418636902355

>  <r_epik_Ionization_Penalty>  (1) 
0.81506818440052864

>  <r_epik_Ionization_Penalty_Charging>  (1) 
0.79852554791812069

>  <r_epik_Ionization_Penalty_Neutral>  (1) 
0.016542636482407981

>  <r_epik_State_Penalty>  (1) 
0.93581631577211466

>  <r_glide_ring_energy>  (1) 
1.2612549243309346

>  <r_i_docking_score>  (1) 
-7.4542479988946102

>  <r_i_glide_ecoul>  (1) 
-4.6852326011972716

>  <r_i_glide_eff_state_penalty>  (1) 
0.93581631577211466

>  <r_i_glide_einternal>  (1) 
7.249068395452781

>  <r_i_glide_emodel>  (1) 
-62.396745360308046

>  <r_i_glide_emodel_strain>  (1) 
1.7181129503161401

>  <r_i_glide_energy>  (1) 
-42.853059430761952

>  <r_i_glide_erotb>  (1) 
0.3649910051837349

>  <r_i_glide_esite>  (1) 
-0.032959588058493819

>  <r_i_glide_evdw>  (1) 
-38.167826829564682

>  <r_i_glide_gscore>  (1) 
-8.3900643146667253

>  <r_i_glide_gscore_strain>  (1) 
0

>  <r_i_glide_hbond>  (1) 
0

>  <r_i_glide_ligand_efficiency>  (1) 
-0.21924258820278264

>  <r_i_glide_ligand_efficiency_ln>  (1) 
-1.646852467530022

>  <r_i_glide_ligand_efficiency_sa>  (1) 
-0.71026087608435429

>  <r_i_glide_lipo>  (1) 
-4.4476766828487166

>  <r_i_glide_metal>  (1) 
-0

>  <r_i_glide_rewards>  (1) 
-1.663242817285425

>  <r_lp_Energy>  (1) 
71.293013999999999

>  <s_epik_Chemistry_Notes>  (1) 
This compound has an imine and may undergo hydrolysis. This compound has a N-S or N-O group and may undergo hydrolysis at high or low pH.

>  <s_epik_cmdline>  (1) 
J2VwaWtfcHl0aG9uJywgJy1waHQnLCAnMS4wJywgJy1waCcsICc3LjQnLCAnLXRuJywgJzgnLCAnLW1hJywgJzUwMCcsICctaW1hZScsICc8aW5maWxlLm1hZT4nLCAnLW9tYWUnLCAnPG91dGZpbGUubWFlPic=

>  <s_epik_input>  (1) 
W09IXUMoPU8pYyhjMVtOSDJdKWMoYyhbY0hdbjEpW0NIM10pQyg9TylbTkhdQyg9TltDSF09W0NIXTIpW0NIMl1OMltDQEhdKFtDSDJdMylbQ0gyXVtDSDJdW0NIMl1bQ0gyXVtDQF0zKFtDSDNdKU40T1tDQEBIXShbQ0gzXSlbQ0gyXVtDSDJdNA==

>  <s_glide_docking_method>  (1) 
confgen

>  <s_i_glide_gridfile>  (1) 
gpcr_5ht2c_6bqh_protein_autoprepared_prepared

>  <s_lp_Force_Field>  (1) 
S-OPLS

>  <s_lp_Variant>  (1) 
DiffSBDD_25-4

>  <s_m_source_file>  (1) 
generated_GPCR_5HT2C_ligand_DiffSBDD_2026-06-23_prepared.sdf

>  <GenAI_Model>  (1) 
DiffSBDD

>  <Protein>  (1) 
GPCR_5HT2C

$$$$
DiffSBDD_44
     RDKit          3D

  0  0  0  0  0  0  0  0  0  0999 V3000
M  V30 BEGIN CTAB
M  V30 COUNTS 72 74 0 0 1
M  V30 BEGIN ATOM
M  V30 1 C 39.315457 28.194808 52.129464 0 CFG=1
M  V30 2 O 38.998020 27.514041 54.932733 0
M  V30 3 C 38.737333 33.387533 59.541461 0
M  V30 4 C 36.512941 32.687470 60.758240 0
M  V30 5 C 36.549491 35.268832 60.377042 0
M  V30 6 C 39.143482 29.186426 57.266455 0
M  V30 7 C 38.247660 30.866890 55.707778 0
M  V30 8 C 39.151904 28.712805 54.700660 0
M  V30 9 C 37.492493 29.788289 59.232285 0
M  V30 10 C 34.761046 33.755415 59.250374 0
M  V30 11 O 39.301517 30.440380 53.016392 0
M  V30 12 N 37.645142 30.965421 57.027420 0 CHG=1
M  V30 13 C 37.494026 35.502656 61.532678 0 CFG=2
M  V30 14 C 38.220018 30.927597 59.975125 0
M  V30 15 C 36.445012 36.148977 59.369010 0
M  V30 16 C 37.916733 36.953247 63.536934 0
M  V30 17 C 37.620634 32.340467 59.743659 0 CFG=2
M  V30 18 C 37.073839 36.766618 62.295130 0
M  V30 19 C 41.352034 36.035059 62.142928 0
M  V30 20 C 39.361333 37.133860 63.134126 0
M  V30 21 C 39.921403 28.744334 50.832849 0
M  V30 22 C 35.700692 33.979903 60.452685 0 CFG=1
M  V30 23 C 37.767466 29.679763 57.712918 0 CFG=1
M  V30 24 C 39.011768 35.401637 61.217558 0 CFG=2
M  V30 25 C 39.245110 29.233839 53.248833 0
M  V30 26 C 39.289536 29.746841 55.826622 0 CFG=2
M  V30 27 C 39.377100 33.936660 60.828386 0
M  V30 28 O 38.045134 27.704953 51.840646 0
M  V30 29 C 39.866147 35.844554 62.454161 0 CFG=1
M  V30 30 O 42.045121 36.137756 63.367734 0
M  V30 31 H 39.926720 27.362175 52.480315 0
M  V30 32 H 39.520639 32.959807 58.917254 0
M  V30 33 H 38.361053 34.190895 58.919981 0
M  V30 34 H 36.918010 32.687031 61.768453 0
M  V30 35 H 35.803316 31.858753 60.777688 0
M  V30 36 H 39.928160 29.613013 57.891643 0
M  V30 37 H 39.233312 28.102110 57.348859 0
M  V30 38 H 38.691803 31.820861 55.420087 0
M  V30 39 H 37.450691 30.639899 54.995958 0
M  V30 40 H 37.770807 28.842537 59.695387 0
M  V30 41 H 36.418373 29.890331 59.395466 0
M  V30 42 H 34.009096 34.537802 59.169902 0
M  V30 43 H 35.320382 33.737802 58.316383 0
M  V30 44 H 34.222212 32.810660 59.329903 0
M  V30 45 H 36.661693 31.292691 56.967529 0
M  V30 46 H 37.298477 34.672213 62.167758 0
M  V30 47 H 39.271443 30.899602 59.697539 0
M  V30 48 H 38.216683 30.716905 61.045100 0
M  V30 49 H 35.756151 35.989594 58.567825 0
M  V30 50 H 37.045505 37.046042 59.347500 0
M  V30 51 H 37.836408 36.137763 64.223087 0
M  V30 52 H 37.534371 37.738448 64.150195 0
M  V30 53 H 37.071013 32.354611 58.815428 0
M  V30 54 H 36.041987 36.681426 62.611078 0
M  V30 55 H 37.142096 37.653386 61.662962 0
M  V30 56 H 41.517124 36.922021 61.532025 0
M  V30 57 H 41.767285 35.193423 61.598529 0
M  V30 58 H 39.932580 37.353840 64.036558 0
M  V30 59 H 39.476404 37.993496 62.472029 0
M  V30 60 H 40.900596 29.190831 51.007064 0
M  V30 61 H 40.055635 27.931804 50.123213 0
M  V30 62 H 39.284790 29.500243 50.369563 0
M  V30 63 H 35.046631 34.126873 61.312744 0
M  V30 64 H 37.020269 29.010305 57.287831 0
M  V30 65 H 39.240711 36.070803 60.388615 0
M  V30 66 H 40.286081 30.176999 55.724426 0
M  V30 67 H 39.176058 33.264606 61.664093 0
M  V30 68 H 40.444980 33.855096 60.676826 0
M  V30 69 H 37.568267 28.342811 51.332482 0
M  V30 70 H 39.785276 35.043957 63.192168 0
M  V30 71 H 41.883473 36.989959 63.765294 0
M  V30 72 H 38.163313 31.650405 57.557105 0
M  V30 END ATOM
M  V30 BEGIN BOND
M  V30 1 2 8 2
M  V30 2 1 12 7
M  V30 3 1 13 5
M  V30 4 1 14 9
M  V30 5 2 15 5
M  V30 6 1 17 3
M  V30 7 1 17 4
M  V30 8 1 17 14
M  V30 9 1 18 13
M  V30 10 1 18 16
M  V30 11 1 20 16
M  V30 12 1 21 1
M  V30 13 1 22 4
M  V30 14 1 22 5
M  V30 15 1 22 10
M  V30 16 1 23 6
M  V30 17 1 23 9
M  V30 18 1 23 12
M  V30 19 1 24 13
M  V30 20 1 25 1
M  V30 21 1 25 8
M  V30 22 2 25 11
M  V30 23 1 26 6
M  V30 24 1 26 7
M  V30 25 1 26 8
M  V30 26 1 27 3
M  V30 27 1 27 24
M  V30 28 1 28 1
M  V30 29 1 29 19
M  V30 30 1 29 20
M  V30 31 1 29 24
M  V30 32 1 30 19
M  V30 33 1 1 31 CFG=1
M  V30 34 1 32 3
M  V30 35 1 33 3
M  V30 36 1 34 4
M  V30 37 1 35 4
M  V30 38 1 36 6
M  V30 39 1 37 6
M  V30 40 1 38 7
M  V30 41 1 39 7
M  V30 42 1 40 9
M  V30 43 1 41 9
M  V30 44 1 42 10
M  V30 45 1 43 10
M  V30 46 1 44 10
M  V30 47 1 45 12
M  V30 48 1 13 46 CFG=1
M  V30 49 1 47 14
M  V30 50 1 48 14
M  V30 51 1 49 15
M  V30 52 1 50 15
M  V30 53 1 51 16
M  V30 54 1 52 16
M  V30 55 1 17 53 CFG=3
M  V30 56 1 54 18
M  V30 57 1 55 18
M  V30 58 1 56 19
M  V30 59 1 57 19
M  V30 60 1 58 20
M  V30 61 1 59 20
M  V30 62 1 60 21
M  V30 63 1 61 21
M  V30 64 1 62 21
M  V30 65 1 22 63 CFG=1
M  V30 66 1 23 64 CFG=3
M  V30 67 1 24 65 CFG=3
M  V30 68 1 26 66 CFG=1
M  V30 69 1 67 27
M  V30 70 1 68 27
M  V30 71 1 69 28
M  V30 72 1 29 70 CFG=1
M  V30 73 1 71 30
M  V30 74 1 72 12
M  V30 END BOND
M  V30 END CTAB
M  END
>  <i_epik_Tot_Q>  (1) 
1

>  <i_epik_Tot_abs_Q>  (1) 
1

>  <i_i_glide_confnum>  (1) 
79

>  <i_i_glide_lignum>  (1) 
97

>  <i_i_glide_posenum>  (1) 
46

>  <i_i_glide_rotatable_bonds>  (1) 
9

>  <i_lp_mmshare_version>  (1) 
72125

>  <i_m_source_file_index>  (1) 
45

>  <i_f3d_flags>  (1) 
0

>  <num_sample>  (1) 
100

>  <b_lp_Chiralities_Consistent>  (1) 
1

>  <r_epik_Charging_Adjusted_Penalty>  (1) 
0.0074455109037498855

>  <r_epik_Ionization_Penalty>  (1) 
0.0074458693978643794

>  <r_epik_Ionization_Penalty_Charging>  (1) 
0.0018801258091055938

>  <r_epik_Ionization_Penalty_Neutral>  (1) 
0.0055657435887587854

>  <r_epik_State_Penalty>  (1) 
0.0055653850946442915

>  <r_glide_ring_energy>  (1) 
0

>  <r_i_docking_score>  (1) 
-7.450845600935577

>  <r_i_glide_ecoul>  (1) 
-9.0140558528244359

>  <r_i_glide_eff_state_penalty>  (1) 
0.0055653850946442915

>  <r_i_glide_einternal>  (1) 
7.7839316203321669

>  <r_i_glide_emodel>  (1) 
-50.2874294957914

>  <r_i_glide_emodel_strain>  (1) 
1.0340962370686526

>  <r_i_glide_energy>  (1) 
-41.050248653843546

>  <r_i_glide_erotb>  (1) 
0.78317259644861148

>  <r_i_glide_esite>  (1) 
-0.10000000000000001

>  <r_i_glide_evdw>  (1) 
-32.036192801019112

>  <r_i_glide_gscore>  (1) 
-7.456410986030221

>  <r_i_glide_gscore_strain>  (1) 
0

>  <r_i_glide_hbond>  (1) 
-0.4675813910539165

>  <r_i_glide_ligand_efficiency>  (1) 
-0.24836152003118589

>  <r_i_glide_ligand_efficiency_ln>  (1) 
-1.6929133039976705

>  <r_i_glide_ligand_efficiency_sa>  (1) 
-0.77171698826901136

>  <r_i_glide_lipo>  (1) 
-2.9061972719266209

>  <r_i_glide_metal>  (1) 
-0

>  <r_i_glide_rewards>  (1) 
-1.8118869015236752

>  <r_lp_Energy>  (1) 
44.150161999999995

>  <s_epik_cmdline>  (1) 
J2VwaWtfcHl0aG9uJywgJy1waHQnLCAnMS4wJywgJy1waCcsICc3LjQnLCAnLXRuJywgJzgnLCAnLW1hJywgJzUwMCcsICctaW1hZScsICc8aW5maWxlLm1hZT4nLCAnLW9tYWUnLCAnPG91dGZpbGUubWFlPic=

>  <s_epik_input>  (1) 
W0NIM11bQ0BIXShbT0hdKUMoPU8pQyg9TylbQ0BASF0oW0NIMl1bTkhdMSlbQ0gyXVtDQEhdMVtDSDJdW0NIMl1bQ0BASF0oW0NIMl1bQ0BIXShbQ0gzXSlDMj1bQ0gyXSlbQ0gyXVtDSDJdW0NAQEhdKFtDQEhdMjMpW0NAQEhdKFtDSDJdW09IXSlbQ0gyXVtDSDJdW0NIMl0z

>  <s_glide_docking_method>  (1) 
confgen

>  <s_i_glide_gridfile>  (1) 
gpcr_5ht2c_6bqh_protein_autoprepared_prepared

>  <s_lp_Force_Field>  (1) 
S-OPLS

>  <s_lp_Variant>  (1) 
DiffSBDD_44-1

>  <s_m_source_file>  (1) 
generated_GPCR_5HT2C_ligand_DiffSBDD_2026-06-23_prepared.sdf

>  <GenAI_Model>  (1) 
DiffSBDD

>  <Protein>  (1) 
GPCR_5HT2C

$$$$
DiffSBDD_97
     RDKit          3D

  0  0  0  0  0  0  0  0  0  0999 V3000
M  V30 BEGIN CTAB
M  V30 COUNTS 54 56 0 0 1
M  V30 BEGIN ATOM
M  V30 1 C 38.337585 27.789034 52.664234 0
M  V30 2 C 38.751710 29.966754 57.638983 0
M  V30 3 N 36.845133 35.882346 60.384961 0 CHG=1
M  V30 4 C 39.092254 28.572225 51.907629 0
M  V30 5 C 39.316828 29.737832 52.567149 0
M  V30 6 S 38.756393 30.916859 54.977850 0
M  V30 7 C 37.131320 33.225133 58.978219 0
M  V30 8 C 39.628078 28.247225 50.532962 0
M  V30 9 C 40.944617 30.448216 50.757574 0
M  V30 10 C 35.175628 33.485469 61.583252 0
M  V30 11 C 38.623917 31.402465 58.194942 0
M  V30 12 C 40.183182 30.870501 52.047381 0
M  V30 13 C 38.682797 29.699547 53.729123 0
M  V30 14 C 36.550911 32.808391 61.456188 0
M  V30 15 S 38.445166 27.976201 55.687087 0
M  V30 16 C 38.166850 29.720881 56.234369 0 CFG=1
M  V30 17 C 37.086629 37.258840 60.861203 0
M  V30 18 N 37.245141 31.809661 58.567760 0 CHG=1
M  V30 19 C 37.538276 33.451204 60.452003 0 CFG=2
M  V30 20 C 37.868192 28.414052 54.035574 0 CFG=2
M  V30 21 C 40.096446 29.551742 49.838924 0
M  V30 22 C 37.901242 34.921264 60.767895 0
M  V30 23 H 38.012971 26.803464 52.368806 0
M  V30 24 H 39.812700 29.714520 57.605570 0
M  V30 25 H 38.306887 29.262662 58.343382 0
M  V30 26 H 36.751787 35.899177 59.378378 0
M  V30 27 H 37.735909 33.838929 58.307710 0
M  V30 28 H 36.100665 33.539431 58.812067 0
M  V30 29 H 40.445139 27.537872 50.604458 0
M  V30 30 H 38.845345 27.768529 49.947754 0
M  V30 31 H 41.247336 31.337750 50.206684 0
M  V30 32 H 41.865878 29.910244 50.967759 0
M  V30 33 H 34.488161 32.871809 62.167751 0
M  V30 34 H 34.700470 33.648770 60.616252 0
M  V30 35 H 35.249249 34.441478 62.101263 0
M  V30 36 H 39.243388 31.462716 59.089752 0
M  V30 37 H 39.045076 32.119943 57.490573 0
M  V30 38 H 40.845132 31.213035 52.835240 0
M  V30 39 H 39.549813 31.724696 51.817155 0
M  V30 40 H 36.394520 31.763308 61.187451 0
M  V30 41 H 37.022908 32.779102 62.438259 0
M  V30 42 H 37.085085 29.854956 56.284467 0
M  V30 43 H 36.262579 37.909497 60.567734 0
M  V30 44 H 38.008134 37.661358 60.439848 0
M  V30 45 H 37.160611 37.287008 61.949247 0
M  V30 46 H 36.622222 31.737592 57.749352 0
M  V30 47 H 38.476269 32.917866 60.606695 0
M  V30 48 H 36.804766 28.626922 54.024454 0
M  V30 49 H 39.245138 30.151523 49.539525 0
M  V30 50 H 40.643801 29.326783 48.925795 0
M  V30 51 H 38.816438 35.194919 60.241030 0
M  V30 52 H 38.117873 35.018856 61.833071 0
M  V30 53 H 35.973137 35.560837 60.780780 0
M  V30 54 H 36.870379 31.204336 59.282154 0
M  V30 END ATOM
M  V30 BEGIN BOND
M  V30 1 2 4 1
M  V30 2 1 5 4
M  V30 3 1 8 4
M  V30 4 1 11 2
M  V30 5 1 12 5
M  V30 6 1 12 9
M  V30 7 2 13 5
M  V30 8 1 13 6
M  V30 9 1 14 10
M  V30 10 1 16 2
M  V30 11 1 16 6
M  V30 12 1 16 15
M  V30 13 1 17 3
M  V30 14 1 18 7
M  V30 15 1 18 11
M  V30 16 1 19 7
M  V30 17 1 19 14
M  V30 18 1 20 1
M  V30 19 1 20 13
M  V30 20 1 20 15
M  V30 21 1 21 8
M  V30 22 1 21 9
M  V30 23 1 22 3
M  V30 24 1 22 19
M  V30 25 1 23 1
M  V30 26 1 24 2
M  V30 27 1 25 2
M  V30 28 1 26 3
M  V30 29 1 27 7
M  V30 30 1 28 7
M  V30 31 1 29 8
M  V30 32 1 30 8
M  V30 33 1 31 9
M  V30 34 1 32 9
M  V30 35 1 33 10
M  V30 36 1 34 10
M  V30 37 1 35 10
M  V30 38 1 36 11
M  V30 39 1 37 11
M  V30 40 1 38 12
M  V30 41 1 39 12
M  V30 42 1 40 14
M  V30 43 1 41 14
M  V30 44 1 16 42 CFG=1
M  V30 45 1 43 17
M  V30 46 1 44 17
M  V30 47 1 45 17
M  V30 48 1 46 18
M  V30 49 1 19 47 CFG=3
M  V30 50 1 20 48 CFG=1
M  V30 51 1 49 21
M  V30 52 1 50 21
M  V30 53 1 51 22
M  V30 54 1 52 22
M  V30 55 1 53 3
M  V30 56 1 54 18
M  V30 END BOND
M  V30 END CTAB
M  END
>  <i_epik_Tot_Q>  (1) 
2

>  <i_epik_Tot_abs_Q>  (1) 
2

>  <i_i_glide_confnum>  (1) 
84

>  <i_i_glide_lignum>  (1) 
230

>  <i_i_glide_posenum>  (1) 
118

>  <i_i_glide_rotatable_bonds>  (1) 
8

>  <i_lp_mmshare_version>  (1) 
72125

>  <i_m_source_file_index>  (1) 
98

>  <i_f3d_flags>  (1) 
0

>  <num_sample>  (1) 
100

>  <b_lp_Chiralities_Consistent>  (1) 
1

>  <r_epik_Charging_Adjusted_Penalty>  (1) 
0.023784372846060081

>  <r_epik_Ionization_Penalty>  (1) 
0.011913947957046679

>  <r_epik_Ionization_Penalty_Charging>  (1) 
0.011913947957046679

>  <r_epik_Ionization_Penalty_Neutral>  (1) 
0

>  <r_epik_State_Penalty>  (1) 
0.011870424889013402

>  <r_glide_ring_energy>  (1) 
0

>  <r_i_docking_score>  (1) 
-7.4474628879874603

>  <r_i_glide_ecoul>  (1) 
-6.4065568795339196

>  <r_i_glide_eff_state_penalty>  (1) 
0.011870424889013402

>  <r_i_glide_einternal>  (1) 
6.9027405062819769

>  <r_i_glide_emodel>  (1) 
-62.902171052179291

>  <r_i_glide_emodel_strain>  (1) 
0.0070972339344308466

>  <r_i_glide_energy>  (1) 
-40.741465023088452

>  <r_i_glide_erotb>  (1) 
0.81630680719182536

>  <r_i_glide_esite>  (1) 
-0.10000000000000001

>  <r_i_glide_evdw>  (1) 
-34.334908143554536

>  <r_i_glide_gscore>  (1) 
-7.4593333128764741

>  <r_i_glide_gscore_strain>  (1) 
0

>  <r_i_glide_hbond>  (1) 
-0.20000000000000001

>  <r_i_glide_ligand_efficiency>  (1) 
-0.33852104036306635

>  <r_i_glide_ligand_efficiency_ln>  (1) 
-1.8204315826333886

>  <r_i_glide_ligand_efficiency_sa>  (1) 
-0.94854926935169193

>  <r_i_glide_lipo>  (1) 
-3.3110734991423016

>  <r_i_glide_metal>  (1) 
-0

>  <r_i_glide_rewards>  (1) 
-1.9868376818181823

>  <r_lp_Energy>  (1) 
24.890995

>  <s_epik_Chemistry_Notes>  (1) 
This compound contains an acetal/aminal-like group ( X-CH(R)-Y where X, Y are N, S, or O) that may be acid/base labile, releasing an aldehyde.

>  <s_epik_cmdline>  (1) 
J2VwaWtfcHl0aG9uJywgJy1waHQnLCAnMS4wJywgJy1waCcsICc3LjQnLCAnLXRuJywgJzgnLCAnLW1hJywgJzUwMCcsICctaW1hZScsICc8aW5maWxlLm1hZT4nLCAnLW9tYWUnLCAnPG91dGZpbGUubWFlPic=

>  <s_epik_input>  (1) 
W0NIMl0xW0NIMl1bQ0gyXVtDSDJdQyhDMTIpPUMzW0NAQEhdKFtDSF09MilTW0NASF0oUzMpW0NIMl1bQ0gyXVtOSF1bQ0gyXVtDQEhdKFtDSDJdW0NIM10pW0NIMl1bTkhdW0NIM10=

>  <s_glide_docking_method>  (1) 
confgen

>  <s_i_glide_gridfile>  (1) 
gpcr_5ht2c_6bqh_protein_autoprepared_prepared

>  <s_lp_Force_Field>  (1) 
S-OPLS

>  <s_lp_Variant>  (1) 
DiffSBDD_97-1

>  <s_m_source_file>  (1) 
generated_GPCR_5HT2C_ligand_DiffSBDD_2026-06-23_prepared.sdf

>  <GenAI_Model>  (1) 
DiffSBDD

>  <Protein>  (1) 
GPCR_5HT2C

$$$$
DiffSBDD_69
     RDKit          3D

  0  0  0  0  0  0  0  0  0  0999 V3000
M  V30 BEGIN CTAB
M  V30 COUNTS 57 57 0 0 1
M  V30 BEGIN ATOM
M  V30 1 C 39.424697 29.446991 54.823753 0
M  V30 2 N 36.845131 30.937715 58.587273 0 CHG=1
M  V30 3 C 38.453991 31.730702 54.665340 0
M  V30 4 C 38.581247 31.894854 60.068471 0 CFG=1
M  V30 5 C 39.451383 30.709337 55.175341 0
M  V30 6 C 37.344398 32.194829 59.179949 0 CFG=1
M  V30 7 C 39.562721 28.170208 54.549316 0
M  V30 8 C 40.573469 32.897404 61.408010 0
M  V30 9 C 38.385802 32.969175 56.866006 0
M  V30 10 C 37.497395 33.300790 58.091020 0
M  V30 11 C 38.036752 28.329152 52.484004 0
M  V30 12 C 38.198863 25.419191 55.184530 0 CFG=1
M  V30 13 C 37.644621 26.494360 54.219027 0
M  V30 14 C 38.675783 25.968777 56.540627 0
M  V30 15 N 37.645149 32.286384 55.769473 0 CHG=1
M  V30 16 C 37.245194 24.168463 57.343427 0
M  V30 17 C 39.347175 33.162669 60.520103 0
M  V30 18 C 38.170078 31.040706 61.287479 0
M  V30 19 S 36.934831 24.163675 55.558592 0
M  V30 20 C 38.584327 24.851872 57.562902 0
M  V30 21 C 38.686814 27.420495 53.548058 0 CFG=2
M  V30 22 H 37.576793 30.440768 58.104261 0
M  V30 23 H 36.445914 30.349978 59.303998 0
M  V30 24 H 38.986393 32.537398 54.168375 0
M  V30 25 H 37.783796 31.287176 53.927751 0
M  V30 26 H 39.250515 31.286294 59.467710 0
M  V30 27 H 40.203149 31.072010 55.855454 0
M  V30 28 H 36.554677 32.552256 59.843181 0
M  V30 29 H 40.333260 27.589904 55.030919 0
M  V30 30 H 41.150635 33.812411 61.547266 0
M  V30 31 H 40.285072 32.552162 62.401202 0
M  V30 32 H 41.236229 32.152213 60.968022 0
M  V30 33 H 39.240648 32.393792 57.214194 0
M  V30 34 H 38.795525 33.884696 56.440684 0
M  V30 35 H 37.887861 34.199170 58.562345 0
M  V30 36 H 36.509532 33.627463 57.767606 0
M  V30 37 H 38.760705 29.018320 52.048330 0
M  V30 38 H 37.644352 27.736865 51.658766 0
M  V30 39 H 37.217027 28.914570 52.900069 0
M  V30 40 H 39.025819 24.889517 54.709649 0
M  V30 41 H 36.893486 27.094256 54.730181 0
M  V30 42 H 37.107837 25.979762 53.420120 0
M  V30 43 H 39.702725 26.324018 56.522586 0
M  V30 44 H 38.041973 26.798785 56.854818 0
M  V30 45 H 36.965557 32.938660 55.381056 0
M  V30 46 H 36.458562 24.750898 57.824588 0
M  V30 47 H 37.244980 23.163396 57.767650 0
M  V30 48 H 39.706273 33.698497 59.642488 0
M  V30 49 H 38.670395 33.843388 61.039386 0
M  V30 50 H 37.521986 31.597888 61.964610 0
M  V30 51 H 37.645048 30.137832 60.984557 0
M  V30 52 H 39.033958 30.705200 61.860600 0
M  V30 53 H 38.673921 25.258489 58.567884 0
M  V30 54 H 39.397227 24.140108 57.404593 0
M  V30 55 H 39.381313 26.779862 53.002012 0
M  V30 56 H 36.099721 31.213677 57.921676 0
M  V30 57 H 37.059571 31.561189 56.162972 0
M  V30 END ATOM
M  V30 BEGIN BOND
M  V30 1 2 5 1
M  V30 2 1 5 3
M  V30 3 1 6 2
M  V30 4 1 6 4
M  V30 5 2 7 1
M  V30 6 1 10 6
M  V30 7 1 10 9
M  V30 8 1 13 12
M  V30 9 1 14 12
M  V30 10 1 15 3
M  V30 11 1 15 9
M  V30 12 1 17 4
M  V30 13 1 17 8
M  V30 14 1 18 4
M  V30 15 1 19 12
M  V30 16 1 19 16
M  V30 17 1 20 14
M  V30 18 1 20 16
M  V30 19 1 21 7
M  V30 20 1 21 11
M  V30 21 1 21 13
M  V30 22 1 22 2
M  V30 23 1 23 2
M  V30 24 1 24 3
M  V30 25 1 25 3
M  V30 26 1 4 26 CFG=3
M  V30 27 1 27 5
M  V30 28 1 6 28 CFG=1
M  V30 29 1 29 7
M  V30 30 1 30 8
M  V30 31 1 31 8
M  V30 32 1 32 8
M  V30 33 1 33 9
M  V30 34 1 34 9
M  V30 35 1 35 10
M  V30 36 1 36 10
M  V30 37 1 37 11
M  V30 38 1 38 11
M  V30 39 1 39 11
M  V30 40 1 12 40 CFG=3
M  V30 41 1 41 13
M  V30 42 1 42 13
M  V30 43 1 43 14
M  V30 44 1 44 14
M  V30 45 1 45 15
M  V30 46 1 46 16
M  V30 47 1 47 16
M  V30 48 1 48 17
M  V30 49 1 49 17
M  V30 50 1 50 18
M  V30 51 1 51 18
M  V30 52 1 52 18
M  V30 53 1 53 20
M  V30 54 1 54 20
M  V30 55 1 21 55 CFG=3
M  V30 56 1 56 2
M  V30 57 1 57 15
M  V30 END BOND
M  V30 END CTAB
M  END
>  <i_epik_Tot_Q>  (1) 
2

>  <i_epik_Tot_abs_Q>  (1) 
2

>  <i_i_glide_confnum>  (1) 
460

>  <i_i_glide_lignum>  (1) 
154

>  <i_i_glide_posenum>  (1) 
330

>  <i_i_glide_rotatable_bonds>  (1) 
10

>  <i_lp_mmshare_version>  (1) 
72125

>  <i_m_source_file_index>  (1) 
70

>  <i_f3d_flags>  (1) 
0

>  <num_sample>  (1) 
100

>  <b_lp_Chiralities_Consistent>  (1) 
1

>  <r_epik_Charging_Adjusted_Penalty>  (1) 
0.029112061252425856

>  <r_epik_Ionization_Penalty>  (1) 
0.014593894863530521

>  <r_epik_Ionization_Penalty_Charging>  (1) 
0.014593894863530521

>  <r_epik_Ionization_Penalty_Neutral>  (1) 
0

>  <r_epik_State_Penalty>  (1) 
0.014518166388895335

>  <r_glide_ring_energy>  (1) 
0

>  <r_i_docking_score>  (1) 
-7.4413822915883383

>  <r_i_glide_ecoul>  (1) 
-11.575634469324854

>  <r_i_glide_eff_state_penalty>  (1) 
0.014518166388895335

>  <r_i_glide_einternal>  (1) 
13.422002242718355

>  <r_i_glide_emodel>  (1) 
-59.556761142948091

>  <r_i_glide_emodel_strain>  (1) 
0.17230732534123661

>  <r_i_glide_energy>  (1) 
-38.040457395577647

>  <r_i_glide_erotb>  (1) 
1.5199289784806138

>  <r_i_glide_esite>  (1) 
-0.20000000000000001

>  <r_i_glide_evdw>  (1) 
-26.464822926252793

>  <r_i_glide_gscore>  (1) 
-7.4559004579772337

>  <r_i_glide_gscore_strain>  (1) 
0

>  <r_i_glide_hbond>  (1) 
-0.41798449204662425

>  <r_i_glide_ligand_efficiency>  (1) 
-0.35435153769468275

>  <r_i_glide_ligand_efficiency_ln>  (1) 
-1.8398667348664623

>  <r_i_glide_ligand_efficiency_sa>  (1) 
-0.97762902428368648

>  <r_i_glide_lipo>  (1) 
-3.3678949790763082

>  <r_i_glide_metal>  (1) 
-0

>  <r_i_glide_rewards>  (1) 
-1.9303636486235474

>  <r_lp_Energy>  (1) 
2.2558279999999997

>  <s_epik_cmdline>  (1) 
J2VwaWtfcHl0aG9uJywgJy1waHQnLCAnMS4wJywgJy1waCcsICc3LjQnLCAnLXRuJywgJzgnLCAnLW1hJywgJzUwMCcsICctaW1hZScsICc8aW5maWxlLm1hZT4nLCAnLW9tYWUnLCAnPG91dGZpbGUubWFlPic=

>  <s_epik_input>  (1) 
UzFbQ0gyXVtDSDJdW0NIMl1bQ0BASF0xW0NIMl1bQ0BIXShbQ0gzXSlbQ0hdPUM9W0NIXVtDSDJdW05IXVtDSDJdW0NIMl1bQ0BASF0oW05IMl0pW0NASF0oW0NIM10pW0NIMl1bQ0gzXQ==

>  <s_glide_docking_method>  (1) 
confgen

>  <s_i_glide_gridfile>  (1) 
gpcr_5ht2c_6bqh_protein_autoprepared_prepared

>  <s_lp_Force_Field>  (1) 
S-OPLS

>  <s_lp_Variant>  (1) 
DiffSBDD_69-2

>  <s_m_source_file>  (1) 
generated_GPCR_5HT2C_ligand_DiffSBDD_2026-06-23_prepared.sdf

>  <GenAI_Model>  (1) 
DiffSBDD

>  <Protein>  (1) 
GPCR_5HT2C

$$$$
DiffSBDD_34
     RDKit          3D

  0  0  0  0  0  0  0  0  0  0999 V3000
M  V30 BEGIN CTAB
M  V30 COUNTS 77 79 0 0 1
M  V30 BEGIN ATOM
M  V30 1 C 38.421936 29.675957 54.083828 0
M  V30 2 C 39.437028 35.732450 62.820193 0
M  V30 3 C 41.654321 28.312075 58.122955 0
M  V30 4 C 40.417307 27.912764 58.937872 0
M  V30 5 C 39.107064 36.895396 66.353780 0
M  V30 6 N 37.245902 27.579302 53.493857 0
M  V30 7 C 38.252368 34.414453 60.982618 0
M  V30 8 C 37.907894 29.834047 60.167704 0
M  V30 9 C 38.481499 35.798650 61.609392 0
M  V30 10 C 39.078624 36.763369 63.895451 0
M  V30 11 O 38.514364 32.839842 54.967761 0
M  V30 12 C 37.272310 34.370977 59.786066 0 CFG=2
M  V30 13 N 38.250201 33.099613 57.161534 0
M  V30 14 C 38.573813 30.897105 56.377204 0 CFG=1
M  V30 15 N 39.645002 29.692881 52.236092 0
M  V30 16 C 40.693784 28.161205 60.434302 0
M  V30 17 C 39.106113 28.537249 58.372739 0
M  V30 18 O 40.445271 38.395802 67.599369 0
M  V30 19 C 37.752983 29.996520 55.412751 0
M  V30 20 C 37.625729 31.115843 60.958927 0
M  V30 21 O 40.445069 36.244501 68.187858 0 CHG=-1
M  V30 22 C 40.564487 30.049756 51.181375 0
M  V30 23 C 38.145939 32.403264 58.398167 0 CFG=1
M  V30 24 O 36.045216 34.937526 60.165476 0
M  V30 25 C 36.505696 31.962891 60.336030 0
M  V30 26 N 39.878126 36.620871 65.129593 0 CHG=1
M  V30 27 C 38.444637 32.381337 56.096522 0
M  V30 28 C 36.974755 32.947153 59.243253 0 CFG=1
M  V30 29 C 40.078191 37.204859 67.478249 0
M  V30 30 C 38.045036 30.911809 57.871701 0 CFG=2
M  V30 31 C 38.178314 28.569356 53.217140 0
M  V30 32 C 39.386966 30.369030 53.408045 0
M  V30 33 C 38.743241 29.962856 58.882200 0 CFG=1
M  V30 34 N 38.909826 28.568035 52.113940 0
M  V30 35 H 39.388851 34.738602 63.266011 0
M  V30 36 H 40.467904 35.865241 62.487952 0
M  V30 37 H 41.930770 29.337876 58.341891 0
M  V30 38 H 41.493539 28.210588 57.048572 0
M  V30 39 H 42.510501 27.688015 58.382309 0
M  V30 40 H 40.311302 26.836597 58.807214 0
M  V30 41 H 38.483361 36.038153 66.601308 0
M  V30 42 H 38.437322 37.737781 66.214713 0
M  V30 43 H 36.673010 27.611191 54.323672 0
M  V30 44 H 37.061482 26.832988 52.833840 0
M  V30 45 H 39.216482 34.000956 60.690271 0
M  V30 46 H 37.868358 33.770167 61.769694 0
M  V30 47 H 38.445223 29.191603 60.856402 0
M  V30 48 H 36.966673 29.337545 59.931492 0
M  V30 49 H 38.861343 36.502410 60.869171 0
M  V30 50 H 37.515447 36.192284 61.927060 0
M  V30 51 H 38.017148 36.666921 64.134050 0
M  V30 52 H 39.243162 37.762147 63.503940 0
M  V30 53 H 37.645147 34.998621 58.978794 0
M  V30 54 H 38.134993 34.100870 57.118402 0
M  V30 55 H 39.631551 30.631497 56.363160 0
M  V30 56 H 40.756084 29.222294 60.670674 0
M  V30 57 H 41.645050 27.738069 60.736976 0
M  V30 58 H 39.935656 27.722582 61.076455 0
M  V30 59 H 39.194323 28.516857 57.287949 0
M  V30 60 H 38.271961 27.862742 58.579986 0
M  V30 61 H 36.783413 30.464111 55.231464 0
M  V30 62 H 37.508168 29.070464 55.932050 0
M  V30 63 H 37.307049 30.827296 61.958326 0
M  V30 64 H 38.546344 31.678908 61.108535 0
M  V30 65 H 40.947440 31.056858 51.343248 0
M  V30 66 H 40.052546 30.027338 50.219113 0
M  V30 67 H 41.388399 29.338447 51.166910 0
M  V30 68 H 39.094724 32.559689 58.911688 0
M  V30 69 H 35.471250 34.931008 59.412947 0
M  V30 70 H 35.752176 31.297516 59.913347 0
M  V30 71 H 35.974910 32.499986 61.121781 0
M  V30 72 H 40.265010 35.692650 65.206581 0
M  V30 73 H 36.126313 33.055102 58.567915 0
M  V30 74 H 36.993371 30.624660 57.823432 0
M  V30 75 H 39.898054 31.287245 53.651845 0
M  V30 76 H 39.663533 30.449549 59.157871 0
M  V30 77 H 40.645668 37.289649 65.099627 0
M  V30 END ATOM
M  V30 BEGIN BOND
M  V30 1 1 4 3
M  V30 2 1 9 2
M  V30 3 1 9 7
M  V30 4 1 10 2
M  V30 5 1 12 7
M  V30 6 1 16 4
M  V30 7 1 17 4
M  V30 8 1 19 1
M  V30 9 1 19 14
M  V30 10 1 20 8
M  V30 11 1 22 15
M  V30 12 1 23 13
M  V30 13 1 24 12
M  V30 14 1 25 20
M  V30 15 1 26 5
M  V30 16 1 26 10
M  V30 17 2 27 11
M  V30 18 1 27 13
M  V30 19 1 27 14
M  V30 20 1 28 12
M  V30 21 1 28 23
M  V30 22 1 28 25
M  V30 23 1 29 5
M  V30 24 2 29 18
M  V30 25 1 29 21
M  V30 26 1 30 14
M  V30 27 1 30 23
M  V30 28 1 31 1
M  V30 29 1 31 6
M  V30 30 2 32 1
M  V30 31 1 32 15
M  V30 32 1 33 8
M  V30 33 1 33 17
M  V30 34 1 33 30
M  V30 35 1 34 15
M  V30 36 2 34 31
M  V30 37 1 35 2
M  V30 38 1 36 2
M  V30 39 1 37 3
M  V30 40 1 38 3
M  V30 41 1 39 3
M  V30 42 1 40 4
M  V30 43 1 41 5
M  V30 44 1 42 5
M  V30 45 1 43 6
M  V30 46 1 44 6
M  V30 47 1 45 7
M  V30 48 1 46 7
M  V30 49 1 47 8
M  V30 50 1 48 8
M  V30 51 1 49 9
M  V30 52 1 50 9
M  V30 53 1 51 10
M  V30 54 1 52 10
M  V30 55 1 12 53 CFG=3
M  V30 56 1 54 13
M  V30 57 1 14 55 CFG=1
M  V30 58 1 56 16
M  V30 59 1 57 16
M  V30 60 1 58 16
M  V30 61 1 59 17
M  V30 62 1 60 17
M  V30 63 1 61 19
M  V30 64 1 62 19
M  V30 65 1 63 20
M  V30 66 1 64 20
M  V30 67 1 65 22
M  V30 68 1 66 22
M  V30 69 1 67 22
M  V30 70 1 23 68 CFG=1
M  V30 71 1 69 24
M  V30 72 1 70 25
M  V30 73 1 71 25
M  V30 74 1 72 26
M  V30 75 1 28 73 CFG=3
M  V30 76 1 30 74 CFG=3
M  V30 77 1 75 32
M  V30 78 1 33 76 CFG=1
M  V30 79 1 77 26
M  V30 END BOND
M  V30 END CTAB
M  END
>  <i_epik_Tot_Q>  (1) 
0

>  <i_epik_Tot_abs_Q>  (1) 
2

>  <i_i_glide_confnum>  (1) 
814

>  <i_i_glide_lignum>  (1) 
78

>  <i_i_glide_posenum>  (1) 
333

>  <i_i_glide_rotatable_bonds>  (1) 
13

>  <i_lp_mmshare_version>  (1) 
72125

>  <i_m_source_file_index>  (1) 
35

>  <i_f3d_flags>  (1) 
0

>  <num_sample>  (1) 
100

>  <b_lp_Chiralities_Consistent>  (1) 
1

>  <r_epik_Charging_Adjusted_Penalty>  (1) 
0.0058843035304018774

>  <r_epik_Ionization_Penalty>  (1) 
0.0059063327183222396

>  <r_epik_Ionization_Penalty_Charging>  (1) 
0.0010621566203982099

>  <r_epik_Ionization_Penalty_Neutral>  (1) 
0.0048441760979240295

>  <r_epik_State_Penalty>  (1) 
0.0048221469100036673

>  <r_glide_ring_energy>  (1) 
0

>  <r_i_docking_score>  (1) 
-7.4404708608343073

>  <r_i_glide_ecoul>  (1) 
-7.7472461653587903

>  <r_i_glide_eff_state_penalty>  (1) 
0.0048221469100036673

>  <r_i_glide_einternal>  (1) 
24.274281620172157

>  <r_i_glide_emodel>  (1) 
-47.488658704089588

>  <r_i_glide_emodel_strain>  (1) 
2.9954085217734132

>  <r_i_glide_energy>  (1) 
-55.847539050389059

>  <r_i_glide_erotb>  (1) 
0.88794746620747522

>  <r_i_glide_esite>  (1) 
-0.1617560887947255

>  <r_i_glide_evdw>  (1) 
-48.100292885030271

>  <r_i_glide_gscore>  (1) 
-7.4452930077443114

>  <r_i_glide_gscore_strain>  (1) 
0

>  <r_i_glide_hbond>  (1) 
-0.27146577649319936

>  <r_i_glide_ligand_efficiency>  (1) 
-0.21883737825983257

>  <r_i_glide_ligand_efficiency_ln>  (1) 
-1.6438087112968678

>  <r_i_glide_ligand_efficiency_sa>  (1) 
-0.70894815317117821

>  <r_i_glide_lipo>  (1) 
-3.0580122030707693

>  <r_i_glide_metal>  (1) 
-0

>  <r_i_glide_rewards>  (1) 
-1.2749048365377593

>  <r_lp_Energy>  (1) 
22.816407999999999

>  <r_lp_tautomer_probability>  (1) 
0.99999999999999989

>  <s_epik_cmdline>  (1) 
J2VwaWtfcHl0aG9uJywgJy1waHQnLCAnMS4wJywgJy1waCcsICc3LjQnLCAnLXRuJywgJzgnLCAnLW1hJywgJzUwMCcsICctaW1hZScsICc8aW5maWxlLm1hZT4nLCAnLW9tYWUnLCAnPG91dGZpbGUubWFlPic=

>  <s_epik_input>  (1) 
W0NIM11uKFtjSF0xKW5jKFtOSDJdKWMxW0NIMl1bQ0BASF0oQyg9TylbTkhdMilbQ0BIXShbQ0BASF0yMylbQ0BIXShbQ0gyXVtDSF0oW0NIM10pW0NIM10pW0NIMl1bQ0gyXVtDSDJdW0NASF0zW0NAQEhdKFtPSF0pW0NIMl1bQ0gyXVtDSDJdW0NIMl1bTkhdW0NIMl1DKD1PKVtPSF0=

>  <s_glide_docking_method>  (1) 
confgen

>  <s_i_glide_gridfile>  (1) 
gpcr_5ht2c_6bqh_protein_autoprepared_prepared

>  <s_lp_Force_Field>  (1) 
S-OPLS

>  <s_lp_Variant>  (1) 
DiffSBDD_34-1

>  <s_m_source_file>  (1) 
generated_GPCR_5HT2C_ligand_DiffSBDD_2026-06-23_prepared.sdf

>  <GenAI_Model>  (1) 
DiffSBDD

>  <Protein>  (1) 
GPCR_5HT2C

$$$$
DiffSBDD_66
     RDKit          3D

  0  0  0  0  0  0  0  0  0  0999 V3000
M  V30 BEGIN CTAB
M  V30 COUNTS 63 66 0 0 1
M  V30 BEGIN ATOM
M  V30 1 C 40.207949 29.711132 59.057903 0
M  V30 2 C 40.872887 28.264228 59.108265 0
M  V30 3 C 39.190718 29.805152 55.896736 0 CFG=1
M  V30 4 N 38.362470 33.315569 60.920988 0
M  V30 5 O 37.733640 39.838001 60.967709 0
M  V30 6 O 37.151126 30.031017 54.609174 0
M  V30 7 O 38.944297 31.058875 56.503204 0
M  V30 8 C 39.245127 38.137654 61.767773 0
M  V30 9 C 38.430634 28.664052 58.044083 0
M  V30 10 C 38.935165 27.284633 56.303786 0
M  V30 11 N 38.764247 29.658548 58.834945 0
M  V30 12 C 38.343465 25.333629 54.810068 0
M  V30 13 C 38.594592 35.786547 61.603620 0
M  V30 14 N 38.513611 32.002946 61.148953 0
M  V30 15 C 36.445135 23.737749 54.949039 0
M  V30 16 C 38.727918 28.585818 56.744053 0
M  V30 17 C 40.011622 26.479170 57.074471 0 CFG=1
M  V30 18 C 41.120199 27.410723 57.768665 0
M  V30 19 C 38.379299 24.818565 57.767733 0
M  V30 20 C 37.931126 31.418420 60.119931 0
M  V30 21 C 37.972981 29.948484 60.005377 0
M  V30 22 C 38.553944 29.926138 54.499477 0
M  V30 23 C 37.368757 32.358451 59.207053 0
M  V30 24 C 37.054902 37.544052 60.875162 0
M  V30 25 C 39.338230 25.627380 58.095971 0
M  V30 26 C 38.913124 34.315827 61.809687 0
M  V30 27 C 39.544207 36.780422 61.966154 0
M  V30 28 O 39.645299 33.921146 62.717616 0
M  V30 29 Cl 41.085912 36.339447 62.616155 0
M  V30 30 C 37.682629 33.559895 59.745578 0
M  V30 31 C 37.518586 24.210113 57.017245 0
M  V30 32 C 38.231470 26.768499 55.279284 0
M  V30 33 C 37.335623 36.187535 61.084326 0
M  V30 34 C 37.394489 24.398177 55.588337 0
M  V30 35 C 38.007480 38.518227 61.198217 0
M  V30 36 H 40.464581 30.296821 59.940986 0
M  V30 37 H 40.369210 27.666380 59.866768 0
M  V30 38 H 40.269632 29.718231 55.768071 0
M  V30 39 H 36.913560 39.954652 60.500293 0
M  V30 40 H 36.962016 30.709246 55.248543 0
M  V30 41 H 38.718334 30.877928 57.409291 0
M  V30 42 H 39.973524 38.890847 62.026041 0
M  V30 43 H 38.167693 27.781368 58.604655 0
M  V30 44 H 41.866484 28.426827 59.524001 0
M  V30 45 H 39.360706 24.947956 54.840776 0
M  V30 46 H 38.045199 25.351749 53.767748 0
M  V30 47 H 35.770198 23.073740 55.471690 0
M  V30 48 H 36.323940 23.849655 53.887070 0
M  V30 49 H 40.636501 30.137737 58.167557 0
M  V30 50 H 40.544908 25.835949 56.375778 0
M  V30 51 H 41.937779 26.734480 58.020102 0
M  V30 52 H 41.555720 28.066460 57.014853 0
M  V30 53 H 38.442374 29.491894 60.879880 0
M  V30 54 H 36.965070 29.543689 59.904342 0
M  V30 55 H 38.932145 30.810137 53.983339 0
M  V30 56 H 38.811509 29.074962 53.869852 0
M  V30 57 H 36.848804 32.172051 58.279424 0
M  V30 58 H 36.100293 37.837410 60.465318 0
M  V30 59 H 39.656160 25.737654 59.117603 0
M  V30 60 H 37.497552 34.547960 59.370024 0
M  V30 61 H 36.845103 23.507177 57.477586 0
M  V30 62 H 37.485657 27.375007 54.786427 0
M  V30 63 H 36.579425 35.455971 60.853676 0
M  V30 END ATOM
M  V30 BEGIN BOND
M  V30 1 1 2 1
M  V30 2 1 7 3
M  V30 3 1 11 1
M  V30 4 1 11 9
M  V30 5 1 14 4
M  V30 6 1 16 3
M  V30 7 2 16 9
M  V30 8 1 16 10
M  V30 9 1 17 10
M  V30 10 1 18 2
M  V30 11 1 18 17
M  V30 12 2 20 14
M  V30 13 1 21 11
M  V30 14 1 21 20
M  V30 15 1 22 3
M  V30 16 1 22 6
M  V30 17 1 23 20
M  V30 18 1 25 17
M  V30 19 2 25 19
M  V30 20 1 26 4
M  V30 21 1 26 13
M  V30 22 1 27 8
M  V30 23 2 27 13
M  V30 24 2 28 26
M  V30 25 1 29 27
M  V30 26 1 30 4
M  V30 27 2 30 23
M  V30 28 2 31 19
M  V30 29 2 32 10
M  V30 30 1 32 12
M  V30 31 1 33 13
M  V30 32 2 33 24
M  V30 33 1 34 12
M  V30 34 2 34 15
M  V30 35 1 34 31
M  V30 36 1 35 5
M  V30 37 2 35 8
M  V30 38 1 35 24
M  V30 39 1 36 1
M  V30 40 1 37 2
M  V30 41 1 3 38 CFG=3
M  V30 42 1 39 5
M  V30 43 1 40 6
M  V30 44 1 41 7
M  V30 45 1 42 8
M  V30 46 1 43 9
M  V30 47 1 44 2
M  V30 48 1 45 12
M  V30 49 1 46 12
M  V30 50 1 47 15
M  V30 51 1 48 15
M  V30 52 1 49 1
M  V30 53 1 17 50 CFG=3
M  V30 54 1 51 18
M  V30 55 1 52 18
M  V30 56 1 53 21
M  V30 57 1 54 21
M  V30 58 1 55 22
M  V30 59 1 56 22
M  V30 60 1 57 23
M  V30 61 1 58 24
M  V30 62 1 59 25
M  V30 63 1 60 30
M  V30 64 1 61 31
M  V30 65 1 62 32
M  V30 66 1 63 33
M  V30 END BOND
M  V30 END CTAB
M  END
>  <i_epik_Tot_Q>  (1) 
0

>  <i_epik_Tot_abs_Q>  (1) 
0

>  <i_i_glide_confnum>  (1) 
194

>  <i_i_glide_lignum>  (1) 
148

>  <i_i_glide_posenum>  (1) 
309

>  <i_i_glide_rotatable_bonds>  (1) 
9

>  <i_lp_mmshare_version>  (1) 
72125

>  <i_m_source_file_index>  (1) 
67

>  <i_f3d_flags>  (1) 
0

>  <num_sample>  (1) 
100

>  <b_lp_Chiralities_Consistent>  (1) 
1

>  <r_epik_Charging_Adjusted_Penalty>  (1) 
1.3281530491987052

>  <r_epik_Ionization_Penalty>  (1) 
1.3282883392360914

>  <r_epik_Ionization_Penalty_Charging>  (1) 
0

>  <r_epik_Ionization_Penalty_Neutral>  (1) 
1.3282883392360914

>  <r_epik_State_Penalty>  (1) 
1.3281530491987052

>  <r_glide_ring_energy>  (1) 
0

>  <r_i_docking_score>  (1) 
-7.4301636270040321

>  <r_i_glide_ecoul>  (1) 
-5.3910901896860963

>  <r_i_glide_eff_state_penalty>  (1) 
1.3281530491987052

>  <r_i_glide_einternal>  (1) 
22.580260941614814

>  <r_i_glide_emodel>  (1) 
-55.51303878668751

>  <r_i_glide_emodel_strain>  (1) 
1.1858586375587663

>  <r_i_glide_energy>  (1) 
-42.631764944011202

>  <r_i_glide_erotb>  (1) 
0.50097048188181392

>  <r_i_glide_esite>  (1) 
0

>  <r_i_glide_evdw>  (1) 
-37.240674754325106

>  <r_i_glide_gscore>  (1) 
-8.7583166762027371

>  <r_i_glide_gscore_strain>  (1) 
0

>  <r_i_glide_hbond>  (1) 
-0.32000000000000001

>  <r_i_glide_ligand_efficiency>  (1) 
-0.21229038934297234

>  <r_i_glide_ligand_efficiency_ln>  (1) 
-1.6310858197243159

>  <r_i_glide_ligand_efficiency_sa>  (1) 
-0.69441594055661582

>  <r_i_glide_lipo>  (1) 
-4.9854919685590922

>  <r_i_glide_metal>  (1) 
-0

>  <r_i_glide_rewards>  (1) 
-1.2830979233562902

>  <r_lp_Energy>  (1) 
66.945476999999997

>  <r_lp_tautomer_probability>  (1) 
0.99999944244275329

>  <s_epik_cmdline>  (1) 
J2VwaWtfcHl0aG9uJywgJy1waHQnLCAnMS4wJywgJy1waCcsICc3LjQnLCAnLXRuJywgJzgnLCAnLW1hJywgJzUwMCcsICctaW1hZScsICc8aW5maWxlLm1hZT4nLCAnLW9tYWUnLCAnPG91dGZpbGUubWFlPic=

>  <s_epik_input>  (1) 
W0NIXTEvW0NIMl1DKD1bQ0gyXSlbQ0hdPUM9W0NIXVtDQEBIXShDPTFcMilbQ0gyXS9bQ0hdPVtDSF1cTihbQ0gyXVtDQEBIXTJbQ0BASF0oW09IXSlbQ0gyXVtPSF0pW0NIMl1jKFtjSF1bY0hdMylubjNDKD1PKWM0YyhDbClbY0hdYyhbT0hdKVtjSF1bY0hdNA==

>  <s_glide_docking_method>  (1) 
confgen

>  <s_i_glide_gridfile>  (1) 
gpcr_5ht2c_6bqh_protein_autoprepared_prepared

>  <s_lp_Force_Field>  (1) 
S-OPLS

>  <s_lp_Variant>  (1) 
DiffSBDD_66-4

>  <s_m_source_file>  (1) 
generated_GPCR_5HT2C_ligand_DiffSBDD_2026-06-23_prepared.sdf

>  <GenAI_Model>  (1) 
DiffSBDD

>  <Protein>  (1) 
GPCR_5HT2C

$$$$
DiffSBDD_95
     RDKit          3D

  0  0  0  0  0  0  0  0  0  0999 V3000
M  V30 BEGIN CTAB
M  V30 COUNTS 57 59 0 0 1
M  V30 BEGIN ATOM
M  V30 1 O 36.147949 33.937536 59.670520 0
M  V30 2 C 38.032392 36.027606 61.784563 0
M  V30 3 C 39.114923 34.980609 61.824627 0
M  V30 4 C 37.292922 24.139649 57.016010 0
M  V30 5 C 38.063863 29.369830 55.496548 0
M  V30 6 O 38.045159 31.619515 57.134671 0
M  V30 7 O 39.139212 32.243728 60.088494 0 CHG=-1
M  V30 8 C 38.479724 26.028601 55.313198 0
M  V30 9 O 37.855546 31.622856 62.177010 0
M  V30 10 C 39.686868 27.579264 58.604215 0
M  V30 11 C 38.083161 30.440945 57.907578 0 CFG=2
M  V30 12 C 38.031570 34.907103 60.767683 0
M  V30 13 C 39.575290 28.459848 57.382491 0 CFG=2
M  V30 14 C 37.526649 25.124819 54.809728 0
M  V30 15 C 39.375027 29.649503 54.733308 0
M  V30 16 C 39.256477 29.841000 53.229144 0
M  V30 17 C 39.722277 30.940294 52.617032 0
M  V30 18 C 37.001601 33.786246 60.788070 0 CFG=2
M  V30 19 C 38.256529 29.158440 57.032548 0 CFG=2
M  V30 20 C 38.591920 28.713635 52.459840 0
M  V30 21 C 36.804699 30.393594 58.722155 0
M  V30 22 C 36.605005 31.025074 59.897674 0
M  V30 23 C 36.936048 24.177923 55.659939 0
M  V30 24 P 37.840602 32.087498 60.779692 0
M  V30 25 C 38.231714 25.052606 57.525023 0
M  V30 26 C 38.833802 26.004825 56.678224 0
M  V30 27 C 39.842520 26.974779 57.220870 0 CFG=2
M  V30 28 H 36.420724 33.321436 59.002638 0
M  V30 29 H 38.303535 37.019575 61.427481 0
M  V30 30 H 37.277424 36.007578 62.566673 0
M  V30 31 H 39.084383 34.246286 62.625233 0
M  V30 32 H 40.113035 35.274895 61.507643 0
M  V30 33 H 36.847252 23.409755 57.670628 0
M  V30 34 H 37.602605 28.476865 55.087126 0
M  V30 35 H 37.331217 30.149597 55.288884 0
M  V30 36 H 37.118186 31.776228 56.942600 0
M  V30 37 H 38.937705 26.746116 54.652284 0
M  V30 38 H 40.582084 27.700673 59.211026 0
M  V30 39 H 38.771925 27.381276 59.158770 0
M  V30 40 H 38.939442 30.493678 58.572433 0
M  V30 41 H 38.381482 35.145454 59.768052 0
M  V30 42 H 40.441566 29.102227 57.233745 0
M  V30 43 H 37.251957 25.156804 53.766465 0
M  V30 44 H 39.871937 30.516535 55.171527 0
M  V30 45 H 40.045111 28.807210 54.872201 0
M  V30 46 H 39.645266 31.061683 51.546733 0
M  V30 47 H 40.187904 31.732526 53.180188 0
M  V30 48 H 36.399676 33.884500 61.692942 0
M  V30 49 H 37.474328 28.457184 57.328151 0
M  V30 50 H 37.562670 28.568434 52.785435 0
M  V30 51 H 38.570387 28.931994 51.391666 0
M  V30 52 H 39.138178 27.780152 52.597368 0
M  V30 53 H 36.000241 29.803782 58.307303 0
M  V30 54 H 35.644591 30.904912 60.372406 0
M  V30 55 H 36.209921 23.479487 55.271624 0
M  V30 56 H 38.493682 25.021600 58.567885 0
M  V30 57 H 40.845728 26.676819 56.921785 0
M  V30 END ATOM
M  V30 BEGIN BOND
M  V30 1 1 3 2
M  V30 2 1 11 6
M  V30 3 1 12 2
M  V30 4 1 12 3
M  V30 5 1 13 10
M  V30 6 2 14 8
M  V30 7 1 15 5
M  V30 8 1 16 15
M  V30 9 2 17 16
M  V30 10 1 18 1
M  V30 11 1 18 12
M  V30 12 1 19 5
M  V30 13 1 19 11
M  V30 14 1 19 13
M  V30 15 1 20 16
M  V30 16 1 21 11
M  V30 17 2 22 21
M  V30 18 2 23 4
M  V30 19 1 23 14
M  V30 20 1 24 7
M  V30 21 2 24 9
M  V30 22 1 24 18
M  V30 23 1 24 22
M  V30 24 1 25 4
M  V30 25 1 26 8
M  V30 26 2 26 25
M  V30 27 1 27 10
M  V30 28 1 27 13
M  V30 29 1 27 26
M  V30 30 1 28 1
M  V30 31 1 29 2
M  V30 32 1 30 2
M  V30 33 1 31 3
M  V30 34 1 32 3
M  V30 35 1 33 4
M  V30 36 1 34 5
M  V30 37 1 35 5
M  V30 38 1 36 6
M  V30 39 1 37 8
M  V30 40 1 38 10
M  V30 41 1 39 10
M  V30 42 1 11 40 CFG=1
M  V30 43 1 41 12
M  V30 44 1 13 42 CFG=1
M  V30 45 1 43 14
M  V30 46 1 44 15
M  V30 47 1 45 15
M  V30 48 1 46 17
M  V30 49 1 47 17
M  V30 50 1 18 48 CFG=1
M  V30 51 1 19 49 CFG=1
M  V30 52 1 50 20
M  V30 53 1 51 20
M  V30 54 1 52 20
M  V30 55 1 53 21
M  V30 56 1 54 22
M  V30 57 1 55 23
M  V30 58 1 56 25
M  V30 59 1 27 57 CFG=1
M  V30 END BOND
M  V30 END CTAB
M  END
>  <i_epik_Tot_Q>  (1) 
-1

>  <i_epik_Tot_abs_Q>  (1) 
1

>  <i_i_glide_confnum>  (1) 
1184

>  <i_i_glide_lignum>  (1) 
227

>  <i_i_glide_posenum>  (1) 
379

>  <i_i_glide_rotatable_bonds>  (1) 
12

>  <i_lp_mmshare_version>  (1) 
72125

>  <i_m_source_file_index>  (1) 
96

>  <i_f3d_flags>  (1) 
0

>  <num_sample>  (1) 
100

>  <b_lp_Chiralities_Consistent>  (1) 
1

>  <r_epik_Charging_Adjusted_Penalty>  (1) 
1.080755722854454e-05

>  <r_epik_Ionization_Penalty>  (1) 
1.1075885964492435e-05

>  <r_epik_Ionization_Penalty_Charging>  (1) 
1.080755722854454e-05

>  <r_epik_Ionization_Penalty_Neutral>  (1) 
2.6832873594789518e-07

>  <r_epik_State_Penalty>  (1) 
-0

>  <r_glide_ring_energy>  (1) 
0

>  <r_i_docking_score>  (1) 
-7.4272733656049787

>  <r_i_glide_ecoul>  (1) 
-6.8724948110577415

>  <r_i_glide_eff_state_penalty>  (1) 
-0

>  <r_i_glide_einternal>  (1) 
10.432034186999379

>  <r_i_glide_emodel>  (1) 
-58.926330758197111

>  <r_i_glide_emodel_strain>  (1) 
2.4056700858652498

>  <r_i_glide_energy>  (1) 
-42.553792576260179

>  <r_i_glide_erotb>  (1) 
1.1567431559220434

>  <r_i_glide_esite>  (1) 
0

>  <r_i_glide_evdw>  (1) 
-35.681297765202437

>  <r_i_glide_gscore>  (1) 
-7.4272733656049787

>  <r_i_glide_gscore_strain>  (1) 
0

>  <r_i_glide_hbond>  (1) 
-0.25323777094110284

>  <r_i_glide_ligand_efficiency>  (1) 
-0.27508419872611034

>  <r_i_glide_ligand_efficiency_ln>  (1) 
-1.7289467913415626

>  <r_i_glide_ligand_efficiency_sa>  (1) 
-0.82525259617833113

>  <r_i_glide_lipo>  (1) 
-4.233722073331359

>  <r_i_glide_metal>  (1) 
-0

>  <r_i_glide_rewards>  (1) 
-1.2821175673357783

>  <r_lp_Energy>  (1) 
33.993966

>  <r_lp_tautomer_probability>  (1) 
1

>  <s_epik_cmdline>  (1) 
J2VwaWtfcHl0aG9uJywgJy1waHQnLCAnMS4wJywgJy1waCcsICc3LjQnLCAnLXRuJywgJzgnLCAnLW1hJywgJzUwMCcsICctaW1hZScsICc8aW5maWxlLm1hZT4nLCAnLW9tYWUnLCAnPG91dGZpbGUubWFlPic=

>  <s_epik_input>  (1) 
W0NIMl0xW0NIMl1bQ0hdMVtDQEBIXShbT0hdKVtQQF0oPU8pKFtPSF0pL1tDSF09W0NIXVxbQ0BIXShbT0hdKVtDQEBIXShbQ0gyXVtDSDJdQyg9W0NIMl0pW0NIM10pW0NASF0yW0NIMl1bQ0BIXTJjM1tjSF1bY0hdW2NIXVtjSF1bY0hdMw==

>  <s_glide_docking_method>  (1) 
confgen

>  <s_i_glide_gridfile>  (1) 
gpcr_5ht2c_6bqh_protein_autoprepared_prepared

>  <s_lp_Force_Field>  (1) 
S-OPLS

>  <s_lp_Variant>  (1) 
DiffSBDD_95-2

>  <s_m_source_file>  (1) 
generated_GPCR_5HT2C_ligand_DiffSBDD_2026-06-23_prepared.sdf

>  <GenAI_Model>  (1) 
DiffSBDD

>  <Protein>  (1) 
GPCR_5HT2C

$$$$
DiffSBDD_47
     RDKit          3D

  0  0  0  0  0  0  0  0  0  0999 V3000
M  V30 BEGIN CTAB
M  V30 COUNTS 51 52 0 0 1
M  V30 BEGIN ATOM
M  V30 1 O 35.737024 31.670314 60.813413 0
M  V30 2 C 38.015335 30.908086 60.484007 0
M  V30 3 C 40.297420 28.166518 59.285811 0
M  V30 4 C 39.245134 28.590842 51.174007 0
M  V30 5 C 39.267054 30.380414 53.352043 0
M  V30 6 C 38.731581 31.443868 61.671427 0
M  V30 7 C 38.457599 28.322634 52.313648 0
M  V30 8 C 40.554052 29.733249 61.255800 0
M  V30 9 C 39.479496 27.034129 58.638492 0
M  V30 10 O 38.472073 32.537830 62.167760 0
M  V30 11 C 37.592488 28.962776 54.616449 0 CFG=2
M  V30 12 C 38.445138 28.480215 55.795021 0
M  V30 13 O 38.839834 29.262132 56.659673 0
M  V30 14 C 38.785568 26.979589 55.846162 0 CFG=1
M  V30 15 C 39.569686 28.885479 60.439697 0 CFG=1
M  V30 16 C 39.828320 30.581661 62.299325 0
M  V30 17 C 40.031316 29.761623 51.120956 0
M  V30 18 C 38.407412 29.737753 59.933961 0
M  V30 19 S 40.137309 26.585216 57.007400 0
M  V30 20 C 38.462528 29.223713 53.401688 0
M  V30 21 C 40.045137 30.647779 52.212356 0
M  V30 22 C 40.849323 30.077775 49.888352 0
M  V30 23 C 37.550939 26.099741 56.113088 0
M  V30 24 O 36.877923 30.137753 54.967760 0
M  V30 25 C 36.858792 31.742921 59.951986 0
M  V30 26 H 35.024646 32.133190 60.395851 0
M  V30 27 H 40.585424 28.903677 58.535513 0
M  V30 28 H 41.234280 27.739194 59.646553 0
M  V30 29 H 39.233196 27.907415 50.336953 0
M  V30 30 H 39.273532 31.071530 54.183092 0
M  V30 31 H 37.843282 27.434094 52.347666 0
M  V30 32 H 41.278074 29.084656 61.750507 0
M  V30 33 H 41.114418 30.389995 60.588945 0
M  V30 34 H 39.518210 26.148098 59.268190 0
M  V30 35 H 38.429281 27.299237 58.548294 0
M  V30 36 H 36.861577 28.194591 54.366319 0
M  V30 37 H 39.167995 26.719379 54.858948 0
M  V30 38 H 39.144146 28.130282 61.101202 0
M  V30 39 H 39.366105 29.937607 63.047631 0
M  V30 40 H 40.535500 31.223181 62.825252 0
M  V30 41 H 37.876035 29.361279 59.074075 0
M  V30 42 H 40.646613 31.541763 52.169927 0
M  V30 43 H 40.550980 31.049463 49.493736 0
M  V30 44 H 41.907882 30.137762 50.140879 0
M  V30 45 H 40.707115 29.337755 49.100838 0
M  V30 46 H 36.845150 26.138244 55.284143 0
M  V30 47 H 37.839977 25.055330 56.233456 0
M  V30 48 H 37.016346 26.398668 57.014688 0
M  V30 49 H 36.449275 30.039494 55.807776 0
M  V30 50 H 36.562604 31.378366 58.967760 0
M  V30 51 H 37.163037 32.782528 59.822611 0
M  V30 END ATOM
M  V30 BEGIN BOND
M  V30 1 1 6 2
M  V30 2 2 7 4
M  V30 3 1 9 3
M  V30 4 2 10 6
M  V30 5 1 12 11
M  V30 6 2 13 12
M  V30 7 1 14 12
M  V30 8 1 15 3
M  V30 9 1 15 8
M  V30 10 1 16 6
M  V30 11 1 16 8
M  V30 12 1 17 4
M  V30 13 2 18 2
M  V30 14 1 18 15
M  V30 15 1 19 9
M  V30 16 1 19 14
M  V30 17 2 20 5
M  V30 18 1 20 7
M  V30 19 1 20 11
M  V30 20 1 21 5
M  V30 21 2 21 17
M  V30 22 1 22 17
M  V30 23 1 23 14
M  V30 24 1 24 11
M  V30 25 1 25 1
M  V30 26 1 25 2
M  V30 27 1 26 1
M  V30 28 1 27 3
M  V30 29 1 28 3
M  V30 30 1 29 4
M  V30 31 1 30 5
M  V30 32 1 31 7
M  V30 33 1 32 8
M  V30 34 1 33 8
M  V30 35 1 34 9
M  V30 36 1 35 9
M  V30 37 1 11 36 CFG=3
M  V30 38 1 14 37 CFG=3
M  V30 39 1 15 38 CFG=1
M  V30 40 1 39 16
M  V30 41 1 40 16
M  V30 42 1 41 18
M  V30 43 1 42 21
M  V30 44 1 43 22
M  V30 45 1 44 22
M  V30 46 1 45 22
M  V30 47 1 46 23
M  V30 48 1 47 23
M  V30 49 1 48 23
M  V30 50 1 49 24
M  V30 51 1 50 25
M  V30 52 1 51 25
M  V30 END BOND
M  V30 END CTAB
M  END
>  <i_epik_Tot_Q>  (1) 
0

>  <i_epik_Tot_abs_Q>  (1) 
0

>  <i_i_glide_confnum>  (1) 
474

>  <i_i_glide_lignum>  (1) 
99

>  <i_i_glide_posenum>  (1) 
316

>  <i_i_glide_rotatable_bonds>  (1) 
10

>  <i_lp_mmshare_version>  (1) 
72125

>  <i_m_source_file_index>  (1) 
48

>  <i_f3d_flags>  (1) 
0

>  <num_sample>  (1) 
100

>  <b_lp_Chiralities_Consistent>  (1) 
1

>  <r_epik_Charging_Adjusted_Penalty>  (1) 
0

>  <r_epik_Ionization_Penalty>  (1) 
1.6598549338111207e-05

>  <r_epik_Ionization_Penalty_Charging>  (1) 
0

>  <r_epik_Ionization_Penalty_Neutral>  (1) 
1.6598549338111207e-05

>  <r_epik_State_Penalty>  (1) 
-0

>  <r_glide_ring_energy>  (1) 
0

>  <r_i_docking_score>  (1) 
-7.4101705899194039

>  <r_i_glide_ecoul>  (1) 
-3.9976255986183977

>  <r_i_glide_eff_state_penalty>  (1) 
-0

>  <r_i_glide_einternal>  (1) 
7.5425437650222094

>  <r_i_glide_emodel>  (1) 
-67.773265042213012

>  <r_i_glide_emodel_strain>  (1) 
0.16574340524051934

>  <r_i_glide_energy>  (1) 
-47.721982801453365

>  <r_i_glide_erotb>  (1) 
1.1691057722696085

>  <r_i_glide_esite>  (1) 
0

>  <r_i_glide_evdw>  (1) 
-43.724357202834966

>  <r_i_glide_gscore>  (1) 
-7.4101705899194039

>  <r_i_glide_gscore_strain>  (1) 
0

>  <r_i_glide_hbond>  (1) 
-0.046525005666598139

>  <r_i_glide_ligand_efficiency>  (1) 
-0.29640682359677617

>  <r_i_glide_ligand_efficiency_ln>  (1) 
-1.7564324947039416

>  <r_i_glide_ligand_efficiency_sa>  (1) 
-0.86669880992430548

>  <r_i_glide_lipo>  (1) 
-3.9061375828238103

>  <r_i_glide_metal>  (1) 
-0

>  <r_i_glide_rewards>  (1) 
-1.8407520737640954

>  <r_lp_Energy>  (1) 
21.981998999999998

>  <r_lp_tautomer_probability>  (1) 
1

>  <s_epik_cmdline>  (1) 
J2VwaWtfcHl0aG9uJywgJy1waHQnLCAnMS4wJywgJy1waCcsICc3LjQnLCAnLXRuJywgJzgnLCAnLW1hJywgJzUwMCcsICctaW1hZScsICc8aW5maWxlLm1hZT4nLCAnLW9tYWUnLCAnPG91dGZpbGUubWFlPic=

>  <s_epik_input>  (1) 
W09IXVtDSDJdQzE9W0NIXVtDQEhdKFtDSDJdW0NIMl1DMT1PKVtDSDJdW0NIMl1TXEMoW0NIM10pPUMoW09IXSlcW0NAQEhdKFtPSF0pYyhbY0hdW2NIXTIpW2NIXVtjSF1jMltDSDNd

>  <s_glide_docking_method>  (1) 
confgen

>  <s_i_glide_gridfile>  (1) 
gpcr_5ht2c_6bqh_protein_autoprepared_prepared

>  <s_lp_Force_Field>  (1) 
S-OPLS

>  <s_lp_Variant>  (1) 
DiffSBDD_47-1

>  <s_m_source_file>  (1) 
generated_GPCR_5HT2C_ligand_DiffSBDD_2026-06-23_prepared.sdf

>  <GenAI_Model>  (1) 
DiffSBDD

>  <Protein>  (1) 
GPCR_5HT2C

$$$$
DiffSBDD_3
     RDKit          3D

  0  0  0  0  0  0  0  0  0  0999 V3000
M  V30 BEGIN CTAB
M  V30 COUNTS 72 76 0 0 1
M  V30 BEGIN ATOM
M  V30 1 C 38.826000 39.320798 60.913296 0
M  V30 2 C 41.579326 32.853326 63.987644 0
M  V30 3 N 43.920252 31.704240 66.502405 0
M  V30 4 C 39.805934 35.051008 62.669617 0
M  V30 5 N 38.882555 35.633227 61.801818 0
M  V30 6 C 39.171032 33.470407 61.226329 0
M  V30 7 C 39.135622 29.445710 51.488822 0 CFG=2
M  V30 8 C 38.303221 36.990276 61.881737 0 CFG=1
M  V30 9 C 43.345799 32.666430 66.214471 0
M  V30 10 C 40.373495 35.724070 63.692586 0
M  V30 11 O 38.208082 28.795894 55.329235 0
M  V30 12 C 39.923784 27.574406 58.060741 0
M  V30 13 C 38.514139 34.615686 60.925081 0
M  V30 14 C 38.851627 29.444106 59.476143 0
M  V30 15 C 39.414202 30.844894 54.965630 0 CFG=1
M  V30 16 C 37.337109 37.129660 63.070742 0
M  V30 17 C 38.435203 31.400446 53.954561 0
M  V30 18 C 39.337779 38.137617 61.767794 0
M  V30 19 O 36.518543 30.041500 59.019527 0
M  V30 20 O 38.445122 28.218034 51.234595 0
M  V30 21 N 39.542671 29.370907 52.868256 0
M  V30 22 C 37.967067 31.851887 59.666474 0
M  V30 23 C 39.691788 28.419434 50.560306 0 CFG=1
M  V30 24 C 41.853421 34.004199 64.847467 0
M  V30 25 O 39.744656 29.328545 60.316713 0
M  V30 26 N 39.993516 33.735092 62.312844 0
M  V30 27 C 38.934242 28.754962 58.100709 0 CFG=1
M  V30 28 N 39.282866 29.737471 57.078738 0
M  V30 29 C 38.908284 29.698176 55.793838 0
M  V30 30 C 41.318609 35.239855 64.689939 0
M  V30 31 C 37.645557 30.346457 59.813093 0 CFG=2
M  V30 32 C 40.134613 29.862011 50.433128 0
M  V30 33 C 37.498394 34.873632 59.812950 0
M  V30 34 N 39.038546 32.239535 60.575795 0
M  V30 35 N 42.722801 33.823443 65.914388 0
M  V30 36 C 40.780931 32.774787 62.915413 0
M  V30 37 C 39.670093 30.687664 53.467000 0 CFG=2
M  V30 38 H 39.622669 40.039718 60.719829 0
M  V30 39 H 38.445136 38.978007 59.949338 0
M  V30 40 H 37.991488 39.850543 61.367760 0
M  V30 41 H 42.086107 31.937229 64.249068 0
M  V30 42 H 37.656595 37.120413 61.022934 0
M  V30 43 H 40.084529 36.751112 63.804380 0
M  V30 44 H 39.679082 26.828645 58.818057 0
M  V30 45 H 39.902066 27.073405 57.092209 0
M  V30 46 H 40.949131 27.901518 58.238323 0
M  V30 47 H 40.033481 31.574470 55.486218 0
M  V30 48 H 36.825980 38.092168 63.046834 0
M  V30 49 H 36.567418 36.357860 63.034446 0
M  V30 50 H 37.843093 37.041896 64.031407 0
M  V30 51 H 37.476410 30.897477 53.854157 0
M  V30 52 H 38.392852 32.482751 53.853028 0
M  V30 53 H 39.645147 38.510005 62.742098 0
M  V30 54 H 40.269016 37.743734 61.367762 0
M  V30 55 H 36.197264 29.181339 59.239157 0
M  V30 56 H 38.867002 28.829229 53.397644 0
M  V30 57 H 38.245148 32.092469 58.638914 0
M  V30 58 H 37.055847 32.397279 59.904683 0
M  V30 59 H 40.445153 27.737731 50.926843 0
M  V30 60 H 37.953013 28.339993 57.867318 0
M  V30 61 H 39.843758 30.521452 57.374635 0
M  V30 62 H 41.629561 35.976880 65.417541 0
M  V30 63 H 37.372095 30.153374 60.850175 0
M  V30 64 H 39.751189 30.426148 49.585980 0
M  V30 65 H 41.145362 30.116295 50.747407 0
M  V30 66 H 37.472037 35.903809 59.469668 0
M  V30 67 H 37.751379 34.309992 58.917316 0
M  V30 68 H 36.495191 34.593094 60.133853 0
M  V30 69 H 39.605773 31.474838 60.917301 0
M  V30 70 H 42.884980 34.624266 66.506889 0
M  V30 71 H 40.706698 31.825773 62.408205 0
M  V30 72 H 40.445404 31.337667 53.069043 0
M  V30 END ATOM
M  V30 BEGIN BOND
M  V30 1 1 5 4
M  V30 2 1 8 5
M  V30 3 3 9 3
M  V30 4 2 10 4
M  V30 5 1 13 5
M  V30 6 2 13 6
M  V30 7 1 16 8
M  V30 8 1 17 15
M  V30 9 1 18 1
M  V30 10 1 18 8
M  V30 11 1 20 7
M  V30 12 1 7 21 CFG=1
M  V30 13 1 23 7
M  V30 14 1 23 20
M  V30 15 1 24 2
M  V30 16 2 25 14
M  V30 17 1 26 4
M  V30 18 1 26 6
M  V30 19 1 27 12
M  V30 20 1 27 14
M  V30 21 1 28 27
M  V30 22 2 29 11
M  V30 23 1 29 15
M  V30 24 1 29 28
M  V30 25 1 30 10
M  V30 26 2 30 24
M  V30 27 1 31 14
M  V30 28 1 31 19
M  V30 29 1 31 22
M  V30 30 1 32 7
M  V30 31 1 32 23
M  V30 32 1 33 13
M  V30 33 1 34 6
M  V30 34 1 34 22
M  V30 35 1 35 9
M  V30 36 1 35 24
M  V30 37 2 36 2
M  V30 38 1 36 26
M  V30 39 1 37 15
M  V30 40 1 37 17
M  V30 41 1 37 21
M  V30 42 1 38 1
M  V30 43 1 39 1
M  V30 44 1 40 1
M  V30 45 1 41 2
M  V30 46 1 8 42 CFG=3
M  V30 47 1 43 10
M  V30 48 1 44 12
M  V30 49 1 45 12
M  V30 50 1 46 12
M  V30 51 1 15 47 CFG=1
M  V30 52 1 48 16
M  V30 53 1 49 16
M  V30 54 1 50 16
M  V30 55 1 51 17
M  V30 56 1 52 17
M  V30 57 1 53 18
M  V30 58 1 54 18
M  V30 59 1 55 19
M  V30 60 1 56 21
M  V30 61 1 57 22
M  V30 62 1 58 22
M  V30 63 1 23 59 CFG=1
M  V30 64 1 27 60 CFG=3
M  V30 65 1 61 28
M  V30 66 1 62 30
M  V30 67 1 31 63 CFG=1
M  V30 68 1 64 32
M  V30 69 1 65 32
M  V30 70 1 66 33
M  V30 71 1 67 33
M  V30 72 1 68 33
M  V30 73 1 69 34
M  V30 74 1 70 35
M  V30 75 1 71 36
M  V30 76 1 37 72 CFG=3
M  V30 END BOND
M  V30 END CTAB
M  END
>  <i_epik_Tot_Q>  (1) 
0

>  <i_epik_Tot_abs_Q>  (1) 
0

>  <i_i_glide_confnum>  (1) 
2142

>  <i_i_glide_lignum>  (1) 
5

>  <i_i_glide_posenum>  (1) 
151

>  <i_i_glide_rotatable_bonds>  (1) 
14

>  <i_lp_mmshare_version>  (1) 
72125

>  <i_m_source_file_index>  (1) 
4

>  <i_f3d_flags>  (1) 
0

>  <num_sample>  (1) 
100

>  <b_lp_Chiralities_Consistent>  (1) 
1

>  <r_epik_Charging_Adjusted_Penalty>  (1) 
1.1379790187908705e-13

>  <r_epik_Ionization_Penalty>  (1) 
1.2816857149940913e-05

>  <r_epik_Ionization_Penalty_Charging>  (1) 
1.1379790187908705e-13

>  <r_epik_Ionization_Penalty_Neutral>  (1) 
1.2816857036143011e-05

>  <r_epik_State_Penalty>  (1) 
-0

>  <r_glide_ring_energy>  (1) 
0

>  <r_i_docking_score>  (1) 
-7.4097307703681423

>  <r_i_glide_ecoul>  (1) 
1.2780116316396752

>  <r_i_glide_eff_state_penalty>  (1) 
-0

>  <r_i_glide_einternal>  (1) 
26.158010813580439

>  <r_i_glide_emodel>  (1) 
-63.431859535264792

>  <r_i_glide_emodel_strain>  (1) 
0.79058311303617756

>  <r_i_glide_energy>  (1) 
-52.480975237188325

>  <r_i_glide_erotb>  (1) 
0.94635060674965676

>  <r_i_glide_esite>  (1) 
0

>  <r_i_glide_evdw>  (1) 
-53.758986868828003

>  <r_i_glide_gscore>  (1) 
-7.4097307703681423

>  <r_i_glide_gscore_strain>  (1) 
0

>  <r_i_glide_hbond>  (1) 
0

>  <r_i_glide_ligand_efficiency>  (1) 
-0.20026299379373358

>  <r_i_glide_ligand_efficiency_ln>  (1) 
-1.6069968953576279

>  <r_i_glide_ligand_efficiency_sa>  (1) 
-0.66732072399551701

>  <r_i_glide_lipo>  (1) 
-3.8982247566108139

>  <r_i_glide_metal>  (1) 
-0

>  <r_i_glide_rewards>  (1) 
-1.9616090218115352

>  <r_lp_Energy>  (1) 
56.905592999999996

>  <r_lp_tautomer_probability>  (1) 
1

>  <s_epik_Chemistry_Notes>  (1) 
This compound has an imine and may undergo hydrolysis.

>  <s_epik_cmdline>  (1) 
J2VwaWtfcHl0aG9uJywgJy1waHQnLCAnMS4wJywgJy1waCcsICc3LjQnLCAnLXRuJywgJzgnLCAnLW1hJywgJzUwMCcsICctaW1hZScsICc8aW5maWxlLm1hZT4nLCAnLW9tYWUnLCAnPG91dGZpbGUubWFlPic=

>  <s_epik_input>  (1) 
TiNDW05IXUMoPVtDSF1bQ0hdMSlbQ0hdPVtDSF1OKEM9MTIpQyg9QyhbQ0gzXSlOMltDQEBIXShbQ0gzXSlbQ0gyXVtDSDNdKVtOSF1bQ0gyXVtDQEBIXShbT0hdKUMoPU8pW0NASF0oW0NIM10pW05IXUMoPU8pW0NAQEhdM1tDSDJdW0NAQEhdM1tOSF1DNDVbQ0hdKE80KVtDSDJdNQ==

>  <s_glide_docking_method>  (1) 
confgen

>  <s_i_glide_gridfile>  (1) 
gpcr_5ht2c_6bqh_protein_autoprepared_prepared

>  <s_lp_Force_Field>  (1) 
S-OPLS

>  <s_lp_Variant>  (1) 
DiffSBDD_3-1

>  <s_m_source_file>  (1) 
generated_GPCR_5HT2C_ligand_DiffSBDD_2026-06-23_prepared.sdf

>  <GenAI_Model>  (1) 
DiffSBDD

>  <Protein>  (1) 
GPCR_5HT2C

$$$$
DiffSBDD_97
     RDKit          3D

  0  0  0  0  0  0  0  0  0  0999 V3000
M  V30 BEGIN CTAB
M  V30 COUNTS 54 56 0 0 1
M  V30 BEGIN ATOM
M  V30 1 C 38.321242 27.692000 52.450660 0
M  V30 2 C 38.950325 29.340673 57.536263 0
M  V30 3 N 36.047555 35.453375 59.367679 0 CHG=1
M  V30 4 C 39.078545 28.525390 51.758861 0
M  V30 5 C 39.314719 29.634328 52.505736 0
M  V30 6 S 38.803475 30.591257 55.018161 0
M  V30 7 C 36.765044 31.656595 59.676158 0
M  V30 8 C 39.623642 28.290570 50.377006 0
M  V30 9 C 40.960410 30.433732 50.768867 0
M  V30 10 C 38.617092 33.597459 61.506980 0
M  V30 11 C 38.598195 30.615888 58.316391 0
M  V30 12 C 40.190167 30.792432 52.074047 0
M  V30 13 C 38.692515 29.501128 53.665582 0
M  V30 14 C 38.512578 33.517970 59.975716 0
M  V30 15 S 38.500835 27.570876 55.429037 0
M  V30 16 C 38.291879 29.249170 56.155025 0 CFG=1
M  V30 17 C 36.781765 36.441512 60.184671 0
M  V30 18 N 37.147302 30.750720 58.567805 0 CHG=1
M  V30 19 C 37.117385 33.145414 59.406892 0 CFG=2
M  V30 20 C 37.869205 28.197674 53.867237 0 CFG=2
M  V30 21 C 40.099681 29.627858 49.775254 0
M  V30 22 C 35.980155 34.074200 59.903387 0
M  V30 23 H 37.996202 26.733227 52.080025 0
M  V30 24 H 40.033311 29.275441 57.423032 0
M  V30 25 H 38.662445 28.471959 58.129458 0
M  V30 26 H 36.396818 35.450330 58.414409 0
M  V30 27 H 35.685535 31.541583 59.784660 0
M  V30 28 H 37.190161 31.297086 60.612936 0
M  V30 29 H 40.445135 27.581123 50.435567 0
M  V30 30 H 38.845375 27.842884 49.767723 0
M  V30 31 H 41.306841 31.337601 50.277973 0
M  V30 32 H 41.859594 29.852785 50.967661 0
M  V30 33 H 39.651680 33.767448 61.807477 0
M  V30 34 H 38.289446 32.680416 61.995785 0
M  V30 35 H 38.027529 34.421738 61.904302 0
M  V30 36 H 39.123342 30.576821 59.271542 0
M  V30 37 H 38.952336 31.498745 57.783624 0
M  V30 38 H 40.845044 31.076585 52.891332 0
M  V30 39 H 39.563574 31.662500 51.889696 0
M  V30 40 H 39.264435 32.814831 59.627801 0
M  V30 41 H 38.836722 34.464290 59.553482 0
M  V30 42 H 37.216566 29.369086 56.271851 0
M  V30 43 H 36.604036 37.440574 59.787194 0
M  V30 44 H 37.855868 36.274280 60.173284 0
M  V30 45 H 36.446568 36.431286 61.221562 0
M  V30 46 H 36.659487 31.096869 57.737033 0
M  V30 47 H 37.159868 33.270564 58.321675 0
M  V30 48 H 36.803511 28.409997 53.903062 0
M  V30 49 H 39.245146 30.248134 49.512490 0
M  V30 50 H 40.653731 29.439862 48.856585 0
M  V30 51 H 35.888647 34.074361 60.990021 0
M  V30 52 H 35.033109 33.681713 59.531213 0
M  V30 53 H 35.090854 35.777806 59.323597 0
M  V30 54 H 36.770037 29.838351 58.777408 0
M  V30 END ATOM
M  V30 BEGIN BOND
M  V30 1 2 4 1
M  V30 2 1 5 4
M  V30 3 1 8 4
M  V30 4 1 11 2
M  V30 5 1 12 5
M  V30 6 1 12 9
M  V30 7 2 13 5
M  V30 8 1 13 6
M  V30 9 1 14 10
M  V30 10 1 16 2
M  V30 11 1 16 6
M  V30 12 1 16 15
M  V30 13 1 17 3
M  V30 14 1 18 7
M  V30 15 1 18 11
M  V30 16 1 19 7
M  V30 17 1 19 14
M  V30 18 1 20 1
M  V30 19 1 20 13
M  V30 20 1 20 15
M  V30 21 1 21 8
M  V30 22 1 21 9
M  V30 23 1 22 3
M  V30 24 1 22 19
M  V30 25 1 23 1
M  V30 26 1 24 2
M  V30 27 1 25 2
M  V30 28 1 26 3
M  V30 29 1 27 7
M  V30 30 1 28 7
M  V30 31 1 29 8
M  V30 32 1 30 8
M  V30 33 1 31 9
M  V30 34 1 32 9
M  V30 35 1 33 10
M  V30 36 1 34 10
M  V30 37 1 35 10
M  V30 38 1 36 11
M  V30 39 1 37 11
M  V30 40 1 38 12
M  V30 41 1 39 12
M  V30 42 1 40 14
M  V30 43 1 41 14
M  V30 44 1 16 42 CFG=1
M  V30 45 1 43 17
M  V30 46 1 44 17
M  V30 47 1 45 17
M  V30 48 1 46 18
M  V30 49 1 19 47 CFG=3
M  V30 50 1 20 48 CFG=1
M  V30 51 1 49 21
M  V30 52 1 50 21
M  V30 53 1 51 22
M  V30 54 1 52 22
M  V30 55 1 53 3
M  V30 56 1 54 18
M  V30 END BOND
M  V30 END CTAB
M  END
>  <i_epik_Tot_Q>  (1) 
2

>  <i_epik_Tot_abs_Q>  (1) 
2

>  <i_i_glide_confnum>  (1) 
243

>  <i_i_glide_lignum>  (1) 
230

>  <i_i_glide_posenum>  (1) 
54

>  <i_i_glide_rotatable_bonds>  (1) 
8

>  <i_lp_mmshare_version>  (1) 
72125

>  <i_m_source_file_index>  (1) 
98

>  <i_f3d_flags>  (1) 
0

>  <num_sample>  (1) 
100

>  <b_lp_Chiralities_Consistent>  (1) 
1

>  <r_epik_Charging_Adjusted_Penalty>  (1) 
0.023784372846060081

>  <r_epik_Ionization_Penalty>  (1) 
0.011913947957046679

>  <r_epik_Ionization_Penalty_Charging>  (1) 
0.011913947957046679

>  <r_epik_Ionization_Penalty_Neutral>  (1) 
0

>  <r_epik_State_Penalty>  (1) 
0.011870424889013402

>  <r_glide_ring_energy>  (1) 
0

>  <r_i_docking_score>  (1) 
-7.4030694247384634

>  <r_i_glide_ecoul>  (1) 
-6.3840447660776602

>  <r_i_glide_eff_state_penalty>  (1) 
0.011870424889013402

>  <r_i_glide_einternal>  (1) 
6.1065626835273674

>  <r_i_glide_emodel>  (1) 
-62.293305123811813

>  <r_i_glide_emodel_strain>  (1) 
0.064146662454049874

>  <r_i_glide_energy>  (1) 
-39.944029516378251

>  <r_i_glide_erotb>  (1) 
0.81630680719182536

>  <r_i_glide_esite>  (1) 
-0.11502777665655524

>  <r_i_glide_evdw>  (1) 
-33.559984750300593

>  <r_i_glide_gscore>  (1) 
-7.4149398496274772

>  <r_i_glide_gscore_strain>  (1) 
0

>  <r_i_glide_hbond>  (1) 
-0.20000000000000001

>  <r_i_glide_ligand_efficiency>  (1) 
-0.33650315566993017

>  <r_i_glide_ligand_efficiency_ln>  (1) 
-1.8095802009244175

>  <r_i_glide_ligand_efficiency_sa>  (1) 
-0.94289507707679676

>  <r_i_glide_lipo>  (1) 
-3.2937752459178862

>  <r_i_glide_metal>  (1) 
-0

>  <r_i_glide_rewards>  (1) 
-1.9868376818181823

>  <r_lp_Energy>  (1) 
24.890995

>  <s_epik_Chemistry_Notes>  (1) 
This compound contains an acetal/aminal-like group ( X-CH(R)-Y where X, Y are N, S, or O) that may be acid/base labile, releasing an aldehyde.

>  <s_epik_cmdline>  (1) 
J2VwaWtfcHl0aG9uJywgJy1waHQnLCAnMS4wJywgJy1waCcsICc3LjQnLCAnLXRuJywgJzgnLCAnLW1hJywgJzUwMCcsICctaW1hZScsICc8aW5maWxlLm1hZT4nLCAnLW9tYWUnLCAnPG91dGZpbGUubWFlPic=

>  <s_epik_input>  (1) 
W0NIMl0xW0NIMl1bQ0gyXVtDSDJdQyhDMTIpPUMzW0NAQEhdKFtDSF09MilTW0NASF0oUzMpW0NIMl1bQ0gyXVtOSF1bQ0gyXVtDQEhdKFtDSDJdW0NIM10pW0NIMl1bTkhdW0NIM10=

>  <s_glide_docking_method>  (1) 
confgen

>  <s_i_glide_gridfile>  (1) 
gpcr_5ht2c_6bqh_protein_autoprepared_prepared

>  <s_lp_Force_Field>  (1) 
S-OPLS

>  <s_lp_Variant>  (1) 
DiffSBDD_97-1

>  <s_m_source_file>  (1) 
generated_GPCR_5HT2C_ligand_DiffSBDD_2026-06-23_prepared.sdf

>  <GenAI_Model>  (1) 
DiffSBDD

>  <Protein>  (1) 
GPCR_5HT2C

$$$$
DiffSBDD_69
     RDKit          3D

  0  0  0  0  0  0  0  0  0  0999 V3000
M  V30 BEGIN CTAB
M  V30 COUNTS 57 57 0 0 1
M  V30 BEGIN ATOM
M  V30 1 C 39.413039 29.473790 54.853243 0
M  V30 2 N 36.445130 32.752391 58.967774 0 CHG=1
M  V30 3 C 38.301571 31.680738 54.625691 0
M  V30 4 C 38.083065 33.870727 60.406677 0 CFG=1
M  V30 5 C 39.346011 30.739387 55.186892 0
M  V30 6 C 37.629518 33.615261 58.933697 0 CFG=1
M  V30 7 C 39.580724 28.203416 54.567761 0
M  V30 8 C 39.699243 31.863599 60.946342 0
M  V30 9 C 38.479040 33.391785 56.457390 0
M  V30 10 C 38.684047 33.037271 57.954784 0
M  V30 11 C 38.062997 28.340921 52.489869 0
M  V30 12 C 38.228005 25.478394 55.230307 0 CFG=1
M  V30 13 C 37.681217 26.525095 54.232851 0
M  V30 14 C 38.659857 26.048980 56.595188 0
M  V30 15 N 37.645138 32.411354 55.725256 0 CHG=1
M  V30 16 C 37.245852 24.226721 57.367731 0
M  V30 17 C 38.404942 32.621750 61.271064 0
M  V30 18 C 39.143659 34.973846 60.567668 0
M  V30 19 S 36.967728 24.218523 55.580048 0
M  V30 20 C 38.568440 24.933540 57.622237 0
M  V30 21 C 38.722548 27.445401 53.559303 0 CFG=2
M  V30 22 H 36.677053 31.879762 59.417851 0
M  V30 23 H 35.718693 33.206015 59.502646 0
M  V30 24 H 38.756944 32.376359 53.923013 0
M  V30 25 H 37.540271 31.122229 54.080388 0
M  V30 26 H 37.202614 34.298371 60.890842 0
M  V30 27 H 40.047666 31.162466 55.888151 0
M  V30 28 H 37.297285 34.576591 58.537795 0
M  V30 29 H 40.361292 27.633836 55.046538 0
M  V30 30 H 39.923008 31.146098 61.736417 0
M  V30 31 H 39.615164 31.291929 60.025870 0
M  V30 32 H 40.556417 32.531621 60.866929 0
M  V30 33 H 39.453108 33.441118 55.969955 0
M  V30 34 H 38.045125 34.385476 56.343508 0
M  V30 35 H 38.792317 31.959471 58.073314 0
M  V30 36 H 39.645842 33.450842 58.239467 0
M  V30 37 H 38.785752 29.016854 52.031550 0
M  V30 38 H 37.645141 27.736775 51.685025 0
M  V30 39 H 37.252961 28.937746 52.908384 0
M  V30 40 H 39.072590 24.950099 54.785245 0
M  V30 41 H 36.912820 27.126987 54.715840 0
M  V30 42 H 37.164532 25.987065 53.436737 0
M  V30 43 H 39.677437 26.430144 56.595312 0
M  V30 44 H 37.999536 26.866467 56.888580 0
M  V30 45 H 36.800885 32.883693 55.371396 0
M  V30 46 H 36.445142 24.794338 57.839912 0
M  V30 47 H 37.245139 23.213544 57.767781 0
M  V30 48 H 38.476195 32.948385 62.310028 0
M  V30 49 H 37.571182 31.920212 61.260922 0
M  V30 50 H 40.075942 34.728878 60.064523 0
M  V30 51 H 38.788168 35.923169 60.167763 0
M  V30 52 H 39.375471 35.143554 61.619756 0
M  V30 53 H 38.632547 25.337754 58.633114 0
M  V30 54 H 39.395582 24.236276 57.478830 0
M  V30 55 H 39.424211 26.804611 53.023226 0
M  V30 56 H 36.056844 32.530696 58.038794 0
M  V30 57 H 37.281965 31.729718 56.377018 0
M  V30 END ATOM
M  V30 BEGIN BOND
M  V30 1 2 5 1
M  V30 2 1 5 3
M  V30 3 1 6 2
M  V30 4 1 6 4
M  V30 5 2 7 1
M  V30 6 1 10 6
M  V30 7 1 10 9
M  V30 8 1 13 12
M  V30 9 1 14 12
M  V30 10 1 15 3
M  V30 11 1 15 9
M  V30 12 1 17 4
M  V30 13 1 17 8
M  V30 14 1 18 4
M  V30 15 1 19 12
M  V30 16 1 19 16
M  V30 17 1 20 14
M  V30 18 1 20 16
M  V30 19 1 21 7
M  V30 20 1 21 11
M  V30 21 1 21 13
M  V30 22 1 22 2
M  V30 23 1 23 2
M  V30 24 1 24 3
M  V30 25 1 25 3
M  V30 26 1 4 26 CFG=1
M  V30 27 1 27 5
M  V30 28 1 6 28 CFG=3
M  V30 29 1 29 7
M  V30 30 1 30 8
M  V30 31 1 31 8
M  V30 32 1 32 8
M  V30 33 1 33 9
M  V30 34 1 34 9
M  V30 35 1 35 10
M  V30 36 1 36 10
M  V30 37 1 37 11
M  V30 38 1 38 11
M  V30 39 1 39 11
M  V30 40 1 12 40 CFG=3
M  V30 41 1 41 13
M  V30 42 1 42 13
M  V30 43 1 43 14
M  V30 44 1 44 14
M  V30 45 1 45 15
M  V30 46 1 46 16
M  V30 47 1 47 16
M  V30 48 1 48 17
M  V30 49 1 49 17
M  V30 50 1 50 18
M  V30 51 1 51 18
M  V30 52 1 52 18
M  V30 53 1 53 20
M  V30 54 1 54 20
M  V30 55 1 21 55 CFG=3
M  V30 56 1 56 2
M  V30 57 1 57 15
M  V30 END BOND
M  V30 END CTAB
M  END
>  <i_epik_Tot_Q>  (1) 
2

>  <i_epik_Tot_abs_Q>  (1) 
2

>  <i_i_glide_confnum>  (1) 
180

>  <i_i_glide_lignum>  (1) 
154

>  <i_i_glide_posenum>  (1) 
178

>  <i_i_glide_rotatable_bonds>  (1) 
10

>  <i_lp_mmshare_version>  (1) 
72125

>  <i_m_source_file_index>  (1) 
70

>  <i_f3d_flags>  (1) 
0

>  <num_sample>  (1) 
100

>  <b_lp_Chiralities_Consistent>  (1) 
1

>  <r_epik_Charging_Adjusted_Penalty>  (1) 
0.029112061252425856

>  <r_epik_Ionization_Penalty>  (1) 
0.014593894863530521

>  <r_epik_Ionization_Penalty_Charging>  (1) 
0.014593894863530521

>  <r_epik_Ionization_Penalty_Neutral>  (1) 
0

>  <r_epik_State_Penalty>  (1) 
0.014518166388895335

>  <r_glide_ring_energy>  (1) 
0

>  <r_i_docking_score>  (1) 
-7.3979409758632544

>  <r_i_glide_ecoul>  (1) 
-10.466819352276701

>  <r_i_glide_eff_state_penalty>  (1) 
0.014518166388895335

>  <r_i_glide_einternal>  (1) 
13.378234096862242

>  <r_i_glide_emodel>  (1) 
-60.111164695915591

>  <r_i_glide_emodel_strain>  (1) 
0.025746495616566278

>  <r_i_glide_energy>  (1) 
-38.591884526426199

>  <r_i_glide_erotb>  (1) 
1.5199289784806138

>  <r_i_glide_esite>  (1) 
-0.20000000000000001

>  <r_i_glide_evdw>  (1) 
-28.125065174149498

>  <r_i_glide_gscore>  (1) 
-7.4124591422521497

>  <r_i_glide_gscore_strain>  (1) 
0

>  <r_i_glide_hbond>  (1) 
-0.44745488069256112

>  <r_i_glide_ligand_efficiency>  (1) 
-0.35228290361253595

>  <r_i_glide_ligand_efficiency_ln>  (1) 
-1.829125957334879

>  <r_i_glide_ligand_efficiency_sa>  (1) 
-0.97192181970236546

>  <r_i_glide_lipo>  (1) 
-3.4877857895023037

>  <r_i_glide_metal>  (1) 
-0

>  <r_i_glide_rewards>  (1) 
-1.8208712889889189

>  <r_lp_Energy>  (1) 
2.2558279999999997

>  <s_epik_cmdline>  (1) 
J2VwaWtfcHl0aG9uJywgJy1waHQnLCAnMS4wJywgJy1waCcsICc3LjQnLCAnLXRuJywgJzgnLCAnLW1hJywgJzUwMCcsICctaW1hZScsICc8aW5maWxlLm1hZT4nLCAnLW9tYWUnLCAnPG91dGZpbGUubWFlPic=

>  <s_epik_input>  (1) 
UzFbQ0gyXVtDSDJdW0NIMl1bQ0BASF0xW0NIMl1bQ0BIXShbQ0gzXSlbQ0hdPUM9W0NIXVtDSDJdW05IXVtDSDJdW0NIMl1bQ0BASF0oW05IMl0pW0NASF0oW0NIM10pW0NIMl1bQ0gzXQ==

>  <s_glide_docking_method>  (1) 
confgen

>  <s_i_glide_gridfile>  (1) 
gpcr_5ht2c_6bqh_protein_autoprepared_prepared

>  <s_lp_Force_Field>  (1) 
S-OPLS

>  <s_lp_Variant>  (1) 
DiffSBDD_69-2

>  <s_m_source_file>  (1) 
generated_GPCR_5HT2C_ligand_DiffSBDD_2026-06-23_prepared.sdf

>  <GenAI_Model>  (1) 
DiffSBDD

>  <Protein>  (1) 
GPCR_5HT2C

$$$$
DiffSBDD_42
     RDKit          3D

  0  0  0  0  0  0  0  0  0  0999 V3000
M  V30 BEGIN CTAB
M  V30 COUNTS 89 94 0 0 1
M  V30 BEGIN ATOM
M  V30 1 C 38.458628 26.358875 55.128510 0
M  V30 2 C 40.485131 34.860313 61.632923 0
M  V30 3 C 41.401509 28.063285 64.471267 0
M  V30 4 C 42.974720 26.185006 65.051024 0
M  V30 5 O 41.498393 31.937194 61.367677 0 CHG=-1
M  V30 6 C 41.539728 30.503467 64.646484 0
M  V30 7 C 41.038856 28.202341 63.115010 0
M  V30 8 C 41.198373 30.624260 63.280176 0
M  V30 9 C 38.800551 28.229813 52.024416 0 CFG=2
M  V30 10 C 40.384543 25.766895 65.314035 0
M  V30 11 C 39.370770 28.673283 54.886539 0 CFG=1
M  V30 12 C 35.898296 32.225604 60.204135 0 CFG=1
M  V30 13 C 38.550458 27.999693 57.015054 0
M  V30 14 C 36.021623 31.583712 61.597923 0
M  V30 15 C 39.004745 30.567488 58.734932 0
M  V30 16 C 39.815901 34.085278 62.771169 0
M  V30 17 C 35.357511 33.668135 60.102308 0
M  V30 18 O 36.667193 30.138229 58.580278 0
M  V30 19 C 39.200905 33.738365 59.628856 0
M  V30 20 O 37.398058 28.268663 52.167759 0
M  V30 21 C 37.542548 30.897836 59.000875 0
M  V30 22 C 39.595501 35.025793 60.404187 0
M  V30 23 O 40.726048 28.938242 58.563763 0
M  V30 24 C 37.391022 31.767875 62.401928 0
M  V30 25 C 38.175655 26.580211 56.593451 0
M  V30 26 C 41.265814 27.628471 58.576519 0
M  V30 27 N 39.762949 32.605329 62.601255 0 CFG=2 CHG=1
M  V30 28 C 39.295015 27.061335 52.879032 0
M  V30 29 C 41.132432 32.002236 62.616586 0 CFG=2
M  V30 30 C 40.942154 29.467567 62.525994 0
M  V30 31 C 39.386505 29.076056 58.963088 0 CFG=2
M  V30 32 C 39.426036 29.547807 52.515714 0
M  V30 33 C 41.549529 26.694942 65.082638 0 CFG=2
M  V30 34 C 41.644788 29.225825 65.238328 0
M  V30 35 C 38.267631 32.851328 60.438900 0 CFG=2
M  V30 36 C 38.987867 29.841266 53.960653 0
M  V30 37 O 38.483279 28.170654 58.366939 0
M  V30 38 N 38.905619 28.931397 56.221657 0
M  V30 39 C 39.001163 27.296282 54.343847 0
M  V30 40 C 38.719095 32.027286 61.661962 0 CFG=2
M  V30 41 N 37.250595 32.018496 59.740329 0
M  V30 42 O 40.893944 26.605827 66.355350 0
M  V30 43 H 38.207500 25.391348 54.722091 0
M  V30 44 H 41.461084 34.457758 61.367819 0
M  V30 45 H 40.701196 35.862617 62.005764 0
M  V30 46 H 43.326326 26.104219 64.022172 0
M  V30 47 H 43.630565 26.866381 65.592693 0
M  V30 48 H 43.038933 25.200890 65.516291 0
M  V30 49 H 41.738967 31.386248 65.235297 0
M  V30 50 H 40.845111 27.337799 62.521856 0
M  V30 51 H 39.045744 28.062248 50.974896 0
M  V30 52 H 39.401237 26.043934 64.947435 0
M  V30 53 H 40.562587 24.707188 65.478022 0
M  V30 54 H 40.445194 28.696901 54.967857 0
M  V30 55 H 35.179991 31.647885 59.620886 0
M  V30 56 H 35.125531 31.815311 62.167760 0
M  V30 57 H 35.933423 30.537771 61.367618 0
M  V30 58 H 39.645144 31.084693 59.414925 0
M  V30 59 H 39.265504 30.896184 57.730715 0
M  V30 60 H 40.359067 34.297992 63.692519 0
M  V30 61 H 38.845125 34.503612 62.943950 0
M  V30 62 H 34.270687 33.671593 60.192730 0
M  V30 63 H 35.733576 34.336405 60.875141 0
M  V30 64 H 35.595383 34.095707 59.127280 0
M  V30 65 H 40.045135 33.179076 59.297212 0
M  V30 66 H 38.670194 34.031444 58.724466 0
M  V30 67 H 37.032876 27.478703 51.785461 0
M  V30 68 H 40.147452 35.696345 59.767758 0
M  V30 69 H 38.697443 35.583881 60.675951 0
M  V30 70 H 37.245211 32.657493 62.967741 0
M  V30 71 H 37.645133 30.937840 63.061566 0
M  V30 72 H 37.120033 26.406132 56.799855 0
M  V30 73 H 38.750190 25.869134 57.187532 0
M  V30 74 H 42.267434 27.639586 59.009106 0
M  V30 75 H 40.628922 26.937753 59.127658 0
M  V30 76 H 41.350739 27.253873 57.556386 0
M  V30 77 H 38.835892 26.137795 52.557471 0
M  V30 78 H 40.369062 26.937833 52.758912 0
M  V30 79 H 41.727963 32.610802 63.296794 0
M  V30 80 H 40.689098 29.550742 61.485177 0
M  V30 81 H 39.328514 28.838479 60.022757 0
M  V30 82 H 40.504259 29.450752 52.478727 0
M  V30 83 H 39.245164 30.385325 51.848504 0
M  V30 84 H 41.923941 29.136573 66.278642 0
M  V30 85 H 37.704273 33.643090 60.920329 0
M  V30 86 H 37.911227 30.016147 54.003091 0
M  V30 87 H 39.453198 30.763523 54.310843 0
M  V30 88 H 39.059331 31.039160 61.377275 0
M  V30 89 H 39.430991 32.292629 63.499604 0
M  V30 END ATOM
M  V30 BEGIN BOND
M  V30 1 2 7 3
M  V30 2 1 8 6
M  V30 3 1 14 12
M  V30 4 1 16 2
M  V30 5 1 17 12
M  V30 6 1 20 9
M  V30 7 1 21 15
M  V30 8 2 21 18
M  V30 9 1 22 2
M  V30 10 1 22 19
M  V30 11 1 24 14
M  V30 12 1 25 1
M  V30 13 1 25 13
M  V30 14 1 26 23
M  V30 15 1 27 16
M  V30 16 1 28 9
M  V30 17 1 29 5
M  V30 18 1 29 8
M  V30 19 1 29 27
M  V30 20 1 30 7
M  V30 21 2 30 8
M  V30 22 1 31 15
M  V30 23 1 31 23
M  V30 24 1 32 9
M  V30 25 1 33 3
M  V30 26 1 33 4 CFG=1
M  V30 27 1 33 10
M  V30 28 1 34 3
M  V30 29 2 34 6
M  V30 30 1 35 19
M  V30 31 1 36 11
M  V30 32 1 36 32
M  V30 33 1 37 13
M  V30 34 1 37 31
M  V30 35 1 38 11
M  V30 36 2 38 13
M  V30 37 2 39 1
M  V30 38 1 39 11
M  V30 39 1 39 28
M  V30 40 1 40 24
M  V30 41 1 40 27
M  V30 42 1 40 35
M  V30 43 1 41 12
M  V30 44 1 41 21
M  V30 45 1 41 35
M  V30 46 1 42 10
M  V30 47 1 42 33
M  V30 48 1 43 1
M  V30 49 1 44 2
M  V30 50 1 45 2
M  V30 51 1 46 4
M  V30 52 1 47 4
M  V30 53 1 48 4
M  V30 54 1 49 6
M  V30 55 1 50 7
M  V30 56 1 9 51 CFG=3
M  V30 57 1 52 10
M  V30 58 1 53 10
M  V30 59 1 11 54 CFG=1
M  V30 60 1 12 55 CFG=3
M  V30 61 1 56 14
M  V30 62 1 57 14
M  V30 63 1 58 15
M  V30 64 1 59 15
M  V30 65 1 60 16
M  V30 66 1 61 16
M  V30 67 1 62 17
M  V30 68 1 63 17
M  V30 69 1 64 17
M  V30 70 1 65 19
M  V30 71 1 66 19
M  V30 72 1 67 20
M  V30 73 1 68 22
M  V30 74 1 69 22
M  V30 75 1 70 24
M  V30 76 1 71 24
M  V30 77 1 72 25
M  V30 78 1 73 25
M  V30 79 1 74 26
M  V30 80 1 75 26
M  V30 81 1 76 26
M  V30 82 1 77 28
M  V30 83 1 78 28
M  V30 84 1 29 79 CFG=1
M  V30 85 1 80 30
M  V30 86 1 31 81 CFG=1
M  V30 87 1 82 32
M  V30 88 1 83 32
M  V30 89 1 84 34
M  V30 90 1 35 85 CFG=1
M  V30 91 1 86 36
M  V30 92 1 87 36
M  V30 93 1 40 88 CFG=3
M  V30 94 1 27 89 CFG=1
M  V30 END BOND
M  V30 END CTAB
M  END
>  <i_epik_Tot_Q>  (1) 
0

>  <i_epik_Tot_abs_Q>  (1) 
2

>  <i_i_glide_confnum>  (1) 
631

>  <i_i_glide_lignum>  (1) 
92

>  <i_i_glide_posenum>  (1) 
157

>  <i_i_glide_rotatable_bonds>  (1) 
10

>  <i_lp_mmshare_version>  (1) 
72125

>  <i_m_source_file_index>  (1) 
43

>  <i_f3d_flags>  (1) 
0

>  <num_sample>  (1) 
100

>  <b_lp_Chiralities_Consistent>  (1) 
1

>  <r_epik_Charging_Adjusted_Penalty>  (1) 
0.10762157237222084

>  <r_epik_Ionization_Penalty>  (1) 
0.015049648649627746

>  <r_epik_Ionization_Penalty_Charging>  (1) 
0.014590701191951229

>  <r_epik_Ionization_Penalty_Neutral>  (1) 
0.0004589474576765184

>  <r_epik_State_Penalty>  (1) 
0.093030871180269606

>  <r_glide_ring_energy>  (1) 
0

>  <r_i_docking_score>  (1) 
-7.3970422274568248

>  <r_i_glide_ecoul>  (1) 
-3.3183190688183992

>  <r_i_glide_eff_state_penalty>  (1) 
0.093030871180269606

>  <r_i_glide_einternal>  (1) 
10.179992239736251

>  <r_i_glide_emodel>  (1) 
-34.961802469810905

>  <r_i_glide_emodel_strain>  (1) 
4.4374635550354498

>  <r_i_glide_energy>  (1) 
-38.694303458173614

>  <r_i_glide_erotb>  (1) 
0.39316795176799535

>  <r_i_glide_esite>  (1) 
-0.11894400157608542

>  <r_i_glide_evdw>  (1) 
-35.375984389355217

>  <r_i_glide_gscore>  (1) 
-7.4900730986370947

>  <r_i_glide_gscore_strain>  (1) 
0.10936588875886244

>  <r_i_glide_hbond>  (1) 
-0.3461218497564903

>  <r_i_glide_ligand_efficiency>  (1) 
-0.17612005303468631

>  <r_i_glide_ligand_efficiency_ln>  (1) 
-1.561325044471346

>  <r_i_glide_ligand_efficiency_sa>  (1) 
-0.61219799704738431

>  <r_i_glide_lipo>  (1) 
-4.0529291446434046

>  <r_i_glide_metal>  (1) 
-0

>  <r_i_glide_rewards>  (1) 
-1.2080648633974507

>  <r_lp_Energy>  (1) 
81.408011000000002

>  <s_epik_Chemistry_Notes>  (1) 
This compound has an imine and may undergo hydrolysis. This compound contains an acetal/aminal-like group ( X-CH(R)-Y where X, Y are N, S, or O) that may be acid/base labile, releasing an aldehyde.

>  <s_epik_cmdline>  (1) 
J2VwaWtfcHl0aG9uJywgJy1waHQnLCAnMS4wJywgJy1waCcsICc3LjQnLCAnLXRuJywgJzgnLCAnLW1hJywgJzUwMCcsICctaW1hZScsICc8aW5maWxlLm1hZT4nLCAnLW9tYWUnLCAnPG91dGZpbGUubWFlPic=

>  <s_epik_input>  (1) 
W0NIMl0xW0NIMl1bQ0BIXShbT0hdKVtDSDJdQyhbQ0BASF0xMik9W0NIXVtDSDJdQyg9TjIpT1tDQEBIXShPW0NIM10pW0NIMl1DKD1PKU4zW0NASF0oW0NIM10pW0NIMl1bQ0gyXVtDQEBIXShbQ0BIXTM0KU4oW0NIMl1bQ0gyXVtDSDJdW0NIMl00KVtDQEhdKFtPSF0pYyhbY0hdW2NIXTUpW2NIXVtjSF1jNUM2KFtDSDNdKVtDSDJdTzY=

>  <s_glide_docking_method>  (1) 
confgen

>  <s_i_glide_gridfile>  (1) 
gpcr_5ht2c_6bqh_protein_autoprepared_prepared

>  <s_lp_Force_Field>  (1) 
S-OPLS

>  <s_lp_Variant>  (1) 
DiffSBDD_42-1

>  <s_m_source_file>  (1) 
generated_GPCR_5HT2C_ligand_DiffSBDD_2026-06-23_prepared.sdf

>  <GenAI_Model>  (1) 
DiffSBDD

>  <Protein>  (1) 
GPCR_5HT2C

$$$$
DiffSBDD_16
     RDKit          3D

  0  0  0  0  0  0  0  0  0  0999 V3000
M  V30 BEGIN CTAB
M  V30 COUNTS 70 74 0 0 1
M  V30 BEGIN ATOM
M  V30 1 C 39.954506 33.857325 61.476913 0
M  V30 2 C 38.889983 27.107545 53.336775 0
M  V30 3 C 38.514271 32.445387 57.142155 0 CFG=1
M  V30 4 C 38.437008 32.405907 55.613177 0
M  V30 5 C 41.313131 32.699748 63.162615 0
M  V30 6 C 41.815033 33.934039 63.609780 0
M  V30 7 C 35.773639 31.888896 61.276105 0
M  V30 8 C 34.896344 33.139282 61.322727 0
M  V30 9 C 37.592687 33.560133 57.671139 0
M  V30 10 C 41.414575 35.124744 62.979766 0
M  V30 11 O 37.888829 31.901084 62.295456 0
M  V30 12 C 38.986055 28.661801 55.180142 0
M  V30 13 C 39.045150 29.900403 55.742676 0
M  V30 14 C 39.038359 30.057280 57.248439 0
M  V30 15 C 38.977434 28.341168 53.742728 0
M  V30 16 C 40.389432 32.657440 62.098506 0
M  V30 17 N 38.845133 26.937756 51.986415 0
M  V30 18 C 39.866307 29.671400 49.972319 0
M  V30 19 N 38.102041 31.120226 57.640171 0 CHG=1
M  V30 20 C 40.331047 30.537759 51.084497 0
M  V30 21 C 41.765868 31.413896 63.823644 0
M  V30 22 C 34.503730 33.548165 59.906185 0
M  V30 23 C 36.065808 35.635548 59.636256 0
M  V30 24 C 35.658117 34.235598 59.153188 0 CFG=1
M  V30 25 C 38.960626 33.869522 60.353038 0
M  V30 26 C 36.864214 33.287150 59.000060 0 CFG=2
M  V30 27 C 37.240934 32.282339 61.344178 0
M  V30 28 C 38.986818 29.320144 52.628526 0 CFG=2
M  V30 29 C 37.781384 33.162671 60.236100 0
M  V30 30 C 39.002742 28.145377 51.609513 0
M  V30 31 N 40.056700 30.288029 52.321258 0
M  V30 32 C 40.501318 35.086040 61.909567 0
M  V30 33 C 39.138150 31.214227 54.956320 0
M  V30 34 C 39.244454 28.514618 50.237425 0
M  V30 35 H 38.841205 26.238358 53.977610 0
M  V30 36 H 39.536520 32.647634 57.462678 0
M  V30 37 H 38.811127 33.337751 55.190843 0
M  V30 38 H 37.386907 32.348910 55.319176 0
M  V30 39 H 42.519377 33.967444 64.428155 0
M  V30 40 H 35.555847 31.228201 60.437061 0
M  V30 41 H 35.525168 31.337732 62.167746 0
M  V30 42 H 34.045139 32.937764 61.955984 0
M  V30 43 H 35.383151 33.966629 61.840778 0
M  V30 44 H 38.045131 34.537752 57.666030 0
M  V30 45 H 36.845136 33.718694 56.914733 0
M  V30 46 H 41.810921 36.071868 63.316927 0
M  V30 47 H 38.932566 27.823666 55.859625 0
M  V30 48 H 38.728279 29.127626 57.728223 0
M  V30 49 H 40.045133 30.271546 57.598264 0
M  V30 50 H 40.030681 31.703254 61.749656 0
M  V30 51 H 40.085603 29.996216 48.967960 0
M  V30 52 H 38.051103 31.159579 58.646284 0
M  V30 53 H 40.929517 31.395404 50.787564 0
M  V30 54 H 40.999858 30.642219 63.743189 0
M  V30 55 H 42.677506 31.045988 63.352488 0
M  V30 56 H 41.969504 31.574699 64.882629 0
M  V30 57 H 34.197274 32.658485 59.353377 0
M  V30 58 H 33.598458 34.137755 59.897296 0
M  V30 59 H 36.364548 35.657486 60.683443 0
M  V30 60 H 36.900566 36.023262 59.052518 0
M  V30 61 H 35.250578 36.332156 59.482068 0
M  V30 62 H 35.229119 34.397401 58.167771 0
M  V30 63 H 39.208944 34.537754 59.552155 0
M  V30 64 H 36.410182 32.315134 58.856177 0
M  V30 65 H 37.993627 29.737755 52.580813 0
M  V30 66 H 40.196693 36.006316 61.433387 0
M  V30 67 H 40.189700 31.447032 54.785287 0
M  V30 68 H 38.610141 31.198649 54.019403 0
M  V30 69 H 38.918389 27.830692 49.482409 0
M  V30 70 H 37.166819 30.941129 57.281073 0
M  V30 END ATOM
M  V30 BEGIN BOND
M  V30 1 1 4 3
M  V30 2 1 6 5
M  V30 3 1 8 7
M  V30 4 1 9 3
M  V30 5 2 10 6
M  V30 6 2 13 12
M  V30 7 1 14 13
M  V30 8 2 15 2
M  V30 9 1 15 12
M  V30 10 1 16 1
M  V30 11 2 16 5
M  V30 12 1 17 2
M  V30 13 1 19 3
M  V30 14 1 19 14
M  V30 15 1 20 18
M  V30 16 1 21 5
M  V30 17 1 22 8
M  V30 18 1 24 22
M  V30 19 1 24 23
M  V30 20 1 25 1
M  V30 21 1 26 9
M  V30 22 1 26 24
M  V30 23 1 27 7
M  V30 24 2 27 11
M  V30 25 1 28 15
M  V30 26 2 29 25
M  V30 27 1 29 26
M  V30 28 1 29 27
M  V30 29 2 30 17
M  V30 30 1 30 28
M  V30 31 2 31 20
M  V30 32 1 31 28
M  V30 33 2 32 1
M  V30 34 1 32 10
M  V30 35 1 33 4
M  V30 36 1 33 13
M  V30 37 2 34 18
M  V30 38 1 34 30
M  V30 39 1 35 2
M  V30 40 1 3 36 CFG=3
M  V30 41 1 37 4
M  V30 42 1 38 4
M  V30 43 1 39 6
M  V30 44 1 40 7
M  V30 45 1 41 7
M  V30 46 1 42 8
M  V30 47 1 43 8
M  V30 48 1 44 9
M  V30 49 1 45 9
M  V30 50 1 46 10
M  V30 51 1 47 12
M  V30 52 1 48 14
M  V30 53 1 49 14
M  V30 54 1 50 16
M  V30 55 1 51 18
M  V30 56 1 52 19
M  V30 57 1 53 20
M  V30 58 1 54 21
M  V30 59 1 55 21
M  V30 60 1 56 21
M  V30 61 1 57 22
M  V30 62 1 58 22
M  V30 63 1 59 23
M  V30 64 1 60 23
M  V30 65 1 61 23
M  V30 66 1 24 62 CFG=3
M  V30 67 1 63 25
M  V30 68 1 26 64 CFG=3
M  V30 69 1 28 65 CFG=3
M  V30 70 1 66 32
M  V30 71 1 67 33
M  V30 72 1 68 33
M  V30 73 1 69 34
M  V30 74 1 70 19
M  V30 END BOND
M  V30 END CTAB
M  END
>  <i_epik_Tot_Q>  (1) 
1

>  <i_epik_Tot_abs_Q>  (1) 
1

>  <i_i_glide_confnum>  (1) 
39

>  <i_i_glide_lignum>  (1) 
34

>  <i_i_glide_posenum>  (1) 
270

>  <i_i_glide_rotatable_bonds>  (1) 
4

>  <i_lp_mmshare_version>  (1) 
72125

>  <i_m_source_file_index>  (1) 
17

>  <i_f3d_flags>  (1) 
0

>  <num_sample>  (1) 
100

>  <b_lp_Chiralities_Consistent>  (1) 
1

>  <r_epik_Charging_Adjusted_Penalty>  (1) 
0.57808156404405586

>  <r_epik_Ionization_Penalty>  (1) 
0.28904078202202793

>  <r_epik_Ionization_Penalty_Charging>  (1) 
0.28904078202202793

>  <r_epik_Ionization_Penalty_Neutral>  (1) 
0

>  <r_epik_State_Penalty>  (1) 
0.28904078202202793

>  <r_glide_ring_energy>  (1) 
0

>  <r_i_docking_score>  (1) 
-7.3896173511971792

>  <r_i_glide_ecoul>  (1) 
-2.6990488739637408

>  <r_i_glide_eff_state_penalty>  (1) 
0.28904078202202793

>  <r_i_glide_einternal>  (1) 
33.053411244523183

>  <r_i_glide_emodel>  (1) 
-38.719065097760407

>  <r_i_glide_emodel_strain>  (1) 
5.3556411509888449

>  <r_i_glide_energy>  (1) 
-42.273140401446781

>  <r_i_glide_erotb>  (1) 
0.29147875755417113

>  <r_i_glide_esite>  (1) 
-0.10000000000000001

>  <r_i_glide_evdw>  (1) 
-39.574091527483041

>  <r_i_glide_gscore>  (1) 
-7.6786581332192068

>  <r_i_glide_gscore_strain>  (1) 
0.33891028774721121

>  <r_i_glide_hbond>  (1) 
-0.25353812042808371

>  <r_i_glide_ligand_efficiency>  (1) 
-0.21734168679991703

>  <r_i_glide_ligand_efficiency_ln>  (1) 
-1.6325737446253961

>  <r_i_glide_ligand_efficiency_sa>  (1) 
-0.70410269346656595

>  <r_i_glide_lipo>  (1) 
-3.4215690313986582

>  <r_i_glide_metal>  (1) 
-0

>  <r_i_glide_rewards>  (1) 
-2.1503781192251337

>  <r_lp_Energy>  (1) 
65.165018000000003

>  <s_epik_Chemistry_Notes>  (1) 
This compound has an imine and may undergo hydrolysis.

>  <s_epik_cmdline>  (1) 
J2VwaWtfcHl0aG9uJywgJy1waHQnLCAnMS4wJywgJy1waCcsICc3LjQnLCAnLXRuJywgJzgnLCAnLW1hJywgJzUwMCcsICctaW1hZScsICc8aW5maWxlLm1hZT4nLCAnLW9tYWUnLCAnPG91dGZpbGUubWFlPic=

>  <s_epik_input>  (1) 
W2NIXTFbY0hdW2NIXWMoW0NIM10pW2NIXWMxL1tDSF09QyhDKD1PKVtDSDJdW0NIMl1bQ0gyXVtDQEhdMltDSDNdKS9bQ0BASF0yW0NIMl1bQ0BASF0zW0NIMl1bQ0gyXUMoL1tDSDJdW05IXTMpPVtDSF1cQzQ9W0NIXU49QyhbQ0BASF00NSlbQ0hdPVtDSF1bQ0hdPU41

>  <s_glide_docking_method>  (1) 
confgen

>  <s_i_glide_gridfile>  (1) 
gpcr_5ht2c_6bqh_protein_autoprepared_prepared

>  <s_lp_Force_Field>  (1) 
S-OPLS

>  <s_lp_Variant>  (1) 
DiffSBDD_16-2

>  <s_m_source_file>  (1) 
generated_GPCR_5HT2C_ligand_DiffSBDD_2026-06-23_prepared.sdf

>  <GenAI_Model>  (1) 
DiffSBDD

>  <Protein>  (1) 
GPCR_5HT2C

$$$$
DiffSBDD_75
     RDKit          3D

  0  0  0  0  0  0  0  0  0  0999 V3000
M  V30 BEGIN CTAB
M  V30 COUNTS 76 77 0 0 1
M  V30 BEGIN ATOM
M  V30 1 C 38.893662 30.831317 62.156206 0
M  V30 2 C 41.329895 28.891908 62.826759 0
M  V30 3 O 41.270102 27.084030 57.694203 0
M  V30 4 C 37.329646 32.612916 60.176935 0
M  V30 5 C 39.009445 26.470675 56.172806 0 CFG=1
M  V30 6 C 41.244845 34.385926 65.630452 0
M  V30 7 C 40.217507 28.001694 57.891613 0 CFG=2
M  V30 8 C 41.245138 33.570992 66.781580 0
M  V30 9 O 37.264146 25.630454 54.727644 0
M  V30 10 C 39.427716 29.009982 55.657207 0 CFG=1
M  V30 11 O 40.064189 35.970950 69.311100 0
M  V30 12 S 38.838440 29.364476 59.827253 0
M  V30 13 C 36.115492 33.542715 59.951353 0
M  V30 14 C 40.444123 35.452769 68.111905 0
M  V30 15 C 39.646557 27.832998 59.306963 0
M  V30 16 C 41.648240 33.805023 64.290872 0
M  V30 17 C 40.846509 35.736983 65.724407 0
M  V30 18 O 37.245030 29.297657 54.568136 0
M  V30 19 C 39.299646 30.459250 56.183987 0
M  V30 20 C 39.147689 27.923715 56.748032 0 CFG=1
M  V30 21 O 35.022537 32.854827 59.367774 0
M  V30 22 O 40.845145 29.518915 61.646151 0
M  V30 23 O 41.800892 32.537322 61.767368 0
M  V30 24 C 38.959248 34.360010 60.531185 0
M  V30 25 N 38.372629 33.131890 61.095674 0
M  V30 26 C 40.652241 32.644880 62.196456 0
M  V30 27 C 40.846310 34.104885 68.022030 0
M  V30 28 C 40.391100 33.330660 63.539707 0
M  V30 29 C 39.412380 32.113184 61.425479 0 CFG=1
M  V30 30 C 40.443207 36.267303 66.963848 0
M  V30 31 C 38.553125 27.437488 53.799545 0
M  V30 32 C 39.429434 29.525403 61.537294 0 CFG=1
M  V30 33 C 38.504164 25.433137 57.202567 0
M  V30 34 C 38.577591 28.864440 54.364675 0 CFG=2
M  V30 35 C 38.180939 26.435771 54.884625 0
M  V30 36 H 39.157861 30.836250 63.214175 0
M  V30 37 H 37.809641 30.783177 62.174184 0
M  V30 38 H 42.419618 28.913619 62.832991 0
M  V30 39 H 40.990673 29.415282 63.720664 0
M  V30 40 H 41.017084 27.846116 62.888013 0
M  V30 41 H 41.936672 27.222697 58.351362 0
M  V30 42 H 37.771342 32.364323 59.209789 0
M  V30 43 H 36.918950 31.679183 60.550497 0
M  V30 44 H 40.730183 28.959418 57.878807 0
M  V30 45 H 41.544750 32.534683 66.712410 0
M  V30 46 H 37.855046 27.359104 52.966015 0
M  V30 47 H 40.466339 28.871245 55.367329 0
M  V30 48 H 40.253671 35.406745 70.043278 0
M  V30 49 H 35.779973 33.959325 60.901281 0
M  V30 50 H 36.368978 34.378761 59.301262 0
M  V30 51 H 40.449743 27.610944 60.007908 0
M  V30 52 H 38.937315 27.010089 59.368540 0
M  V30 53 H 42.184075 34.560022 63.712696 0
M  V30 54 H 42.339586 32.975520 64.448362 0
M  V30 55 H 40.844281 36.363229 64.844176 0
M  V30 56 H 37.253944 30.157578 54.966281 0
M  V30 57 H 38.314899 30.644376 56.614707 0
M  V30 58 H 40.031970 30.707772 56.947427 0
M  V30 59 H 39.453072 31.178309 55.379307 0
M  V30 60 H 38.176393 28.181830 57.171891 0
M  V30 61 H 35.244595 32.532500 58.491484 0
M  V30 62 H 38.198262 35.110282 60.323648 0
M  V30 63 H 39.652602 34.853971 61.210825 0
M  V30 64 H 39.489522 34.142018 59.601297 0
M  V30 65 H 40.847382 33.479227 68.902919 0
M  V30 66 H 39.846278 32.635190 64.176271 0
M  V30 67 H 39.723192 34.174674 63.369270 0
M  V30 68 H 39.808226 31.786646 60.465063 0
M  V30 69 H 40.137193 37.301040 67.034587 0
M  V30 70 H 39.537301 27.171845 53.414374 0
M  V30 71 H 39.993066 26.138620 55.844158 0
M  V30 72 H 39.015404 28.671514 62.075769 0
M  V30 73 H 38.302781 24.460066 56.752682 0
M  V30 74 H 39.254031 25.253167 57.969978 0
M  V30 75 H 37.589795 25.771046 57.690657 0
M  V30 76 H 39.000904 29.518423 53.599982 0
M  V30 END ATOM
M  V30 BEGIN BOND
M  V30 1 1 7 3
M  V30 2 1 8 6
M  V30 3 1 13 4
M  V30 4 1 14 11
M  V30 5 1 15 7
M  V30 6 1 15 12
M  V30 7 1 16 6
M  V30 8 2 17 6
M  V30 9 1 19 10
M  V30 10 1 20 5
M  V30 11 1 20 7
M  V30 12 1 20 10
M  V30 13 1 21 13
M  V30 14 1 22 2
M  V30 15 1 25 4
M  V30 16 1 25 24
M  V30 17 2 26 23
M  V30 18 2 27 8
M  V30 19 1 27 14
M  V30 20 1 28 16
M  V30 21 1 28 26
M  V30 22 1 29 1
M  V30 23 1 29 25
M  V30 24 1 29 26
M  V30 25 2 30 14
M  V30 26 1 30 17
M  V30 27 1 32 1
M  V30 28 1 32 12
M  V30 29 1 32 22
M  V30 30 1 33 5
M  V30 31 1 34 10
M  V30 32 1 34 18
M  V30 33 1 34 31
M  V30 34 1 35 5
M  V30 35 2 35 9
M  V30 36 1 35 31
M  V30 37 1 36 1
M  V30 38 1 37 1
M  V30 39 1 38 2
M  V30 40 1 39 2
M  V30 41 1 40 2
M  V30 42 1 41 3
M  V30 43 1 42 4
M  V30 44 1 43 4
M  V30 45 1 7 44 CFG=1
M  V30 46 1 45 8
M  V30 47 1 46 31
M  V30 48 1 10 47 CFG=3
M  V30 49 1 48 11
M  V30 50 1 49 13
M  V30 51 1 50 13
M  V30 52 1 51 15
M  V30 53 1 52 15
M  V30 54 1 53 16
M  V30 55 1 54 16
M  V30 56 1 55 17
M  V30 57 1 56 18
M  V30 58 1 57 19
M  V30 59 1 58 19
M  V30 60 1 59 19
M  V30 61 1 20 60 CFG=1
M  V30 62 1 61 21
M  V30 63 1 62 24
M  V30 64 1 63 24
M  V30 65 1 64 24
M  V30 66 1 65 27
M  V30 67 1 66 28
M  V30 68 1 67 28
M  V30 69 1 29 68 CFG=3
M  V30 70 1 69 30
M  V30 71 1 70 31
M  V30 72 1 5 71 CFG=3
M  V30 73 1 32 72 CFG=1
M  V30 74 1 73 33
M  V30 75 1 74 33
M  V30 76 1 75 33
M  V30 77 1 34 76 CFG=3
M  V30 END BOND
M  V30 END CTAB
M  END
>  <i_epik_Tot_Q>  (1) 
0

>  <i_epik_Tot_abs_Q>  (1) 
0

>  <i_i_glide_confnum>  (1) 
5400

>  <i_i_glide_lignum>  (1) 
174

>  <i_i_glide_posenum>  (1) 
398

>  <i_i_glide_rotatable_bonds>  (1) 
18

>  <i_lp_mmshare_version>  (1) 
72125

>  <i_m_source_file_index>  (1) 
76

>  <i_f3d_flags>  (1) 
0

>  <num_sample>  (1) 
100

>  <b_lp_Chiralities_Consistent>  (1) 
1

>  <r_epik_Charging_Adjusted_Penalty>  (1) 
0.60615279515584763

>  <r_epik_Ionization_Penalty>  (1) 
0.6077244911787385

>  <r_epik_Ionization_Penalty_Charging>  (1) 
0

>  <r_epik_Ionization_Penalty_Neutral>  (1) 
0.6077244911787385

>  <r_epik_State_Penalty>  (1) 
0.60615279515584763

>  <r_glide_ring_energy>  (1) 
0

>  <r_i_docking_score>  (1) 
-7.3875235370573931

>  <r_i_glide_ecoul>  (1) 
-7.2634978993895043

>  <r_i_glide_eff_state_penalty>  (1) 
0.60615279515584763

>  <r_i_glide_einternal>  (1) 
6.6551473509921095

>  <r_i_glide_emodel>  (1) 
-76.830344910828728

>  <r_i_glide_emodel_strain>  (1) 
0.26924269439935244

>  <r_i_glide_energy>  (1) 
-57.61698347426448

>  <r_i_glide_erotb>  (1) 
1.0176109525924779

>  <r_i_glide_esite>  (1) 
0

>  <r_i_glide_evdw>  (1) 
-50.353485574874973

>  <r_i_glide_gscore>  (1) 
-7.9936763322132407

>  <r_i_glide_gscore_strain>  (1) 
0

>  <r_i_glide_hbond>  (1) 
-0.45599999999999996

>  <r_i_glide_ligand_efficiency>  (1) 
-0.21107210105878266

>  <r_i_glide_ligand_efficiency_ln>  (1) 
-1.62172537363522

>  <r_i_glide_ligand_efficiency_sa>  (1) 
-0.69043083879410538

>  <r_i_glide_lipo>  (1) 
-4.0205160307080678

>  <r_i_glide_metal>  (1) 
-0

>  <r_i_glide_rewards>  (1) 
-0.92757229044547618

>  <r_lp_Energy>  (1) 
23.807221999999999

>  <r_lp_tautomer_probability>  (1) 
0.99999993999736703

>  <s_epik_Chemistry_Notes>  (1) 
This compound contains an acetal/aminal-like group ( X-CH(R)-Y where X, Y are N, S, or O) that may be acid/base labile, releasing an aldehyde.

>  <s_epik_cmdline>  (1) 
J2VwaWtfcHl0aG9uJywgJy1waHQnLCAnMS4wJywgJy1waCcsICc3LjQnLCAnLXRuJywgJzgnLCAnLW1hJywgJzUwMCcsICctaW1hZScsICc8aW5maWxlLm1hZT4nLCAnLW9tYWUnLCAnPG91dGZpbGUubWFlPic=

>  <s_epik_input>  (1) 
W2NIXTFbY0hdYyhbT0hdKVtjSF1bY0hdYzFbQ0gyXVtDSDJdQyg9TylbQ0BIXShOKFtDSDNdKVtDSDJdW0NIMl1bT0hdKVtDSDJdW0NASF0oT1tDSDNdKVNbQ0gyXVtDQEBIXShbT0hdKVtDQEhdMltDQEBIXShbQ0gzXSlbQ0BIXShbT0hdKVtDSDJdQyhbT0hdKT1DMltDSDNd

>  <s_glide_docking_method>  (1) 
confgen

>  <s_i_glide_gridfile>  (1) 
gpcr_5ht2c_6bqh_protein_autoprepared_prepared

>  <s_lp_Force_Field>  (1) 
S-OPLS

>  <s_lp_Variant>  (1) 
DiffSBDD_75-11

>  <s_m_source_file>  (1) 
generated_GPCR_5HT2C_ligand_DiffSBDD_2026-06-23_prepared.sdf

>  <GenAI_Model>  (1) 
DiffSBDD

>  <Protein>  (1) 
GPCR_5HT2C

$$$$
DiffSBDD_93
     RDKit          3D

  0  0  0  0  0  0  0  0  0  0999 V3000
M  V30 BEGIN CTAB
M  V30 COUNTS 84 85 0 0 1
M  V30 BEGIN ATOM
M  V30 1 C 36.951611 32.541232 61.654864 0
M  V30 2 O 35.820359 31.741169 61.367184 0
M  V30 3 C 41.390536 34.368839 66.092550 0
M  V30 4 C 39.112268 28.835929 53.355680 0
M  V30 5 O 36.446151 33.132437 59.002822 0
M  V30 6 C 40.317202 28.172301 57.547555 0
M  V30 7 N 41.057441 27.085523 57.737806 0
M  V30 8 O 40.440840 29.185378 58.230401 0
M  V30 9 O 40.077117 30.532527 64.640242 0
M  V30 10 C 38.700742 28.908112 51.909203 0
M  V30 11 C 41.095286 33.256238 65.097489 0
M  V30 12 C 38.601331 32.450613 58.169003 0
M  V30 13 C 39.358816 32.183306 60.913171 0
M  V30 14 C 38.742593 29.489548 55.878713 0 CFG=2
M  V30 15 C 39.282079 28.109267 56.404956 0 CFG=2
M  V30 16 C 41.161065 35.289726 63.786226 0 CFG=1
M  V30 17 C 41.182516 33.014898 62.539369 0 CFG=1
M  V30 18 C 42.425675 32.232314 62.168567 0
M  V30 19 C 38.077967 31.875736 56.834816 0
M  V30 20 S 39.686450 30.501093 62.996361 0 CHG=1
M  V30 21 O 37.929176 29.465039 59.134858 0
M  V30 22 N 37.949450 32.498418 60.568475 0
M  V30 23 O 41.006934 29.675611 62.323689 0
M  V30 24 O 40.445744 36.537588 65.823015 0
M  V30 25 F 39.383853 35.103807 62.126898 0
M  V30 26 C 39.820457 29.786829 52.414193 0
M  V30 27 C 37.078164 29.698239 58.029536 0
M  V30 28 C 37.734512 30.339931 56.766429 0 CFG=2
M  V30 29 C 37.569901 32.737303 59.286908 0
M  V30 30 C 38.195468 27.007280 56.630950 0
M  V30 31 C 39.857233 37.234168 62.680423 0
M  V30 32 C 39.816429 32.245560 62.400561 0 CFG=2
M  V30 33 O 39.770775 25.336439 55.987957 0
M  V30 34 C 38.164367 29.353621 54.433569 0
M  V30 35 C 39.794967 35.791583 63.188148 0 CFG=2
M  V30 36 C 38.556403 25.623336 56.069148 0
M  V30 37 C 41.403228 35.667819 65.274985 0 CFG=1
M  V30 38 O 37.606629 24.881801 55.738431 0 CHG=-1
M  V30 39 N 41.418691 33.819178 63.776734 0 CFG=2 CHG=1
M  V30 40 H 37.281804 32.152918 62.603708 0
M  V30 41 H 36.626146 33.566043 61.809255 0
M  V30 42 H 35.578131 31.903863 60.461080 0
M  V30 43 H 40.656096 34.377110 66.900428 0
M  V30 44 H 42.365339 34.216414 66.556721 0
M  V30 45 H 39.603825 27.892734 53.579174 0
M  V30 46 H 40.915568 26.270737 57.135763 0
M  V30 47 H 41.756032 27.066947 58.464054 0
M  V30 48 H 39.440845 29.959691 65.053598 0
M  V30 49 H 38.970587 28.071455 51.266400 0
M  V30 50 H 37.723760 29.334883 51.718798 0
M  V30 51 H 40.045968 32.981058 65.158889 0
M  V30 52 H 41.702982 32.377448 65.314434 0
M  V30 53 H 39.197961 33.344283 57.992614 0
M  V30 54 H 39.244516 31.656040 58.492521 0
M  V30 55 H 39.974792 32.865682 60.329056 0
M  V30 56 H 39.599526 31.195097 60.517348 0
M  V30 57 H 39.639581 30.100673 55.764879 0
M  V30 58 H 39.934319 27.762403 55.608542 0
M  V30 59 H 41.956034 35.731232 63.181662 0
M  V30 60 H 41.198372 33.775979 61.761911 0
M  V30 61 H 42.242298 31.739112 61.219335 0
M  V30 62 H 43.245689 32.923175 62.011169 0
M  V30 63 H 42.725676 31.506822 62.925921 0
M  V30 64 H 37.249377 32.488467 56.493427 0
M  V30 65 H 38.828801 32.089164 56.074945 0
M  V30 66 H 38.787521 29.214936 58.803262 0
M  V30 67 H 41.693817 29.713459 62.972590 0
M  V30 68 H 40.693744 37.416990 65.552729 0
M  V30 69 H 39.634368 30.853127 52.536132 0
M  V30 70 H 40.824126 29.528334 52.084867 0
M  V30 71 H 36.260701 30.322482 58.387259 0
M  V30 72 H 36.606368 28.755813 57.769758 0
M  V30 73 H 36.844601 30.371039 56.137734 0
M  V30 74 H 37.984101 26.887524 57.693732 0
M  V30 75 H 37.249187 27.282089 56.164239 0
M  V30 76 H 40.044587 37.942050 63.484287 0
M  V30 77 H 40.637296 37.335629 61.925919 0
M  V30 78 H 38.911859 37.523655 62.219489 0
M  V30 79 H 39.133984 32.847596 62.989100 0
M  V30 80 H 37.284805 28.709623 54.440343 0
M  V30 81 H 37.805112 30.329920 54.104325 0
M  V30 82 H 38.981191 35.737906 63.904853 0
M  V30 83 H 42.382529 36.137479 65.382969 0
M  V30 84 H 42.428250 33.823999 63.814734 0
M  V30 END ATOM
M  V30 BEGIN BOND
M  V30 1 1 2 1
M  V30 2 1 7 6
M  V30 3 2 8 6
M  V30 4 1 10 4
M  V30 5 1 11 3
M  V30 6 1 15 6
M  V30 7 1 15 14
M  V30 8 1 18 17
M  V30 9 1 19 12
M  V30 10 1 20 9
M  V30 11 1 22 1
M  V30 12 1 22 13
M  V30 13 1 23 20
M  V30 14 1 26 4
M  V30 15 1 26 10
M  V30 16 1 27 21
M  V30 17 1 28 14
M  V30 18 1 28 19
M  V30 19 1 28 27
M  V30 20 2 29 5
M  V30 21 1 29 12
M  V30 22 1 29 22
M  V30 23 1 30 15
M  V30 24 1 32 13
M  V30 25 1 32 17
M  V30 26 1 32 20
M  V30 27 1 34 4
M  V30 28 1 34 14
M  V30 29 1 35 16
M  V30 30 1 35 25
M  V30 31 1 35 31
M  V30 32 1 36 30
M  V30 33 2 36 33
M  V30 34 1 37 3
M  V30 35 1 37 16
M  V30 36 1 37 24
M  V30 37 1 38 36
M  V30 38 1 39 11
M  V30 39 1 39 16
M  V30 40 1 39 17
M  V30 41 1 40 1
M  V30 42 1 41 1
M  V30 43 1 42 2
M  V30 44 1 43 3
M  V30 45 1 44 3
M  V30 46 1 45 4
M  V30 47 1 46 7
M  V30 48 1 47 7
M  V30 49 1 48 9
M  V30 50 1 49 10
M  V30 51 1 50 10
M  V30 52 1 51 11
M  V30 53 1 52 11
M  V30 54 1 53 12
M  V30 55 1 54 12
M  V30 56 1 55 13
M  V30 57 1 56 13
M  V30 58 1 14 57 CFG=3
M  V30 59 1 15 58 CFG=3
M  V30 60 1 16 59 CFG=3
M  V30 61 1 17 60 CFG=3
M  V30 62 1 61 18
M  V30 63 1 62 18
M  V30 64 1 63 18
M  V30 65 1 64 19
M  V30 66 1 65 19
M  V30 67 1 66 21
M  V30 68 1 67 23
M  V30 69 1 68 24
M  V30 70 1 69 26
M  V30 71 1 70 26
M  V30 72 1 71 27
M  V30 73 1 72 27
M  V30 74 1 28 73 CFG=3
M  V30 75 1 74 30
M  V30 76 1 75 30
M  V30 77 1 76 31
M  V30 78 1 77 31
M  V30 79 1 78 31
M  V30 80 1 32 79 CFG=1
M  V30 81 1 80 34
M  V30 82 1 81 34
M  V30 83 1 35 82 CFG=1
M  V30 84 1 37 83 CFG=3
M  V30 85 1 39 84 CFG=1
M  V30 END BOND
M  V30 END CTAB
M  END
>  <i_epik_Tot_Q>  (1) 
1

>  <i_epik_Tot_abs_Q>  (1) 
3

>  <i_i_glide_confnum>  (1) 
7806

>  <i_i_glide_lignum>  (1) 
219

>  <i_i_glide_posenum>  (1) 
11

>  <i_i_glide_rotatable_bonds>  (1) 
24

>  <i_lp_mmshare_version>  (1) 
72125

>  <i_m_source_file_index>  (1) 
94

>  <i_f3d_flags>  (1) 
0

>  <num_sample>  (1) 
100

>  <b_lp_Chiralities_Consistent>  (1) 
1

>  <r_epik_Charging_Adjusted_Penalty>  (1) 
0.90916677635763199

>  <r_epik_Ionization_Penalty>  (1) 
0.45507897092921873

>  <r_epik_Ionization_Penalty_Charging>  (1) 
0.45507471778648678

>  <r_epik_Ionization_Penalty_Neutral>  (1) 
4.2531427319391784e-06

>  <r_epik_State_Penalty>  (1) 
0.45409205857114521

>  <r_glide_ring_energy>  (1) 
0

>  <r_i_docking_score>  (1) 
-7.3812993050865758

>  <r_i_glide_ecoul>  (1) 
-10.855333494334738

>  <r_i_glide_eff_state_penalty>  (1) 
0.45409205857114521

>  <r_i_glide_einternal>  (1) 
40.95415786947725

>  <r_i_glide_emodel>  (1) 
-56.365075696026324

>  <r_i_glide_emodel_strain>  (1) 
4.4888361676942736

>  <r_i_glide_energy>  (1) 
-54.230832079418924

>  <r_i_glide_erotb>  (1) 
0.82188833391367333

>  <r_i_glide_esite>  (1) 
-0.071161426925549609

>  <r_i_glide_evdw>  (1) 
-43.375498585084188

>  <r_i_glide_gscore>  (1) 
-7.8353913636577213

>  <r_i_glide_gscore_strain>  (1) 
0.12220904192356841

>  <r_i_glide_hbond>  (1) 
-0.91136135427112286

>  <r_i_glide_ligand_efficiency>  (1) 
-0.18926408474580964

>  <r_i_glide_ligand_efficiency_ln>  (1) 
-1.5827601016515815

>  <r_i_glide_ligand_efficiency_sa>  (1) 
-0.64183452994159274

>  <r_i_glide_lipo>  (1) 
-2.7718996360796901

>  <r_i_glide_metal>  (1) 
-0

>  <r_i_glide_rewards>  (1) 
-1.2279913688141795

>  <r_lp_Energy>  (1) 
13.939579

>  <s_epik_Chemistry_Notes>  (1) 
This compound contains an acetal/aminal-like group ( X-CH(R)-Y where X, Y are N, S, or O) that may be acid/base labile, releasing an aldehyde.

>  <s_epik_cmdline>  (1) 
J2VwaWtfcHl0aG9uJywgJy1waHQnLCAnMS4wJywgJy1waCcsICc3LjQnLCAnLXRuJywgJzgnLCAnLW1hJywgJzUwMCcsICctaW1hZScsICc8aW5maWxlLm1hZT4nLCAnLW9tYWUnLCAnPG91dGZpbGUubWFlPic=

>  <s_epik_input>  (1) 
W0NIMl0xW0NIMl1bQ0hdMVtDSDJdW0NAQEhdKFtDQEBIXShDKD1PKVtOSDJdKVtDSDJdQyg9TylbT0hdKVtDQEBIXShbQ0gyXVtPSF0pW0NIMl1bQ0gyXUMoPU8pTihbQ0gyXVtPSF0pW0NIMl1bQ0BASF0oW1MrXShbT0hdKVtPSF0pW0NASF0oW0NIM10pTjJbQ0gyXVtDSDJdW0NASF0oW09IXSlbQ0BASF0yW0NASF0oRilbQ0gzXQ==

>  <s_glide_docking_method>  (1) 
confgen

>  <s_i_glide_gridfile>  (1) 
gpcr_5ht2c_6bqh_protein_autoprepared_prepared

>  <s_lp_Force_Field>  (1) 
S-OPLS

>  <s_lp_Variant>  (1) 
DiffSBDD_93-7

>  <s_m_source_file>  (1) 
generated_GPCR_5HT2C_ligand_DiffSBDD_2026-06-23_prepared.sdf

>  <GenAI_Model>  (1) 
DiffSBDD

>  <Protein>  (1) 
GPCR_5HT2C

$$$$
DiffSBDD_83
     RDKit          3D

  0  0  0  0  0  0  0  0  0  0999 V3000
M  V30 BEGIN CTAB
M  V30 COUNTS 54 55 0 0 1
M  V30 BEGIN ATOM
M  V30 1 C 41.259566 34.594750 63.493429 0
M  V30 2 C 37.741843 30.538417 59.126837 0
M  V30 3 N 36.845154 31.553795 58.967777 0
M  V30 4 O 37.479295 27.750993 53.647807 0
M  V30 5 O 42.045321 34.953954 64.557866 0
M  V30 6 C 39.245414 35.415366 62.224980 0
M  V30 7 C 38.129571 36.419904 62.003608 0
M  V30 8 C 38.961103 29.056247 52.624771 0
M  V30 9 C 38.829858 25.332516 55.532994 0
M  V30 10 C 40.144238 35.574589 63.237796 0
M  V30 11 C 37.756413 29.344692 58.232814 0
M  V30 12 C 38.478897 33.014441 61.729342 0
M  V30 13 N 36.983482 32.542535 59.858797 0
M  V30 14 O 41.426585 35.737755 65.625894 0
M  V30 15 C 38.363796 28.423162 55.882450 0 CFG=1
M  V30 16 C 40.383078 27.535205 57.266465 0
M  V30 17 C 38.191235 28.023386 52.552820 0
M  V30 18 O 41.470814 33.587058 62.822870 0
M  V30 19 C 37.891827 28.879018 54.464829 0 CFG=1
M  V30 20 C 38.527431 30.873619 60.188391 0
M  V30 21 O 38.905002 29.687849 53.802941 0
M  V30 22 C 39.846178 26.400401 55.098987 0
M  V30 23 C 39.777019 27.748992 55.862704 0 CFG=1
M  V30 24 C 38.012884 32.144844 60.606644 0
M  V30 25 Cl 39.969929 29.576552 51.325716 0
M  V30 26 C 39.264727 34.245227 61.234824 0
M  V30 27 C 38.268275 29.662914 56.814983 0
M  V30 28 H 36.134424 31.600540 58.223913 0
M  V30 29 H 37.159611 35.923752 62.048456 0
M  V30 30 H 38.141193 37.205297 62.759996 0
M  V30 31 H 38.231027 36.890942 61.025523 0
M  V30 32 H 38.984604 24.415715 54.967700 0
M  V30 33 H 38.925001 25.087224 56.590574 0
M  V30 34 H 37.803579 25.645262 55.344094 0
M  V30 35 H 40.060668 36.432397 63.885139 0
M  V30 36 H 38.353113 28.564156 58.699857 0
M  V30 37 H 36.745697 28.939958 58.167486 0
M  V30 38 H 39.061168 32.443368 62.452244 0
M  V30 39 H 37.580148 33.337801 62.242098 0
M  V30 40 H 41.645682 36.625929 65.357537 0
M  V30 41 H 37.645104 27.693460 56.240021 0
M  V30 42 H 39.753564 26.896685 57.885818 0
M  V30 43 H 41.363071 27.060341 57.203303 0
M  V30 44 H 40.536638 28.474819 57.796111 0
M  V30 45 H 38.044919 27.341181 51.727353 0
M  V30 46 H 36.993605 29.496320 54.537750 0
M  V30 47 H 39.347181 30.307002 60.603469 0
M  V30 48 H 39.750831 26.562801 54.029160 0
M  V30 49 H 40.845143 25.980954 55.213401 0
M  V30 50 H 40.450564 28.443933 55.367786 0
M  V30 51 H 38.769219 34.621704 60.338587 0
M  V30 52 H 40.253640 33.986060 60.864091 0
M  V30 53 H 37.588825 30.410427 56.402945 0
M  V30 54 H 39.234394 30.166646 56.861121 0
M  V30 END ATOM
M  V30 BEGIN BOND
M  V30 1 1 3 2
M  V30 2 1 5 1
M  V30 3 1 7 6
M  V30 4 1 10 1
M  V30 5 2 10 6
M  V30 6 1 11 2
M  V30 7 1 13 3
M  V30 8 1 14 5
M  V30 9 1 17 4
M  V30 10 2 17 8
M  V30 11 2 18 1
M  V30 12 1 19 4
M  V30 13 1 19 15
M  V30 14 2 20 2
M  V30 15 1 21 8
M  V30 16 1 21 19
M  V30 17 1 22 9
M  V30 18 1 23 15
M  V30 19 1 23 16
M  V30 20 1 23 22
M  V30 21 1 24 12
M  V30 22 2 24 13
M  V30 23 1 24 20
M  V30 24 1 25 8
M  V30 25 1 26 6
M  V30 26 1 26 12
M  V30 27 1 27 11
M  V30 28 1 27 15
M  V30 29 1 28 3
M  V30 30 1 29 7
M  V30 31 1 30 7
M  V30 32 1 31 7
M  V30 33 1 32 9
M  V30 34 1 33 9
M  V30 35 1 34 9
M  V30 36 1 35 10
M  V30 37 1 36 11
M  V30 38 1 37 11
M  V30 39 1 38 12
M  V30 40 1 39 12
M  V30 41 1 40 14
M  V30 42 1 15 41 CFG=1
M  V30 43 1 42 16
M  V30 44 1 43 16
M  V30 45 1 44 16
M  V30 46 1 45 17
M  V30 47 1 19 46 CFG=1
M  V30 48 1 47 20
M  V30 49 1 48 22
M  V30 50 1 49 22
M  V30 51 1 23 50 CFG=3
M  V30 52 1 51 26
M  V30 53 1 52 26
M  V30 54 1 53 27
M  V30 55 1 54 27
M  V30 END BOND
M  V30 END CTAB
M  END
>  <i_epik_Tot_Q>  (1) 
0

>  <i_epik_Tot_abs_Q>  (1) 
0

>  <i_i_glide_confnum>  (1) 
1329

>  <i_i_glide_lignum>  (1) 
190

>  <i_i_glide_posenum>  (1) 
400

>  <i_i_glide_rotatable_bonds>  (1) 
12

>  <i_lp_mmshare_version>  (1) 
72125

>  <i_m_source_file_index>  (1) 
84

>  <i_f3d_flags>  (1) 
0

>  <num_sample>  (1) 
100

>  <b_lp_Chiralities_Consistent>  (1) 
1

>  <r_epik_Charging_Adjusted_Penalty>  (1) 
0.41067983895260396

>  <r_epik_Ionization_Penalty>  (1) 
0.00076996626271645392

>  <r_epik_Ionization_Penalty_Charging>  (1) 
0

>  <r_epik_Ionization_Penalty_Neutral>  (1) 
0.00076996626271645392

>  <r_epik_State_Penalty>  (1) 
0.41067983895260396

>  <r_glide_ring_energy>  (1) 
0

>  <r_i_docking_score>  (1) 
-7.3788961126560739

>  <r_i_glide_ecoul>  (1) 
-10.597947169980833

>  <r_i_glide_eff_state_penalty>  (1) 
0.41067983895260396

>  <r_i_glide_einternal>  (1) 
10.734839127884861

>  <r_i_glide_emodel>  (1) 
-63.935175726904561

>  <r_i_glide_emodel_strain>  (1) 
0

>  <r_i_glide_energy>  (1) 
-49.064021821657867

>  <r_i_glide_erotb>  (1) 
1.1080255732668134

>  <r_i_glide_esite>  (1) 
-0.12629053022270506

>  <r_i_glide_evdw>  (1) 
-38.466074651677033

>  <r_i_glide_gscore>  (1) 
-7.7895759516086782

>  <r_i_glide_gscore_strain>  (1) 
0

>  <r_i_glide_hbond>  (1) 
-0.45599999999999996

>  <r_i_glide_ligand_efficiency>  (1) 
-0.27329244861689161

>  <r_i_glide_ligand_efficiency_ln>  (1) 
-1.7176853644164052

>  <r_i_glide_ligand_efficiency_sa>  (1) 
-0.81987734585067507

>  <r_i_glide_lipo>  (1) 
-3.1817800047440152

>  <r_i_glide_metal>  (1) 
-0

>  <r_i_glide_rewards>  (1) 
-1.6205351818277949

>  <r_lp_Energy>  (1) 
15.920629999999999

>  <r_lp_tautomer_probability>  (1) 
0.5

>  <s_epik_Chemistry_Notes>  (1) 
This compound contains an acetal/aminal-like group ( X-CH(R)-Y where X, Y are N, S, or O) that may be acid/base labile, releasing an aldehyde.

>  <s_epik_cmdline>  (1) 
J2VwaWtfcHl0aG9uJywgJy1waHQnLCAnMS4wJywgJy1waCcsICc3LjQnLCAnLXRuJywgJzgnLCAnLW1hJywgJzUwMCcsICctaW1hZScsICc8aW5maWxlLm1hZT4nLCAnLW9tYWUnLCAnPG91dGZpbGUubWFlPic=

>  <s_epik_input>  (1) 
W09IXU9DKD1PKVxbQ0hdPUMoXFtDSDNdKVtDSDJdW0NIMl1jKFtjSF0xKW5bbkhdYzFbQ0gyXVtDSDJdW0NASF0oW0NAQEhdKFtDSDNdKVtDSDJdW0NIM10pW0NAQEhdKE8yKU9bQ0hdPUMyQ2w=

>  <s_glide_docking_method>  (1) 
confgen

>  <s_i_glide_gridfile>  (1) 
gpcr_5ht2c_6bqh_protein_autoprepared_prepared

>  <s_lp_Force_Field>  (1) 
S-OPLS

>  <s_lp_Variant>  (1) 
DiffSBDD_83-1

>  <s_m_source_file>  (1) 
generated_GPCR_5HT2C_ligand_DiffSBDD_2026-06-23_prepared.sdf

>  <GenAI_Model>  (1) 
DiffSBDD

>  <Protein>  (1) 
GPCR_5HT2C

$$$$
DiffSBDD_75
     RDKit          3D

  0  0  0  0  0  0  0  0  0  0999 V3000
M  V30 BEGIN CTAB
M  V30 COUNTS 77 78 0 0 1
M  V30 BEGIN ATOM
M  V30 1 C 39.967654 29.427348 62.171912 0
M  V30 2 C 37.544698 31.208865 60.004985 0
M  V30 3 O 40.768827 27.259983 57.321558 0
M  V30 4 C 41.791164 29.054469 64.545772 0
M  V30 5 C 37.927560 26.674135 56.562343 0 CFG=2
M  V30 6 C 39.551357 35.044403 61.521602 0
M  V30 7 C 39.974095 28.363786 56.922808 0 CFG=2
M  V30 8 C 40.023692 36.200911 62.170358 0
M  V30 9 O 39.005594 24.537729 56.762461 0
M  V30 10 C 38.714372 28.051016 54.644531 0 CFG=2
M  V30 11 O 37.324146 38.580554 61.367180 0
M  V30 12 S 39.373817 28.565713 59.696365 0
M  V30 13 C 41.487759 27.550462 64.615895 0
M  V30 14 C 38.048560 37.424317 61.420094 0
M  V30 15 C 39.858172 29.333489 58.121751 0
M  V30 16 C 40.356926 33.768144 61.576929 0
M  V30 17 C 38.326501 35.077761 60.822318 0
M  V30 18 O 39.645138 26.937222 52.724562 0
M  V30 19 C 39.076154 29.439885 54.074309 0
M  V30 20 C 38.621952 28.016147 56.191711 0 CFG=1
M  V30 21 O 42.688588 26.808010 64.575822 0
M  V30 22 O 38.135171 30.551354 61.116937 0
M  V30 23 O 42.048553 31.636933 62.600294 0
M  V30 24 C 40.544707 30.805212 65.756178 0
M  V30 25 N 40.539743 29.861166 64.612035 0 CFG=1 CHG=1
M  V30 26 C 40.866722 31.691389 62.924023 0
M  V30 27 C 39.274326 37.388402 62.122704 0
M  V30 28 C 40.136129 33.028691 62.901775 0
M  V30 29 C 40.046279 30.452438 63.325133 0 CFG=1
M  V30 30 C 37.577026 36.267607 60.770449 0
M  V30 31 C 39.041585 25.496918 54.567764 0
M  V30 32 C 39.401504 29.960798 60.846548 0 CFG=1
M  V30 33 C 37.576627 26.549891 58.015992 0
M  V30 34 C 39.585836 26.875673 54.136881 0 CFG=2
M  V30 35 C 38.691258 25.476348 56.036111 0
M  V30 36 H 40.949529 29.005067 61.967166 0
M  V30 37 H 39.348405 28.588977 62.487004 0
M  V30 38 H 36.642271 31.727582 60.324082 0
M  V30 39 H 38.217817 31.945907 59.567971 0
M  V30 40 H 37.253173 30.498825 59.230425 0
M  V30 41 H 41.084459 26.789545 56.565862 0
M  V30 42 H 42.375113 29.281812 63.655459 0
M  V30 43 H 42.443551 29.310902 65.381270 0
M  V30 44 H 40.603138 28.897376 56.213583 0
M  V30 45 H 40.963406 36.176308 62.705689 0
M  V30 46 H 38.115998 25.283869 54.033217 0
M  V30 47 H 37.705692 27.869699 54.267469 0
M  V30 48 H 36.584124 38.560009 60.777036 0
M  V30 49 H 40.946363 27.305792 65.530937 0
M  V30 50 H 40.865235 27.239697 63.777814 0
M  V30 51 H 39.206473 30.174294 57.885560 0
M  V30 52 H 40.848539 29.737755 58.308528 0
M  V30 53 H 40.078705 33.134690 60.733837 0
M  V30 54 H 41.412465 34.012548 61.446165 0
M  V30 55 H 37.963245 34.191772 60.324897 0
M  V30 56 H 40.087692 26.168492 52.397999 0
M  V30 57 H 40.102340 29.737970 54.278370 0
M  V30 58 H 38.944023 29.463949 52.990619 0
M  V30 59 H 38.418563 30.206677 54.485416 0
M  V30 60 H 37.918384 28.812065 56.442575 0
M  V30 61 H 43.204302 26.996962 65.346186 0
M  V30 62 H 41.398108 31.483824 65.710610 0
M  V30 63 H 39.644106 31.410235 65.767765 0
M  V30 64 H 40.593395 30.262829 66.701297 0
M  V30 65 H 39.645132 38.273893 62.617323 0
M  V30 66 H 40.487935 33.633373 63.738259 0
M  V30 67 H 39.068732 32.863342 63.051383 0
M  V30 68 H 39.022424 30.771335 63.518735 0
M  V30 69 H 36.641569 36.292060 60.230823 0
M  V30 70 H 39.766112 24.709094 54.373405 0
M  V30 71 H 36.982524 26.636514 56.023075 0
M  V30 72 H 40.076215 30.715516 60.442504 0
M  V30 73 H 36.767706 25.836562 58.167486 0
M  V30 74 H 38.421692 26.252213 58.635760 0
M  V30 75 H 37.245137 27.546552 58.288848 0
M  V30 76 H 40.589549 26.937688 54.547486 0
M  V30 77 H 39.813041 29.188766 64.837461 0
M  V30 END ATOM
M  V30 BEGIN BOND
M  V30 1 1 7 3
M  V30 2 1 8 6
M  V30 3 1 13 4
M  V30 4 1 14 11
M  V30 5 1 15 7
M  V30 6 1 15 12
M  V30 7 1 16 6
M  V30 8 2 17 6
M  V30 9 1 19 10
M  V30 10 1 20 5
M  V30 11 1 20 7
M  V30 12 1 20 10
M  V30 13 1 21 13
M  V30 14 1 22 2
M  V30 15 1 25 4
M  V30 16 1 25 24
M  V30 17 2 26 23
M  V30 18 2 27 8
M  V30 19 1 27 14
M  V30 20 1 28 16
M  V30 21 1 28 26
M  V30 22 1 29 1
M  V30 23 1 29 25
M  V30 24 1 29 26
M  V30 25 2 30 14
M  V30 26 1 30 17
M  V30 27 1 32 1
M  V30 28 1 32 12
M  V30 29 1 32 22
M  V30 30 1 33 5
M  V30 31 1 34 10
M  V30 32 1 34 18
M  V30 33 1 34 31
M  V30 34 1 35 5
M  V30 35 2 35 9
M  V30 36 1 35 31
M  V30 37 1 36 1
M  V30 38 1 37 1
M  V30 39 1 38 2
M  V30 40 1 39 2
M  V30 41 1 40 2
M  V30 42 1 41 3
M  V30 43 1 42 4
M  V30 44 1 43 4
M  V30 45 1 7 44 CFG=3
M  V30 46 1 45 8
M  V30 47 1 46 31
M  V30 48 1 10 47 CFG=3
M  V30 49 1 48 11
M  V30 50 1 49 13
M  V30 51 1 50 13
M  V30 52 1 51 15
M  V30 53 1 52 15
M  V30 54 1 53 16
M  V30 55 1 54 16
M  V30 56 1 55 17
M  V30 57 1 56 18
M  V30 58 1 57 19
M  V30 59 1 58 19
M  V30 60 1 59 19
M  V30 61 1 20 60 CFG=1
M  V30 62 1 61 21
M  V30 63 1 62 24
M  V30 64 1 63 24
M  V30 65 1 64 24
M  V30 66 1 65 27
M  V30 67 1 66 28
M  V30 68 1 67 28
M  V30 69 1 29 68 CFG=1
M  V30 70 1 69 30
M  V30 71 1 70 31
M  V30 72 1 5 71 CFG=3
M  V30 73 1 32 72 CFG=3
M  V30 74 1 73 33
M  V30 75 1 74 33
M  V30 76 1 75 33
M  V30 77 1 34 76 CFG=1
M  V30 78 1 25 77 CFG=1
M  V30 END BOND
M  V30 END CTAB
M  END
>  <i_epik_Tot_Q>  (1) 
1

>  <i_epik_Tot_abs_Q>  (1) 
1

>  <i_i_glide_confnum>  (1) 
938

>  <i_i_glide_lignum>  (1) 
167

>  <i_i_glide_posenum>  (1) 
389

>  <i_i_glide_rotatable_bonds>  (1) 
18

>  <i_lp_mmshare_version>  (1) 
72125

>  <i_m_source_file_index>  (1) 
76

>  <i_f3d_flags>  (1) 
0

>  <num_sample>  (1) 
100

>  <b_lp_Chiralities_Consistent>  (1) 
1

>  <r_epik_Charging_Adjusted_Penalty>  (1) 
0.52789471212939676

>  <r_epik_Ionization_Penalty>  (1) 
0.26592108790513191

>  <r_epik_Ionization_Penalty_Charging>  (1) 
0.26394735606469838

>  <r_epik_Ionization_Penalty_Neutral>  (1) 
0.0019737318404335234

>  <r_epik_State_Penalty>  (1) 
0.26394735606469838

>  <r_glide_ring_energy>  (1) 
0

>  <r_i_docking_score>  (1) 
-7.3739656476183475

>  <r_i_glide_ecoul>  (1) 
-6.6975520887654572

>  <r_i_glide_eff_state_penalty>  (1) 
0.26394735606469838

>  <r_i_glide_einternal>  (1) 
5.7739526274140935

>  <r_i_glide_emodel>  (1) 
-72.981879487612446

>  <r_i_glide_emodel_strain>  (1) 
0.20223611511182327

>  <r_i_glide_energy>  (1) 
-51.205479409392083

>  <r_i_glide_erotb>  (1) 
1.0139394581015995

>  <r_i_glide_esite>  (1) 
-0.034170343313200235

>  <r_i_glide_evdw>  (1) 
-44.507927320626628

>  <r_i_glide_gscore>  (1) 
-7.637913003683046

>  <r_i_glide_gscore_strain>  (1) 
0

>  <r_i_glide_hbond>  (1) 
-0.11967452595810298

>  <r_i_glide_ligand_efficiency>  (1) 
-0.21068473278909564

>  <r_i_glide_ligand_efficiency_ln>  (1) 
-1.6187491160022054

>  <r_i_glide_ligand_efficiency_sa>  (1) 
-0.68916373149749621

>  <r_i_glide_lipo>  (1) 
-4.1703545897211383

>  <r_i_glide_metal>  (1) 
-0

>  <r_i_glide_rewards>  (1) 
-1.0976238234460538

>  <r_lp_Energy>  (1) 
30.915486999999999

>  <r_lp_tautomer_probability>  (1) 
0.99989998499911525

>  <s_epik_Chemistry_Notes>  (1) 
This compound contains an acetal/aminal-like group ( X-CH(R)-Y where X, Y are N, S, or O) that may be acid/base labile, releasing an aldehyde.

>  <s_epik_cmdline>  (1) 
J2VwaWtfcHl0aG9uJywgJy1waHQnLCAnMS4wJywgJy1waCcsICc3LjQnLCAnLXRuJywgJzgnLCAnLW1hJywgJzUwMCcsICctaW1hZScsICc8aW5maWxlLm1hZT4nLCAnLW9tYWUnLCAnPG91dGZpbGUubWFlPic=

>  <s_epik_input>  (1) 
W2NIXTFbY0hdYyhbT0hdKVtjSF1bY0hdYzFbQ0gyXVtDSDJdQyg9TylbQ0BIXShOKFtDSDNdKVtDSDJdW0NIMl1bT0hdKVtDSDJdW0NASF0oT1tDSDNdKVNbQ0gyXVtDQEBIXShbT0hdKVtDQEhdMltDQEBIXShbQ0gzXSlbQ0BIXShbT0hdKVtDSDJdQyhbT0hdKT1DMltDSDNd

>  <s_glide_docking_method>  (1) 
confgen

>  <s_i_glide_gridfile>  (1) 
gpcr_5ht2c_6bqh_protein_autoprepared_prepared

>  <s_lp_Force_Field>  (1) 
S-OPLS

>  <s_lp_Variant>  (1) 
DiffSBDD_75-4

>  <s_m_source_file>  (1) 
generated_GPCR_5HT2C_ligand_DiffSBDD_2026-06-23_prepared.sdf

>  <GenAI_Model>  (1) 
DiffSBDD

>  <Protein>  (1) 
GPCR_5HT2C

$$$$
DiffSBDD_16
     RDKit          3D

  0  0  0  0  0  0  0  0  0  0999 V3000
M  V30 BEGIN CTAB
M  V30 COUNTS 70 74 0 0 1
M  V30 BEGIN ATOM
M  V30 1 C 40.200401 32.620231 61.477510 0
M  V30 2 C 38.875087 27.046246 53.182986 0
M  V30 3 C 38.576031 32.240902 57.081388 0 CFG=1
M  V30 4 C 38.325226 32.232118 55.589085 0
M  V30 5 C 41.161357 30.895499 62.938357 0
M  V30 6 C 42.026086 31.849032 63.501403 0
M  V30 7 C 35.660195 31.704401 60.977191 0
M  V30 8 C 34.979442 33.071873 61.150338 0
M  V30 9 C 37.902437 33.450215 57.714757 0
M  V30 10 C 41.996885 33.176803 63.046505 0
M  V30 11 O 37.651086 31.338075 62.167784 0
M  V30 12 C 38.972900 28.526146 55.083739 0
M  V30 13 C 39.010767 29.747751 55.678552 0
M  V30 14 C 39.018931 29.864961 57.192719 0
M  V30 15 C 38.962587 28.260111 53.640521 0
M  V30 16 C 40.256234 31.274361 61.926509 0
M  V30 17 N 38.835714 26.937757 51.825926 0
M  V30 18 C 39.889007 29.744648 49.954419 0
M  V30 19 N 38.126309 30.949092 57.624573 0 CHG=1
M  V30 20 C 40.366759 30.540333 51.106838 0
M  V30 21 C 41.202898 29.459521 63.418516 0
M  V30 22 C 34.808260 33.774028 59.797093 0
M  V30 23 C 36.724925 35.515097 60.119776 0
M  V30 24 C 36.127145 34.361344 59.288313 0 CFG=1
M  V30 25 C 39.252535 33.068898 60.399248 0
M  V30 26 C 37.108345 33.213405 58.999220 0 CFG=2
M  V30 27 C 37.160433 31.861055 61.191751 0
M  V30 28 C 38.981039 29.282983 52.574162 0 CFG=2
M  V30 29 C 37.931473 32.709339 60.203346 0
M  V30 30 C 38.995613 28.157874 51.505938 0
M  V30 31 N 40.073712 30.239586 52.325262 0
M  V30 32 C 41.097416 33.559932 62.032665 0
M  V30 33 C 39.061501 31.086481 54.918319 0
M  V30 34 C 39.244980 28.588262 50.159095 0
M  V30 35 H 38.822876 26.149514 53.785576 0
M  V30 36 H 39.645128 32.337125 57.255918 0
M  V30 37 H 38.627878 33.178277 55.136968 0
M  V30 38 H 37.252670 32.136437 55.398156 0
M  V30 39 H 42.719409 31.560191 64.278723 0
M  V30 40 H 35.424186 31.230444 60.026226 0
M  V30 41 H 35.281076 31.028008 61.741165 0
M  V30 42 H 34.045141 32.938997 61.660988 0
M  V30 43 H 35.527544 33.705570 61.848763 0
M  V30 44 H 38.699353 34.137730 57.897495 0
M  V30 45 H 37.255543 33.921673 56.975624 0
M  V30 46 H 42.664858 33.907162 63.475548 0
M  V30 47 H 38.942490 27.664717 55.737350 0
M  V30 48 H 38.692025 28.930771 57.651712 0
M  V30 49 H 40.038285 30.044109 57.536681 0
M  V30 50 H 39.618443 30.528253 61.484861 0
M  V30 51 H 40.115358 30.117160 48.971289 0
M  V30 52 H 38.132157 31.000371 58.631095 0
M  V30 53 H 40.990496 31.394473 50.856766 0
M  V30 54 H 40.435903 28.855731 62.932251 0
M  V30 55 H 42.174054 29.013608 63.204645 0
M  V30 56 H 41.029420 29.413338 64.494741 0
M  V30 57 H 34.421999 33.052332 59.075036 0
M  V30 58 H 34.044337 34.537715 59.768232 0
M  V30 59 H 36.964348 35.225362 61.142962 0
M  V30 60 H 37.644655 35.878551 59.664609 0
M  V30 61 H 36.045057 36.363660 60.167756 0
M  V30 62 H 35.838434 34.805352 58.342162 0
M  V30 63 H 39.684161 33.758008 59.692626 0
M  V30 64 H 36.471927 32.396367 58.687264 0
M  V30 65 H 38.000240 29.737635 52.567639 0
M  V30 66 H 41.081246 34.584949 61.690156 0
M  V30 67 H 40.103303 31.365367 54.759133 0
M  V30 68 H 38.530681 31.107710 53.985008 0
M  V30 69 H 38.907119 27.951707 49.367762 0
M  V30 70 H 37.171593 30.801898 57.306873 0
M  V30 END ATOM
M  V30 BEGIN BOND
M  V30 1 1 4 3
M  V30 2 1 6 5
M  V30 3 1 8 7
M  V30 4 1 9 3
M  V30 5 2 10 6
M  V30 6 2 13 12
M  V30 7 1 14 13
M  V30 8 2 15 2
M  V30 9 1 15 12
M  V30 10 1 16 1
M  V30 11 2 16 5
M  V30 12 1 17 2
M  V30 13 1 19 3
M  V30 14 1 19 14
M  V30 15 1 20 18
M  V30 16 1 21 5
M  V30 17 1 22 8
M  V30 18 1 24 22
M  V30 19 1 24 23
M  V30 20 1 25 1
M  V30 21 1 26 9
M  V30 22 1 26 24
M  V30 23 1 27 7
M  V30 24 2 27 11
M  V30 25 1 28 15
M  V30 26 2 29 25
M  V30 27 1 29 26
M  V30 28 1 29 27
M  V30 29 2 30 17
M  V30 30 1 30 28
M  V30 31 2 31 20
M  V30 32 1 31 28
M  V30 33 2 32 1
M  V30 34 1 32 10
M  V30 35 1 33 4
M  V30 36 1 33 13
M  V30 37 2 34 18
M  V30 38 1 34 30
M  V30 39 1 35 2
M  V30 40 1 3 36 CFG=3
M  V30 41 1 37 4
M  V30 42 1 38 4
M  V30 43 1 39 6
M  V30 44 1 40 7
M  V30 45 1 41 7
M  V30 46 1 42 8
M  V30 47 1 43 8
M  V30 48 1 44 9
M  V30 49 1 45 9
M  V30 50 1 46 10
M  V30 51 1 47 12
M  V30 52 1 48 14
M  V30 53 1 49 14
M  V30 54 1 50 16
M  V30 55 1 51 18
M  V30 56 1 52 19
M  V30 57 1 53 20
M  V30 58 1 54 21
M  V30 59 1 55 21
M  V30 60 1 56 21
M  V30 61 1 57 22
M  V30 62 1 58 22
M  V30 63 1 59 23
M  V30 64 1 60 23
M  V30 65 1 61 23
M  V30 66 1 24 62 CFG=3
M  V30 67 1 63 25
M  V30 68 1 26 64 CFG=3
M  V30 69 1 28 65 CFG=3
M  V30 70 1 66 32
M  V30 71 1 67 33
M  V30 72 1 68 33
M  V30 73 1 69 34
M  V30 74 1 70 19
M  V30 END BOND
M  V30 END CTAB
M  END
>  <i_epik_Tot_Q>  (1) 
1

>  <i_epik_Tot_abs_Q>  (1) 
1

>  <i_i_glide_confnum>  (1) 
47

>  <i_i_glide_lignum>  (1) 
34

>  <i_i_glide_posenum>  (1) 
380

>  <i_i_glide_rotatable_bonds>  (1) 
4

>  <i_lp_mmshare_version>  (1) 
72125

>  <i_m_source_file_index>  (1) 
17

>  <i_f3d_flags>  (1) 
0

>  <num_sample>  (1) 
100

>  <b_lp_Chiralities_Consistent>  (1) 
1

>  <r_epik_Charging_Adjusted_Penalty>  (1) 
0.57808156404405586

>  <r_epik_Ionization_Penalty>  (1) 
0.28904078202202793

>  <r_epik_Ionization_Penalty_Charging>  (1) 
0.28904078202202793

>  <r_epik_Ionization_Penalty_Neutral>  (1) 
0

>  <r_epik_State_Penalty>  (1) 
0.28904078202202793

>  <r_glide_ring_energy>  (1) 
0

>  <r_i_docking_score>  (1) 
-7.366591671910844

>  <r_i_glide_ecoul>  (1) 
-4.44785550399894

>  <r_i_glide_eff_state_penalty>  (1) 
0.28904078202202793

>  <r_i_glide_einternal>  (1) 
36.263772915889938

>  <r_i_glide_emodel>  (1) 
-39.880661324514193

>  <r_i_glide_emodel_strain>  (1) 
2.6066512967821041

>  <r_i_glide_energy>  (1) 
-42.345887850569461

>  <r_i_glide_erotb>  (1) 
0.29147875755417113

>  <r_i_glide_esite>  (1) 
-0.10755324802314231

>  <r_i_glide_evdw>  (1) 
-37.898032346570524

>  <r_i_glide_gscore>  (1) 
-7.6556324539328715

>  <r_i_glide_gscore_strain>  (1) 
0

>  <r_i_glide_hbond>  (1) 
-0.38634472074159093

>  <r_i_glide_ligand_efficiency>  (1) 
-0.21666446093855424

>  <r_i_glide_ligand_efficiency_ln>  (1) 
-1.6274867262226169

>  <r_i_glide_ligand_efficiency_sa>  (1) 
-0.70190874457396468

>  <r_i_glide_lipo>  (1) 
-2.7975841858327279

>  <r_i_glide_metal>  (1) 
-0

>  <r_i_glide_rewards>  (1) 
-2.0935491139612141

>  <r_lp_Energy>  (1) 
65.165018000000003

>  <s_epik_Chemistry_Notes>  (1) 
This compound has an imine and may undergo hydrolysis.

>  <s_epik_cmdline>  (1) 
J2VwaWtfcHl0aG9uJywgJy1waHQnLCAnMS4wJywgJy1waCcsICc3LjQnLCAnLXRuJywgJzgnLCAnLW1hJywgJzUwMCcsICctaW1hZScsICc8aW5maWxlLm1hZT4nLCAnLW9tYWUnLCAnPG91dGZpbGUubWFlPic=

>  <s_epik_input>  (1) 
W2NIXTFbY0hdW2NIXWMoW0NIM10pW2NIXWMxL1tDSF09QyhDKD1PKVtDSDJdW0NIMl1bQ0gyXVtDQEhdMltDSDNdKS9bQ0BASF0yW0NIMl1bQ0BASF0zW0NIMl1bQ0gyXUMoL1tDSDJdW05IXTMpPVtDSF1cQzQ9W0NIXU49QyhbQ0BASF00NSlbQ0hdPVtDSF1bQ0hdPU41

>  <s_glide_docking_method>  (1) 
confgen

>  <s_i_glide_gridfile>  (1) 
gpcr_5ht2c_6bqh_protein_autoprepared_prepared

>  <s_lp_Force_Field>  (1) 
S-OPLS

>  <s_lp_Variant>  (1) 
DiffSBDD_16-2

>  <s_m_source_file>  (1) 
generated_GPCR_5HT2C_ligand_DiffSBDD_2026-06-23_prepared.sdf

>  <GenAI_Model>  (1) 
DiffSBDD

>  <Protein>  (1) 
GPCR_5HT2C

$$$$
DiffSBDD_17
     RDKit          3D

  0  0  0  0  0  0  0  0  0  0999 V3000
M  V30 BEGIN CTAB
M  V30 COUNTS 82 87 0 0 1
M  V30 BEGIN ATOM
M  V30 1 C 39.096690 35.680151 62.784379 0 CFG=1
M  V30 2 C 39.485263 34.372504 62.028619 0 CFG=1
M  V30 3 C 39.018493 31.229671 61.096879 0
M  V30 4 C 37.939627 24.610686 55.679689 0
M  V30 5 N 39.049343 26.760610 55.861872 0
M  V30 6 C 38.933160 27.940325 55.166147 0
M  V30 7 O 38.565180 33.268976 62.280312 0
M  V30 8 C 39.691175 34.749203 60.552364 0
M  V30 9 C 34.333122 33.204710 60.689211 0
M  V30 10 C 40.195546 30.588147 54.350034 0
M  V30 11 C 37.882835 29.227080 57.119077 0
M  V30 12 O 35.229496 34.137744 60.152693 0
M  V30 13 C 38.712869 29.217961 55.970700 0
M  V30 14 O 38.524076 34.937747 59.767770 0
M  V30 15 C 37.692312 30.445667 57.765775 0
M  V30 16 C 39.268424 26.658711 57.316268 0
M  V30 17 C 36.829895 30.622748 58.969315 0
M  V30 18 N 37.246832 32.865278 60.442049 0 CHG=1
M  V30 19 N 39.073435 31.631885 56.209710 0
M  V30 20 C 37.001760 32.218455 59.099386 0 CFG=1
M  V30 21 C 39.493702 30.937754 53.036926 0
M  V30 22 C 38.282423 31.565725 57.287020 0
M  V30 23 C 39.281222 30.473904 55.552540 0
M  V30 24 C 40.808117 33.867113 62.592225 0
M  V30 25 C 36.630337 35.903112 58.967759 0
M  V30 26 C 41.645323 34.603482 63.331944 0
M  V30 27 C 39.086966 25.484633 55.151410 0
M  V30 28 C 36.483511 34.131951 60.732366 0 CFG=1
M  V30 29 C 40.249859 36.692794 62.921780 0
M  V30 30 C 37.726391 36.333347 62.567816 0
M  V30 31 C 41.423483 36.053933 63.677604 0
M  V30 32 C 38.191823 25.748418 57.941217 0
M  V30 33 C 38.015203 32.791032 58.014080 0
M  V30 34 C 38.084293 24.403338 57.197404 0
M  V30 35 C 37.357381 36.620562 61.145120 0
M  V30 36 C 38.202648 32.484290 61.235205 0
M  V30 37 O 38.976884 27.988032 53.937453 0
M  V30 38 C 37.279932 35.386587 60.233674 0 CFG=1
M  V30 39 H 38.998308 35.337756 63.767746 0
M  V30 40 H 39.342673 31.069795 60.070341 0
M  V30 41 H 39.907538 31.261351 61.718160 0
M  V30 42 H 37.925857 23.656012 55.157082 0
M  V30 43 H 36.985304 25.092577 55.461590 0
M  V30 44 H 40.336159 35.614929 60.426116 0
M  V30 45 H 40.227192 33.935037 60.081222 0
M  V30 46 H 33.364455 33.337749 60.205870 0
M  V30 47 H 34.650009 32.178355 60.507573 0
M  V30 48 H 34.206819 33.337767 61.764179 0
M  V30 49 H 40.903086 31.386129 54.567720 0
M  V30 50 H 40.835344 29.737757 54.288748 0
M  V30 51 H 37.394124 28.336249 57.470678 0
M  V30 52 H 40.224020 26.143859 57.429235 0
M  V30 53 H 39.450854 27.568526 57.879506 0
M  V30 54 H 37.162513 30.014000 59.802093 0
M  V30 55 H 35.799007 30.350271 58.740021 0
M  V30 56 H 36.045257 32.595456 58.759963 0
M  V30 57 H 40.218628 31.131287 52.245958 0
M  V30 58 H 38.845177 30.135157 52.696473 0
M  V30 59 H 38.882603 31.832520 53.156939 0
M  V30 60 H 41.060134 32.842122 62.387106 0
M  V30 61 H 35.645464 36.342092 59.133256 0
M  V30 62 H 37.245142 36.655732 58.477580 0
M  V30 63 H 36.506922 35.068235 58.284544 0
M  V30 64 H 42.555223 34.156272 63.704730 0
M  V30 65 H 38.974262 25.615100 54.081990 0
M  V30 66 H 40.045113 24.993680 55.314983 0
M  V30 67 H 36.336701 34.148786 61.810074 0
M  V30 68 H 40.574329 37.067580 61.953215 0
M  V30 69 H 39.928941 37.574068 63.477494 0
M  V30 70 H 37.677862 37.259721 63.140272 0
M  V30 71 H 36.917574 35.737770 62.967761 0
M  V30 72 H 41.276208 36.136052 64.754631 0
M  V30 73 H 42.353262 36.564453 63.437108 0
M  V30 74 H 38.445091 25.568609 58.982957 0
M  V30 75 H 37.218558 26.236027 57.932064 0
M  V30 76 H 37.588953 33.530313 57.339086 0
M  V30 77 H 38.975372 33.121327 58.395808 0
M  V30 78 H 38.979640 23.810268 57.389510 0
M  V30 79 H 37.245101 23.824438 57.583266 0
M  V30 80 H 38.065477 37.337374 60.726510 0
M  V30 81 H 36.402037 37.141524 61.160589 0
M  V30 82 H 38.450292 30.370236 61.450191 0
M  V30 END ATOM
M  V30 BEGIN BOND
M  V30 1 1 2 1
M  V30 2 1 6 5
M  V30 3 1 2 7 CFG=3
M  V30 4 1 8 2
M  V30 5 1 12 9
M  V30 6 1 13 6
M  V30 7 1 13 11
M  V30 8 1 14 8
M  V30 9 2 15 11
M  V30 10 1 16 5
M  V30 11 1 17 15
M  V30 12 1 20 17
M  V30 13 1 20 18
M  V30 14 1 21 10
M  V30 15 1 22 15
M  V30 16 2 22 19
M  V30 17 1 23 10
M  V30 18 2 23 13
M  V30 19 1 23 19
M  V30 20 1 24 2
M  V30 21 2 26 24
M  V30 22 1 27 4
M  V30 23 1 27 5
M  V30 24 1 28 12
M  V30 25 1 28 18
M  V30 26 1 29 1
M  V30 27 1 30 1
M  V30 28 1 31 26
M  V30 29 1 31 29
M  V30 30 1 32 16
M  V30 31 1 33 20
M  V30 32 1 33 22
M  V30 33 1 34 4
M  V30 34 1 34 32
M  V30 35 1 35 30
M  V30 36 1 36 3
M  V30 37 1 36 7
M  V30 38 2 36 18
M  V30 39 2 37 6
M  V30 40 1 38 14
M  V30 41 1 38 25 CFG=3
M  V30 42 1 38 28
M  V30 43 1 38 35
M  V30 44 1 1 39 CFG=1
M  V30 45 1 40 3
M  V30 46 1 41 3
M  V30 47 1 42 4
M  V30 48 1 43 4
M  V30 49 1 44 8
M  V30 50 1 45 8
M  V30 51 1 46 9
M  V30 52 1 47 9
M  V30 53 1 48 9
M  V30 54 1 49 10
M  V30 55 1 50 10
M  V30 56 1 51 11
M  V30 57 1 52 16
M  V30 58 1 53 16
M  V30 59 1 54 17
M  V30 60 1 55 17
M  V30 61 1 20 56 CFG=3
M  V30 62 1 57 21
M  V30 63 1 58 21
M  V30 64 1 59 21
M  V30 65 1 60 24
M  V30 66 1 61 25
M  V30 67 1 62 25
M  V30 68 1 63 25
M  V30 69 1 64 26
M  V30 70 1 65 27
M  V30 71 1 66 27
M  V30 72 1 28 67 CFG=1
M  V30 73 1 68 29
M  V30 74 1 69 29
M  V30 75 1 70 30
M  V30 76 1 71 30
M  V30 77 1 72 31
M  V30 78 1 73 31
M  V30 79 1 74 32
M  V30 80 1 75 32
M  V30 81 1 76 33
M  V30 82 1 77 33
M  V30 83 1 78 34
M  V30 84 1 79 34
M  V30 85 1 80 35
M  V30 86 1 81 35
M  V30 87 1 82 3
M  V30 END BOND
M  V30 END CTAB
M  END
>  <i_epik_Tot_Q>  (1) 
1

>  <i_epik_Tot_abs_Q>  (1) 
1

>  <i_i_glide_confnum>  (1) 
33

>  <i_i_glide_lignum>  (1) 
41

>  <i_i_glide_posenum>  (1) 
30

>  <i_i_glide_rotatable_bonds>  (1) 
5

>  <i_lp_mmshare_version>  (1) 
72125

>  <i_m_source_file_index>  (1) 
18

>  <i_f3d_flags>  (1) 
0

>  <num_sample>  (1) 
100

>  <b_lp_Chiralities_Consistent>  (1) 
1

>  <r_epik_Charging_Adjusted_Penalty>  (1) 
0

>  <r_epik_Ionization_Penalty>  (1) 
0.00083164263378673008

>  <r_epik_Ionization_Penalty_Charging>  (1) 
0

>  <r_epik_Ionization_Penalty_Neutral>  (1) 
0.00083164263378673008

>  <r_epik_State_Penalty>  (1) 
-0

>  <r_glide_ring_energy>  (1) 
0

>  <r_i_docking_score>  (1) 
-7.3663776159642875

>  <r_i_glide_ecoul>  (1) 
-0.53536534974184891

>  <r_i_glide_eff_state_penalty>  (1) 
-0

>  <r_i_glide_einternal>  (1) 
8.6374111624438825

>  <r_i_glide_emodel>  (1) 
-39.441162382255889

>  <r_i_glide_emodel_strain>  (1) 
0.72266856726497508

>  <r_i_glide_energy>  (1) 
-32.239543400724116

>  <r_i_glide_erotb>  (1) 
0.22580550804498301

>  <r_i_glide_esite>  (1) 
-0.0022069653613517315

>  <r_i_glide_evdw>  (1) 
-31.704178050982268

>  <r_i_glide_gscore>  (1) 
-7.3663776159642875

>  <r_i_glide_gscore_strain>  (1) 
0

>  <r_i_glide_hbond>  (1) 
0

>  <r_i_glide_ligand_efficiency>  (1) 
-0.19385204252537599

>  <r_i_glide_ligand_efficiency_ln>  (1) 
-1.5884077108766641

>  <r_i_glide_ligand_efficiency_sa>  (1) 
-0.65172579952806098

>  <r_i_glide_lipo>  (1) 
-4.0896237387527048

>  <r_i_glide_metal>  (1) 
-0

>  <r_i_glide_rewards>  (1) 
-1.8348387148848235

>  <r_lp_Energy>  (1) 
80.436117999999993

>  <r_lp_tautomer_probability>  (1) 
1

>  <s_epik_Chemistry_Notes>  (1) 
This compound has an imine and may undergo hydrolysis. This compound contains an acetal/aminal-like group ( X-CH(R)-Y where X, Y are N, S, or O) that may be acid/base labile, releasing an aldehyde.

>  <s_epik_cmdline>  (1) 
J2VwaWtfcHl0aG9uJywgJy1waHQnLCAnMS4wJywgJy1waCcsICc3LjQnLCAnLXRuJywgJzgnLCAnLW1hJywgJzUwMCcsICctaW1hZScsICc8aW5maWxlLm1hZT4nLCAnLW9tYWUnLCAnPG91dGZpbGUubWFlPic=

>  <s_epik_input>  (1) 
W0NIXTE9W0NIXVtDSDJdW0NIMl1bQ0BIXShbQ0BAXTEyMylbQ0gyXVtDSDJdW0NAQF0oW0NIM10pKE9bQ0gyXTMpW0NAQEhdKE9bQ0gzXSlOKEMoTzIpPVtDSDJdKVtDQEhdKFtDSDJdNClbQ0gyXWMoYzQ1KW5jKFtDSDJdW0NIM10pYyhbY0hdNSlDKD1PKU42W0NIMl1bQ0gyXVtDSDJdW0NIMl1bQ0gyXTY=

>  <s_glide_docking_method>  (1) 
confgen

>  <s_i_glide_gridfile>  (1) 
gpcr_5ht2c_6bqh_protein_autoprepared_prepared

>  <s_lp_Force_Field>  (1) 
S-OPLS

>  <s_lp_Variant>  (1) 
DiffSBDD_17-1

>  <s_m_source_file>  (1) 
generated_GPCR_5HT2C_ligand_DiffSBDD_2026-06-23_prepared.sdf

>  <GenAI_Model>  (1) 
DiffSBDD

>  <Protein>  (1) 
GPCR_5HT2C

$$$$
DiffSBDD_75
     RDKit          3D

  0  0  0  0  0  0  0  0  0  0999 V3000
M  V30 BEGIN CTAB
M  V30 COUNTS 77 78 0 0 1
M  V30 BEGIN ATOM
M  V30 1 C 39.280726 27.729018 58.231817 0
M  V30 2 C 42.281248 27.925568 57.877945 0
M  V30 3 O 36.774017 30.937758 60.967733 0
M  V30 4 C 37.355914 25.703416 57.149843 0
M  V30 5 C 39.132036 33.290784 60.895925 0 CFG=2
M  V30 6 C 39.245141 28.440986 52.514750 0
M  V30 7 C 37.274427 31.702936 59.890323 0 CFG=2
M  V30 8 C 39.645136 29.722881 52.959073 0
M  V30 9 O 40.473882 35.285878 60.664829 0
M  V30 10 C 36.642909 33.873346 61.186389 0 CFG=1
M  V30 11 O 40.412377 31.334710 49.767769 0
M  V30 12 S 39.446935 29.854658 59.964205 0
M  V30 13 C 36.445373 24.927228 56.189098 0
M  V30 14 C 40.045122 30.392417 50.661910 0
M  V30 15 C 38.255003 30.879203 59.035749 0
M  V30 16 C 38.806551 27.389669 53.512435 0
M  V30 17 C 39.252770 28.143521 51.138614 0
M  V30 18 O 36.845142 36.092464 60.171505 0
M  V30 19 C 35.187043 33.719743 60.704028 0
M  V30 20 C 37.698905 33.143570 60.302568 0 CFG=1
M  V30 21 O 36.845133 23.596016 56.039663 0
M  V30 22 O 41.507708 28.469720 58.937131 0
M  V30 23 O 38.326964 29.551303 56.191498 0
M  V30 24 C 39.666413 24.921754 56.765796 0
M  V30 25 N 38.666940 25.981066 56.511496 0 CFG=2 CHG=1
M  V30 26 C 38.445133 28.375430 55.868742 0
M  V30 27 C 40.045133 30.691596 52.030791 0
M  V30 28 C 37.810493 27.945877 54.540968 0
M  V30 29 C 39.231293 27.345508 56.724018 0 CFG=1
M  V30 30 C 39.653885 29.123262 50.215535 0
M  V30 31 C 38.435603 35.603137 61.890173 0
M  V30 32 C 40.199373 28.915462 58.603972 0 CFG=1
M  V30 33 C 39.377483 32.535191 62.217882 0
M  V30 34 C 37.003898 35.372900 61.383266 0 CFG=2
M  V30 35 C 39.449063 34.779362 61.105550 0
M  V30 36 H 38.264989 27.953545 58.558634 0
M  V30 37 H 39.575655 26.879413 58.847269 0
M  V30 38 H 43.322926 27.846791 58.185006 0
M  V30 39 H 41.942944 26.922850 57.630384 0
M  V30 40 H 42.249087 28.537747 56.977755 0
M  V30 41 H 35.834593 31.040665 60.967722 0
M  V30 42 H 37.476465 25.184714 58.103012 0
M  V30 43 H 36.845123 26.638591 57.377907 0
M  V30 44 H 36.418368 31.835920 59.227138 0
M  V30 45 H 39.644457 29.960059 54.009868 0
M  V30 46 H 38.700282 36.658520 61.821427 0
M  V30 47 H 36.670961 33.399940 62.167750 0
M  V30 48 H 40.575353 30.994958 48.906758 0
M  V30 49 H 35.430135 24.937760 56.567762 0
M  V30 50 H 36.445127 25.355793 55.193368 0
M  V30 51 H 38.775474 31.515122 58.319131 0
M  V30 52 H 37.644128 30.192280 58.456126 0
M  V30 53 H 38.327365 26.571056 52.973272 0
M  V30 54 H 39.693194 26.959573 53.979788 0
M  V30 55 H 38.946289 27.167057 50.790659 0
M  V30 56 H 36.972082 37.013980 60.340432 0
M  V30 57 H 35.012212 34.224007 59.752533 0
M  V30 58 H 34.869991 32.685841 60.591506 0
M  V30 59 H 34.516610 34.137757 61.445896 0
M  V30 60 H 37.725827 33.685329 59.354166 0
M  V30 61 H 36.169508 23.124227 55.572542 0
M  V30 62 H 40.122648 25.005799 57.751943 0
M  V30 63 H 39.239370 23.925037 56.693252 0
M  V30 64 H 40.445385 24.986775 56.012095 0
M  V30 65 H 40.346726 31.671234 52.368619 0
M  V30 66 H 37.262008 28.785985 54.113433 0
M  V30 67 H 37.045453 27.210611 54.751691 0
M  V30 68 H 40.244232 27.328144 56.325555 0
M  V30 69 H 39.652703 28.909439 49.161629 0
M  V30 70 H 38.520302 35.337768 62.942270 0
M  V30 71 H 39.839230 32.912486 60.158161 0
M  V30 72 H 40.297576 29.615969 57.775354 0
M  V30 73 H 40.437726 32.541987 62.471758 0
M  V30 74 H 38.845158 32.986114 63.050510 0
M  V30 75 H 39.064161 31.495211 62.172146 0
M  V30 76 H 36.326334 35.803773 62.119594 0
M  V30 77 H 38.482927 25.920900 55.520200 0
M  V30 END ATOM
M  V30 BEGIN BOND
M  V30 1 1 7 3
M  V30 2 1 8 6
M  V30 3 1 13 4
M  V30 4 1 14 11
M  V30 5 1 15 7
M  V30 6 1 15 12
M  V30 7 1 16 6
M  V30 8 2 17 6
M  V30 9 1 19 10
M  V30 10 1 20 5
M  V30 11 1 20 7
M  V30 12 1 20 10
M  V30 13 1 21 13
M  V30 14 1 22 2
M  V30 15 1 25 4
M  V30 16 1 25 24
M  V30 17 2 26 23
M  V30 18 2 27 8
M  V30 19 1 27 14
M  V30 20 1 28 16
M  V30 21 1 28 26
M  V30 22 1 29 1
M  V30 23 1 29 25
M  V30 24 1 29 26
M  V30 25 2 30 14
M  V30 26 1 30 17
M  V30 27 1 32 1
M  V30 28 1 32 12
M  V30 29 1 32 22
M  V30 30 1 33 5
M  V30 31 1 34 10
M  V30 32 1 34 18
M  V30 33 1 34 31
M  V30 34 1 35 5
M  V30 35 2 35 9
M  V30 36 1 35 31
M  V30 37 1 36 1
M  V30 38 1 37 1
M  V30 39 1 38 2
M  V30 40 1 39 2
M  V30 41 1 40 2
M  V30 42 1 41 3
M  V30 43 1 42 4
M  V30 44 1 43 4
M  V30 45 1 7 44 CFG=3
M  V30 46 1 45 8
M  V30 47 1 46 31
M  V30 48 1 10 47 CFG=1
M  V30 49 1 48 11
M  V30 50 1 49 13
M  V30 51 1 50 13
M  V30 52 1 51 15
M  V30 53 1 52 15
M  V30 54 1 53 16
M  V30 55 1 54 16
M  V30 56 1 55 17
M  V30 57 1 56 18
M  V30 58 1 57 19
M  V30 59 1 58 19
M  V30 60 1 59 19
M  V30 61 1 20 60 CFG=3
M  V30 62 1 61 21
M  V30 63 1 62 24
M  V30 64 1 63 24
M  V30 65 1 64 24
M  V30 66 1 65 27
M  V30 67 1 66 28
M  V30 68 1 67 28
M  V30 69 1 29 68 CFG=3
M  V30 70 1 69 30
M  V30 71 1 70 31
M  V30 72 1 5 71 CFG=3
M  V30 73 1 32 72 CFG=3
M  V30 74 1 73 33
M  V30 75 1 74 33
M  V30 76 1 75 33
M  V30 77 1 34 76 CFG=1
M  V30 78 1 25 77 CFG=3
M  V30 END BOND
M  V30 END CTAB
M  END
>  <i_epik_Tot_Q>  (1) 
1

>  <i_epik_Tot_abs_Q>  (1) 
1

>  <i_i_glide_confnum>  (1) 
3614

>  <i_i_glide_lignum>  (1) 
169

>  <i_i_glide_posenum>  (1) 
128

>  <i_i_glide_rotatable_bonds>  (1) 
18

>  <i_lp_mmshare_version>  (1) 
72125

>  <i_m_source_file_index>  (1) 
76

>  <i_f3d_flags>  (1) 
0

>  <num_sample>  (1) 
100

>  <b_lp_Chiralities_Consistent>  (1) 
1

>  <r_epik_Charging_Adjusted_Penalty>  (1) 
0.52789471212939676

>  <r_epik_Ionization_Penalty>  (1) 
0.26592108790513191

>  <r_epik_Ionization_Penalty_Charging>  (1) 
0.26394735606469838

>  <r_epik_Ionization_Penalty_Neutral>  (1) 
0.0019737318404335234

>  <r_epik_State_Penalty>  (1) 
0.26394735606469838

>  <r_glide_ring_energy>  (1) 
0

>  <r_i_docking_score>  (1) 
-7.3612684802910486

>  <r_i_glide_ecoul>  (1) 
-0.56318773804754452

>  <r_i_glide_eff_state_penalty>  (1) 
0.26394735606469838

>  <r_i_glide_einternal>  (1) 
15.695493907753258

>  <r_i_glide_emodel>  (1) 
-61.147110861212354

>  <r_i_glide_emodel_strain>  (1) 
2.6450058801875755

>  <r_i_glide_energy>  (1) 
-45.393188583048975

>  <r_i_glide_erotb>  (1) 
1.0139394581015995

>  <r_i_glide_esite>  (1) 
0

>  <r_i_glide_evdw>  (1) 
-44.830000845001429

>  <r_i_glide_gscore>  (1) 
-7.6252158363557472

>  <r_i_glide_gscore_strain>  (1) 
0

>  <r_i_glide_hbond>  (1) 
-0.28530927595109262

>  <r_i_glide_ligand_efficiency>  (1) 
-0.21032195657974426

>  <r_i_glide_ligand_efficiency_ln>  (1) 
-1.6159618059754173

>  <r_i_glide_ligand_efficiency_sa>  (1) 
-0.68797706646094892

>  <r_i_glide_lipo>  (1) 
-5.0868183162791789

>  <r_i_glide_metal>  (1) 
-0

>  <r_i_glide_rewards>  (1) 
-0.94104949926987191

>  <r_lp_Energy>  (1) 
26.361654999999999

>  <r_lp_tautomer_probability>  (1) 
0.99989998499911525

>  <s_epik_Chemistry_Notes>  (1) 
This compound contains an acetal/aminal-like group ( X-CH(R)-Y where X, Y are N, S, or O) that may be acid/base labile, releasing an aldehyde.

>  <s_epik_cmdline>  (1) 
J2VwaWtfcHl0aG9uJywgJy1waHQnLCAnMS4wJywgJy1waCcsICc3LjQnLCAnLXRuJywgJzgnLCAnLW1hJywgJzUwMCcsICctaW1hZScsICc8aW5maWxlLm1hZT4nLCAnLW9tYWUnLCAnPG91dGZpbGUubWFlPic=

>  <s_epik_input>  (1) 
W2NIXTFbY0hdYyhbT0hdKVtjSF1bY0hdYzFbQ0gyXVtDSDJdQyg9TylbQ0BIXShOKFtDSDNdKVtDSDJdW0NIMl1bT0hdKVtDSDJdW0NASF0oT1tDSDNdKVNbQ0gyXVtDQEBIXShbT0hdKVtDQEhdMltDQEBIXShbQ0gzXSlbQ0BIXShbT0hdKVtDSDJdQyhbT0hdKT1DMltDSDNd

>  <s_glide_docking_method>  (1) 
confgen

>  <s_i_glide_gridfile>  (1) 
gpcr_5ht2c_6bqh_protein_autoprepared_prepared

>  <s_lp_Force_Field>  (1) 
S-OPLS

>  <s_lp_Variant>  (1) 
DiffSBDD_75-6

>  <s_m_source_file>  (1) 
generated_GPCR_5HT2C_ligand_DiffSBDD_2026-06-23_prepared.sdf

>  <GenAI_Model>  (1) 
DiffSBDD

>  <Protein>  (1) 
GPCR_5HT2C

$$$$
DiffSBDD_25
     RDKit          3D

  0  0  0  0  0  0  0  0  0  0999 V3000
M  V30 BEGIN CTAB
M  V30 COUNTS 67 70 0 0 1
M  V30 BEGIN ATOM
M  V30 1 C 39.228272 31.549225 61.947721 0
M  V30 2 C 41.139543 27.957170 58.157333 0
M  V30 3 O 40.241359 30.818748 61.828466 0 CHG=-1
M  V30 4 C 38.445157 32.930636 57.276140 0
M  V30 5 N 36.693288 32.233865 60.421008 0
M  V30 6 C 40.845187 26.595490 57.507118 0
M  V30 7 C 40.670075 33.687592 61.839163 0
M  V30 8 C 39.830888 35.807466 61.446521 0
M  V30 9 C 37.277283 26.097725 55.943349 0
M  V30 10 C 39.392852 26.153992 57.254359 0
M  V30 11 C 38.521377 26.967421 56.260141 0 CFG=2
M  V30 12 C 37.413058 36.341211 60.934467 0
M  V30 13 O 38.334298 28.093924 54.178357 0
M  V30 14 O 35.858244 34.080327 61.525460 0
M  V30 15 N 38.526640 30.599105 57.618735 0
M  V30 16 C 38.253462 33.944099 61.367833 0
M  V30 17 O 38.115824 31.100415 62.288983 0
M  V30 18 C 39.764330 26.234998 54.173090 0
M  V30 19 C 39.382897 33.070501 61.697826 0
M  V30 20 C 38.025905 28.284200 56.919447 0
M  V30 21 C 39.109330 29.289861 57.344037 0 CFG=2
M  V30 22 C 36.813980 33.419944 61.123081 0
M  V30 23 C 37.569297 30.690758 58.720243 0
M  V30 24 N 40.877194 35.009326 61.699569 0
M  V30 25 C 39.633255 26.828020 52.782821 0
M  V30 26 C 38.845065 31.719369 56.905693 0
M  V30 27 N 41.791451 32.931243 62.167586 0
M  V30 28 N 39.245238 27.312237 55.016503 0
M  V30 29 C 39.938150 28.811675 58.552394 0
M  V30 30 C 37.279170 32.114301 59.271836 0
M  V30 31 C 38.044250 28.535968 51.819777 0
M  V30 32 N 37.699931 33.173193 58.422936 0
M  V30 33 C 38.292126 27.491791 52.898283 0 CFG=2
M  V30 34 C 38.518658 35.344553 61.263901 0
M  V30 35 H 41.774749 28.537556 57.488141 0
M  V30 36 H 41.749806 27.794546 59.047271 0
M  V30 37 H 38.694920 33.817414 56.716994 0
M  V30 38 H 41.406664 26.537787 56.577049 0
M  V30 39 H 41.266749 25.838832 58.167642 0
M  V30 40 H 40.050213 36.862247 61.367929 0
M  V30 41 H 36.654711 25.971946 56.829932 0
M  V30 42 H 36.654698 26.537743 55.171271 0
M  V30 43 H 37.533518 25.093525 55.608189 0
M  V30 44 H 39.453715 25.125427 56.895296 0
M  V30 45 H 38.872993 26.081112 58.210968 0
M  V30 46 H 37.837243 37.318569 60.702226 0
M  V30 47 H 36.834539 36.032738 60.062778 0
M  V30 48 H 36.745711 36.473675 61.786011 0
M  V30 49 H 40.791827 25.976974 54.425052 0
M  V30 50 H 39.157948 25.337786 54.256614 0
M  V30 51 H 37.412006 28.040625 57.787157 0
M  V30 52 H 37.349689 28.809915 56.245457 0
M  V30 53 H 39.790645 29.428234 56.504280 0
M  V30 54 H 36.623066 30.270735 58.377638 0
M  V30 55 H 37.892894 30.068933 59.554337 0
M  V30 56 H 39.645238 26.130589 51.955622 0
M  V30 57 H 40.409434 27.553023 52.567743 0
M  V30 58 H 39.447836 31.540189 56.027294 0
M  V30 59 H 41.718795 31.923137 62.283151 0
M  V30 60 H 42.700396 33.348930 62.282771 0
M  V30 61 H 40.333780 29.679721 59.082763 0
M  V30 62 H 39.316799 28.288629 59.279768 0
M  V30 63 H 38.115993 28.098596 50.826253 0
M  V30 64 H 37.042768 28.937742 51.938288 0
M  V30 65 H 38.763547 29.351633 51.882674 0
M  V30 66 H 37.503300 26.738046 52.888468 0
M  V30 67 H 37.518614 34.138254 58.649214 0
M  V30 END ATOM
M  V30 BEGIN BOND
M  V30 1 1 3 1
M  V30 2 1 6 2
M  V30 3 1 10 6
M  V30 4 1 11 9 CFG=3
M  V30 5 1 11 10
M  V30 6 2 17 1
M  V30 7 1 19 1
M  V30 8 2 19 7
M  V30 9 1 19 16
M  V30 10 1 20 11
M  V30 11 1 21 15
M  V30 12 1 21 20
M  V30 13 1 22 5
M  V30 14 2 22 14
M  V30 15 1 22 16
M  V30 16 1 23 15
M  V30 17 1 24 7
M  V30 18 2 24 8
M  V30 19 1 25 18
M  V30 20 2 26 4
M  V30 21 1 26 15
M  V30 22 1 27 7
M  V30 23 1 28 11
M  V30 24 1 28 13
M  V30 25 1 28 18
M  V30 26 1 29 2
M  V30 27 1 29 21
M  V30 28 2 30 5
M  V30 29 1 30 23
M  V30 30 1 32 4
M  V30 31 1 32 30
M  V30 32 1 33 13
M  V30 33 1 33 25
M  V30 34 1 33 31
M  V30 35 1 34 8
M  V30 36 1 34 12
M  V30 37 2 34 16
M  V30 38 1 35 2
M  V30 39 1 36 2
M  V30 40 1 37 4
M  V30 41 1 38 6
M  V30 42 1 39 6
M  V30 43 1 40 8
M  V30 44 1 41 9
M  V30 45 1 42 9
M  V30 46 1 43 9
M  V30 47 1 44 10
M  V30 48 1 45 10
M  V30 49 1 46 12
M  V30 50 1 47 12
M  V30 51 1 48 12
M  V30 52 1 49 18
M  V30 53 1 50 18
M  V30 54 1 51 20
M  V30 55 1 52 20
M  V30 56 1 21 53 CFG=3
M  V30 57 1 54 23
M  V30 58 1 55 23
M  V30 59 1 56 25
M  V30 60 1 57 25
M  V30 61 1 58 26
M  V30 62 1 59 27
M  V30 63 1 60 27
M  V30 64 1 61 29
M  V30 65 1 62 29
M  V30 66 1 63 31
M  V30 67 1 64 31
M  V30 68 1 65 31
M  V30 69 1 33 66 CFG=1
M  V30 70 1 67 32
M  V30 END BOND
M  V30 END CTAB
M  END
>  <i_epik_Tot_Q>  (1) 
-1

>  <i_epik_Tot_abs_Q>  (1) 
1

>  <i_i_glide_confnum>  (1) 
114

>  <i_i_glide_lignum>  (1) 
61

>  <i_i_glide_posenum>  (1) 
377

>  <i_i_glide_rotatable_bonds>  (1) 
5

>  <i_lp_mmshare_version>  (1) 
72125

>  <i_m_source_file_index>  (1) 
26

>  <i_f3d_flags>  (1) 
0

>  <num_sample>  (1) 
100

>  <b_lp_Chiralities_Consistent>  (1) 
1

>  <r_epik_Charging_Adjusted_Penalty>  (1) 
0.31558791334810349

>  <r_epik_Ionization_Penalty>  (1) 
0.22690283062159758

>  <r_epik_Ionization_Penalty_Charging>  (1) 
2.1847890769935955e-05

>  <r_epik_Ionization_Penalty_Neutral>  (1) 
0.22688098273082763

>  <r_epik_State_Penalty>  (1) 
0.31556606545733357

>  <r_glide_ring_energy>  (1) 
0.21864854719495638

>  <r_i_docking_score>  (1) 
-7.3609937875463656

>  <r_i_glide_ecoul>  (1) 
-2.1185823416958947

>  <r_i_glide_eff_state_penalty>  (1) 
0.31556606545733357

>  <r_i_glide_einternal>  (1) 
25.296867517770004

>  <r_i_glide_emodel>  (1) 
-55.524413935234207

>  <r_i_glide_emodel_strain>  (1) 
0

>  <r_i_glide_energy>  (1) 
-49.108123448731106

>  <r_i_glide_erotb>  (1) 
0.36642180475109298

>  <r_i_glide_esite>  (1) 
-0.20564400957025109

>  <r_i_glide_evdw>  (1) 
-46.989541107035215

>  <r_i_glide_gscore>  (1) 
-7.6765598530036989

>  <r_i_glide_gscore_strain>  (1) 
0

>  <r_i_glide_hbond>  (1) 
-0.072095076972690006

>  <r_i_glide_ligand_efficiency>  (1) 
-0.21649981728077547

>  <r_i_glide_ligand_efficiency_ln>  (1) 
-1.6262499965511659

>  <r_i_glide_ligand_efficiency_sa>  (1) 
-0.70137536303721904

>  <r_i_glide_lipo>  (1) 
-3.6004426857997043

>  <r_i_glide_metal>  (1) 
-0

>  <r_i_glide_rewards>  (1) 
-1.4975354788060018

>  <r_lp_Energy>  (1) 
73.741174999999998

>  <s_epik_Chemistry_Notes>  (1) 
This compound has an imine and may undergo hydrolysis. This compound has a N-S or N-O group and may undergo hydrolysis at high or low pH.

>  <s_epik_cmdline>  (1) 
J2VwaWtfcHl0aG9uJywgJy1waHQnLCAnMS4wJywgJy1waCcsICc3LjQnLCAnLXRuJywgJzgnLCAnLW1hJywgJzUwMCcsICctaW1hZScsICc8aW5maWxlLm1hZT4nLCAnLW9tYWUnLCAnPG91dGZpbGUubWFlPic=

>  <s_epik_input>  (1) 
W09IXUMoPU8pYyhjMVtOSDJdKWMoYyhbY0hdbjEpW0NIM10pQyg9TylbTkhdQyg9TltDSF09W0NIXTIpW0NIMl1OMltDQEhdKFtDSDJdMylbQ0gyXVtDSDJdW0NIMl1bQ0gyXVtDQF0zKFtDSDNdKU40T1tDQEBIXShbQ0gzXSlbQ0gyXVtDSDJdNA==

>  <s_glide_docking_method>  (1) 
confgen

>  <s_i_glide_gridfile>  (1) 
gpcr_5ht2c_6bqh_protein_autoprepared_prepared

>  <s_lp_Force_Field>  (1) 
S-OPLS

>  <s_lp_Variant>  (1) 
DiffSBDD_25-1

>  <s_m_source_file>  (1) 
generated_GPCR_5HT2C_ligand_DiffSBDD_2026-06-23_prepared.sdf

>  <GenAI_Model>  (1) 
DiffSBDD

>  <Protein>  (1) 
GPCR_5HT2C

$$$$
DiffSBDD_77
     RDKit          3D

  0  0  0  0  0  0  0  0  0  0999 V3000
M  V30 BEGIN CTAB
M  V30 COUNTS 71 74 0 0 1
M  V30 BEGIN ATOM
M  V30 1 C 37.991342 29.987717 59.887933 0 CFG=1
M  V30 2 S 38.090736 31.787589 55.524199 0
M  V30 3 C 38.537759 39.502326 60.967756 0
M  V30 4 C 38.440493 30.675484 58.552518 0 CFG=2
M  V30 5 C 41.112555 28.137895 61.553456 0
M  V30 6 C 38.733491 30.166976 56.032591 0 CFG=2
M  V30 7 C 38.896550 29.706359 53.494800 0 CFG=2
M  V30 8 C 38.150950 33.128137 59.399467 0
M  V30 9 C 38.521800 32.729094 56.988884 0
M  V30 10 C 39.271578 27.784892 55.142476 0
M  V30 11 C 38.733954 35.821897 62.072364 0
M  V30 12 C 37.131208 37.453446 60.429749 0
M  V30 13 C 38.982369 26.753952 54.029465 0
M  V30 14 F 39.834459 25.737879 54.168050 0
M  V30 15 C 39.085944 27.357831 52.638471 0
M  V30 16 C 36.953339 33.190907 60.364004 0 CFG=1
M  V30 17 C 38.207473 38.016867 61.132242 0
M  V30 18 C 39.622525 34.939598 62.938015 0
M  V30 19 O 40.045131 30.530703 53.493196 0
M  V30 20 C 36.490794 31.822028 60.868338 0
M  V30 21 C 38.545595 29.127259 54.894356 0 CFG=1
M  V30 22 C 39.050255 28.672660 52.408782 0
M  V30 23 F 39.245165 26.537770 51.592001 0
M  V30 24 O 40.673288 30.413634 60.967698 0
M  V30 25 C 37.922821 32.123071 58.273032 0 CFG=1
M  V30 26 C 38.960775 28.842785 60.285401 0
M  V30 27 C 38.061703 29.759938 57.359182 0
M  V30 28 O 37.429645 40.371316 60.967785 0
M  V30 29 C 37.645389 35.262602 61.369375 0
M  V30 30 O 40.045130 37.737752 62.650085 0
M  V30 31 C 36.845156 36.086231 60.547961 0
M  V30 32 F 37.749088 26.280035 54.211813 0
M  V30 33 O 37.369141 33.921813 61.500731 0
M  V30 34 C 37.676118 30.888226 61.113633 0
M  V30 35 C 40.287828 29.246074 60.941955 0
M  V30 36 C 39.006317 37.198554 61.962379 0
M  V30 37 H 37.045208 29.491821 59.665586 0
M  V30 38 H 39.245378 39.833470 61.721385 0
M  V30 39 H 39.043350 39.651599 60.016082 0
M  V30 40 H 39.522576 30.699843 58.564220 0
M  V30 41 H 40.462245 27.347389 61.925915 0
M  V30 42 H 38.456663 28.162270 60.967615 0
M  V30 43 H 41.759502 27.737643 60.776340 0
M  V30 44 H 39.803443 30.287726 56.207442 0
M  V30 45 H 38.050471 30.318503 53.214795 0
M  V30 46 H 38.282563 34.130978 58.993784 0
M  V30 47 H 39.089103 32.916767 59.912788 0
M  V30 48 H 39.607098 32.804705 57.059921 0
M  V30 49 H 38.138981 33.736944 56.824175 0
M  V30 50 H 40.342399 27.960613 55.235430 0
M  V30 51 H 38.971478 27.341997 56.090790 0
M  V30 52 H 36.525797 38.068905 59.796951 0
M  V30 53 H 36.088148 33.635108 59.877070 0
M  V30 54 H 39.260166 33.913630 62.998596 0
M  V30 55 H 40.628122 34.898690 62.518054 0
M  V30 56 H 39.697058 35.349266 63.943542 0
M  V30 57 H 39.824007 31.338186 53.937723 0
M  V30 58 H 35.906961 31.958947 61.776389 0
M  V30 59 H 35.800510 31.370890 60.153599 0
M  V30 60 H 37.480797 28.890386 54.860437 0
M  V30 61 H 39.139565 29.041097 51.397112 0
M  V30 62 H 41.725484 28.507166 62.374906 0
M  V30 63 H 36.845136 32.062688 58.167752 0
M  V30 64 H 39.208530 28.230691 59.420098 0
M  V30 65 H 38.327940 28.734389 57.594211 0
M  V30 66 H 36.977981 29.751832 57.230083 0
M  V30 67 H 36.884048 40.184515 61.717453 0
M  V30 68 H 40.496643 37.134943 63.222279 0
M  V30 69 H 36.010588 35.672248 60.006856 0
M  V30 70 H 38.532355 31.465781 61.455691 0
M  V30 71 H 37.461409 30.257483 61.969425 0
M  V30 END ATOM
M  V30 BEGIN BOND
M  V30 1 1 4 1
M  V30 2 1 6 2
M  V30 3 1 9 2
M  V30 4 1 13 10
M  V30 5 1 14 13
M  V30 6 1 15 13
M  V30 7 1 16 8
M  V30 8 1 17 3
M  V30 9 1 17 12
M  V30 10 1 18 11
M  V30 11 1 19 7
M  V30 12 1 20 16
M  V30 13 1 21 6
M  V30 14 1 21 7
M  V30 15 1 21 10
M  V30 16 1 22 7
M  V30 17 2 22 15
M  V30 18 1 23 15
M  V30 19 1 25 4
M  V30 20 1 25 8
M  V30 21 1 25 9
M  V30 22 1 26 1
M  V30 23 1 27 4
M  V30 24 1 27 6
M  V30 25 1 28 3
M  V30 26 2 29 11
M  V30 27 2 31 12
M  V30 28 1 31 29
M  V30 29 1 32 13
M  V30 30 1 33 16
M  V30 31 1 33 29
M  V30 32 1 34 1
M  V30 33 1 34 20
M  V30 34 1 35 5
M  V30 35 2 35 24
M  V30 36 1 35 26
M  V30 37 1 36 11
M  V30 38 2 36 17
M  V30 39 1 36 30
M  V30 40 1 1 37 CFG=3
M  V30 41 1 38 3
M  V30 42 1 39 3
M  V30 43 1 4 40 CFG=1
M  V30 44 1 41 5
M  V30 45 1 42 26
M  V30 46 1 43 5
M  V30 47 1 6 44 CFG=1
M  V30 48 1 7 45 CFG=3
M  V30 49 1 46 8
M  V30 50 1 47 8
M  V30 51 1 48 9
M  V30 52 1 49 9
M  V30 53 1 50 10
M  V30 54 1 51 10
M  V30 55 1 52 12
M  V30 56 1 16 53 CFG=3
M  V30 57 1 54 18
M  V30 58 1 55 18
M  V30 59 1 56 18
M  V30 60 1 57 19
M  V30 61 1 58 20
M  V30 62 1 59 20
M  V30 63 1 21 60 CFG=3
M  V30 64 1 61 22
M  V30 65 1 62 5
M  V30 66 1 25 63 CFG=3
M  V30 67 1 64 26
M  V30 68 1 65 27
M  V30 69 1 66 27
M  V30 70 1 67 28
M  V30 71 1 68 30
M  V30 72 1 69 31
M  V30 73 1 70 34
M  V30 74 1 71 34
M  V30 END BOND
M  V30 END CTAB
M  END
>  <i_epik_Tot_Q>  (1) 
0

>  <i_epik_Tot_abs_Q>  (1) 
0

>  <i_i_glide_confnum>  (1) 
132

>  <i_i_glide_lignum>  (1) 
178

>  <i_i_glide_posenum>  (1) 
166

>  <i_i_glide_rotatable_bonds>  (1) 
9

>  <i_lp_mmshare_version>  (1) 
72125

>  <i_m_source_file_index>  (1) 
78

>  <i_f3d_flags>  (1) 
0

>  <num_sample>  (1) 
100

>  <b_lp_Chiralities_Consistent>  (1) 
1

>  <r_epik_Charging_Adjusted_Penalty>  (1) 
0

>  <r_epik_Ionization_Penalty>  (1) 
0.0013117502669173318

>  <r_epik_Ionization_Penalty_Charging>  (1) 
0

>  <r_epik_Ionization_Penalty_Neutral>  (1) 
0.0013117502669173318

>  <r_epik_State_Penalty>  (1) 
-0

>  <r_glide_ring_energy>  (1) 
0

>  <r_i_docking_score>  (1) 
-7.3597179380653479

>  <r_i_glide_ecoul>  (1) 
-3.0701179939190695

>  <r_i_glide_eff_state_penalty>  (1) 
-0

>  <r_i_glide_einternal>  (1) 
3.4021871330558326

>  <r_i_glide_emodel>  (1) 
-41.559724403516292

>  <r_i_glide_emodel_strain>  (1) 
0.11537233524747137

>  <r_i_glide_energy>  (1) 
-35.651701427358311

>  <r_i_glide_erotb>  (1) 
0.36862077086586142

>  <r_i_glide_esite>  (1) 
0

>  <r_i_glide_evdw>  (1) 
-32.581583433439242

>  <r_i_glide_gscore>  (1) 
-7.3597179380653479

>  <r_i_glide_gscore_strain>  (1) 
0

>  <r_i_glide_hbond>  (1) 
-0.42180908269431239

>  <r_i_glide_ligand_efficiency>  (1) 
-0.2044366093907041

>  <r_i_glide_ligand_efficiency_ln>  (1) 
-1.6056916174855731

>  <r_i_glide_ligand_efficiency_sa>  (1) 
-0.67503481121879316

>  <r_i_glide_lipo>  (1) 
-3.2189715708781956

>  <r_i_glide_metal>  (1) 
-0

>  <r_i_glide_rewards>  (1) 
-1.9979611845988789

>  <r_lp_Energy>  (1) 
44.297061999999997

>  <r_lp_tautomer_probability>  (1) 
1

>  <s_epik_cmdline>  (1) 
J2VwaWtfcHl0aG9uJywgJy1waHQnLCAnMS4wJywgJy1waCcsICc3LjQnLCAnLXRuJywgJzgnLCAnLW1hJywgJzUwMCcsICctaW1hZScsICc8aW5maWxlLm1hZT4nLCAnLW9tYWUnLCAnPG91dGZpbGUubWFlPic=

>  <s_epik_input>  (1) 
W09IXVtDSDJdYyhjMVtPSF0pW2NIXVtjSF1jKGMxW0NIM10pT1tDQEhdKFtDSDJdW0NIMl1bQ0BASF0yL1tDSF09QygvW0NIM10pW09IXSlbQ0gyXVtDQEhdKFtDQEBIXTIzKVtDSDJdU1tDQEBIXShbQ0gyXTMpW0NASF0oW0NIMl1DNChGKUYpW0NAQEhdKFtPSF0pW0NIXT1DNEY=

>  <s_glide_docking_method>  (1) 
confgen

>  <s_i_glide_gridfile>  (1) 
gpcr_5ht2c_6bqh_protein_autoprepared_prepared

>  <s_lp_Force_Field>  (1) 
S-OPLS

>  <s_lp_Variant>  (1) 
DiffSBDD_77-1

>  <s_m_source_file>  (1) 
generated_GPCR_5HT2C_ligand_DiffSBDD_2026-06-23_prepared.sdf

>  <GenAI_Model>  (1) 
DiffSBDD

>  <Protein>  (1) 
GPCR_5HT2C

$$$$
DiffSBDD_62
     RDKit          3D

  0  0  0  0  0  0  0  0  0  0999 V3000
M  V30 BEGIN CTAB
M  V30 COUNTS 79 83 0 0 1
M  V30 BEGIN ATOM
M  V30 1 C 38.686521 26.709681 58.061513 0
M  V30 2 C 41.787274 31.693260 67.513586 0
M  V30 3 C 38.683364 34.936121 60.655039 0
M  V30 4 C 39.715786 28.602803 59.459068 0
M  V30 5 C 38.168789 27.484567 52.554236 0
M  V30 6 C 40.785936 29.293955 67.091890 0
M  V30 7 C 38.953783 33.539721 61.280769 0 CFG=2
M  V30 8 C 40.884124 31.175603 65.456483 0
M  V30 9 C 40.094704 31.217543 63.239805 0
M  V30 10 O 37.427813 26.456328 55.345839 0
M  V30 11 C 38.732378 27.849605 53.907240 0
M  V30 12 C 41.575032 34.542315 64.093515 0
M  V30 13 C 38.680700 28.185846 58.418878 0
M  V30 14 C 38.538606 26.882656 55.023750 0
M  V30 15 C 41.115176 33.147658 64.174650 0
M  V30 16 N 41.289852 32.431811 65.333485 0
M  V30 17 C 37.797712 35.870827 61.503234 0
M  V30 18 O 36.681860 32.937859 58.967771 0
M  V30 19 C 37.506456 28.556864 53.375508 0
M  V30 20 N 39.645104 25.249808 56.312052 0
M  V30 21 N 41.912395 32.972357 66.546625 0
M  V30 22 N 37.865174 29.005412 57.878495 0
M  V30 23 C 37.911179 30.426718 58.159673 0
M  V30 24 C 41.114247 30.691846 66.604845 0
M  V30 25 C 40.550813 32.624686 63.148244 0
M  V30 26 C 40.953101 34.787299 62.632974 0
M  V30 27 N 39.674715 26.542971 55.664818 0
M  V30 28 C 37.285178 32.061576 59.896987 0 CFG=2
M  V30 29 C 39.835955 26.376296 57.110438 0 CFG=1
M  V30 30 C 39.301793 37.905713 61.767776 0
M  V30 31 C 37.992907 37.362233 61.164214 0
M  V30 32 C 40.384213 33.445418 61.916888 0 CFG=2
M  V30 33 C 36.794662 38.200757 61.631566 0
M  V30 34 C 38.757142 32.450308 60.189985 0
M  V30 35 N 37.145824 30.705561 59.370551 0
M  V30 36 N 40.259271 30.536938 64.330670 0
M  V30 37 H 38.829978 26.125660 58.967991 0
M  V30 38 H 37.708623 26.406600 57.694659 0
M  V30 39 H 41.169914 31.927963 68.381155 0
M  V30 40 H 42.772713 31.354781 67.833910 0
M  V30 41 H 39.629524 35.410060 60.397821 0
M  V30 42 H 38.177122 34.837566 59.697751 0
M  V30 43 H 40.258238 27.738605 59.842626 0
M  V30 44 H 40.447607 29.283380 59.024647 0
M  V30 45 H 39.233622 29.088828 60.307218 0
M  V30 46 H 38.730436 27.784873 51.671749 0
M  V30 47 H 37.645296 26.537815 52.475951 0
M  V30 48 H 41.698315 28.779026 67.392848 0
M  V30 49 H 40.118200 29.338173 67.952025 0
M  V30 50 H 40.299356 28.698855 66.318339 0
M  V30 51 H 38.222248 33.364646 62.070683 0
M  V30 52 H 39.622620 30.797057 62.354325 0
M  V30 53 H 39.645100 28.434512 53.925580 0
M  V30 54 H 41.138148 35.183090 64.860856 0
M  V30 55 H 42.663297 34.602567 64.110706 0
M  V30 56 H 36.757612 35.582836 61.342766 0
M  V30 57 H 37.971995 35.729413 62.567827 0
M  V30 58 H 36.537855 28.310838 53.801325 0
M  V30 59 H 37.646014 29.597445 53.098341 0
M  V30 60 H 38.728426 24.821766 56.325637 0
M  V30 61 H 42.891099 33.165275 66.344310 0
M  V30 62 H 37.474696 30.971805 57.322445 0
M  V30 63 H 38.940224 30.773978 58.236492 0
M  V30 64 H 41.645163 35.317171 61.980618 0
M  V30 65 H 40.138252 35.481596 62.801135 0
M  V30 66 H 36.706716 32.097803 60.820447 0
M  V30 67 H 40.837114 26.541180 57.505825 0
M  V30 68 H 39.324460 37.760462 62.848585 0
M  V30 69 H 40.180934 37.401057 61.367817 0
M  V30 70 H 39.424905 38.968765 61.561045 0
M  V30 71 H 38.045136 37.465164 60.079404 0
M  V30 72 H 41.111064 33.102979 61.180202 0
M  V30 73 H 36.629184 38.101588 62.704840 0
M  V30 74 H 36.939677 39.258203 61.408026 0
M  V30 75 H 35.882772 37.895684 61.120415 0
M  V30 76 H 39.291050 31.549983 60.475650 0
M  V30 77 H 39.245802 32.767755 59.268342 0
M  V30 78 H 36.174208 30.497452 59.181993 0
M  V30 79 H 36.223547 32.450489 58.282199 0
M  V30 END ATOM
M  V30 BEGIN BOND
M  V30 1 1 7 3
M  V30 2 1 11 5
M  V30 3 1 13 1
M  V30 4 1 13 4
M  V30 5 2 14 10
M  V30 6 1 14 11
M  V30 7 1 15 12
M  V30 8 1 16 8
M  V30 9 1 16 15
M  V30 10 1 17 3
M  V30 11 1 19 5
M  V30 12 1 19 11
M  V30 13 1 21 2
M  V30 14 1 21 16
M  V30 15 2 22 13
M  V30 16 1 23 22
M  V30 17 1 24 2
M  V30 18 1 24 6
M  V30 19 2 24 8
M  V30 20 1 25 9
M  V30 21 2 25 15
M  V30 22 1 26 12
M  V30 23 1 27 14
M  V30 24 1 27 20
M  V30 25 1 28 18
M  V30 26 1 29 1
M  V30 27 1 29 20
M  V30 28 1 29 27
M  V30 29 1 31 17
M  V30 30 1 31 30
M  V30 31 1 32 7
M  V30 32 1 32 25
M  V30 33 1 32 26
M  V30 34 1 33 31
M  V30 35 1 34 7
M  V30 36 1 34 28
M  V30 37 1 35 23
M  V30 38 1 35 28
M  V30 39 1 36 8
M  V30 40 2 36 9
M  V30 41 1 37 1
M  V30 42 1 38 1
M  V30 43 1 39 2
M  V30 44 1 40 2
M  V30 45 1 41 3
M  V30 46 1 42 3
M  V30 47 1 43 4
M  V30 48 1 44 4
M  V30 49 1 45 4
M  V30 50 1 46 5
M  V30 51 1 47 5
M  V30 52 1 48 6
M  V30 53 1 49 6
M  V30 54 1 50 6
M  V30 55 1 7 51 CFG=1
M  V30 56 1 52 9
M  V30 57 1 53 11
M  V30 58 1 54 12
M  V30 59 1 55 12
M  V30 60 1 56 17
M  V30 61 1 57 17
M  V30 62 1 58 19
M  V30 63 1 59 19
M  V30 64 1 60 20
M  V30 65 1 61 21
M  V30 66 1 62 23
M  V30 67 1 63 23
M  V30 68 1 64 26
M  V30 69 1 65 26
M  V30 70 1 28 66 CFG=1
M  V30 71 1 29 67 CFG=1
M  V30 72 1 68 30
M  V30 73 1 69 30
M  V30 74 1 70 30
M  V30 75 1 71 31
M  V30 76 1 32 72 CFG=3
M  V30 77 1 73 33
M  V30 78 1 74 33
M  V30 79 1 75 33
M  V30 80 1 76 34
M  V30 81 1 77 34
M  V30 82 1 78 35
M  V30 83 1 79 18
M  V30 END BOND
M  V30 END CTAB
M  END
>  <i_epik_Tot_Q>  (1) 
0

>  <i_epik_Tot_abs_Q>  (1) 
0

>  <i_i_glide_confnum>  (1) 
1709

>  <i_i_glide_lignum>  (1) 
136

>  <i_i_glide_posenum>  (1) 
70

>  <i_i_glide_rotatable_bonds>  (1) 
14

>  <i_lp_mmshare_version>  (1) 
72125

>  <i_m_source_file_index>  (1) 
63

>  <i_f3d_flags>  (1) 
0

>  <num_sample>  (1) 
100

>  <b_lp_Chiralities_Consistent>  (1) 
1

>  <r_epik_Charging_Adjusted_Penalty>  (1) 
0.66759273229091232

>  <r_epik_Ionization_Penalty>  (1) 
2.307606927441598

>  <r_epik_Ionization_Penalty_Charging>  (1) 
0

>  <r_epik_Ionization_Penalty_Neutral>  (1) 
2.307606927441598

>  <r_epik_State_Penalty>  (1) 
0.66759273229091232

>  <r_glide_ring_energy>  (1) 
0

>  <r_i_docking_score>  (1) 
-7.3565081617843342

>  <r_i_glide_ecoul>  (1) 
-2.2996555630304418

>  <r_i_glide_eff_state_penalty>  (1) 
0.66759273229091232

>  <r_i_glide_einternal>  (1) 
25.385725016261063

>  <r_i_glide_emodel>  (1) 
-63.683913664735002

>  <r_i_glide_emodel_strain>  (1) 
0.11069522427629863

>  <r_i_glide_energy>  (1) 
-52.428441391899135

>  <r_i_glide_erotb>  (1) 
0.98835574197518972

>  <r_i_glide_esite>  (1) 
-0.11103080260903553

>  <r_i_glide_evdw>  (1) 
-50.128785828868693

>  <r_i_glide_gscore>  (1) 
-8.0241008940752465

>  <r_i_glide_gscore_strain>  (1) 
0

>  <r_i_glide_hbond>  (1) 
-0.16

>  <r_i_glide_ligand_efficiency>  (1) 
-0.20434744893845372

>  <r_i_glide_ligand_efficiency_ln>  (1) 
-1.6049913310191894

>  <r_i_glide_ligand_efficiency_sa>  (1) 
-0.67474040989198381

>  <r_i_glide_lipo>  (1) 
-3.9051958149149737

>  <r_i_glide_metal>  (1) 
-0

>  <r_i_glide_rewards>  (1) 
-1.9848423926284264

>  <r_lp_Energy>  (1) 
35.107028999999997

>  <r_lp_tautomer_probability>  (1) 
0.49999399997599986

>  <s_epik_Chemistry_Notes>  (1) 
This compound has an imine and may undergo hydrolysis. This compound contains an acetal/aminal-like group ( X-CH(R)-Y where X, Y are N, S, or O) that may be acid/base labile, releasing an aldehyde.

>  <s_epik_cmdline>  (1) 
J2VwaWtfcHl0aG9uJywgJy1waHQnLCAnMS4wJywgJy1waCcsICc3LjQnLCAnLXRuJywgJzgnLCAnLW1hJywgJzUwMCcsICctaW1hZScsICc8aW5maWxlLm1hZT4nLCAnLW9tYWUnLCAnPG91dGZpbGUubWFlPic=

>  <s_epik_input>  (1) 
W0NIMl0xW0NIMl1bQ0hdMUMoPU8pTjJbTkhdW0NAQEhdMltDSDJdL0MoW0NIM10pPU4vW0NIMl1bTkhdW0NASF0oW09IXSlbQ0gyXVtDQEhdKFtDSDJdW0NIMl1bQ0hdKFtDSDNdKVtDSDNdKVtDQEBIXShbQ0gyXVtDSDJdMylDKFtDSF09TjQpPUMzTihDND01KVtOSF1bQ0gyXUM1W0NIM10=

>  <s_glide_docking_method>  (1) 
confgen

>  <s_i_glide_gridfile>  (1) 
gpcr_5ht2c_6bqh_protein_autoprepared_prepared

>  <s_lp_Force_Field>  (1) 
S-OPLS

>  <s_lp_Variant>  (1) 
DiffSBDD_62-2

>  <s_m_source_file>  (1) 
generated_GPCR_5HT2C_ligand_DiffSBDD_2026-06-23_prepared.sdf

>  <GenAI_Model>  (1) 
DiffSBDD

>  <Protein>  (1) 
GPCR_5HT2C

$$$$
DiffSBDD_63
     RDKit          3D

  0  0  0  0  0  0  0  0  0  0999 V3000
M  V30 BEGIN CTAB
M  V30 COUNTS 83 88 0 0 1
M  V30 BEGIN ATOM
M  V30 1 F 38.030243 28.195614 54.979578 0
M  V30 2 C 39.376369 36.394390 63.746646 0
M  V30 3 C 38.710180 29.341593 54.960033 0 CFG=1
M  V30 4 C 40.840780 28.365607 66.013587 0
M  V30 5 C 38.701551 28.288105 59.213129 0
M  V30 6 C 38.749625 30.290438 60.877913 0 CFG=1
M  V30 7 N 37.611593 31.449882 54.591935 0 CHG=1
M  V30 8 C 42.620660 33.079874 65.803949 0
M  V30 9 C 40.431786 35.924064 65.977563 0
M  V30 10 C 40.924534 33.177494 63.930413 0 CFG=2
M  V30 11 C 42.061745 32.365153 64.586922 0 CFG=2
M  V30 12 C 38.091471 28.128239 57.821036 0
M  V30 13 C 42.420922 34.379109 66.067034 0
M  V30 14 C 40.190386 35.475708 63.140266 0
M  V30 15 N 38.433979 36.944197 62.872533 0
M  V30 16 N 37.751426 30.351955 58.595637 0 CHG=1
M  V30 17 C 37.704451 29.549098 57.358672 0 CFG=1
M  V30 18 C 43.122401 27.637088 65.139828 0
M  V30 19 C 37.634490 36.926354 60.519989 0
M  V30 20 O 40.053202 28.461604 61.767679 0
M  V30 21 O 40.674474 32.701301 62.610013 0
M  V30 22 S 39.826588 35.338248 61.428524 0
M  V30 23 C 38.310812 31.564958 55.878165 0 CFG=2
M  V30 24 C 38.835521 29.797616 59.422855 0 CFG=2
M  V30 25 C 39.533339 32.471590 55.748371 0
M  V30 26 C 41.273225 34.680247 63.795244 0 CFG=1
M  V30 27 C 39.714796 29.638277 61.855048 0
M  V30 28 C 38.531493 36.491785 61.628180 0
M  V30 29 O 41.245272 28.371528 67.367881 0
M  V30 30 C 42.011157 28.696427 65.066946 0 CFG=2
M  V30 31 C 42.570331 30.117960 65.260341 0
M  V30 32 C 39.661628 31.759622 62.517173 0 CFG=2
M  V30 33 O 41.566710 31.084004 64.959807 0
M  V30 34 C 41.628673 35.317506 65.175518 0 CFG=1
M  V30 35 O 40.125435 30.479124 62.785108 0
M  V30 36 C 38.107551 30.250576 53.896099 0
M  V30 37 C 39.145680 31.743515 61.075768 0
M  V30 38 C 38.674898 30.123211 56.292785 0 CFG=2
M  V30 39 C 39.423776 36.799511 65.181053 0
M  V30 40 H 39.734233 29.078894 54.696062 0
M  V30 41 H 40.445068 27.378238 65.775889 0
M  V30 42 H 40.025429 29.077302 65.880697 0
M  V30 43 H 39.661409 27.774344 59.291833 0
M  V30 44 H 38.045228 27.868160 59.972008 0
M  V30 45 H 37.744288 30.137914 61.267795 0
M  V30 46 H 37.708865 32.287945 54.033797 0
M  V30 47 H 43.205080 32.485364 66.489772 0
M  V30 48 H 39.888362 35.098266 66.435139 0
M  V30 49 H 40.805377 36.500052 66.825114 0
M  V30 50 H 40.045195 33.093886 64.562195 0
M  V30 51 H 42.845130 32.248696 63.842866 0
M  V30 52 H 38.818482 27.653070 57.162914 0
M  V30 53 H 37.219507 27.474390 57.847653 0
M  V30 54 H 42.845116 34.809464 66.960177 0
M  V30 55 H 36.875072 30.211644 59.079240 0
M  V30 56 H 36.686537 29.575325 56.970384 0
M  V30 57 H 43.592587 27.621181 66.123659 0
M  V30 58 H 42.726959 26.640612 64.940943 0
M  V30 59 H 43.901791 27.832425 64.402226 0
M  V30 60 H 36.611888 37.027404 60.883192 0
M  V30 61 H 37.960618 37.889909 60.129149 0
M  V30 62 H 37.645192 36.194809 59.713088 0
M  V30 63 H 37.645118 32.044966 56.591563 0
M  V30 64 H 39.785282 30.115234 58.994569 0
M  V30 65 H 40.019033 32.628818 56.708589 0
M  V30 66 H 40.263641 32.030452 55.072187 0
M  V30 67 H 39.246368 33.453556 55.368006 0
M  V30 68 H 42.156433 34.745358 63.166657 0
M  V30 69 H 40.521540 28.079084 67.912718 0
M  V30 70 H 41.616900 28.647791 64.052999 0
M  V30 71 H 42.938700 30.256127 66.277264 0
M  V30 72 H 43.424355 30.243329 64.592939 0
M  V30 73 H 38.845215 31.993307 63.195560 0
M  V30 74 H 42.307328 36.137743 64.953372 0
M  V30 75 H 38.868770 30.540820 53.170885 0
M  V30 76 H 37.304903 29.737710 53.367879 0
M  V30 77 H 38.321785 32.448783 60.960989 0
M  V30 78 H 39.954819 32.035722 60.405773 0
M  V30 79 H 39.680642 30.109784 56.713394 0
M  V30 80 H 38.435260 36.734482 65.636460 0
M  V30 81 H 39.706681 37.848419 65.250027 0
M  V30 82 H 37.862452 31.338378 58.409631 0
M  V30 83 H 36.630610 31.325905 54.816130 0
M  V30 END ATOM
M  V30 BEGIN BOND
M  V30 1 1 3 1
M  V30 2 1 11 8
M  V30 3 1 11 10
M  V30 4 1 12 5
M  V30 5 2 13 8
M  V30 6 2 14 2
M  V30 7 1 15 2
M  V30 8 1 17 12
M  V30 9 1 17 16
M  V30 10 1 21 10
M  V30 11 1 22 14
M  V30 12 1 23 7
M  V30 13 1 24 5
M  V30 14 1 24 6
M  V30 15 1 24 16
M  V30 16 1 25 23
M  V30 17 1 26 10
M  V30 18 1 26 14
M  V30 19 1 27 6
M  V30 20 2 27 20
M  V30 21 2 28 15
M  V30 22 1 28 19
M  V30 23 1 28 22
M  V30 24 1 29 4
M  V30 25 1 30 4
M  V30 26 1 30 18
M  V30 27 1 31 30
M  V30 28 1 32 21
M  V30 29 1 33 11
M  V30 30 1 33 31
M  V30 31 1 34 9
M  V30 32 1 34 13
M  V30 33 1 34 26
M  V30 34 1 35 27
M  V30 35 1 35 32
M  V30 36 1 36 3
M  V30 37 1 36 7
M  V30 38 1 37 6
M  V30 39 1 37 32
M  V30 40 1 38 3
M  V30 41 1 38 17
M  V30 42 1 38 23
M  V30 43 1 39 2
M  V30 44 1 39 9
M  V30 45 1 3 40 CFG=3
M  V30 46 1 41 4
M  V30 47 1 42 4
M  V30 48 1 43 5
M  V30 49 1 44 5
M  V30 50 1 6 45 CFG=1
M  V30 51 1 46 7
M  V30 52 1 47 8
M  V30 53 1 48 9
M  V30 54 1 49 9
M  V30 55 1 10 50 CFG=1
M  V30 56 1 11 51 CFG=3
M  V30 57 1 52 12
M  V30 58 1 53 12
M  V30 59 1 54 13
M  V30 60 1 55 16
M  V30 61 1 17 56 CFG=3
M  V30 62 1 57 18
M  V30 63 1 58 18
M  V30 64 1 59 18
M  V30 65 1 60 19
M  V30 66 1 61 19
M  V30 67 1 62 19
M  V30 68 1 23 63 CFG=1
M  V30 69 1 24 64 CFG=3
M  V30 70 1 65 25
M  V30 71 1 66 25
M  V30 72 1 67 25
M  V30 73 1 26 68 CFG=3
M  V30 74 1 69 29
M  V30 75 1 30 70 CFG=3
M  V30 76 1 71 31
M  V30 77 1 72 31
M  V30 78 1 32 73 CFG=1
M  V30 79 1 34 74 CFG=3
M  V30 80 1 75 36
M  V30 81 1 76 36
M  V30 82 1 77 37
M  V30 83 1 78 37
M  V30 84 1 38 79 CFG=1
M  V30 85 1 80 39
M  V30 86 1 81 39
M  V30 87 1 82 16
M  V30 88 1 83 7
M  V30 END BOND
M  V30 END CTAB
M  END
>  <i_epik_Tot_Q>  (1) 
2

>  <i_epik_Tot_abs_Q>  (1) 
2

>  <i_i_glide_confnum>  (1) 
1377

>  <i_i_glide_lignum>  (1) 
139

>  <i_i_glide_posenum>  (1) 
366

>  <i_i_glide_rotatable_bonds>  (1) 
9

>  <i_lp_mmshare_version>  (1) 
72125

>  <i_m_source_file_index>  (1) 
64

>  <i_f3d_flags>  (1) 
0

>  <num_sample>  (1) 
100

>  <b_lp_Chiralities_Consistent>  (1) 
1

>  <r_epik_Charging_Adjusted_Penalty>  (1) 
0.080070908620723774

>  <r_epik_Ionization_Penalty>  (1) 
0.041568301575603359

>  <r_epik_Ionization_Penalty_Charging>  (1) 
0.040241786303222601

>  <r_epik_Ionization_Penalty_Neutral>  (1) 
0.0013265152723807572

>  <r_epik_State_Penalty>  (1) 
0.039829122317501166

>  <r_glide_ring_energy>  (1) 
0.79944395753776076

>  <r_i_docking_score>  (1) 
-7.349629145357353

>  <r_i_glide_ecoul>  (1) 
-5.4321829216235953

>  <r_i_glide_eff_state_penalty>  (1) 
0.039829122317501166

>  <r_i_glide_einternal>  (1) 
10.736269899379009

>  <r_i_glide_emodel>  (1) 
-63.583203863131075

>  <r_i_glide_emodel_strain>  (1) 
6.1966625022638198

>  <r_i_glide_energy>  (1) 
-48.350021027643464

>  <r_i_glide_erotb>  (1) 
0.43483266289788453

>  <r_i_glide_esite>  (1) 
-0.12726825955560692

>  <r_i_glide_evdw>  (1) 
-42.917838106019872

>  <r_i_glide_gscore>  (1) 
-7.3894582676748541

>  <r_i_glide_gscore_strain>  (1) 
0.54916562556595494

>  <r_i_glide_hbond>  (1) 
-0.32000000000000001

>  <r_i_glide_ligand_efficiency>  (1) 
-0.18845202936813726

>  <r_i_glide_ligand_efficiency_ln>  (1) 
-1.5759691203946904

>  <r_i_glide_ligand_efficiency_sa>  (1) 
-0.63908067845246896

>  <r_i_glide_lipo>  (1) 
-3.5378094897715258

>  <r_i_glide_metal>  (1) 
-0

>  <r_i_glide_rewards>  (1) 
-1.4276594632670285

>  <r_lp_Energy>  (1) 
26.901284999999998

>  <s_epik_Chemistry_Notes>  (1) 
This compound has an ester and may undergo hydrolysis at high or low pH. This compound contains an acetal/aminal-like group ( X-CH(R)-Y where X, Y are N, S, or O) that may be acid/base labile, releasing an aldehyde.

>  <s_epik_cmdline>  (1) 
J2VwaWtfcHl0aG9uJywgJy1waHQnLCAnMS4wJywgJy1waCcsICc3LjQnLCAnLXRuJywgJzgnLCAnLW1hJywgJzUwMCcsICctaW1hZScsICc8aW5maWxlLm1hZT4nLCAnLW9tYWUnLCAnPG91dGZpbGUubWFlPic=

>  <s_epik_input>  (1) 
RltDQEhdMVtDSDJdW05IXVtDQEhdKFtDSDNdKVtDQEhdMVtDQEhdMltDSDJdW0NIMl1bQ0BASF0oW05IXTIpW0NASF0zQyg9TylPW0NASF0oW0NIMl0zKU9bQ0BIXTRbQ0BIXShPW0NIMl1bQ0BASF0oW0NIM10pW0NIMl1bT0hdKVtDSF09W0NIXVtDQEhdKFtDSDJdW0NIMl01KVtDQEBIXTRjKGM1NilzYyhuNilbQ0gzXQ==

>  <s_glide_docking_method>  (1) 
confgen

>  <s_i_glide_gridfile>  (1) 
gpcr_5ht2c_6bqh_protein_autoprepared_prepared

>  <s_lp_Force_Field>  (1) 
S-OPLS

>  <s_lp_Variant>  (1) 
DiffSBDD_63-1

>  <s_m_source_file>  (1) 
generated_GPCR_5HT2C_ligand_DiffSBDD_2026-06-23_prepared.sdf

>  <GenAI_Model>  (1) 
DiffSBDD

>  <Protein>  (1) 
GPCR_5HT2C

$$$$
DiffSBDD_74
     RDKit          3D

  0  0  0  0  0  0  0  0  0  0999 V3000
M  V30 BEGIN CTAB
M  V30 COUNTS 71 73 0 0 1
M  V30 BEGIN ATOM
M  V30 1 C 34.845123 32.560061 60.838007 0
M  V30 2 C 38.255271 33.095006 59.125377 0
M  V30 3 C 38.366090 36.003805 61.599991 0
M  V30 4 F 37.645137 23.337740 54.967777 0
M  V30 5 C 38.702319 34.126426 59.860137 0
M  V30 6 C 38.055286 25.319311 56.312926 0
M  V30 7 C 39.166182 24.785182 56.983455 0
M  V30 8 C 37.831955 28.841585 57.744875 0
M  V30 9 O 39.645127 27.947838 55.046474 0
M  V30 10 F 40.106717 37.018586 62.839443 0
M  V30 11 F 39.875628 34.860091 63.029928 0
M  V30 12 C 38.045168 33.822777 56.263354 0
M  V30 13 F 36.045151 24.414775 55.767462 0
M  V30 14 C 34.027528 33.339522 59.794213 0
M  V30 15 C 36.822128 34.054917 61.364441 0
M  V30 16 N 37.832040 29.672902 56.506659 0 CHG=1
M  V30 17 C 39.784588 29.338611 54.920602 0 CFG=1
M  V30 18 C 39.285749 29.660172 53.504801 0
M  V30 19 C 36.911997 32.460511 59.374911 0
M  V30 20 C 38.316017 27.414542 57.501233 0
M  V30 21 N 38.338971 32.463012 56.711619 0
M  V30 22 F 37.245134 25.268069 54.178039 0
M  V30 23 C 39.077614 31.687989 55.700199 0 CFG=1
M  V30 24 C 36.357350 32.733728 60.784543 0 CFG=2
M  V30 25 C 39.158614 30.173091 56.074825 0 CFG=1
M  V30 26 C 38.509787 31.861838 54.270354 0
M  V30 27 C 39.864554 25.587296 57.917670 0
M  V30 28 F 38.384217 36.961505 60.676168 0
M  V30 29 F 37.527349 36.377994 62.569320 0
M  V30 30 O 36.877615 31.733499 61.634059 0
M  V30 31 C 39.049634 32.513902 57.983240 0
M  V30 32 C 37.272438 24.533519 55.290607 0
M  V30 33 C 37.650513 26.603157 56.572929 0
M  V30 34 C 37.929442 34.697353 60.948352 0
M  V30 35 C 39.780343 35.897075 62.197325 0
M  V30 36 C 39.435213 26.905964 58.180855 0
M  V30 37 C 39.427396 31.147815 53.277740 0
M  V30 38 H 34.624937 31.502331 60.701022 0
M  V30 39 H 34.491451 32.828906 61.834412 0
M  V30 40 H 39.664260 34.549386 59.624330 0
M  V30 41 H 39.488044 23.776625 56.787174 0
M  V30 42 H 38.405395 29.323313 58.537930 0
M  V30 43 H 36.805361 28.785878 58.107812 0
M  V30 44 H 40.141832 27.641833 55.792569 0
M  V30 45 H 37.245163 33.805206 55.528733 0
M  V30 46 H 37.697591 34.470355 57.067617 0
M  V30 47 H 38.900895 34.288328 55.777272 0
M  V30 48 H 32.972057 33.351073 60.067871 0
M  V30 49 H 34.371448 34.369168 59.700168 0
M  V30 50 H 34.078583 32.881813 58.807519 0
M  V30 51 H 36.227362 34.465343 62.167677 0
M  V30 52 H 37.276082 30.505859 56.689036 0
M  V30 53 H 40.845123 29.573690 54.967817 0
M  V30 54 H 38.251277 29.340975 53.360848 0
M  V30 55 H 39.877456 29.127286 52.759190 0
M  V30 56 H 36.928320 31.392759 59.154152 0
M  V30 57 H 36.285620 32.924578 58.616272 0
M  V30 58 H 40.093956 32.084941 55.683911 0
M  V30 59 H 39.843171 30.065347 56.916080 0
M  V30 60 H 37.489925 31.477178 54.210481 0
M  V30 61 H 38.445015 32.901607 53.972634 0
M  V30 62 H 40.722887 25.189105 58.432528 0
M  V30 63 H 37.821074 31.794476 61.608362 0
M  V30 64 H 39.971507 33.078496 57.848198 0
M  V30 65 H 39.245143 31.501680 58.316700 0
M  V30 66 H 36.845140 26.957137 56.030628 0
M  V30 67 H 40.537455 35.751450 61.426213 0
M  V30 68 H 39.966468 27.519329 58.895113 0
M  V30 69 H 39.245174 31.433202 52.245627 0
M  V30 70 H 40.467608 31.409832 53.452848 0
M  V30 71 H 37.406049 29.170025 55.743461 0
M  V30 END ATOM
M  V30 BEGIN BOND
M  V30 1 2 5 2
M  V30 2 2 7 6
M  V30 3 1 14 1
M  V30 4 1 16 8
M  V30 5 1 17 9
M  V30 6 1 18 17
M  V30 7 1 19 2
M  V30 8 1 20 8
M  V30 9 1 21 12
M  V30 10 1 23 21
M  V30 11 1 24 1
M  V30 12 1 24 15
M  V30 13 1 24 19
M  V30 14 1 25 16
M  V30 15 1 25 17
M  V30 16 1 25 23
M  V30 17 1 26 23
M  V30 18 1 27 7
M  V30 19 1 28 3
M  V30 20 1 29 3
M  V30 21 1 24 30 CFG=1
M  V30 22 1 31 2
M  V30 23 1 31 21
M  V30 24 1 32 4
M  V30 25 1 32 6
M  V30 26 1 32 13
M  V30 27 1 32 22
M  V30 28 1 33 6
M  V30 29 2 33 20
M  V30 30 1 34 3
M  V30 31 1 34 5
M  V30 32 2 34 15
M  V30 33 1 35 3
M  V30 34 1 35 10
M  V30 35 1 35 11
M  V30 36 1 36 20
M  V30 37 2 36 27
M  V30 38 1 37 18
M  V30 39 1 37 26
M  V30 40 1 38 1
M  V30 41 1 39 1
M  V30 42 1 40 5
M  V30 43 1 41 7
M  V30 44 1 42 8
M  V30 45 1 43 8
M  V30 46 1 44 9
M  V30 47 1 45 12
M  V30 48 1 46 12
M  V30 49 1 47 12
M  V30 50 1 48 14
M  V30 51 1 49 14
M  V30 52 1 50 14
M  V30 53 1 51 15
M  V30 54 1 52 16
M  V30 55 1 17 53 CFG=3
M  V30 56 1 54 18
M  V30 57 1 55 18
M  V30 58 1 56 19
M  V30 59 1 57 19
M  V30 60 1 23 58 CFG=3
M  V30 61 1 25 59 CFG=1
M  V30 62 1 60 26
M  V30 63 1 61 26
M  V30 64 1 62 27
M  V30 65 1 63 30
M  V30 66 1 64 31
M  V30 67 1 65 31
M  V30 68 1 66 33
M  V30 69 1 67 35
M  V30 70 1 68 36
M  V30 71 1 69 37
M  V30 72 1 70 37
M  V30 73 1 71 16
M  V30 END BOND
M  V30 END CTAB
M  END
>  <i_epik_Tot_Q>  (1) 
1

>  <i_epik_Tot_abs_Q>  (1) 
1

>  <i_i_glide_confnum>  (1) 
719

>  <i_i_glide_lignum>  (1) 
162

>  <i_i_glide_posenum>  (1) 
206

>  <i_i_glide_rotatable_bonds>  (1) 
12

>  <i_lp_mmshare_version>  (1) 
72125

>  <i_m_source_file_index>  (1) 
75

>  <i_f3d_flags>  (1) 
0

>  <num_sample>  (1) 
100

>  <b_lp_Chiralities_Consistent>  (1) 
1

>  <r_epik_Charging_Adjusted_Penalty>  (1) 
0.26612613870957635

>  <r_epik_Ionization_Penalty>  (1) 
0.1330997432788415

>  <r_epik_Ionization_Penalty_Charging>  (1) 
0.13306306935478829

>  <r_epik_Ionization_Penalty_Neutral>  (1) 
3.6673924053210746e-05

>  <r_epik_State_Penalty>  (1) 
0.13306306935478809

>  <r_glide_ring_energy>  (1) 
0

>  <r_i_docking_score>  (1) 
-7.3410629691074085

>  <r_i_glide_ecoul>  (1) 
-3.7809837158487349

>  <r_i_glide_eff_state_penalty>  (1) 
0.13306306935478809

>  <r_i_glide_einternal>  (1) 
7.2656797633463377

>  <r_i_glide_emodel>  (1) 
-44.96109588880315

>  <r_i_glide_emodel_strain>  (1) 
2.0980862878209905

>  <r_i_glide_energy>  (1) 
-27.751690443627265

>  <r_i_glide_erotb>  (1) 
0.49698158257681319

>  <r_i_glide_esite>  (1) 
-0.054294951487207747

>  <r_i_glide_evdw>  (1) 
-23.970706727778531

>  <r_i_glide_gscore>  (1) 
-7.474126038462197

>  <r_i_glide_gscore_strain>  (1) 
0

>  <r_i_glide_hbond>  (1) 
-0.36166531358486909

>  <r_i_glide_ligand_efficiency>  (1) 
-0.19840710727317321

>  <r_i_glide_ligand_efficiency_ln>  (1) 
-1.5921044590658366

>  <r_i_glide_ligand_efficiency_sa>  (1) 
-0.66113649837753063

>  <r_i_glide_lipo>  (1) 
-3.7992506541601432

>  <r_i_glide_metal>  (1) 
-0

>  <r_i_glide_rewards>  (1) 
-1.9902138080405538

>  <r_lp_Energy>  (1) 
43.081995999999997

>  <s_epik_cmdline>  (1) 
J2VwaWtfcHl0aG9uJywgJy1waHQnLCAnMS4wJywgJy1waCcsICc3LjQnLCAnLXRuJywgJzgnLCAnLW1hJywgJzUwMCcsICctaW1hZScsICc8aW5maWxlLm1hZT4nLCAnLW9tYWUnLCAnPG91dGZpbGUubWFlPic=

>  <s_epik_input>  (1) 
W0NIM11bQ0gyXVtDQF0xKFtPSF0pW0NIXT1DKEMoRikoRilbQ0hdKEYpRilbQ0hdPUMoW0NIMl0xKVtDSDJdTihbQ0gzXSlbQ0BIXShbQ0gyXVtDSDJdW0NIMl1bQ0BASF0yW09IXSlbQ0BIXTJbTkhdW0NIMl1jKFtjSF0zKVtjSF1bY0hdW2NIXWMzQyhGKShGKUY=

>  <s_glide_docking_method>  (1) 
confgen

>  <s_i_glide_gridfile>  (1) 
gpcr_5ht2c_6bqh_protein_autoprepared_prepared

>  <s_lp_Force_Field>  (1) 
S-OPLS

>  <s_lp_Variant>  (1) 
DiffSBDD_74-1

>  <s_m_source_file>  (1) 
generated_GPCR_5HT2C_ligand_DiffSBDD_2026-06-23_prepared.sdf

>  <GenAI_Model>  (1) 
DiffSBDD

>  <Protein>  (1) 
GPCR_5HT2C

$$$$
DiffSBDD_2
     RDKit          3D

  0  0  0  0  0  0  0  0  0  0999 V3000
M  V30 BEGIN CTAB
M  V30 COUNTS 81 84 0 0 1
M  V30 BEGIN ATOM
M  V30 1 F 40.818834 31.481311 65.548528 0
M  V30 2 C 38.296001 28.617601 54.452042 0
M  V30 3 C 37.542815 32.263083 58.741555 0 CFG=2
M  V30 4 C 43.184075 31.281173 68.158226 0
M  V30 5 C 37.687939 30.764192 58.999970 0 CFG=2
M  V30 6 N 37.645137 32.381242 57.282759 0 CHG=1
M  V30 7 O 39.618603 36.537781 64.070813 0
M  V30 8 C 38.114797 35.801773 61.502216 0
M  V30 9 C 38.785345 32.799866 60.901836 0 CFG=1
M  V30 10 N 38.732199 29.097128 55.672451 0
M  V30 11 C 38.986268 27.159879 52.702075 0
M  V30 12 C 37.994245 30.010113 56.478821 0 CFG=2
M  V30 13 C 38.125792 30.401006 60.433340 0
M  V30 14 C 41.772924 31.549267 67.686747 0
M  V30 15 O 45.645140 31.913573 66.594312 0
M  V30 16 C 39.566668 35.297525 61.258406 0 CFG=2
M  V30 17 C 38.591442 31.352110 56.797730 0 CFG=2
M  V30 18 O 39.205691 27.766331 53.964623 0
M  V30 19 N 41.714195 35.692504 64.110876 0
M  V30 20 C 38.638228 33.103179 59.398970 0
M  V30 21 C 38.565676 30.283179 57.867184 0 CFG=1
M  V30 22 O 37.245138 28.909617 53.882785 0
M  V30 23 C 39.209497 31.311124 61.056921 0 CFG=2
M  V30 24 O 43.010396 30.863324 65.823477 0
M  V30 25 C 39.478368 30.884138 62.518922 0
M  V30 26 C 41.453150 34.302964 66.155674 0
M  V30 27 C 45.250290 30.565694 66.745036 0
M  V30 28 C 39.750638 33.791818 61.594612 0
M  V30 29 C 41.959620 31.759382 66.178747 0 CFG=1
M  V30 30 C 37.845926 37.224727 60.992866 0
M  V30 31 C 41.825213 35.671254 65.568249 0
M  V30 32 C 43.736004 30.464635 66.985993 0 CFG=1
M  V30 33 C 40.618598 36.137759 63.477359 0
M  V30 34 C 40.665353 36.143071 61.947535 0
M  V30 35 O 40.016653 29.578631 62.567506 0
M  V30 36 C 42.416321 33.173292 65.756511 0
M  V30 37 H 36.564896 32.615668 59.073288 0
M  V30 38 H 43.222656 30.740349 69.104145 0
M  V30 39 H 43.716953 32.224008 68.286645 0
M  V30 40 H 36.713368 30.298609 58.838185 0
M  V30 41 H 36.683861 32.137767 56.967757 0
M  V30 42 H 37.400276 35.151311 61.001818 0
M  V30 43 H 37.850406 35.737738 62.555849 0
M  V30 44 H 37.808677 32.919401 61.372726 0
M  V30 45 H 39.622683 28.756561 56.002589 0
M  V30 46 H 39.826045 26.512013 52.453951 0
M  V30 47 H 38.078402 26.555392 52.712478 0
M  V30 48 H 38.893725 27.913399 51.918512 0
M  V30 49 H 36.907840 29.960135 56.396659 0
M  V30 50 H 37.239809 30.470775 61.064979 0
M  V30 51 H 38.440726 29.357087 60.461667 0
M  V30 52 H 41.292285 32.377517 68.204956 0
M  V30 53 H 41.162043 30.661521 67.859146 0
M  V30 54 H 45.208527 32.255503 65.829183 0
M  V30 55 H 39.773651 35.421981 60.196185 0
M  V30 56 H 39.553367 31.693665 56.419033 0
M  V30 57 H 42.506820 35.383257 63.570828 0
M  V30 58 H 38.364934 34.137785 59.217217 0
M  V30 59 H 39.599642 32.955065 58.907599 0
M  V30 60 H 39.520174 29.834967 58.139177 0
M  V30 61 H 40.140314 31.166304 60.510580 0
M  V30 62 H 40.196758 31.539323 63.009107 0
M  V30 63 H 38.559019 30.912789 63.102031 0
M  V30 64 H 40.445138 34.042586 65.846058 0
M  V30 65 H 41.426456 34.396804 67.241031 0
M  V30 66 H 45.542077 29.995950 65.862201 0
M  V30 67 H 45.789938 30.141996 67.591875 0
M  V30 68 H 40.776657 33.505892 61.360828 0
M  V30 69 H 39.644430 33.668367 62.672694 0
M  V30 70 H 36.802918 37.498759 61.152087 0
M  V30 71 H 38.456299 37.962645 61.512284 0
M  V30 72 H 38.045145 37.305308 59.924322 0
M  V30 73 H 41.201271 36.444461 66.021442 0
M  V30 74 H 42.845131 35.936277 65.837740 0
M  V30 75 H 43.482330 29.416550 67.151996 0
M  V30 76 H 40.609771 37.179839 61.618143 0
M  V30 77 H 41.644987 35.795741 61.615743 0
M  V30 78 H 39.582827 29.102559 63.268325 0
M  V30 79 H 43.399462 33.390110 66.172701 0
M  V30 80 H 42.541507 33.170609 64.673635 0
M  V30 81 H 37.871280 33.315003 56.975088 0
M  V30 END ATOM
M  V30 BEGIN BOND
M  V30 1 1 5 3
M  V30 2 1 6 3
M  V30 3 1 10 2
M  V30 4 1 12 10
M  V30 5 1 13 5
M  V30 6 1 14 4
M  V30 7 1 16 8
M  V30 8 1 17 6
M  V30 9 1 17 12
M  V30 10 1 18 2
M  V30 11 1 18 11
M  V30 12 1 20 3
M  V30 13 1 20 9
M  V30 14 1 21 5
M  V30 15 1 21 12
M  V30 16 1 21 17
M  V30 17 2 22 2
M  V30 18 1 23 9
M  V30 19 1 23 13
M  V30 20 1 25 23
M  V30 21 1 27 15
M  V30 22 1 28 9
M  V30 23 1 28 16
M  V30 24 1 29 1 CFG=3
M  V30 25 1 29 14
M  V30 26 1 29 24
M  V30 27 1 30 8
M  V30 28 1 31 19
M  V30 29 1 31 26
M  V30 30 1 32 4
M  V30 31 1 32 24
M  V30 32 1 32 27
M  V30 33 2 33 7
M  V30 34 1 33 19
M  V30 35 1 34 16
M  V30 36 1 34 33
M  V30 37 1 35 25
M  V30 38 1 36 26
M  V30 39 1 36 29
M  V30 40 1 3 37 CFG=1
M  V30 41 1 38 4
M  V30 42 1 39 4
M  V30 43 1 5 40 CFG=3
M  V30 44 1 41 6
M  V30 45 1 42 8
M  V30 46 1 43 8
M  V30 47 1 9 44 CFG=1
M  V30 48 1 45 10
M  V30 49 1 46 11
M  V30 50 1 47 11
M  V30 51 1 48 11
M  V30 52 1 12 49 CFG=1
M  V30 53 1 50 13
M  V30 54 1 51 13
M  V30 55 1 52 14
M  V30 56 1 53 14
M  V30 57 1 54 15
M  V30 58 1 16 55 CFG=3
M  V30 59 1 17 56 CFG=3
M  V30 60 1 57 19
M  V30 61 1 58 20
M  V30 62 1 59 20
M  V30 63 1 21 60 CFG=1
M  V30 64 1 23 61 CFG=3
M  V30 65 1 62 25
M  V30 66 1 63 25
M  V30 67 1 64 26
M  V30 68 1 65 26
M  V30 69 1 66 27
M  V30 70 1 67 27
M  V30 71 1 68 28
M  V30 72 1 69 28
M  V30 73 1 70 30
M  V30 74 1 71 30
M  V30 75 1 72 30
M  V30 76 1 73 31
M  V30 77 1 74 31
M  V30 78 1 32 75 CFG=1
M  V30 79 1 76 34
M  V30 80 1 77 34
M  V30 81 1 78 35
M  V30 82 1 79 36
M  V30 83 1 80 36
M  V30 84 1 81 6
M  V30 END BOND
M  V30 END CTAB
M  END
>  <i_epik_Tot_Q>  (1) 
1

>  <i_epik_Tot_abs_Q>  (1) 
1

>  <i_i_glide_confnum>  (1) 
4492

>  <i_i_glide_lignum>  (1) 
4

>  <i_i_glide_posenum>  (1) 
254

>  <i_i_glide_rotatable_bonds>  (1) 
17

>  <i_lp_mmshare_version>  (1) 
72125

>  <i_m_source_file_index>  (1) 
3

>  <i_f3d_flags>  (1) 
0

>  <num_sample>  (1) 
100

>  <b_lp_Chiralities_Consistent>  (1) 
1

>  <r_epik_Charging_Adjusted_Penalty>  (1) 
0.00072413823026253119

>  <r_epik_Ionization_Penalty>  (1) 
0.00072547203534686021

>  <r_epik_Ionization_Penalty_Charging>  (1) 
0.00072413823026253119

>  <r_epik_Ionization_Penalty_Neutral>  (1) 
1.3338050843290484e-06

>  <r_epik_State_Penalty>  (1) 
-0

>  <r_glide_ring_energy>  (1) 
1.337252785472008

>  <r_i_docking_score>  (1) 
-7.3384088521260491

>  <r_i_glide_ecoul>  (1) 
-11.718718683746461

>  <r_i_glide_eff_state_penalty>  (1) 
-0

>  <r_i_glide_einternal>  (1) 
9.1895702101862522

>  <r_i_glide_emodel>  (1) 
-75.02275096651222

>  <r_i_glide_emodel_strain>  (1) 
0.7692625507261539

>  <r_i_glide_energy>  (1) 
-54.765408922761978

>  <r_i_glide_erotb>  (1) 
1.0068127819832642

>  <r_i_glide_esite>  (1) 
-0.12772852195777454

>  <r_i_glide_evdw>  (1) 
-43.046690239015518

>  <r_i_glide_gscore>  (1) 
-7.3384088521260491

>  <r_i_glide_gscore_strain>  (1) 
0

>  <r_i_glide_hbond>  (1) 
-0.43918544580709107

>  <r_i_glide_ligand_efficiency>  (1) 
-0.20384469033683469

>  <r_i_glide_ligand_efficiency_ln>  (1) 
-1.6010425506385892

>  <r_i_glide_ligand_efficiency_sa>  (1) 
-0.67308033756568186

>  <r_i_glide_lipo>  (1) 
-2.7498898044790439

>  <r_i_glide_metal>  (1) 
-0

>  <r_i_glide_rewards>  (1) 
-1.1182755473526578

>  <r_lp_Energy>  (1) 
40.418917

>  <r_lp_tautomer_probability>  (1) 
1

>  <s_epik_Chemistry_Notes>  (1) 
This compound has an ester and may undergo hydrolysis at high or low pH.

>  <s_epik_cmdline>  (1) 
J2VwaWtfcHl0aG9uJywgJy1waHQnLCAnMS4wJywgJy1waCcsICc3LjQnLCAnLXRuJywgJzgnLCAnLW1hJywgJzUwMCcsICctaW1hZScsICc8aW5maWxlLm1hZT4nLCAnLW9tYWUnLCAnPG91dGZpbGUubWFlPic=

>  <s_epik_input>  (1) 
W09IXVtDSDJdW0NASF0oTzEpW0NIMl1bQ0gyXVtDQEBdMShGKVtDSDJdW0NIMl1bQ0gyXVtOSF1DKD1PKVtDSDJdW0NASF0oW0NIMl1bQ0gzXSlbQ0gyXVtDQEBIXShbQ0gyXTIpW0NAQEhdKFtDSDJdW09IXSlbQ0gyXVtDQEBIXShbQ0BASF0yMylbQ0BASF00W0NASF0oW05IXTMpW0NASF00W05IXUMoPU8pT1tDSDNd

>  <s_glide_docking_method>  (1) 
confgen

>  <s_i_glide_gridfile>  (1) 
gpcr_5ht2c_6bqh_protein_autoprepared_prepared

>  <s_lp_Force_Field>  (1) 
S-OPLS

>  <s_lp_Variant>  (1) 
DiffSBDD_2-1

>  <s_m_source_file>  (1) 
generated_GPCR_5HT2C_ligand_DiffSBDD_2026-06-23_prepared.sdf

>  <GenAI_Model>  (1) 
DiffSBDD

>  <Protein>  (1) 
GPCR_5HT2C

$$$$
DiffSBDD_66
     RDKit          3D

  0  0  0  0  0  0  0  0  0  0999 V3000
M  V30 BEGIN CTAB
M  V30 COUNTS 62 65 0 0 1
M  V30 BEGIN ATOM
M  V30 1 C 39.720529 30.307213 60.551300 0
M  V30 2 C 40.479168 28.869481 60.314556 0
M  V30 3 C 39.095061 30.964961 56.623208 0 CFG=2
M  V30 4 N 38.521181 34.549055 61.055670 0
M  V30 5 O 42.931015 33.312888 65.771093 0 CHG=-1
M  V30 6 O 38.045193 32.854492 55.524380 0
M  V30 7 O 39.841249 30.817952 55.428888 0
M  V30 8 C 41.354970 35.000663 65.140932 0
M  V30 9 C 38.573591 29.584757 58.660821 0
M  V30 10 C 39.225037 28.381318 56.827377 0
M  V30 11 N 38.681577 30.561975 59.541354 0
M  V30 12 C 39.207183 26.718533 54.896676 0
M  V30 13 C 40.241947 34.874679 62.957278 0
M  V30 14 N 38.583162 33.205548 61.118702 0
M  V30 15 C 37.245503 25.338844 54.208037 0
M  V30 16 C 38.859579 29.637581 57.372677 0
M  V30 17 C 40.108300 27.450269 57.752174 0 CFG=1
M  V30 18 C 40.996163 28.270325 58.875397 0
M  V30 19 C 38.592096 25.514221 57.559483 0
M  V30 20 C 37.732649 32.786911 60.183765 0
M  V30 21 C 37.515629 31.316575 59.984575 0
M  V30 22 C 37.796591 31.646612 56.220275 0
M  V30 23 C 37.116034 33.876305 59.493198 0
M  V30 24 C 41.874773 33.171296 63.622525 0
M  V30 25 C 39.346863 26.267051 58.313865 0
M  V30 26 C 39.257922 35.447830 61.935121 0
M  V30 27 C 40.446342 35.530571 64.206588 0
M  V30 28 O 39.031607 36.655818 61.835829 0
M  V30 29 Cl 39.539479 36.938099 64.625053 0
M  V30 30 C 37.644371 34.980305 60.091611 0
M  V30 31 C 37.915755 25.140176 56.507826 0
M  V30 32 C 38.884394 28.047048 55.559044 0
M  V30 33 C 40.972956 33.690443 62.674684 0
M  V30 34 C 38.082491 25.709786 55.180976 0
M  V30 35 C 42.062447 33.824409 64.852829 0
M  V30 36 H 39.281106 30.320293 61.549638 0
M  V30 37 H 39.860658 28.096136 60.772393 0
M  V30 38 H 39.642665 31.647467 57.269642 0
M  V30 39 H 37.182444 33.240641 55.375273 0
M  V30 40 H 39.652987 31.592699 54.915973 0
M  V30 41 H 41.497868 35.494546 66.090977 0
M  V30 42 H 38.477609 28.626171 59.143709 0
M  V30 43 H 41.349014 28.898118 60.968158 0
M  V30 44 H 40.157348 26.304855 55.229811 0
M  V30 45 H 39.320097 26.881559 53.824227 0
M  V30 46 H 36.453143 24.627585 54.394701 0
M  V30 47 H 37.334602 25.740551 53.214086 0
M  V30 48 H 40.444890 31.120593 60.538879 0
M  V30 49 H 40.873249 27.022965 57.104924 0
M  V30 50 H 41.801379 27.585715 59.140307 0
M  V30 51 H 41.515989 29.078262 58.361781 0
M  V30 52 H 37.148885 30.875438 60.911009 0
M  V30 53 H 36.708491 31.168595 59.265149 0
M  V30 54 H 37.181577 30.986556 55.607823 0
M  V30 55 H 37.245676 31.892362 57.126782 0
M  V30 56 H 36.389268 33.845118 58.692687 0
M  V30 57 H 42.426165 32.269127 63.403104 0
M  V30 58 H 39.448129 26.081086 59.365155 0
M  V30 59 H 37.466307 36.031086 59.911876 0
M  V30 60 H 37.181211 24.355576 56.618112 0
M  V30 61 H 38.298412 28.738307 54.970572 0
M  V30 62 H 40.853814 33.185587 61.732319 0
M  V30 END ATOM
M  V30 BEGIN BOND
M  V30 1 1 2 1
M  V30 2 1 7 3
M  V30 3 1 11 1
M  V30 4 1 11 9
M  V30 5 1 14 4
M  V30 6 1 16 3
M  V30 7 2 16 9
M  V30 8 1 16 10
M  V30 9 1 17 10
M  V30 10 1 18 2
M  V30 11 1 18 17
M  V30 12 2 20 14
M  V30 13 1 21 11
M  V30 14 1 21 20
M  V30 15 1 22 3
M  V30 16 1 22 6
M  V30 17 1 23 20
M  V30 18 1 25 17
M  V30 19 2 25 19
M  V30 20 1 26 4
M  V30 21 1 26 13
M  V30 22 1 27 8
M  V30 23 2 27 13
M  V30 24 2 28 26
M  V30 25 1 29 27
M  V30 26 1 30 4
M  V30 27 2 30 23
M  V30 28 2 31 19
M  V30 29 2 32 10
M  V30 30 1 32 12
M  V30 31 1 33 13
M  V30 32 2 33 24
M  V30 33 1 34 12
M  V30 34 2 34 15
M  V30 35 1 34 31
M  V30 36 1 35 5
M  V30 37 2 35 8
M  V30 38 1 35 24
M  V30 39 1 36 1
M  V30 40 1 37 2
M  V30 41 1 3 38 CFG=1
M  V30 42 1 39 6
M  V30 43 1 40 7
M  V30 44 1 41 8
M  V30 45 1 42 9
M  V30 46 1 43 2
M  V30 47 1 44 12
M  V30 48 1 45 12
M  V30 49 1 46 15
M  V30 50 1 47 15
M  V30 51 1 48 1
M  V30 52 1 17 49 CFG=3
M  V30 53 1 50 18
M  V30 54 1 51 18
M  V30 55 1 52 21
M  V30 56 1 53 21
M  V30 57 1 54 22
M  V30 58 1 55 22
M  V30 59 1 56 23
M  V30 60 1 57 24
M  V30 61 1 58 25
M  V30 62 1 59 30
M  V30 63 1 60 31
M  V30 64 1 61 32
M  V30 65 1 62 33
M  V30 END BOND
M  V30 END CTAB
M  END
>  <i_epik_Tot_Q>  (1) 
-1

>  <i_epik_Tot_abs_Q>  (1) 
1

>  <i_i_glide_confnum>  (1) 
93

>  <i_i_glide_lignum>  (1) 
145

>  <i_i_glide_posenum>  (1) 
269

>  <i_i_glide_rotatable_bonds>  (1) 
8

>  <i_lp_mmshare_version>  (1) 
72125

>  <i_m_source_file_index>  (1) 
67

>  <i_f3d_flags>  (1) 
0

>  <num_sample>  (1) 
100

>  <b_lp_Chiralities_Consistent>  (1) 
1

>  <r_epik_Charging_Adjusted_Penalty>  (1) 
0.13314888727576835

>  <r_epik_Ionization_Penalty>  (1) 
0.066709733675270222

>  <r_epik_Ionization_Penalty_Charging>  (1) 
0.066574443637884173

>  <r_epik_Ionization_Penalty_Neutral>  (1) 
0.00013529003738605556

>  <r_epik_State_Penalty>  (1) 
0.066574443637884159

>  <r_glide_ring_energy>  (1) 
0

>  <r_i_docking_score>  (1) 
-7.336439063238358

>  <r_i_glide_ecoul>  (1) 
-2.6328528303487699

>  <r_i_glide_eff_state_penalty>  (1) 
0.066574443637884159

>  <r_i_glide_einternal>  (1) 
22.238903902276913

>  <r_i_glide_emodel>  (1) 
-54.374812711414179

>  <r_i_glide_emodel_strain>  (1) 
0.71177374908288016

>  <r_i_glide_energy>  (1) 
-46.513372306377342

>  <r_i_glide_erotb>  (1) 
0.50284807503681039

>  <r_i_glide_esite>  (1) 
0

>  <r_i_glide_evdw>  (1) 
-43.880519476028574

>  <r_i_glide_gscore>  (1) 
-7.4030135068762419

>  <r_i_glide_gscore_strain>  (1) 
0

>  <r_i_glide_hbond>  (1) 
-0.16

>  <r_i_glide_ligand_efficiency>  (1) 
-0.2096125446639531

>  <r_i_glide_ligand_efficiency_ln>  (1) 
-1.6105111978731306

>  <r_i_glide_ligand_efficiency_sa>  (1) 
-0.6856565330431581

>  <r_i_glide_lipo>  (1) 
-3.8538494440755784

>  <r_i_glide_metal>  (1) 
-0

>  <r_i_glide_rewards>  (1) 
-1.30305823948373

>  <r_lp_Energy>  (1) 
64.718769999999992

>  <r_lp_tautomer_probability>  (1) 
0.99999944244275329

>  <s_epik_cmdline>  (1) 
J2VwaWtfcHl0aG9uJywgJy1waHQnLCAnMS4wJywgJy1waCcsICc3LjQnLCAnLXRuJywgJzgnLCAnLW1hJywgJzUwMCcsICctaW1hZScsICc8aW5maWxlLm1hZT4nLCAnLW9tYWUnLCAnPG91dGZpbGUubWFlPic=

>  <s_epik_input>  (1) 
W0NIXTEvW0NIMl1DKD1bQ0gyXSlbQ0hdPUM9W0NIXVtDQEBIXShDPTFcMilbQ0gyXS9bQ0hdPVtDSF1cTihbQ0gyXVtDQEBIXTJbQ0BASF0oW09IXSlbQ0gyXVtPSF0pW0NIMl1jKFtjSF1bY0hdMylubjNDKD1PKWM0YyhDbClbY0hdYyhbT0hdKVtjSF1bY0hdNA==

>  <s_glide_docking_method>  (1) 
confgen

>  <s_i_glide_gridfile>  (1) 
gpcr_5ht2c_6bqh_protein_autoprepared_prepared

>  <s_lp_Force_Field>  (1) 
S-OPLS

>  <s_lp_Variant>  (1) 
DiffSBDD_66-1

>  <s_m_source_file>  (1) 
generated_GPCR_5HT2C_ligand_DiffSBDD_2026-06-23_prepared.sdf

>  <GenAI_Model>  (1) 
DiffSBDD

>  <Protein>  (1) 
GPCR_5HT2C

$$$$
DiffSBDD_42
     RDKit          3D

  0  0  0  0  0  0  0  0  0  0999 V3000
M  V30 BEGIN CTAB
M  V30 COUNTS 89 94 0 0 1
M  V30 BEGIN ATOM
M  V30 1 C 40.829238 28.078467 58.031071 0
M  V30 2 C 44.636912 32.357551 67.497916 0
M  V30 3 C 45.128666 25.073992 69.057361 0
M  V30 4 C 46.162588 23.336489 70.565159 0
M  V30 5 O 44.845209 29.991824 69.388681 0 CHG=-1
M  V30 6 C 43.554267 26.950044 69.043091 0
M  V30 7 C 46.164720 25.957854 68.673895 0
M  V30 8 C 44.588714 27.827353 68.655420 0
M  V30 9 C 39.124827 25.711980 55.956527 0 CFG=2
M  V30 10 C 45.348162 22.603263 68.152439 0
M  V30 11 C 38.389619 28.170527 57.504810 0 CFG=1
M  V30 12 C 41.750756 28.135949 64.580514 0 CFG=1
M  V30 13 C 39.143909 29.168033 59.565814 0
M  V30 14 C 43.160945 27.555987 64.403319 0
M  V30 15 C 40.542211 29.678589 62.496665 0
M  V30 16 C 45.499848 31.156992 67.056252 0
M  V30 17 C 40.972480 27.599170 65.798480 0
M  V30 18 O 41.570449 31.602098 63.488147 0
M  V30 19 C 42.660324 31.720183 65.959483 0
M  V30 20 O 39.586923 24.835301 56.962390 0
M  V30 21 C 41.385283 30.389931 63.571031 0
M  V30 22 C 43.118372 32.219910 67.333245 0
M  V30 23 O 39.081670 31.523502 62.160525 0
M  V30 24 C 44.068399 27.975917 65.557277 0
M  V30 25 C 40.631880 28.841663 59.317366 0
M  V30 26 C 38.418817 32.461348 61.326286 0
M  V30 27 N 44.850444 29.806227 67.103607 0 CFG=1 CHG=1
M  V30 28 C 40.028425 26.961631 55.935818 0
M  V30 29 C 44.286504 29.310772 68.422725 0 CFG=2
M  V30 30 C 45.897180 27.327908 68.474981 0
M  V30 31 C 39.810120 30.562902 61.460528 0 CFG=2
M  V30 32 C 37.656213 26.068052 56.265669 0
M  V30 33 C 45.415646 23.611597 69.275930 0 CFG=2
M  V30 34 C 43.822740 25.583016 69.243014 0
M  V30 35 C 42.644361 30.172222 65.768776 0 CFG=2
M  V30 36 C 37.532222 26.893448 57.561418 0
M  V30 37 O 38.897368 29.733062 60.799416 0
M  V30 38 N 38.202345 28.917944 58.744985 0
M  V30 39 C 39.824713 27.766517 57.205385 0
M  V30 40 C 44.064882 29.502138 65.851037 0 CFG=2
M  V30 41 N 41.887041 29.612855 64.593895 0
M  V30 42 O 44.250348 22.797415 69.050590 0
M  V30 43 H 41.837635 27.767390 57.798562 0
M  V30 44 H 44.978828 33.238419 66.954820 0
M  V30 45 H 44.838777 32.573699 68.548303 0
M  V30 46 H 47.148470 23.800128 70.538056 0
M  V30 47 H 45.609980 23.734042 71.417329 0
M  V30 48 H 46.294622 22.264812 70.710749 0
M  V30 49 H 42.550841 27.325980 69.184540 0
M  V30 50 H 47.168049 25.581756 68.532114 0
M  V30 51 H 39.187224 25.187547 55.001957 0
M  V30 52 H 45.168620 22.940945 67.135441 0
M  V30 53 H 45.843708 21.641928 68.268719 0
M  V30 54 H 38.044656 28.793286 56.677812 0
M  V30 55 H 41.201892 27.732562 63.736387 0
M  V30 56 H 43.119010 26.467646 64.343369 0
M  V30 57 H 43.585918 27.894842 63.457354 0
M  V30 58 H 39.756370 29.098042 62.974885 0
M  V30 59 H 41.204298 28.994877 61.976343 0
M  V30 60 H 45.874289 31.342896 66.049481 0
M  V30 61 H 46.401968 31.136971 67.668784 0
M  V30 62 H 40.738180 26.541518 65.676619 0
M  V30 63 H 41.511547 27.696634 66.739265 0
M  V30 64 H 40.036254 28.139537 65.912733 0
M  V30 65 H 43.244355 32.212940 65.183520 0
M  V30 66 H 41.635569 32.082113 65.864978 0
M  V30 67 H 39.617705 25.313326 57.776958 0
M  V30 68 H 42.684858 33.206549 67.502288 0
M  V30 69 H 42.697704 31.597795 68.122480 0
M  V30 70 H 43.711078 27.406145 66.404679 0
M  V30 71 H 45.087427 27.630975 65.375178 0
M  V30 72 H 40.998563 28.175222 60.093479 0
M  V30 73 H 41.250096 29.735163 59.285059 0
M  V30 74 H 37.676289 31.979469 60.689764 0
M  V30 75 H 37.900649 33.193492 61.943868 0
M  V30 76 H 39.126250 32.997285 60.692696 0
M  V30 77 H 41.072706 26.671579 55.829440 0
M  V30 78 H 39.777288 27.590258 55.080457 0
M  V30 79 H 43.206101 29.349612 68.327223 0
M  V30 80 H 46.695447 27.995006 68.181206 0
M  V30 81 H 40.501533 31.082157 60.795928 0
M  V30 82 H 37.244501 26.638038 55.432402 0
M  V30 83 H 37.053889 25.161622 56.340267 0
M  V30 84 H 43.023405 24.919314 69.539389 0
M  V30 85 H 42.051631 29.833480 66.612307 0
M  V30 86 H 37.853848 26.282320 58.405052 0
M  V30 87 H 36.491167 27.140808 57.767329 0
M  V30 88 H 44.624270 29.921813 65.014207 0
M  V30 89 H 45.667199 29.217903 67.010117 0
M  V30 END ATOM
M  V30 BEGIN BOND
M  V30 1 2 7 3
M  V30 2 1 8 6
M  V30 3 1 14 12
M  V30 4 1 16 2
M  V30 5 1 17 12
M  V30 6 1 20 9
M  V30 7 1 21 15
M  V30 8 2 21 18
M  V30 9 1 22 2
M  V30 10 1 22 19
M  V30 11 1 24 14
M  V30 12 1 25 1
M  V30 13 1 25 13
M  V30 14 1 26 23
M  V30 15 1 27 16
M  V30 16 1 28 9
M  V30 17 1 29 5
M  V30 18 1 29 8
M  V30 19 1 29 27
M  V30 20 1 30 7
M  V30 21 2 30 8
M  V30 22 1 31 15
M  V30 23 1 31 23
M  V30 24 1 32 9
M  V30 25 1 33 3
M  V30 26 1 33 4 CFG=1
M  V30 27 1 33 10
M  V30 28 1 34 3
M  V30 29 2 34 6
M  V30 30 1 35 19
M  V30 31 1 36 11
M  V30 32 1 36 32
M  V30 33 1 37 13
M  V30 34 1 37 31
M  V30 35 1 38 11
M  V30 36 2 38 13
M  V30 37 2 39 1
M  V30 38 1 39 11
M  V30 39 1 39 28
M  V30 40 1 40 24
M  V30 41 1 40 27
M  V30 42 1 40 35
M  V30 43 1 41 12
M  V30 44 1 41 21
M  V30 45 1 41 35
M  V30 46 1 42 10
M  V30 47 1 42 33
M  V30 48 1 43 1
M  V30 49 1 44 2
M  V30 50 1 45 2
M  V30 51 1 46 4
M  V30 52 1 47 4
M  V30 53 1 48 4
M  V30 54 1 49 6
M  V30 55 1 50 7
M  V30 56 1 9 51 CFG=3
M  V30 57 1 52 10
M  V30 58 1 53 10
M  V30 59 1 11 54 CFG=3
M  V30 60 1 12 55 CFG=3
M  V30 61 1 56 14
M  V30 62 1 57 14
M  V30 63 1 58 15
M  V30 64 1 59 15
M  V30 65 1 60 16
M  V30 66 1 61 16
M  V30 67 1 62 17
M  V30 68 1 63 17
M  V30 69 1 64 17
M  V30 70 1 65 19
M  V30 71 1 66 19
M  V30 72 1 67 20
M  V30 73 1 68 22
M  V30 74 1 69 22
M  V30 75 1 70 24
M  V30 76 1 71 24
M  V30 77 1 72 25
M  V30 78 1 73 25
M  V30 79 1 74 26
M  V30 80 1 75 26
M  V30 81 1 76 26
M  V30 82 1 77 28
M  V30 83 1 78 28
M  V30 84 1 29 79 CFG=3
M  V30 85 1 80 30
M  V30 86 1 31 81 CFG=3
M  V30 87 1 82 32
M  V30 88 1 83 32
M  V30 89 1 84 34
M  V30 90 1 35 85 CFG=1
M  V30 91 1 86 36
M  V30 92 1 87 36
M  V30 93 1 40 88 CFG=3
M  V30 94 1 27 89 CFG=3
M  V30 END BOND
M  V30 END CTAB
M  END
>  <i_epik_Tot_Q>  (1) 
0

>  <i_epik_Tot_abs_Q>  (1) 
2

>  <i_i_glide_confnum>  (1) 
301

>  <i_i_glide_lignum>  (1) 
93

>  <i_i_glide_posenum>  (1) 
270

>  <i_i_glide_rotatable_bonds>  (1) 
10

>  <i_lp_mmshare_version>  (1) 
72125

>  <i_m_source_file_index>  (1) 
43

>  <i_f3d_flags>  (1) 
0

>  <num_sample>  (1) 
100

>  <b_lp_Chiralities_Consistent>  (1) 
1

>  <r_epik_Charging_Adjusted_Penalty>  (1) 
0.10762157237222084

>  <r_epik_Ionization_Penalty>  (1) 
0.015049648649627746

>  <r_epik_Ionization_Penalty_Charging>  (1) 
0.014590701191951229

>  <r_epik_Ionization_Penalty_Neutral>  (1) 
0.0004589474576765184

>  <r_epik_State_Penalty>  (1) 
0.093030871180269606

>  <r_glide_ring_energy>  (1) 
0

>  <r_i_docking_score>  (1) 
-7.3265260041772358

>  <r_i_glide_ecoul>  (1) 
-3.7660657058044285

>  <r_i_glide_eff_state_penalty>  (1) 
0.093030871180269606

>  <r_i_glide_einternal>  (1) 
14.583576702539126

>  <r_i_glide_emodel>  (1) 
-61.555819785929842

>  <r_i_glide_emodel_strain>  (1) 
0.43271672999254918

>  <r_i_glide_energy>  (1) 
-52.918763271134601

>  <r_i_glide_erotb>  (1) 
0.39316795176799535

>  <r_i_glide_esite>  (1) 
-0.0038736743855247203

>  <r_i_glide_evdw>  (1) 
-49.152697565330172

>  <r_i_glide_gscore>  (1) 
-7.4195568753575056

>  <r_i_glide_gscore_strain>  (1) 
0

>  <r_i_glide_hbond>  (1) 
0

>  <r_i_glide_ligand_efficiency>  (1) 
-0.17444109533755323

>  <r_i_glide_ligand_efficiency_ln>  (1) 
-1.5464408864440626

>  <r_i_glide_ligand_efficiency_sa>  (1) 
-0.60636189535651264

>  <r_i_glide_lipo>  (1) 
-4.1019579867502438

>  <r_i_glide_metal>  (1) 
-0

>  <r_i_glide_rewards>  (1) 
-0.68434843185255845

>  <r_lp_Energy>  (1) 
80.091357000000002

>  <s_epik_Chemistry_Notes>  (1) 
This compound has an imine and may undergo hydrolysis. This compound contains an acetal/aminal-like group ( X-CH(R)-Y where X, Y are N, S, or O) that may be acid/base labile, releasing an aldehyde.

>  <s_epik_cmdline>  (1) 
J2VwaWtfcHl0aG9uJywgJy1waHQnLCAnMS4wJywgJy1waCcsICc3LjQnLCAnLXRuJywgJzgnLCAnLW1hJywgJzUwMCcsICctaW1hZScsICc8aW5maWxlLm1hZT4nLCAnLW9tYWUnLCAnPG91dGZpbGUubWFlPic=

>  <s_epik_input>  (1) 
W0NIMl0xW0NIMl1bQ0BIXShbT0hdKVtDSDJdQyhbQ0BASF0xMik9W0NIXVtDSDJdQyg9TjIpT1tDQEBIXShPW0NIM10pW0NIMl1DKD1PKU4zW0NASF0oW0NIM10pW0NIMl1bQ0gyXVtDQEBIXShbQ0BIXTM0KU4oW0NIMl1bQ0gyXVtDSDJdW0NIMl00KVtDQEhdKFtPSF0pYyhbY0hdW2NIXTUpW2NIXVtjSF1jNUM2KFtDSDNdKVtDSDJdTzY=

>  <s_glide_docking_method>  (1) 
confgen

>  <s_i_glide_gridfile>  (1) 
gpcr_5ht2c_6bqh_protein_autoprepared_prepared

>  <s_lp_Force_Field>  (1) 
S-OPLS

>  <s_lp_Variant>  (1) 
DiffSBDD_42-2

>  <s_m_source_file>  (1) 
generated_GPCR_5HT2C_ligand_DiffSBDD_2026-06-23_prepared.sdf

>  <GenAI_Model>  (1) 
DiffSBDD

>  <Protein>  (1) 
GPCR_5HT2C

$$$$
DiffSBDD_75
     RDKit          3D

  0  0  0  0  0  0  0  0  0  0999 V3000
M  V30 BEGIN CTAB
M  V30 COUNTS 77 78 0 0 1
M  V30 BEGIN ATOM
M  V30 1 C 37.310406 30.632763 59.336532 0
M  V30 2 C 35.174622 32.356210 60.743828 0
M  V30 3 O 40.445183 35.337668 60.567814 0
M  V30 4 C 40.549256 28.868382 59.937695 0
M  V30 5 C 40.934655 32.859223 63.401575 0 CFG=1
M  V30 6 C 38.069981 29.943842 54.174829 0
M  V30 7 C 40.165768 34.201821 61.352672 0 CFG=2
M  V30 8 C 37.574355 28.657269 53.876108 0
M  V30 9 O 42.374383 32.084346 65.191885 0
M  V30 10 C 40.345526 35.392258 63.659072 0 CFG=1
M  V30 11 O 39.645117 27.769453 50.968920 0
M  V30 12 S 38.053367 33.263565 59.860712 0
M  V30 13 C 40.629905 28.389916 61.394239 0
M  V30 14 C 39.141075 28.473440 52.020921 0
M  V30 15 C 38.644377 33.997029 61.409434 0
M  V30 16 C 37.455513 30.752256 55.313232 0
M  V30 17 C 39.120911 30.485325 53.404295 0
M  V30 18 O 42.407935 35.737742 64.898730 0
M  V30 19 C 40.353778 36.822214 63.086859 0
M  V30 20 C 40.899459 34.271021 62.720549 0 CFG=1
M  V30 21 O 39.718050 29.149957 62.167632 0
M  V30 22 O 36.314757 31.737897 61.323788 0
M  V30 23 O 39.574140 29.198860 56.753914 0
M  V30 24 C 38.602365 27.650491 58.967329 0
M  V30 25 N 39.126830 28.925462 59.521912 0 CFG=2 CHG=1
M  V30 26 C 38.918759 30.094306 57.286344 0
M  V30 27 C 38.108855 27.925445 52.800391 0
M  V30 28 C 38.428041 31.238727 56.404108 0
M  V30 29 C 38.708737 30.180055 58.825615 0 CFG=1
M  V30 30 C 39.651433 29.750637 52.325218 0
M  V30 31 C 41.038539 34.001851 65.746084 0
M  V30 32 C 37.458779 31.658653 60.481835 0 CFG=1
M  V30 33 C 41.640979 31.783071 62.539805 0
M  V30 34 C 41.051585 35.367222 65.044054 0 CFG=2
M  V30 35 C 41.534697 32.903366 64.818433 0
M  V30 36 H 36.688740 31.068154 58.562581 0
M  V30 37 H 36.748770 29.768847 59.694446 0
M  V30 38 H 34.445416 32.537525 61.531001 0
M  V30 39 H 35.391877 33.330442 60.308906 0
M  V30 40 H 34.718227 31.735976 59.973731 0
M  V30 41 H 40.213251 36.110077 61.059933 0
M  V30 42 H 41.131422 28.222826 59.278895 0
M  V30 43 H 41.011705 29.851555 59.873427 0
M  V30 44 H 40.577874 33.375282 60.781731 0
M  V30 45 H 36.777913 28.236565 54.464950 0
M  V30 46 H 41.678608 34.034401 66.628970 0
M  V30 47 H 39.284344 35.212391 63.767751 0
M  V30 48 H 40.224963 28.284121 50.430000 0
M  V30 49 H 40.370907 27.337765 61.465380 0
M  V30 50 H 41.639828 28.497733 61.791828 0
M  V30 51 H 38.120893 34.935969 61.587498 0
M  V30 52 H 38.369042 33.336475 62.230193 0
M  V30 53 H 36.968991 31.622111 54.869319 0
M  V30 54 H 36.650929 30.171552 55.767798 0
M  V30 55 H 39.506874 31.469630 53.628692 0
M  V30 56 H 42.445414 36.686607 64.799380 0
M  V30 57 H 41.345424 37.086674 62.729108 0
M  V30 58 H 39.640378 36.955802 62.275601 0
M  V30 59 H 40.045114 37.546437 63.842443 0
M  V30 60 H 41.938376 34.520602 62.510348 0
M  V30 61 H 39.590465 28.741609 63.019654 0
M  V30 62 H 39.288211 27.195873 58.250469 0
M  V30 63 H 38.445283 26.937716 59.767762 0
M  V30 64 H 37.645242 27.798523 58.467592 0
M  V30 65 H 37.719587 26.945317 52.567769 0
M  V30 66 H 39.284841 31.745960 55.961097 0
M  V30 67 H 37.928332 31.982923 57.024168 0
M  V30 68 H 39.385382 30.958001 59.160323 0
M  V30 69 H 40.446706 30.171341 51.728645 0
M  V30 70 H 40.045163 33.740038 66.105227 0
M  V30 71 H 39.909343 32.525167 63.557264 0
M  V30 72 H 38.241638 31.278732 61.138864 0
M  V30 73 H 41.820232 30.859334 63.092529 0
M  V30 74 H 41.032229 31.494345 61.685815 0
M  V30 75 H 42.603893 32.137555 62.169735 0
M  V30 76 H 40.581441 36.094626 65.707596 0
M  V30 77 H 38.681656 29.022862 60.426471 0
M  V30 END ATOM
M  V30 BEGIN BOND
M  V30 1 1 7 3
M  V30 2 1 8 6
M  V30 3 1 13 4
M  V30 4 1 14 11
M  V30 5 1 15 7
M  V30 6 1 15 12
M  V30 7 1 16 6
M  V30 8 2 17 6
M  V30 9 1 19 10
M  V30 10 1 20 5
M  V30 11 1 20 7
M  V30 12 1 20 10
M  V30 13 1 21 13
M  V30 14 1 22 2
M  V30 15 1 25 4
M  V30 16 1 25 24
M  V30 17 2 26 23
M  V30 18 2 27 8
M  V30 19 1 27 14
M  V30 20 1 28 16
M  V30 21 1 28 26
M  V30 22 1 29 1
M  V30 23 1 29 25
M  V30 24 1 29 26
M  V30 25 2 30 14
M  V30 26 1 30 17
M  V30 27 1 32 1
M  V30 28 1 32 12
M  V30 29 1 32 22
M  V30 30 1 33 5
M  V30 31 1 34 10
M  V30 32 1 34 18
M  V30 33 1 34 31
M  V30 34 1 35 5
M  V30 35 2 35 9
M  V30 36 1 35 31
M  V30 37 1 36 1
M  V30 38 1 37 1
M  V30 39 1 38 2
M  V30 40 1 39 2
M  V30 41 1 40 2
M  V30 42 1 41 3
M  V30 43 1 42 4
M  V30 44 1 43 4
M  V30 45 1 7 44 CFG=3
M  V30 46 1 45 8
M  V30 47 1 46 31
M  V30 48 1 10 47 CFG=1
M  V30 49 1 48 11
M  V30 50 1 49 13
M  V30 51 1 50 13
M  V30 52 1 51 15
M  V30 53 1 52 15
M  V30 54 1 53 16
M  V30 55 1 54 16
M  V30 56 1 55 17
M  V30 57 1 56 18
M  V30 58 1 57 19
M  V30 59 1 58 19
M  V30 60 1 59 19
M  V30 61 1 20 60 CFG=3
M  V30 62 1 61 21
M  V30 63 1 62 24
M  V30 64 1 63 24
M  V30 65 1 64 24
M  V30 66 1 65 27
M  V30 67 1 66 28
M  V30 68 1 67 28
M  V30 69 1 29 68 CFG=1
M  V30 70 1 69 30
M  V30 71 1 70 31
M  V30 72 1 5 71 CFG=1
M  V30 73 1 32 72 CFG=1
M  V30 74 1 73 33
M  V30 75 1 74 33
M  V30 76 1 75 33
M  V30 77 1 34 76 CFG=1
M  V30 78 1 25 77 CFG=1
M  V30 END BOND
M  V30 END CTAB
M  END
>  <i_epik_Tot_Q>  (1) 
1

>  <i_epik_Tot_abs_Q>  (1) 
1

>  <i_i_glide_confnum>  (1) 
6321

>  <i_i_glide_lignum>  (1) 
168

>  <i_i_glide_posenum>  (1) 
314

>  <i_i_glide_rotatable_bonds>  (1) 
18

>  <i_lp_mmshare_version>  (1) 
72125

>  <i_m_source_file_index>  (1) 
76

>  <i_f3d_flags>  (1) 
0

>  <num_sample>  (1) 
100

>  <b_lp_Chiralities_Consistent>  (1) 
1

>  <r_epik_Charging_Adjusted_Penalty>  (1) 
0.52789471212939676

>  <r_epik_Ionization_Penalty>  (1) 
0.26592108790513191

>  <r_epik_Ionization_Penalty_Charging>  (1) 
0.26394735606469838

>  <r_epik_Ionization_Penalty_Neutral>  (1) 
0.0019737318404335234

>  <r_epik_State_Penalty>  (1) 
0.26394735606469838

>  <r_glide_ring_energy>  (1) 
0

>  <r_i_docking_score>  (1) 
-7.2818088493803783

>  <r_i_glide_ecoul>  (1) 
-10.409598327956777

>  <r_i_glide_eff_state_penalty>  (1) 
0.26394735606469838

>  <r_i_glide_einternal>  (1) 
18.547631005781501

>  <r_i_glide_emodel>  (1) 
-71.701063112605738

>  <r_i_glide_emodel_strain>  (1) 
1.1385018344768696

>  <r_i_glide_energy>  (1) 
-55.447545960021728

>  <r_i_glide_erotb>  (1) 
1.0139394581015995

>  <r_i_glide_esite>  (1) 
-0.019474931164133281

>  <r_i_glide_evdw>  (1) 
-45.037947632064949

>  <r_i_glide_gscore>  (1) 
-7.5457562054450769

>  <r_i_glide_gscore_strain>  (1) 
0

>  <r_i_glide_hbond>  (1) 
-0.82151776513973351

>  <r_i_glide_ligand_efficiency>  (1) 
-0.20805168141086794

>  <r_i_glide_ligand_efficiency_ln>  (1) 
-1.5985186534790328

>  <r_i_glide_ligand_efficiency_sa>  (1) 
-0.68055084584117997

>  <r_i_glide_lipo>  (1) 
-3.3363919942403348

>  <r_i_glide_metal>  (1) 
-0

>  <r_i_glide_rewards>  (1) 
-0.56897384220570912

>  <r_lp_Energy>  (1) 
30.563872

>  <r_lp_tautomer_probability>  (1) 
0.99989998499911525

>  <s_epik_Chemistry_Notes>  (1) 
This compound contains an acetal/aminal-like group ( X-CH(R)-Y where X, Y are N, S, or O) that may be acid/base labile, releasing an aldehyde.

>  <s_epik_cmdline>  (1) 
J2VwaWtfcHl0aG9uJywgJy1waHQnLCAnMS4wJywgJy1waCcsICc3LjQnLCAnLXRuJywgJzgnLCAnLW1hJywgJzUwMCcsICctaW1hZScsICc8aW5maWxlLm1hZT4nLCAnLW9tYWUnLCAnPG91dGZpbGUubWFlPic=

>  <s_epik_input>  (1) 
W2NIXTFbY0hdYyhbT0hdKVtjSF1bY0hdYzFbQ0gyXVtDSDJdQyg9TylbQ0BIXShOKFtDSDNdKVtDSDJdW0NIMl1bT0hdKVtDSDJdW0NASF0oT1tDSDNdKVNbQ0gyXVtDQEBIXShbT0hdKVtDQEhdMltDQEBIXShbQ0gzXSlbQ0BIXShbT0hdKVtDSDJdQyhbT0hdKT1DMltDSDNd

>  <s_glide_docking_method>  (1) 
confgen

>  <s_i_glide_gridfile>  (1) 
gpcr_5ht2c_6bqh_protein_autoprepared_prepared

>  <s_lp_Force_Field>  (1) 
S-OPLS

>  <s_lp_Variant>  (1) 
DiffSBDD_75-5

>  <s_m_source_file>  (1) 
generated_GPCR_5HT2C_ligand_DiffSBDD_2026-06-23_prepared.sdf

>  <GenAI_Model>  (1) 
DiffSBDD

>  <Protein>  (1) 
GPCR_5HT2C

$$$$
DiffSBDD_42
     RDKit          3D

  0  0  0  0  0  0  0  0  0  0999 V3000
M  V30 BEGIN CTAB
M  V30 COUNTS 89 94 0 0 1
M  V30 BEGIN ATOM
M  V30 1 C 41.796094 30.729574 66.929318 0
M  V30 2 C 38.061148 29.675738 59.017234 0
M  V30 3 C 38.380978 28.326502 54.345428 0
M  V30 4 C 38.586971 27.390959 52.079404 0
M  V30 5 O 38.721113 32.967327 56.087196 0 CHG=-1
M  V30 6 C 39.576932 29.561629 56.061392 0
M  V30 7 C 37.500488 29.406004 54.185410 0
M  V30 8 C 38.683257 30.639508 55.909932 0
M  V30 9 C 44.267550 28.192837 66.065608 0 CFG=2
M  V30 10 C 37.343123 26.003035 54.051636 0
M  V30 11 C 43.390880 30.869508 65.012717 0 CFG=1
M  V30 12 C 37.360227 34.720951 61.244541 0 CFG=1
M  V30 13 C 41.334686 32.136130 64.890025 0
M  V30 14 C 37.208321 35.276110 59.818833 0
M  V30 15 C 39.810389 34.901034 62.909122 0
M  V30 16 C 37.151478 30.680969 58.302800 0
M  V30 17 C 35.991463 34.175172 61.681418 0
M  V30 18 O 40.663955 33.199106 61.469101 0
M  V30 19 C 38.977607 31.256110 60.696727 0
M  V30 20 O 43.168750 27.321111 65.889721 0
M  V30 21 C 39.682159 33.877785 61.774290 0
M  V30 22 C 38.195204 29.989910 60.487867 0
M  V30 23 O 42.044882 34.595075 63.768007 0
M  V30 24 C 37.101124 34.167253 58.741691 0
M  V30 25 C 40.858355 31.721885 66.281040 0
M  V30 26 C 42.405828 35.849641 64.307635 0
M  V30 27 N 37.791286 31.963108 57.845374 0 CFG=2 CHG=1
M  V30 28 C 43.880368 29.335245 67.026131 0
M  V30 29 C 38.824627 31.865761 56.785276 0 CFG=2
M  V30 30 C 37.645806 30.561044 54.964050 0
M  V30 31 C 40.713327 34.308432 64.057052 0 CFG=2
M  V30 32 C 44.726767 28.723168 64.693668 0
M  V30 33 C 38.210698 27.119441 53.528478 0 CFG=2
M  V30 34 C 39.423386 28.411698 55.285924 0
M  V30 35 C 38.158050 32.529084 60.341589 0 CFG=2
M  V30 36 C 43.711981 29.696059 64.069680 0
M  V30 37 O 40.423985 32.937940 64.245250 0
M  V30 38 N 42.435886 31.766194 64.353060 0
M  V30 39 C 42.943668 30.335650 66.366420 0
M  V30 40 C 38.115422 33.005853 58.875551 0 CFG=2
M  V30 41 N 38.448232 33.703932 61.187158 0
M  V30 42 O 38.770706 25.962695 54.167739 0
M  V30 43 H 41.502494 30.335722 67.891047 0
M  V30 44 H 39.051272 29.616850 58.575778 0
M  V30 45 H 37.632585 28.679194 58.911824 0
M  V30 46 H 37.954657 28.181703 51.674557 0
M  V30 47 H 39.623936 27.722760 52.020530 0
M  V30 48 H 38.465105 26.537761 51.431965 0
M  V30 49 H 40.374900 29.614283 56.784162 0
M  V30 50 H 36.705978 29.337749 53.463802 0
M  V30 51 H 45.074566 27.610174 66.511217 0
M  V30 52 H 36.845145 26.124193 55.010910 0
M  V30 53 H 36.905071 25.284393 53.367804 0
M  V30 54 H 44.313702 31.420251 65.199372 0
M  V30 55 H 37.578956 35.584082 61.865964 0
M  V30 56 H 36.331239 35.922824 59.757593 0
M  V30 57 H 38.045097 35.932662 59.611091 0
M  V30 58 H 38.865073 35.161740 63.367740 0
M  V30 59 H 40.237728 35.824793 62.521257 0
M  V30 60 H 36.718479 30.142546 57.456460 0
M  V30 61 H 36.287068 30.919443 58.925391 0
M  V30 62 H 35.265551 34.937750 61.863503 0
M  V30 63 H 35.522253 33.478861 60.987930 0
M  V30 64 H 36.045134 33.737737 62.633928 0
M  V30 65 H 39.928994 31.211483 60.168667 0
M  V30 66 H 39.202301 31.239041 61.764057 0
M  V30 67 H 42.455104 27.813280 65.514032 0
M  V30 68 H 38.703353 29.162807 60.984103 0
M  V30 69 H 37.221416 30.137754 60.957863 0
M  V30 70 H 36.087286 33.767293 58.739994 0
M  V30 71 H 37.245204 34.616866 57.767767 0
M  V30 72 H 39.872805 31.267325 66.191577 0
M  V30 73 H 40.770694 32.602567 66.915769 0
M  V30 74 H 43.245146 36.306845 63.797131 0
M  V30 75 H 41.577142 36.537645 64.167035 0
M  V30 76 H 42.625489 35.783442 65.373734 0
M  V30 77 H 43.446180 28.938041 67.945071 0
M  V30 78 H 44.782459 29.874520 67.319747 0
M  V30 79 H 39.689854 31.650093 57.367685 0
M  V30 80 H 36.956180 31.386607 54.845407 0
M  V30 81 H 40.445520 34.759470 65.016723 0
M  V30 82 H 45.670139 29.250621 64.819823 0
M  V30 83 H 44.928872 27.896644 64.010807 0
M  V30 84 H 40.108173 27.585484 55.410974 0
M  V30 85 H 37.145350 32.242950 60.596576 0
M  V30 86 H 42.796738 29.159580 63.819564 0
M  V30 87 H 44.105084 30.074122 63.127554 0
M  V30 88 H 39.099329 33.427077 58.659689 0
M  V30 89 H 37.021978 32.361142 57.313068 0
M  V30 END ATOM
M  V30 BEGIN BOND
M  V30 1 2 7 3
M  V30 2 1 8 6
M  V30 3 1 14 12
M  V30 4 1 16 2
M  V30 5 1 17 12
M  V30 6 1 20 9
M  V30 7 1 21 15
M  V30 8 2 21 18
M  V30 9 1 22 2
M  V30 10 1 22 19
M  V30 11 1 24 14
M  V30 12 1 25 1
M  V30 13 1 25 13
M  V30 14 1 26 23
M  V30 15 1 27 16
M  V30 16 1 28 9
M  V30 17 1 29 5
M  V30 18 1 29 8
M  V30 19 1 29 27
M  V30 20 1 30 7
M  V30 21 2 30 8
M  V30 22 1 31 15
M  V30 23 1 31 23
M  V30 24 1 32 9
M  V30 25 1 33 3
M  V30 26 1 33 4 CFG=3
M  V30 27 1 33 10
M  V30 28 1 34 3
M  V30 29 2 34 6
M  V30 30 1 35 19
M  V30 31 1 36 11
M  V30 32 1 36 32
M  V30 33 1 37 13
M  V30 34 1 37 31
M  V30 35 1 38 11
M  V30 36 2 38 13
M  V30 37 2 39 1
M  V30 38 1 39 11
M  V30 39 1 39 28
M  V30 40 1 40 24
M  V30 41 1 40 27
M  V30 42 1 40 35
M  V30 43 1 41 12
M  V30 44 1 41 21
M  V30 45 1 41 35
M  V30 46 1 42 10
M  V30 47 1 42 33
M  V30 48 1 43 1
M  V30 49 1 44 2
M  V30 50 1 45 2
M  V30 51 1 46 4
M  V30 52 1 47 4
M  V30 53 1 48 4
M  V30 54 1 49 6
M  V30 55 1 50 7
M  V30 56 1 9 51 CFG=1
M  V30 57 1 52 10
M  V30 58 1 53 10
M  V30 59 1 11 54 CFG=1
M  V30 60 1 12 55 CFG=1
M  V30 61 1 56 14
M  V30 62 1 57 14
M  V30 63 1 58 15
M  V30 64 1 59 15
M  V30 65 1 60 16
M  V30 66 1 61 16
M  V30 67 1 62 17
M  V30 68 1 63 17
M  V30 69 1 64 17
M  V30 70 1 65 19
M  V30 71 1 66 19
M  V30 72 1 67 20
M  V30 73 1 68 22
M  V30 74 1 69 22
M  V30 75 1 70 24
M  V30 76 1 71 24
M  V30 77 1 72 25
M  V30 78 1 73 25
M  V30 79 1 74 26
M  V30 80 1 75 26
M  V30 81 1 76 26
M  V30 82 1 77 28
M  V30 83 1 78 28
M  V30 84 1 29 79 CFG=1
M  V30 85 1 80 30
M  V30 86 1 31 81 CFG=1
M  V30 87 1 82 32
M  V30 88 1 83 32
M  V30 89 1 84 34
M  V30 90 1 35 85 CFG=1
M  V30 91 1 86 36
M  V30 92 1 87 36
M  V30 93 1 40 88 CFG=3
M  V30 94 1 27 89 CFG=3
M  V30 END BOND
M  V30 END CTAB
M  END
>  <i_epik_Tot_Q>  (1) 
0

>  <i_epik_Tot_abs_Q>  (1) 
2

>  <i_i_glide_confnum>  (1) 
626

>  <i_i_glide_lignum>  (1) 
92

>  <i_i_glide_posenum>  (1) 
154

>  <i_i_glide_rotatable_bonds>  (1) 
10

>  <i_lp_mmshare_version>  (1) 
72125

>  <i_m_source_file_index>  (1) 
43

>  <i_f3d_flags>  (1) 
0

>  <num_sample>  (1) 
100

>  <b_lp_Chiralities_Consistent>  (1) 
1

>  <r_epik_Charging_Adjusted_Penalty>  (1) 
0.10762157237222084

>  <r_epik_Ionization_Penalty>  (1) 
0.015049648649627746

>  <r_epik_Ionization_Penalty_Charging>  (1) 
0.014590701191951229

>  <r_epik_Ionization_Penalty_Neutral>  (1) 
0.0004589474576765184

>  <r_epik_State_Penalty>  (1) 
0.093030871180269606

>  <r_glide_ring_energy>  (1) 
0

>  <r_i_docking_score>  (1) 
-7.2792651602992793

>  <r_i_glide_ecoul>  (1) 
-5.7181736814486088

>  <r_i_glide_eff_state_penalty>  (1) 
0.093030871180269606

>  <r_i_glide_einternal>  (1) 
12.210858994950492

>  <r_i_glide_emodel>  (1) 
-35.685042248087498

>  <r_i_glide_emodel_strain>  (1) 
3.9500658712186123

>  <r_i_glide_energy>  (1) 
-40.03670130373564

>  <r_i_glide_erotb>  (1) 
0.39316795176799535

>  <r_i_glide_esite>  (1) 
-0.15186270421403739

>  <r_i_glide_evdw>  (1) 
-34.318527622287029

>  <r_i_glide_gscore>  (1) 
-7.3722960314795491

>  <r_i_glide_gscore_strain>  (1) 
0

>  <r_i_glide_hbond>  (1) 
-0.14443341449663946

>  <r_i_glide_ligand_efficiency>  (1) 
-0.17331583714998283

>  <r_i_glide_ligand_efficiency_ln>  (1) 
-1.5364653398809234

>  <r_i_glide_ligand_efficiency_sa>  (1) 
-0.60245046791414125

>  <r_i_glide_lipo>  (1) 
-3.259356985622516

>  <r_i_glide_metal>  (1) 
-0

>  <r_i_glide_rewards>  (1) 
-1.6361584455827094

>  <r_lp_Energy>  (1) 
81.408011000000002

>  <s_epik_Chemistry_Notes>  (1) 
This compound has an imine and may undergo hydrolysis. This compound contains an acetal/aminal-like group ( X-CH(R)-Y where X, Y are N, S, or O) that may be acid/base labile, releasing an aldehyde.

>  <s_epik_cmdline>  (1) 
J2VwaWtfcHl0aG9uJywgJy1waHQnLCAnMS4wJywgJy1waCcsICc3LjQnLCAnLXRuJywgJzgnLCAnLW1hJywgJzUwMCcsICctaW1hZScsICc8aW5maWxlLm1hZT4nLCAnLW9tYWUnLCAnPG91dGZpbGUubWFlPic=

>  <s_epik_input>  (1) 
W0NIMl0xW0NIMl1bQ0BIXShbT0hdKVtDSDJdQyhbQ0BASF0xMik9W0NIXVtDSDJdQyg9TjIpT1tDQEBIXShPW0NIM10pW0NIMl1DKD1PKU4zW0NASF0oW0NIM10pW0NIMl1bQ0gyXVtDQEBIXShbQ0BIXTM0KU4oW0NIMl1bQ0gyXVtDSDJdW0NIMl00KVtDQEhdKFtPSF0pYyhbY0hdW2NIXTUpW2NIXVtjSF1jNUM2KFtDSDNdKVtDSDJdTzY=

>  <s_glide_docking_method>  (1) 
confgen

>  <s_i_glide_gridfile>  (1) 
gpcr_5ht2c_6bqh_protein_autoprepared_prepared

>  <s_lp_Force_Field>  (1) 
S-OPLS

>  <s_lp_Variant>  (1) 
DiffSBDD_42-1

>  <s_m_source_file>  (1) 
generated_GPCR_5HT2C_ligand_DiffSBDD_2026-06-23_prepared.sdf

>  <GenAI_Model>  (1) 
DiffSBDD

>  <Protein>  (1) 
GPCR_5HT2C

$$$$
DiffSBDD_74
     RDKit          3D

  0  0  0  0  0  0  0  0  0  0999 V3000
M  V30 BEGIN CTAB
M  V30 COUNTS 71 73 0 0 1
M  V30 BEGIN ATOM
M  V30 1 C 34.831743 33.737705 60.509555 0
M  V30 2 C 38.343285 33.345492 59.052743 0
M  V30 3 C 39.056680 35.660558 62.017390 0
M  V30 4 F 37.105471 24.261734 57.225020 0
M  V30 5 C 38.995282 34.091682 59.961996 0
M  V30 6 C 38.627779 25.988083 57.576153 0
M  V30 7 C 39.772722 26.160852 58.375579 0
M  V30 8 C 37.152807 29.501973 57.630807 0
M  V30 9 O 39.245137 28.131328 55.066550 0
M  V30 10 F 41.158744 34.528487 61.978379 0
M  V30 11 F 40.758270 35.853990 63.646378 0
M  V30 12 C 38.046552 34.107020 56.166339 0
M  V30 13 F 38.455091 24.763260 55.611024 0
M  V30 14 C 33.901503 32.937761 59.606310 0
M  V30 15 C 37.057749 34.306913 61.367760 0
M  V30 16 N 37.404405 30.022458 56.263597 0 CHG=1
M  V30 17 C 39.482259 29.505297 54.873116 0 CFG=1
M  V30 18 C 39.109149 29.838466 53.421395 0
M  V30 19 C 36.856830 33.076443 59.158366 0
M  V30 20 C 38.045146 28.323169 57.923421 0
M  V30 21 N 38.255827 32.739899 56.618461 0
M  V30 22 F 39.196037 23.737758 57.367760 0
M  V30 23 C 38.875136 31.906144 55.582286 0 CFG=1
M  V30 24 C 36.282109 33.291074 60.559776 0 CFG=2
M  V30 25 C 38.813422 30.404974 55.961740 0 CFG=1
M  V30 26 C 38.282582 32.042449 54.160282 0
M  V30 27 C 40.045109 27.409713 58.960179 0
M  V30 28 F 39.570223 36.663076 61.317058 0
M  V30 29 F 38.222730 36.184007 62.918550 0
M  V30 30 O 36.345416 32.058124 61.256139 0
M  V30 31 C 39.041638 32.744233 57.853585 0
M  V30 32 C 38.340030 24.651369 56.933911 0
M  V30 33 C 37.759907 27.065644 57.359996 0
M  V30 34 C 38.328524 34.665520 61.110552 0
M  V30 35 C 40.208033 34.992148 62.791376 0
M  V30 36 C 39.184165 28.490092 58.734496 0
M  V30 37 C 39.279975 31.337703 53.218393 0
M  V30 38 H 34.444602 33.737780 61.527784 0
M  V30 39 H 34.845139 34.755041 60.130027 0
M  V30 40 H 40.045133 34.278208 59.823923 0
M  V30 41 H 40.445108 25.335598 58.542724 0
M  V30 42 H 37.384032 30.267701 58.361193 0
M  V30 43 H 36.100969 29.255863 57.767763 0
M  V30 44 H 39.702876 27.843438 55.843845 0
M  V30 45 H 37.245140 34.137757 55.437978 0
M  V30 46 H 37.766006 34.756238 56.989779 0
M  V30 47 H 38.929102 34.522311 55.688822 0
M  V30 48 H 32.867737 33.244802 59.767760 0
M  V30 49 H 34.125338 33.140601 58.567752 0
M  V30 50 H 34.004896 31.865568 59.767694 0
M  V30 51 H 36.537432 34.739733 62.196358 0
M  V30 52 H 36.817353 30.854439 56.181237 0
M  V30 53 H 40.557189 29.660370 54.967776 0
M  V30 54 H 38.083501 29.535543 53.205049 0
M  V30 55 H 39.745658 29.289504 52.726331 0
M  V30 56 H 36.588762 32.092390 58.800041 0
M  V30 57 H 36.381798 33.770807 58.465018 0
M  V30 58 H 39.921990 32.212012 55.539534 0
M  V30 59 H 39.433902 30.255599 56.838719 0
M  V30 60 H 37.304363 31.562899 54.124741 0
M  V30 61 H 38.045155 33.048195 53.829072 0
M  V30 62 H 40.922997 27.539289 59.574630 0
M  V30 63 H 37.245053 31.769464 61.236791 0
M  V30 64 H 39.987788 33.260247 57.687148 0
M  V30 65 H 39.245131 31.730882 58.176747 0
M  V30 66 H 36.890275 26.932446 56.739486 0
M  V30 67 H 39.846946 34.142871 63.367849 0
M  V30 68 H 39.403307 29.453088 59.171236 0
M  V30 69 H 39.245137 31.642231 52.174244 0
M  V30 70 H 40.302514 31.587772 53.490543 0
M  V30 71 H 37.111115 29.340719 55.581051 0
M  V30 END ATOM
M  V30 BEGIN BOND
M  V30 1 2 5 2
M  V30 2 2 7 6
M  V30 3 1 14 1
M  V30 4 1 16 8
M  V30 5 1 17 9
M  V30 6 1 18 17
M  V30 7 1 19 2
M  V30 8 1 20 8
M  V30 9 1 21 12
M  V30 10 1 23 21
M  V30 11 1 24 1
M  V30 12 1 24 15
M  V30 13 1 24 19
M  V30 14 1 25 16
M  V30 15 1 25 17
M  V30 16 1 25 23
M  V30 17 1 26 23
M  V30 18 1 27 7
M  V30 19 1 28 3
M  V30 20 1 29 3
M  V30 21 1 24 30 CFG=1
M  V30 22 1 31 2
M  V30 23 1 31 21
M  V30 24 1 32 4
M  V30 25 1 32 6
M  V30 26 1 32 13
M  V30 27 1 32 22
M  V30 28 1 33 6
M  V30 29 2 33 20
M  V30 30 1 34 3
M  V30 31 1 34 5
M  V30 32 2 34 15
M  V30 33 1 35 3
M  V30 34 1 35 10
M  V30 35 1 35 11
M  V30 36 1 36 20
M  V30 37 2 36 27
M  V30 38 1 37 18
M  V30 39 1 37 26
M  V30 40 1 38 1
M  V30 41 1 39 1
M  V30 42 1 40 5
M  V30 43 1 41 7
M  V30 44 1 42 8
M  V30 45 1 43 8
M  V30 46 1 44 9
M  V30 47 1 45 12
M  V30 48 1 46 12
M  V30 49 1 47 12
M  V30 50 1 48 14
M  V30 51 1 49 14
M  V30 52 1 50 14
M  V30 53 1 51 15
M  V30 54 1 52 16
M  V30 55 1 17 53 CFG=3
M  V30 56 1 54 18
M  V30 57 1 55 18
M  V30 58 1 56 19
M  V30 59 1 57 19
M  V30 60 1 23 58 CFG=3
M  V30 61 1 25 59 CFG=1
M  V30 62 1 60 26
M  V30 63 1 61 26
M  V30 64 1 62 27
M  V30 65 1 63 30
M  V30 66 1 64 31
M  V30 67 1 65 31
M  V30 68 1 66 33
M  V30 69 1 67 35
M  V30 70 1 68 36
M  V30 71 1 69 37
M  V30 72 1 70 37
M  V30 73 1 71 16
M  V30 END BOND
M  V30 END CTAB
M  END
>  <i_epik_Tot_Q>  (1) 
1

>  <i_epik_Tot_abs_Q>  (1) 
1

>  <i_i_glide_confnum>  (1) 
431

>  <i_i_glide_lignum>  (1) 
162

>  <i_i_glide_posenum>  (1) 
118

>  <i_i_glide_rotatable_bonds>  (1) 
12

>  <i_lp_mmshare_version>  (1) 
72125

>  <i_m_source_file_index>  (1) 
75

>  <i_f3d_flags>  (1) 
0

>  <num_sample>  (1) 
100

>  <b_lp_Chiralities_Consistent>  (1) 
1

>  <r_epik_Charging_Adjusted_Penalty>  (1) 
0.26612613870957635

>  <r_epik_Ionization_Penalty>  (1) 
0.1330997432788415

>  <r_epik_Ionization_Penalty_Charging>  (1) 
0.13306306935478829

>  <r_epik_Ionization_Penalty_Neutral>  (1) 
3.6673924053210746e-05

>  <r_epik_State_Penalty>  (1) 
0.13306306935478809

>  <r_glide_ring_energy>  (1) 
0

>  <r_i_docking_score>  (1) 
-7.2777011483893688

>  <r_i_glide_ecoul>  (1) 
-3.3695715533095063

>  <r_i_glide_eff_state_penalty>  (1) 
0.13306306935478809

>  <r_i_glide_einternal>  (1) 
7.9224194111827551

>  <r_i_glide_emodel>  (1) 
-47.708499648060112

>  <r_i_glide_emodel_strain>  (1) 
3.0781767290546611

>  <r_i_glide_energy>  (1) 
-32.002030875244266

>  <r_i_glide_erotb>  (1) 
0.49698158257681319

>  <r_i_glide_esite>  (1) 
-0.10477818022392481

>  <r_i_glide_evdw>  (1) 
-28.632459321934757

>  <r_i_glide_gscore>  (1) 
-7.4107642177441573

>  <r_i_glide_gscore_strain>  (1) 
0

>  <r_i_glide_hbond>  (1) 
-0.34417338710652773

>  <r_i_glide_ligand_efficiency>  (1) 
-0.1966946256321451

>  <r_i_glide_ligand_efficiency_ln>  (1) 
-1.5783627655639232

>  <r_i_glide_ligand_efficiency_sa>  (1) 
-0.65543012963275427

>  <r_i_glide_lipo>  (1) 
-3.2932777674996285

>  <r_i_glide_metal>  (1) 
-0

>  <r_i_glide_rewards>  (1) 
-2.2284577663977254

>  <r_lp_Energy>  (1) 
43.081995999999997

>  <s_epik_cmdline>  (1) 
J2VwaWtfcHl0aG9uJywgJy1waHQnLCAnMS4wJywgJy1waCcsICc3LjQnLCAnLXRuJywgJzgnLCAnLW1hJywgJzUwMCcsICctaW1hZScsICc8aW5maWxlLm1hZT4nLCAnLW9tYWUnLCAnPG91dGZpbGUubWFlPic=

>  <s_epik_input>  (1) 
W0NIM11bQ0gyXVtDQF0xKFtPSF0pW0NIXT1DKEMoRikoRilbQ0hdKEYpRilbQ0hdPUMoW0NIMl0xKVtDSDJdTihbQ0gzXSlbQ0BIXShbQ0gyXVtDSDJdW0NIMl1bQ0BASF0yW09IXSlbQ0BIXTJbTkhdW0NIMl1jKFtjSF0zKVtjSF1bY0hdW2NIXWMzQyhGKShGKUY=

>  <s_glide_docking_method>  (1) 
confgen

>  <s_i_glide_gridfile>  (1) 
gpcr_5ht2c_6bqh_protein_autoprepared_prepared

>  <s_lp_Force_Field>  (1) 
S-OPLS

>  <s_lp_Variant>  (1) 
DiffSBDD_74-1

>  <s_m_source_file>  (1) 
generated_GPCR_5HT2C_ligand_DiffSBDD_2026-06-23_prepared.sdf

>  <GenAI_Model>  (1) 
DiffSBDD

>  <Protein>  (1) 
GPCR_5HT2C

$$$$
DiffSBDD_71
     RDKit          3D

  0  0  0  0  0  0  0  0  0  0999 V3000
M  V30 BEGIN CTAB
M  V30 COUNTS 52 54 0 0 1
M  V30 BEGIN ATOM
M  V30 1 N 40.445137 29.737761 64.237153 0 CHG=1
M  V30 2 C 38.362553 28.258163 54.897159 0 CFG=1
M  V30 3 C 40.431358 27.464809 56.287775 0
M  V30 4 C 39.771546 29.314652 50.893775 0
M  V30 5 C 39.244632 27.104664 55.403744 0
M  V30 6 C 40.844117 29.355347 62.865285 0
M  V30 7 O 38.235382 29.315882 55.854525 0
M  V30 8 C 40.045128 30.179151 51.967100 0
M  V30 9 C 38.847913 28.664111 53.488832 0
M  V30 10 C 39.044310 28.131858 51.107737 0
M  V30 11 C 38.958330 30.825734 61.891064 0
M  V30 12 C 37.938368 29.004115 57.215752 0
M  V30 13 C 40.076901 29.089800 60.418230 0
M  V30 14 C 39.231866 28.895378 58.057375 0 CFG=1
M  V30 15 C 42.184812 30.891451 65.612660 0
M  V30 16 C 38.578135 27.808576 52.396398 0
M  V30 17 C 41.500252 29.594277 65.255899 0
M  V30 18 O 37.909329 30.937629 61.220660 0
M  V30 19 Cl 39.978978 30.937743 54.568077 0
M  V30 20 C 39.595106 29.865870 53.266553 0
M  V30 21 N 38.911291 28.989156 59.503759 0 CHG=1
M  V30 22 C 39.662537 29.453832 61.859077 0 CFG=1
M  V30 23 C 40.032110 27.609461 57.756830 0
M  V30 24 O 39.001280 25.936029 55.107890 0
M  V30 25 O 39.483692 31.721867 62.585908 0 CHG=-1
M  V30 26 C 41.160715 30.286598 66.552196 0
M  V30 27 H 40.144970 30.706742 64.177028 0
M  V30 28 H 37.359457 27.848604 54.771221 0
M  V30 29 H 40.893238 28.382417 55.922722 0
M  V30 30 H 40.123747 29.558628 49.901547 0
M  V30 31 H 41.228950 28.334592 62.883598 0
M  V30 32 H 41.664504 30.001833 62.553870 0
M  V30 33 H 40.609201 31.085242 51.797045 0
M  V30 34 H 38.845137 27.468192 50.280059 0
M  V30 35 H 37.341640 29.837093 57.590759 0
M  V30 36 H 37.312312 28.114935 57.310856 0
M  V30 37 H 40.605046 28.136410 60.437408 0
M  V30 38 H 40.778982 29.832102 60.036903 0
M  V30 39 H 39.851414 29.759680 57.811905 0
M  V30 40 H 43.230114 30.840284 65.911472 0
M  V30 41 H 41.901076 31.792094 65.070785 0
M  V30 42 H 38.021153 26.895083 52.551689 0
M  V30 43 H 42.027922 28.641986 65.282247 0
M  V30 44 H 38.358636 29.828125 59.674778 0
M  V30 45 H 38.916982 28.722841 62.167717 0
M  V30 46 H 40.959329 27.599021 58.328540 0
M  V30 47 H 39.472768 26.728670 58.077643 0
M  V30 48 H 41.175857 26.674316 56.189168 0
M  V30 49 H 40.195851 30.784423 66.638072 0
M  V30 50 H 41.530974 29.839292 67.473122 0
M  V30 51 H 39.632462 29.179746 64.496491 0
M  V30 52 H 38.347644 28.197241 59.776661 0
M  V30 END ATOM
M  V30 BEGIN BOND
M  V30 1 1 5 2
M  V30 2 1 5 3
M  V30 3 1 6 1
M  V30 4 1 7 2
M  V30 5 1 8 4
M  V30 6 1 9 2
M  V30 7 2 10 4
M  V30 8 1 12 7
M  V30 9 1 14 12
M  V30 10 2 16 9
M  V30 11 1 16 10
M  V30 12 1 17 1
M  V30 13 1 17 15
M  V30 14 2 18 11
M  V30 15 2 20 8
M  V30 16 1 20 9
M  V30 17 1 20 19
M  V30 18 1 21 13
M  V30 19 1 21 14
M  V30 20 1 22 6
M  V30 21 1 22 11
M  V30 22 1 22 13
M  V30 23 1 23 3
M  V30 24 1 23 14
M  V30 25 2 24 5
M  V30 26 1 25 11
M  V30 27 1 26 15
M  V30 28 1 26 17
M  V30 29 1 27 1
M  V30 30 1 2 28 CFG=3
M  V30 31 1 29 3
M  V30 32 1 30 4
M  V30 33 1 31 6
M  V30 34 1 32 6
M  V30 35 1 33 8
M  V30 36 1 34 10
M  V30 37 1 35 12
M  V30 38 1 36 12
M  V30 39 1 37 13
M  V30 40 1 38 13
M  V30 41 1 14 39 CFG=3
M  V30 42 1 40 15
M  V30 43 1 41 15
M  V30 44 1 42 16
M  V30 45 1 43 17
M  V30 46 1 44 21
M  V30 47 1 22 45 CFG=1
M  V30 48 1 46 23
M  V30 49 1 47 23
M  V30 50 1 48 3
M  V30 51 1 49 26
M  V30 52 1 50 26
M  V30 53 1 51 1
M  V30 54 1 52 21
M  V30 END BOND
M  V30 END CTAB
M  END
>  <i_epik_Tot_Q>  (1) 
1

>  <i_epik_Tot_abs_Q>  (1) 
3

>  <i_i_glide_confnum>  (1) 
71

>  <i_i_glide_lignum>  (1) 
156

>  <i_i_glide_posenum>  (1) 
292

>  <i_i_glide_rotatable_bonds>  (1) 
8

>  <i_lp_mmshare_version>  (1) 
72125

>  <i_m_source_file_index>  (1) 
72

>  <i_f3d_flags>  (1) 
0

>  <num_sample>  (1) 
100

>  <b_lp_Chiralities_Consistent>  (1) 
1

>  <r_epik_Charging_Adjusted_Penalty>  (1) 
0.028021554502508948

>  <r_epik_Ionization_Penalty>  (1) 
0.028021554963738291

>  <r_epik_Ionization_Penalty_Charging>  (1) 
0.028021554502508948

>  <r_epik_Ionization_Penalty_Neutral>  (1) 
4.6122934257721838e-10

>  <r_epik_State_Penalty>  (1) 
-0

>  <r_glide_ring_energy>  (1) 
0

>  <r_i_docking_score>  (1) 
-7.2684680499177947

>  <r_i_glide_ecoul>  (1) 
-5.6324706230314714

>  <r_i_glide_eff_state_penalty>  (1) 
-0

>  <r_i_glide_einternal>  (1) 
5.7957684573441206

>  <r_i_glide_emodel>  (1) 
-71.413923833504739

>  <r_i_glide_emodel_strain>  (1) 
1.6969357835082803

>  <r_i_glide_energy>  (1) 
-46.629419588255139

>  <r_i_glide_erotb>  (1) 
0.79881325193843611

>  <r_i_glide_esite>  (1) 
-0.037936493034393975

>  <r_i_glide_evdw>  (1) 
-40.996948965223666

>  <r_i_glide_gscore>  (1) 
-7.2684680499177947

>  <r_i_glide_gscore_strain>  (1) 
0

>  <r_i_glide_hbond>  (1) 
0

>  <r_i_glide_ligand_efficiency>  (1) 
-0.2795564634583767

>  <r_i_glide_ligand_efficiency_ln>  (1) 
-1.7069758717342463

>  <r_i_glide_ligand_efficiency_sa>  (1) 
-0.82818492389330989

>  <r_i_glide_lipo>  (1) 
-3.2829662004953071

>  <r_i_glide_metal>  (1) 
-0

>  <r_i_glide_rewards>  (1) 
-1.8516605666106258

>  <r_lp_Energy>  (1) 
38.533868999999996

>  <r_lp_tautomer_probability>  (1) 
1

>  <s_epik_cmdline>  (1) 
J2VwaWtfcHl0aG9uJywgJy1waHQnLCAnMS4wJywgJy1waCcsICc3LjQnLCAnLXRuJywgJzgnLCAnLW1hJywgJzUwMCcsICctaW1hZScsICc8aW5maWxlLm1hZT4nLCAnLW9tYWUnLCAnPG91dGZpbGUubWFlPic=

>  <s_epik_input>  (1) 
W0NIMl0xW0NIMl1bQ0hdMVtOSF1bQ0gyXVtDQEBIXShDKD1PKVtPSF0pW0NIMl1bTkhdW0NASF0oW0NIMl1PMilbQ0gyXVtDSF09QyhbT0hdKVtDQEBIXTJjM1tjSF1bY0hdW2NIXVtjSF1jM0Ns

>  <s_glide_docking_method>  (1) 
confgen

>  <s_i_glide_gridfile>  (1) 
gpcr_5ht2c_6bqh_protein_autoprepared_prepared

>  <s_lp_Force_Field>  (1) 
S-OPLS

>  <s_lp_Variant>  (1) 
DiffSBDD_71-1

>  <s_m_source_file>  (1) 
generated_GPCR_5HT2C_ligand_DiffSBDD_2026-06-23_prepared.sdf

>  <GenAI_Model>  (1) 
DiffSBDD

>  <Protein>  (1) 
GPCR_5HT2C

$$$$
DiffSBDD_16
     RDKit          3D

  0  0  0  0  0  0  0  0  0  0999 V3000
M  V30 BEGIN CTAB
M  V30 COUNTS 69 73 0 0 1
M  V30 BEGIN ATOM
M  V30 1 C 40.926564 30.011133 63.370949 0
M  V30 2 C 39.628516 26.473237 53.870206 0
M  V30 3 C 38.127196 30.168227 58.936300 0 CFG=1
M  V30 4 C 39.234168 29.134830 59.264895 0
M  V30 5 C 42.374613 28.279448 64.334217 0
M  V30 6 C 43.146734 29.266290 64.969924 0
M  V30 7 C 39.777340 34.111900 61.895443 0
M  V30 8 C 38.944322 34.550870 60.692666 0
M  V30 9 C 38.294145 31.569526 59.548158 0
M  V30 10 C 42.809879 30.621738 64.826585 0
M  V30 11 O 41.577211 32.555385 61.767758 0
M  V30 12 C 39.330708 27.243539 56.151139 0
M  V30 13 C 38.734402 28.021739 57.099729 0
M  V30 14 C 37.750727 29.151492 56.809141 0
M  V30 15 C 39.211772 27.402029 54.689622 0
M  V30 16 C 41.267679 28.649377 63.544304 0
M  V30 17 N 39.534705 26.771656 52.533474 0
M  V30 18 C 39.645139 30.281715 51.917913 0
M  V30 19 N 38.085550 30.385146 57.494345 0
M  V30 20 C 39.591831 30.716343 53.347694 0
M  V30 21 C 42.732929 26.816247 64.498128 0
M  V30 22 C 37.459044 34.207091 60.847588 0
M  V30 23 C 35.669258 32.488411 61.272219 0
M  V30 24 C 37.155110 32.837988 61.496862 0 CFG=1
M  V30 25 C 39.725781 30.340503 62.514405 0
M  V30 26 C 38.092095 31.677480 61.079163 0 CFG=2
M  V30 27 C 40.355632 32.690331 61.844416 0
M  V30 28 C 38.706334 28.608979 53.999157 0 CFG=2
M  V30 29 C 39.405013 31.519639 61.879554 0
M  V30 30 C 39.245132 28.018828 52.647177 0
M  V30 31 N 39.305545 29.917717 54.308097 0
M  V30 32 C 41.706031 30.999393 64.037490 0
M  V30 33 C 38.977007 27.783694 58.571386 0
M  V30 34 C 39.489467 28.986720 51.591552 0
M  V30 35 H 40.056057 25.526445 54.167710 0
M  V30 36 H 37.160847 29.773469 59.255118 0
M  V30 37 H 40.207739 29.525701 58.965088 0
M  V30 38 H 39.287924 28.952746 60.332306 0
M  V30 39 H 43.994440 28.982311 65.576730 0
M  V30 40 H 39.222529 34.243839 62.823635 0
M  V30 41 H 40.630935 34.786312 61.972827 0
M  V30 42 H 39.036991 35.630032 60.568015 0
M  V30 43 H 39.350917 34.130662 59.773501 0
M  V30 44 H 39.245137 31.993098 59.245421 0
M  V30 45 H 37.548174 32.201716 59.065416 0
M  V30 46 H 43.395426 31.377350 65.328991 0
M  V30 47 H 39.965222 26.443178 56.503863 0
M  V30 48 H 37.430296 29.356214 55.805047 0
M  V30 49 H 36.845133 28.815260 57.299700 0
M  V30 50 H 40.678650 27.885066 63.058685 0
M  V30 51 H 39.855520 31.043910 51.181677 0
M  V30 52 H 37.352992 31.060591 57.287626 0
M  V30 53 H 39.822314 31.760111 53.524404 0
M  V30 54 H 43.494730 26.532904 63.771104 0
M  V30 55 H 43.122397 26.622887 65.498059 0
M  V30 56 H 41.859484 26.180481 64.349078 0
M  V30 57 H 36.981238 34.978830 61.451994 0
M  V30 58 H 36.987212 34.280616 59.866838 0
M  V30 59 H 35.442078 32.369684 60.212057 0
M  V30 60 H 35.383512 31.561932 61.767733 0
M  V30 61 H 35.020257 33.275234 61.657882 0
M  V30 62 H 37.279203 32.937768 62.567760 0
M  V30 63 H 39.018664 29.530195 62.419072 0
M  V30 64 H 37.527576 30.785176 61.351671 0
M  V30 65 H 37.617909 28.637469 53.934359 0
M  V30 66 H 41.451199 32.037951 63.972398 0
M  V30 67 H 38.088670 27.303823 58.975600 0
M  V30 68 H 39.813225 27.101979 58.731198 0
M  V30 69 H 39.578165 28.616519 50.580343 0
M  V30 END ATOM
M  V30 BEGIN BOND
M  V30 1 1 4 3
M  V30 2 1 6 5
M  V30 3 1 8 7
M  V30 4 1 9 3
M  V30 5 2 10 6
M  V30 6 2 13 12
M  V30 7 1 14 13
M  V30 8 2 15 2
M  V30 9 1 15 12
M  V30 10 1 16 1
M  V30 11 2 16 5
M  V30 12 1 17 2
M  V30 13 1 19 3
M  V30 14 1 19 14
M  V30 15 1 20 18
M  V30 16 1 21 5
M  V30 17 1 22 8
M  V30 18 1 24 22
M  V30 19 1 24 23
M  V30 20 1 25 1
M  V30 21 1 26 9
M  V30 22 1 26 24
M  V30 23 1 27 7
M  V30 24 2 27 11
M  V30 25 1 28 15
M  V30 26 2 29 25
M  V30 27 1 29 26
M  V30 28 1 29 27
M  V30 29 2 30 17
M  V30 30 1 30 28
M  V30 31 2 31 20
M  V30 32 1 31 28
M  V30 33 2 32 1
M  V30 34 1 32 10
M  V30 35 1 33 4
M  V30 36 1 33 13
M  V30 37 2 34 18
M  V30 38 1 34 30
M  V30 39 1 35 2
M  V30 40 1 3 36 CFG=1
M  V30 41 1 37 4
M  V30 42 1 38 4
M  V30 43 1 39 6
M  V30 44 1 40 7
M  V30 45 1 41 7
M  V30 46 1 42 8
M  V30 47 1 43 8
M  V30 48 1 44 9
M  V30 49 1 45 9
M  V30 50 1 46 10
M  V30 51 1 47 12
M  V30 52 1 48 14
M  V30 53 1 49 14
M  V30 54 1 50 16
M  V30 55 1 51 18
M  V30 56 1 52 19
M  V30 57 1 53 20
M  V30 58 1 54 21
M  V30 59 1 55 21
M  V30 60 1 56 21
M  V30 61 1 57 22
M  V30 62 1 58 22
M  V30 63 1 59 23
M  V30 64 1 60 23
M  V30 65 1 61 23
M  V30 66 1 24 62 CFG=1
M  V30 67 1 63 25
M  V30 68 1 26 64 CFG=1
M  V30 69 1 28 65 CFG=3
M  V30 70 1 66 32
M  V30 71 1 67 33
M  V30 72 1 68 33
M  V30 73 1 69 34
M  V30 END BOND
M  V30 END CTAB
M  END
>  <i_epik_Tot_Q>  (1) 
0

>  <i_epik_Tot_abs_Q>  (1) 
0

>  <i_i_glide_confnum>  (1) 
21

>  <i_i_glide_lignum>  (1) 
37

>  <i_i_glide_posenum>  (1) 
130

>  <i_i_glide_rotatable_bonds>  (1) 
4

>  <i_lp_mmshare_version>  (1) 
72125

>  <i_m_source_file_index>  (1) 
17

>  <i_f3d_flags>  (1) 
0

>  <num_sample>  (1) 
100

>  <b_lp_Chiralities_Consistent>  (1) 
1

>  <r_epik_Charging_Adjusted_Penalty>  (1) 
0.56391873878667209

>  <r_epik_Ionization_Penalty>  (1) 
0.56391873878667209

>  <r_epik_Ionization_Penalty_Charging>  (1) 
0

>  <r_epik_Ionization_Penalty_Neutral>  (1) 
0.56391873878667209

>  <r_epik_State_Penalty>  (1) 
0.56391873878667209

>  <r_glide_ring_energy>  (1) 
0

>  <r_i_docking_score>  (1) 
-7.2607155945188495

>  <r_i_glide_ecoul>  (1) 
-2.9432503249658293

>  <r_i_glide_eff_state_penalty>  (1) 
0.56391873878667209

>  <r_i_glide_einternal>  (1) 
23.219778182410622

>  <r_i_glide_emodel>  (1) 
-51.138650550336095

>  <r_i_glide_emodel_strain>  (1) 
0.00062548661409778106

>  <r_i_glide_energy>  (1) 
-45.594798865273425

>  <r_i_glide_erotb>  (1) 
0.29265828080580603

>  <r_i_glide_esite>  (1) 
0

>  <r_i_glide_evdw>  (1) 
-42.651548540307594

>  <r_i_glide_gscore>  (1) 
-7.8246343333055215

>  <r_i_glide_gscore_strain>  (1) 
0

>  <r_i_glide_hbond>  (1) 
-0.096811416614731485

>  <r_i_glide_ligand_efficiency>  (1) 
-0.21355045866231911

>  <r_i_glide_ligand_efficiency_ln>  (1) 
-1.6040957310033459

>  <r_i_glide_ligand_efficiency_sa>  (1) 
-0.69182058605066843

>  <r_i_glide_lipo>  (1) 
-3.5359041575200165

>  <r_i_glide_metal>  (1) 
-0

>  <r_i_glide_rewards>  (1) 
-1.9105120642163249

>  <r_lp_Energy>  (1) 
61.267170999999998

>  <s_epik_Chemistry_Notes>  (1) 
This compound has an imine and may undergo hydrolysis.

>  <s_epik_cmdline>  (1) 
J2VwaWtfcHl0aG9uJywgJy1waHQnLCAnMS4wJywgJy1waCcsICc3LjQnLCAnLXRuJywgJzgnLCAnLW1hJywgJzUwMCcsICctaW1hZScsICc8aW5maWxlLm1hZT4nLCAnLW9tYWUnLCAnPG91dGZpbGUubWFlPic=

>  <s_epik_input>  (1) 
W2NIXTFbY0hdW2NIXWMoW0NIM10pW2NIXWMxL1tDSF09QyhDKD1PKVtDSDJdW0NIMl1bQ0gyXVtDQEhdMltDSDNdKS9bQ0BASF0yW0NIMl1bQ0BASF0zW0NIMl1bQ0gyXUMoXFtDSDJdW05IXTMpPVtDSF1cQzQ9W0NIXU49QyhbQ0BASF00NSlbQ0hdPVtDSF1bQ0hdPU41

>  <s_glide_docking_method>  (1) 
confgen

>  <s_i_glide_gridfile>  (1) 
gpcr_5ht2c_6bqh_protein_autoprepared_prepared

>  <s_lp_Force_Field>  (1) 
S-OPLS

>  <s_lp_Variant>  (1) 
DiffSBDD_16-5

>  <s_m_source_file>  (1) 
generated_GPCR_5HT2C_ligand_DiffSBDD_2026-06-23_prepared.sdf

>  <GenAI_Model>  (1) 
DiffSBDD

>  <Protein>  (1) 
GPCR_5HT2C

$$$$
DiffSBDD_75
     RDKit          3D

  0  0  0  0  0  0  0  0  0  0999 V3000
M  V30 BEGIN CTAB
M  V30 COUNTS 76 77 0 0 1
M  V30 BEGIN ATOM
M  V30 1 C 39.117319 30.742831 62.333284 0
M  V30 2 C 36.485197 33.210945 61.420524 0
M  V30 3 O 36.989510 29.737747 57.223726 0
M  V30 4 C 41.139555 29.381533 64.126354 0
M  V30 5 C 38.832925 30.037702 55.126814 0 CFG=1
M  V30 6 C 40.269344 35.588955 62.513278 0
M  V30 7 C 38.325306 29.633980 57.679242 0 CFG=2
M  V30 8 C 39.847646 36.297717 63.655679 0
M  V30 9 O 37.245126 28.937651 53.684176 0
M  V30 10 C 40.322735 28.452308 56.483810 0 CFG=2
M  V30 11 O 36.542607 37.488750 62.544060 0
M  V30 12 S 37.433817 30.537753 60.161962 0
M  V30 13 C 42.334579 29.227276 63.196980 0
M  V30 14 C 37.759948 36.872646 62.532867 0
M  V30 15 C 38.588126 30.679317 58.776801 0
M  V30 16 C 41.623624 34.908979 62.503613 0
M  V30 17 C 39.435347 35.524992 61.377856 0
M  V30 18 O 40.445051 26.137735 55.761832 0
M  V30 19 C 41.033804 28.157942 57.822419 0
M  V30 20 C 39.393765 29.698450 56.537517 0 CFG=1
M  V30 21 O 42.845157 27.921790 63.367759 0
M  V30 22 O 37.329067 32.344523 62.167750 0
M  V30 23 O 41.469420 32.137784 61.368092 0
M  V30 24 C 39.811595 30.732256 65.569837 0
M  V30 25 N 40.671201 30.745203 64.400593 0
M  V30 26 C 41.100643 32.376693 62.517354 0
M  V30 27 C 38.594398 36.937728 63.666160 0
M  V30 28 C 41.686336 33.572576 63.274974 0
M  V30 29 C 40.073637 31.522162 63.280886 0 CFG=1
M  V30 30 C 38.181774 36.168858 61.388150 0
M  V30 31 C 38.953722 27.482768 54.538137 0
M  V30 32 C 38.246240 31.603147 61.383099 0 CFG=1
M  V30 33 C 39.852031 30.770517 54.237015 0
M  V30 34 C 39.561817 27.229545 55.928008 0 CFG=2
M  V30 35 C 38.240441 28.826462 54.388055 0
M  V30 36 H 39.699144 30.037115 61.739617 0
M  V30 37 H 38.444389 30.137748 62.937416 0
M  V30 38 H 36.014246 33.931307 62.089987 0
M  V30 39 H 37.037320 33.762371 60.660081 0
M  V30 40 H 35.688200 32.653980 60.926644 0
M  V30 41 H 36.690055 30.645334 57.157651 0
M  V30 42 H 41.437365 28.928161 65.073569 0
M  V30 43 H 40.325215 28.759630 63.760648 0
M  V30 44 H 38.359187 28.654416 58.152060 0
M  V30 45 H 40.486391 36.350843 64.525675 0
M  V30 46 H 39.721628 27.440203 53.769134 0
M  V30 47 H 41.116676 28.681595 55.774369 0
M  V30 48 H 36.300629 37.834229 63.389186 0
M  V30 49 H 42.010853 29.350717 62.167730 0
M  V30 50 H 43.113231 29.961242 63.408919 0
M  V30 51 H 38.539766 31.691008 58.372431 0
M  V30 52 H 39.590845 30.535158 59.178561 0
M  V30 53 H 41.946078 34.781651 61.468067 0
M  V30 54 H 42.315032 35.616179 62.967695 0
M  V30 55 H 39.756963 34.984532 60.499543 0
M  V30 56 H 40.952819 26.011263 56.552057 0
M  V30 57 H 40.357446 27.742879 58.569133 0
M  V30 58 H 41.844145 27.440865 57.685764 0
M  V30 59 H 41.478150 29.058061 58.245741 0
M  V30 60 H 40.045086 30.535787 56.787430 0
M  V30 61 H 43.441355 27.737682 62.648312 0
M  V30 62 H 40.281353 30.231905 66.417208 0
M  V30 63 H 39.645148 31.753043 65.877166 0
M  V30 64 H 38.858361 30.241076 65.370232 0
M  V30 65 H 38.273712 37.474325 64.544899 0
M  V30 66 H 42.731043 33.329386 63.462941 0
M  V30 67 H 41.212652 33.672026 64.252122 0
M  V30 68 H 39.439690 32.279181 63.740758 0
M  V30 69 H 37.542559 36.119849 60.518724 0
M  V30 70 H 38.248336 26.686520 54.298491 0
M  V30 71 H 38.012309 30.744262 55.250563 0
M  V30 72 H 38.867174 32.313667 60.836516 0
M  V30 73 H 39.452217 30.963547 53.240851 0
M  V30 74 H 40.103597 31.737714 54.671323 0
M  V30 75 H 40.777760 30.212049 54.118448 0
M  V30 76 H 38.775287 26.928209 56.620979 0
M  V30 END ATOM
M  V30 BEGIN BOND
M  V30 1 1 7 3
M  V30 2 1 8 6
M  V30 3 1 13 4
M  V30 4 1 14 11
M  V30 5 1 15 7
M  V30 6 1 15 12
M  V30 7 1 16 6
M  V30 8 2 17 6
M  V30 9 1 19 10
M  V30 10 1 20 5
M  V30 11 1 20 7
M  V30 12 1 20 10
M  V30 13 1 21 13
M  V30 14 1 22 2
M  V30 15 1 25 4
M  V30 16 1 25 24
M  V30 17 2 26 23
M  V30 18 2 27 8
M  V30 19 1 27 14
M  V30 20 1 28 16
M  V30 21 1 28 26
M  V30 22 1 29 1
M  V30 23 1 29 25
M  V30 24 1 29 26
M  V30 25 2 30 14
M  V30 26 1 30 17
M  V30 27 1 32 1
M  V30 28 1 32 12
M  V30 29 1 32 22
M  V30 30 1 33 5
M  V30 31 1 34 10
M  V30 32 1 34 18
M  V30 33 1 34 31
M  V30 34 1 35 5
M  V30 35 2 35 9
M  V30 36 1 35 31
M  V30 37 1 36 1
M  V30 38 1 37 1
M  V30 39 1 38 2
M  V30 40 1 39 2
M  V30 41 1 40 2
M  V30 42 1 41 3
M  V30 43 1 42 4
M  V30 44 1 43 4
M  V30 45 1 7 44 CFG=1
M  V30 46 1 45 8
M  V30 47 1 46 31
M  V30 48 1 10 47 CFG=3
M  V30 49 1 48 11
M  V30 50 1 49 13
M  V30 51 1 50 13
M  V30 52 1 51 15
M  V30 53 1 52 15
M  V30 54 1 53 16
M  V30 55 1 54 16
M  V30 56 1 55 17
M  V30 57 1 56 18
M  V30 58 1 57 19
M  V30 59 1 58 19
M  V30 60 1 59 19
M  V30 61 1 20 60 CFG=1
M  V30 62 1 61 21
M  V30 63 1 62 24
M  V30 64 1 63 24
M  V30 65 1 64 24
M  V30 66 1 65 27
M  V30 67 1 66 28
M  V30 68 1 67 28
M  V30 69 1 29 68 CFG=1
M  V30 70 1 69 30
M  V30 71 1 70 31
M  V30 72 1 5 71 CFG=1
M  V30 73 1 32 72 CFG=3
M  V30 74 1 73 33
M  V30 75 1 74 33
M  V30 76 1 75 33
M  V30 77 1 34 76 CFG=1
M  V30 END BOND
M  V30 END CTAB
M  END
>  <i_epik_Tot_Q>  (1) 
0

>  <i_epik_Tot_abs_Q>  (1) 
0

>  <i_i_glide_confnum>  (1) 
6328

>  <i_i_glide_lignum>  (1) 
172

>  <i_i_glide_posenum>  (1) 
312

>  <i_i_glide_rotatable_bonds>  (1) 
18

>  <i_lp_mmshare_version>  (1) 
72125

>  <i_m_source_file_index>  (1) 
76

>  <i_f3d_flags>  (1) 
0

>  <num_sample>  (1) 
100

>  <b_lp_Chiralities_Consistent>  (1) 
1

>  <r_epik_Charging_Adjusted_Penalty>  (1) 
0.60615279515584763

>  <r_epik_Ionization_Penalty>  (1) 
0.6077244911787385

>  <r_epik_Ionization_Penalty_Charging>  (1) 
0

>  <r_epik_Ionization_Penalty_Neutral>  (1) 
0.6077244911787385

>  <r_epik_State_Penalty>  (1) 
0.60615279515584763

>  <r_glide_ring_energy>  (1) 
0

>  <r_i_docking_score>  (1) 
-7.2585301897367867

>  <r_i_glide_ecoul>  (1) 
-11.743882294279665

>  <r_i_glide_eff_state_penalty>  (1) 
0.60615279515584763

>  <r_i_glide_einternal>  (1) 
8.1510470020558827

>  <r_i_glide_emodel>  (1) 
-72.013818311936689

>  <r_i_glide_emodel_strain>  (1) 
1.8657969626836106

>  <r_i_glide_energy>  (1) 
-53.238727700745862

>  <r_i_glide_erotb>  (1) 
1.0176109525924779

>  <r_i_glide_esite>  (1) 
0

>  <r_i_glide_evdw>  (1) 
-41.494845406466197

>  <r_i_glide_gscore>  (1) 
-7.8646829848926343

>  <r_i_glide_gscore_strain>  (1) 
0

>  <r_i_glide_hbond>  (1) 
-0.64426685842969833

>  <r_i_glide_ligand_efficiency>  (1) 
-0.20738657684962247

>  <r_i_glide_ligand_efficiency_ln>  (1) 
-1.5934084710452494

>  <r_i_glide_ligand_efficiency_sa>  (1) 
-0.67837524471813715

>  <r_i_glide_lipo>  (1) 
-3.4186728220316991

>  <r_i_glide_metal>  (1) 
-0

>  <r_i_glide_rewards>  (1) 
-0.9830296425584556

>  <r_lp_Energy>  (1) 
23.098794999999999

>  <r_lp_tautomer_probability>  (1) 
0.99999993999736703

>  <s_epik_Chemistry_Notes>  (1) 
This compound contains an acetal/aminal-like group ( X-CH(R)-Y where X, Y are N, S, or O) that may be acid/base labile, releasing an aldehyde.

>  <s_epik_cmdline>  (1) 
J2VwaWtfcHl0aG9uJywgJy1waHQnLCAnMS4wJywgJy1waCcsICc3LjQnLCAnLXRuJywgJzgnLCAnLW1hJywgJzUwMCcsICctaW1hZScsICc8aW5maWxlLm1hZT4nLCAnLW9tYWUnLCAnPG91dGZpbGUubWFlPic=

>  <s_epik_input>  (1) 
W2NIXTFbY0hdYyhbT0hdKVtjSF1bY0hdYzFbQ0gyXVtDSDJdQyg9TylbQ0BIXShOKFtDSDNdKVtDSDJdW0NIMl1bT0hdKVtDSDJdW0NASF0oT1tDSDNdKVNbQ0gyXVtDQEBIXShbT0hdKVtDQEhdMltDQEBIXShbQ0gzXSlbQ0BIXShbT0hdKVtDSDJdQyhbT0hdKT1DMltDSDNd

>  <s_glide_docking_method>  (1) 
confgen

>  <s_i_glide_gridfile>  (1) 
gpcr_5ht2c_6bqh_protein_autoprepared_prepared

>  <s_lp_Force_Field>  (1) 
S-OPLS

>  <s_lp_Variant>  (1) 
DiffSBDD_75-9

>  <s_m_source_file>  (1) 
generated_GPCR_5HT2C_ligand_DiffSBDD_2026-06-23_prepared.sdf

>  <GenAI_Model>  (1) 
DiffSBDD

>  <Protein>  (1) 
GPCR_5HT2C

$$$$
DiffSBDD_84
     RDKit          3D

  0  0  0  0  0  0  0  0  0  0999 V3000
M  V30 BEGIN CTAB
M  V30 COUNTS 77 81 0 0 1
M  V30 BEGIN ATOM
M  V30 1 C 41.706496 31.470316 66.488846 0
M  V30 2 C 39.525273 26.434793 58.323967 0
M  V30 3 C 40.045123 29.145289 60.333673 0
M  V30 4 C 40.285969 36.912271 61.688501 0
M  V30 5 S 40.159022 33.822968 62.310927 0
M  V30 6 C 37.520488 24.593066 55.113007 0
M  V30 7 C 38.436445 26.628080 55.998539 0
M  V30 8 C 36.301735 32.193565 61.380834 0
M  V30 9 O 39.645179 38.178256 61.767995 0
M  V30 10 C 38.343974 29.600197 58.614680 0
M  V30 11 C 39.004819 28.020962 55.836627 0
M  V30 12 C 38.277098 26.152762 57.457210 0 CFG=1
M  V30 13 C 38.306241 30.895156 60.787442 0
M  V30 14 N 41.172124 30.210279 65.927494 0 CHG=1
M  V30 15 C 40.791735 36.375435 63.055876 0
M  V30 16 C 42.384286 32.399680 65.445794 0
M  V30 17 N 38.094240 25.923580 54.989977 0
M  V30 18 C 37.614136 31.773856 61.663730 0
M  V30 19 N 41.096413 31.419668 62.907498 0
M  V30 20 N 39.506438 28.870485 59.114488 0
M  V30 21 C 36.857635 24.326691 56.470926 0
M  V30 22 C 37.631839 30.469177 59.618460 0
M  V30 23 N 41.244486 34.986873 62.909848 0
M  V30 24 C 39.795888 36.561884 64.227541 0
M  V30 25 C 40.110433 27.858123 58.205803 0 CFG=2
M  V30 26 O 40.845751 28.381563 60.870588 0
M  V30 27 C 36.306988 30.866086 59.367873 0
M  V30 28 O 38.466561 36.537915 63.769241 0
M  V30 29 C 37.854131 24.676944 57.570373 0
M  V30 30 C 40.544309 32.603615 63.584876 0 CFG=1
M  V30 31 C 40.227934 28.308403 56.728887 0
M  V30 32 N 40.102045 30.467540 62.484013 0
M  V30 33 N 42.041787 34.506513 64.052129 0 CHG=1
M  V30 34 C 35.647583 31.731162 60.243741 0
M  V30 35 C 39.741298 30.499361 61.046922 0 CFG=1
M  V30 36 C 41.408937 33.307208 64.654107 0 CFG=2
M  V30 37 H 42.444025 31.190240 67.242848 0
M  V30 38 H 40.906829 31.990470 67.021204 0
M  V30 39 H 40.309510 25.740965 58.014809 0
M  V30 40 H 39.321409 26.203161 59.367378 0
M  V30 41 H 39.557796 36.242893 61.228722 0
M  V30 42 H 41.128701 36.969280 60.994424 0
M  V30 43 H 36.781659 24.455333 54.324340 0
M  V30 44 H 38.295071 23.853412 54.923124 0
M  V30 45 H 35.796032 32.871778 62.050338 0
M  V30 46 H 39.938639 38.699821 61.036576 0
M  V30 47 H 38.644946 30.260045 57.802109 0
M  V30 48 H 37.619143 28.899581 58.209748 0
M  V30 49 H 38.202857 28.736236 56.012792 0
M  V30 50 H 40.760764 29.665464 66.673184 0
M  V30 51 H 40.457380 30.385528 65.236266 0
M  V30 52 H 41.688321 36.938108 63.308468 0
M  V30 53 H 43.033752 31.829406 64.779768 0
M  V30 54 H 43.053063 33.057034 66.006587 0
M  V30 55 H 38.094568 32.132161 62.553311 0
M  V30 56 H 41.783159 30.941517 63.485319 0
M  V30 57 H 35.959400 24.935161 56.570317 0
M  V30 58 H 36.545060 23.284482 56.540724 0
M  V30 59 H 39.938807 35.853284 65.041469 0
M  V30 60 H 39.951760 37.544932 64.667938 0
M  V30 61 H 41.153271 27.768840 58.518278 0
M  V30 62 H 35.804561 30.519303 58.483476 0
M  V30 63 H 38.399516 37.193386 63.084495 0
M  V30 64 H 37.424791 24.488750 58.552749 0
M  V30 65 H 38.722491 24.023228 57.481460 0
M  V30 66 H 39.645045 32.296136 64.100324 0
M  V30 67 H 40.446417 29.371174 56.674910 0
M  V30 68 H 41.090934 27.808686 56.285187 0
M  V30 69 H 39.260419 30.564138 63.049263 0
M  V30 70 H 42.947423 34.273506 63.671396 0
M  V30 71 H 34.636817 32.047231 60.034166 0
M  V30 72 H 40.393146 31.227454 60.567377 0
M  V30 73 H 40.715868 33.729525 65.381460 0
M  V30 74 H 42.125216 35.270214 64.711224 0
M  V30 75 H 37.455157 26.735699 57.864584 0
M  V30 76 H 39.291022 28.161598 54.794030 0
M  V30 77 H 41.913441 29.661250 65.515345 0
M  V30 END ATOM
M  V30 BEGIN BOND
M  V30 1 1 9 4
M  V30 2 1 11 7
M  V30 3 1 12 2
M  V30 4 1 12 7
M  V30 5 1 14 1
M  V30 6 1 15 4
M  V30 7 1 16 1
M  V30 8 1 17 6
M  V30 9 2 17 7
M  V30 10 1 18 8
M  V30 11 2 18 13
M  V30 12 1 20 3
M  V30 13 1 20 10
M  V30 14 1 21 6
M  V30 15 1 22 10
M  V30 16 1 22 13
M  V30 17 1 23 5
M  V30 18 1 23 15
M  V30 19 1 24 15
M  V30 20 1 25 2
M  V30 21 1 25 20
M  V30 22 2 26 3
M  V30 23 2 27 22
M  V30 24 1 28 24
M  V30 25 1 29 12
M  V30 26 1 29 21
M  V30 27 1 30 5
M  V30 28 1 30 19
M  V30 29 1 31 11
M  V30 30 1 31 25
M  V30 31 1 32 19
M  V30 32 1 33 23
M  V30 33 2 34 8
M  V30 34 1 34 27
M  V30 35 1 35 3
M  V30 36 1 35 13
M  V30 37 1 35 32
M  V30 38 1 36 16
M  V30 39 1 36 30
M  V30 40 1 36 33
M  V30 41 1 37 1
M  V30 42 1 38 1
M  V30 43 1 39 2
M  V30 44 1 40 2
M  V30 45 1 41 4
M  V30 46 1 42 4
M  V30 47 1 43 6
M  V30 48 1 44 6
M  V30 49 1 45 8
M  V30 50 1 46 9
M  V30 51 1 47 10
M  V30 52 1 48 10
M  V30 53 1 49 11
M  V30 54 1 50 14
M  V30 55 1 51 14
M  V30 56 1 52 15
M  V30 57 1 53 16
M  V30 58 1 54 16
M  V30 59 1 55 18
M  V30 60 1 56 19
M  V30 61 1 57 21
M  V30 62 1 58 21
M  V30 63 1 59 24
M  V30 64 1 60 24
M  V30 65 1 25 61 CFG=1
M  V30 66 1 62 27
M  V30 67 1 63 28
M  V30 68 1 64 29
M  V30 69 1 65 29
M  V30 70 1 30 66 CFG=1
M  V30 71 1 67 31
M  V30 72 1 68 31
M  V30 73 1 69 32
M  V30 74 1 70 33
M  V30 75 1 71 34
M  V30 76 1 35 72 CFG=3
M  V30 77 1 36 73 CFG=1
M  V30 78 1 74 33
M  V30 79 1 12 75 CFG=1
M  V30 80 1 76 11
M  V30 81 1 77 14
M  V30 END BOND
M  V30 END CTAB
M  END
>  <i_epik_Tot_Q>  (1) 
2

>  <i_epik_Tot_abs_Q>  (1) 
2

>  <i_i_glide_confnum>  (1) 
495

>  <i_i_glide_lignum>  (1) 
199

>  <i_i_glide_posenum>  (1) 
295

>  <i_i_glide_rotatable_bonds>  (1) 
11

>  <i_lp_mmshare_version>  (1) 
72125

>  <i_m_source_file_index>  (1) 
85

>  <i_f3d_flags>  (1) 
0

>  <num_sample>  (1) 
100

>  <b_lp_Chiralities_Consistent>  (1) 
1

>  <r_epik_Charging_Adjusted_Penalty>  (1) 
0.034284474231679775

>  <r_epik_Ionization_Penalty>  (1) 
0.42650113434003467

>  <r_epik_Ionization_Penalty_Charging>  (1) 
0.012847136256187231

>  <r_epik_Ionization_Penalty_Neutral>  (1) 
0.41365399808384745

>  <r_epik_State_Penalty>  (1) 
0.021437337975492542

>  <r_glide_ring_energy>  (1) 
0.20284343658850779

>  <r_i_docking_score>  (1) 
-7.2574050589907557

>  <r_i_glide_ecoul>  (1) 
-4.5328870476253744

>  <r_i_glide_eff_state_penalty>  (1) 
0.021437337975492542

>  <r_i_glide_einternal>  (1) 
16.120473913871567

>  <r_i_glide_emodel>  (1) 
-65.12969077916749

>  <r_i_glide_emodel_strain>  (1) 
3.3800166110827377

>  <r_i_glide_energy>  (1) 
-51.952244821491647

>  <r_i_glide_erotb>  (1) 
0.60855438394346106

>  <r_i_glide_esite>  (1) 
-0.004332520958552845

>  <r_i_glide_evdw>  (1) 
-47.419357773866274

>  <r_i_glide_gscore>  (1) 
-7.2788423969662484

>  <r_i_glide_gscore_strain>  (1) 
0

>  <r_i_glide_hbond>  (1) 
0

>  <r_i_glide_ligand_efficiency>  (1) 
-0.20159458497196545

>  <r_i_glide_ligand_efficiency_ln>  (1) 
-1.5833697114460499

>  <r_i_glide_ligand_efficiency_sa>  (1) 
-0.66565065334853601

>  <r_i_glide_lipo>  (1) 
-3.5955372633568907

>  <r_i_glide_metal>  (1) 
-0

>  <r_i_glide_rewards>  (1) 
-1.2366260507571452

>  <r_lp_Energy>  (1) 
55.540033999999999

>  <r_lp_tautomer_probability>  (1) 
0.99998399999999998

>  <s_epik_Chemistry_Notes>  (1) 
This compound has an imine and may undergo hydrolysis. This compound contains an acetal/aminal-like group ( X-CH(R)-Y where X, Y are N, S, or O) that may be acid/base labile, releasing an aldehyde. This compound has a N-S or N-O group and may undergo hydrolysis at high or low pH.

>  <s_epik_cmdline>  (1) 
J2VwaWtfcHl0aG9uJywgJy1waHQnLCAnMS4wJywgJy1waCcsICc3LjQnLCAnLXRuJywgJzgnLCAnLW1hJywgJzUwMCcsICctaW1hZScsICc8aW5maWxlLm1hZT4nLCAnLW9tYWUnLCAnPG91dGZpbGUubWFlPic=

>  <s_epik_input>  (1) 
W09IXVtDSDJdW0NIXShbQ0gyXVtPSF0pTjFTW0NASF0oW0NASF0oW05IXTEpW0NIMl1bQ0gyXVtOSDJdKVtOSF1bTkhdW0NASF0yQyg9TylOKFtDSDJdYyhjMjMpW2NIXVtjSF1bY0hdW2NIXTMpW0NASF0oW0NIMl1bQ0gyXTQpW0NIMl1DKD1DNDUpW0NIMl1bQ0gyXVtDSDJdW05IXTU=

>  <s_glide_docking_method>  (1) 
confgen

>  <s_i_glide_gridfile>  (1) 
gpcr_5ht2c_6bqh_protein_autoprepared_prepared

>  <s_lp_Force_Field>  (1) 
S-OPLS

>  <s_lp_Variant>  (1) 
DiffSBDD_84-2

>  <s_m_source_file>  (1) 
generated_GPCR_5HT2C_ligand_DiffSBDD_2026-06-23_prepared.sdf

>  <GenAI_Model>  (1) 
DiffSBDD

>  <Protein>  (1) 
GPCR_5HT2C

$$$$
DiffSBDD_93
     RDKit          3D

  0  0  0  0  0  0  0  0  0  0999 V3000
M  V30 BEGIN CTAB
M  V30 COUNTS 84 85 0 0 1
M  V30 BEGIN ATOM
M  V30 1 C 39.747547 31.925001 62.996686 0
M  V30 2 O 39.937760 30.703704 63.690471 0
M  V30 3 C 41.432193 35.071645 61.332158 0
M  V30 4 C 37.849395 25.630368 57.218692 0
M  V30 5 O 40.803147 30.498074 60.877575 0
M  V30 6 C 37.643779 29.551971 55.207169 0
M  V30 7 N 37.922885 30.554177 56.017854 0
M  V30 8 O 36.857598 29.674397 54.281087 0
M  V30 9 O 34.849614 33.024710 61.393553 0
M  V30 10 C 37.143768 24.827273 56.142090 0
M  V30 11 C 40.118229 34.771524 60.620301 0
M  V30 12 C 38.998589 30.913808 59.346569 0
M  V30 13 C 37.705437 32.266805 61.571676 0
M  V30 14 C 39.152178 27.870342 56.805978 0 CFG=1
M  V30 15 C 38.338915 28.180817 55.473182 0 CFG=2
M  V30 16 C 39.557776 36.240455 62.344230 0 CFG=1
M  V30 17 C 37.665786 34.878581 61.221015 0 CFG=1
M  V30 18 C 37.232504 36.059047 60.319207 0
M  V30 19 C 39.640486 29.930206 58.332289 0
M  V30 20 S 35.693331 33.278710 59.955728 0 CHG=1
M  V30 21 O 40.288184 27.736851 59.903184 0
M  V30 22 N 39.084735 31.737560 61.698966 0
M  V30 23 O 35.709381 31.689928 59.367717 0
M  V30 24 O 41.259274 35.120315 63.689894 0
M  V30 25 F 37.581969 37.194730 63.218460 0
M  V30 26 C 37.891509 24.131585 57.251829 0
M  V30 27 C 38.944084 27.862458 59.477548 0
M  V30 28 C 38.803330 28.639114 58.140411 0 CFG=2
M  V30 29 C 39.701971 31.023935 60.715599 0
M  V30 30 C 39.026053 27.521013 54.221390 0
M  V30 31 C 39.401030 37.461447 64.674438 0
M  V30 32 C 37.399824 33.462796 60.595360 0 CFG=2
M  V30 33 O 39.614844 29.387137 52.847798 0
M  V30 34 C 39.195198 26.323534 57.007276 0
M  V30 35 C 38.727777 36.623918 63.592312 0 CFG=2
M  V30 36 C 39.046928 28.272246 52.874114 0
M  V30 37 C 41.053455 35.930272 62.548654 0 CFG=1
M  V30 38 O 38.504999 27.705322 51.901246 0 CHG=-1
M  V30 39 N 39.093044 35.011184 61.650178 0 CFG=1 CHG=1
M  V30 40 H 40.736996 32.345222 62.808424 0
M  V30 41 H 39.246763 32.659033 63.627684 0
M  V30 42 H 39.110895 30.363429 64.005942 0
M  V30 43 H 41.917717 34.137655 61.624380 0
M  V30 44 H 42.110103 35.595213 60.663002 0
M  V30 45 H 37.179228 26.102701 57.932711 0
M  V30 46 H 38.568891 30.423318 56.778616 0
M  V30 47 H 37.469870 31.446756 55.876656 0
M  V30 48 H 33.960607 33.307623 61.228729 0
M  V30 49 H 36.055361 24.789323 56.173321 0
M  V30 50 H 37.576742 24.818351 55.145578 0
M  V30 51 H 40.090590 33.768561 60.206602 0
M  V30 52 H 40.008330 35.461756 59.789629 0
M  V30 53 H 37.944644 30.693380 59.453432 0
M  V30 54 H 39.098110 31.885581 58.875968 0
M  V30 55 H 37.335163 32.551177 62.556102 0
M  V30 56 H 37.090387 31.397272 61.350107 0
M  V30 57 H 40.188477 28.134524 56.600100 0
M  V30 58 H 37.439310 27.579645 55.579604 0
M  V30 59 H 39.508353 37.069131 61.636202 0
M  V30 60 H 37.061090 34.947489 62.126219 0
M  V30 61 H 36.160493 36.052253 60.134149 0
M  V30 62 H 37.440014 37.022794 60.781436 0
M  V30 63 H 37.725081 36.051275 59.355447 0
M  V30 64 H 39.831266 30.438976 57.395169 0
M  V30 65 H 40.669154 29.681049 58.588009 0
M  V30 66 H 40.575671 28.551383 60.294685 0
M  V30 67 H 35.645120 31.754857 58.393038 0
M  V30 68 H 41.674539 35.641603 64.363877 0
M  V30 69 H 38.872957 23.719357 57.041277 0
M  V30 70 H 37.322565 23.620440 58.023887 0
M  V30 71 H 38.400258 28.392028 60.259647 0
M  V30 72 H 38.488109 26.882066 59.442636 0
M  V30 73 H 37.742296 28.887605 58.066143 0
M  V30 74 H 40.060300 27.306215 54.458046 0
M  V30 75 H 38.585724 26.539521 54.055576 0
M  V30 76 H 40.191433 36.909515 65.178522 0
M  V30 77 H 39.826894 38.368079 64.257744 0
M  V30 78 H 38.690582 37.734058 65.456665 0
M  V30 79 H 37.977187 33.400223 59.683121 0
M  V30 80 H 39.690626 25.843565 56.163505 0
M  V30 81 H 39.843956 26.062385 57.842963 0
M  V30 82 H 38.449555 35.738514 64.098379 0
M  V30 83 H 41.648420 36.842809 62.619325 0
M  V30 84 H 39.252554 34.280827 62.331816 0
M  V30 END ATOM
M  V30 BEGIN BOND
M  V30 1 1 2 1
M  V30 2 1 7 6
M  V30 3 2 8 6
M  V30 4 1 10 4
M  V30 5 1 11 3
M  V30 6 1 15 6
M  V30 7 1 15 14
M  V30 8 1 18 17
M  V30 9 1 19 12
M  V30 10 1 20 9
M  V30 11 1 22 1
M  V30 12 1 22 13
M  V30 13 1 23 20
M  V30 14 1 26 4
M  V30 15 1 26 10
M  V30 16 1 27 21
M  V30 17 1 28 14
M  V30 18 1 28 19
M  V30 19 1 28 27
M  V30 20 2 29 5
M  V30 21 1 29 12
M  V30 22 1 29 22
M  V30 23 1 30 15
M  V30 24 1 32 13
M  V30 25 1 32 17
M  V30 26 1 32 20
M  V30 27 1 34 4
M  V30 28 1 34 14
M  V30 29 1 35 16
M  V30 30 1 35 25
M  V30 31 1 35 31
M  V30 32 1 36 30
M  V30 33 2 36 33
M  V30 34 1 37 3
M  V30 35 1 37 16
M  V30 36 1 37 24
M  V30 37 1 38 36
M  V30 38 1 39 11
M  V30 39 1 39 16
M  V30 40 1 39 17
M  V30 41 1 40 1
M  V30 42 1 41 1
M  V30 43 1 42 2
M  V30 44 1 43 3
M  V30 45 1 44 3
M  V30 46 1 45 4
M  V30 47 1 46 7
M  V30 48 1 47 7
M  V30 49 1 48 9
M  V30 50 1 49 10
M  V30 51 1 50 10
M  V30 52 1 51 11
M  V30 53 1 52 11
M  V30 54 1 53 12
M  V30 55 1 54 12
M  V30 56 1 55 13
M  V30 57 1 56 13
M  V30 58 1 14 57 CFG=3
M  V30 59 1 15 58 CFG=1
M  V30 60 1 16 59 CFG=3
M  V30 61 1 17 60 CFG=1
M  V30 62 1 61 18
M  V30 63 1 62 18
M  V30 64 1 63 18
M  V30 65 1 64 19
M  V30 66 1 65 19
M  V30 67 1 66 21
M  V30 68 1 67 23
M  V30 69 1 68 24
M  V30 70 1 69 26
M  V30 71 1 70 26
M  V30 72 1 71 27
M  V30 73 1 72 27
M  V30 74 1 28 73 CFG=3
M  V30 75 1 74 30
M  V30 76 1 75 30
M  V30 77 1 76 31
M  V30 78 1 77 31
M  V30 79 1 78 31
M  V30 80 1 32 79 CFG=3
M  V30 81 1 80 34
M  V30 82 1 81 34
M  V30 83 1 35 82 CFG=1
M  V30 84 1 37 83 CFG=1
M  V30 85 1 39 84 CFG=1
M  V30 END BOND
M  V30 END CTAB
M  END
>  <i_epik_Tot_Q>  (1) 
1

>  <i_epik_Tot_abs_Q>  (1) 
3

>  <i_i_glide_confnum>  (1) 
5964

>  <i_i_glide_lignum>  (1) 
218

>  <i_i_glide_posenum>  (1) 
48

>  <i_i_glide_rotatable_bonds>  (1) 
24

>  <i_lp_mmshare_version>  (1) 
72125

>  <i_m_source_file_index>  (1) 
94

>  <i_f3d_flags>  (1) 
0

>  <num_sample>  (1) 
100

>  <b_lp_Chiralities_Consistent>  (1) 
1

>  <r_epik_Charging_Adjusted_Penalty>  (1) 
0.90916677635763199

>  <r_epik_Ionization_Penalty>  (1) 
0.45507897092921873

>  <r_epik_Ionization_Penalty_Charging>  (1) 
0.45507471778648678

>  <r_epik_Ionization_Penalty_Neutral>  (1) 
4.2531427319391784e-06

>  <r_epik_State_Penalty>  (1) 
0.45409205857114521

>  <r_glide_ring_energy>  (1) 
0

>  <r_i_docking_score>  (1) 
-7.2526264301565249

>  <r_i_glide_ecoul>  (1) 
-15.22165830431271

>  <r_i_glide_eff_state_penalty>  (1) 
0.45409205857114521

>  <r_i_glide_einternal>  (1) 
47.273653217279609

>  <r_i_glide_emodel>  (1) 
-42.63941877179856

>  <r_i_glide_emodel_strain>  (1) 
6.9892840437614723

>  <r_i_glide_energy>  (1) 
-43.224468164185119

>  <r_i_glide_erotb>  (1) 
0.82188833391367333

>  <r_i_glide_esite>  (1) 
-0.12452463353046844

>  <r_i_glide_evdw>  (1) 
-28.002809859872407

>  <r_i_glide_gscore>  (1) 
-7.7067184887276703

>  <r_i_glide_gscore_strain>  (1) 
0.74732101094036807

>  <r_i_glide_hbond>  (1) 
-0.46760787054035574

>  <r_i_glide_ligand_efficiency>  (1) 
-0.18596478026042371

>  <r_i_glide_ligand_efficiency_ln>  (1) 
-1.5551689846698131

>  <r_i_glide_ligand_efficiency_sa>  (1) 
-0.63064589081676403

>  <r_i_glide_lipo>  (1) 
-3.5973996750749193

>  <r_i_glide_metal>  (1) 
-0

>  <r_i_glide_rewards>  (1) 
-1.4030064157954409

>  <r_lp_Energy>  (1) 
13.278706999999999

>  <s_epik_Chemistry_Notes>  (1) 
This compound contains an acetal/aminal-like group ( X-CH(R)-Y where X, Y are N, S, or O) that may be acid/base labile, releasing an aldehyde.

>  <s_epik_cmdline>  (1) 
J2VwaWtfcHl0aG9uJywgJy1waHQnLCAnMS4wJywgJy1waCcsICc3LjQnLCAnLXRuJywgJzgnLCAnLW1hJywgJzUwMCcsICctaW1hZScsICc8aW5maWxlLm1hZT4nLCAnLW9tYWUnLCAnPG91dGZpbGUubWFlPic=

>  <s_epik_input>  (1) 
W0NIMl0xW0NIMl1bQ0hdMVtDSDJdW0NAQEhdKFtDQEBIXShDKD1PKVtOSDJdKVtDSDJdQyg9TylbT0hdKVtDQEBIXShbQ0gyXVtPSF0pW0NIMl1bQ0gyXUMoPU8pTihbQ0gyXVtPSF0pW0NIMl1bQ0BASF0oW1MrXShbT0hdKVtPSF0pW0NASF0oW0NIM10pTjJbQ0gyXVtDSDJdW0NASF0oW09IXSlbQ0BASF0yW0NASF0oRilbQ0gzXQ==

>  <s_glide_docking_method>  (1) 
confgen

>  <s_i_glide_gridfile>  (1) 
gpcr_5ht2c_6bqh_protein_autoprepared_prepared

>  <s_lp_Force_Field>  (1) 
S-OPLS

>  <s_lp_Variant>  (1) 
DiffSBDD_93-6

>  <s_m_source_file>  (1) 
generated_GPCR_5HT2C_ligand_DiffSBDD_2026-06-23_prepared.sdf

>  <GenAI_Model>  (1) 
DiffSBDD

>  <Protein>  (1) 
GPCR_5HT2C

$$$$
DiffSBDD_18
     RDKit          3D

  0  0  0  0  0  0  0  0  0  0999 V3000
M  V30 BEGIN CTAB
M  V30 COUNTS 77 79 0 0 1
M  V30 BEGIN ATOM
M  V30 1 C 40.549632 26.035581 53.520475 0
M  V30 2 C 37.872613 33.380967 59.634567 0 CFG=2
M  V30 3 C 38.773773 31.504857 54.126645 0
M  V30 4 C 39.319793 30.515453 53.293178 0
M  V30 5 C 37.975538 29.778654 55.636026 0
M  V30 6 O 39.106870 37.229253 62.004787 0
M  V30 7 C 37.033638 25.676305 57.182882 0
M  V30 8 C 40.158973 31.970698 62.037910 0
M  V30 9 C 39.278231 28.808803 59.967675 0
M  V30 10 C 40.185171 30.137995 50.965893 0
M  V30 11 C 38.228424 36.337576 62.025933 0
M  V30 12 C 38.090442 31.135614 55.292866 0
M  V30 13 C 38.838418 27.263043 57.952235 0
M  V30 14 C 39.402686 31.953248 60.968391 0
M  V30 15 C 40.314659 33.202479 62.920103 0
M  V30 16 C 37.806378 24.351847 57.092573 0
M  V30 17 C 40.101932 26.137203 55.001324 0
M  V30 18 C 39.074945 29.804746 58.852135 0 CFG=2
M  V30 19 C 38.577803 34.665301 60.167726 0
M  V30 20 C 36.369510 33.343150 59.962079 0
M  V30 21 C 40.095920 34.594910 62.277727 0
M  V30 22 C 40.994608 30.645274 49.820699 0
M  V30 23 C 38.573565 32.056533 59.954988 0
M  V30 24 C 37.245425 26.291863 54.012742 0
M  V30 25 C 38.676190 34.895290 61.697624 0 CFG=1
M  V30 26 N 39.593769 28.935097 50.847233 0 CHG=1
M  V30 27 C 39.206266 29.165374 53.632714 0
M  V30 28 P 38.438168 27.011111 55.249855 0 CFG=2 CHG=1
M  V30 29 N 38.269802 31.002409 59.096005 0
M  V30 30 O 37.016922 36.511761 62.278801 0 CHG=-1
M  V30 31 C 38.384879 28.451224 58.803619 0 CFG=2
M  V30 32 C 38.547284 28.783480 54.809941 0
M  V30 33 N 37.844921 26.890472 56.904379 0 CFG=1 CHG=1
M  V30 34 N 40.045094 30.938176 52.077865 0
M  V30 35 H 41.367567 25.337811 53.367979 0
M  V30 36 H 39.761456 25.737877 52.871919 0
M  V30 37 H 40.845271 26.932156 53.013130 0
M  V30 38 H 37.924078 33.464349 58.547878 0
M  V30 39 H 38.860112 32.537809 53.865705 0
M  V30 40 H 37.451298 29.502384 56.535603 0
M  V30 41 H 36.596279 25.770010 58.167738 0
M  V30 42 H 36.179367 25.645535 56.507070 0
M  V30 43 H 40.675227 31.080009 62.362728 0
M  V30 44 H 40.258689 28.338824 60.026511 0
M  V30 45 H 38.803316 28.987869 60.928823 0
M  V30 46 H 37.653417 31.895211 55.928538 0
M  V30 47 H 39.806632 27.506503 57.513831 0
M  V30 48 H 39.022123 26.420122 58.620362 0
M  V30 49 H 39.645214 33.076823 63.769074 0
M  V30 50 H 41.328196 33.176105 63.321451 0
M  V30 51 H 37.170759 23.521362 57.399023 0
M  V30 52 H 38.123945 24.137670 56.073626 0
M  V30 53 H 38.680575 24.337313 57.743623 0
M  V30 54 H 40.864541 26.642714 55.585545 0
M  V30 55 H 40.045661 25.130146 55.410881 0
M  V30 56 H 39.887858 29.990955 58.153326 0
M  V30 57 H 39.587257 34.706077 59.767689 0
M  V30 58 H 38.045264 35.505247 59.717097 0
M  V30 59 H 35.867131 32.515117 59.460968 0
M  V30 60 H 36.195318 33.240585 61.032519 0
M  V30 61 H 35.879015 34.262203 59.637054 0
M  V30 62 H 40.866325 34.781516 61.530717 0
M  V30 63 H 40.322907 35.307043 63.072612 0
M  V30 64 H 41.988593 30.936916 50.158481 0
M  V30 65 H 41.109768 29.875803 49.055925 0
M  V30 66 H 40.505101 31.508260 49.368033 0
M  V30 67 H 37.696938 26.150523 53.035329 0
M  V30 68 H 36.844578 25.329819 54.321272 0
M  V30 69 H 36.446453 27.009280 53.838771 0
M  V30 70 H 37.953079 34.238870 62.167762 0
M  V30 71 H 39.713362 28.396367 49.999005 0
M  V30 72 H 39.637379 28.422384 53.023944 0
M  V30 73 H 37.589475 31.222726 58.377033 0
M  V30 74 H 37.312851 28.537758 58.961327 0
M  V30 75 H 40.342781 31.902864 51.980382 0
M  V30 76 H 38.998792 28.586213 51.578622 0
M  V30 77 H 37.171980 27.640966 56.966915 0
M  V30 END ATOM
M  V30 BEGIN BOND
M  V30 1 1 4 3
M  V30 2 2 11 6
M  V30 3 2 12 3
M  V30 4 1 12 5
M  V30 5 2 14 8
M  V30 6 1 15 8
M  V30 7 1 16 7
M  V30 8 1 17 1
M  V30 9 1 18 9
M  V30 10 1 19 2
M  V30 11 1 20 2
M  V30 12 1 21 15
M  V30 13 1 22 10
M  V30 14 1 23 2
M  V30 15 2 23 14
M  V30 16 1 25 11
M  V30 17 1 25 19
M  V30 18 1 25 21
M  V30 19 2 26 10
M  V30 20 2 27 4
M  V30 21 1 28 17 CFG=1
M  V30 22 1 28 24
M  V30 23 1 29 18
M  V30 24 1 29 23
M  V30 25 1 30 11
M  V30 26 1 31 9
M  V30 27 1 31 13
M  V30 28 1 31 18
M  V30 29 2 32 5
M  V30 30 1 32 27
M  V30 31 1 32 28
M  V30 32 1 33 7
M  V30 33 1 33 13
M  V30 34 1 33 28
M  V30 35 1 34 4
M  V30 36 1 34 10
M  V30 37 1 35 1
M  V30 38 1 36 1
M  V30 39 1 37 1
M  V30 40 1 2 38 CFG=3
M  V30 41 1 39 3
M  V30 42 1 40 5
M  V30 43 1 41 7
M  V30 44 1 42 7
M  V30 45 1 43 8
M  V30 46 1 44 9
M  V30 47 1 45 9
M  V30 48 1 46 12
M  V30 49 1 47 13
M  V30 50 1 48 13
M  V30 51 1 49 15
M  V30 52 1 50 15
M  V30 53 1 51 16
M  V30 54 1 52 16
M  V30 55 1 53 16
M  V30 56 1 54 17
M  V30 57 1 55 17
M  V30 58 1 18 56 CFG=3
M  V30 59 1 57 19
M  V30 60 1 58 19
M  V30 61 1 59 20
M  V30 62 1 60 20
M  V30 63 1 61 20
M  V30 64 1 62 21
M  V30 65 1 63 21
M  V30 66 1 64 22
M  V30 67 1 65 22
M  V30 68 1 66 22
M  V30 69 1 67 24
M  V30 70 1 68 24
M  V30 71 1 69 24
M  V30 72 1 25 70 CFG=1
M  V30 73 1 71 26
M  V30 74 1 72 27
M  V30 75 1 73 29
M  V30 76 1 31 74 CFG=1
M  V30 77 1 75 34
M  V30 78 1 76 26
M  V30 79 1 33 77 CFG=3
M  V30 END BOND
M  V30 END CTAB
M  END
>  <i_epik_Tot_Q>  (1) 
2

>  <i_epik_Tot_abs_Q>  (1) 
4

>  <i_i_glide_confnum>  (1) 
646

>  <i_i_glide_lignum>  (1) 
42

>  <i_i_glide_posenum>  (1) 
300

>  <i_i_glide_rotatable_bonds>  (1) 
11

>  <i_lp_mmshare_version>  (1) 
72125

>  <i_m_source_file_index>  (1) 
19

>  <i_f3d_flags>  (1) 
0

>  <num_sample>  (1) 
100

>  <b_lp_Chiralities_Consistent>  (1) 
1

>  <r_epik_Charging_Adjusted_Penalty>  (1) 
0.035732071636325656

>  <r_epik_Ionization_Penalty>  (1) 
0.019213783482484162

>  <r_epik_Ionization_Penalty_Charging>  (1) 
0.019186760244236628

>  <r_epik_Ionization_Penalty_Neutral>  (1) 
2.7023238247534635e-05

>  <r_epik_State_Penalty>  (1) 
0.016545311392089028

>  <r_glide_ring_energy>  (1) 
0

>  <r_i_docking_score>  (1) 
-7.2298749487363327

>  <r_i_glide_ecoul>  (1) 
-3.5653014488894161

>  <r_i_glide_eff_state_penalty>  (1) 
0.016545311392089028

>  <r_i_glide_einternal>  (1) 
9.0849650936566242

>  <r_i_glide_emodel>  (1) 
-62.268018923154543

>  <r_i_glide_emodel_strain>  (1) 
0.46930329289871509

>  <r_i_glide_energy>  (1) 
-35.15766243055527

>  <r_i_glide_erotb>  (1) 
0.68654883804919686

>  <r_i_glide_esite>  (1) 
-0.036919696609098988

>  <r_i_glide_evdw>  (1) 
-31.592360981665855

>  <r_i_glide_gscore>  (1) 
-7.2464202601284216

>  <r_i_glide_gscore_strain>  (1) 
0

>  <r_i_glide_hbond>  (1) 
0

>  <r_i_glide_ligand_efficiency>  (1) 
-0.21264338084518625

>  <r_i_glide_ligand_efficiency_ln>  (1) 
-1.5972821672991748

>  <r_i_glide_ligand_efficiency_sa>  (1) 
-0.68888200604960781

>  <r_i_glide_lipo>  (1) 
-3.8952753425523845

>  <r_i_glide_metal>  (1) 
-0

>  <r_i_glide_rewards>  (1) 
-1.8863607925994306

>  <r_lp_Energy>  (1) 
36.417943999999999

>  <s_epik_Chemistry_Notes>  (1) 
This compound has an imine and may undergo hydrolysis.

>  <s_epik_cmdline>  (1) 
J2VwaWtfcHl0aG9uJywgJy1waHQnLCAnMS4wJywgJy1waCcsICc3LjQnLCAnLXRuJywgJzgnLCAnLW1hJywgJzUwMCcsICctaW1hZScsICc8aW5maWxlLm1hZT4nLCAnLW9tYWUnLCAnPG91dGZpbGUubWFlPic=

>  <s_epik_input>  (1) 
W0hdL049QyhcW0NIM10pW05IXWMxW2NIXVtjSF1bY0hdYyhbY0hdMSlbUEBAK10oW0NIM10pKFtDSDJdW0NIM10pTihbQ0gyXVtDSDNdKVtDSDJdW0NASF0yW0NIMl1bQ0BASF0yW05IXUMzPUM9W0NIXVtDSDJdW0NIMl1bQ0BASF0oQyg9TylbT0hdKVtDSDJdW0NAQEhdM1tDSDNd

>  <s_glide_docking_method>  (1) 
confgen

>  <s_i_glide_gridfile>  (1) 
gpcr_5ht2c_6bqh_protein_autoprepared_prepared

>  <s_lp_Force_Field>  (1) 
S-OPLS

>  <s_lp_Variant>  (1) 
DiffSBDD_18-1

>  <s_m_source_file>  (1) 
generated_GPCR_5HT2C_ligand_DiffSBDD_2026-06-23_prepared.sdf

>  <GenAI_Model>  (1) 
DiffSBDD

>  <Protein>  (1) 
GPCR_5HT2C

$$$$
DiffSBDD_97
     RDKit          3D

  0  0  0  0  0  0  0  0  0  0999 V3000
M  V30 BEGIN CTAB
M  V30 COUNTS 54 56 0 0 1
M  V30 BEGIN ATOM
M  V30 1 C 38.365948 27.771522 52.475001 0
M  V30 2 C 39.036931 29.638804 57.481086 0
M  V30 3 N 35.254152 34.561389 58.967760 0 CHG=1
M  V30 4 C 39.113868 28.585016 51.747244 0
M  V30 5 C 39.345981 29.724068 52.451894 0
M  V30 6 S 38.827132 30.778988 54.925517 0
M  V30 7 C 36.929518 31.729771 59.844881 0
M  V30 8 C 39.648398 28.306144 50.368173 0
M  V30 9 C 41.016612 30.453441 50.709032 0
M  V30 10 C 37.828616 35.323692 61.215967 0
M  V30 11 C 38.675049 30.921224 58.245866 0
M  V30 12 C 40.211714 30.873591 51.971485 0
M  V30 13 C 38.727131 29.631549 53.618737 0
M  V30 14 C 37.212906 33.915344 61.175000 0
M  V30 15 S 38.556097 27.779789 55.461065 0
M  V30 16 C 38.336181 29.484368 56.124423 0 CFG=1
M  V30 17 C 34.171900 33.609848 59.298588 0
M  V30 18 N 37.245134 30.972188 58.607356 0 CHG=1
M  V30 19 C 37.309672 33.234038 59.790976 0 CFG=2
M  V30 20 C 37.914211 28.330259 53.874328 0 CFG=2
M  V30 21 C 40.174503 29.611515 49.729535 0
M  V30 22 C 36.601418 34.021018 58.660074 0
M  V30 23 H 38.045086 26.797345 52.142833 0
M  V30 24 H 40.115304 29.602202 57.329443 0
M  V30 25 H 38.800010 28.778041 58.107895 0
M  V30 26 H 35.339097 35.217964 59.730238 0
M  V30 27 H 35.870337 31.597960 60.055354 0
M  V30 28 H 37.452385 31.248952 60.673263 0
M  V30 29 H 40.445116 27.568975 50.437930 0
M  V30 30 H 38.849654 27.876195 49.767761 0
M  V30 31 H 41.387276 31.337753 50.193967 0
M  V30 32 H 41.897086 29.869530 50.967760 0
M  V30 33 H 37.797688 35.734082 62.226006 0
M  V30 34 H 37.298003 36.022439 60.569830 0
M  V30 35 H 38.873205 35.307971 60.902741 0
M  V30 36 H 39.245132 30.932940 59.172871 0
M  V30 37 H 38.951035 31.815620 57.685478 0
M  V30 38 H 40.845140 31.222455 52.780416 0
M  V30 39 H 39.578175 31.719710 51.714271 0
M  V30 40 H 36.179724 33.957858 61.519518 0
M  V30 41 H 37.739575 33.300495 61.905911 0
M  V30 42 H 37.260239 29.599010 56.261370 0
M  V30 43 H 33.218969 34.137759 59.320526 0
M  V30 44 H 34.315977 33.173550 60.285152 0
M  V30 45 H 34.077517 32.810662 58.567762 0
M  V30 46 H 36.676121 31.337747 57.836442 0
M  V30 47 H 38.371438 33.260168 59.542310 0
M  V30 48 H 36.845135 28.532557 53.904663 0
M  V30 49 H 39.345291 30.235079 49.403786 0
M  V30 50 H 40.752881 29.368895 48.838777 0
M  V30 51 H 36.569266 33.430760 57.753281 0
M  V30 52 H 37.222201 34.881498 58.406050 0
M  V30 53 H 34.968048 35.080464 58.146438 0
M  V30 54 H 36.940519 30.022639 58.766771 0
M  V30 END ATOM
M  V30 BEGIN BOND
M  V30 1 2 4 1
M  V30 2 1 5 4
M  V30 3 1 8 4
M  V30 4 1 11 2
M  V30 5 1 12 5
M  V30 6 1 12 9
M  V30 7 2 13 5
M  V30 8 1 13 6
M  V30 9 1 14 10
M  V30 10 1 16 2
M  V30 11 1 16 6
M  V30 12 1 16 15
M  V30 13 1 17 3
M  V30 14 1 18 7
M  V30 15 1 18 11
M  V30 16 1 19 7
M  V30 17 1 19 14
M  V30 18 1 20 1
M  V30 19 1 20 13
M  V30 20 1 20 15
M  V30 21 1 21 8
M  V30 22 1 21 9
M  V30 23 1 22 3
M  V30 24 1 22 19
M  V30 25 1 23 1
M  V30 26 1 24 2
M  V30 27 1 25 2
M  V30 28 1 26 3
M  V30 29 1 27 7
M  V30 30 1 28 7
M  V30 31 1 29 8
M  V30 32 1 30 8
M  V30 33 1 31 9
M  V30 34 1 32 9
M  V30 35 1 33 10
M  V30 36 1 34 10
M  V30 37 1 35 10
M  V30 38 1 36 11
M  V30 39 1 37 11
M  V30 40 1 38 12
M  V30 41 1 39 12
M  V30 42 1 40 14
M  V30 43 1 41 14
M  V30 44 1 16 42 CFG=1
M  V30 45 1 43 17
M  V30 46 1 44 17
M  V30 47 1 45 17
M  V30 48 1 46 18
M  V30 49 1 19 47 CFG=3
M  V30 50 1 20 48 CFG=1
M  V30 51 1 49 21
M  V30 52 1 50 21
M  V30 53 1 51 22
M  V30 54 1 52 22
M  V30 55 1 53 3
M  V30 56 1 54 18
M  V30 END BOND
M  V30 END CTAB
M  END
>  <i_epik_Tot_Q>  (1) 
2

>  <i_epik_Tot_abs_Q>  (1) 
2

>  <i_i_glide_confnum>  (1) 
218

>  <i_i_glide_lignum>  (1) 
230

>  <i_i_glide_posenum>  (1) 
261

>  <i_i_glide_rotatable_bonds>  (1) 
8

>  <i_lp_mmshare_version>  (1) 
72125

>  <i_m_source_file_index>  (1) 
98

>  <i_f3d_flags>  (1) 
0

>  <num_sample>  (1) 
100

>  <b_lp_Chiralities_Consistent>  (1) 
1

>  <r_epik_Charging_Adjusted_Penalty>  (1) 
0.023784372846060081

>  <r_epik_Ionization_Penalty>  (1) 
0.011913947957046679

>  <r_epik_Ionization_Penalty_Charging>  (1) 
0.011913947957046679

>  <r_epik_Ionization_Penalty_Neutral>  (1) 
0

>  <r_epik_State_Penalty>  (1) 
0.011870424889013402

>  <r_glide_ring_energy>  (1) 
0

>  <r_i_docking_score>  (1) 
-7.2257561098540872

>  <r_i_glide_ecoul>  (1) 
-6.7093773305365509

>  <r_i_glide_eff_state_penalty>  (1) 
0.011870424889013402

>  <r_i_glide_einternal>  (1) 
8.2469663390874679

>  <r_i_glide_emodel>  (1) 
-60.671085372989012

>  <r_i_glide_emodel_strain>  (1) 
0.76287938657929999

>  <r_i_glide_energy>  (1) 
-40.699729114119179

>  <r_i_glide_erotb>  (1) 
0.81630680719182536

>  <r_i_glide_esite>  (1) 
-0.11510604679518077

>  <r_i_glide_evdw>  (1) 
-33.990351783582625

>  <r_i_glide_gscore>  (1) 
-7.237626534743101

>  <r_i_glide_gscore_strain>  (1) 
0

>  <r_i_glide_hbond>  (1) 
-0.20000000000000001

>  <r_i_glide_ligand_efficiency>  (1) 
-0.32844345953882215

>  <r_i_glide_ligand_efficiency_ln>  (1) 
-1.7662383591063693

>  <r_i_glide_ligand_efficiency_sa>  (1) 
-0.92031149152430103

>  <r_i_glide_lipo>  (1) 
-3.0460654245619487

>  <r_i_glide_metal>  (1) 
-0

>  <r_i_glide_rewards>  (1) 
-1.9868376818181823

>  <r_lp_Energy>  (1) 
24.890995

>  <s_epik_Chemistry_Notes>  (1) 
This compound contains an acetal/aminal-like group ( X-CH(R)-Y where X, Y are N, S, or O) that may be acid/base labile, releasing an aldehyde.

>  <s_epik_cmdline>  (1) 
J2VwaWtfcHl0aG9uJywgJy1waHQnLCAnMS4wJywgJy1waCcsICc3LjQnLCAnLXRuJywgJzgnLCAnLW1hJywgJzUwMCcsICctaW1hZScsICc8aW5maWxlLm1hZT4nLCAnLW9tYWUnLCAnPG91dGZpbGUubWFlPic=

>  <s_epik_input>  (1) 
W0NIMl0xW0NIMl1bQ0gyXVtDSDJdQyhDMTIpPUMzW0NAQEhdKFtDSF09MilTW0NASF0oUzMpW0NIMl1bQ0gyXVtOSF1bQ0gyXVtDQEhdKFtDSDJdW0NIM10pW0NIMl1bTkhdW0NIM10=

>  <s_glide_docking_method>  (1) 
confgen

>  <s_i_glide_gridfile>  (1) 
gpcr_5ht2c_6bqh_protein_autoprepared_prepared

>  <s_lp_Force_Field>  (1) 
S-OPLS

>  <s_lp_Variant>  (1) 
DiffSBDD_97-1

>  <s_m_source_file>  (1) 
generated_GPCR_5HT2C_ligand_DiffSBDD_2026-06-23_prepared.sdf

>  <GenAI_Model>  (1) 
DiffSBDD

>  <Protein>  (1) 
GPCR_5HT2C

$$$$
DiffSBDD_62
     RDKit          3D

  0  0  0  0  0  0  0  0  0  0999 V3000
M  V30 BEGIN CTAB
M  V30 COUNTS 80 84 0 0 1
M  V30 BEGIN ATOM
M  V30 1 C 40.591166 30.683417 62.857971 0
M  V30 2 C 40.333899 30.004045 50.941096 0
M  V30 3 C 39.704145 28.531454 57.613186 0
M  V30 4 C 40.222012 33.045992 61.928061 0
M  V30 5 C 43.568946 26.888105 65.425091 0
M  V30 6 C 39.245149 27.676246 50.446324 0
M  V30 7 C 38.289195 29.183344 57.666018 0 CFG=2
M  V30 8 C 39.051563 28.970219 52.551458 0
M  V30 9 C 37.872113 28.420195 54.507763 0
M  V30 10 O 41.401243 28.110503 63.879334 0
M  V30 11 C 43.248846 28.370102 65.375755 0
M  V30 12 C 39.553489 31.708367 54.968406 0
M  V30 13 C 39.648927 31.657832 62.182382 0
M  V30 14 C 41.957416 28.783928 64.749526 0
M  V30 15 C 39.082094 30.449711 54.387013 0
M  V30 16 N 39.440072 30.104007 53.112061 0
M  V30 17 C 39.736953 27.020031 57.935735 0
M  V30 18 O 35.645352 30.137695 58.967749 0
M  V30 19 C 44.305941 27.781829 64.460437 0
M  V30 20 N 40.045145 30.137765 65.208993 0
M  V30 21 N 40.260096 30.937753 52.240172 0
M  V30 22 N 38.467621 31.321604 61.849800 0
M  V30 23 C 37.603115 32.205481 61.105129 0
M  V30 24 C 39.491086 28.830589 51.374426 0
M  V30 25 C 38.341278 29.692173 55.094676 0
M  V30 26 C 38.862217 31.473719 56.400199 0
M  V30 27 N 41.483860 29.974600 65.189922 0
M  V30 28 C 36.842388 30.836868 59.146673 0 CFG=2
M  V30 29 C 40.786858 30.958503 64.352583 0 CFG=1
M  V30 30 C 39.015290 24.658204 57.303562 0
M  V30 31 C 39.196521 26.098763 56.816902 0
M  V30 32 C 37.979158 30.122631 56.465107 0 CFG=2
M  V30 33 C 40.079759 26.105551 55.555111 0
M  V30 34 C 38.063268 29.886571 59.039812 0
M  V30 35 N 36.561040 31.361976 60.492548 0 CHG=1
M  V30 36 N 38.209062 28.077044 53.301916 0
M  V30 37 H 40.179924 29.692082 62.674880 0
M  V30 38 H 41.561236 30.724969 62.363511 0
M  V30 39 H 41.364619 29.716959 50.735980 0
M  V30 40 H 39.906814 30.513615 50.076945 0
M  V30 41 H 40.188713 28.703506 56.654700 0
M  V30 42 H 40.361946 29.038939 58.319528 0
M  V30 43 H 41.198270 33.161275 62.400539 0
M  V30 44 H 40.349597 33.218030 60.859389 0
M  V30 45 H 39.563682 33.814505 62.335513 0
M  V30 46 H 44.106287 26.526388 66.298751 0
M  V30 47 H 42.851787 26.184864 65.005590 0
M  V30 48 H 38.845137 28.111487 49.539019 0
M  V30 49 H 40.171030 27.161828 50.194601 0
M  V30 50 H 38.529983 26.958487 50.849522 0
M  V30 51 H 37.549682 28.384887 57.603123 0
M  V30 52 H 37.245136 27.799209 55.139831 0
M  V30 53 H 43.605154 28.982095 66.202866 0
M  V30 54 H 40.641740 31.737729 55.006414 0
M  V30 55 H 39.128062 32.549189 54.431752 0
M  V30 56 H 40.764836 26.729092 58.156899 0
M  V30 57 H 39.180758 26.847885 58.858804 0
M  V30 58 H 44.075942 27.672903 63.401577 0
M  V30 59 H 45.343300 28.024753 64.679681 0
M  V30 60 H 39.499864 29.380033 64.797568 0
M  V30 61 H 39.751799 31.796349 52.035269 0
M  V30 62 H 38.120232 32.779069 60.333151 0
M  V30 63 H 37.122852 32.914137 61.782602 0
M  V30 64 H 38.248523 32.338302 56.653742 0
M  V30 65 H 39.645137 31.433004 57.154519 0
M  V30 66 H 36.910388 31.681969 58.465767 0
M  V30 67 H 40.935611 32.000228 64.632274 0
M  V30 68 H 39.971970 24.210981 57.569253 0
M  V30 69 H 38.354182 24.610778 58.167752 0
M  V30 70 H 38.566796 24.044876 56.522468 0
M  V30 71 H 38.201492 26.442044 56.548146 0
M  V30 72 H 36.916811 30.358503 56.431201 0
M  V30 73 H 41.078554 25.737760 55.767739 0
M  V30 74 H 39.653781 25.476029 54.772436 0
M  V30 75 H 40.204621 27.098826 55.133215 0
M  V30 76 H 38.949429 30.477013 59.270385 0
M  V30 77 H 38.007653 29.124219 59.817715 0
M  V30 78 H 35.719543 31.913089 60.402954 0
M  V30 79 H 36.367860 30.572068 61.084787 0
M  V30 80 H 35.276655 30.454835 58.140814 0
M  V30 END ATOM
M  V30 BEGIN BOND
M  V30 1 1 7 3
M  V30 2 1 11 5
M  V30 3 1 13 1
M  V30 4 1 13 4
M  V30 5 2 14 10
M  V30 6 1 14 11
M  V30 7 1 15 12
M  V30 8 1 16 8
M  V30 9 1 16 15
M  V30 10 1 17 3
M  V30 11 1 19 5
M  V30 12 1 19 11
M  V30 13 1 21 2
M  V30 14 1 21 16
M  V30 15 2 22 13
M  V30 16 1 23 22
M  V30 17 1 24 2
M  V30 18 1 24 6
M  V30 19 2 24 8
M  V30 20 1 25 9
M  V30 21 2 25 15
M  V30 22 1 26 12
M  V30 23 1 27 14
M  V30 24 1 27 20
M  V30 25 1 28 18
M  V30 26 1 29 1
M  V30 27 1 29 20
M  V30 28 1 29 27
M  V30 29 1 31 17
M  V30 30 1 31 30
M  V30 31 1 32 7
M  V30 32 1 32 25
M  V30 33 1 32 26
M  V30 34 1 33 31
M  V30 35 1 34 7
M  V30 36 1 34 28
M  V30 37 1 35 23
M  V30 38 1 35 28
M  V30 39 1 36 8
M  V30 40 2 36 9
M  V30 41 1 37 1
M  V30 42 1 38 1
M  V30 43 1 39 2
M  V30 44 1 40 2
M  V30 45 1 41 3
M  V30 46 1 42 3
M  V30 47 1 43 4
M  V30 48 1 44 4
M  V30 49 1 45 4
M  V30 50 1 46 5
M  V30 51 1 47 5
M  V30 52 1 48 6
M  V30 53 1 49 6
M  V30 54 1 50 6
M  V30 55 1 7 51 CFG=1
M  V30 56 1 52 9
M  V30 57 1 53 11
M  V30 58 1 54 12
M  V30 59 1 55 12
M  V30 60 1 56 17
M  V30 61 1 57 17
M  V30 62 1 58 19
M  V30 63 1 59 19
M  V30 64 1 60 20
M  V30 65 1 61 21
M  V30 66 1 62 23
M  V30 67 1 63 23
M  V30 68 1 64 26
M  V30 69 1 65 26
M  V30 70 1 28 66 CFG=3
M  V30 71 1 29 67 CFG=3
M  V30 72 1 68 30
M  V30 73 1 69 30
M  V30 74 1 70 30
M  V30 75 1 71 31
M  V30 76 1 32 72 CFG=3
M  V30 77 1 73 33
M  V30 78 1 74 33
M  V30 79 1 75 33
M  V30 80 1 76 34
M  V30 81 1 77 34
M  V30 82 1 78 35
M  V30 83 1 79 35
M  V30 84 1 80 18
M  V30 END BOND
M  V30 END CTAB
M  END
>  <i_epik_Tot_Q>  (1) 
1

>  <i_epik_Tot_abs_Q>  (1) 
1

>  <i_i_glide_confnum>  (1) 
2447

>  <i_i_glide_lignum>  (1) 
138

>  <i_i_glide_posenum>  (1) 
157

>  <i_i_glide_rotatable_bonds>  (1) 
14

>  <i_lp_mmshare_version>  (1) 
72125

>  <i_m_source_file_index>  (1) 
63

>  <i_f3d_flags>  (1) 
0

>  <num_sample>  (1) 
100

>  <b_lp_Chiralities_Consistent>  (1) 
1

>  <r_epik_Charging_Adjusted_Penalty>  (1) 
1.9108014557952604

>  <r_epik_Ionization_Penalty>  (1) 
0.8812751426241725

>  <r_epik_Ionization_Penalty_Charging>  (1) 
0.72483633588800112

>  <r_epik_Ionization_Penalty_Neutral>  (1) 
0.15643880673617139

>  <r_epik_State_Penalty>  (1) 
1.1859651199072592

>  <r_glide_ring_energy>  (1) 
0

>  <r_i_docking_score>  (1) 
-7.2235223771317898

>  <r_i_glide_ecoul>  (1) 
-7.1511015372297564

>  <r_i_glide_eff_state_penalty>  (1) 
1.1859651199072592

>  <r_i_glide_einternal>  (1) 
6.9918487798245366

>  <r_i_glide_emodel>  (1) 
-83.982468944552039

>  <r_i_glide_emodel_strain>  (1) 
0.056619828047843157

>  <r_i_glide_energy>  (1) 
-56.396680208537568

>  <r_i_glide_erotb>  (1) 
0.98469743448682379

>  <r_i_glide_esite>  (1) 
-0.16048272276359332

>  <r_i_glide_evdw>  (1) 
-49.245578671307811

>  <r_i_glide_gscore>  (1) 
-8.4094874970390485

>  <r_i_glide_gscore_strain>  (1) 
0

>  <r_i_glide_hbond>  (1) 
-0.44409811028563573

>  <r_i_glide_ligand_efficiency>  (1) 
-0.20065339936477194

>  <r_i_glide_ligand_efficiency_ln>  (1) 
-1.5759774256686994

>  <r_i_glide_ligand_efficiency_sa>  (1) 
-0.66254292694587635

>  <r_i_glide_lipo>  (1) 
-3.5338142369034244

>  <r_i_glide_metal>  (1) 
-0

>  <r_i_glide_rewards>  (1) 
-1.7208456974233646

>  <r_lp_Energy>  (1) 
41.955964999999999

>  <r_lp_tautomer_probability>  (1) 
0.49999399997599986

>  <s_epik_Chemistry_Notes>  (1) 
This compound has an imine and may undergo hydrolysis. This compound contains an acetal/aminal-like group ( X-CH(R)-Y where X, Y are N, S, or O) that may be acid/base labile, releasing an aldehyde.

>  <s_epik_cmdline>  (1) 
J2VwaWtfcHl0aG9uJywgJy1waHQnLCAnMS4wJywgJy1waCcsICc3LjQnLCAnLXRuJywgJzgnLCAnLW1hJywgJzUwMCcsICctaW1hZScsICc8aW5maWxlLm1hZT4nLCAnLW9tYWUnLCAnPG91dGZpbGUubWFlPic=

>  <s_epik_input>  (1) 
W0NIMl0xW0NIMl1bQ0hdMUMoPU8pTjJbTkhdW0NAQEhdMltDSDJdL0MoW0NIM10pPU4vW0NIMl1bTkhdW0NASF0oW09IXSlbQ0gyXVtDQEhdKFtDSDJdW0NIMl1bQ0hdKFtDSDNdKVtDSDNdKVtDQEBIXShbQ0gyXVtDSDJdMylDKFtDSF09TjQpPUMzTihDND01KVtOSF1bQ0gyXUM1W0NIM10=

>  <s_glide_docking_method>  (1) 
confgen

>  <s_i_glide_gridfile>  (1) 
gpcr_5ht2c_6bqh_protein_autoprepared_prepared

>  <s_lp_Force_Field>  (1) 
S-OPLS

>  <s_lp_Variant>  (1) 
DiffSBDD_62-4

>  <s_m_source_file>  (1) 
generated_GPCR_5HT2C_ligand_DiffSBDD_2026-06-23_prepared.sdf

>  <GenAI_Model>  (1) 
DiffSBDD

>  <Protein>  (1) 
GPCR_5HT2C

$$$$
DiffSBDD_50
     RDKit          3D

  0  0  0  0  0  0  0  0  0  0999 V3000
M  V30 BEGIN CTAB
M  V30 COUNTS 65 68 0 0 1
M  V30 BEGIN ATOM
M  V30 1 C 38.126984 32.418697 58.738466 0 CFG=1
M  V30 2 F 40.445359 28.890661 56.591283 0
M  V30 3 C 38.746265 34.186409 61.762064 0
M  V30 4 O 37.573787 30.937798 61.767778 0 CHG=-1
M  V30 5 O 40.420827 36.937669 63.367777 0
M  V30 6 O 39.571452 34.307642 62.875303 0
M  V30 7 S 37.144696 34.949723 59.741695 0
M  V30 8 C 37.642841 30.968700 58.519596 0
M  V30 9 C 41.830427 33.562860 63.395836 0 CFG=2
M  V30 10 O 39.138241 30.481140 55.088338 0
M  V30 11 C 41.282204 35.849152 63.549802 0 CFG=1
M  V30 12 C 41.082710 32.889537 65.793419 0
M  V30 13 C 38.768972 32.499965 56.276001 0
M  V30 14 C 38.348680 30.249211 57.370046 0 CFG=2
M  V30 15 C 40.445040 26.538248 56.786080 0
M  V30 16 C 38.655698 31.657362 61.834654 0
M  V30 17 C 38.282982 31.065832 56.058159 0 CFG=2
M  V30 18 C 38.668029 30.624844 53.765372 0
M  V30 19 F 37.732699 24.180894 57.529643 0
M  V30 20 C 37.698336 26.563517 57.367894 0
M  V30 21 C 41.823807 33.898268 64.902210 0 CFG=2
M  V30 22 C 37.998331 33.174555 57.408300 0
M  V30 23 C 39.760213 25.331306 57.018336 0
M  V30 24 C 41.274587 35.332973 64.991264 0
M  V30 25 C 37.438784 33.095100 59.981355 0 CFG=2
M  V30 26 C 38.377595 27.781850 57.141299 0
M  V30 27 C 40.934890 34.622356 62.701749 0 CFG=2
M  V30 28 C 38.327287 33.034730 61.250179 0
M  V30 29 N 37.644321 28.983290 57.213144 0
M  V30 30 C 39.767684 27.756704 56.839770 0
M  V30 31 C 38.389368 25.344104 57.307193 0
M  V30 32 O 41.332936 34.817926 61.368992 0
M  V30 33 O 38.504751 36.503776 61.402451 0
M  V30 34 O 41.627789 32.219713 63.032166 0
M  V30 35 C 38.244198 35.345076 61.096231 0
M  V30 36 H 39.198597 32.388240 58.936814 0
M  V30 37 H 40.760890 37.643347 63.909174 0
M  V30 38 H 37.827493 30.355018 59.393539 0
M  V30 39 H 36.561933 30.938395 58.404720 0
M  V30 40 H 42.845137 33.737676 63.060980 0
M  V30 41 H 42.295157 36.167086 63.292570 0
M  V30 42 H 40.045137 32.764399 65.480772 0
M  V30 43 H 41.562796 31.911467 65.754502 0
M  V30 44 H 41.087788 33.216373 66.834429 0
M  V30 45 H 38.655029 33.087118 55.365606 0
M  V30 46 H 39.834762 32.502483 56.511157 0
M  V30 47 H 39.356522 30.177052 57.760766 0
M  V30 48 H 41.500517 26.533999 56.564666 0
M  V30 49 H 39.534965 31.348111 61.269834 0
M  V30 50 H 39.088241 31.836253 62.814844 0
M  V30 51 H 37.246827 31.084838 55.708044 0
M  V30 52 H 39.406335 30.233365 53.063747 0
M  V30 53 H 37.743073 30.061482 53.631457 0
M  V30 54 H 38.486371 31.669942 53.511886 0
M  V30 55 H 36.643331 26.568571 57.596014 0
M  V30 56 H 42.862908 33.914065 65.236253 0
M  V30 57 H 36.956179 33.337832 57.143717 0
M  V30 58 H 38.445300 34.139952 57.517195 0
M  V30 59 H 40.291146 24.394319 56.972182 0
M  V30 60 H 40.258280 35.338040 65.381771 0
M  V30 61 H 41.872796 35.964389 65.649636 0
M  V30 62 H 36.456403 32.654497 60.162230 0
M  V30 63 H 36.678659 28.947817 57.507036 0
M  V30 64 H 41.279634 33.972365 60.952690 0
M  V30 65 H 40.732289 31.990233 63.240817 0
M  V30 END ATOM
M  V30 BEGIN BOND
M  V30 1 1 6 3
M  V30 2 1 8 1
M  V30 3 1 11 5
M  V30 4 1 14 8
M  V30 5 1 16 4
M  V30 6 1 17 10
M  V30 7 1 17 13
M  V30 8 1 17 14
M  V30 9 1 18 10
M  V30 10 1 21 9
M  V30 11 1 21 12
M  V30 12 1 22 1
M  V30 13 1 22 13
M  V30 14 2 23 15
M  V30 15 1 24 11
M  V30 16 1 24 21
M  V30 17 1 25 1
M  V30 18 1 25 7
M  V30 19 1 26 20
M  V30 20 1 27 6 CFG=3
M  V30 21 1 27 9
M  V30 22 1 27 11
M  V30 23 2 28 3
M  V30 24 1 28 16
M  V30 25 1 28 25
M  V30 26 1 29 14
M  V30 27 1 29 26
M  V30 28 1 30 2
M  V30 29 1 30 15
M  V30 30 2 30 26
M  V30 31 1 31 19
M  V30 32 2 31 20
M  V30 33 1 31 23
M  V30 34 1 32 27
M  V30 35 1 34 9
M  V30 36 1 35 3
M  V30 37 1 35 7
M  V30 38 2 35 33
M  V30 39 1 1 36 CFG=1
M  V30 40 1 37 5
M  V30 41 1 38 8
M  V30 42 1 39 8
M  V30 43 1 9 40 CFG=3
M  V30 44 1 11 41 CFG=3
M  V30 45 1 42 12
M  V30 46 1 43 12
M  V30 47 1 44 12
M  V30 48 1 45 13
M  V30 49 1 46 13
M  V30 50 1 14 47 CFG=1
M  V30 51 1 48 15
M  V30 52 1 49 16
M  V30 53 1 50 16
M  V30 54 1 17 51 CFG=3
M  V30 55 1 52 18
M  V30 56 1 53 18
M  V30 57 1 54 18
M  V30 58 1 55 20
M  V30 59 1 21 56 CFG=1
M  V30 60 1 57 22
M  V30 61 1 58 22
M  V30 62 1 59 23
M  V30 63 1 60 24
M  V30 64 1 61 24
M  V30 65 1 25 62 CFG=1
M  V30 66 1 63 29
M  V30 67 1 64 32
M  V30 68 1 65 34
M  V30 END BOND
M  V30 END CTAB
M  END
>  <i_epik_Tot_Q>  (1) 
-1

>  <i_epik_Tot_abs_Q>  (1) 
1

>  <i_i_glide_confnum>  (1) 
83

>  <i_i_glide_lignum>  (1) 
105

>  <i_i_glide_posenum>  (1) 
46

>  <i_i_glide_rotatable_bonds>  (1) 
10

>  <i_lp_mmshare_version>  (1) 
72125

>  <i_m_source_file_index>  (1) 
51

>  <i_f3d_flags>  (1) 
0

>  <num_sample>  (1) 
100

>  <b_lp_Chiralities_Consistent>  (1) 
1

>  <r_epik_Charging_Adjusted_Penalty>  (1) 
1.033121990919972

>  <r_epik_Ionization_Penalty>  (1) 
0.51659959183111048

>  <r_epik_Ionization_Penalty_Charging>  (1) 
0.51656099545998602

>  <r_epik_Ionization_Penalty_Neutral>  (1) 
3.8596371124435187e-05

>  <r_epik_State_Penalty>  (1) 
0.51656099545998602

>  <r_glide_ring_energy>  (1) 
0

>  <r_i_docking_score>  (1) 
-7.2190169320345161

>  <r_i_glide_ecoul>  (1) 
-7.8605261322409037

>  <r_i_glide_eff_state_penalty>  (1) 
0.51656099545998602

>  <r_i_glide_einternal>  (1) 
12.266882257649421

>  <r_i_glide_emodel>  (1) 
-62.451265562261113

>  <r_i_glide_emodel_strain>  (1) 
0.95328403275536289

>  <r_i_glide_energy>  (1) 
-47.795841957058052

>  <r_i_glide_erotb>  (1) 
0.38736490325272716

>  <r_i_glide_esite>  (1) 
-0.026873286815050024

>  <r_i_glide_evdw>  (1) 
-39.935315824817145

>  <r_i_glide_gscore>  (1) 
-7.7355779274945018

>  <r_i_glide_gscore_strain>  (1) 
0

>  <r_i_glide_hbond>  (1) 
-0.46362842718977426

>  <r_i_glide_ligand_efficiency>  (1) 
-0.2062576266295576

>  <r_i_glide_ligand_efficiency_ln>  (1) 
-1.5847344340300951

>  <r_i_glide_ligand_efficiency_sa>  (1) 
-0.67468237368740291

>  <r_i_glide_lipo>  (1) 
-2.7763881392433811

>  <r_i_glide_metal>  (1) 
-0

>  <r_i_glide_rewards>  (1) 
-1.680208266422031

>  <r_lp_Energy>  (1) 
65.937855999999996

>  <r_lp_tautomer_probability>  (1) 
0.99999998906363929

>  <s_epik_cmdline>  (1) 
J2VwaWtfcHl0aG9uJywgJy1waHQnLCAnMS4wJywgJy1waCcsICc3LjQnLCAnLXRuJywgJzgnLCAnLW1hJywgJzUwMCcsICctaW1hZScsICc8aW5maWxlLm1hZT4nLCAnLW9tYWUnLCAnPG91dGZpbGUubWFlPic=

>  <s_epik_input>  (1) 
W09IXVtDQEhdMVtDSDJdW0NAQEhdKFtDSDNdKVtDQEBIXShbT0hdKVtDQEBdMShbT0hdKU9DMj1DKFtDSDJdW09IXSlbQ0BASF0oU0MyPU8pW0NASF0zW0NIMl1bQ0BIXShbQ0BIXShPW0NIM10pW0NIMl1bQ0gyXTMpW05IXWM0W2NIXWMoRilbY0hdW2NIXWM0Rg==

>  <s_glide_docking_method>  (1) 
confgen

>  <s_i_glide_gridfile>  (1) 
gpcr_5ht2c_6bqh_protein_autoprepared_prepared

>  <s_lp_Force_Field>  (1) 
S-OPLS

>  <s_lp_Variant>  (1) 
DiffSBDD_50-3

>  <s_m_source_file>  (1) 
generated_GPCR_5HT2C_ligand_DiffSBDD_2026-06-23_prepared.sdf

>  <GenAI_Model>  (1) 
DiffSBDD

>  <Protein>  (1) 
GPCR_5HT2C

$$$$
DiffSBDD_53
     RDKit          3D

  0  0  0  0  0  0  0  0  0  0999 V3000
M  V30 BEGIN CTAB
M  V30 COUNTS 82 86 0 0 1
M  V30 BEGIN ATOM
M  V30 1 C 37.846442 28.618665 58.170412 0
M  V30 2 C 36.964610 32.929871 61.554361 0
M  V30 3 C 40.876893 32.804230 64.953778 0
M  V30 4 C 38.968737 27.677935 58.658730 0
M  V30 5 C 40.162208 33.210201 61.901274 0
M  V30 6 C 37.090670 28.197872 53.059623 0
M  V30 7 C 40.051017 30.920529 54.764542 0
M  V30 8 N 38.359995 29.619497 57.214908 0 CHG=1
M  V30 9 N 40.532118 36.137757 65.965196 0 CHG=1
M  V30 10 C 36.876742 33.788586 58.755754 0
M  V30 11 C 38.057998 29.451078 55.773742 0 CFG=1
M  V30 12 N 40.063102 28.362172 59.345474 0
M  V30 13 C 40.010863 32.112525 62.666115 0
M  V30 14 C 39.351623 33.339940 60.627432 0
M  V30 15 C 38.594735 30.685857 55.074853 0 CFG=1
M  V30 16 C 38.505244 31.052895 61.057907 0 CFG=1
M  V30 17 C 38.668053 28.180054 55.114860 0 CFG=2
M  V30 18 C 41.411892 34.957490 66.032432 0
M  V30 19 O 38.045130 31.905579 55.533635 0
M  V30 20 C 39.693130 29.155187 60.482710 0
M  V30 21 C 36.358343 34.291058 61.183123 0
M  V30 22 C 35.807088 34.259438 59.750499 0
M  V30 23 C 38.082841 32.465326 60.591038 0
M  V30 24 O 39.318230 30.443529 60.102167 0
M  V30 25 C 37.482631 32.427543 59.161910 0
M  V30 26 C 38.546888 28.222012 53.562436 0 CFG=2
M  V30 27 O 38.045139 27.001066 55.586474 0
M  V30 28 C 41.568576 34.670567 63.477124 0
M  V30 29 N 39.317662 29.371365 53.004116 0 CFG=1 CHG=1
M  V30 30 O 39.128815 31.109673 62.313748 0
M  V30 31 C 39.434497 29.394070 51.524956 0
M  V30 32 C 39.060053 30.698690 53.631534 0 CFG=2
M  V30 33 C 41.098758 34.299241 62.243008 0
M  V30 34 C 40.785811 31.785882 63.883295 0
M  V30 35 C 41.262204 34.081436 64.795614 0
M  V30 36 H 37.403791 29.147910 59.012922 0
M  V30 37 H 37.022992 28.047843 57.744106 0
M  V30 38 H 36.156685 32.196477 61.554768 0
M  V30 39 H 37.342532 32.937755 62.567761 0
M  V30 40 H 40.674474 32.443138 65.952368 0
M  V30 41 H 38.542071 26.944805 59.344051 0
M  V30 42 H 39.386860 27.107009 57.830380 0
M  V30 43 H 36.546061 27.337741 53.447133 0
M  V30 44 H 36.557318 29.089892 53.367766 0
M  V30 45 H 37.030988 28.137765 51.974495 0
M  V30 46 H 40.422973 31.918664 54.967714 0
M  V30 47 H 40.769096 30.132520 54.976789 0
M  V30 48 H 39.351900 29.720531 57.361214 0
M  V30 49 H 40.554606 36.626339 66.848880 0
M  V30 50 H 40.870356 36.768041 65.245839 0
M  V30 51 H 37.658029 34.540848 58.685612 0
M  V30 52 H 36.445064 33.737790 57.759128 0
M  V30 53 H 36.974191 29.451836 55.652938 0
M  V30 54 H 40.717314 28.830963 58.736033 0
M  V30 55 H 39.111553 34.390793 60.471290 0
M  V30 56 H 40.011326 33.063589 59.805287 0
M  V30 57 H 37.617134 30.431749 61.174407 0
M  V30 58 H 39.722100 28.099818 55.385006 0
M  V30 59 H 41.179360 34.399035 66.940513 0
M  V30 60 H 42.445133 35.291598 66.119031 0
M  V30 61 H 37.090985 31.893921 55.521239 0
M  V30 62 H 38.904125 28.645555 61.039939 0
M  V30 63 H 40.549435 29.247930 61.152399 0
M  V30 64 H 37.101822 35.081826 61.281399 0
M  V30 65 H 35.561424 34.537529 61.884986 0
M  V30 66 H 35.445589 35.247020 59.462919 0
M  V30 67 H 34.946624 33.590845 59.701806 0
M  V30 68 H 38.245661 32.151087 58.435425 0
M  V30 69 H 36.704727 31.664862 59.101436 0
M  V30 70 H 39.026430 27.320021 53.177470 0
M  V30 71 H 38.467189 26.240801 55.210772 0
M  V30 72 H 42.198486 35.549313 63.490509 0
M  V30 73 H 38.481841 29.554939 51.025059 0
M  V30 74 H 40.115395 30.185745 51.208806 0
M  V30 75 H 39.839915 28.449234 51.160666 0
M  V30 76 H 38.845188 31.534154 52.967791 0
M  V30 77 H 41.408971 34.926077 61.418921 0
M  V30 78 H 40.351166 30.889947 64.329261 0
M  V30 79 H 41.797661 31.507226 63.586425 0
M  V30 80 H 40.266847 29.181830 53.287399 0
M  V30 81 H 37.930848 30.502604 57.463423 0
M  V30 82 H 39.584568 35.856842 65.759350 0
M  V30 END ATOM
M  V30 BEGIN BOND
M  V30 1 1 4 1
M  V30 2 1 8 1
M  V30 3 1 11 8
M  V30 4 1 12 4
M  V30 5 2 13 5
M  V30 6 1 14 5
M  V30 7 1 15 7
M  V30 8 1 15 11
M  V30 9 1 17 11
M  V30 10 1 18 9
M  V30 11 1 15 19 CFG=3
M  V30 12 1 20 12
M  V30 13 1 21 2
M  V30 14 1 22 10
M  V30 15 1 22 21
M  V30 16 1 23 2
M  V30 17 1 23 14
M  V30 18 1 23 16
M  V30 19 1 24 16
M  V30 20 1 24 20
M  V30 21 1 25 10
M  V30 22 1 25 23
M  V30 23 1 26 6
M  V30 24 1 26 17
M  V30 25 1 27 17
M  V30 26 1 29 26
M  V30 27 1 30 13
M  V30 28 1 30 16
M  V30 29 1 31 29
M  V30 30 1 32 7
M  V30 31 1 32 15
M  V30 32 1 32 29
M  V30 33 1 33 5
M  V30 34 2 33 28
M  V30 35 1 34 3
M  V30 36 1 34 13
M  V30 37 2 35 3
M  V30 38 1 35 18
M  V30 39 1 35 28
M  V30 40 1 36 1
M  V30 41 1 37 1
M  V30 42 1 38 2
M  V30 43 1 39 2
M  V30 44 1 40 3
M  V30 45 1 41 4
M  V30 46 1 42 4
M  V30 47 1 43 6
M  V30 48 1 44 6
M  V30 49 1 45 6
M  V30 50 1 46 7
M  V30 51 1 47 7
M  V30 52 1 48 8
M  V30 53 1 49 9
M  V30 54 1 50 9
M  V30 55 1 51 10
M  V30 56 1 52 10
M  V30 57 1 11 53 CFG=1
M  V30 58 1 54 12
M  V30 59 1 55 14
M  V30 60 1 56 14
M  V30 61 1 16 57 CFG=1
M  V30 62 1 17 58 CFG=3
M  V30 63 1 59 18
M  V30 64 1 60 18
M  V30 65 1 61 19
M  V30 66 1 62 20
M  V30 67 1 63 20
M  V30 68 1 64 21
M  V30 69 1 65 21
M  V30 70 1 66 22
M  V30 71 1 67 22
M  V30 72 1 68 25
M  V30 73 1 69 25
M  V30 74 1 26 70 CFG=3
M  V30 75 1 71 27
M  V30 76 1 72 28
M  V30 77 1 73 31
M  V30 78 1 74 31
M  V30 79 1 75 31
M  V30 80 1 32 76 CFG=3
M  V30 81 1 77 33
M  V30 82 1 78 34
M  V30 83 1 79 34
M  V30 84 1 29 80 CFG=1
M  V30 85 1 81 8
M  V30 86 1 82 9
M  V30 END BOND
M  V30 END CTAB
M  END
>  <i_epik_Tot_Q>  (1) 
3

>  <i_epik_Tot_abs_Q>  (1) 
3

>  <i_i_glide_confnum>  (1) 
480

>  <i_i_glide_lignum>  (1) 
110

>  <i_i_glide_posenum>  (1) 
398

>  <i_i_glide_rotatable_bonds>  (1) 
10

>  <i_lp_mmshare_version>  (1) 
72125

>  <i_m_source_file_index>  (1) 
54

>  <i_f3d_flags>  (1) 
0

>  <num_sample>  (1) 
100

>  <b_lp_Chiralities_Consistent>  (1) 
1

>  <r_epik_Charging_Adjusted_Penalty>  (1) 
0.52217566130243886

>  <r_epik_Ionization_Penalty>  (1) 
0.30399825412207077

>  <r_epik_Ionization_Penalty_Charging>  (1) 
0.29355179195135561

>  <r_epik_Ionization_Penalty_Neutral>  (1) 
0.010446462170715176

>  <r_epik_State_Penalty>  (1) 
0.22862386935108323

>  <r_glide_ring_energy>  (1) 
0.00062545301478619732

>  <r_i_docking_score>  (1) 
-7.2175917601958606

>  <r_i_glide_ecoul>  (1) 
-4.3816643543424432

>  <r_i_glide_eff_state_penalty>  (1) 
0.22862386935108323

>  <r_i_glide_einternal>  (1) 
9.2227602484772913

>  <r_i_glide_emodel>  (1) 
-63.540201020482158

>  <r_i_glide_emodel_strain>  (1) 
0.90278550874572261

>  <r_i_glide_energy>  (1) 
-48.033852893724251

>  <r_i_glide_erotb>  (1) 
0.58947078011706677

>  <r_i_glide_esite>  (1) 
-0.039388704336962538

>  <r_i_glide_evdw>  (1) 
-43.652188539381811

>  <r_i_glide_gscore>  (1) 
-7.4462156295469439

>  <r_i_glide_gscore_strain>  (1) 
0

>  <r_i_glide_hbond>  (1) 
-0.10097202900688892

>  <r_i_glide_ligand_efficiency>  (1) 
-0.20621690743416746

>  <r_i_glide_ligand_efficiency_ln>  (1) 
-1.5844215771815255

>  <r_i_glide_ligand_efficiency_sa>  (1) 
-0.67454917849918417

>  <r_i_glide_lipo>  (1) 
-3.9500616984821444

>  <r_i_glide_metal>  (1) 
-0

>  <r_i_glide_rewards>  (1) 
-1.1054048977175577

>  <r_lp_Energy>  (1) 
69.168939999999992

>  <s_epik_Chemistry_Notes>  (1) 
This compound contains an acetal/aminal-like group ( X-CH(R)-Y where X, Y are N, S, or O) that may be acid/base labile, releasing an aldehyde.

>  <s_epik_cmdline>  (1) 
J2VwaWtfcHl0aG9uJywgJy1waHQnLCAnMS4wJywgJy1waCcsICc3LjQnLCAnLXRuJywgJzgnLCAnLW1hJywgJzUwMCcsICctaW1hZScsICc8aW5maWxlLm1hZT4nLCAnLW9tYWUnLCAnPG91dGZpbGUubWFlPic=

>  <s_epik_input>  (1) 
W09IXVtDQEBdMTJbQ0BASF0oW0NIMl0xKU4oW0NIM10pW0NASF0oW0NIM10pW0NASF0oW09IXSlbQ0BIXTJbTkhdW0NIMl1bQ0gyXVtOSF1bQ0gyXU9bQ0BIXTNPQyhbQ0gyXVtDSF09QyhbQ0gyXVtOSDJdKVtDSF09W0NIXTQpPUM0W0NIMl1DMzVbQ0gyXVtDSDJdW0NIMl1bQ0gyXVtDSDJdNQ==

>  <s_glide_docking_method>  (1) 
confgen

>  <s_i_glide_gridfile>  (1) 
gpcr_5ht2c_6bqh_protein_autoprepared_prepared

>  <s_lp_Force_Field>  (1) 
S-OPLS

>  <s_lp_Variant>  (1) 
DiffSBDD_53-2

>  <s_m_source_file>  (1) 
generated_GPCR_5HT2C_ligand_DiffSBDD_2026-06-23_prepared.sdf

>  <GenAI_Model>  (1) 
DiffSBDD

>  <Protein>  (1) 
GPCR_5HT2C

$$$$
DiffSBDD_16
     RDKit          3D

  0  0  0  0  0  0  0  0  0  0999 V3000
M  V30 BEGIN CTAB
M  V30 COUNTS 70 74 0 0 1
M  V30 BEGIN ATOM
M  V30 1 C 39.876934 33.621230 61.498965 0
M  V30 2 C 38.897232 27.111253 53.378983 0
M  V30 3 C 38.509284 32.456233 57.161998 0 CFG=1
M  V30 4 C 38.455608 32.422618 55.633349 0
M  V30 5 C 41.275330 34.756359 63.145054 0
M  V30 6 C 41.697069 33.516136 63.656926 0
M  V30 7 C 35.679616 31.786899 61.189341 0
M  V30 8 C 34.880723 33.085283 61.297036 0
M  V30 9 C 37.577023 33.566938 57.677123 0
M  V30 10 C 41.228825 32.324824 63.079913 0
M  V30 11 O 37.811530 31.639897 62.167765 0
M  V30 12 C 38.994759 28.670304 55.215099 0
M  V30 13 C 39.053193 29.909631 55.772673 0
M  V30 14 C 39.043720 30.071228 57.277119 0
M  V30 15 C 38.982423 28.345833 53.779993 0
M  V30 16 C 40.385982 34.806399 62.059960 0
M  V30 17 N 38.845127 26.937756 52.030966 0
M  V30 18 C 39.861217 29.657965 50.001509 0
M  V30 19 N 38.098320 31.128822 57.657890 0 CHG=1
M  V30 20 C 40.316955 30.537759 51.106383 0
M  V30 21 C 41.767744 36.036052 63.767785 0
M  V30 22 C 34.478608 33.550528 59.899290 0
M  V30 23 C 36.100935 35.605671 59.720096 0
M  V30 24 C 35.640939 34.247725 59.162217 0 CFG=1
M  V30 25 C 38.907106 33.727807 60.373006 0
M  V30 26 C 36.817089 33.268609 58.978863 0 CFG=2
M  V30 27 C 37.163224 32.114728 61.257947 0
M  V30 28 C 38.981919 29.322124 52.661154 0 CFG=2
M  V30 29 C 37.721623 33.051559 60.205843 0
M  V30 30 C 39.001057 28.141721 51.648394 0
M  V30 31 N 40.045424 30.294636 52.344844 0
M  V30 32 C 40.322893 32.372266 62.004922 0
M  V30 33 C 39.144410 31.220679 54.981209 0
M  V30 34 C 39.244949 28.500518 50.275723 0
M  V30 35 H 38.855200 26.243965 54.022152 0
M  V30 36 H 39.525564 32.662258 57.497416 0
M  V30 37 H 38.857681 33.349672 55.225944 0
M  V30 38 H 37.410833 32.390759 55.317351 0
M  V30 39 H 42.385294 33.480190 64.490016 0
M  V30 40 H 35.427612 31.186954 60.316154 0
M  V30 41 H 35.395600 31.193404 62.045131 0
M  V30 42 H 34.045134 32.937754 61.961833 0
M  V30 43 H 35.436741 33.866183 61.816653 0
M  V30 44 H 38.045143 34.537718 57.706914 0
M  V30 45 H 36.845134 33.737725 56.908141 0
M  V30 46 H 41.560744 31.371460 63.463666 0
M  V30 47 H 38.942329 27.834253 55.897950 0
M  V30 48 H 38.739058 29.141610 57.759334 0
M  V30 49 H 40.045129 30.293320 57.633855 0
M  V30 50 H 40.063747 35.763120 61.674058 0
M  V30 51 H 40.083799 29.973354 48.994693 0
M  V30 52 H 38.042391 31.170231 58.663884 0
M  V30 53 H 40.907167 31.399480 50.802768 0
M  V30 54 H 41.479093 36.899101 63.166756 0
M  V30 55 H 41.327480 36.137755 64.758797 0
M  V30 56 H 42.845130 36.040577 63.879203 0
M  V30 57 H 34.156265 32.686246 59.315860 0
M  V30 58 H 33.574539 34.137810 59.918594 0
M  V30 59 H 36.433526 35.555929 60.756239 0
M  V30 60 H 36.928376 36.007267 59.136255 0
M  V30 61 H 35.307367 36.336373 59.642605 0
M  V30 62 H 35.226904 34.462898 58.176525 0
M  V30 63 H 39.175247 34.448586 59.620169 0
M  V30 64 H 36.339304 32.316599 58.790587 0
M  V30 65 H 37.986875 29.737756 52.614203 0
M  V30 66 H 39.981394 31.451319 61.560846 0
M  V30 67 H 40.195132 31.448927 54.798200 0
M  V30 68 H 38.606296 31.199011 54.050016 0
M  V30 69 H 38.928002 27.806585 49.527408 0
M  V30 70 H 37.165950 30.943053 57.294346 0
M  V30 END ATOM
M  V30 BEGIN BOND
M  V30 1 1 4 3
M  V30 2 1 6 5
M  V30 3 1 8 7
M  V30 4 1 9 3
M  V30 5 2 10 6
M  V30 6 2 13 12
M  V30 7 1 14 13
M  V30 8 2 15 2
M  V30 9 1 15 12
M  V30 10 1 16 1
M  V30 11 2 16 5
M  V30 12 1 17 2
M  V30 13 1 19 3
M  V30 14 1 19 14
M  V30 15 1 20 18
M  V30 16 1 21 5
M  V30 17 1 22 8
M  V30 18 1 24 22
M  V30 19 1 24 23
M  V30 20 1 25 1
M  V30 21 1 26 9
M  V30 22 1 26 24
M  V30 23 1 27 7
M  V30 24 2 27 11
M  V30 25 1 28 15
M  V30 26 2 29 25
M  V30 27 1 29 26
M  V30 28 1 29 27
M  V30 29 2 30 17
M  V30 30 1 30 28
M  V30 31 2 31 20
M  V30 32 1 31 28
M  V30 33 2 32 1
M  V30 34 1 32 10
M  V30 35 1 33 4
M  V30 36 1 33 13
M  V30 37 2 34 18
M  V30 38 1 34 30
M  V30 39 1 35 2
M  V30 40 1 3 36 CFG=3
M  V30 41 1 37 4
M  V30 42 1 38 4
M  V30 43 1 39 6
M  V30 44 1 40 7
M  V30 45 1 41 7
M  V30 46 1 42 8
M  V30 47 1 43 8
M  V30 48 1 44 9
M  V30 49 1 45 9
M  V30 50 1 46 10
M  V30 51 1 47 12
M  V30 52 1 48 14
M  V30 53 1 49 14
M  V30 54 1 50 16
M  V30 55 1 51 18
M  V30 56 1 52 19
M  V30 57 1 53 20
M  V30 58 1 54 21
M  V30 59 1 55 21
M  V30 60 1 56 21
M  V30 61 1 57 22
M  V30 62 1 58 22
M  V30 63 1 59 23
M  V30 64 1 60 23
M  V30 65 1 61 23
M  V30 66 1 24 62 CFG=3
M  V30 67 1 63 25
M  V30 68 1 26 64 CFG=3
M  V30 69 1 28 65 CFG=3
M  V30 70 1 66 32
M  V30 71 1 67 33
M  V30 72 1 68 33
M  V30 73 1 69 34
M  V30 74 1 70 19
M  V30 END BOND
M  V30 END CTAB
M  END
>  <i_epik_Tot_Q>  (1) 
1

>  <i_epik_Tot_abs_Q>  (1) 
1

>  <i_i_glide_confnum>  (1) 
39

>  <i_i_glide_lignum>  (1) 
34

>  <i_i_glide_posenum>  (1) 
270

>  <i_i_glide_rotatable_bonds>  (1) 
4

>  <i_lp_mmshare_version>  (1) 
72125

>  <i_m_source_file_index>  (1) 
17

>  <i_f3d_flags>  (1) 
0

>  <num_sample>  (1) 
100

>  <b_lp_Chiralities_Consistent>  (1) 
1

>  <r_epik_Charging_Adjusted_Penalty>  (1) 
0.57808156404405586

>  <r_epik_Ionization_Penalty>  (1) 
0.28904078202202793

>  <r_epik_Ionization_Penalty_Charging>  (1) 
0.28904078202202793

>  <r_epik_Ionization_Penalty_Neutral>  (1) 
0

>  <r_epik_State_Penalty>  (1) 
0.28904078202202793

>  <r_glide_ring_energy>  (1) 
0

>  <r_i_docking_score>  (1) 
-7.2153244531630527

>  <r_i_glide_ecoul>  (1) 
-3.4923000343202819

>  <r_i_glide_eff_state_penalty>  (1) 
0.28904078202202793

>  <r_i_glide_einternal>  (1) 
24.471582160425633

>  <r_i_glide_emodel>  (1) 
-43.213966083931609

>  <r_i_glide_emodel_strain>  (1) 
6.4398672963760646

>  <r_i_glide_energy>  (1) 
-43.97737457896887

>  <r_i_glide_erotb>  (1) 
0.29147875755417113

>  <r_i_glide_esite>  (1) 
-0.10422045278885711

>  <r_i_glide_evdw>  (1) 
-40.48507454464859

>  <r_i_glide_gscore>  (1) 
-7.5043652351850803

>  <r_i_glide_gscore_strain>  (1) 
0.60996682409401615

>  <r_i_glide_hbond>  (1) 
-0.3629163389693062

>  <r_i_glide_ligand_efficiency>  (1) 
-0.21221542509303096

>  <r_i_glide_ligand_efficiency_ln>  (1) 
-1.5940675546994607

>  <r_i_glide_ligand_efficiency_sa>  (1) 
-0.68749559554450101

>  <r_i_glide_lipo>  (1) 
-3.2937773259388501

>  <r_i_glide_metal>  (1) 
-0

>  <r_i_glide_rewards>  (1) 
-2.0967979667557826

>  <r_lp_Energy>  (1) 
65.165018000000003

>  <s_epik_Chemistry_Notes>  (1) 
This compound has an imine and may undergo hydrolysis.

>  <s_epik_cmdline>  (1) 
J2VwaWtfcHl0aG9uJywgJy1waHQnLCAnMS4wJywgJy1waCcsICc3LjQnLCAnLXRuJywgJzgnLCAnLW1hJywgJzUwMCcsICctaW1hZScsICc8aW5maWxlLm1hZT4nLCAnLW9tYWUnLCAnPG91dGZpbGUubWFlPic=

>  <s_epik_input>  (1) 
W2NIXTFbY0hdW2NIXWMoW0NIM10pW2NIXWMxL1tDSF09QyhDKD1PKVtDSDJdW0NIMl1bQ0gyXVtDQEhdMltDSDNdKS9bQ0BASF0yW0NIMl1bQ0BASF0zW0NIMl1bQ0gyXUMoL1tDSDJdW05IXTMpPVtDSF1cQzQ9W0NIXU49QyhbQ0BASF00NSlbQ0hdPVtDSF1bQ0hdPU41

>  <s_glide_docking_method>  (1) 
confgen

>  <s_i_glide_gridfile>  (1) 
gpcr_5ht2c_6bqh_protein_autoprepared_prepared

>  <s_lp_Force_Field>  (1) 
S-OPLS

>  <s_lp_Variant>  (1) 
DiffSBDD_16-2

>  <s_m_source_file>  (1) 
generated_GPCR_5HT2C_ligand_DiffSBDD_2026-06-23_prepared.sdf

>  <GenAI_Model>  (1) 
DiffSBDD

>  <Protein>  (1) 
GPCR_5HT2C

$$$$
DiffSBDD_63
     RDKit          3D

  0  0  0  0  0  0  0  0  0  0999 V3000
M  V30 BEGIN CTAB
M  V30 COUNTS 83 88 0 0 1
M  V30 BEGIN ATOM
M  V30 1 F 37.353114 29.214342 54.202207 0
M  V30 2 C 39.866021 36.175341 64.130443 0
M  V30 3 C 38.590063 29.446017 54.644223 0 CFG=1
M  V30 4 C 41.347247 27.572057 65.619740 0
M  V30 5 C 38.791828 28.280365 58.552393 0
M  V30 6 C 38.971334 30.019182 60.508494 0 CFG=1
M  V30 7 N 38.837338 31.737752 54.047796 0 CHG=1
M  V30 8 C 42.845121 32.312005 65.753843 0
M  V30 9 C 41.285201 35.804064 66.131263 0
M  V30 10 C 41.064572 32.575099 63.915446 0 CFG=2
M  V30 11 C 42.255796 31.723473 64.466934 0 CFG=2
M  V30 12 C 37.785818 28.269140 57.400476 0
M  V30 13 C 42.435747 33.472720 66.290731 0
M  V30 14 C 40.445149 35.106330 63.496066 0
M  V30 15 N 39.053283 36.937741 63.285590 0
M  V30 16 N 37.785687 30.434595 58.314157 0 CHG=1
M  V30 17 C 37.575693 29.743908 57.026868 0 CFG=1
M  V30 18 C 43.530639 27.014674 64.412069 0
M  V30 19 C 38.109855 37.045658 60.990709 0
M  V30 20 O 40.445102 28.154515 60.961387 0
M  V30 21 O 40.839802 32.302540 62.531400 0
M  V30 22 S 40.008586 35.066494 61.797550 0
M  V30 23 C 38.257550 31.687355 55.405188 0 CFG=2
M  V30 24 C 38.916266 29.754708 58.984976 0 CFG=2
M  V30 25 C 38.790153 32.844167 56.265934 0
M  V30 26 C 41.350957 34.090721 64.129641 0 CFG=1
M  V30 27 C 40.081116 29.288554 61.258196 0
M  V30 28 C 38.980259 36.459821 62.048588 0
M  V30 29 O 40.845148 26.273578 65.367687 0
M  V30 30 C 42.349228 27.997187 64.527129 0 CFG=2
M  V30 31 C 42.876787 29.426611 64.761523 0
M  V30 32 C 39.952727 31.253751 62.294151 0 CFG=2
M  V30 33 O 41.822168 30.381218 64.671635 0
M  V30 34 C 41.345706 34.318078 65.676530 0 CFG=2
M  V30 35 O 40.587849 30.019357 62.244174 0
M  V30 36 C 39.290505 30.386174 53.671036 0
M  V30 37 C 39.296303 31.448307 60.921625 0
M  V30 38 C 38.557562 30.268255 55.938848 0 CFG=2
M  V30 39 C 40.025751 36.526997 65.573436 0
M  V30 40 H 39.102648 28.487759 54.734891 0
M  V30 41 H 40.504038 28.263385 65.653842 0
M  V30 42 H 41.815514 27.589535 66.604706 0
M  V30 43 H 39.759963 27.893374 58.231708 0
M  V30 44 H 38.445151 27.636450 59.361182 0
M  V30 45 H 38.029736 29.737742 60.967763 0
M  V30 46 H 39.615690 32.381263 54.006425 0
M  V30 47 H 43.629627 31.747257 66.234430 0
M  V30 48 H 41.271298 35.874836 67.218603 0
M  V30 49 H 42.190077 36.308694 65.791318 0
M  V30 50 H 40.161353 32.344852 64.483729 0
M  V30 51 H 43.040187 31.737746 63.710981 0
M  V30 52 H 38.097243 27.628719 56.576487 0
M  V30 53 H 36.845163 27.857774 57.767798 0
M  V30 54 H 42.887315 33.836768 67.202192 0
M  V30 55 H 36.945601 30.301488 58.859839 0
M  V30 56 H 36.550402 29.892081 56.688232 0
M  V30 57 H 44.086416 26.948662 65.348092 0
M  V30 58 H 43.197824 26.011208 64.147579 0
M  V30 59 H 44.227085 27.330176 63.633741 0
M  V30 60 H 37.061834 36.937579 61.270976 0
M  V30 61 H 38.329882 38.106717 60.871485 0
M  V30 62 H 38.269242 36.537753 60.040329 0
M  V30 63 H 37.181889 31.800424 55.279844 0
M  V30 64 H 39.832887 30.137749 58.540657 0
M  V30 65 H 38.295181 32.889794 57.235151 0
M  V30 66 H 39.863936 32.761092 56.436871 0
M  V30 67 H 38.606583 33.802883 55.778360 0
M  V30 68 H 42.351673 34.303139 63.749746 0
M  V30 69 H 41.572094 25.670374 65.365659 0
M  V30 70 H 41.827246 27.988435 63.569825 0
M  V30 71 H 43.366134 29.496999 65.733735 0
M  V30 72 H 43.635132 29.639831 64.005919 0
M  V30 73 H 39.182587 31.198458 63.065330 0
M  V30 74 H 40.433032 33.887207 66.083915 0
M  V30 75 H 40.370190 30.338217 53.821088 0
M  V30 76 H 39.090966 30.144018 52.626770 0
M  V30 77 H 38.419644 32.090717 61.010702 0
M  V30 78 H 40.008771 31.919877 60.244957 0
M  V30 79 H 39.576913 30.257130 56.327062 0
M  V30 80 H 39.151822 36.174635 66.122160 0
M  V30 81 H 40.045142 37.605193 65.732785 0
M  V30 82 H 37.932904 31.425678 58.188721 0
M  V30 83 H 38.120055 32.053723 53.407456 0
M  V30 END ATOM
M  V30 BEGIN BOND
M  V30 1 1 3 1
M  V30 2 1 11 8
M  V30 3 1 11 10
M  V30 4 1 12 5
M  V30 5 2 13 8
M  V30 6 2 14 2
M  V30 7 1 15 2
M  V30 8 1 17 12
M  V30 9 1 17 16
M  V30 10 1 21 10
M  V30 11 1 22 14
M  V30 12 1 23 7
M  V30 13 1 24 5
M  V30 14 1 24 6
M  V30 15 1 24 16
M  V30 16 1 25 23
M  V30 17 1 26 10
M  V30 18 1 26 14
M  V30 19 1 27 6
M  V30 20 2 27 20
M  V30 21 2 28 15
M  V30 22 1 28 19
M  V30 23 1 28 22
M  V30 24 1 29 4
M  V30 25 1 30 4
M  V30 26 1 30 18
M  V30 27 1 31 30
M  V30 28 1 32 21
M  V30 29 1 33 11
M  V30 30 1 33 31
M  V30 31 1 34 9
M  V30 32 1 34 13
M  V30 33 1 34 26
M  V30 34 1 35 27
M  V30 35 1 35 32
M  V30 36 1 36 3
M  V30 37 1 36 7
M  V30 38 1 37 6
M  V30 39 1 37 32
M  V30 40 1 38 3
M  V30 41 1 38 17
M  V30 42 1 38 23
M  V30 43 1 39 2
M  V30 44 1 39 9
M  V30 45 1 3 40 CFG=1
M  V30 46 1 41 4
M  V30 47 1 42 4
M  V30 48 1 43 5
M  V30 49 1 44 5
M  V30 50 1 6 45 CFG=1
M  V30 51 1 46 7
M  V30 52 1 47 8
M  V30 53 1 48 9
M  V30 54 1 49 9
M  V30 55 1 10 50 CFG=1
M  V30 56 1 11 51 CFG=3
M  V30 57 1 52 12
M  V30 58 1 53 12
M  V30 59 1 54 13
M  V30 60 1 55 16
M  V30 61 1 17 56 CFG=3
M  V30 62 1 57 18
M  V30 63 1 58 18
M  V30 64 1 59 18
M  V30 65 1 60 19
M  V30 66 1 61 19
M  V30 67 1 62 19
M  V30 68 1 23 63 CFG=3
M  V30 69 1 24 64 CFG=3
M  V30 70 1 65 25
M  V30 71 1 66 25
M  V30 72 1 67 25
M  V30 73 1 26 68 CFG=3
M  V30 74 1 69 29
M  V30 75 1 30 70 CFG=3
M  V30 76 1 71 31
M  V30 77 1 72 31
M  V30 78 1 32 73 CFG=1
M  V30 79 1 34 74 CFG=1
M  V30 80 1 75 36
M  V30 81 1 76 36
M  V30 82 1 77 37
M  V30 83 1 78 37
M  V30 84 1 38 79 CFG=1
M  V30 85 1 80 39
M  V30 86 1 81 39
M  V30 87 1 82 16
M  V30 88 1 83 7
M  V30 END BOND
M  V30 END CTAB
M  END
>  <i_epik_Tot_Q>  (1) 
2

>  <i_epik_Tot_abs_Q>  (1) 
2

>  <i_i_glide_confnum>  (1) 
972

>  <i_i_glide_lignum>  (1) 
141

>  <i_i_glide_posenum>  (1) 
288

>  <i_i_glide_rotatable_bonds>  (1) 
9

>  <i_lp_mmshare_version>  (1) 
72125

>  <i_m_source_file_index>  (1) 
64

>  <i_f3d_flags>  (1) 
0

>  <num_sample>  (1) 
100

>  <b_lp_Chiralities_Consistent>  (1) 
1

>  <r_epik_Charging_Adjusted_Penalty>  (1) 
0.080070908620723774

>  <r_epik_Ionization_Penalty>  (1) 
0.041568301575603359

>  <r_epik_Ionization_Penalty_Charging>  (1) 
0.040241786303222601

>  <r_epik_Ionization_Penalty_Neutral>  (1) 
0.0013265152723807572

>  <r_epik_State_Penalty>  (1) 
0.039829122317501166

>  <r_glide_ring_energy>  (1) 
0.79944395753776409

>  <r_i_docking_score>  (1) 
-7.2134122433173458

>  <r_i_glide_ecoul>  (1) 
-3.353943669318884

>  <r_i_glide_eff_state_penalty>  (1) 
0.039829122317501166

>  <r_i_glide_einternal>  (1) 
9.2249112934858353

>  <r_i_glide_emodel>  (1) 
-69.945580372231262

>  <r_i_glide_emodel_strain>  (1) 
0.18446443528344503

>  <r_i_glide_energy>  (1) 
-52.163850232161977

>  <r_i_glide_erotb>  (1) 
0.43483266289788453

>  <r_i_glide_esite>  (1) 
-0.068401083834010806

>  <r_i_glide_evdw>  (1) 
-48.809906562843089

>  <r_i_glide_gscore>  (1) 
-7.2532413656348469

>  <r_i_glide_gscore_strain>  (1) 
0

>  <r_i_glide_hbond>  (1) 
-0.049614269270168258

>  <r_i_glide_ligand_efficiency>  (1) 
-0.18495928829018835

>  <r_i_glide_ligand_efficiency_ln>  (1) 
-1.5467603498506031

>  <r_i_glide_ligand_efficiency_sa>  (1) 
-0.62723605494144297

>  <r_i_glide_lipo>  (1) 
-3.3410087449675117

>  <r_i_glide_metal>  (1) 
-0

>  <r_i_glide_rewards>  (1) 
-1.2854630519210528

>  <r_lp_Energy>  (1) 
21.205790999999998

>  <s_epik_Chemistry_Notes>  (1) 
This compound has an ester and may undergo hydrolysis at high or low pH. This compound contains an acetal/aminal-like group ( X-CH(R)-Y where X, Y are N, S, or O) that may be acid/base labile, releasing an aldehyde.

>  <s_epik_cmdline>  (1) 
J2VwaWtfcHl0aG9uJywgJy1waHQnLCAnMS4wJywgJy1waCcsICc3LjQnLCAnLXRuJywgJzgnLCAnLW1hJywgJzUwMCcsICctaW1hZScsICc8aW5maWxlLm1hZT4nLCAnLW9tYWUnLCAnPG91dGZpbGUubWFlPic=

>  <s_epik_input>  (1) 
RltDQEhdMVtDSDJdW05IXVtDQEhdKFtDSDNdKVtDQEhdMVtDQEhdMltDSDJdW0NIMl1bQ0BASF0oW05IXTIpW0NASF0zQyg9TylPW0NASF0oW0NIMl0zKU9bQ0BIXTRbQ0BIXShPW0NIMl1bQ0BASF0oW0NIM10pW0NIMl1bT0hdKVtDSF09W0NIXVtDQEBIXShbQ0gyXVtDSDJdNSlbQ0BASF00YyhjNTYpc2MobjYpW0NIM10=

>  <s_glide_docking_method>  (1) 
confgen

>  <s_i_glide_gridfile>  (1) 
gpcr_5ht2c_6bqh_protein_autoprepared_prepared

>  <s_lp_Force_Field>  (1) 
S-OPLS

>  <s_lp_Variant>  (1) 
DiffSBDD_63-3

>  <s_m_source_file>  (1) 
generated_GPCR_5HT2C_ligand_DiffSBDD_2026-06-23_prepared.sdf

>  <GenAI_Model>  (1) 
DiffSBDD

>  <Protein>  (1) 
GPCR_5HT2C

$$$$
DiffSBDD_64
     RDKit          3D

  0  0  0  0  0  0  0  0  0  0999 V3000
M  V30 BEGIN CTAB
M  V30 COUNTS 77 80 0 0 1
M  V30 BEGIN ATOM
M  V30 1 C 41.741156 33.215931 69.070674 0
M  V30 2 C 41.950963 31.488778 64.440990 0
M  V30 3 C 41.487241 32.837733 63.864502 0 CFG=2
M  V30 4 C 40.420551 34.036663 61.925406 0
M  V30 5 N 42.313751 31.521806 65.863248 0 CHG=1
M  V30 6 C 41.136802 35.996233 66.883497 0
M  V30 7 C 38.278047 32.579347 56.280663 0
M  V30 8 N 42.177682 32.307372 68.030376 0
M  V30 9 O 37.627908 33.548923 58.317007 0
M  V30 10 C 39.326602 34.792549 61.744170 0
M  V30 11 C 39.643867 30.137646 59.911194 0
M  V30 12 C 38.034384 28.393245 53.575869 0
M  V30 13 O 39.569971 29.790785 57.597035 0
M  V30 14 C 41.887186 32.473086 66.723788 0
M  V30 15 O 42.054163 32.975189 70.236888 0
M  V30 16 O 40.445198 35.129146 69.601318 0 CHG=-1
M  V30 17 C 38.360829 32.456451 57.808285 0 CFG=1
M  V30 18 C 41.173574 33.585084 66.253552 0
M  V30 19 C 40.984826 33.774638 64.936442 0
M  V30 20 C 37.738911 31.177779 58.413576 0
M  V30 21 C 40.365560 28.315739 56.005469 0
M  V30 22 C 39.139338 31.617946 55.449096 0
M  V30 23 C 38.681446 29.985135 58.693986 0 CFG=2
M  V30 24 F 39.245155 27.796089 50.167997 0
M  V30 25 C 40.440999 32.737400 62.724714 0 CFG=1
M  V30 26 C 39.667446 30.108678 52.979870 0
M  V30 27 N 40.971559 34.280630 68.691717 0
M  V30 28 C 39.143482 29.164854 56.395761 0 CFG=2
M  V30 29 C 39.456548 31.359066 60.820070 0
M  V30 30 C 37.802359 28.757374 58.967256 0
M  V30 31 C 39.821235 29.518154 51.712856 0
M  V30 32 C 39.089476 28.366630 51.380281 0
M  V30 33 C 38.198601 27.805491 52.309945 0
M  V30 34 C 40.700373 34.560974 67.278113 0 CFG=1
M  V30 35 C 40.644358 31.545403 61.769358 0
M  V30 36 C 38.609092 30.160092 55.316988 0 CFG=2
M  V30 37 C 38.770763 29.545982 53.920293 0
M  V30 38 H 41.123095 30.781581 64.397561 0
M  V30 39 H 42.764346 31.062245 63.852160 0
M  V30 40 H 42.378235 33.310364 63.448342 0
M  V30 41 H 41.357341 34.347051 61.486328 0
M  V30 42 H 40.544915 36.368699 66.047332 0
M  V30 43 H 41.002712 36.718872 67.688765 0
M  V30 44 H 42.181050 36.032010 66.567731 0
M  V30 45 H 37.245137 32.516537 55.943027 0
M  V30 46 H 38.592477 33.591450 56.018516 0
M  V30 47 H 42.724798 31.488455 68.239317 0
M  V30 48 H 36.745861 33.472551 57.974760 0
M  V30 49 H 39.370893 35.704790 61.167039 0
M  V30 50 H 38.376313 34.509092 62.167348 0
M  V30 51 H 39.591185 29.249212 60.543426 0
M  V30 52 H 40.675247 30.115494 59.568821 0
M  V30 53 H 37.353418 27.952941 54.289641 0
M  V30 54 H 39.391829 32.588023 58.115562 0
M  V30 55 H 40.455676 34.652098 64.596571 0
M  V30 56 H 37.227769 31.420056 59.345970 0
M  V30 57 H 36.938308 30.833758 57.767353 0
M  V30 58 H 40.158384 27.656361 55.164061 0
M  V30 59 H 41.224993 28.937833 55.767877 0
M  V30 60 H 40.661949 27.669012 56.831895 0
M  V30 61 H 39.086948 32.103983 54.477315 0
M  V30 62 H 40.187186 31.642014 55.745701 0
M  V30 63 H 39.462835 32.602521 63.190932 0
M  V30 64 H 40.248409 30.981258 53.230300 0
M  V30 65 H 38.368112 28.420635 56.556918 0
M  V30 66 H 39.354597 32.268786 60.238534 0
M  V30 67 H 38.531988 31.250840 61.388271 0
M  V30 68 H 37.244930 28.937779 59.880468 0
M  V30 69 H 37.052977 28.575740 58.195941 0
M  V30 70 H 38.394025 27.849700 59.095468 0
M  V30 71 H 40.508460 29.945529 50.998364 0
M  V30 72 H 37.645137 26.920999 52.052780 0
M  V30 73 H 39.611951 34.539669 67.211978 0
M  V30 74 H 40.759027 30.608968 62.311780 0
M  V30 75 H 41.560643 31.690198 61.196026 0
M  V30 76 H 37.529469 30.227706 55.460597 0
M  V30 77 H 42.852856 30.744180 66.216950 0
M  V30 END ATOM
M  V30 BEGIN BOND
M  V30 1 1 3 2
M  V30 2 1 5 2
M  V30 3 1 8 1
M  V30 4 2 10 4
M  V30 5 2 14 5
M  V30 6 1 14 8
M  V30 7 2 15 1
M  V30 8 1 17 7
M  V30 9 1 17 9
M  V30 10 1 18 14
M  V30 11 1 19 3
M  V30 12 2 19 18
M  V30 13 1 20 17
M  V30 14 1 22 7
M  V30 15 1 23 11 CFG=1
M  V30 16 1 23 13
M  V30 17 1 23 20
M  V30 18 1 25 3
M  V30 19 1 25 4
M  V30 20 1 27 1
M  V30 21 1 27 16
M  V30 22 1 28 13
M  V30 23 1 28 21
M  V30 24 1 29 11
M  V30 25 1 30 23
M  V30 26 2 31 26
M  V30 27 1 32 24
M  V30 28 1 32 31
M  V30 29 1 33 12
M  V30 30 2 33 32
M  V30 31 1 34 6
M  V30 32 1 34 18
M  V30 33 1 34 27
M  V30 34 1 35 25
M  V30 35 1 35 29
M  V30 36 1 36 22
M  V30 37 1 36 28
M  V30 38 2 37 12
M  V30 39 1 37 26
M  V30 40 1 37 36
M  V30 41 1 38 2
M  V30 42 1 39 2
M  V30 43 1 3 40 CFG=3
M  V30 44 1 41 4
M  V30 45 1 42 6
M  V30 46 1 43 6
M  V30 47 1 44 6
M  V30 48 1 45 7
M  V30 49 1 46 7
M  V30 50 1 47 8
M  V30 51 1 48 9
M  V30 52 1 49 10
M  V30 53 1 50 10
M  V30 54 1 51 11
M  V30 55 1 52 11
M  V30 56 1 53 12
M  V30 57 1 17 54 CFG=3
M  V30 58 1 55 19
M  V30 59 1 56 20
M  V30 60 1 57 20
M  V30 61 1 58 21
M  V30 62 1 59 21
M  V30 63 1 60 21
M  V30 64 1 61 22
M  V30 65 1 62 22
M  V30 66 1 25 63 CFG=1
M  V30 67 1 64 26
M  V30 68 1 28 65 CFG=1
M  V30 69 1 66 29
M  V30 70 1 67 29
M  V30 71 1 68 30
M  V30 72 1 69 30
M  V30 73 1 70 30
M  V30 74 1 71 31
M  V30 75 1 72 33
M  V30 76 1 34 73 CFG=1
M  V30 77 1 74 35
M  V30 78 1 75 35
M  V30 79 1 36 76 CFG=1
M  V30 80 1 77 5
M  V30 END BOND
M  V30 END CTAB
M  END
>  <i_epik_Tot_Q>  (1) 
0

>  <i_epik_Tot_abs_Q>  (1) 
2

>  <i_i_glide_confnum>  (1) 
529

>  <i_i_glide_lignum>  (1) 
143

>  <i_i_glide_posenum>  (1) 
393

>  <i_i_glide_rotatable_bonds>  (1) 
8

>  <i_lp_mmshare_version>  (1) 
72125

>  <i_m_source_file_index>  (1) 
65

>  <i_f3d_flags>  (1) 
0

>  <num_sample>  (1) 
100

>  <b_lp_Chiralities_Consistent>  (1) 
1

>  <r_epik_Charging_Adjusted_Penalty>  (1) 
0.059234021973178383

>  <r_epik_Ionization_Penalty>  (1) 
0.05923416388853827

>  <r_epik_Ionization_Penalty_Charging>  (1) 
0.059234021973178383

>  <r_epik_Ionization_Penalty_Neutral>  (1) 
1.4191535988443934e-07

>  <r_epik_State_Penalty>  (1) 
-0

>  <r_glide_ring_energy>  (1) 
0.4351030857825629

>  <r_i_docking_score>  (1) 
-7.2057315135793463

>  <r_i_glide_ecoul>  (1) 
-3.2634147927976831

>  <r_i_glide_eff_state_penalty>  (1) 
-0

>  <r_i_glide_einternal>  (1) 
17.372995091576211

>  <r_i_glide_emodel>  (1) 
-41.664097503669332

>  <r_i_glide_emodel_strain>  (1) 
5.4227648558382668

>  <r_i_glide_energy>  (1) 
-42.478745197426974

>  <r_i_glide_erotb>  (1) 
0.54408064829906078

>  <r_i_glide_esite>  (1) 
0

>  <r_i_glide_evdw>  (1) 
-39.215330404629292

>  <r_i_glide_gscore>  (1) 
-7.2057315135793463

>  <r_i_glide_gscore_strain>  (1) 
0.35569121395956671

>  <r_i_glide_hbond>  (1) 
-0.017379493029907378

>  <r_i_glide_ligand_efficiency>  (1) 
-0.19474950036700936

>  <r_i_glide_ligand_efficiency_ln>  (1) 
-1.5627542389812519

>  <r_i_glide_ligand_efficiency_sa>  (1) 
-0.64894854072008024

>  <r_i_glide_lipo>  (1) 
-4.0187931383336037

>  <r_i_glide_metal>  (1) 
-0

>  <r_i_glide_rewards>  (1) 
-1.6190520053233457

>  <r_lp_Energy>  (1) 
57.935866999999995

>  <r_lp_tautomer_probability>  (1) 
1

>  <s_epik_Chemistry_Notes>  (1) 
This compound has an imine and may undergo hydrolysis.

>  <s_epik_cmdline>  (1) 
J2VwaWtfcHl0aG9uJywgJy1waHQnLCAnMS4wJywgJy1waCcsICc3LjQnLCAnLXRuJywgJzgnLCAnLW1hJywgJzUwMCcsICctaW1hZScsICc8aW5maWxlLm1hZT4nLCAnLW9tYWUnLCAnPG91dGZpbGUubWFlPic=

>  <s_epik_input>  (1) 
W05IXTFDKD1PKU4oW09IXSlbQ0BASF0oW0NIM10pQyhDMTIpPVtDSF1bQ0BASF0oW0NIMl1OPTIpW0NAQEhdKFtDSF09W0NIMl0pW0NIMl1bQ0gyXVtDSDJdW0NAXTMoW0NIM10pT1tDQEhdKFtDSDNdKVtDQEBIXShbQ0gyXVtDSDJdW0NAQEhdKFtPSF0pW0NIMl0zKWMoW2NIXVtjSF00KVtjSF1bY0hdYzRG

>  <s_glide_docking_method>  (1) 
confgen

>  <s_i_glide_gridfile>  (1) 
gpcr_5ht2c_6bqh_protein_autoprepared_prepared

>  <s_lp_Force_Field>  (1) 
S-OPLS

>  <s_lp_Variant>  (1) 
DiffSBDD_64-1

>  <s_m_source_file>  (1) 
generated_GPCR_5HT2C_ligand_DiffSBDD_2026-06-23_prepared.sdf

>  <GenAI_Model>  (1) 
DiffSBDD

>  <Protein>  (1) 
GPCR_5HT2C

$$$$
DiffSBDD_75
     RDKit          3D

  0  0  0  0  0  0  0  0  0  0999 V3000
M  V30 BEGIN CTAB
M  V30 COUNTS 77 78 0 0 1
M  V30 BEGIN ATOM
M  V30 1 C 38.761425 30.584586 58.520059 0
M  V30 2 C 38.631009 31.941765 55.088000 0
M  V30 3 O 36.367053 34.266303 61.404075 0
M  V30 4 C 41.557947 28.298307 59.070175 0
M  V30 5 C 39.481953 33.155727 61.408914 0 CFG=2
M  V30 6 C 38.666272 26.003190 55.414674 0
M  V30 7 C 37.346404 34.372196 60.393179 0 CFG=2
M  V30 8 C 37.726741 25.737673 54.413493 0
M  V30 9 O 41.803595 32.591558 61.767308 0
M  V30 10 C 38.955005 35.631124 62.047994 0 CFG=1
M  V30 11 O 36.045114 22.787859 55.767776 0
M  V30 12 S 38.277475 33.281361 58.029272 0
M  V30 13 C 42.065637 27.409123 57.927284 0
M  V30 14 C 36.882954 23.854794 55.682249 0
M  V30 15 C 37.118347 33.206172 59.411419 0
M  V30 16 C 39.627710 27.145463 55.244143 0
M  V30 17 C 38.700501 25.206883 56.578999 0
M  V30 18 O 41.216887 36.215922 61.367783 0
M  V30 19 C 38.305193 36.963680 61.624527 0
M  V30 20 C 38.793545 34.498176 60.990403 0 CFG=1
M  V30 21 O 43.371846 26.937800 58.167782 0
M  V30 22 O 39.202856 31.462265 56.298034 0
M  V30 23 O 37.663559 27.924782 57.585475 0
M  V30 24 C 39.535174 28.614339 60.445247 0
M  V30 25 N 40.075301 28.424672 59.076063 0 CFG=1 CHG=1
M  V30 26 C 38.640165 28.522458 57.136422 0
M  V30 27 C 36.845120 24.661991 54.549589 0
M  V30 28 C 38.987003 28.472797 55.648424 0
M  V30 29 C 39.551628 29.350870 58.022671 0 CFG=1
M  V30 30 C 37.798552 24.137793 56.718368 0
M  V30 31 C 41.040190 34.508757 63.011616 0
M  V30 32 C 38.328763 31.578108 57.411753 0 CFG=1
M  V30 33 C 38.693477 32.261034 62.366950 0
M  V30 34 C 40.433118 35.806104 62.463972 0 CFG=2
M  V30 35 C 40.871292 33.350586 62.030510 0
M  V30 36 H 37.855843 30.265021 59.037402 0
M  V30 37 H 39.337306 31.088768 59.278272 0
M  V30 38 H 39.340882 31.807949 54.272122 0
M  V30 39 H 37.725862 31.388404 54.832292 0
M  V30 40 H 38.382050 33.001832 55.148027 0
M  V30 41 H 35.511128 34.308488 61.002723 0
M  V30 42 H 42.023378 29.282604 59.012249 0
M  V30 43 H 41.870991 27.844957 60.010760 0
M  V30 44 H 37.121544 35.290985 59.849646 0
M  V30 45 H 37.691550 26.352754 53.525211 0
M  V30 46 H 42.094315 34.647233 63.244260 0
M  V30 47 H 38.445088 35.337709 62.959796 0
M  V30 48 H 36.066532 22.340163 56.601070 0
M  V30 49 H 41.422755 26.537759 57.823657 0
M  V30 50 H 42.063041 27.954263 56.984017 0
M  V30 51 H 36.107817 33.233140 59.000408 0
M  V30 52 H 37.211727 32.255566 59.928996 0
M  V30 53 H 40.547051 26.940705 55.780425 0
M  V30 54 H 39.909666 27.187630 54.192489 0
M  V30 55 H 39.416600 25.414672 57.359332 0
M  V30 56 H 40.960711 37.089621 61.115132 0
M  V30 57 H 38.445124 37.183291 60.567677 0
M  V30 58 H 37.228259 36.935535 61.793267 0
M  V30 59 H 38.701607 37.797643 62.200289 0
M  V30 60 H 39.391031 34.836721 60.144321 0
M  V30 61 H 43.512994 26.187178 57.599277 0
M  V30 62 H 39.883572 29.548263 60.885482 0
M  V30 63 H 38.445563 28.607421 60.439641 0
M  V30 64 H 39.852690 27.802027 61.100225 0
M  V30 65 H 36.136229 24.452089 53.766522 0
M  V30 66 H 39.675981 29.280301 55.405580 0
M  V30 67 H 38.081371 28.649125 55.067490 0
M  V30 68 H 40.398026 29.695127 57.430130 0
M  V30 69 H 37.824955 23.520025 57.605267 0
M  V30 70 H 40.548251 34.236332 63.945126 0
M  V30 71 H 39.652148 32.606609 60.493159 0
M  V30 72 H 37.329453 31.278329 57.103270 0
M  V30 73 H 39.065698 31.236518 62.352980 0
M  V30 74 H 38.845137 32.640656 63.367755 0
M  V30 75 H 37.626015 32.225052 62.168125 0
M  V30 76 H 40.511022 36.573235 63.236040 0
M  V30 77 H 39.728569 27.514374 58.804799 0
M  V30 END ATOM
M  V30 BEGIN BOND
M  V30 1 1 7 3
M  V30 2 1 8 6
M  V30 3 1 13 4
M  V30 4 1 14 11
M  V30 5 1 15 7
M  V30 6 1 15 12
M  V30 7 1 16 6
M  V30 8 2 17 6
M  V30 9 1 19 10
M  V30 10 1 20 5
M  V30 11 1 20 7
M  V30 12 1 20 10
M  V30 13 1 21 13
M  V30 14 1 22 2
M  V30 15 1 25 4
M  V30 16 1 25 24
M  V30 17 2 26 23
M  V30 18 2 27 8
M  V30 19 1 27 14
M  V30 20 1 28 16
M  V30 21 1 28 26
M  V30 22 1 29 1
M  V30 23 1 29 25
M  V30 24 1 29 26
M  V30 25 2 30 14
M  V30 26 1 30 17
M  V30 27 1 32 1
M  V30 28 1 32 12
M  V30 29 1 32 22
M  V30 30 1 33 5
M  V30 31 1 34 10
M  V30 32 1 34 18
M  V30 33 1 34 31
M  V30 34 1 35 5
M  V30 35 2 35 9
M  V30 36 1 35 31
M  V30 37 1 36 1
M  V30 38 1 37 1
M  V30 39 1 38 2
M  V30 40 1 39 2
M  V30 41 1 40 2
M  V30 42 1 41 3
M  V30 43 1 42 4
M  V30 44 1 43 4
M  V30 45 1 7 44 CFG=3
M  V30 46 1 45 8
M  V30 47 1 46 31
M  V30 48 1 10 47 CFG=1
M  V30 49 1 48 11
M  V30 50 1 49 13
M  V30 51 1 50 13
M  V30 52 1 51 15
M  V30 53 1 52 15
M  V30 54 1 53 16
M  V30 55 1 54 16
M  V30 56 1 55 17
M  V30 57 1 56 18
M  V30 58 1 57 19
M  V30 59 1 58 19
M  V30 60 1 59 19
M  V30 61 1 20 60 CFG=3
M  V30 62 1 61 21
M  V30 63 1 62 24
M  V30 64 1 63 24
M  V30 65 1 64 24
M  V30 66 1 65 27
M  V30 67 1 66 28
M  V30 68 1 67 28
M  V30 69 1 29 68 CFG=3
M  V30 70 1 69 30
M  V30 71 1 70 31
M  V30 72 1 5 71 CFG=3
M  V30 73 1 32 72 CFG=3
M  V30 74 1 73 33
M  V30 75 1 74 33
M  V30 76 1 75 33
M  V30 77 1 34 76 CFG=1
M  V30 78 1 25 77 CFG=3
M  V30 END BOND
M  V30 END CTAB
M  END
>  <i_epik_Tot_Q>  (1) 
1

>  <i_epik_Tot_abs_Q>  (1) 
1

>  <i_i_glide_confnum>  (1) 
6116

>  <i_i_glide_lignum>  (1) 
171

>  <i_i_glide_posenum>  (1) 
385

>  <i_i_glide_rotatable_bonds>  (1) 
18

>  <i_lp_mmshare_version>  (1) 
72125

>  <i_m_source_file_index>  (1) 
76

>  <i_f3d_flags>  (1) 
0

>  <num_sample>  (1) 
100

>  <b_lp_Chiralities_Consistent>  (1) 
1

>  <r_epik_Charging_Adjusted_Penalty>  (1) 
0.52789471212939676

>  <r_epik_Ionization_Penalty>  (1) 
0.26592108790513191

>  <r_epik_Ionization_Penalty_Charging>  (1) 
0.26394735606469838

>  <r_epik_Ionization_Penalty_Neutral>  (1) 
0.0019737318404335234

>  <r_epik_State_Penalty>  (1) 
0.26394735606469838

>  <r_glide_ring_energy>  (1) 
0

>  <r_i_docking_score>  (1) 
-7.2048025438632886

>  <r_i_glide_ecoul>  (1) 
-6.9245267103357726

>  <r_i_glide_eff_state_penalty>  (1) 
0.26394735606469838

>  <r_i_glide_einternal>  (1) 
14.225409724212689

>  <r_i_glide_emodel>  (1) 
-66.432149119258057

>  <r_i_glide_emodel_strain>  (1) 
2.786779637794865

>  <r_i_glide_energy>  (1) 
-47.014017168899514

>  <r_i_glide_erotb>  (1) 
1.0139394581015995

>  <r_i_glide_esite>  (1) 
0

>  <r_i_glide_evdw>  (1) 
-40.089490458563745

>  <r_i_glide_gscore>  (1) 
-7.4687498999279871

>  <r_i_glide_gscore_strain>  (1) 
0

>  <r_i_glide_hbond>  (1) 
-0.29256825144639698

>  <r_i_glide_ligand_efficiency>  (1) 
-0.20585150125323681

>  <r_i_glide_ligand_efficiency_ln>  (1) 
-1.5816140603551625

>  <r_i_glide_ligand_efficiency_sa>  (1) 
-0.67335391065120731

>  <r_i_glide_lipo>  (1) 
-4.3929091207352808

>  <r_i_glide_metal>  (1) 
-0

>  <r_i_glide_rewards>  (1) 
-0.75405845636935509

>  <r_lp_Energy>  (1) 
30.750938999999999

>  <r_lp_tautomer_probability>  (1) 
0.99989998499911525

>  <s_epik_Chemistry_Notes>  (1) 
This compound contains an acetal/aminal-like group ( X-CH(R)-Y where X, Y are N, S, or O) that may be acid/base labile, releasing an aldehyde.

>  <s_epik_cmdline>  (1) 
J2VwaWtfcHl0aG9uJywgJy1waHQnLCAnMS4wJywgJy1waCcsICc3LjQnLCAnLXRuJywgJzgnLCAnLW1hJywgJzUwMCcsICctaW1hZScsICc8aW5maWxlLm1hZT4nLCAnLW9tYWUnLCAnPG91dGZpbGUubWFlPic=

>  <s_epik_input>  (1) 
W2NIXTFbY0hdYyhbT0hdKVtjSF1bY0hdYzFbQ0gyXVtDSDJdQyg9TylbQ0BIXShOKFtDSDNdKVtDSDJdW0NIMl1bT0hdKVtDSDJdW0NASF0oT1tDSDNdKVNbQ0gyXVtDQEBIXShbT0hdKVtDQEhdMltDQEBIXShbQ0gzXSlbQ0BIXShbT0hdKVtDSDJdQyhbT0hdKT1DMltDSDNd

>  <s_glide_docking_method>  (1) 
confgen

>  <s_i_glide_gridfile>  (1) 
gpcr_5ht2c_6bqh_protein_autoprepared_prepared

>  <s_lp_Force_Field>  (1) 
S-OPLS

>  <s_lp_Variant>  (1) 
DiffSBDD_75-8

>  <s_m_source_file>  (1) 
generated_GPCR_5HT2C_ligand_DiffSBDD_2026-06-23_prepared.sdf

>  <GenAI_Model>  (1) 
DiffSBDD

>  <Protein>  (1) 
GPCR_5HT2C

$$$$
DiffSBDD_33
     RDKit          3D

  0  0  0  0  0  0  0  0  0  0999 V3000
M  V30 BEGIN CTAB
M  V30 COUNTS 36 39 0 0 1
M  V30 BEGIN ATOM
M  V30 1 O 39.866430 25.840223 57.752126 0
M  V30 2 C 37.558969 25.564315 54.867817 0
M  V30 3 C 41.455315 30.379816 49.970163 0
M  V30 4 C 39.768762 28.872351 51.145207 0
M  V30 5 C 38.483607 26.060459 57.577856 0 CFG=2
M  V30 6 O 40.444071 30.876275 52.097893 0
M  V30 7 C 38.956367 28.463701 55.669220 0 CFG=2
M  V30 8 C 37.778096 24.743074 57.121341 0
M  V30 9 N 38.342488 27.754671 54.559137 0
M  V30 10 C 39.647578 30.236895 53.093028 0
M  V30 11 C 38.998026 28.997700 52.450131 0 CFG=2
M  V30 12 F 39.245137 30.951562 50.167760 0
M  V30 13 C 37.968282 26.769303 55.237036 0
M  V30 14 C 38.210773 27.199651 56.563669 0 CFG=1
M  V30 15 C 38.209137 28.657130 56.970398 0
M  V30 16 C 40.198578 30.303579 50.826339 0 CFG=1
M  V30 17 C 39.027105 27.684168 53.270011 0
M  V30 18 C 37.357964 24.538418 55.848458 0
M  V30 19 H 40.267294 25.734452 56.902017 0
M  V30 20 H 37.424821 25.337754 53.820815 0
M  V30 21 H 42.342531 30.137755 50.552779 0
M  V30 22 H 41.377313 29.737754 49.095382 0
M  V30 23 H 41.603587 31.371762 49.581651 0
M  V30 24 H 40.654919 28.256703 51.301619 0
M  V30 25 H 39.184972 28.416889 50.344174 0
M  V30 26 H 38.061176 26.351981 58.539706 0
M  V30 27 H 40.044764 28.423544 55.655396 0
M  V30 28 H 37.645150 23.972051 57.866815 0
M  V30 29 H 38.889200 30.925747 53.466339 0
M  V30 30 H 40.301400 29.989779 53.926974 0
M  V30 31 H 37.962871 29.240644 52.211846 0
M  V30 32 H 38.807388 28.935680 57.835331 0
M  V30 33 H 37.256064 29.180214 56.915585 0
M  V30 34 H 40.045128 27.337755 53.434751 0
M  V30 35 H 38.551785 26.910863 52.666038 0
M  V30 36 H 36.898870 23.601051 55.570124 0
M  V30 END ATOM
M  V30 BEGIN BOND
M  V30 1 1 5 1
M  V30 2 1 8 5
M  V30 3 1 9 7
M  V30 4 1 10 6
M  V30 5 1 11 4
M  V30 6 1 11 10
M  V30 7 2 13 2
M  V30 8 1 13 9
M  V30 9 1 14 5
M  V30 10 1 14 7
M  V30 11 1 14 13
M  V30 12 1 15 7
M  V30 13 1 14 15 CFG=1
M  V30 14 1 16 3
M  V30 15 1 16 4
M  V30 16 1 16 6
M  V30 17 1 16 12 CFG=3
M  V30 18 1 17 9
M  V30 19 1 17 11
M  V30 20 1 18 2
M  V30 21 2 18 8
M  V30 22 1 19 1
M  V30 23 1 20 2
M  V30 24 1 21 3
M  V30 25 1 22 3
M  V30 26 1 23 3
M  V30 27 1 24 4
M  V30 28 1 25 4
M  V30 29 1 5 26 CFG=1
M  V30 30 1 7 27 CFG=3
M  V30 31 1 28 8
M  V30 32 1 29 10
M  V30 33 1 30 10
M  V30 34 1 11 31 CFG=3
M  V30 35 1 32 15
M  V30 36 1 33 15
M  V30 37 1 34 17
M  V30 38 1 35 17
M  V30 39 1 36 18
M  V30 END BOND
M  V30 END CTAB
M  END
>  <i_epik_Tot_Q>  (1) 
0

>  <i_epik_Tot_abs_Q>  (1) 
0

>  <i_i_glide_confnum>  (1) 
28

>  <i_i_glide_lignum>  (1) 
77

>  <i_i_glide_posenum>  (1) 
146

>  <i_i_glide_rotatable_bonds>  (1) 
3

>  <i_lp_mmshare_version>  (1) 
72125

>  <i_m_source_file_index>  (1) 
34

>  <i_f3d_flags>  (1) 
0

>  <num_sample>  (1) 
100

>  <b_lp_Chiralities_Consistent>  (1) 
1

>  <r_epik_Charging_Adjusted_Penalty>  (1) 
0

>  <r_epik_Ionization_Penalty>  (1) 
1.6271736615724652e-05

>  <r_epik_Ionization_Penalty_Charging>  (1) 
0

>  <r_epik_Ionization_Penalty_Neutral>  (1) 
1.6271736615724652e-05

>  <r_epik_State_Penalty>  (1) 
-0

>  <r_glide_ring_energy>  (1) 
0

>  <r_i_docking_score>  (1) 
-7.2001370273706398

>  <r_i_glide_ecoul>  (1) 
0.098336741853312121

>  <r_i_glide_eff_state_penalty>  (1) 
-0

>  <r_i_glide_einternal>  (1) 
2.9417859953797985

>  <r_i_glide_emodel>  (1) 
-36.917991556707925

>  <r_i_glide_emodel_strain>  (1) 
0.11671089895639852

>  <r_i_glide_energy>  (1) 
-26.72090354106556

>  <r_i_glide_erotb>  (1) 
0.55502837294367569

>  <r_i_glide_esite>  (1) 
0

>  <r_i_glide_evdw>  (1) 
-26.819240282918873

>  <r_i_glide_gscore>  (1) 
-7.2001370273706398

>  <r_i_glide_gscore_strain>  (1) 
0

>  <r_i_glide_hbond>  (1) 
0

>  <r_i_glide_ligand_efficiency>  (1) 
-0.4000076126317022

>  <r_i_glide_ligand_efficiency_ln>  (1) 
-1.8507580959986021

>  <r_i_glide_ligand_efficiency_sa>  (1) 
-1.0483165084225796

>  <r_i_glide_lipo>  (1) 
-3.5066281558122614

>  <r_i_glide_metal>  (1) 
-0

>  <r_i_glide_rewards>  (1) 
-2.9223257416341069

>  <r_lp_Energy>  (1) 
31.382234999999998

>  <r_lp_tautomer_probability>  (1) 
1

>  <s_epik_cmdline>  (1) 
J2VwaWtfcHl0aG9uJywgJy1waHQnLCAnMS4wJywgJy1waCcsICc3LjQnLCAnLXRuJywgJzgnLCAnLW1hJywgJzUwMCcsICctaW1hZScsICc8aW5maWxlLm1hZT4nLCAnLW9tYWUnLCAnPG91dGZpbGUubWFlPic=

>  <s_epik_input>  (1) 
W09IXVtDQEBIXTFbQ0hdPVtDSF1bQ0hdPUMyTihbQ0hdKEMxMjMpW0NIMl0zKVtDSDJdW0NAQEhdKFtDSDJdTzQpW0NIMl1bQ0BdNChGKVtDSDNd

>  <s_glide_docking_method>  (1) 
confgen

>  <s_i_glide_gridfile>  (1) 
gpcr_5ht2c_6bqh_protein_autoprepared_prepared

>  <s_lp_Force_Field>  (1) 
S-OPLS

>  <s_lp_Variant>  (1) 
DiffSBDD_33-1

>  <s_m_source_file>  (1) 
generated_GPCR_5HT2C_ligand_DiffSBDD_2026-06-23_prepared.sdf

>  <GenAI_Model>  (1) 
DiffSBDD

>  <Protein>  (1) 
GPCR_5HT2C

$$$$
DiffSBDD_46
     RDKit          3D

  0  0  0  0  0  0  0  0  0  0999 V3000
M  V30 BEGIN CTAB
M  V30 COUNTS 55 56 0 0 1
M  V30 BEGIN ATOM
M  V30 1 C 39.646848 32.095169 55.533621 0
M  V30 2 C 40.579669 33.614945 61.549322 0
M  V30 3 C 39.529590 30.212571 53.440995 0
M  V30 4 O 37.244735 31.177803 61.767763 0
M  V30 5 C 38.804824 29.966215 54.638009 0
M  V30 6 C 35.574541 33.134998 59.927723 0
M  V30 7 C 36.185310 29.956757 59.187197 0
M  V30 8 P 38.192883 31.363448 60.654622 0
M  V30 9 C 37.963055 28.826130 54.709057 0
M  V30 10 C 38.211080 33.235976 60.272739 0 CFG=1
M  V30 11 C 39.406173 29.337757 52.340431 0
M  V30 12 O 38.504788 28.759709 57.951858 0
M  V30 13 O 38.445129 27.357835 51.367740 0
M  V30 14 N 36.848108 35.143891 59.367784 0 CHG=1
M  V30 15 C 40.210646 34.887352 60.835033 0
M  V30 16 C 37.894911 30.789085 56.785018 0
M  V30 17 C 37.845311 27.958038 53.608196 0
M  V30 18 C 40.182408 29.614658 51.064740 0
M  V30 19 C 36.818054 33.963230 60.265074 0 CFG=1
M  V30 20 S 37.244868 36.623542 60.153875 0 CHG=-1
M  V30 21 O 39.584426 30.887342 60.818571 0 CHG=-1
M  V30 22 N 37.536527 30.525110 59.217169 0
M  V30 23 C 38.403451 30.164768 58.093360 0 CFG=1
M  V30 24 C 38.563867 28.209109 52.427465 0
M  V30 25 C 39.121101 33.942850 61.289577 0
M  V30 26 N 38.931700 30.848428 55.754225 0
M  V30 27 H 40.702452 31.884981 55.367578 0
M  V30 28 H 39.231556 32.641254 54.686860 0
M  V30 29 H 39.585724 32.740141 56.410921 0
M  V30 30 H 40.933110 33.705968 62.574591 0
M  V30 31 H 41.072915 32.843469 60.967797 0
M  V30 32 H 40.178307 31.069908 53.363270 0
M  V30 33 H 35.364445 32.370886 60.673449 0
M  V30 34 H 34.686196 33.765186 59.880574 0
M  V30 35 H 35.685383 32.653079 58.967765 0
M  V30 36 H 35.513455 30.537658 58.567750 0
M  V30 37 H 36.176410 28.937774 58.806394 0
M  V30 38 H 35.736026 29.940099 60.167760 0
M  V30 39 H 37.412363 28.610123 55.606258 0
M  V30 40 H 38.675626 33.328053 59.290691 0
M  V30 41 H 39.316737 28.577327 57.505410 0
M  V30 42 H 37.628611 26.866955 51.368790 0
M  V30 43 H 37.488682 34.937130 58.614832 0
M  V30 44 H 40.408437 34.939664 59.768377 0
M  V30 45 H 40.321769 35.823563 61.377897 0
M  V30 46 H 37.645141 31.827977 57.003867 0
M  V30 47 H 36.948897 30.362313 56.457233 0
M  V30 48 H 37.202411 27.092845 53.674088 0
M  V30 49 H 40.558361 30.638553 51.042753 0
M  V30 50 H 41.032286 28.937936 50.994612 0
M  V30 51 H 39.554601 29.470930 50.185118 0
M  V30 52 H 36.606848 34.321878 61.273327 0
M  V30 53 H 39.407049 30.537767 58.290744 0
M  V30 54 H 38.597205 34.218610 62.200010 0
M  V30 55 H 35.934922 35.212399 58.940801 0
M  V30 END ATOM
M  V30 BEGIN BOND
M  V30 1 2 5 3
M  V30 2 2 8 4
M  V30 3 1 9 5
M  V30 4 1 10 8
M  V30 5 1 11 3
M  V30 6 1 15 2
M  V30 7 2 17 9
M  V30 8 1 18 11
M  V30 9 1 19 6
M  V30 10 1 19 10
M  V30 11 1 19 14
M  V30 12 1 20 14
M  V30 13 1 21 8
M  V30 14 1 22 7
M  V30 15 1 22 8
M  V30 16 1 23 12
M  V30 17 1 23 16
M  V30 18 1 23 22
M  V30 19 2 24 11
M  V30 20 1 24 13
M  V30 21 1 24 17
M  V30 22 1 25 2
M  V30 23 1 25 10
M  V30 24 1 25 15
M  V30 25 1 26 1
M  V30 26 1 26 5
M  V30 27 1 26 16
M  V30 28 1 27 1
M  V30 29 1 28 1
M  V30 30 1 29 1
M  V30 31 1 30 2
M  V30 32 1 31 2
M  V30 33 1 32 3
M  V30 34 1 33 6
M  V30 35 1 34 6
M  V30 36 1 35 6
M  V30 37 1 36 7
M  V30 38 1 37 7
M  V30 39 1 38 7
M  V30 40 1 39 9
M  V30 41 1 10 40 CFG=3
M  V30 42 1 41 12
M  V30 43 1 42 13
M  V30 44 1 43 14
M  V30 45 1 44 15
M  V30 46 1 45 15
M  V30 47 1 46 16
M  V30 48 1 47 16
M  V30 49 1 48 17
M  V30 50 1 49 18
M  V30 51 1 50 18
M  V30 52 1 51 18
M  V30 53 1 19 52 CFG=1
M  V30 54 1 23 53 CFG=1
M  V30 55 1 54 25
M  V30 56 1 55 14
M  V30 END BOND
M  V30 END CTAB
M  END
>  <i_epik_Tot_Q>  (1) 
-1

>  <i_epik_Tot_abs_Q>  (1) 
3

>  <i_i_glide_confnum>  (1) 
206

>  <i_i_glide_lignum>  (1) 
98

>  <i_i_glide_posenum>  (1) 
63

>  <i_i_glide_rotatable_bonds>  (1) 
11

>  <i_lp_mmshare_version>  (1) 
72125

>  <i_m_source_file_index>  (1) 
47

>  <i_f3d_flags>  (1) 
0

>  <num_sample>  (1) 
100

>  <b_lp_Chiralities_Consistent>  (1) 
1

>  <r_epik_Charging_Adjusted_Penalty>  (1) 
3.3730423186562179e-05

>  <r_epik_Ionization_Penalty>  (1) 
0.037967810470841745

>  <r_epik_Ionization_Penalty_Charging>  (1) 
3.3730423186562179e-05

>  <r_epik_Ionization_Penalty_Neutral>  (1) 
0.03793408004765518

>  <r_epik_State_Penalty>  (1) 
-0

>  <r_glide_ring_energy>  (1) 
0

>  <r_i_docking_score>  (1) 
-7.2000513076848351

>  <r_i_glide_ecoul>  (1) 
-11.580089945614452

>  <r_i_glide_eff_state_penalty>  (1) 
-0

>  <r_i_glide_einternal>  (1) 
12.681973740572248

>  <r_i_glide_emodel>  (1) 
-69.256426247126228

>  <r_i_glide_emodel_strain>  (1) 
0.59938359350617532

>  <r_i_glide_energy>  (1) 
-52.29862197006485

>  <r_i_glide_erotb>  (1) 
0.84802462455657757

>  <r_i_glide_esite>  (1) 
-0.085963047436852

>  <r_i_glide_evdw>  (1) 
-40.718532024450397

>  <r_i_glide_gscore>  (1) 
-7.2000513076848351

>  <r_i_glide_gscore_strain>  (1) 
0

>  <r_i_glide_hbond>  (1) 
-0.47999999999999998

>  <r_i_glide_ligand_efficiency>  (1) 
-0.27692505029557057

>  <r_i_glide_ligand_efficiency_ln>  (1) 
-1.6909084243144774

>  <r_i_glide_ligand_efficiency_sa>  (1) 
-0.82038937274414137

>  <r_i_glide_lipo>  (1) 
-2.8719461789016907

>  <r_i_glide_metal>  (1) 
-0

>  <r_i_glide_rewards>  (1) 
-0.83722661283818234

>  <r_lp_Energy>  (1) 
26.114241

>  <r_lp_tautomer_probability>  (1) 
1

>  <s_epik_Chemistry_Notes>  (1) 
This compound contains an acetal/aminal-like group ( X-CH(R)-Y where X, Y are N, S, or O) that may be acid/base labile, releasing an aldehyde.

>  <s_epik_cmdline>  (1) 
J2VwaWtfcHl0aG9uJywgJy1waHQnLCAnMS4wJywgJy1waCcsICc3LjQnLCAnLXRuJywgJzgnLCAnLW1hJywgJzUwMCcsICctaW1hZScsICc8aW5maWxlLm1hZT4nLCAnLW9tYWUnLCAnPG91dGZpbGUubWFlPic=

>  <s_epik_input>  (1) 
W2NIXTFbY0hdYyhbT0hdKWMoW0NIM10pW2NIXWMxTihbQ0gzXSlbQ0gyXVtDQEhdKFtPSF0pTihbQ0gzXSlbUEBAXSg9TykoW09IXSlbQ0BASF0oW0NASF0oW0NIM10pW05IXVtTSF0pW0NIXTJbQ0gyXVtDSDJdMg==

>  <s_glide_docking_method>  (1) 
confgen

>  <s_i_glide_gridfile>  (1) 
gpcr_5ht2c_6bqh_protein_autoprepared_prepared

>  <s_lp_Force_Field>  (1) 
S-OPLS

>  <s_lp_Variant>  (1) 
DiffSBDD_46-1

>  <s_m_source_file>  (1) 
generated_GPCR_5HT2C_ligand_DiffSBDD_2026-06-23_prepared.sdf

>  <GenAI_Model>  (1) 
DiffSBDD

>  <Protein>  (1) 
GPCR_5HT2C

$$$$
DiffSBDD_24
     RDKit          3D

  0  0  0  0  0  0  0  0  0  0999 V3000
M  V30 BEGIN CTAB
M  V30 COUNTS 76 79 0 0 1
M  V30 BEGIN ATOM
M  V30 1 C 37.913457 27.765514 52.721621 0
M  V30 2 C 38.019927 37.039497 60.753673 0
M  V30 3 C 38.153811 28.241912 54.022139 0
M  V30 4 N 39.952229 36.228246 62.148492 0 CHG=1
M  V30 5 C 38.045136 31.092456 57.008249 0 CFG=2
M  V30 6 N 36.444943 35.444968 59.877213 0
M  V30 7 C 36.807410 32.945660 60.116456 0
M  V30 8 C 41.622056 35.737347 63.916463 0
M  V30 9 O 41.645010 31.963415 61.684366 0 CHG=-1
M  V30 10 N 41.245290 34.097005 62.175496 0
M  V30 11 C 41.041675 32.791033 62.396791 0
M  V30 12 O 37.149425 28.642742 58.049347 0
M  V30 13 C 37.896821 31.324983 58.555819 0
M  V30 14 C 38.559183 28.351364 51.623632 0
M  V30 15 C 38.716700 27.296860 56.900585 0 CFG=2
M  V30 16 C 38.045128 33.553870 56.825197 0
M  V30 17 C 36.579333 36.801682 60.397814 0
M  V30 18 N 38.128288 33.718416 58.272620 0
M  V30 19 O 36.194820 32.068648 60.726730 0
M  V30 20 C 39.681839 29.899878 53.119643 0
M  V30 21 C 38.518853 36.016608 61.805283 0 CFG=2
M  V30 22 C 38.260689 34.592971 61.290429 0
M  V30 23 C 38.323307 24.805750 56.877871 0
M  V30 24 C 39.430406 29.427383 51.820515 0
M  V30 25 C 37.654379 26.145812 56.781058 0
M  V30 26 N 38.486480 29.762487 56.585173 0
M  V30 27 C 40.591773 35.154436 62.951629 0 CFG=2
M  V30 28 C 39.624961 27.020618 58.102429 0
M  V30 29 F 40.516320 30.937792 53.302330 0
M  V30 30 C 39.575041 24.654650 57.311297 0
M  V30 31 C 36.835167 34.349907 60.759510 0 CFG=1
M  V30 32 C 39.080230 29.290473 54.234314 0
M  V30 33 N 37.517084 32.681436 58.985715 0
M  V30 34 C 40.445132 25.810126 57.748399 0
M  V30 35 C 38.044760 28.622781 57.212689 0
M  V30 36 C 38.747166 32.291743 56.345669 0
M  V30 37 O 40.257178 32.438007 63.303089 0
M  V30 38 N 39.448579 29.746149 55.537415 0
M  V30 39 H 37.240550 26.941934 52.568317 0
M  V30 40 H 38.445212 36.904255 59.773091 0
M  V30 41 H 38.182210 38.071228 61.068697 0
M  V30 42 H 37.648276 27.790520 54.834446 0
M  V30 43 H 40.485394 36.338558 61.299261 0
M  V30 44 H 37.093348 30.990244 56.524272 0
M  V30 45 H 35.731339 35.264345 59.181866 0
M  V30 46 H 42.107723 34.948608 64.496185 0
M  V30 47 H 42.396574 36.298845 63.391789 0
M  V30 48 H 41.133329 36.401107 64.628765 0
M  V30 49 H 41.889150 34.369267 61.449296 0
M  V30 50 H 37.120535 30.692347 58.965985 0
M  V30 51 H 38.827015 31.060914 59.060555 0
M  V30 52 H 38.377168 27.981382 50.626522 0
M  V30 53 H 39.360180 27.308898 56.025029 0
M  V30 54 H 36.992329 33.516493 56.566740 0
M  V30 55 H 38.445133 34.439723 56.336139 0
M  V30 56 H 36.218919 37.515025 59.661645 0
M  V30 57 H 36.045136 36.968072 61.321066 0
M  V30 58 H 37.694751 34.597770 58.554645 0
M  V30 59 H 37.946375 36.152203 62.724878 0
M  V30 60 H 38.419499 33.866284 62.086031 0
M  V30 61 H 39.011002 34.378770 60.531215 0
M  V30 62 H 37.743055 23.943679 56.580743 0
M  V30 63 H 39.914552 29.892459 50.974557 0
M  V30 64 H 37.096665 26.157400 55.849257 0
M  V30 65 H 36.906559 26.188728 57.572627 0
M  V30 66 H 39.810860 34.753450 63.595765 0
M  V30 67 H 40.292015 27.859894 58.311000 0
M  V30 68 H 39.043214 26.835478 59.008147 0
M  V30 69 H 40.009150 23.673419 57.366256 0
M  V30 70 H 36.139352 34.356095 61.601752 0
M  V30 71 H 41.059514 25.478441 58.567717 0
M  V30 72 H 41.106145 26.136272 56.941222 0
M  V30 73 H 39.806056 32.331734 56.599445 0
M  V30 74 H 38.668760 32.246990 55.259521 0
M  V30 75 H 40.019272 30.580852 55.496759 0
M  V30 76 H 40.016684 37.085393 62.677290 0
M  V30 END ATOM
M  V30 BEGIN BOND
M  V30 1 1 3 1
M  V30 2 1 11 9
M  V30 3 1 11 10
M  V30 4 1 13 5
M  V30 5 2 14 1
M  V30 6 1 17 2
M  V30 7 1 17 6
M  V30 8 1 18 16
M  V30 9 2 19 7
M  V30 10 1 21 2
M  V30 11 1 21 4
M  V30 12 1 22 21
M  V30 13 1 24 14
M  V30 14 2 24 20
M  V30 15 1 25 15
M  V30 16 1 25 23
M  V30 17 1 26 5
M  V30 18 1 27 4
M  V30 19 1 27 8
M  V30 20 1 27 10
M  V30 21 1 28 15
M  V30 22 1 29 20
M  V30 23 2 30 23
M  V30 24 1 31 6
M  V30 25 1 31 7
M  V30 26 1 31 22
M  V30 27 2 32 3
M  V30 28 1 32 20
M  V30 29 1 33 7
M  V30 30 1 33 13
M  V30 31 1 33 18
M  V30 32 1 34 28
M  V30 33 1 34 30
M  V30 34 2 35 12
M  V30 35 1 35 15
M  V30 36 1 35 26
M  V30 37 1 36 5
M  V30 38 1 36 16
M  V30 39 2 37 11
M  V30 40 1 38 26
M  V30 41 1 38 32
M  V30 42 1 39 1
M  V30 43 1 40 2
M  V30 44 1 41 2
M  V30 45 1 42 3
M  V30 46 1 43 4
M  V30 47 1 5 44 CFG=3
M  V30 48 1 45 6
M  V30 49 1 46 8
M  V30 50 1 47 8
M  V30 51 1 48 8
M  V30 52 1 49 10
M  V30 53 1 50 13
M  V30 54 1 51 13
M  V30 55 1 52 14
M  V30 56 1 15 53 CFG=3
M  V30 57 1 54 16
M  V30 58 1 55 16
M  V30 59 1 56 17
M  V30 60 1 57 17
M  V30 61 1 58 18
M  V30 62 1 21 59 CFG=1
M  V30 63 1 60 22
M  V30 64 1 61 22
M  V30 65 1 62 23
M  V30 66 1 63 24
M  V30 67 1 64 25
M  V30 68 1 65 25
M  V30 69 1 27 66 CFG=1
M  V30 70 1 67 28
M  V30 71 1 68 28
M  V30 72 1 69 30
M  V30 73 1 31 70 CFG=1
M  V30 74 1 71 34
M  V30 75 1 72 34
M  V30 76 1 73 36
M  V30 77 1 74 36
M  V30 78 1 75 38
M  V30 79 1 76 4
M  V30 END BOND
M  V30 END CTAB
M  END
>  <i_epik_Tot_Q>  (1) 
0

>  <i_epik_Tot_abs_Q>  (1) 
2

>  <i_i_glide_confnum>  (1) 
940

>  <i_i_glide_lignum>  (1) 
59

>  <i_i_glide_posenum>  (1) 
169

>  <i_i_glide_rotatable_bonds>  (1) 
11

>  <i_lp_mmshare_version>  (1) 
72125

>  <i_m_source_file_index>  (1) 
25

>  <i_f3d_flags>  (1) 
0

>  <num_sample>  (1) 
100

>  <b_lp_Chiralities_Consistent>  (1) 
1

>  <r_epik_Charging_Adjusted_Penalty>  (1) 
0.077750035834572392

>  <r_epik_Ionization_Penalty>  (1) 
0.10755876975778689

>  <r_epik_Ionization_Penalty_Charging>  (1) 
0.0083338926467225426

>  <r_epik_Ionization_Penalty_Neutral>  (1) 
0.099224877111064341

>  <r_epik_State_Penalty>  (1) 
0.069416143187849846

>  <r_glide_ring_energy>  (1) 
0

>  <r_i_docking_score>  (1) 
-7.1949219183337823

>  <r_i_glide_ecoul>  (1) 
-5.2546454256609998

>  <r_i_glide_eff_state_penalty>  (1) 
0.069416143187849846

>  <r_i_glide_einternal>  (1) 
58.845977507633009

>  <r_i_glide_emodel>  (1) 
-34.404502362156272

>  <r_i_glide_emodel_strain>  (1) 
3.4952453740014136

>  <r_i_glide_energy>  (1) 
-40.919848064631921

>  <r_i_glide_erotb>  (1) 
0.72960086390203738

>  <r_i_glide_esite>  (1) 
-0.11947007017243745

>  <r_i_glide_evdw>  (1) 
-35.665202638970925

>  <r_i_glide_gscore>  (1) 
-7.2643380615216318

>  <r_i_glide_gscore_strain>  (1) 
0

>  <r_i_glide_hbond>  (1) 
-0.025607115543999092

>  <r_i_glide_ligand_efficiency>  (1) 
-0.18934005048246796

>  <r_i_glide_ligand_efficiency_ln>  (1) 
-1.5514368187519081

>  <r_i_glide_ligand_efficiency_sa>  (1) 
-0.63655659324413161

>  <r_i_glide_lipo>  (1) 
-4.0778679712748582

>  <r_i_glide_metal>  (1) 
-0

>  <r_i_glide_rewards>  (1) 
-1.1995368226346774

>  <r_lp_Energy>  (1) 
50.898903999999995

>  <s_epik_Chemistry_Notes>  (1) 
This compound contains an acetal/aminal-like group ( X-CH(R)-Y where X, Y are N, S, or O) that may be acid/base labile, releasing an aldehyde.

>  <s_epik_cmdline>  (1) 
J2VwaWtfcHl0aG9uJywgJy1waHQnLCAnMS4wJywgJy1waCcsICc3LjQnLCAnLXRuJywgJzgnLCAnLW1hJywgJzUwMCcsICctaW1hZScsICc8aW5maWxlLm1hZT4nLCAnLW9tYWUnLCAnPG91dGZpbGUubWFlPic=

>  <s_epik_input>  (1) 
RmMxW2NIXVtjSF1bY0hdW2NIXWMxW05IXU4oQyg9TylbQ0BASF0yW0NIMl1bQ0hdPVtDSF1bQ0gyXVtDSDJdMilbQ0BIXTNbQ0gyXU4oW05IXVtDSDJdW0NIMl0zKUMoPU8pW0NAQEhdKFtDSDJdNClbTkhdW0NIMl1bQ0gyXVtDQEBIXTRbTkhdW0NASF0oW0NIM10pW05IXUMoPU8pW09IXQ==

>  <s_glide_docking_method>  (1) 
confgen

>  <s_i_glide_gridfile>  (1) 
gpcr_5ht2c_6bqh_protein_autoprepared_prepared

>  <s_lp_Force_Field>  (1) 
S-OPLS

>  <s_lp_Variant>  (1) 
DiffSBDD_24-1

>  <s_m_source_file>  (1) 
generated_GPCR_5HT2C_ligand_DiffSBDD_2026-06-23_prepared.sdf

>  <GenAI_Model>  (1) 
DiffSBDD

>  <Protein>  (1) 
GPCR_5HT2C

$$$$
DiffSBDD_41
     RDKit          3D

  0  0  0  0  0  0  0  0  0  0999 V3000
M  V30 BEGIN CTAB
M  V30 COUNTS 52 53 0 0 1
M  V30 BEGIN ATOM
M  V30 1 C 38.248453 29.433186 54.353957 0
M  V30 2 C 38.030660 30.847978 58.316147 0 CFG=1
M  V30 3 C 36.891752 37.434544 61.870013 0
M  V30 4 C 38.252241 34.177459 60.368425 0
M  V30 5 C 40.059369 35.290169 61.592635 0
M  V30 6 C 39.193038 36.341121 61.934104 0
M  V30 7 C 39.597242 34.214132 60.819270 0
M  V30 8 O 40.445101 30.537753 51.600733 0
M  V30 9 C 38.515241 32.003316 59.173140 0
M  V30 10 S 38.844953 30.878461 56.679333 0
M  V30 11 N 36.403338 37.228608 63.245887 0 CHG=1
M  V30 12 C 39.290725 28.461870 51.915655 0
M  V30 13 C 38.435822 27.654601 52.688341 0
M  V30 14 C 39.714366 37.498313 62.766669 0
M  V30 15 C 38.276540 29.500241 59.031194 0
M  V30 16 C 39.633485 29.752960 52.360382 0
M  V30 17 C 37.756623 33.053630 59.536900 0
M  V30 18 C 37.913541 28.138297 53.904254 0
M  V30 19 C 39.985049 27.847533 60.008266 0
M  V30 20 C 37.380674 35.231637 60.715389 0
M  V30 21 C 39.757428 29.212530 59.363227 0
M  V30 22 F 39.780834 27.999033 50.740738 0
M  V30 23 C 39.116541 30.240656 53.581332 0
M  V30 24 C 37.844148 36.312979 61.497660 0
M  V30 25 C 37.654516 29.959510 55.659207 0
M  V30 26 H 36.957365 30.966193 58.167456 0
M  V30 27 H 37.372838 38.407228 61.767760 0
M  V30 28 H 36.045139 37.454641 61.182589 0
M  V30 29 H 41.087679 35.308959 61.924461 0
M  V30 30 H 40.278892 33.421858 60.568902 0
M  V30 31 H 40.683442 30.117181 50.787716 0
M  V30 32 H 39.531866 31.953257 59.494737 0
M  V30 33 H 35.761206 37.966147 63.495998 0
M  V30 34 H 35.928834 36.337873 63.316624 0
M  V30 35 H 38.173490 26.665795 52.345070 0
M  V30 36 H 39.173696 37.597024 63.706734 0
M  V30 37 H 40.764449 37.337700 63.013140 0
M  V30 38 H 39.655362 38.432783 62.209139 0
M  V30 39 H 37.695606 29.484919 59.953833 0
M  V30 40 H 37.881058 28.689363 58.419926 0
M  V30 41 H 36.725674 33.102254 59.212825 0
M  V30 42 H 37.249478 27.518268 54.489376 0
M  V30 43 H 41.042612 27.738027 60.249788 0
M  V30 44 H 39.426381 27.757468 60.939814 0
M  V30 45 H 39.689407 27.034712 59.342146 0
M  V30 46 H 36.353891 35.210869 60.379428 0
M  V30 47 H 40.370187 29.279699 58.463827 0
M  V30 48 H 40.142151 29.960959 60.054232 0
M  V30 49 H 39.373125 31.236058 53.915286 0
M  V30 50 H 36.811273 30.608029 55.426293 0
M  V30 51 H 37.263031 29.127918 56.242246 0
M  V30 52 H 37.187306 37.221575 63.881525 0
M  V30 END ATOM
M  V30 BEGIN BOND
M  V30 1 1 6 5
M  V30 2 1 7 4
M  V30 3 2 7 5
M  V30 4 1 9 2
M  V30 5 1 10 2
M  V30 6 1 11 3
M  V30 7 1 13 12
M  V30 8 1 14 6
M  V30 9 1 15 2
M  V30 10 1 16 8
M  V30 11 2 16 12
M  V30 12 1 17 4
M  V30 13 2 17 9
M  V30 14 1 18 1
M  V30 15 2 18 13
M  V30 16 2 20 4
M  V30 17 1 21 15
M  V30 18 1 21 19
M  V30 19 1 22 12
M  V30 20 2 23 1
M  V30 21 1 23 16
M  V30 22 1 24 3
M  V30 23 2 24 6
M  V30 24 1 24 20
M  V30 25 1 25 1
M  V30 26 1 25 10
M  V30 27 1 2 26 CFG=3
M  V30 28 1 27 3
M  V30 29 1 28 3
M  V30 30 1 29 5
M  V30 31 1 30 7
M  V30 32 1 31 8
M  V30 33 1 32 9
M  V30 34 1 33 11
M  V30 35 1 34 11
M  V30 36 1 35 13
M  V30 37 1 36 14
M  V30 38 1 37 14
M  V30 39 1 38 14
M  V30 40 1 39 15
M  V30 41 1 40 15
M  V30 42 1 41 17
M  V30 43 1 42 18
M  V30 44 1 43 19
M  V30 45 1 44 19
M  V30 46 1 45 19
M  V30 47 1 46 20
M  V30 48 1 47 21
M  V30 49 1 48 21
M  V30 50 1 49 23
M  V30 51 1 50 25
M  V30 52 1 51 25
M  V30 53 1 52 11
M  V30 END BOND
M  V30 END CTAB
M  END
>  <i_epik_Tot_Q>  (1) 
1

>  <i_epik_Tot_abs_Q>  (1) 
1

>  <i_i_glide_confnum>  (1) 
120

>  <i_i_glide_lignum>  (1) 
88

>  <i_i_glide_posenum>  (1) 
356

>  <i_i_glide_rotatable_bonds>  (1) 
9

>  <i_lp_mmshare_version>  (1) 
72125

>  <i_m_source_file_index>  (1) 
42

>  <i_f3d_flags>  (1) 
0

>  <num_sample>  (1) 
100

>  <b_lp_Chiralities_Consistent>  (1) 
1

>  <r_epik_Charging_Adjusted_Penalty>  (1) 
0.19353898929150365

>  <r_epik_Ionization_Penalty>  (1) 
0.13216089294123454

>  <r_epik_Ionization_Penalty_Charging>  (1) 
0.06151586109146627

>  <r_epik_Ionization_Penalty_Neutral>  (1) 
0.070645031849768267

>  <r_epik_State_Penalty>  (1) 
0.13202312820003739

>  <r_glide_ring_energy>  (1) 
0

>  <r_i_docking_score>  (1) 
-7.1862791841410312

>  <r_i_glide_ecoul>  (1) 
-1.4883210002569167

>  <r_i_glide_eff_state_penalty>  (1) 
0.13202312820003739

>  <r_i_glide_einternal>  (1) 
3.1739645567393335

>  <r_i_glide_emodel>  (1) 
-60.125069933701198

>  <r_i_glide_emodel_strain>  (1) 
0.13429527117133233

>  <r_i_glide_energy>  (1) 
-39.762177327526906

>  <r_i_glide_erotb>  (1) 
0.88540937349265225

>  <r_i_glide_esite>  (1) 
0

>  <r_i_glide_evdw>  (1) 
-38.273856327269989

>  <r_i_glide_gscore>  (1) 
-7.3183023123410686

>  <r_i_glide_gscore_strain>  (1) 
0

>  <r_i_glide_hbond>  (1) 
0

>  <r_i_glide_ligand_efficiency>  (1) 
-0.28745116736564125

>  <r_i_glide_ligand_efficiency_ln>  (1) 
-1.7033635220504582

>  <r_i_glide_ligand_efficiency_sa>  (1) 
-0.84051231224713041

>  <r_i_glide_lipo>  (1) 
-3.8634910969424747

>  <r_i_glide_metal>  (1) 
-0

>  <r_i_glide_rewards>  (1) 
-2.2032796224892088

>  <r_lp_Energy>  (1) 
18.429102

>  <r_lp_tautomer_probability>  (1) 
0.99999999999736477

>  <s_epik_cmdline>  (1) 
J2VwaWtfcHl0aG9uJywgJy1waHQnLCAnMS4wJywgJy1waCcsICc3LjQnLCAnLXRuJywgJzgnLCAnLW1hJywgJzUwMCcsICctaW1hZScsICc8aW5maWxlLm1hZT4nLCAnLW9tYWUnLCAnPG91dGZpbGUubWFlPic=

>  <s_epik_input>  (1) 
W09IXWMoW2NIXTEpYyhGKVtjSF1bY0hdYzFbQ0gyXVNbQ0BASF0oW0NIMl1bQ0gyXVtDSDNdKS9bQ0hdPVtDSF0vYzJbY0hdW2NIXWMoW0NIM10pYyhbY0hdMilbQ0gyXVtOSDJd

>  <s_glide_docking_method>  (1) 
confgen

>  <s_i_glide_gridfile>  (1) 
gpcr_5ht2c_6bqh_protein_autoprepared_prepared

>  <s_lp_Force_Field>  (1) 
S-OPLS

>  <s_lp_Variant>  (1) 
DiffSBDD_41-1

>  <s_m_source_file>  (1) 
generated_GPCR_5HT2C_ligand_DiffSBDD_2026-06-23_prepared.sdf

>  <GenAI_Model>  (1) 
DiffSBDD

>  <Protein>  (1) 
GPCR_5HT2C

$$$$
DiffSBDD_33
     RDKit          3D

  0  0  0  0  0  0  0  0  0  0999 V3000
M  V30 BEGIN CTAB
M  V30 COUNTS 36 39 0 0 1
M  V30 BEGIN ATOM
M  V30 1 O 39.823867 25.754481 57.724591 0
M  V30 2 C 37.500599 25.598167 54.855532 0
M  V30 3 C 41.446071 30.385454 49.976092 0
M  V30 4 C 39.732006 28.904229 51.143207 0
M  V30 5 C 38.450377 26.035011 57.569028 0 CFG=2
M  V30 6 O 40.443993 30.903220 52.098355 0
M  V30 7 C 38.998681 28.442618 55.681229 0 CFG=2
M  V30 8 C 37.694289 24.749425 57.102203 0
M  V30 9 N 38.358132 27.766020 54.567194 0
M  V30 10 C 39.701283 30.236830 53.116178 0
M  V30 11 C 39.002966 29.026708 52.471842 0 CFG=2
M  V30 12 F 39.245173 30.993662 50.167769 0
M  V30 13 C 37.955186 26.784144 55.234985 0
M  V30 14 C 38.217974 27.190743 56.564179 0 CFG=1
M  V30 15 C 38.261669 28.642642 56.987385 0
M  V30 16 C 40.185803 30.329449 50.829046 0 CFG=1
M  V30 17 C 39.027315 27.698041 53.270228 0
M  V30 18 C 37.264451 24.571530 55.828346 0
M  V30 19 H 40.279037 26.561879 57.909440 0
M  V30 20 H 37.352750 25.385875 53.807111 0
M  V30 21 H 42.326840 30.137752 50.565448 0
M  V30 22 H 41.364081 29.737865 49.106186 0
M  V30 23 H 41.609532 31.372462 49.580332 0
M  V30 24 H 40.606948 28.265171 51.265732 0
M  V30 25 H 39.113484 28.473535 50.354604 0
M  V30 26 H 38.047568 26.339265 58.535498 0
M  V30 27 H 40.085192 28.367235 55.660963 0
M  V30 28 H 37.534358 23.977324 57.841283 0
M  V30 29 H 38.974366 30.920314 53.556649 0
M  V30 30 H 40.396923 29.955689 53.904456 0
M  V30 31 H 37.969407 29.308779 52.270977 0
M  V30 32 H 38.870376 28.897905 57.852244 0
M  V30 33 H 37.320839 29.188074 56.943902 0
M  V30 34 H 40.045133 27.337389 53.415788 0
M  V30 35 H 38.534637 26.937573 52.664147 0
M  V30 36 H 36.770190 23.654315 55.543604 0
M  V30 END ATOM
M  V30 BEGIN BOND
M  V30 1 1 5 1
M  V30 2 1 8 5
M  V30 3 1 9 7
M  V30 4 1 10 6
M  V30 5 1 11 4
M  V30 6 1 11 10
M  V30 7 2 13 2
M  V30 8 1 13 9
M  V30 9 1 14 5
M  V30 10 1 14 7
M  V30 11 1 14 13
M  V30 12 1 15 7
M  V30 13 1 14 15 CFG=1
M  V30 14 1 16 3
M  V30 15 1 16 4
M  V30 16 1 16 6
M  V30 17 1 16 12 CFG=3
M  V30 18 1 17 9
M  V30 19 1 17 11
M  V30 20 1 18 2
M  V30 21 2 18 8
M  V30 22 1 19 1
M  V30 23 1 20 2
M  V30 24 1 21 3
M  V30 25 1 22 3
M  V30 26 1 23 3
M  V30 27 1 24 4
M  V30 28 1 25 4
M  V30 29 1 5 26 CFG=1
M  V30 30 1 7 27 CFG=3
M  V30 31 1 28 8
M  V30 32 1 29 10
M  V30 33 1 30 10
M  V30 34 1 11 31 CFG=3
M  V30 35 1 32 15
M  V30 36 1 33 15
M  V30 37 1 34 17
M  V30 38 1 35 17
M  V30 39 1 36 18
M  V30 END BOND
M  V30 END CTAB
M  END
>  <i_epik_Tot_Q>  (1) 
0

>  <i_epik_Tot_abs_Q>  (1) 
0

>  <i_i_glide_confnum>  (1) 
28

>  <i_i_glide_lignum>  (1) 
77

>  <i_i_glide_posenum>  (1) 
363

>  <i_i_glide_rotatable_bonds>  (1) 
3

>  <i_lp_mmshare_version>  (1) 
72125

>  <i_m_source_file_index>  (1) 
34

>  <i_f3d_flags>  (1) 
0

>  <num_sample>  (1) 
100

>  <b_lp_Chiralities_Consistent>  (1) 
1

>  <r_epik_Charging_Adjusted_Penalty>  (1) 
0

>  <r_epik_Ionization_Penalty>  (1) 
1.6271736615724652e-05

>  <r_epik_Ionization_Penalty_Charging>  (1) 
0

>  <r_epik_Ionization_Penalty_Neutral>  (1) 
1.6271736615724652e-05

>  <r_epik_State_Penalty>  (1) 
-0

>  <r_glide_ring_energy>  (1) 
0

>  <r_i_docking_score>  (1) 
-7.1771203542633906

>  <r_i_glide_ecoul>  (1) 
0.41153166716077028

>  <r_i_glide_eff_state_penalty>  (1) 
-0

>  <r_i_glide_einternal>  (1) 
3.042420952601987

>  <r_i_glide_emodel>  (1) 
-36.300468374926012

>  <r_i_glide_emodel_strain>  (1) 
0.21583051183401381

>  <r_i_glide_energy>  (1) 
-26.290489567342313

>  <r_i_glide_erotb>  (1) 
0.55502837294367569

>  <r_i_glide_esite>  (1) 
0

>  <r_i_glide_evdw>  (1) 
-26.702021234503082

>  <r_i_glide_gscore>  (1) 
-7.1771203542633906

>  <r_i_glide_gscore_strain>  (1) 
0

>  <r_i_glide_hbond>  (1) 
0

>  <r_i_glide_ligand_efficiency>  (1) 
-0.39872890857018839

>  <r_i_glide_ligand_efficiency_ln>  (1) 
-1.8448417788598779

>  <r_i_glide_ligand_efficiency_sa>  (1) 
-1.0449653557576273

>  <r_i_glide_lipo>  (1) 
-3.522092563231507

>  <r_i_glide_metal>  (1) 
-0

>  <r_i_glide_rewards>  (1) 
-2.9366848523245208

>  <r_lp_Energy>  (1) 
31.382234999999998

>  <r_lp_tautomer_probability>  (1) 
1

>  <s_epik_cmdline>  (1) 
J2VwaWtfcHl0aG9uJywgJy1waHQnLCAnMS4wJywgJy1waCcsICc3LjQnLCAnLXRuJywgJzgnLCAnLW1hJywgJzUwMCcsICctaW1hZScsICc8aW5maWxlLm1hZT4nLCAnLW9tYWUnLCAnPG91dGZpbGUubWFlPic=

>  <s_epik_input>  (1) 
W09IXVtDQEBIXTFbQ0hdPVtDSF1bQ0hdPUMyTihbQ0hdKEMxMjMpW0NIMl0zKVtDSDJdW0NAQEhdKFtDSDJdTzQpW0NIMl1bQ0BdNChGKVtDSDNd

>  <s_glide_docking_method>  (1) 
confgen

>  <s_i_glide_gridfile>  (1) 
gpcr_5ht2c_6bqh_protein_autoprepared_prepared

>  <s_lp_Force_Field>  (1) 
S-OPLS

>  <s_lp_Variant>  (1) 
DiffSBDD_33-1

>  <s_m_source_file>  (1) 
generated_GPCR_5HT2C_ligand_DiffSBDD_2026-06-23_prepared.sdf

>  <GenAI_Model>  (1) 
DiffSBDD

>  <Protein>  (1) 
GPCR_5HT2C

$$$$
DiffSBDD_63
     RDKit          3D

  0  0  0  0  0  0  0  0  0  0999 V3000
M  V30 BEGIN CTAB
M  V30 COUNTS 83 88 0 0 1
M  V30 BEGIN ATOM
M  V30 1 F 40.908305 31.703509 68.075540 0
M  V30 2 C 38.437235 27.504182 55.216694 0
M  V30 3 C 41.957455 30.993147 67.662832 0 CFG=1
M  V30 4 C 36.929020 35.994979 60.203149 0
M  V30 5 C 40.458670 32.311549 63.542519 0
M  V30 6 C 40.227155 30.471315 61.743978 0 CFG=1
M  V30 7 N 41.645119 28.731608 68.438650 0 CHG=1
M  V30 8 C 38.434182 32.535855 56.346974 0
M  V30 9 C 38.856741 29.615778 53.962965 0
M  V30 10 C 37.904496 30.413319 57.710639 0 CFG=2
M  V30 11 C 38.268749 31.934579 57.741598 0 CFG=2
M  V30 12 C 41.150323 32.158237 64.904881 0
M  V30 13 C 38.411334 31.810462 55.219049 0
M  V30 14 C 38.512405 28.188134 56.404545 0
M  V30 15 N 38.310348 26.119882 55.390003 0
M  V30 16 N 40.445152 30.021510 64.236290 0 CHG=1
M  V30 17 C 40.643235 30.820057 65.449809 0 CFG=1
M  V30 18 C 36.713005 33.694619 61.243024 0
M  V30 19 C 38.142381 24.333936 57.113592 0
M  V30 20 O 40.600330 28.137749 62.218289 0
M  V30 21 O 38.047643 29.821470 59.007747 0
M  V30 22 S 38.445109 27.092292 57.767672 0
M  V30 23 C 40.949929 28.878143 67.144234 0 CFG=2
M  V30 24 C 39.910841 30.915562 63.194735 0 CFG=1
M  V30 25 C 41.030041 27.574840 66.331118 0
M  V30 26 C 38.656333 29.676002 56.558582 0 CFG=1
M  V30 27 C 40.180236 28.982261 61.436011 0
M  V30 28 C 38.287465 25.747526 56.667351 0
M  V30 29 O 36.445704 36.798332 59.146544 0
M  V30 30 C 36.653802 34.502931 59.934774 0 CFG=2
M  V30 31 C 37.645122 33.952548 58.894128 0
M  V30 32 C 39.292199 29.915929 59.615459 0 CFG=2
M  V30 33 O 37.321840 32.611884 58.567770 0
M  V30 34 C 38.217823 30.310456 55.199611 0 CFG=2
M  V30 35 O 39.654099 28.727451 60.240221 0
M  V30 36 C 42.343159 29.992852 68.756237 0
M  V30 37 C 39.236713 30.982770 60.720051 0
M  V30 38 C 41.573397 30.115456 66.464953 0 CFG=2
M  V30 39 C 38.476377 28.112858 53.852033 0
M  V30 40 H 42.755396 31.703080 67.439776 0
M  V30 41 H 37.996665 36.173122 60.334655 0
M  V30 42 H 36.445150 36.326252 61.121740 0
M  V30 43 H 41.163904 32.681344 62.796779 0
M  V30 44 H 39.645088 33.035061 63.593167 0
M  V30 45 H 41.230925 30.798401 61.474870 0
M  V30 46 H 42.321826 27.983847 68.381984 0
M  V30 47 H 38.575474 33.603598 56.288804 0
M  V30 48 H 38.583254 30.127661 53.040703 0
M  V30 49 H 39.939752 29.711168 54.049544 0
M  V30 50 H 36.845161 30.313531 57.489787 0
M  V30 51 H 39.245144 32.071104 58.181858 0
M  V30 52 H 42.231292 32.121878 64.758842 0
M  V30 53 H 40.934902 32.991282 65.575023 0
M  V30 54 H 38.529230 32.300041 54.263399 0
M  V30 55 H 39.800047 29.249772 64.382289 0
M  V30 56 H 39.659543 30.979173 65.896609 0
M  V30 57 H 37.708962 33.723104 61.685657 0
M  V30 58 H 36.007977 34.087007 61.977401 0
M  V30 59 H 36.451428 32.649835 61.071592 0
M  V30 60 H 39.125187 23.875905 57.226238 0
M  V30 61 H 37.627681 24.293392 58.073648 0
M  V30 62 H 37.562333 23.767610 56.384329 0
M  V30 63 H 39.903162 29.088624 67.370261 0
M  V30 64 H 38.831308 30.918565 63.344662 0
M  V30 65 H 40.446086 27.629975 65.413552 0
M  V30 66 H 42.057175 27.329333 66.058744 0
M  V30 67 H 40.631352 26.735462 66.902318 0
M  V30 68 H 39.722500 29.866832 56.682352 0
M  V30 69 H 36.445218 36.295537 58.338492 0
M  V30 70 H 35.641965 34.402493 59.537730 0
M  V30 71 H 37.601326 34.559259 57.992136 0
M  V30 72 H 38.661827 34.016094 59.284816 0
M  V30 73 H 40.062862 30.118519 58.876794 0
M  V30 74 H 37.139203 30.175163 55.096544 0
M  V30 75 H 43.416937 29.804109 68.731991 0
M  V30 76 H 42.089595 30.350125 69.754991 0
M  V30 77 H 39.490326 31.974273 60.348486 0
M  V30 78 H 38.224921 31.010102 61.127472 0
M  V30 79 H 42.499216 29.818072 65.967316 0
M  V30 80 H 37.493292 28.021396 53.388104 0
M  V30 81 H 39.179373 27.587421 53.204327 0
M  V30 82 H 41.332127 29.655804 63.919588 0
M  V30 83 H 40.957534 28.498085 69.145541 0
M  V30 END ATOM
M  V30 BEGIN BOND
M  V30 1 1 3 1
M  V30 2 1 11 8
M  V30 3 1 11 10
M  V30 4 1 12 5
M  V30 5 2 13 8
M  V30 6 2 14 2
M  V30 7 1 15 2
M  V30 8 1 17 12
M  V30 9 1 17 16
M  V30 10 1 21 10
M  V30 11 1 22 14
M  V30 12 1 23 7
M  V30 13 1 24 5
M  V30 14 1 24 6
M  V30 15 1 24 16
M  V30 16 1 25 23
M  V30 17 1 26 10
M  V30 18 1 26 14
M  V30 19 1 27 6
M  V30 20 2 27 20
M  V30 21 2 28 15
M  V30 22 1 28 19
M  V30 23 1 28 22
M  V30 24 1 29 4
M  V30 25 1 30 4
M  V30 26 1 30 18
M  V30 27 1 31 30
M  V30 28 1 32 21
M  V30 29 1 33 11
M  V30 30 1 33 31
M  V30 31 1 34 9
M  V30 32 1 34 13
M  V30 33 1 34 26
M  V30 34 1 35 27
M  V30 35 1 35 32
M  V30 36 1 36 3
M  V30 37 1 36 7
M  V30 38 1 37 6
M  V30 39 1 37 32
M  V30 40 1 38 3
M  V30 41 1 38 17
M  V30 42 1 38 23
M  V30 43 1 39 2
M  V30 44 1 39 9
M  V30 45 1 3 40 CFG=3
M  V30 46 1 41 4
M  V30 47 1 42 4
M  V30 48 1 43 5
M  V30 49 1 44 5
M  V30 50 1 6 45 CFG=3
M  V30 51 1 46 7
M  V30 52 1 47 8
M  V30 53 1 48 9
M  V30 54 1 49 9
M  V30 55 1 10 50 CFG=3
M  V30 56 1 11 51 CFG=1
M  V30 57 1 52 12
M  V30 58 1 53 12
M  V30 59 1 54 13
M  V30 60 1 55 16
M  V30 61 1 17 56 CFG=1
M  V30 62 1 57 18
M  V30 63 1 58 18
M  V30 64 1 59 18
M  V30 65 1 60 19
M  V30 66 1 61 19
M  V30 67 1 62 19
M  V30 68 1 23 63 CFG=1
M  V30 69 1 24 64 CFG=3
M  V30 70 1 65 25
M  V30 71 1 66 25
M  V30 72 1 67 25
M  V30 73 1 26 68 CFG=1
M  V30 74 1 69 29
M  V30 75 1 30 70 CFG=3
M  V30 76 1 71 31
M  V30 77 1 72 31
M  V30 78 1 32 73 CFG=3
M  V30 79 1 34 74 CFG=3
M  V30 80 1 75 36
M  V30 81 1 76 36
M  V30 82 1 77 37
M  V30 83 1 78 37
M  V30 84 1 38 79 CFG=3
M  V30 85 1 80 39
M  V30 86 1 81 39
M  V30 87 1 82 16
M  V30 88 1 83 7
M  V30 END BOND
M  V30 END CTAB
M  END
>  <i_epik_Tot_Q>  (1) 
2

>  <i_epik_Tot_abs_Q>  (1) 
2

>  <i_i_glide_confnum>  (1) 
1324

>  <i_i_glide_lignum>  (1) 
142

>  <i_i_glide_posenum>  (1) 
75

>  <i_i_glide_rotatable_bonds>  (1) 
9

>  <i_lp_mmshare_version>  (1) 
72125

>  <i_m_source_file_index>  (1) 
64

>  <i_f3d_flags>  (1) 
0

>  <num_sample>  (1) 
100

>  <b_lp_Chiralities_Consistent>  (1) 
1

>  <r_epik_Charging_Adjusted_Penalty>  (1) 
0.080070908620723774

>  <r_epik_Ionization_Penalty>  (1) 
0.041568301575603359

>  <r_epik_Ionization_Penalty_Charging>  (1) 
0.040241786303222601

>  <r_epik_Ionization_Penalty_Neutral>  (1) 
0.0013265152723807572

>  <r_epik_State_Penalty>  (1) 
0.039829122317501166

>  <r_glide_ring_energy>  (1) 
0

>  <r_i_docking_score>  (1) 
-7.1744624022755348

>  <r_i_glide_ecoul>  (1) 
-7.0742404002067776

>  <r_i_glide_eff_state_penalty>  (1) 
0.039829122317501166

>  <r_i_glide_einternal>  (1) 
4.4192305050717255

>  <r_i_glide_emodel>  (1) 
-78.3206055766981

>  <r_i_glide_emodel_strain>  (1) 
0.77893231658622142

>  <r_i_glide_energy>  (1) 
-56.974160359983976

>  <r_i_glide_erotb>  (1) 
0.43483266289788453

>  <r_i_glide_esite>  (1) 
-0.070045904529694711

>  <r_i_glide_evdw>  (1) 
-49.899919959777201

>  <r_i_glide_gscore>  (1) 
-7.2142915245930359

>  <r_i_glide_gscore_strain>  (1) 
0

>  <r_i_glide_hbond>  (1) 
-0.32602701873416423

>  <r_i_glide_ligand_efficiency>  (1) 
-0.18396057441732142

>  <r_i_glide_ligand_efficiency_ln>  (1) 
-1.5384083982742502

>  <r_i_glide_ligand_efficiency_sa>  (1) 
-0.62384920502747965

>  <r_i_glide_lipo>  (1) 
-2.7647350103905217

>  <r_i_glide_metal>  (1) 
-0

>  <r_i_glide_rewards>  (1) 
-0.93218419581666256

>  <r_lp_Energy>  (1) 
32.274032999999996

>  <s_epik_Chemistry_Notes>  (1) 
This compound has an ester and may undergo hydrolysis at high or low pH. This compound contains an acetal/aminal-like group ( X-CH(R)-Y where X, Y are N, S, or O) that may be acid/base labile, releasing an aldehyde.

>  <s_epik_cmdline>  (1) 
J2VwaWtfcHl0aG9uJywgJy1waHQnLCAnMS4wJywgJy1waCcsICc3LjQnLCAnLXRuJywgJzgnLCAnLW1hJywgJzUwMCcsICctaW1hZScsICc8aW5maWxlLm1hZT4nLCAnLW9tYWUnLCAnPG91dGZpbGUubWFlPic=

>  <s_epik_input>  (1) 
RltDQEhdMVtDSDJdW05IXVtDQEhdKFtDSDNdKVtDQEhdMVtDQEhdMltDSDJdW0NIMl1bQ0BIXShbTkhdMilbQ0BIXTNDKD1PKU9bQ0BIXShbQ0gyXTMpT1tDQEhdNFtDQEhdKE9bQ0gyXVtDQEBIXShbQ0gzXSlbQ0gyXVtPSF0pW0NIXT1bQ0hdW0NAQEhdKFtDSDJdW0NIMl01KVtDQEBIXTRjKGM1NilzYyhuNilbQ0gzXQ==

>  <s_glide_docking_method>  (1) 
confgen

>  <s_i_glide_gridfile>  (1) 
gpcr_5ht2c_6bqh_protein_autoprepared_prepared

>  <s_lp_Force_Field>  (1) 
S-OPLS

>  <s_lp_Variant>  (1) 
DiffSBDD_63-4

>  <s_m_source_file>  (1) 
generated_GPCR_5HT2C_ligand_DiffSBDD_2026-06-23_prepared.sdf

>  <GenAI_Model>  (1) 
DiffSBDD

>  <Protein>  (1) 
GPCR_5HT2C

$$$$
DiffSBDD_63
     RDKit          3D

  0  0  0  0  0  0  0  0  0  0999 V3000
M  V30 BEGIN CTAB
M  V30 COUNTS 83 88 0 0 1
M  V30 BEGIN ATOM
M  V30 1 F 38.797962 33.265434 55.367561 0
M  V30 2 C 39.302542 36.271286 63.196438 0
M  V30 3 C 38.235628 32.123349 54.964967 0 CFG=1
M  V30 4 C 40.776810 28.947824 66.715942 0
M  V30 5 C 37.351125 32.566015 59.385348 0
M  V30 6 C 38.175703 30.724763 61.031654 0 CFG=1
M  V30 7 N 39.037444 30.030925 54.150704 0 CHG=1
M  V30 8 C 42.632179 33.240718 65.547961 0
M  V30 9 C 40.451343 36.085099 65.418355 0
M  V30 10 C 40.863977 33.074068 63.764996 0 CFG=2
M  V30 11 C 42.072499 32.377813 64.433072 0 CFG=2
M  V30 12 C 37.792991 32.931745 57.967799 0
M  V30 13 C 42.420915 34.560308 65.644977 0
M  V30 14 C 40.084303 35.268381 62.678618 0
M  V30 15 N 38.358449 36.753556 62.283158 0
M  V30 16 N 38.486571 30.718629 58.550311 0 CHG=1
M  V30 17 C 38.565708 31.687787 57.452155 0 CFG=1
M  V30 18 C 42.889495 27.770992 65.972436 0
M  V30 19 C 37.497833 36.497420 59.966692 0
M  V30 20 O 39.472740 28.740204 60.579923 0
M  V30 21 O 40.478869 32.335870 62.606792 0
M  V30 22 S 39.660500 34.935484 61.008174 0
M  V30 23 C 39.026635 29.912952 55.615034 0 CFG=2
M  V30 24 C 38.410507 31.539475 59.761675 0 CFG=1
M  V30 25 C 38.610974 28.501219 56.053651 0
M  V30 26 C 41.188454 34.541804 63.387513 0 CFG=1
M  V30 27 C 39.307433 29.737787 61.279871 0
M  V30 28 C 38.407655 36.155727 61.099034 0
M  V30 29 O 39.645167 29.684187 66.290245 0
M  V30 30 C 41.859267 28.855615 65.616614 0 CFG=2
M  V30 31 C 42.570234 30.200042 65.360779 0
M  V30 32 C 39.618016 31.272710 62.884261 0 CFG=2
M  V30 33 O 41.600841 31.144281 64.941462 0
M  V30 34 C 41.608857 35.366246 64.650079 0 CFG=1
M  V30 35 O 40.074235 30.089096 62.310438 0
M  V30 36 C 39.112748 31.470433 53.896179 0
M  V30 37 C 38.261672 31.602902 62.263381 0
M  V30 38 C 38.136744 31.085473 56.099951 0 CFG=2
M  V30 39 C 39.396365 36.840898 64.568705 0
M  V30 40 H 37.245163 32.368568 54.579684 0
M  V30 41 H 41.181793 29.398692 67.623284 0
M  V30 42 H 40.435858 27.946519 66.979751 0
M  V30 43 H 36.360449 32.108564 59.366720 0
M  V30 44 H 37.311723 33.422008 60.055769 0
M  V30 45 H 37.219061 30.204490 60.975882 0
M  V30 46 H 38.168003 29.671197 53.782651 0
M  V30 47 H 43.228415 32.742484 66.297515 0
M  V30 48 H 39.943750 35.338060 66.020338 0
M  V30 49 H 40.858002 36.770260 66.163196 0
M  V30 50 H 40.045052 33.103982 64.481269 0
M  V30 51 H 42.845014 32.197652 63.685639 0
M  V30 52 H 36.963877 33.268350 57.347032 0
M  V30 53 H 38.485207 33.770046 58.017781 0
M  V30 54 H 42.844880 35.107433 66.472238 0
M  V30 55 H 39.272014 30.081963 58.574634 0
M  V30 56 H 39.613768 31.978171 57.366794 0
M  V30 57 H 43.410116 28.004480 66.902490 0
M  V30 58 H 42.410092 26.799076 66.098174 0
M  V30 59 H 43.641365 27.665924 65.189631 0
M  V30 60 H 37.953989 37.263311 59.340604 0
M  V30 61 H 37.289405 35.621409 59.356063 0
M  V30 62 H 36.551928 36.882742 60.348194 0
M  V30 63 H 40.046865 30.088276 55.952207 0
M  V30 64 H 39.364851 32.060062 59.872395 0
M  V30 65 H 38.559102 28.404367 57.137371 0
M  V30 66 H 37.643683 28.222614 55.643532 0
M  V30 67 H 39.332397 27.762803 55.701869 0
M  V30 68 H 42.045043 34.502642 62.716286 0
M  V30 69 H 39.212301 29.196619 65.597093 0
M  V30 70 H 41.375156 28.546287 64.688347 0
M  V30 71 H 43.075541 30.538428 66.265031 0
M  V30 72 H 43.328803 30.077724 64.585109 0
M  V30 73 H 39.518512 31.091074 63.953763 0
M  V30 74 H 42.283454 36.137713 64.286019 0
M  V30 75 H 38.845427 31.763957 52.888083 0
M  V30 76 H 40.156129 31.737781 54.046852 0
M  V30 77 H 37.488777 31.337872 62.967741 0
M  V30 78 H 38.169027 32.672743 62.079528 0
M  V30 79 H 37.113079 30.719403 56.151207 0
M  V30 80 H 38.428402 36.807492 65.069544 0
M  V30 81 H 39.646154 37.898192 64.502135 0
M  V30 82 H 37.620267 30.204285 58.460782 0
M  V30 83 H 39.816888 29.541482 53.734442 0
M  V30 END ATOM
M  V30 BEGIN BOND
M  V30 1 1 3 1
M  V30 2 1 11 8
M  V30 3 1 11 10
M  V30 4 1 12 5
M  V30 5 2 13 8
M  V30 6 2 14 2
M  V30 7 1 15 2
M  V30 8 1 17 12
M  V30 9 1 17 16
M  V30 10 1 21 10
M  V30 11 1 22 14
M  V30 12 1 23 7
M  V30 13 1 24 5
M  V30 14 1 24 6
M  V30 15 1 24 16
M  V30 16 1 25 23
M  V30 17 1 26 10
M  V30 18 1 26 14
M  V30 19 1 27 6
M  V30 20 2 27 20
M  V30 21 2 28 15
M  V30 22 1 28 19
M  V30 23 1 28 22
M  V30 24 1 29 4
M  V30 25 1 30 4
M  V30 26 1 30 18
M  V30 27 1 31 30
M  V30 28 1 32 21
M  V30 29 1 33 11
M  V30 30 1 33 31
M  V30 31 1 34 9
M  V30 32 1 34 13
M  V30 33 1 34 26
M  V30 34 1 35 27
M  V30 35 1 35 32
M  V30 36 1 36 3
M  V30 37 1 36 7
M  V30 38 1 37 6
M  V30 39 1 37 32
M  V30 40 1 38 3
M  V30 41 1 38 17
M  V30 42 1 38 23
M  V30 43 1 39 2
M  V30 44 1 39 9
M  V30 45 1 3 40 CFG=3
M  V30 46 1 41 4
M  V30 47 1 42 4
M  V30 48 1 43 5
M  V30 49 1 44 5
M  V30 50 1 6 45 CFG=3
M  V30 51 1 46 7
M  V30 52 1 47 8
M  V30 53 1 48 9
M  V30 54 1 49 9
M  V30 55 1 10 50 CFG=1
M  V30 56 1 11 51 CFG=3
M  V30 57 1 52 12
M  V30 58 1 53 12
M  V30 59 1 54 13
M  V30 60 1 55 16
M  V30 61 1 17 56 CFG=3
M  V30 62 1 57 18
M  V30 63 1 58 18
M  V30 64 1 59 18
M  V30 65 1 60 19
M  V30 66 1 61 19
M  V30 67 1 62 19
M  V30 68 1 23 63 CFG=1
M  V30 69 1 24 64 CFG=1
M  V30 70 1 65 25
M  V30 71 1 66 25
M  V30 72 1 67 25
M  V30 73 1 26 68 CFG=3
M  V30 74 1 69 29
M  V30 75 1 30 70 CFG=3
M  V30 76 1 71 31
M  V30 77 1 72 31
M  V30 78 1 32 73 CFG=1
M  V30 79 1 34 74 CFG=3
M  V30 80 1 75 36
M  V30 81 1 76 36
M  V30 82 1 77 37
M  V30 83 1 78 37
M  V30 84 1 38 79 CFG=1
M  V30 85 1 80 39
M  V30 86 1 81 39
M  V30 87 1 82 16
M  V30 88 1 83 7
M  V30 END BOND
M  V30 END CTAB
M  END
>  <i_epik_Tot_Q>  (1) 
2

>  <i_epik_Tot_abs_Q>  (1) 
2

>  <i_i_glide_confnum>  (1) 
466

>  <i_i_glide_lignum>  (1) 
140

>  <i_i_glide_posenum>  (1) 
112

>  <i_i_glide_rotatable_bonds>  (1) 
9

>  <i_lp_mmshare_version>  (1) 
72125

>  <i_m_source_file_index>  (1) 
64

>  <i_f3d_flags>  (1) 
0

>  <num_sample>  (1) 
100

>  <b_lp_Chiralities_Consistent>  (1) 
1

>  <r_epik_Charging_Adjusted_Penalty>  (1) 
0.080070908620723774

>  <r_epik_Ionization_Penalty>  (1) 
0.041568301575603359

>  <r_epik_Ionization_Penalty_Charging>  (1) 
0.040241786303222601

>  <r_epik_Ionization_Penalty_Neutral>  (1) 
0.0013265152723807572

>  <r_epik_State_Penalty>  (1) 
0.039829122317501166

>  <r_glide_ring_energy>  (1) 
0.99687478685236663

>  <r_i_docking_score>  (1) 
-7.1740700855145381

>  <r_i_glide_ecoul>  (1) 
-5.0614362500053867

>  <r_i_glide_eff_state_penalty>  (1) 
0.039829122317501166

>  <r_i_glide_einternal>  (1) 
7.4276036614047527

>  <r_i_glide_emodel>  (1) 
-63.489588861764204

>  <r_i_glide_emodel_strain>  (1) 
0.037517980161680953

>  <r_i_glide_energy>  (1) 
-48.741183241106484

>  <r_i_glide_erotb>  (1) 
0.43483266289788453

>  <r_i_glide_esite>  (1) 
-0.037755623450801565

>  <r_i_glide_evdw>  (1) 
-43.679746991101098

>  <r_i_glide_gscore>  (1) 
-7.2138992078320392

>  <r_i_glide_gscore_strain>  (1) 
0

>  <r_i_glide_hbond>  (1) 
-0.32000000000000001

>  <r_i_glide_ligand_efficiency>  (1) 
-0.18395051501319329

>  <r_i_glide_ligand_efficiency_ln>  (1) 
-1.538324274424119

>  <r_i_glide_ligand_efficiency_sa>  (1) 
-0.62381509146109038

>  <r_i_glide_lipo>  (1) 
-2.9488561134691431

>  <r_i_glide_metal>  (1) 
-0

>  <r_i_glide_rewards>  (1) 
-1.3989173467541156

>  <r_lp_Energy>  (1) 
33.407150000000001

>  <s_epik_Chemistry_Notes>  (1) 
This compound has an ester and may undergo hydrolysis at high or low pH. This compound contains an acetal/aminal-like group ( X-CH(R)-Y where X, Y are N, S, or O) that may be acid/base labile, releasing an aldehyde.

>  <s_epik_cmdline>  (1) 
J2VwaWtfcHl0aG9uJywgJy1waHQnLCAnMS4wJywgJy1waCcsICc3LjQnLCAnLXRuJywgJzgnLCAnLW1hJywgJzUwMCcsICctaW1hZScsICc8aW5maWxlLm1hZT4nLCAnLW9tYWUnLCAnPG91dGZpbGUubWFlPic=

>  <s_epik_input>  (1) 
RltDQEhdMVtDSDJdW05IXVtDQEhdKFtDSDNdKVtDQEhdMVtDQEhdMltDSDJdW0NIMl1bQ0BIXShbTkhdMilbQ0BIXTNDKD1PKU9bQ0BIXShbQ0gyXTMpT1tDQEhdNFtDQEhdKE9bQ0gyXVtDQEBIXShbQ0gzXSlbQ0gyXVtPSF0pW0NIXT1bQ0hdW0NASF0oW0NIMl1bQ0gyXTUpW0NAQEhdNGMoYzU2KXNjKG42KVtDSDNd

>  <s_glide_docking_method>  (1) 
confgen

>  <s_i_glide_gridfile>  (1) 
gpcr_5ht2c_6bqh_protein_autoprepared_prepared

>  <s_lp_Force_Field>  (1) 
S-OPLS

>  <s_lp_Variant>  (1) 
DiffSBDD_63-2

>  <s_m_source_file>  (1) 
generated_GPCR_5HT2C_ligand_DiffSBDD_2026-06-23_prepared.sdf

>  <GenAI_Model>  (1) 
DiffSBDD

>  <Protein>  (1) 
GPCR_5HT2C

$$$$
DiffSBDD_53
     RDKit          3D

  0  0  0  0  0  0  0  0  0  0999 V3000
M  V30 BEGIN CTAB
M  V30 COUNTS 82 86 0 0 1
M  V30 BEGIN ATOM
M  V30 1 C 37.839722 28.663476 58.779812 0
M  V30 2 C 37.400959 35.887046 62.170655 0
M  V30 3 C 40.845146 33.582963 64.680766 0
M  V30 4 C 36.550762 29.503638 58.710540 0
M  V30 5 C 40.082265 34.643532 61.795495 0
M  V30 6 C 39.048260 29.881342 54.134189 0
M  V30 7 C 37.847434 25.657305 55.351718 0
M  V30 8 N 37.793911 27.602536 57.767702 0
M  V30 9 N 40.843643 36.295879 66.462134 0 CHG=1
M  V30 10 C 37.034192 36.996931 59.470703 0
M  V30 11 C 39.057945 27.339961 57.107745 0 CFG=1
M  V30 12 N 36.848023 30.937497 58.692572 0 CHG=1
M  V30 13 C 39.697728 33.521695 62.410066 0
M  V30 14 C 39.277042 35.130400 60.631401 0
M  V30 15 C 38.978083 26.058843 56.282837 0 CFG=1
M  V30 16 C 37.542737 33.487477 61.226981 0 CFG=1
M  V30 17 C 39.447593 28.549307 56.244137 0 CFG=2
M  V30 18 C 41.893108 35.364440 66.011721 0
M  V30 19 O 39.638656 24.964321 56.880137 0
M  V30 20 C 36.832810 31.572525 60.138664 0
M  V30 21 C 37.507127 37.389919 61.928568 0
M  V30 22 C 36.699675 37.825144 60.718824 0
M  V30 23 C 37.793665 35.013584 60.940058 0
M  V30 24 O 37.432508 32.815784 60.005124 0
M  V30 25 C 36.931373 35.479476 59.734807 0
M  V30 26 C 38.787636 28.539181 54.852516 0 CFG=2
M  V30 27 O 40.845100 28.531045 56.167826 0
M  V30 28 C 41.836530 35.488613 63.446215 0
M  V30 29 N 39.245026 27.352131 54.072792 0 CFG=2 CHG=1
M  V30 30 O 38.544476 32.869629 62.024184 0
M  V30 31 C 38.710729 27.261890 52.692016 0
M  V30 32 C 39.194270 26.036751 54.776229 0 CFG=2
M  V30 33 C 41.245090 35.427939 62.211032 0
M  V30 34 C 40.436529 32.813171 63.486489 0
M  V30 35 C 41.486241 34.761337 64.680850 0
M  V30 36 H 38.044765 28.251697 59.769849 0
M  V30 37 H 38.691859 29.323089 58.632648 0
M  V30 38 H 36.387807 35.649453 62.495491 0
M  V30 39 H 38.049243 35.737698 63.028948 0
M  V30 40 H 40.630012 33.109601 65.628952 0
M  V30 41 H 36.046565 29.334865 57.764588 0
M  V30 42 H 35.833084 29.258209 59.492645 0
M  V30 43 H 38.784884 30.723309 54.776484 0
M  V30 44 H 40.095940 29.998749 53.860153 0
M  V30 45 H 38.443514 29.990681 53.235264 0
M  V30 46 H 37.573395 24.604684 55.320814 0
M  V30 47 H 37.011722 26.344002 55.240238 0
M  V30 48 H 37.452350 26.739003 58.184248 0
M  V30 49 H 41.060802 36.649193 67.383629 0
M  V30 50 H 40.808421 37.065217 65.801880 0
M  V30 51 H 38.034217 37.260337 59.127188 0
M  V30 52 H 36.360019 37.263617 58.656290 0
M  V30 53 H 39.816512 27.192345 57.880005 0
M  V30 54 H 37.748141 31.073930 58.259740 0
M  V30 55 H 39.573309 36.137665 60.388178 0
M  V30 56 H 39.536332 34.518056 59.768313 0
M  V30 57 H 36.599302 33.388128 61.768011 0
M  V30 58 H 39.209131 29.500235 56.710399 0
M  V30 59 H 42.043129 34.586085 66.760755 0
M  V30 60 H 42.834633 35.905283 65.911497 0
M  V30 61 H 40.575112 25.068751 56.768378 0
M  V30 62 H 35.801700 31.651668 60.485100 0
M  V30 63 H 37.410526 30.942305 60.815684 0
M  V30 64 H 38.548392 37.680748 61.796577 0
M  V30 65 H 37.144101 37.913321 62.811506 0
M  V30 66 H 36.886476 38.886479 60.567502 0
M  V30 67 H 35.644476 37.737816 60.943338 0
M  V30 68 H 37.225327 34.956010 58.823434 0
M  V30 69 H 35.887779 35.214981 59.905824 0
M  V30 70 H 37.709418 28.471593 54.991919 0
M  V30 71 H 41.203911 28.540451 57.043635 0
M  V30 72 H 42.641600 36.202403 63.539084 0
M  V30 73 H 37.637339 27.074831 52.690461 0
M  V30 74 H 38.903978 28.161255 52.109878 0
M  V30 75 H 39.202814 26.453157 52.154761 0
M  V30 76 H 39.828029 25.271754 54.332194 0
M  V30 77 H 41.645925 36.101379 61.466239 0
M  V30 78 H 39.824800 31.977460 63.826440 0
M  V30 79 H 41.329763 32.362829 63.052168 0
M  V30 80 H 40.234642 27.519761 53.973989 0
M  V30 81 H 39.950620 35.826015 66.479377 0
M  V30 82 H 36.161673 31.388089 58.064010 0
M  V30 END ATOM
M  V30 BEGIN BOND
M  V30 1 1 4 1
M  V30 2 1 8 1
M  V30 3 1 11 8
M  V30 4 1 12 4
M  V30 5 2 13 5
M  V30 6 1 14 5
M  V30 7 1 15 7
M  V30 8 1 15 11
M  V30 9 1 17 11
M  V30 10 1 18 9
M  V30 11 1 15 19 CFG=1
M  V30 12 1 20 12
M  V30 13 1 21 2
M  V30 14 1 22 10
M  V30 15 1 22 21
M  V30 16 1 23 2
M  V30 17 1 23 14
M  V30 18 1 23 16
M  V30 19 1 24 16
M  V30 20 1 24 20
M  V30 21 1 25 10
M  V30 22 1 25 23
M  V30 23 1 26 6
M  V30 24 1 26 17
M  V30 25 1 27 17
M  V30 26 1 29 26
M  V30 27 1 30 13
M  V30 28 1 30 16
M  V30 29 1 31 29
M  V30 30 1 32 7
M  V30 31 1 32 15
M  V30 32 1 32 29
M  V30 33 1 33 5
M  V30 34 2 33 28
M  V30 35 1 34 3
M  V30 36 1 34 13
M  V30 37 2 35 3
M  V30 38 1 35 18
M  V30 39 1 35 28
M  V30 40 1 36 1
M  V30 41 1 37 1
M  V30 42 1 38 2
M  V30 43 1 39 2
M  V30 44 1 40 3
M  V30 45 1 41 4
M  V30 46 1 42 4
M  V30 47 1 43 6
M  V30 48 1 44 6
M  V30 49 1 45 6
M  V30 50 1 46 7
M  V30 51 1 47 7
M  V30 52 1 48 8
M  V30 53 1 49 9
M  V30 54 1 50 9
M  V30 55 1 51 10
M  V30 56 1 52 10
M  V30 57 1 11 53 CFG=1
M  V30 58 1 54 12
M  V30 59 1 55 14
M  V30 60 1 56 14
M  V30 61 1 16 57 CFG=1
M  V30 62 1 17 58 CFG=1
M  V30 63 1 59 18
M  V30 64 1 60 18
M  V30 65 1 61 19
M  V30 66 1 62 20
M  V30 67 1 63 20
M  V30 68 1 64 21
M  V30 69 1 65 21
M  V30 70 1 66 22
M  V30 71 1 67 22
M  V30 72 1 68 25
M  V30 73 1 69 25
M  V30 74 1 26 70 CFG=1
M  V30 75 1 71 27
M  V30 76 1 72 28
M  V30 77 1 73 31
M  V30 78 1 74 31
M  V30 79 1 75 31
M  V30 80 1 32 76 CFG=1
M  V30 81 1 77 33
M  V30 82 1 78 34
M  V30 83 1 79 34
M  V30 84 1 29 80 CFG=3
M  V30 85 1 81 9
M  V30 86 1 82 12
M  V30 END BOND
M  V30 END CTAB
M  END
>  <i_epik_Tot_Q>  (1) 
3

>  <i_epik_Tot_abs_Q>  (1) 
3

>  <i_i_glide_confnum>  (1) 
269

>  <i_i_glide_lignum>  (1) 
113

>  <i_i_glide_posenum>  (1) 
163

>  <i_i_glide_rotatable_bonds>  (1) 
10

>  <i_lp_mmshare_version>  (1) 
72125

>  <i_m_source_file_index>  (1) 
54

>  <i_f3d_flags>  (1) 
0

>  <num_sample>  (1) 
100

>  <b_lp_Chiralities_Consistent>  (1) 
1

>  <r_epik_Charging_Adjusted_Penalty>  (1) 
1.5449594399157651

>  <r_epik_Ionization_Penalty>  (1) 
0.47240059175592303

>  <r_epik_Ionization_Penalty_Charging>  (1) 
0.40568266018177357

>  <r_epik_Ionization_Penalty_Neutral>  (1) 
0.066717931574149458

>  <r_epik_State_Penalty>  (1) 
1.1392767797339916

>  <r_glide_ring_energy>  (1) 
0.00062895299044794274

>  <r_i_docking_score>  (1) 
-7.1693729484994009

>  <r_i_glide_ecoul>  (1) 
-9.5146405817596715

>  <r_i_glide_eff_state_penalty>  (1) 
1.1392767797339916

>  <r_i_glide_einternal>  (1) 
10.688158822322084

>  <r_i_glide_emodel>  (1) 
-59.566809971483771

>  <r_i_glide_emodel_strain>  (1) 
1.3052569084453296

>  <r_i_glide_energy>  (1) 
-45.251641552129129

>  <r_i_glide_erotb>  (1) 
0.58947078011706677

>  <r_i_glide_esite>  (1) 
-0.15495389109256649

>  <r_i_glide_evdw>  (1) 
-35.737000970369458

>  <r_i_glide_gscore>  (1) 
-8.3086497282333927

>  <r_i_glide_gscore_strain>  (1) 
0

>  <r_i_glide_hbond>  (1) 
-0.40049298818825263

>  <r_i_glide_ligand_efficiency>  (1) 
-0.2048392270999829

>  <r_i_glide_ligand_efficiency_ln>  (1) 
-1.5738364778552856

>  <r_i_glide_ligand_efficiency_sa>  (1) 
-0.67004269477182365

>  <r_i_glide_lipo>  (1) 
-4.3612506419263308

>  <r_i_glide_metal>  (1) 
-0

>  <r_i_glide_rewards>  (1) 
-0.76737685136088585

>  <r_lp_Energy>  (1) 
57.515115999999999

>  <s_epik_Chemistry_Notes>  (1) 
This compound contains an acetal/aminal-like group ( X-CH(R)-Y where X, Y are N, S, or O) that may be acid/base labile, releasing an aldehyde.

>  <s_epik_cmdline>  (1) 
J2VwaWtfcHl0aG9uJywgJy1waHQnLCAnMS4wJywgJy1waCcsICc3LjQnLCAnLXRuJywgJzgnLCAnLW1hJywgJzUwMCcsICctaW1hZScsICc8aW5maWxlLm1hZT4nLCAnLW9tYWUnLCAnPG91dGZpbGUubWFlPic=

>  <s_epik_input>  (1) 
W09IXVtDQEBdMTJbQ0BASF0oW0NIMl0xKU4oW0NIM10pW0NASF0oW0NIM10pW0NASF0oW09IXSlbQ0BIXTJbTkhdW0NIMl1bQ0gyXVtOSF1bQ0gyXU9bQ0BIXTNPQyhbQ0gyXVtDSF09QyhbQ0gyXVtOSDJdKVtDSF09W0NIXTQpPUM0W0NIMl1DMzVbQ0gyXVtDSDJdW0NIMl1bQ0gyXVtDSDJdNQ==

>  <s_glide_docking_method>  (1) 
confgen

>  <s_i_glide_gridfile>  (1) 
gpcr_5ht2c_6bqh_protein_autoprepared_prepared

>  <s_lp_Force_Field>  (1) 
S-OPLS

>  <s_lp_Variant>  (1) 
DiffSBDD_53-5

>  <s_m_source_file>  (1) 
generated_GPCR_5HT2C_ligand_DiffSBDD_2026-06-23_prepared.sdf

>  <GenAI_Model>  (1) 
DiffSBDD

>  <Protein>  (1) 
GPCR_5HT2C

$$$$
DiffSBDD_75
     RDKit          3D

  0  0  0  0  0  0  0  0  0  0999 V3000
M  V30 BEGIN CTAB
M  V30 COUNTS 76 77 0 0 1
M  V30 BEGIN ATOM
M  V30 1 C 38.594785 34.004218 61.313786 0
M  V30 2 C 35.674537 34.528104 59.096808 0
M  V30 3 O 36.798006 29.737755 57.727054 0
M  V30 4 C 39.159520 37.845791 61.746729 0
M  V30 5 C 39.113560 29.883579 55.655328 0 CFG=2
M  V30 6 C 41.316506 34.241026 65.789037 0
M  V30 7 C 38.095963 30.114327 58.116867 0 CFG=2
M  V30 8 C 41.306717 33.264379 66.806668 0
M  V30 9 O 37.245250 29.485735 54.168115 0
M  V30 10 C 39.460959 28.006746 57.335936 0 CFG=2
M  V30 11 O 40.045456 35.237516 69.642838 0
M  V30 12 S 37.326916 32.043241 59.950176 0
M  V30 13 C 38.444997 38.972189 60.967743 0
M  V30 14 C 40.445188 34.911217 68.384406 0
M  V30 15 C 38.130303 31.633386 58.376378 0
M  V30 16 C 41.805244 33.878406 64.394620 0
M  V30 17 C 40.882060 35.554353 66.072692 0
M  V30 18 O 38.681047 25.781716 56.735632 0
M  V30 19 C 39.733911 27.566473 58.788592 0
M  V30 20 C 39.206593 29.542054 57.174713 0 CFG=1
M  V30 21 O 39.245126 40.137758 60.967761 0
M  V30 22 O 36.556092 34.641990 60.200797 0
M  V30 23 O 41.259864 36.137779 62.820234 0
M  V30 24 C 37.464129 36.484383 62.739727 0
M  V30 25 N 38.451248 36.560614 61.663523 0
M  V30 26 C 40.471621 35.223028 62.599038 0
M  V30 27 C 40.871755 33.600586 68.102385 0
M  V30 28 C 40.710972 33.873891 63.303169 0
M  V30 29 C 39.329441 35.361585 61.536811 0 CFG=1
M  V30 30 C 40.445121 35.887435 67.368522 0
M  V30 31 C 38.156792 27.499041 55.176278 0
M  V30 32 C 37.708710 33.821437 60.076005 0 CFG=1
M  V30 33 C 38.982370 31.378583 55.304082 0
M  V30 34 C 38.351553 27.156942 56.665434 0 CFG=2
M  V30 35 C 38.082546 29.004402 54.928019 0
M  V30 36 H 39.349021 33.222852 61.227073 0
M  V30 37 H 37.990415 33.734695 62.167742 0
M  V30 38 H 34.969890 35.355302 59.076973 0
M  V30 39 H 36.233970 34.537735 58.167798 0
M  V30 40 H 35.096706 33.604341 59.140721 0
M  V30 41 H 36.328777 30.494811 57.367802 0
M  V30 42 H 39.318545 38.130974 62.786897 0
M  V30 43 H 40.173181 37.757371 61.367761 0
M  V30 44 H 38.246389 29.665591 59.096161 0
M  V30 45 H 41.638618 32.258495 66.594930 0
M  V30 46 H 38.992376 27.116279 54.590601 0
M  V30 47 H 40.384441 27.797690 56.792644 0
M  V30 48 H 39.940789 36.170125 69.759167 0
M  V30 49 H 38.259304 38.676596 59.935560 0
M  V30 50 H 37.464775 39.202326 61.382771 0
M  V30 51 H 37.645128 32.200266 57.583911 0
M  V30 52 H 39.159760 31.983075 58.433720 0
M  V30 53 H 42.636543 34.535189 64.137333 0
M  V30 54 H 42.244144 32.881098 64.434535 0
M  V30 55 H 40.888510 36.307007 65.299781 0
M  V30 56 H 39.524773 25.648816 56.331084 0
M  V30 57 H 38.831180 27.581032 59.398290 0
M  V30 58 H 40.111022 26.545121 58.820849 0
M  V30 59 H 40.481223 28.202564 59.263390 0
M  V30 60 H 40.124841 30.008618 57.524051 0
M  V30 61 H 40.068961 39.948736 60.534326 0
M  V30 62 H 36.871371 37.397672 62.797824 0
M  V30 63 H 36.749623 35.682908 62.567523 0
M  V30 64 H 37.941042 36.339014 63.709497 0
M  V30 65 H 40.871318 32.853276 68.881740 0
M  V30 66 H 41.051974 33.191700 62.524941 0
M  V30 67 H 39.781571 33.460245 63.692714 0
M  V30 68 H 39.868564 35.512414 60.601224 0
M  V30 69 H 40.118683 36.894326 67.584178 0
M  V30 70 H 37.254611 27.022646 54.791359 0
M  V30 71 H 40.070231 29.577239 55.231079 0
M  V30 72 H 38.271686 34.129656 59.194086 0
M  V30 73 H 39.219537 31.547396 54.253088 0
M  V30 74 H 37.969050 31.749078 55.461206 0
M  V30 75 H 39.669716 31.988460 55.890427 0
M  V30 76 H 37.409134 27.284495 57.197990 0
M  V30 END ATOM
M  V30 BEGIN BOND
M  V30 1 1 7 3
M  V30 2 1 8 6
M  V30 3 1 13 4
M  V30 4 1 14 11
M  V30 5 1 15 7
M  V30 6 1 15 12
M  V30 7 1 16 6
M  V30 8 2 17 6
M  V30 9 1 19 10
M  V30 10 1 20 5
M  V30 11 1 20 7
M  V30 12 1 20 10
M  V30 13 1 21 13
M  V30 14 1 22 2
M  V30 15 1 25 4
M  V30 16 1 25 24
M  V30 17 2 26 23
M  V30 18 2 27 8
M  V30 19 1 27 14
M  V30 20 1 28 16
M  V30 21 1 28 26
M  V30 22 1 29 1
M  V30 23 1 29 25
M  V30 24 1 29 26
M  V30 25 2 30 14
M  V30 26 1 30 17
M  V30 27 1 32 1
M  V30 28 1 32 12
M  V30 29 1 32 22
M  V30 30 1 33 5
M  V30 31 1 34 10
M  V30 32 1 34 18
M  V30 33 1 34 31
M  V30 34 1 35 5
M  V30 35 2 35 9
M  V30 36 1 35 31
M  V30 37 1 36 1
M  V30 38 1 37 1
M  V30 39 1 38 2
M  V30 40 1 39 2
M  V30 41 1 40 2
M  V30 42 1 41 3
M  V30 43 1 42 4
M  V30 44 1 43 4
M  V30 45 1 7 44 CFG=1
M  V30 46 1 45 8
M  V30 47 1 46 31
M  V30 48 1 10 47 CFG=3
M  V30 49 1 48 11
M  V30 50 1 49 13
M  V30 51 1 50 13
M  V30 52 1 51 15
M  V30 53 1 52 15
M  V30 54 1 53 16
M  V30 55 1 54 16
M  V30 56 1 55 17
M  V30 57 1 56 18
M  V30 58 1 57 19
M  V30 59 1 58 19
M  V30 60 1 59 19
M  V30 61 1 20 60 CFG=1
M  V30 62 1 61 21
M  V30 63 1 62 24
M  V30 64 1 63 24
M  V30 65 1 64 24
M  V30 66 1 65 27
M  V30 67 1 66 28
M  V30 68 1 67 28
M  V30 69 1 29 68 CFG=3
M  V30 70 1 69 30
M  V30 71 1 70 31
M  V30 72 1 5 71 CFG=3
M  V30 73 1 32 72 CFG=3
M  V30 74 1 73 33
M  V30 75 1 74 33
M  V30 76 1 75 33
M  V30 77 1 34 76 CFG=1
M  V30 END BOND
M  V30 END CTAB
M  END
>  <i_epik_Tot_Q>  (1) 
0

>  <i_epik_Tot_abs_Q>  (1) 
0

>  <i_i_glide_confnum>  (1) 
8012

>  <i_i_glide_lignum>  (1) 
173

>  <i_i_glide_posenum>  (1) 
225

>  <i_i_glide_rotatable_bonds>  (1) 
18

>  <i_lp_mmshare_version>  (1) 
72125

>  <i_m_source_file_index>  (1) 
76

>  <i_f3d_flags>  (1) 
0

>  <num_sample>  (1) 
100

>  <b_lp_Chiralities_Consistent>  (1) 
1

>  <r_epik_Charging_Adjusted_Penalty>  (1) 
0.60615279515584763

>  <r_epik_Ionization_Penalty>  (1) 
0.6077244911787385

>  <r_epik_Ionization_Penalty_Charging>  (1) 
0

>  <r_epik_Ionization_Penalty_Neutral>  (1) 
0.6077244911787385

>  <r_epik_State_Penalty>  (1) 
0.60615279515584763

>  <r_glide_ring_energy>  (1) 
0

>  <r_i_docking_score>  (1) 
-7.1662048753167662

>  <r_i_glide_ecoul>  (1) 
-12.001217166184871

>  <r_i_glide_eff_state_penalty>  (1) 
0.60615279515584763

>  <r_i_glide_einternal>  (1) 
15.1599185481227

>  <r_i_glide_emodel>  (1) 
-75.815577681457029

>  <r_i_glide_emodel_strain>  (1) 
2.0116238033596545

>  <r_i_glide_energy>  (1) 
-59.442073864888663

>  <r_i_glide_erotb>  (1) 
1.0176109525924779

>  <r_i_glide_esite>  (1) 
0

>  <r_i_glide_evdw>  (1) 
-47.44085669870379

>  <r_i_glide_gscore>  (1) 
-7.7723576704726138

>  <r_i_glide_gscore_strain>  (1) 
0

>  <r_i_glide_hbond>  (1) 
-0.53999325163990608

>  <r_i_glide_ligand_efficiency>  (1) 
-0.20474871072333617

>  <r_i_glide_ligand_efficiency_ln>  (1) 
-1.5731410154801013

>  <r_i_glide_ligand_efficiency_sa>  (1) 
-0.66974660970165434

>  <r_i_glide_lipo>  (1) 
-3.2509156305925333

>  <r_i_glide_metal>  (1) 
-0

>  <r_i_glide_rewards>  (1) 
-0.82683433096973313

>  <r_lp_Energy>  (1) 
28.00357

>  <r_lp_tautomer_probability>  (1) 
0.99999993999736703

>  <s_epik_Chemistry_Notes>  (1) 
This compound contains an acetal/aminal-like group ( X-CH(R)-Y where X, Y are N, S, or O) that may be acid/base labile, releasing an aldehyde.

>  <s_epik_cmdline>  (1) 
J2VwaWtfcHl0aG9uJywgJy1waHQnLCAnMS4wJywgJy1waCcsICc3LjQnLCAnLXRuJywgJzgnLCAnLW1hJywgJzUwMCcsICctaW1hZScsICc8aW5maWxlLm1hZT4nLCAnLW9tYWUnLCAnPG91dGZpbGUubWFlPic=

>  <s_epik_input>  (1) 
W2NIXTFbY0hdYyhbT0hdKVtjSF1bY0hdYzFbQ0gyXVtDSDJdQyg9TylbQ0BIXShOKFtDSDNdKVtDSDJdW0NIMl1bT0hdKVtDSDJdW0NASF0oT1tDSDNdKVNbQ0gyXVtDQEBIXShbT0hdKVtDQEhdMltDQEBIXShbQ0gzXSlbQ0BIXShbT0hdKVtDSDJdQyhbT0hdKT1DMltDSDNd

>  <s_glide_docking_method>  (1) 
confgen

>  <s_i_glide_gridfile>  (1) 
gpcr_5ht2c_6bqh_protein_autoprepared_prepared

>  <s_lp_Force_Field>  (1) 
S-OPLS

>  <s_lp_Variant>  (1) 
DiffSBDD_75-10

>  <s_m_source_file>  (1) 
generated_GPCR_5HT2C_ligand_DiffSBDD_2026-06-23_prepared.sdf

>  <GenAI_Model>  (1) 
DiffSBDD

>  <Protein>  (1) 
GPCR_5HT2C

$$$$
DiffSBDD_63
     RDKit          3D

  0  0  0  0  0  0  0  0  0  0999 V3000
M  V30 BEGIN CTAB
M  V30 COUNTS 83 88 0 0 1
M  V30 BEGIN ATOM
M  V30 1 F 37.835976 28.232308 55.114648 0
M  V30 2 C 39.645225 36.325348 63.981480 0
M  V30 3 C 38.677070 29.264961 55.078806 0 CFG=1
M  V30 4 C 44.837373 29.006488 66.261673 0
M  V30 5 C 39.023888 28.127174 59.274071 0
M  V30 6 C 39.122592 30.052437 61.027539 0 CFG=1
M  V30 7 N 37.563008 31.351505 54.764237 0 CHG=1
M  V30 8 C 42.663774 32.855268 66.143488 0
M  V30 9 C 40.471972 35.700569 66.255470 0
M  V30 10 C 41.078637 33.013108 64.173690 0 CFG=2
M  V30 11 C 42.188791 32.181725 64.873406 0 CFG=2
M  V30 12 C 38.313882 28.009444 57.925843 0
M  V30 13 C 42.445177 34.142652 66.436854 0
M  V30 14 C 40.445112 35.372844 63.402924 0
M  V30 15 N 38.781238 36.937752 63.069061 0
M  V30 16 N 38.000650 30.207202 58.798561 0 CHG=1
M  V30 17 C 37.869884 29.437823 57.545345 0 CFG=1
M  V30 18 C 42.533076 28.236976 67.007733 0
M  V30 19 C 38.023676 36.905609 60.705254 0
M  V30 20 O 40.565672 28.254482 61.753329 0
M  V30 21 O 40.899294 32.566743 62.828147 0
M  V30 22 S 40.151544 35.263982 61.677069 0
M  V30 23 C 38.300489 31.489459 56.024750 0 CFG=2
M  V30 24 C 39.131038 29.631283 59.544879 0 CFG=2
M  V30 25 C 39.487810 32.440411 55.838609 0
M  V30 26 C 41.459911 34.520428 64.102521 0 CFG=1
M  V30 27 C 40.203790 29.418878 61.892249 0
M  V30 28 C 38.889538 36.463962 61.834112 0
M  V30 29 O 45.645138 30.144251 66.012413 0
M  V30 30 C 43.349077 29.390315 66.403076 0 CFG=2
M  V30 31 C 42.740192 29.839655 65.055614 0
M  V30 32 C 40.038469 31.487227 62.681903 0 CFG=2
M  V30 33 O 41.742718 30.861317 65.185092 0
M  V30 34 C 41.720251 35.114224 65.526949 0 CFG=1
M  V30 35 O 40.686734 30.264278 62.786803 0
M  V30 36 C 38.161010 30.232225 54.022174 0
M  V30 37 C 39.435461 31.520186 61.275043 0
M  V30 38 C 38.733397 30.054243 56.410525 0 CFG=2
M  V30 39 C 39.634172 36.704980 65.425248 0
M  V30 40 H 39.649678 28.858560 54.801135 0
M  V30 41 H 44.981363 28.275963 65.465086 0
M  V30 42 H 45.194700 28.545618 67.182945 0
M  V30 43 H 40.002438 27.645771 59.254172 0
M  V30 44 H 38.445220 27.639199 60.055630 0
M  V30 45 H 38.167603 29.808574 61.485291 0
M  V30 46 H 37.566027 32.214312 54.238160 0
M  V30 47 H 43.203388 32.242579 66.843381 0
M  V30 48 H 39.834761 34.873145 66.567788 0
M  V30 49 H 40.772120 36.181793 67.186865 0
M  V30 50 H 40.146827 32.935024 64.735416 0
M  V30 51 H 43.021786 32.137737 64.180009 0
M  V30 52 H 38.985031 27.568914 57.188376 0
M  V30 53 H 37.453792 27.343899 58.002800 0
M  V30 54 H 42.814202 34.537600 67.367890 0
M  V30 55 H 37.156665 30.059688 59.335861 0
M  V30 56 H 36.821890 29.447333 57.243634 0
M  V30 57 H 42.563606 27.350495 66.373227 0
M  V30 58 H 42.915347 27.955127 67.989271 0
M  V30 59 H 41.487163 28.519999 67.131992 0
M  V30 60 H 36.995328 36.591358 60.883942 0
M  V30 61 H 38.044998 37.991708 60.613624 0
M  V30 62 H 38.361082 36.464832 59.769682 0
M  V30 63 H 37.645144 31.935152 56.769910 0
M  V30 64 H 40.045240 29.988395 59.076700 0
M  V30 65 H 39.958594 32.668068 56.792600 0
M  V30 66 H 40.244276 32.002162 55.188852 0
M  V30 67 H 39.172756 33.389895 55.403818 0
M  V30 68 H 42.395735 34.588104 63.547970 0
M  V30 69 H 46.561110 29.886781 66.167762 0
M  V30 70 H 43.299510 30.200775 67.124253 0
M  V30 71 H 43.521298 30.118805 64.347818 0
M  V30 72 H 42.259688 28.981250 64.585830 0
M  V30 73 H 39.245540 31.511056 63.428932 0
M  V30 74 H 42.402439 35.955560 65.386471 0
M  V30 75 H 38.983221 30.610149 53.413285 0
M  V30 76 H 37.445796 29.738263 53.367634 0
M  V30 77 H 38.562366 32.173621 61.254733 0
M  V30 78 H 40.179306 31.897769 60.569879 0
M  V30 79 H 39.771237 30.070239 56.745911 0
M  V30 80 H 38.615479 36.748426 65.811634 0
M  V30 81 H 40.044253 37.706341 65.546168 0
M  V30 82 H 38.111887 31.197243 58.631574 0
M  V30 83 H 36.606553 31.130813 55.015748 0
M  V30 END ATOM
M  V30 BEGIN BOND
M  V30 1 1 3 1
M  V30 2 1 11 8
M  V30 3 1 11 10
M  V30 4 1 12 5
M  V30 5 2 13 8
M  V30 6 2 14 2
M  V30 7 1 15 2
M  V30 8 1 17 12
M  V30 9 1 17 16
M  V30 10 1 21 10
M  V30 11 1 22 14
M  V30 12 1 23 7
M  V30 13 1 24 5
M  V30 14 1 24 6
M  V30 15 1 24 16
M  V30 16 1 25 23
M  V30 17 1 26 10
M  V30 18 1 26 14
M  V30 19 1 27 6
M  V30 20 2 27 20
M  V30 21 2 28 15
M  V30 22 1 28 19
M  V30 23 1 28 22
M  V30 24 1 29 4
M  V30 25 1 30 4
M  V30 26 1 30 18
M  V30 27 1 31 30
M  V30 28 1 32 21
M  V30 29 1 33 11
M  V30 30 1 33 31
M  V30 31 1 34 9
M  V30 32 1 34 13
M  V30 33 1 34 26
M  V30 34 1 35 27
M  V30 35 1 35 32
M  V30 36 1 36 3
M  V30 37 1 36 7
M  V30 38 1 37 6
M  V30 39 1 37 32
M  V30 40 1 38 3
M  V30 41 1 38 17
M  V30 42 1 38 23
M  V30 43 1 39 2
M  V30 44 1 39 9
M  V30 45 1 3 40 CFG=3
M  V30 46 1 41 4
M  V30 47 1 42 4
M  V30 48 1 43 5
M  V30 49 1 44 5
M  V30 50 1 6 45 CFG=1
M  V30 51 1 46 7
M  V30 52 1 47 8
M  V30 53 1 48 9
M  V30 54 1 49 9
M  V30 55 1 10 50 CFG=1
M  V30 56 1 11 51 CFG=3
M  V30 57 1 52 12
M  V30 58 1 53 12
M  V30 59 1 54 13
M  V30 60 1 55 16
M  V30 61 1 17 56 CFG=3
M  V30 62 1 57 18
M  V30 63 1 58 18
M  V30 64 1 59 18
M  V30 65 1 60 19
M  V30 66 1 61 19
M  V30 67 1 62 19
M  V30 68 1 23 63 CFG=1
M  V30 69 1 24 64 CFG=3
M  V30 70 1 65 25
M  V30 71 1 66 25
M  V30 72 1 67 25
M  V30 73 1 26 68 CFG=3
M  V30 74 1 69 29
M  V30 75 1 30 70 CFG=1
M  V30 76 1 71 31
M  V30 77 1 72 31
M  V30 78 1 32 73 CFG=1
M  V30 79 1 34 74 CFG=3
M  V30 80 1 75 36
M  V30 81 1 76 36
M  V30 82 1 77 37
M  V30 83 1 78 37
M  V30 84 1 38 79 CFG=1
M  V30 85 1 80 39
M  V30 86 1 81 39
M  V30 87 1 82 16
M  V30 88 1 83 7
M  V30 END BOND
M  V30 END CTAB
M  END
>  <i_epik_Tot_Q>  (1) 
2

>  <i_epik_Tot_abs_Q>  (1) 
2

>  <i_i_glide_confnum>  (1) 
120

>  <i_i_glide_lignum>  (1) 
139

>  <i_i_glide_posenum>  (1) 
39

>  <i_i_glide_rotatable_bonds>  (1) 
9

>  <i_lp_mmshare_version>  (1) 
72125

>  <i_m_source_file_index>  (1) 
64

>  <i_f3d_flags>  (1) 
0

>  <num_sample>  (1) 
100

>  <b_lp_Chiralities_Consistent>  (1) 
1

>  <r_epik_Charging_Adjusted_Penalty>  (1) 
0.080070908620723774

>  <r_epik_Ionization_Penalty>  (1) 
0.041568301575603359

>  <r_epik_Ionization_Penalty_Charging>  (1) 
0.040241786303222601

>  <r_epik_Ionization_Penalty_Neutral>  (1) 
0.0013265152723807572

>  <r_epik_State_Penalty>  (1) 
0.039829122317501166

>  <r_glide_ring_energy>  (1) 
0.79944395753776076

>  <r_i_docking_score>  (1) 
-7.1608308772061271

>  <r_i_glide_ecoul>  (1) 
-9.0129241194141194

>  <r_i_glide_eff_state_penalty>  (1) 
0.039829122317501166

>  <r_i_glide_einternal>  (1) 
10.230159637512157

>  <r_i_glide_emodel>  (1) 
-62.274964681400157

>  <r_i_glide_emodel_strain>  (1) 
7.351858486165348

>  <r_i_glide_energy>  (1) 
-48.628602425722306

>  <r_i_glide_erotb>  (1) 
0.43483266289788453

>  <r_i_glide_esite>  (1) 
-0.12742386577969664

>  <r_i_glide_evdw>  (1) 
-39.615678306308183

>  <r_i_glide_gscore>  (1) 
-7.2006599995236282

>  <r_i_glide_gscore_strain>  (1) 
0.837964621541337

>  <r_i_glide_hbond>  (1) 
-0.35034339097566258

>  <r_i_glide_ligand_efficiency>  (1) 
-0.18361104813349044

>  <r_i_glide_ligand_efficiency_ln>  (1) 
-1.5354854123455191

>  <r_i_glide_ligand_efficiency_sa>  (1) 
-0.62266388749411783

>  <r_i_glide_lipo>  (1) 
-3.5479553285362933

>  <r_i_glide_metal>  (1) 
-0

>  <r_i_glide_rewards>  (1) 
-1.1150121654436689

>  <r_lp_Energy>  (1) 
26.901284999999998

>  <s_epik_Chemistry_Notes>  (1) 
This compound has an ester and may undergo hydrolysis at high or low pH. This compound contains an acetal/aminal-like group ( X-CH(R)-Y where X, Y are N, S, or O) that may be acid/base labile, releasing an aldehyde.

>  <s_epik_cmdline>  (1) 
J2VwaWtfcHl0aG9uJywgJy1waHQnLCAnMS4wJywgJy1waCcsICc3LjQnLCAnLXRuJywgJzgnLCAnLW1hJywgJzUwMCcsICctaW1hZScsICc8aW5maWxlLm1hZT4nLCAnLW9tYWUnLCAnPG91dGZpbGUubWFlPic=

>  <s_epik_input>  (1) 
RltDQEhdMVtDSDJdW05IXVtDQEhdKFtDSDNdKVtDQEhdMVtDQEhdMltDSDJdW0NIMl1bQ0BASF0oW05IXTIpW0NASF0zQyg9TylPW0NASF0oW0NIMl0zKU9bQ0BIXTRbQ0BIXShPW0NIMl1bQ0BASF0oW0NIM10pW0NIMl1bT0hdKVtDSF09W0NIXVtDQEhdKFtDSDJdW0NIMl01KVtDQEBIXTRjKGM1NilzYyhuNilbQ0gzXQ==

>  <s_glide_docking_method>  (1) 
confgen

>  <s_i_glide_gridfile>  (1) 
gpcr_5ht2c_6bqh_protein_autoprepared_prepared

>  <s_lp_Force_Field>  (1) 
S-OPLS

>  <s_lp_Variant>  (1) 
DiffSBDD_63-1

>  <s_m_source_file>  (1) 
generated_GPCR_5HT2C_ligand_DiffSBDD_2026-06-23_prepared.sdf

>  <GenAI_Model>  (1) 
DiffSBDD

>  <Protein>  (1) 
GPCR_5HT2C

$$$$
DiffSBDD_25
     RDKit          3D

  0  0  0  0  0  0  0  0  0  0999 V3000
M  V30 BEGIN CTAB
M  V30 COUNTS 68 71 0 0 1
M  V30 BEGIN ATOM
M  V30 1 C 40.635424 35.328291 62.219992 0
M  V30 2 C 38.871824 25.301362 57.735466 0
M  V30 3 O 40.817447 36.509736 62.588705 0 CHG=-1
M  V30 4 C 36.678184 30.514451 59.367552 0
M  V30 5 N 39.737982 31.247732 61.261548 0
M  V30 6 C 38.993733 24.998480 56.249012 0
M  V30 7 C 41.768183 34.455638 64.364287 0
M  V30 8 C 41.701015 32.189571 65.054862 0
M  V30 9 C 37.245133 26.836335 54.690990 0
M  V30 10 C 39.606112 26.121107 55.405252 0
M  V30 11 C 38.655314 27.311654 55.107684 0 CFG=2
M  V30 12 C 40.393662 30.375722 63.881427 0
M  V30 13 O 39.090707 27.145737 52.773802 0
M  V30 14 O 38.550274 33.227190 61.641952 0
M  V30 15 N 38.303478 28.961460 58.638433 0
M  V30 16 C 40.455353 32.825684 63.035770 0
M  V30 17 O 40.253247 35.038814 61.069549 0
M  V30 18 C 38.846922 29.341824 53.569163 0
M  V30 19 C 40.943355 34.190356 63.223584 0
M  V30 20 C 38.609439 28.349641 56.265929 0
M  V30 21 C 38.745001 27.889530 57.740158 0 CFG=2
M  V30 22 C 39.483902 32.462513 61.905580 0
M  V30 23 C 39.263909 29.438918 59.633451 0
M  V30 24 N 42.101098 33.460144 65.207188 0 CHG=1
M  V30 25 C 39.323440 29.321365 52.140021 0
M  V30 26 C 37.048330 29.504354 58.590765 0
M  V30 27 N 42.273281 35.725315 64.644693 0
M  V30 28 N 39.245138 27.989609 53.953259 0
M  V30 29 C 38.078653 26.557365 58.118671 0
M  V30 30 C 38.856765 30.698185 60.475057 0
M  V30 31 C 39.257054 27.510286 50.394529 0
M  V30 32 N 37.516199 31.123314 60.286393 0
M  V30 33 C 38.726936 28.005342 51.716960 0 CFG=1
M  V30 34 C 40.869561 31.822699 63.984002 0
M  V30 35 H 39.867525 25.345989 58.178428 0
M  V30 36 H 38.374347 24.435892 58.167804 0
M  V30 37 H 35.687377 30.945293 59.322217 0
M  V30 38 H 39.645238 24.137844 56.167700 0
M  V30 39 H 38.041463 24.656429 55.845074 0
M  V30 40 H 42.044422 31.496657 65.810642 0
M  V30 41 H 36.693055 26.445970 55.540269 0
M  V30 42 H 36.652291 27.640237 54.254774 0
M  V30 43 H 37.280256 26.032429 53.954639 0
M  V30 44 H 40.531094 26.475570 55.863380 0
M  V30 45 H 39.921472 25.648893 54.474216 0
M  V30 46 H 40.591291 29.845911 64.813533 0
M  V30 47 H 39.317775 30.308797 63.716315 0
M  V30 48 H 40.923417 29.836971 63.096034 0
M  V30 49 H 37.767599 29.485167 53.630715 0
M  V30 50 H 39.341722 30.112596 54.160820 0
M  V30 51 H 37.705351 28.940757 56.123079 0
M  V30 52 H 39.424012 29.065826 56.147719 0
M  V30 53 H 39.811413 27.748370 57.921336 0
M  V30 54 H 39.472056 28.619813 60.322575 0
M  V30 55 H 40.203095 29.660307 59.126042 0
M  V30 56 H 40.414264 29.298694 52.092520 0
M  V30 57 H 38.992626 30.137749 51.515006 0
M  V30 58 H 36.387699 29.048613 57.870262 0
M  V30 59 H 42.007427 36.528997 64.076700 0
M  V30 60 H 42.821285 35.912340 65.468729 0
M  V30 61 H 38.045160 26.537760 59.204628 0
M  V30 62 H 37.047864 26.511265 57.767818 0
M  V30 63 H 38.966843 28.220757 49.625717 0
M  V30 64 H 40.341761 27.424742 50.389215 0
M  V30 65 H 38.831824 26.537771 50.166096 0
M  V30 66 H 37.638622 28.074835 51.673891 0
M  V30 67 H 37.142335 31.922976 60.778272 0
M  V30 68 H 42.695554 33.682782 66.005185 0
M  V30 END ATOM
M  V30 BEGIN BOND
M  V30 1 1 3 1
M  V30 2 1 6 2
M  V30 3 1 10 6
M  V30 4 1 11 9 CFG=3
M  V30 5 1 11 10
M  V30 6 2 17 1
M  V30 7 1 19 1
M  V30 8 2 19 7
M  V30 9 1 19 16
M  V30 10 1 20 11
M  V30 11 1 21 15
M  V30 12 1 21 20
M  V30 13 1 22 5
M  V30 14 2 22 14
M  V30 15 1 22 16
M  V30 16 1 23 15
M  V30 17 1 24 7
M  V30 18 2 24 8
M  V30 19 1 25 18
M  V30 20 2 26 4
M  V30 21 1 26 15
M  V30 22 1 27 7
M  V30 23 1 28 11
M  V30 24 1 28 13
M  V30 25 1 28 18
M  V30 26 1 29 2
M  V30 27 1 29 21
M  V30 28 2 30 5
M  V30 29 1 30 23
M  V30 30 1 32 4
M  V30 31 1 32 30
M  V30 32 1 33 13
M  V30 33 1 33 25
M  V30 34 1 33 31
M  V30 35 1 34 8
M  V30 36 1 34 12
M  V30 37 2 34 16
M  V30 38 1 35 2
M  V30 39 1 36 2
M  V30 40 1 37 4
M  V30 41 1 38 6
M  V30 42 1 39 6
M  V30 43 1 40 8
M  V30 44 1 41 9
M  V30 45 1 42 9
M  V30 46 1 43 9
M  V30 47 1 44 10
M  V30 48 1 45 10
M  V30 49 1 46 12
M  V30 50 1 47 12
M  V30 51 1 48 12
M  V30 52 1 49 18
M  V30 53 1 50 18
M  V30 54 1 51 20
M  V30 55 1 52 20
M  V30 56 1 21 53 CFG=1
M  V30 57 1 54 23
M  V30 58 1 55 23
M  V30 59 1 56 25
M  V30 60 1 57 25
M  V30 61 1 58 26
M  V30 62 1 59 27
M  V30 63 1 60 27
M  V30 64 1 61 29
M  V30 65 1 62 29
M  V30 66 1 63 31
M  V30 67 1 64 31
M  V30 68 1 65 31
M  V30 69 1 33 66 CFG=3
M  V30 70 1 67 32
M  V30 71 1 68 24
M  V30 END BOND
M  V30 END CTAB
M  END
>  <i_epik_Tot_Q>  (1) 
0

>  <i_epik_Tot_abs_Q>  (1) 
2

>  <i_i_glide_confnum>  (1) 
320

>  <i_i_glide_lignum>  (1) 
64

>  <i_i_glide_posenum>  (1) 
400

>  <i_i_glide_rotatable_bonds>  (1) 
5

>  <i_lp_mmshare_version>  (1) 
72125

>  <i_m_source_file_index>  (1) 
26

>  <i_f3d_flags>  (1) 
0

>  <num_sample>  (1) 
100

>  <b_lp_Chiralities_Consistent>  (1) 
1

>  <r_epik_Charging_Adjusted_Penalty>  (1) 
1.7343418636902355

>  <r_epik_Ionization_Penalty>  (1) 
0.81506818440052864

>  <r_epik_Ionization_Penalty_Charging>  (1) 
0.79852554791812069

>  <r_epik_Ionization_Penalty_Neutral>  (1) 
0.016542636482407981

>  <r_epik_State_Penalty>  (1) 
0.93581631577211466

>  <r_glide_ring_energy>  (1) 
0.67481548263312563

>  <r_i_docking_score>  (1) 
-7.1592578040029196

>  <r_i_glide_ecoul>  (1) 
-2.7453814448916605

>  <r_i_glide_eff_state_penalty>  (1) 
0.93581631577211466

>  <r_i_glide_einternal>  (1) 
18.326811930839355

>  <r_i_glide_emodel>  (1) 
-60.778168788858061

>  <r_i_glide_emodel_strain>  (1) 
0.17809636500655301

>  <r_i_glide_energy>  (1) 
-46.108328264579193

>  <r_i_glide_erotb>  (1) 
0.3649910051837349

>  <r_i_glide_esite>  (1) 
-0.038684448216362161

>  <r_i_glide_evdw>  (1) 
-43.362946819687529

>  <r_i_glide_gscore>  (1) 
-8.0950741197750347

>  <r_i_glide_gscore_strain>  (1) 
0

>  <r_i_glide_hbond>  (1) 
0

>  <r_i_glide_ligand_efficiency>  (1) 
-0.21056640600008586

>  <r_i_glide_ligand_efficiency_ln>  (1) 
-1.5816808592837464

>  <r_i_glide_ligand_efficiency_sa>  (1) 
-0.68215341383046413

>  <r_i_glide_lipo>  (1) 
-4.1197185325435797

>  <r_i_glide_metal>  (1) 
-0

>  <r_i_glide_rewards>  (1) 
-1.7217075864807034

>  <r_lp_Energy>  (1) 
71.293013999999999

>  <s_epik_Chemistry_Notes>  (1) 
This compound has an imine and may undergo hydrolysis. This compound has a N-S or N-O group and may undergo hydrolysis at high or low pH.

>  <s_epik_cmdline>  (1) 
J2VwaWtfcHl0aG9uJywgJy1waHQnLCAnMS4wJywgJy1waCcsICc3LjQnLCAnLXRuJywgJzgnLCAnLW1hJywgJzUwMCcsICctaW1hZScsICc8aW5maWxlLm1hZT4nLCAnLW9tYWUnLCAnPG91dGZpbGUubWFlPic=

>  <s_epik_input>  (1) 
W09IXUMoPU8pYyhjMVtOSDJdKWMoYyhbY0hdbjEpW0NIM10pQyg9TylbTkhdQyg9TltDSF09W0NIXTIpW0NIMl1OMltDQEhdKFtDSDJdMylbQ0gyXVtDSDJdW0NIMl1bQ0gyXVtDQF0zKFtDSDNdKU40T1tDQEBIXShbQ0gzXSlbQ0gyXVtDSDJdNA==

>  <s_glide_docking_method>  (1) 
confgen

>  <s_i_glide_gridfile>  (1) 
gpcr_5ht2c_6bqh_protein_autoprepared_prepared

>  <s_lp_Force_Field>  (1) 
S-OPLS

>  <s_lp_Variant>  (1) 
DiffSBDD_25-4

>  <s_m_source_file>  (1) 
generated_GPCR_5HT2C_ligand_DiffSBDD_2026-06-23_prepared.sdf

>  <GenAI_Model>  (1) 
DiffSBDD

>  <Protein>  (1) 
GPCR_5HT2C

$$$$
DiffSBDD_64
     RDKit          3D

  0  0  0  0  0  0  0  0  0  0999 V3000
M  V30 BEGIN CTAB
M  V30 COUNTS 77 80 0 0 1
M  V30 BEGIN ATOM
M  V30 1 C 42.624308 33.210993 65.844283 0
M  V30 2 C 39.650931 35.683500 62.731472 0
M  V30 3 C 39.380159 34.409043 61.895123 0 CFG=1
M  V30 4 C 37.162863 35.594438 61.310649 0
M  V30 5 N 40.687867 35.557500 63.768793 0 CHG=1
M  V30 6 C 40.145674 30.966338 64.695416 0
M  V30 7 C 39.618016 27.510783 57.048884 0
M  V30 8 N 42.026747 34.402465 65.262211 0
M  V30 9 O 39.784499 27.732151 59.409651 0
M  V30 10 C 36.923085 36.259485 60.165392 0
M  V30 11 C 37.490904 31.050097 59.034953 0
M  V30 12 C 39.856156 30.355294 52.978999 0
M  V30 13 O 37.645138 30.138492 56.891720 0
M  V30 14 C 41.156409 34.373315 64.228399 0
M  V30 15 O 43.410608 33.337754 66.782221 0
M  V30 16 O 42.853335 30.856171 65.713444 0 CHG=-1
M  V30 17 C 39.161948 28.315017 58.285565 0 CFG=1
M  V30 18 C 40.742224 33.169252 63.639927 0
M  V30 19 C 39.926617 33.162416 62.571302 0
M  V30 20 C 39.586878 29.799659 58.254731 0
M  V30 21 C 36.697649 30.011973 54.734269 0
M  V30 22 C 38.877735 27.766352 55.716673 0
M  V30 23 C 38.467344 30.795462 57.856542 0 CFG=2
M  V30 24 F 39.974676 29.337754 49.456755 0
M  V30 25 C 37.895683 34.250322 61.400346 0 CFG=1
M  V30 26 C 38.845103 28.141761 52.746459 0
M  V30 27 N 42.289795 32.008043 65.291340 0
M  V30 28 C 37.977115 30.194698 55.514422 0 CFG=2
M  V30 29 C 38.026724 31.911759 60.197970 0
M  V30 30 C 39.029956 32.145321 57.333494 0
M  V30 31 C 39.088144 28.183467 51.358377 0
M  V30 32 C 39.719405 29.306285 50.785343 0
M  V30 33 C 40.089855 30.393448 51.593097 0
M  V30 34 C 41.283224 31.910198 64.237182 0 CFG=1
M  V30 35 C 37.697213 33.417838 60.103280 0
M  V30 36 C 39.053987 29.180927 55.089427 0 CFG=2
M  V30 37 C 39.245137 29.225841 53.566239 0
M  V30 38 H 39.876238 36.531416 62.083239 0
M  V30 39 H 38.758041 35.953365 63.293393 0
M  V30 40 H 39.982541 34.522259 60.992378 0
M  V30 41 H 36.822567 36.017780 62.245104 0
M  V30 42 H 39.398578 30.801230 63.919614 0
M  V30 43 H 40.528884 29.979054 64.956709 0
M  V30 44 H 39.645137 31.355933 65.580544 0
M  V30 45 H 40.690056 27.643328 56.895393 0
M  V30 46 H 39.493714 26.450385 57.275976 0
M  V30 47 H 42.238421 35.324544 65.608187 0
M  V30 48 H 40.722126 27.760500 59.291343 0
M  V30 49 H 36.399123 37.204314 60.172663 0
M  V30 50 H 37.245158 35.870918 59.210962 0
M  V30 51 H 36.573348 31.497925 58.658549 0
M  V30 52 H 37.176450 30.087836 59.439145 0
M  V30 53 H 40.160419 31.187359 53.597687 0
M  V30 54 H 38.087125 28.203995 58.431952 0
M  V30 55 H 39.644329 32.220742 62.146263 0
M  V30 56 H 39.976544 30.087377 59.230089 0
M  V30 57 H 40.441283 29.894664 57.591000 0
M  V30 58 H 36.870221 30.442676 53.767760 0
M  V30 59 H 36.446147 28.966347 54.578009 0
M  V30 60 H 35.855791 30.537752 55.175076 0
M  V30 61 H 39.316578 27.022027 55.054298 0
M  V30 62 H 37.823470 27.503468 55.801073 0
M  V30 63 H 37.350347 33.703728 62.167757 0
M  V30 64 H 38.368210 27.276189 53.178388 0
M  V30 65 H 38.288999 31.193153 55.219898 0
M  V30 66 H 37.605427 31.522624 61.125467 0
M  V30 67 H 39.101746 31.777221 60.253689 0
M  V30 68 H 39.568653 32.703933 58.092915 0
M  V30 69 H 39.747743 32.010847 56.525050 0
M  V30 70 H 38.226987 32.789185 56.970227 0
M  V30 71 H 38.797552 27.350899 50.734104 0
M  V30 72 H 40.568425 31.255024 51.150838 0
M  V30 73 H 41.794273 31.409990 63.412370 0
M  V30 74 H 38.250454 33.881871 59.291145 0
M  V30 75 H 36.645626 33.493690 59.821137 0
M  V30 76 H 40.007837 29.552481 55.460705 0
M  V30 77 H 41.024316 36.416804 64.188553 0
M  V30 END ATOM
M  V30 BEGIN BOND
M  V30 1 1 3 2
M  V30 2 1 5 2
M  V30 3 1 8 1
M  V30 4 2 10 4
M  V30 5 2 14 5
M  V30 6 1 14 8
M  V30 7 2 15 1
M  V30 8 1 17 7
M  V30 9 1 17 9
M  V30 10 1 18 14
M  V30 11 1 19 3
M  V30 12 2 19 18
M  V30 13 1 20 17
M  V30 14 1 22 7
M  V30 15 1 23 11 CFG=1
M  V30 16 1 23 13
M  V30 17 1 23 20
M  V30 18 1 25 3
M  V30 19 1 25 4
M  V30 20 1 27 1
M  V30 21 1 27 16
M  V30 22 1 28 13
M  V30 23 1 28 21
M  V30 24 1 29 11
M  V30 25 1 30 23
M  V30 26 2 31 26
M  V30 27 1 32 24
M  V30 28 1 32 31
M  V30 29 1 33 12
M  V30 30 2 33 32
M  V30 31 1 34 6
M  V30 32 1 34 18
M  V30 33 1 34 27
M  V30 34 1 35 25
M  V30 35 1 35 29
M  V30 36 1 36 22
M  V30 37 1 36 28
M  V30 38 2 37 12
M  V30 39 1 37 26
M  V30 40 1 37 36
M  V30 41 1 38 2
M  V30 42 1 39 2
M  V30 43 1 3 40 CFG=3
M  V30 44 1 41 4
M  V30 45 1 42 6
M  V30 46 1 43 6
M  V30 47 1 44 6
M  V30 48 1 45 7
M  V30 49 1 46 7
M  V30 50 1 47 8
M  V30 51 1 48 9
M  V30 52 1 49 10
M  V30 53 1 50 10
M  V30 54 1 51 11
M  V30 55 1 52 11
M  V30 56 1 53 12
M  V30 57 1 17 54 CFG=1
M  V30 58 1 55 19
M  V30 59 1 56 20
M  V30 60 1 57 20
M  V30 61 1 58 21
M  V30 62 1 59 21
M  V30 63 1 60 21
M  V30 64 1 61 22
M  V30 65 1 62 22
M  V30 66 1 25 63 CFG=1
M  V30 67 1 64 26
M  V30 68 1 28 65 CFG=1
M  V30 69 1 66 29
M  V30 70 1 67 29
M  V30 71 1 68 30
M  V30 72 1 69 30
M  V30 73 1 70 30
M  V30 74 1 71 31
M  V30 75 1 72 33
M  V30 76 1 34 73 CFG=3
M  V30 77 1 74 35
M  V30 78 1 75 35
M  V30 79 1 36 76 CFG=1
M  V30 80 1 77 5
M  V30 END BOND
M  V30 END CTAB
M  END
>  <i_epik_Tot_Q>  (1) 
0

>  <i_epik_Tot_abs_Q>  (1) 
2

>  <i_i_glide_confnum>  (1) 
633

>  <i_i_glide_lignum>  (1) 
144

>  <i_i_glide_posenum>  (1) 
230

>  <i_i_glide_rotatable_bonds>  (1) 
8

>  <i_lp_mmshare_version>  (1) 
72125

>  <i_m_source_file_index>  (1) 
65

>  <i_f3d_flags>  (1) 
0

>  <num_sample>  (1) 
100

>  <b_lp_Chiralities_Consistent>  (1) 
1

>  <r_epik_Charging_Adjusted_Penalty>  (1) 
0.059234021973178383

>  <r_epik_Ionization_Penalty>  (1) 
0.05923416388853827

>  <r_epik_Ionization_Penalty_Charging>  (1) 
0.059234021973178383

>  <r_epik_Ionization_Penalty_Neutral>  (1) 
1.4191535988443934e-07

>  <r_epik_State_Penalty>  (1) 
-0

>  <r_glide_ring_energy>  (1) 
0.4351030857825357

>  <r_i_docking_score>  (1) 
-7.1526622444603438

>  <r_i_glide_ecoul>  (1) 
-2.2060697434998877

>  <r_i_glide_eff_state_penalty>  (1) 
-0

>  <r_i_glide_einternal>  (1) 
10.161065510371236

>  <r_i_glide_emodel>  (1) 
-48.790079603744559

>  <r_i_glide_emodel_strain>  (1) 
0.39538006329502196

>  <r_i_glide_energy>  (1) 
-39.04826163443029

>  <r_i_glide_erotb>  (1) 
0.54408064829906078

>  <r_i_glide_esite>  (1) 
0

>  <r_i_glide_evdw>  (1) 
-36.842191890930401

>  <r_i_glide_gscore>  (1) 
-7.1526622444603438

>  <r_i_glide_gscore_strain>  (1) 
0

>  <r_i_glide_hbond>  (1) 
0

>  <r_i_glide_ligand_efficiency>  (1) 
-0.1933151957962255

>  <r_i_glide_ligand_efficiency_ln>  (1) 
-1.5512447586295253

>  <r_i_glide_ligand_efficiency_sa>  (1) 
-0.64416911968739865

>  <r_i_glide_lipo>  (1) 
-3.8120393806351749

>  <r_i_glide_metal>  (1) 
-0

>  <r_i_glide_rewards>  (1) 
-1.7116834560527254

>  <r_lp_Energy>  (1) 
55.422177999999995

>  <r_lp_tautomer_probability>  (1) 
1

>  <s_epik_Chemistry_Notes>  (1) 
This compound has an imine and may undergo hydrolysis.

>  <s_epik_cmdline>  (1) 
J2VwaWtfcHl0aG9uJywgJy1waHQnLCAnMS4wJywgJy1waCcsICc3LjQnLCAnLXRuJywgJzgnLCAnLW1hJywgJzUwMCcsICctaW1hZScsICc8aW5maWxlLm1hZT4nLCAnLW9tYWUnLCAnPG91dGZpbGUubWFlPic=

>  <s_epik_input>  (1) 
W05IXTFDKD1PKU4oW09IXSlbQ0BASF0oW0NIM10pQyhDMTIpPVtDSF1bQ0BASF0oW0NIMl1OPTIpW0NAQEhdKFtDSF09W0NIMl0pW0NIMl1bQ0gyXVtDSDJdW0NAXTMoW0NIM10pT1tDQEhdKFtDSDNdKVtDQEBIXShbQ0gyXVtDSDJdW0NAQEhdKFtPSF0pW0NIMl0zKWMoW2NIXVtjSF00KVtjSF1bY0hdYzRG

>  <s_glide_docking_method>  (1) 
confgen

>  <s_i_glide_gridfile>  (1) 
gpcr_5ht2c_6bqh_protein_autoprepared_prepared

>  <s_lp_Force_Field>  (1) 
S-OPLS

>  <s_lp_Variant>  (1) 
DiffSBDD_64-2

>  <s_m_source_file>  (1) 
generated_GPCR_5HT2C_ligand_DiffSBDD_2026-06-23_prepared.sdf

>  <GenAI_Model>  (1) 
DiffSBDD

>  <Protein>  (1) 
GPCR_5HT2C

$$$$
DiffSBDD_16
     RDKit          3D

  0  0  0  0  0  0  0  0  0  0999 V3000
M  V30 BEGIN CTAB
M  V30 COUNTS 70 74 0 0 1
M  V30 BEGIN ATOM
M  V30 1 C 40.192793 32.222714 61.362100 0
M  V30 2 C 39.124896 26.824368 57.472398 0
M  V30 3 C 38.787594 32.142516 56.920367 0 CFG=1
M  V30 4 C 38.437303 31.852943 55.449237 0
M  V30 5 C 40.840330 30.354842 62.816864 0
M  V30 6 C 41.860621 31.142633 63.372153 0
M  V30 7 C 35.612652 31.831598 60.701532 0
M  V30 8 C 34.829490 33.169604 60.649274 0
M  V30 9 C 38.094119 33.383514 57.510050 0
M  V30 10 C 42.057417 32.456995 62.918379 0
M  V30 11 O 37.469392 31.623434 62.167748 0
M  V30 12 C 38.592889 28.222620 55.514320 0
M  V30 13 C 39.026450 29.439841 55.923605 0
M  V30 14 C 39.312690 29.786163 57.380104 0
M  V30 15 C 38.420849 27.052952 56.383351 0
M  V30 16 C 39.999607 30.892086 61.821247 0
M  V30 17 N 38.801850 25.677434 58.154067 0
M  V30 18 C 36.845133 23.337756 56.256933 0
M  V30 19 N 38.485987 30.947721 57.714803 0 CHG=1
M  V30 20 C 36.836541 24.111197 54.972575 0
M  V30 21 C 40.654770 28.924970 63.278870 0
M  V30 22 C 35.056736 34.056463 59.421985 0
M  V30 23 C 37.053692 35.410323 60.297088 0
M  V30 24 C 36.496529 34.491941 59.188471 0 CFG=1
M  V30 25 C 39.358642 32.810648 60.271025 0
M  V30 26 C 37.307269 33.241511 58.840565 0 CFG=2
M  V30 27 C 37.100289 31.995886 61.067529 0
M  V30 28 C 37.408593 26.042922 56.130542 0 CFG=2
M  V30 29 C 38.011321 32.663743 60.061818 0
M  V30 30 C 37.942980 25.196700 57.311501 0
M  V30 31 N 37.283197 25.313786 54.876353 0
M  V30 32 C 41.241316 32.987834 61.907079 0
M  V30 33 C 39.185064 30.600665 54.947470 0
M  V30 34 C 37.421093 23.852324 57.364881 0
M  V30 35 H 39.932931 27.431196 57.842717 0
M  V30 36 H 39.858830 32.323764 56.967752 0
M  V30 37 H 38.685708 32.711486 54.825677 0
M  V30 38 H 37.360118 31.703922 55.349958 0
M  V30 39 H 42.501545 30.734536 64.140445 0
M  V30 40 H 35.492264 31.261724 59.781043 0
M  V30 41 H 35.160937 31.211539 61.475836 0
M  V30 42 H 33.775671 32.938528 60.567756 0
M  V30 43 H 34.960840 33.735953 61.572715 0
M  V30 44 H 38.845126 34.137749 57.635522 0
M  V30 45 H 37.411764 33.770427 56.752531 0
M  V30 46 H 42.845141 33.058673 63.340249 0
M  V30 47 H 38.338663 28.106875 54.470030 0
M  V30 48 H 38.920602 29.114592 58.131869 0
M  V30 49 H 40.371063 29.954546 57.567888 0
M  V30 50 H 39.228165 30.275142 61.387591 0
M  V30 51 H 36.439629 22.337798 56.227443 0
M  V30 52 H 38.616714 31.172252 58.690516 0
M  V30 53 H 36.445139 23.575329 54.113082 0
M  V30 54 H 39.843594 28.433849 62.739427 0
M  V30 55 H 41.563608 28.349920 63.098374 0
M  V30 56 H 40.445136 28.888093 64.347686 0
M  V30 57 H 34.682054 33.505556 58.567716 0
M  V30 58 H 34.439935 34.937717 59.433975 0
M  V30 59 H 37.039994 34.939906 61.279538 0
M  V30 60 H 38.080991 35.705702 60.086031 0
M  V30 61 H 36.462094 36.323184 60.372601 0
M  V30 62 H 36.490180 35.106099 58.303328 0
M  V30 63 H 39.909504 33.393637 59.550569 0
M  V30 64 H 36.603435 32.471002 58.562590 0
M  V30 65 H 36.445152 26.428491 56.434419 0
M  V30 66 H 41.409833 33.996638 61.557401 0
M  V30 67 H 40.249650 30.823358 54.856694 0
M  V30 68 H 38.836430 30.327882 53.950284 0
M  V30 69 H 37.526037 23.308261 58.287510 0
M  V30 70 H 37.507774 30.731528 57.558901 0
M  V30 END ATOM
M  V30 BEGIN BOND
M  V30 1 1 4 3
M  V30 2 1 6 5
M  V30 3 1 8 7
M  V30 4 1 9 3
M  V30 5 2 10 6
M  V30 6 2 13 12
M  V30 7 1 14 13
M  V30 8 2 15 2
M  V30 9 1 15 12
M  V30 10 1 16 1
M  V30 11 2 16 5
M  V30 12 1 17 2
M  V30 13 1 19 3
M  V30 14 1 19 14
M  V30 15 1 20 18
M  V30 16 1 21 5
M  V30 17 1 22 8
M  V30 18 1 24 22
M  V30 19 1 24 23
M  V30 20 1 25 1
M  V30 21 1 26 9
M  V30 22 1 26 24
M  V30 23 1 27 7
M  V30 24 2 27 11
M  V30 25 1 28 15
M  V30 26 2 29 25
M  V30 27 1 29 26
M  V30 28 1 29 27
M  V30 29 2 30 17
M  V30 30 1 30 28
M  V30 31 2 31 20
M  V30 32 1 31 28
M  V30 33 2 32 1
M  V30 34 1 32 10
M  V30 35 1 33 4
M  V30 36 1 33 13
M  V30 37 2 34 18
M  V30 38 1 34 30
M  V30 39 1 35 2
M  V30 40 1 3 36 CFG=3
M  V30 41 1 37 4
M  V30 42 1 38 4
M  V30 43 1 39 6
M  V30 44 1 40 7
M  V30 45 1 41 7
M  V30 46 1 42 8
M  V30 47 1 43 8
M  V30 48 1 44 9
M  V30 49 1 45 9
M  V30 50 1 46 10
M  V30 51 1 47 12
M  V30 52 1 48 14
M  V30 53 1 49 14
M  V30 54 1 50 16
M  V30 55 1 51 18
M  V30 56 1 52 19
M  V30 57 1 53 20
M  V30 58 1 54 21
M  V30 59 1 55 21
M  V30 60 1 56 21
M  V30 61 1 57 22
M  V30 62 1 58 22
M  V30 63 1 59 23
M  V30 64 1 60 23
M  V30 65 1 61 23
M  V30 66 1 24 62 CFG=3
M  V30 67 1 63 25
M  V30 68 1 26 64 CFG=3
M  V30 69 1 28 65 CFG=1
M  V30 70 1 66 32
M  V30 71 1 67 33
M  V30 72 1 68 33
M  V30 73 1 69 34
M  V30 74 1 70 19
M  V30 END BOND
M  V30 END CTAB
M  END
>  <i_epik_Tot_Q>  (1) 
1

>  <i_epik_Tot_abs_Q>  (1) 
1

>  <i_i_glide_confnum>  (1) 
31

>  <i_i_glide_lignum>  (1) 
33

>  <i_i_glide_posenum>  (1) 
338

>  <i_i_glide_rotatable_bonds>  (1) 
4

>  <i_lp_mmshare_version>  (1) 
72125

>  <i_m_source_file_index>  (1) 
17

>  <i_f3d_flags>  (1) 
0

>  <num_sample>  (1) 
100

>  <b_lp_Chiralities_Consistent>  (1) 
1

>  <r_epik_Charging_Adjusted_Penalty>  (1) 
0.57808156404405586

>  <r_epik_Ionization_Penalty>  (1) 
0.28904078202202793

>  <r_epik_Ionization_Penalty_Charging>  (1) 
0.28904078202202793

>  <r_epik_Ionization_Penalty_Neutral>  (1) 
0

>  <r_epik_State_Penalty>  (1) 
0.28904078202202793

>  <r_glide_ring_energy>  (1) 
0

>  <r_i_docking_score>  (1) 
-7.1493577103892463

>  <r_i_glide_ecoul>  (1) 
-5.4418580685552485

>  <r_i_glide_eff_state_penalty>  (1) 
0.28904078202202793

>  <r_i_glide_einternal>  (1) 
32.346509023522508

>  <r_i_glide_emodel>  (1) 
-32.993781100559161

>  <r_i_glide_emodel_strain>  (1) 
1.8894644734038195

>  <r_i_glide_energy>  (1) 
-39.732588287248255

>  <r_i_glide_erotb>  (1) 
0.29147875755417113

>  <r_i_glide_esite>  (1) 
-0.075253326568820514

>  <r_i_glide_evdw>  (1) 
-34.290730218693007

>  <r_i_glide_gscore>  (1) 
-7.4383984924112738

>  <r_i_glide_gscore_strain>  (1) 
0

>  <r_i_glide_hbond>  (1) 
-0.29021709310985261

>  <r_i_glide_ligand_efficiency>  (1) 
-0.21027522677615429

>  <r_i_glide_ligand_efficiency_ln>  (1) 
-1.579493650916266

>  <r_i_glide_ligand_efficiency_sa>  (1) 
-0.68121010618032862

>  <r_i_glide_lipo>  (1) 
-2.7243251545233784

>  <r_i_glide_metal>  (1) 
-0

>  <r_i_glide_rewards>  (1) 
-2.1092664545454558

>  <r_lp_Energy>  (1) 
66.447216999999995

>  <s_epik_Chemistry_Notes>  (1) 
This compound has an imine and may undergo hydrolysis.

>  <s_epik_cmdline>  (1) 
J2VwaWtfcHl0aG9uJywgJy1waHQnLCAnMS4wJywgJy1waCcsICc3LjQnLCAnLXRuJywgJzgnLCAnLW1hJywgJzUwMCcsICctaW1hZScsICc8aW5maWxlLm1hZT4nLCAnLW9tYWUnLCAnPG91dGZpbGUubWFlPic=

>  <s_epik_input>  (1) 
W2NIXTFbY0hdW2NIXWMoW0NIM10pW2NIXWMxL1tDSF09QyhDKD1PKVtDSDJdW0NIMl1bQ0gyXVtDQEhdMltDSDNdKS9bQ0BASF0yW0NIMl1bQ0BASF0zW0NIMl1bQ0gyXUMoXFtDSDJdW05IXTMpPVtDSF1cQzQ9W0NIXU49QyhbQ0BASF00NSlbQ0hdPVtDSF1bQ0hdPU41

>  <s_glide_docking_method>  (1) 
confgen

>  <s_i_glide_gridfile>  (1) 
gpcr_5ht2c_6bqh_protein_autoprepared_prepared

>  <s_lp_Force_Field>  (1) 
S-OPLS

>  <s_lp_Variant>  (1) 
DiffSBDD_16-1

>  <s_m_source_file>  (1) 
generated_GPCR_5HT2C_ligand_DiffSBDD_2026-06-23_prepared.sdf

>  <GenAI_Model>  (1) 
DiffSBDD

>  <Protein>  (1) 
GPCR_5HT2C

$$$$
DiffSBDD_66
     RDKit          3D

  0  0  0  0  0  0  0  0  0  0999 V3000
M  V30 BEGIN CTAB
M  V30 COUNTS 63 66 0 0 1
M  V30 BEGIN ATOM
M  V30 1 C 38.448942 28.019251 60.040941 0
M  V30 2 C 37.561678 29.193275 59.327861 0
M  V30 3 C 38.897669 26.074834 57.393996 0 CFG=1
M  V30 4 N 39.999335 31.647138 61.371121 0
M  V30 5 O 39.644765 37.466846 64.426602 0
M  V30 6 O 37.686233 24.138599 56.705740 0
M  V30 7 O 40.045553 25.355771 57.765590 0
M  V30 8 C 38.609492 36.300238 62.628424 0
M  V30 9 C 39.793780 28.299759 58.181296 0
M  V30 10 C 38.728957 28.284287 56.097861 0
M  V30 11 N 39.785646 27.937295 59.479640 0
M  V30 12 C 38.378398 28.595087 53.583850 0
M  V30 13 C 39.537594 34.156394 61.883318 0
M  V30 14 N 40.073213 30.633208 60.525260 0
M  V30 15 C 39.796599 29.705326 51.854729 0
M  V30 16 C 39.260740 27.557899 57.189052 0
M  V30 17 C 37.773724 29.439268 56.458144 0 CFG=1
M  V30 18 C 36.985779 29.119374 57.838672 0
M  V30 19 C 39.014423 31.097437 55.134838 0
M  V30 20 C 40.588044 29.628584 61.169283 0
M  V30 21 C 40.845038 28.338608 60.419381 0
M  V30 22 C 38.257307 25.324407 56.206031 0
M  V30 23 C 40.822455 29.957830 62.545780 0
M  V30 24 C 40.611917 35.409839 63.690282 0
M  V30 25 C 38.446421 30.781672 56.273685 0
M  V30 26 C 39.493412 32.958146 60.949475 0
M  V30 27 C 38.556861 35.192253 61.770162 0
M  V30 28 O 39.033675 33.038457 59.809283 0
M  V30 29 Cl 37.274913 35.094032 60.606097 0
M  V30 30 C 40.416443 31.269217 62.634981 0
M  V30 31 C 39.473347 30.937473 53.915576 0
M  V30 32 C 38.956772 27.901612 54.815846 0
M  V30 33 C 40.575637 34.291297 62.840780 0
M  V30 34 C 39.245635 29.756016 53.081119 0
M  V30 35 C 39.623117 36.403543 63.590247 0
M  V30 36 H 38.522132 28.200356 61.105089 0
M  V30 37 H 38.034784 30.162958 59.399995 0
M  V30 38 H 38.175686 26.012013 58.202428 0
M  V30 39 H 40.535660 37.737705 64.653715 0
M  V30 40 H 38.325720 23.750459 57.286888 0
M  V30 41 H 40.781948 25.718868 57.292357 0
M  V30 42 H 37.858997 37.073792 62.553661 0
M  V30 43 H 39.979301 29.357570 58.051976 0
M  V30 44 H 36.682361 29.337645 59.953833 0
M  V30 45 H 37.364762 28.952689 53.747223 0
M  V30 46 H 38.283896 27.840232 52.802299 0
M  V30 47 H 40.406578 30.516677 51.482531 0
M  V30 48 H 39.643255 28.852429 51.209405 0
M  V30 49 H 38.047118 27.024392 59.951891 0
M  V30 50 H 36.957825 29.449797 55.736236 0
M  V30 51 H 36.113275 29.771223 57.829072 0
M  V30 52 H 36.563657 28.117938 57.768261 0
M  V30 53 H 41.786664 28.399673 59.874142 0
M  V30 54 H 40.954796 27.534558 61.141006 0
M  V30 55 H 37.449194 25.892314 55.742600 0
M  V30 56 H 38.991471 25.078003 55.436822 0
M  V30 57 H 41.220669 29.335635 63.334502 0
M  V30 58 H 41.401293 35.504780 64.423284 0
M  V30 59 H 38.438360 31.461275 57.113886 0
M  V30 60 H 40.393290 31.931765 63.480789 0
M  V30 61 H 40.053790 31.732197 53.479327 0
M  V30 62 H 39.606005 27.062060 54.622412 0
M  V30 63 H 41.353806 33.552764 62.913333 0
M  V30 END ATOM
M  V30 BEGIN BOND
M  V30 1 1 2 1
M  V30 2 1 7 3
M  V30 3 1 11 1
M  V30 4 1 11 9
M  V30 5 1 14 4
M  V30 6 1 16 3
M  V30 7 2 16 9
M  V30 8 1 16 10
M  V30 9 1 17 10
M  V30 10 1 18 2
M  V30 11 1 18 17
M  V30 12 2 20 14
M  V30 13 1 21 11
M  V30 14 1 21 20
M  V30 15 1 22 3
M  V30 16 1 22 6
M  V30 17 1 23 20
M  V30 18 1 25 17
M  V30 19 2 25 19
M  V30 20 1 26 4
M  V30 21 1 26 13
M  V30 22 1 27 8
M  V30 23 2 27 13
M  V30 24 2 28 26
M  V30 25 1 29 27
M  V30 26 1 30 4
M  V30 27 2 30 23
M  V30 28 2 31 19
M  V30 29 2 32 10
M  V30 30 1 32 12
M  V30 31 1 33 13
M  V30 32 2 33 24
M  V30 33 1 34 12
M  V30 34 2 34 15
M  V30 35 1 34 31
M  V30 36 1 35 5
M  V30 37 2 35 8
M  V30 38 1 35 24
M  V30 39 1 36 1
M  V30 40 1 37 2
M  V30 41 1 3 38 CFG=1
M  V30 42 1 39 5
M  V30 43 1 40 6
M  V30 44 1 41 7
M  V30 45 1 42 8
M  V30 46 1 43 9
M  V30 47 1 44 2
M  V30 48 1 45 12
M  V30 49 1 46 12
M  V30 50 1 47 15
M  V30 51 1 48 15
M  V30 52 1 49 1
M  V30 53 1 17 50 CFG=3
M  V30 54 1 51 18
M  V30 55 1 52 18
M  V30 56 1 53 21
M  V30 57 1 54 21
M  V30 58 1 55 22
M  V30 59 1 56 22
M  V30 60 1 57 23
M  V30 61 1 58 24
M  V30 62 1 59 25
M  V30 63 1 60 30
M  V30 64 1 61 31
M  V30 65 1 62 32
M  V30 66 1 63 33
M  V30 END BOND
M  V30 END CTAB
M  END
>  <i_epik_Tot_Q>  (1) 
0

>  <i_epik_Tot_abs_Q>  (1) 
0

>  <i_i_glide_confnum>  (1) 
235

>  <i_i_glide_lignum>  (1) 
148

>  <i_i_glide_posenum>  (1) 
153

>  <i_i_glide_rotatable_bonds>  (1) 
9

>  <i_lp_mmshare_version>  (1) 
72125

>  <i_m_source_file_index>  (1) 
67

>  <i_f3d_flags>  (1) 
0

>  <num_sample>  (1) 
100

>  <b_lp_Chiralities_Consistent>  (1) 
1

>  <r_epik_Charging_Adjusted_Penalty>  (1) 
1.3281530491987052

>  <r_epik_Ionization_Penalty>  (1) 
1.3282883392360914

>  <r_epik_Ionization_Penalty_Charging>  (1) 
0

>  <r_epik_Ionization_Penalty_Neutral>  (1) 
1.3282883392360914

>  <r_epik_State_Penalty>  (1) 
1.3281530491987052

>  <r_glide_ring_energy>  (1) 
0

>  <r_i_docking_score>  (1) 
-7.146980212049221

>  <r_i_glide_ecoul>  (1) 
-8.7189161368171426

>  <r_i_glide_eff_state_penalty>  (1) 
1.3281530491987052

>  <r_i_glide_einternal>  (1) 
22.078068031418031

>  <r_i_glide_emodel>  (1) 
-55.368103019626481

>  <r_i_glide_emodel_strain>  (1) 
6.3731086239166643

>  <r_i_glide_energy>  (1) 
-48.242861296967973

>  <r_i_glide_erotb>  (1) 
0.50097048188181392

>  <r_i_glide_esite>  (1) 
0

>  <r_i_glide_evdw>  (1) 
-39.523945160150831

>  <r_i_glide_gscore>  (1) 
-8.475133261247926

>  <r_i_glide_gscore_strain>  (1) 
0.59327715597916608

>  <r_i_glide_hbond>  (1) 
-0.417415048213583

>  <r_i_glide_ligand_efficiency>  (1) 
-0.20419943462997775

>  <r_i_glide_ligand_efficiency_ln>  (1) 
-1.5689207752244623

>  <r_i_glide_ligand_efficiency_sa>  (1) 
-0.66794989117767756

>  <r_i_glide_lipo>  (1) 
-4.3318172186268216

>  <r_i_glide_metal>  (1) 
-0

>  <r_i_glide_rewards>  (1) 
-1.5361139537383894

>  <r_lp_Energy>  (1) 
66.945476999999997

>  <r_lp_tautomer_probability>  (1) 
0.99999944244275329

>  <s_epik_cmdline>  (1) 
J2VwaWtfcHl0aG9uJywgJy1waHQnLCAnMS4wJywgJy1waCcsICc3LjQnLCAnLXRuJywgJzgnLCAnLW1hJywgJzUwMCcsICctaW1hZScsICc8aW5maWxlLm1hZT4nLCAnLW9tYWUnLCAnPG91dGZpbGUubWFlPic=

>  <s_epik_input>  (1) 
W0NIXTEvW0NIMl1DKD1bQ0gyXSlbQ0hdPUM9W0NIXVtDQEBIXShDPTFcMilbQ0gyXS9bQ0hdPVtDSF1cTihbQ0gyXVtDQEBIXTJbQ0BASF0oW09IXSlbQ0gyXVtPSF0pW0NIMl1jKFtjSF1bY0hdMylubjNDKD1PKWM0YyhDbClbY0hdYyhbT0hdKVtjSF1bY0hdNA==

>  <s_glide_docking_method>  (1) 
confgen

>  <s_i_glide_gridfile>  (1) 
gpcr_5ht2c_6bqh_protein_autoprepared_prepared

>  <s_lp_Force_Field>  (1) 
S-OPLS

>  <s_lp_Variant>  (1) 
DiffSBDD_66-4

>  <s_m_source_file>  (1) 
generated_GPCR_5HT2C_ligand_DiffSBDD_2026-06-23_prepared.sdf

>  <GenAI_Model>  (1) 
DiffSBDD

>  <Protein>  (1) 
GPCR_5HT2C

$$$$
DiffSBDD_78
     RDKit          3D

  0  0  0  0  0  0  0  0  0  0999 V3000
M  V30 BEGIN CTAB
M  V30 COUNTS 105 110 0 0 1
M  V30 BEGIN ATOM
M  V30 1 O 41.756104 35.286458 63.382008 0
M  V30 2 C 38.672507 26.302868 54.771355 0
M  V30 3 C 38.451770 29.173685 60.136787 0 CFG=1
M  V30 4 C 38.172677 37.026375 66.102710 0
M  V30 5 O 40.045265 38.947039 67.793081 0
M  V30 6 C 39.932856 27.938198 56.408701 0 CFG=2
M  V30 7 C 40.617618 35.388754 62.542122 0
M  V30 8 O 39.644996 36.162873 64.487973 0
M  V30 9 C 39.953200 26.766154 55.439127 0 CFG=1
M  V30 10 O 36.924307 33.419245 60.590727 0
M  V30 11 C 44.733827 28.223047 65.131448 0
M  V30 12 N 39.282564 28.948473 58.977848 0
M  V30 13 N 39.961441 26.557174 56.894484 0 CFG=2 CHG=1
M  V30 14 C 44.358511 27.240113 67.276557 0
M  V30 15 C 37.999808 25.027363 55.300610 0
M  V30 16 C 38.985894 29.714106 61.450561 0 CFG=1
M  V30 17 N 38.474278 29.399820 57.903016 0
M  V30 18 C 42.129457 33.974518 63.769942 0
M  V30 19 C 38.657702 28.769798 56.604482 0 CFG=1
M  V30 20 C 43.334333 26.926171 66.226996 0
M  V30 21 C 37.113096 30.465437 55.458417 0
M  V30 22 C 39.563519 37.167042 65.492979 0 CFG=2
M  V30 23 C 38.462686 31.860822 58.288001 0
M  V30 24 C 42.728959 27.355252 63.809473 0
M  V30 25 C 41.025758 37.970073 67.571359 0
M  V30 26 C 39.736651 36.518672 63.106709 0 CFG=2
M  V30 27 C 38.854500 31.754104 59.769229 0
M  V30 28 C 41.128066 33.303286 64.720073 0
M  V30 29 O 38.182861 26.920809 53.829828 0
M  V30 30 C 38.512077 30.203344 56.005884 0
M  V30 31 C 43.552404 27.465039 65.078522 0
M  V30 32 C 39.467944 30.572285 54.864278 0
M  V30 33 C 38.290351 36.541283 60.904972 0
M  V30 34 C 38.791027 25.907806 57.546264 0
M  V30 35 C 42.120677 28.694655 63.359532 0
M  V30 36 C 41.017185 28.500437 62.313354 0
M  V30 37 O 45.245611 28.117730 66.435971 0
M  V30 38 N 37.375984 34.137813 58.381913 0
M  V30 39 S 36.706949 36.029374 60.151160 0
M  V30 40 C 37.822982 32.935541 57.725792 0
M  V30 41 C 40.638067 36.854513 66.568069 0
M  V30 42 C 37.032244 34.292962 59.740233 0
M  V30 43 C 38.407032 24.666230 56.739508 0
M  V30 44 C 40.471496 29.817970 61.747609 0
M  V30 45 O 45.234249 28.864739 64.207889 0
M  V30 46 C 38.957605 30.669648 57.425397 0 CFG=2
M  V30 47 C 38.190805 30.623725 60.531630 0 CFG=1
M  V30 48 C 38.321914 36.564911 62.456416 0
M  V30 49 H 37.587332 28.538010 60.167737 0
M  V30 50 H 38.020437 37.744858 66.898966 0
M  V30 51 H 38.045257 36.053533 66.568101 0
M  V30 52 H 37.404230 37.179439 65.347123 0
M  V30 53 H 39.283248 38.531048 68.170080 0
M  V30 54 H 40.878335 28.424447 56.643228 0
M  V30 55 H 40.048537 34.459499 62.484624 0
M  V30 56 H 40.967512 35.613555 61.534290 0
M  V30 57 H 40.892715 26.459100 54.997414 0
M  V30 58 H 39.492526 27.957992 58.889773 0
M  V30 59 H 44.878500 26.346298 67.622461 0
M  V30 60 H 38.199263 24.197045 54.624152 0
M  V30 61 H 36.924233 25.196907 55.266451 0
M  V30 62 H 38.445301 29.468688 62.358487 0
M  V30 63 H 42.326609 33.348270 62.898084 0
M  V30 64 H 43.065423 34.106028 64.309536 0
M  V30 65 H 37.750087 28.214177 56.373747 0
M  V30 66 H 42.487249 26.292721 66.447306 0
M  V30 67 H 36.939087 31.511458 55.213069 0
M  V30 68 H 36.360688 30.137762 56.169396 0
M  V30 69 H 36.926721 29.887405 54.553248 0
M  V30 70 H 39.680264 38.162320 65.072094 0
M  V30 71 H 41.932730 26.631903 63.991130 0
M  V30 72 H 43.353258 26.934461 63.019721 0
M  V30 73 H 41.915576 38.519224 67.261174 0
M  V30 74 H 41.245510 37.513913 68.536437 0
M  V30 75 H 40.261634 37.466122 62.975205 0
M  V30 76 H 39.872615 31.446881 59.770879 0
M  V30 77 H 39.012768 32.659411 60.337760 0
M  V30 78 H 41.532128 32.366864 65.104176 0
M  V30 79 H 40.188762 33.063819 64.225676 0
M  V30 80 H 40.908548 33.943179 65.573443 0
M  V30 81 H 43.924215 27.781908 68.116382 0
M  V30 82 H 39.358591 31.616046 54.571006 0
M  V30 83 H 39.292213 29.963385 53.977436 0
M  V30 84 H 40.511232 30.431372 55.139649 0
M  V30 85 H 39.076721 35.929195 60.470549 0
M  V30 86 H 38.445197 37.562639 60.567733 0
M  V30 87 H 39.080487 25.626297 58.559052 0
M  V30 88 H 37.923535 26.555715 57.659265 0
M  V30 89 H 41.697542 29.214056 64.221337 0
M  V30 90 H 42.904384 29.339801 62.967450 0
M  V30 91 H 41.372972 27.884343 61.486763 0
M  V30 92 H 40.211898 27.934737 62.783712 0
M  V30 93 H 37.266150 34.963148 57.803957 0
M  V30 94 H 37.648946 32.977482 56.661557 0
M  V30 95 H 40.313687 35.980238 67.132005 0
M  V30 96 H 41.554593 36.535481 66.074292 0
M  V30 97 H 37.590809 24.139570 57.231309 0
M  V30 98 H 39.244334 23.970235 56.725363 0
M  V30 99 H 41.036551 30.074188 60.854339 0
M  V30 100 H 40.611944 30.631301 62.461379 0
M  V30 101 H 40.044390 30.673613 57.414266 0
M  V30 102 H 37.164970 30.834065 60.823029 0
M  V30 103 H 37.737995 35.737790 62.826177 0
M  V30 104 H 37.785736 37.443204 62.815945 0
M  V30 105 H 40.874183 26.236225 57.192014 0
M  V30 END ATOM
M  V30 BEGIN BOND
M  V30 1 1 7 1
M  V30 2 1 9 2
M  V30 3 1 9 6
M  V30 4 1 12 3
M  V30 5 1 13 6
M  V30 6 1 13 9
M  V30 7 1 15 2
M  V30 8 1 16 3
M  V30 9 1 17 12
M  V30 10 1 18 1
M  V30 11 1 19 6
M  V30 12 1 19 17
M  V30 13 1 20 14
M  V30 14 1 22 4
M  V30 15 1 22 8
M  V30 16 1 25 5
M  V30 17 1 26 7
M  V30 18 1 26 8
M  V30 19 1 27 23
M  V30 20 1 28 18
M  V30 21 2 29 2
M  V30 22 1 30 19
M  V30 23 1 30 21
M  V30 24 1 31 11
M  V30 25 2 31 20
M  V30 26 1 31 24
M  V30 27 1 32 30
M  V30 28 1 34 13
M  V30 29 1 35 24
M  V30 30 1 36 35
M  V30 31 1 37 11
M  V30 32 1 37 14
M  V30 33 1 39 33
M  V30 34 2 40 23
M  V30 35 1 40 38
M  V30 36 1 41 22
M  V30 37 1 41 25
M  V30 38 2 42 10
M  V30 39 1 42 38
M  V30 40 1 42 39
M  V30 41 1 43 15
M  V30 42 1 43 34
M  V30 43 1 44 16
M  V30 44 1 44 36
M  V30 45 2 45 11
M  V30 46 1 46 17
M  V30 47 1 46 23
M  V30 48 1 46 30
M  V30 49 1 47 3
M  V30 50 1 47 16
M  V30 51 1 47 27
M  V30 52 1 48 26
M  V30 53 1 48 33
M  V30 54 1 3 49 CFG=1
M  V30 55 1 50 4
M  V30 56 1 51 4
M  V30 57 1 52 4
M  V30 58 1 53 5
M  V30 59 1 6 54 CFG=3
M  V30 60 1 55 7
M  V30 61 1 56 7
M  V30 62 1 9 57 CFG=3
M  V30 63 1 58 12
M  V30 64 1 59 14
M  V30 65 1 60 15
M  V30 66 1 61 15
M  V30 67 1 16 62 CFG=1
M  V30 68 1 63 18
M  V30 69 1 64 18
M  V30 70 1 19 65 CFG=3
M  V30 71 1 66 20
M  V30 72 1 67 21
M  V30 73 1 68 21
M  V30 74 1 69 21
M  V30 75 1 22 70 CFG=3
M  V30 76 1 71 24
M  V30 77 1 72 24
M  V30 78 1 73 25
M  V30 79 1 74 25
M  V30 80 1 26 75 CFG=1
M  V30 81 1 76 27
M  V30 82 1 77 27
M  V30 83 1 78 28
M  V30 84 1 79 28
M  V30 85 1 80 28
M  V30 86 1 81 14
M  V30 87 1 82 32
M  V30 88 1 83 32
M  V30 89 1 84 32
M  V30 90 1 85 33
M  V30 91 1 86 33
M  V30 92 1 87 34
M  V30 93 1 88 34
M  V30 94 1 89 35
M  V30 95 1 90 35
M  V30 96 1 91 36
M  V30 97 1 92 36
M  V30 98 1 93 38
M  V30 99 1 94 40
M  V30 100 1 95 41
M  V30 101 1 96 41
M  V30 102 1 97 43
M  V30 103 1 98 43
M  V30 104 1 99 44
M  V30 105 1 100 44
M  V30 106 1 46 101 CFG=3
M  V30 107 1 47 102 CFG=1
M  V30 108 1 103 48
M  V30 109 1 104 48
M  V30 110 1 13 105 CFG=3
M  V30 END BOND
M  V30 END CTAB
M  END
>  <i_epik_Tot_Q>  (1) 
1

>  <i_epik_Tot_abs_Q>  (1) 
1

>  <i_i_glide_confnum>  (1) 
2794

>  <i_i_glide_lignum>  (1) 
179

>  <i_i_glide_posenum>  (1) 
37

>  <i_i_glide_rotatable_bonds>  (1) 
20

>  <i_lp_mmshare_version>  (1) 
72125

>  <i_m_source_file_index>  (1) 
79

>  <i_f3d_flags>  (1) 
0

>  <num_sample>  (1) 
100

>  <b_lp_Chiralities_Consistent>  (1) 
1

>  <r_epik_Charging_Adjusted_Penalty>  (1) 
0.27991857207723647

>  <r_epik_Ionization_Penalty>  (1) 
0.14008487576319317

>  <r_epik_Ionization_Penalty_Charging>  (1) 
0.13995928603861824

>  <r_epik_Ionization_Penalty_Neutral>  (1) 
0.0001255897245749389

>  <r_epik_State_Penalty>  (1) 
0.13995928603861821

>  <r_glide_ring_energy>  (1) 
0

>  <r_i_docking_score>  (1) 
-7.1464246998528402

>  <r_i_glide_ecoul>  (1) 
-3.2861295389487832

>  <r_i_glide_eff_state_penalty>  (1) 
0.13995928603861821

>  <r_i_glide_einternal>  (1) 
20.613656763085089

>  <r_i_glide_emodel>  (1) 
-55.378591974468989

>  <r_i_glide_emodel_strain>  (1) 
7.7472949255603112

>  <r_i_glide_energy>  (1) 
-53.059793695820659

>  <r_i_glide_erotb>  (1) 
0.59343049219720367

>  <r_i_glide_esite>  (1) 
-0.041481743317359585

>  <r_i_glide_evdw>  (1) 
-49.773664156871874

>  <r_i_glide_gscore>  (1) 
-7.2863839858914581

>  <r_i_glide_gscore_strain>  (1) 
0.9368237313900778

>  <r_i_glide_hbond>  (1) 
-0.50373360806762624

>  <r_i_glide_ligand_efficiency>  (1) 
-0.14888384791360085

>  <r_i_glide_ligand_efficiency_ln>  (1) 
-1.4670765348935775

>  <r_i_glide_ligand_efficiency_sa>  (1) 
-0.54107981196778498

>  <r_i_glide_lipo>  (1) 
-4.2098169999365531

>  <r_i_glide_metal>  (1) 
-0

>  <r_i_glide_rewards>  (1) 
-1.0800032194712881

>  <r_lp_Energy>  (1) 
45.973873999999995

>  <r_lp_tautomer_probability>  (1) 
0.99979120136373534

>  <s_epik_Chemistry_Notes>  (1) 
This compound has an ester and may undergo hydrolysis at high or low pH.

>  <s_epik_cmdline>  (1) 
J2VwaWtfcHl0aG9uJywgJy1waHQnLCAnMS4wJywgJy1waCcsICc3LjQnLCAnLXRuJywgJzgnLCAnLW1hJywgJzUwMCcsICctaW1hZScsICc8aW5maWxlLm1hZT4nLCAnLW9tYWUnLCAnPG91dGZpbGUubWFlPic=

>  <s_epik_input>  (1) 
W09IXVtDSDJdW0NIMl1bQ0BIXShbQ0gzXSlPW0NAQEhdKFtDSDJdT1tDSDJdW0NIM10pW0NIMl1bQ0gyXVNDKD1PKVtOSF0vW0NIXT1DKFtDQEhdMU4oW05IXTIpW0NAQEhdKEMxKFtDSDNdKVtDSDNdKVtDQEhdM04oW0NASF0zNClbQ0gyXVtDSDJdW0NIMl1DND1PKVxbQ0gyXVtDQEBIXShbQ0BASF0yNSlbQ0BASF01W0NIMl1bQ0gyXVtDSDJdW0NIMl1bQ0BASF0oQzY9TylbQ0hdPVtDSF1PNg==

>  <s_glide_docking_method>  (1) 
confgen

>  <s_i_glide_gridfile>  (1) 
gpcr_5ht2c_6bqh_protein_autoprepared_prepared

>  <s_lp_Force_Field>  (1) 
S-OPLS

>  <s_lp_Variant>  (1) 
DiffSBDD_78-1

>  <s_m_source_file>  (1) 
generated_GPCR_5HT2C_ligand_DiffSBDD_2026-06-23_prepared.sdf

>  <GenAI_Model>  (1) 
DiffSBDD

>  <Protein>  (1) 
GPCR_5HT2C

$$$$
DiffSBDD_50
     RDKit          3D

  0  0  0  0  0  0  0  0  0  0999 V3000
M  V30 BEGIN CTAB
M  V30 COUNTS 65 68 0 0 1
M  V30 BEGIN ATOM
M  V30 1 C 38.142261 30.330157 55.040610 0 CFG=2
M  V30 2 F 40.163736 26.891381 55.791214 0
M  V30 3 C 38.436905 31.290968 58.545962 0
M  V30 4 O 38.073947 33.326591 55.978296 0 CHG=-1
M  V30 5 O 38.973985 31.654105 62.040782 0
M  V30 6 O 38.271829 32.270110 59.507273 0
M  V30 7 S 38.670292 28.849809 57.489524 0
M  V30 8 C 37.668763 28.951744 54.545655 0
M  V30 9 C 36.480872 33.717643 60.220153 0 CFG=2
M  V30 10 O 40.005016 28.249975 51.717581 0
M  V30 11 C 37.933253 32.578450 61.785654 0 CFG=1
M  V30 12 C 37.387903 36.151824 60.618114 0
M  V30 13 C 39.657342 30.296642 52.878348 0
M  V30 14 C 38.767653 28.177388 53.807951 0 CFG=2
M  V30 15 C 38.942296 25.171215 56.888735 0
M  V30 16 C 39.044775 32.937753 56.754211 0
M  V30 17 C 39.046648 28.941382 52.504365 0 CFG=2
M  V30 18 C 39.441624 27.564054 50.613281 0
M  V30 19 F 36.045201 23.220540 55.767755 0
M  V30 20 C 37.212748 24.986737 54.676134 0
M  V30 21 C 37.163829 34.734501 61.169555 0 CFG=2
M  V30 22 C 38.809284 31.111469 53.866569 0
M  V30 23 C 37.893726 24.236521 56.890071 0
M  V30 24 C 38.428778 34.022116 61.654902 0
M  V30 25 C 39.001276 30.330488 56.348777 0 CFG=2
M  V30 26 C 38.235661 25.948978 54.667649 0
M  V30 27 C 37.225737 32.371035 60.444412 0 CFG=2
M  V30 28 C 38.784099 31.537906 57.293095 0
M  V30 29 N 38.346825 26.803522 53.540412 0
M  V30 30 C 39.128886 26.024689 55.784380 0
M  V30 31 C 37.038631 24.137147 55.778108 0
M  V30 32 O 36.280381 31.323694 60.512673 0
M  V30 33 O 38.120102 29.476460 59.998297 0
M  V30 34 O 36.478277 34.137782 58.875131 0
M  V30 35 C 38.355458 29.917276 58.877120 0
M  V30 36 H 37.222087 30.859034 55.298465 0
M  V30 37 H 38.690887 30.792733 61.768398 0
M  V30 38 H 37.245358 28.368268 55.353727 0
M  V30 39 H 36.845118 29.105782 53.854308 0
M  V30 40 H 35.439373 33.603389 60.527488 0
M  V30 41 H 37.185008 32.505109 62.569731 0
M  V30 42 H 38.066359 36.138425 59.768008 0
M  V30 43 H 36.450576 36.597702 60.283842 0
M  V30 44 H 37.818288 36.803060 61.378458 0
M  V30 45 H 39.847605 30.885953 51.981039 0
M  V30 46 H 40.627612 30.137808 53.344052 0
M  V30 47 H 39.682109 28.249876 54.363059 0
M  V30 48 H 39.611028 25.232836 57.735021 0
M  V30 49 H 39.244584 33.525463 57.648421 0
M  V30 50 H 40.053012 32.874621 56.351294 0
M  V30 51 H 38.125317 29.104776 51.941374 0
M  V30 52 H 40.208036 26.937957 50.167762 0
M  V30 53 H 38.614969 26.914509 50.899622 0
M  V30 54 H 39.086524 28.270442 49.862587 0
M  V30 55 H 36.544229 24.908950 53.831734 0
M  V30 56 H 36.503972 34.842862 62.031686 0
M  V30 57 H 38.037007 31.675514 53.367787 0
M  V30 58 H 39.474469 31.889657 54.219627 0
M  V30 59 H 37.754183 23.583396 57.739203 0
M  V30 60 H 39.214748 34.096187 60.900928 0
M  V30 61 H 38.840030 34.438965 62.570197 0
M  V30 62 H 40.052261 30.271522 56.077077 0
M  V30 63 H 37.648109 26.687858 52.818507 0
M  V30 64 H 36.759555 30.508668 60.419737 0
M  V30 65 H 36.445655 33.384624 58.293545 0
M  V30 END ATOM
M  V30 BEGIN BOND
M  V30 1 1 6 3
M  V30 2 1 8 1
M  V30 3 1 11 5
M  V30 4 1 14 8
M  V30 5 1 16 4
M  V30 6 1 17 10
M  V30 7 1 17 13
M  V30 8 1 17 14
M  V30 9 1 18 10
M  V30 10 1 21 9
M  V30 11 1 21 12
M  V30 12 1 22 1
M  V30 13 1 22 13
M  V30 14 2 23 15
M  V30 15 1 24 11
M  V30 16 1 24 21
M  V30 17 1 25 1
M  V30 18 1 25 7
M  V30 19 1 26 20
M  V30 20 1 27 6 CFG=3
M  V30 21 1 27 9
M  V30 22 1 27 11
M  V30 23 2 28 3
M  V30 24 1 28 16
M  V30 25 1 28 25
M  V30 26 1 29 14
M  V30 27 1 29 26
M  V30 28 1 30 2
M  V30 29 1 30 15
M  V30 30 2 30 26
M  V30 31 1 31 19
M  V30 32 2 31 20
M  V30 33 1 31 23
M  V30 34 1 32 27
M  V30 35 1 34 9
M  V30 36 1 35 3
M  V30 37 1 35 7
M  V30 38 2 35 33
M  V30 39 1 1 36 CFG=1
M  V30 40 1 37 5
M  V30 41 1 38 8
M  V30 42 1 39 8
M  V30 43 1 9 40 CFG=1
M  V30 44 1 11 41 CFG=1
M  V30 45 1 42 12
M  V30 46 1 43 12
M  V30 47 1 44 12
M  V30 48 1 45 13
M  V30 49 1 46 13
M  V30 50 1 14 47 CFG=1
M  V30 51 1 48 15
M  V30 52 1 49 16
M  V30 53 1 50 16
M  V30 54 1 17 51 CFG=3
M  V30 55 1 52 18
M  V30 56 1 53 18
M  V30 57 1 54 18
M  V30 58 1 55 20
M  V30 59 1 21 56 CFG=1
M  V30 60 1 57 22
M  V30 61 1 58 22
M  V30 62 1 59 23
M  V30 63 1 60 24
M  V30 64 1 61 24
M  V30 65 1 25 62 CFG=3
M  V30 66 1 63 29
M  V30 67 1 64 32
M  V30 68 1 65 34
M  V30 END BOND
M  V30 END CTAB
M  END
>  <i_epik_Tot_Q>  (1) 
-1

>  <i_epik_Tot_abs_Q>  (1) 
1

>  <i_i_glide_confnum>  (1) 
78

>  <i_i_glide_lignum>  (1) 
106

>  <i_i_glide_posenum>  (1) 
126

>  <i_i_glide_rotatable_bonds>  (1) 
10

>  <i_lp_mmshare_version>  (1) 
72125

>  <i_m_source_file_index>  (1) 
51

>  <i_f3d_flags>  (1) 
0

>  <num_sample>  (1) 
100

>  <b_lp_Chiralities_Consistent>  (1) 
1

>  <r_epik_Charging_Adjusted_Penalty>  (1) 
1.033121990919972

>  <r_epik_Ionization_Penalty>  (1) 
0.51659959183111048

>  <r_epik_Ionization_Penalty_Charging>  (1) 
0.51656099545998602

>  <r_epik_Ionization_Penalty_Neutral>  (1) 
3.8596371124435187e-05

>  <r_epik_State_Penalty>  (1) 
0.51656099545998602

>  <r_glide_ring_energy>  (1) 
0.22530562285131159

>  <r_i_docking_score>  (1) 
-7.1454874695945225

>  <r_i_glide_ecoul>  (1) 
-0.16206457956555553

>  <r_i_glide_eff_state_penalty>  (1) 
0.51656099545998602

>  <r_i_glide_einternal>  (1) 
18.243744977656789

>  <r_i_glide_emodel>  (1) 
-58.075163083246686

>  <r_i_glide_emodel_strain>  (1) 
2.8512849252750812

>  <r_i_glide_energy>  (1) 
-49.392112879515238

>  <r_i_glide_erotb>  (1) 
0.38736490325272716

>  <r_i_glide_esite>  (1) 
-0.024030767891587115

>  <r_i_glide_evdw>  (1) 
-49.230048299949686

>  <r_i_glide_gscore>  (1) 
-7.6620484650545082

>  <r_i_glide_gscore_strain>  (1) 
0

>  <r_i_glide_hbond>  (1) 
-0.043752187627872322

>  <r_i_glide_ligand_efficiency>  (1) 
-0.2041567848455578

>  <r_i_glide_ligand_efficiency_ln>  (1) 
-1.5685930851260221

>  <r_i_glide_ligand_efficiency_sa>  (1) 
-0.66781038090472455

>  <r_i_glide_lipo>  (1) 
-4.2993237284624701

>  <r_i_glide_metal>  (1) 
-0

>  <r_i_glide_rewards>  (1) 
-1.1964945823929884

>  <r_lp_Energy>  (1) 
68.171737999999991

>  <r_lp_tautomer_probability>  (1) 
0.99999998906363929

>  <s_epik_cmdline>  (1) 
J2VwaWtfcHl0aG9uJywgJy1waHQnLCAnMS4wJywgJy1waCcsICc3LjQnLCAnLXRuJywgJzgnLCAnLW1hJywgJzUwMCcsICctaW1hZScsICc8aW5maWxlLm1hZT4nLCAnLW9tYWUnLCAnPG91dGZpbGUubWFlPic=

>  <s_epik_input>  (1) 
W09IXVtDQEhdMVtDSDJdW0NAQEhdKFtDSDNdKVtDQEBIXShbT0hdKVtDQEBdMShbT0hdKU9DMj1DKFtDSDJdW09IXSlbQ0BASF0oU0MyPU8pW0NAQEhdM1tDSDJdW0NASF0oW0NASF0oT1tDSDNdKVtDSDJdW0NIMl0zKVtOSF1jNFtjSF1jKEYpW2NIXVtjSF1jNEY=

>  <s_glide_docking_method>  (1) 
confgen

>  <s_i_glide_gridfile>  (1) 
gpcr_5ht2c_6bqh_protein_autoprepared_prepared

>  <s_lp_Force_Field>  (1) 
S-OPLS

>  <s_lp_Variant>  (1) 
DiffSBDD_50-4

>  <s_m_source_file>  (1) 
generated_GPCR_5HT2C_ligand_DiffSBDD_2026-06-23_prepared.sdf

>  <GenAI_Model>  (1) 
DiffSBDD

>  <Protein>  (1) 
GPCR_5HT2C

$$$$
DiffSBDD_16
     RDKit          3D

  0  0  0  0  0  0  0  0  0  0999 V3000
M  V30 BEGIN CTAB
M  V30 COUNTS 69 73 0 0 1
M  V30 BEGIN ATOM
M  V30 1 C 40.864883 30.050226 63.302728 0
M  V30 2 C 39.612823 26.479196 53.826246 0
M  V30 3 C 38.123741 30.355786 58.803593 0 CFG=1
M  V30 4 C 39.225126 29.327624 59.136632 0
M  V30 5 C 42.668979 30.631115 64.870268 0
M  V30 6 C 43.045495 29.278671 64.942272 0
M  V30 7 C 39.703957 34.187685 61.965977 0
M  V30 8 C 38.874522 34.656958 60.771807 0
M  V30 9 C 38.282501 31.731650 59.477269 0
M  V30 10 C 42.333033 28.311774 64.215926 0
M  V30 11 O 41.524137 32.655110 61.832606 0
M  V30 12 C 39.312990 27.363069 56.062288 0
M  V30 13 C 38.737782 28.197016 56.975624 0
M  V30 14 C 37.806260 29.363710 56.635529 0
M  V30 15 C 39.217145 27.461035 54.592635 0
M  V30 16 C 41.584837 31.021494 64.055506 0
M  V30 17 N 39.525201 26.702452 52.478543 0
M  V30 18 C 39.645147 30.151873 51.609447 0
M  V30 19 N 38.118764 30.586817 57.360953 0
M  V30 20 C 39.645149 30.686122 53.004513 0
M  V30 21 C 43.421919 31.668534 65.679855 0
M  V30 22 C 37.392130 34.289675 60.900564 0
M  V30 23 C 35.626257 32.529488 61.265207 0
M  V30 24 C 37.107178 32.890714 61.491623 0 CFG=1
M  V30 25 C 39.683333 30.393492 62.428918 0
M  V30 26 C 38.062713 31.769164 61.015077 0 CFG=2
M  V30 27 C 40.299198 32.774793 61.875804 0
M  V30 28 C 38.741720 28.644924 53.833829 0 CFG=2
M  V30 29 C 39.361400 31.592700 61.836538 0
M  V30 30 C 39.245132 27.954847 52.511882 0
M  V30 31 N 39.381510 29.959863 54.030967 0
M  V30 32 C 41.245182 28.692535 63.408146 0
M  V30 33 C 38.946481 27.982971 58.458623 0
M  V30 34 C 39.465718 28.840632 51.382697 0
M  V30 35 H 40.010952 25.536937 54.175642 0
M  V30 36 H 37.151269 29.950335 59.089557 0
M  V30 37 H 40.201644 29.707317 58.833306 0
M  V30 38 H 39.275927 29.144240 60.202357 0
M  V30 39 H 43.876444 28.980763 65.565227 0
M  V30 40 H 39.139739 34.280479 62.892798 0
M  V30 41 H 40.548766 34.869302 62.074071 0
M  V30 42 H 38.955030 35.741413 60.687043 0
M  V30 43 H 39.295911 34.272589 59.844256 0
M  V30 44 H 39.245169 32.157176 59.211549 0
M  V30 45 H 37.545757 32.382805 59.006004 0
M  V30 46 H 42.618172 27.271908 64.279961 0
M  V30 47 H 39.905619 26.549188 56.455667 0
M  V30 48 H 37.588941 29.605453 55.613793 0
M  V30 49 H 36.845114 29.053110 57.027737 0
M  V30 50 H 41.294986 32.053839 64.038428 0
M  V30 51 H 39.838990 30.857207 50.814289 0
M  V30 52 H 37.385443 31.259758 57.144220 0
M  V30 53 H 39.895060 31.737752 53.097525 0
M  V30 54 H 43.156305 31.583957 66.733782 0
M  V30 55 H 44.498030 31.518526 65.586487 0
M  V30 56 H 43.187636 32.681977 65.353573 0
M  V30 57 H 36.899489 35.032293 61.529940 0
M  V30 58 H 36.926372 34.394113 59.920015 0
M  V30 59 H 35.397869 32.421490 60.204074 0
M  V30 60 H 35.354699 31.595548 61.757267 0
M  V30 61 H 34.969343 33.304441 61.663206 0
M  V30 62 H 37.234513 32.937749 62.567754 0
M  V30 63 H 38.991556 29.578344 62.284453 0
M  V30 64 H 37.507430 30.857489 61.236441 0
M  V30 65 H 37.653585 28.702227 53.788444 0
M  V30 66 H 40.700675 27.939560 62.856372 0
M  V30 67 H 38.045122 27.535834 58.873305 0
M  V30 68 H 39.763946 27.285074 58.646407 0
M  V30 69 H 39.517535 28.397526 50.398501 0
M  V30 END ATOM
M  V30 BEGIN BOND
M  V30 1 1 4 3
M  V30 2 1 6 5
M  V30 3 1 8 7
M  V30 4 1 9 3
M  V30 5 2 10 6
M  V30 6 2 13 12
M  V30 7 1 14 13
M  V30 8 2 15 2
M  V30 9 1 15 12
M  V30 10 1 16 1
M  V30 11 2 16 5
M  V30 12 1 17 2
M  V30 13 1 19 3
M  V30 14 1 19 14
M  V30 15 1 20 18
M  V30 16 1 21 5
M  V30 17 1 22 8
M  V30 18 1 24 22
M  V30 19 1 24 23
M  V30 20 1 25 1
M  V30 21 1 26 9
M  V30 22 1 26 24
M  V30 23 1 27 7
M  V30 24 2 27 11
M  V30 25 1 28 15
M  V30 26 2 29 25
M  V30 27 1 29 26
M  V30 28 1 29 27
M  V30 29 2 30 17
M  V30 30 1 30 28
M  V30 31 2 31 20
M  V30 32 1 31 28
M  V30 33 2 32 1
M  V30 34 1 32 10
M  V30 35 1 33 4
M  V30 36 1 33 13
M  V30 37 2 34 18
M  V30 38 1 34 30
M  V30 39 1 35 2
M  V30 40 1 3 36 CFG=1
M  V30 41 1 37 4
M  V30 42 1 38 4
M  V30 43 1 39 6
M  V30 44 1 40 7
M  V30 45 1 41 7
M  V30 46 1 42 8
M  V30 47 1 43 8
M  V30 48 1 44 9
M  V30 49 1 45 9
M  V30 50 1 46 10
M  V30 51 1 47 12
M  V30 52 1 48 14
M  V30 53 1 49 14
M  V30 54 1 50 16
M  V30 55 1 51 18
M  V30 56 1 52 19
M  V30 57 1 53 20
M  V30 58 1 54 21
M  V30 59 1 55 21
M  V30 60 1 56 21
M  V30 61 1 57 22
M  V30 62 1 58 22
M  V30 63 1 59 23
M  V30 64 1 60 23
M  V30 65 1 61 23
M  V30 66 1 24 62 CFG=1
M  V30 67 1 63 25
M  V30 68 1 26 64 CFG=1
M  V30 69 1 28 65 CFG=3
M  V30 70 1 66 32
M  V30 71 1 67 33
M  V30 72 1 68 33
M  V30 73 1 69 34
M  V30 END BOND
M  V30 END CTAB
M  END
>  <i_epik_Tot_Q>  (1) 
0

>  <i_epik_Tot_abs_Q>  (1) 
0

>  <i_i_glide_confnum>  (1) 
17

>  <i_i_glide_lignum>  (1) 
37

>  <i_i_glide_posenum>  (1) 
269

>  <i_i_glide_rotatable_bonds>  (1) 
4

>  <i_lp_mmshare_version>  (1) 
72125

>  <i_m_source_file_index>  (1) 
17

>  <i_f3d_flags>  (1) 
0

>  <num_sample>  (1) 
100

>  <b_lp_Chiralities_Consistent>  (1) 
1

>  <r_epik_Charging_Adjusted_Penalty>  (1) 
0.56391873878667209

>  <r_epik_Ionization_Penalty>  (1) 
0.56391873878667209

>  <r_epik_Ionization_Penalty_Charging>  (1) 
0

>  <r_epik_Ionization_Penalty_Neutral>  (1) 
0.56391873878667209

>  <r_epik_State_Penalty>  (1) 
0.56391873878667209

>  <r_glide_ring_energy>  (1) 
0

>  <r_i_docking_score>  (1) 
-7.1436662378457383

>  <r_i_glide_ecoul>  (1) 
-2.8974451550856384

>  <r_i_glide_eff_state_penalty>  (1) 
0.56391873878667209

>  <r_i_glide_einternal>  (1) 
17.614623391090738

>  <r_i_glide_emodel>  (1) 
-52.218871283401157

>  <r_i_glide_emodel_strain>  (1) 
0.019892745895162989

>  <r_i_glide_energy>  (1) 
-44.148323055601757

>  <r_i_glide_erotb>  (1) 
0.29265828080580603

>  <r_i_glide_esite>  (1) 
0

>  <r_i_glide_evdw>  (1) 
-41.250877900516116

>  <r_i_glide_gscore>  (1) 
-7.7075849766324103

>  <r_i_glide_gscore_strain>  (1) 
0

>  <r_i_glide_hbond>  (1) 
-0.11789995180161807

>  <r_i_glide_ligand_efficiency>  (1) 
-0.21010783052487467

>  <r_i_glide_ligand_efficiency_ln>  (1) 
-1.5782362449910077

>  <r_i_glide_ligand_efficiency_sa>  (1) 
-0.68066780730919352

>  <r_i_glide_lipo>  (1) 
-3.4339951424715087

>  <r_i_glide_metal>  (1) 
-0

>  <r_i_glide_rewards>  (1) 
-1.9511874948764381

>  <r_lp_Energy>  (1) 
61.267170999999998

>  <s_epik_Chemistry_Notes>  (1) 
This compound has an imine and may undergo hydrolysis.

>  <s_epik_cmdline>  (1) 
J2VwaWtfcHl0aG9uJywgJy1waHQnLCAnMS4wJywgJy1waCcsICc3LjQnLCAnLXRuJywgJzgnLCAnLW1hJywgJzUwMCcsICctaW1hZScsICc8aW5maWxlLm1hZT4nLCAnLW9tYWUnLCAnPG91dGZpbGUubWFlPic=

>  <s_epik_input>  (1) 
W2NIXTFbY0hdW2NIXWMoW0NIM10pW2NIXWMxL1tDSF09QyhDKD1PKVtDSDJdW0NIMl1bQ0gyXVtDQEhdMltDSDNdKS9bQ0BASF0yW0NIMl1bQ0BASF0zW0NIMl1bQ0gyXUMoXFtDSDJdW05IXTMpPVtDSF1cQzQ9W0NIXU49QyhbQ0BASF00NSlbQ0hdPVtDSF1bQ0hdPU41

>  <s_glide_docking_method>  (1) 
confgen

>  <s_i_glide_gridfile>  (1) 
gpcr_5ht2c_6bqh_protein_autoprepared_prepared

>  <s_lp_Force_Field>  (1) 
S-OPLS

>  <s_lp_Variant>  (1) 
DiffSBDD_16-5

>  <s_m_source_file>  (1) 
generated_GPCR_5HT2C_ligand_DiffSBDD_2026-06-23_prepared.sdf

>  <GenAI_Model>  (1) 
DiffSBDD

>  <Protein>  (1) 
GPCR_5HT2C

$$$$
DiffSBDD_41
     RDKit          3D

  0  0  0  0  0  0  0  0  0  0999 V3000
M  V30 BEGIN CTAB
M  V30 COUNTS 52 53 0 0 1
M  V30 BEGIN ATOM
M  V30 1 C 38.651072 29.502011 54.012226 0
M  V30 2 C 38.003838 30.319054 58.086531 0 CFG=1
M  V30 3 C 37.178418 37.407406 60.592786 0
M  V30 4 C 38.233079 33.774438 59.925280 0
M  V30 5 C 39.762119 34.739047 61.579963 0
M  V30 6 C 39.064323 35.959801 61.528696 0
M  V30 7 C 39.354077 33.652772 60.784244 0
M  V30 8 O 38.845691 27.279748 51.077377 0
M  V30 9 C 38.437205 31.460836 58.988100 0
M  V30 10 S 39.140710 30.134371 56.675009 0
M  V30 11 N 36.484829 37.737754 61.847586 0 CHG=1
M  V30 12 C 39.838063 29.425350 51.453625 0
M  V30 13 C 40.045178 30.535872 52.291116 0
M  V30 14 C 39.532952 37.129536 62.382993 0
M  V30 15 C 37.786481 28.998736 58.854855 0
M  V30 16 C 39.042403 28.351888 51.891816 0
M  V30 17 C 37.805750 32.650171 59.056388 0
M  V30 18 C 39.452639 30.577503 53.569265 0
M  V30 19 C 40.205498 28.179580 59.329423 0
M  V30 20 C 37.524318 34.995438 59.885108 0
M  V30 21 C 38.845182 28.587677 59.904794 0
M  V30 22 F 40.402710 29.389838 50.223503 0
M  V30 23 C 38.448083 28.387137 53.169704 0
M  V30 24 C 37.937053 36.090708 60.676969 0
M  V30 25 C 37.996518 29.547528 55.387444 0
M  V30 26 H 37.040522 30.586371 57.658623 0
M  V30 27 H 37.855528 38.215519 60.316447 0
M  V30 28 H 36.433703 37.344063 59.798083 0
M  V30 29 H 40.620803 34.635953 62.227150 0
M  V30 30 H 39.907429 32.730974 60.831398 0
M  V30 31 H 39.256577 27.388647 50.231867 0
M  V30 32 H 39.304253 31.279667 59.591844 0
M  V30 33 H 35.944503 38.581914 61.714889 0
M  V30 34 H 35.878059 36.975421 62.111238 0
M  V30 35 H 40.656454 31.357949 51.952423 0
M  V30 36 H 38.841719 37.319667 63.203238 0
M  V30 37 H 40.506171 36.915315 62.827101 0
M  V30 38 H 39.647424 38.037836 61.791840 0
M  V30 39 H 36.836835 29.106760 59.377234 0
M  V30 40 H 37.633910 28.181076 58.149858 0
M  V30 41 H 36.931351 32.818243 58.441730 0
M  V30 42 H 39.610170 31.435798 54.206936 0
M  V30 43 H 40.856941 27.785499 60.110272 0
M  V30 44 H 40.094821 27.405443 58.569733 0
M  V30 45 H 40.715949 29.029528 58.878637 0
M  V30 46 H 36.671829 35.098149 59.227317 0
M  V30 47 H 38.976851 29.365586 60.656299 0
M  V30 48 H 38.450677 27.737851 60.456493 0
M  V30 49 H 37.834676 27.561985 53.501416 0
M  V30 50 H 37.129566 30.207926 55.339463 0
M  V30 51 H 37.645692 28.554914 55.666485 0
M  V30 52 H 37.165082 37.875018 62.579205 0
M  V30 END ATOM
M  V30 BEGIN BOND
M  V30 1 1 6 5
M  V30 2 1 7 4
M  V30 3 2 7 5
M  V30 4 1 9 2
M  V30 5 1 10 2
M  V30 6 1 11 3
M  V30 7 1 13 12
M  V30 8 1 14 6
M  V30 9 1 15 2
M  V30 10 1 16 8
M  V30 11 2 16 12
M  V30 12 1 17 4
M  V30 13 2 17 9
M  V30 14 1 18 1
M  V30 15 2 18 13
M  V30 16 2 20 4
M  V30 17 1 21 15
M  V30 18 1 21 19
M  V30 19 1 22 12
M  V30 20 2 23 1
M  V30 21 1 23 16
M  V30 22 1 24 3
M  V30 23 2 24 6
M  V30 24 1 24 20
M  V30 25 1 25 1
M  V30 26 1 25 10
M  V30 27 1 2 26 CFG=3
M  V30 28 1 27 3
M  V30 29 1 28 3
M  V30 30 1 29 5
M  V30 31 1 30 7
M  V30 32 1 31 8
M  V30 33 1 32 9
M  V30 34 1 33 11
M  V30 35 1 34 11
M  V30 36 1 35 13
M  V30 37 1 36 14
M  V30 38 1 37 14
M  V30 39 1 38 14
M  V30 40 1 39 15
M  V30 41 1 40 15
M  V30 42 1 41 17
M  V30 43 1 42 18
M  V30 44 1 43 19
M  V30 45 1 44 19
M  V30 46 1 45 19
M  V30 47 1 46 20
M  V30 48 1 47 21
M  V30 49 1 48 21
M  V30 50 1 49 23
M  V30 51 1 50 25
M  V30 52 1 51 25
M  V30 53 1 52 11
M  V30 END BOND
M  V30 END CTAB
M  END
>  <i_epik_Tot_Q>  (1) 
1

>  <i_epik_Tot_abs_Q>  (1) 
1

>  <i_i_glide_confnum>  (1) 
105

>  <i_i_glide_lignum>  (1) 
88

>  <i_i_glide_posenum>  (1) 
212

>  <i_i_glide_rotatable_bonds>  (1) 
9

>  <i_lp_mmshare_version>  (1) 
72125

>  <i_m_source_file_index>  (1) 
42

>  <i_f3d_flags>  (1) 
0

>  <num_sample>  (1) 
100

>  <b_lp_Chiralities_Consistent>  (1) 
1

>  <r_epik_Charging_Adjusted_Penalty>  (1) 
0.19353898929150365

>  <r_epik_Ionization_Penalty>  (1) 
0.13216089294123454

>  <r_epik_Ionization_Penalty_Charging>  (1) 
0.06151586109146627

>  <r_epik_Ionization_Penalty_Neutral>  (1) 
0.070645031849768267

>  <r_epik_State_Penalty>  (1) 
0.13202312820003739

>  <r_glide_ring_energy>  (1) 
0

>  <r_i_docking_score>  (1) 
-7.1388185172440268

>  <r_i_glide_ecoul>  (1) 
-0.8731587551293396

>  <r_i_glide_eff_state_penalty>  (1) 
0.13202312820003739

>  <r_i_glide_einternal>  (1) 
4.614195512199263

>  <r_i_glide_emodel>  (1) 
-59.399541360688623

>  <r_i_glide_emodel_strain>  (1) 
0.29830258931101561

>  <r_i_glide_energy>  (1) 
-40.063991849125891

>  <r_i_glide_erotb>  (1) 
0.88540937349265225

>  <r_i_glide_esite>  (1) 
0

>  <r_i_glide_evdw>  (1) 
-39.190833093996552

>  <r_i_glide_gscore>  (1) 
-7.2708416454440643

>  <r_i_glide_gscore_strain>  (1) 
0

>  <r_i_glide_hbond>  (1) 
0

>  <r_i_glide_ligand_efficiency>  (1) 
-0.28555274068976105

>  <r_i_glide_ligand_efficiency_ln>  (1) 
-1.6921139217144523

>  <r_i_glide_ligand_efficiency_sa>  (1) 
-0.83496127897216033

>  <r_i_glide_lipo>  (1) 
-3.8200902566626396

>  <r_i_glide_metal>  (1) 
-0

>  <r_i_glide_rewards>  (1) 
-2.2456452943048486

>  <r_lp_Energy>  (1) 
18.429102

>  <r_lp_tautomer_probability>  (1) 
0.99999999999736477

>  <s_epik_cmdline>  (1) 
J2VwaWtfcHl0aG9uJywgJy1waHQnLCAnMS4wJywgJy1waCcsICc3LjQnLCAnLXRuJywgJzgnLCAnLW1hJywgJzUwMCcsICctaW1hZScsICc8aW5maWxlLm1hZT4nLCAnLW9tYWUnLCAnPG91dGZpbGUubWFlPic=

>  <s_epik_input>  (1) 
W09IXWMoW2NIXTEpYyhGKVtjSF1bY0hdYzFbQ0gyXVNbQ0BASF0oW0NIMl1bQ0gyXVtDSDNdKS9bQ0hdPVtDSF0vYzJbY0hdW2NIXWMoW0NIM10pYyhbY0hdMilbQ0gyXVtOSDJd

>  <s_glide_docking_method>  (1) 
confgen

>  <s_i_glide_gridfile>  (1) 
gpcr_5ht2c_6bqh_protein_autoprepared_prepared

>  <s_lp_Force_Field>  (1) 
S-OPLS

>  <s_lp_Variant>  (1) 
DiffSBDD_41-1

>  <s_m_source_file>  (1) 
generated_GPCR_5HT2C_ligand_DiffSBDD_2026-06-23_prepared.sdf

>  <GenAI_Model>  (1) 
DiffSBDD

>  <Protein>  (1) 
GPCR_5HT2C

$$$$
DiffSBDD_73
     RDKit          3D

  0  0  0  0  0  0  0  0  0  0999 V3000
M  V30 BEGIN CTAB
M  V30 COUNTS 64 65 0 0 1
M  V30 BEGIN ATOM
M  V30 1 C 37.030585 33.813242 60.333401 0 CFG=1
M  V30 2 C 38.425846 29.685365 58.568227 0
M  V30 3 N 38.421991 27.776342 55.487966 0
M  V30 4 C 40.503901 34.704542 61.784803 0
M  V30 5 C 39.416070 34.137844 61.187160 0
M  V30 6 C 37.288021 33.655250 58.838635 0
M  V30 7 C 38.705366 26.358164 55.268078 0 CFG=2
M  V30 8 N 37.245140 30.137723 56.433570 0
M  V30 9 O 37.662645 28.202018 53.391871 0
M  V30 10 C 34.437672 33.530346 59.864294 0
M  V30 11 C 37.462979 29.985988 54.976076 0 CFG=2
M  V30 12 C 39.368220 36.518768 63.149537 0
M  V30 13 C 40.605697 36.056166 62.446721 0 CFG=1
M  V30 14 C 37.880907 28.569122 54.546964 0
M  V30 15 O 37.645044 32.316124 58.554809 0
M  V30 16 C 37.683974 25.652869 57.528216 0
M  V30 17 C 38.038160 34.695212 61.003685 0
M  V30 18 C 38.450910 37.002378 62.076935 0
M  V30 19 C 38.417463 30.496647 57.256016 0 CFG=1
M  V30 20 C 35.589351 33.738156 60.830832 0 CFG=1
M  V30 21 O 41.613884 35.975345 63.431729 0
M  V30 22 C 38.923793 25.654697 56.623243 0
M  V30 23 C 38.445147 32.014929 57.528936 0
M  V30 24 O 39.079186 32.830403 56.858733 0
M  V30 25 C 38.359045 31.070573 54.340457 0
M  V30 26 C 37.637334 35.942346 61.390407 0
M  V30 27 C 39.914770 26.149685 54.346800 0
M  V30 28 C 36.539349 32.615726 61.138787 0
M  V30 29 H 39.209997 30.032542 59.243053 0
M  V30 30 H 37.473971 29.757008 59.097322 0
M  V30 31 H 38.612411 28.629208 58.374964 0
M  V30 32 H 38.570250 28.151151 56.413713 0
M  V30 33 H 41.416422 34.125723 61.804117 0
M  V30 34 H 39.572514 33.146366 60.785311 0
M  V30 35 H 36.393185 33.904487 58.269577 0
M  V30 36 H 38.045250 34.364830 58.521815 0
M  V30 37 H 37.836615 25.901361 54.789471 0
M  V30 38 H 36.475466 30.801495 56.617124 0
M  V30 39 H 34.625449 32.688339 59.196377 0
M  V30 40 H 33.518295 33.337785 60.409886 0
M  V30 41 H 34.292412 34.425144 59.259176 0
M  V30 42 H 36.474557 30.116206 54.532128 0
M  V30 43 H 38.919313 35.741063 63.764342 0
M  V30 44 H 39.601582 37.354914 63.810984 0
M  V30 45 H 40.961794 36.781282 61.713299 0
M  V30 46 H 37.904219 25.144985 58.467397 0
M  V30 47 H 37.355083 26.665482 57.762754 0
M  V30 48 H 36.850880 25.132570 57.055032 0
M  V30 49 H 38.942004 37.652454 61.355104 0
M  V30 50 H 37.710739 37.636598 62.566393 0
M  V30 51 H 39.337043 30.216689 56.743576 0
M  V30 52 H 35.325854 34.361354 61.683172 0
M  V30 53 H 41.677730 36.810689 63.885320 0
M  V30 54 H 39.223888 24.619820 56.452032 0
M  V30 55 H 39.757406 26.120105 57.153111 0
M  V30 56 H 38.555332 30.846990 53.298538 0
M  V30 57 H 37.881537 32.050612 54.385918 0
M  V30 58 H 39.343915 31.153540 54.796941 0
M  V30 59 H 36.616470 36.227603 61.184608 0
M  V30 60 H 40.044786 25.085146 54.168799 0
M  V30 61 H 39.781877 26.623965 53.374349 0
M  V30 62 H 40.830735 26.536864 54.790350 0
M  V30 63 H 36.371058 31.666798 60.633664 0
M  V30 64 H 36.887333 32.526334 62.164454 0
M  V30 END ATOM
M  V30 BEGIN BOND
M  V30 1 2 5 4
M  V30 2 1 1 6 CFG=3
M  V30 3 1 7 3
M  V30 4 1 11 8
M  V30 5 1 13 4
M  V30 6 1 13 12
M  V30 7 1 14 3
M  V30 8 2 14 9
M  V30 9 1 14 11
M  V30 10 1 15 6
M  V30 11 1 17 1
M  V30 12 1 17 5
M  V30 13 1 18 12
M  V30 14 1 19 2
M  V30 15 1 19 8
M  V30 16 1 20 1
M  V30 17 1 20 10
M  V30 18 1 21 13
M  V30 19 1 22 7
M  V30 20 1 22 16
M  V30 21 1 23 15
M  V30 22 1 23 19
M  V30 23 2 24 23
M  V30 24 1 25 11
M  V30 25 2 26 17
M  V30 26 1 26 18
M  V30 27 1 27 7
M  V30 28 1 28 1
M  V30 29 1 28 20
M  V30 30 1 29 2
M  V30 31 1 30 2
M  V30 32 1 31 2
M  V30 33 1 32 3
M  V30 34 1 33 4
M  V30 35 1 34 5
M  V30 36 1 35 6
M  V30 37 1 36 6
M  V30 38 1 7 37 CFG=3
M  V30 39 1 38 8
M  V30 40 1 39 10
M  V30 41 1 40 10
M  V30 42 1 41 10
M  V30 43 1 11 42 CFG=3
M  V30 44 1 43 12
M  V30 45 1 44 12
M  V30 46 1 13 45 CFG=3
M  V30 47 1 46 16
M  V30 48 1 47 16
M  V30 49 1 48 16
M  V30 50 1 49 18
M  V30 51 1 50 18
M  V30 52 1 19 51 CFG=3
M  V30 53 1 20 52 CFG=1
M  V30 54 1 53 21
M  V30 55 1 54 22
M  V30 56 1 55 22
M  V30 57 1 56 25
M  V30 58 1 57 25
M  V30 59 1 58 25
M  V30 60 1 59 26
M  V30 61 1 60 27
M  V30 62 1 61 27
M  V30 63 1 62 27
M  V30 64 1 63 28
M  V30 65 1 64 28
M  V30 END BOND
M  V30 END CTAB
M  END
>  <i_epik_Tot_Q>  (1) 
0

>  <i_epik_Tot_abs_Q>  (1) 
0

>  <i_i_glide_confnum>  (1) 
1744

>  <i_i_glide_lignum>  (1) 
159

>  <i_i_glide_posenum>  (1) 
287

>  <i_i_glide_rotatable_bonds>  (1) 
12

>  <i_lp_mmshare_version>  (1) 
72125

>  <i_m_source_file_index>  (1) 
74

>  <i_f3d_flags>  (1) 
0

>  <num_sample>  (1) 
100

>  <b_lp_Chiralities_Consistent>  (1) 
1

>  <r_epik_Charging_Adjusted_Penalty>  (1) 
0.088841992990236665

>  <r_epik_Ionization_Penalty>  (1) 
0.088842122646257599

>  <r_epik_Ionization_Penalty_Charging>  (1) 
0

>  <r_epik_Ionization_Penalty_Neutral>  (1) 
0.088842122646257599

>  <r_epik_State_Penalty>  (1) 
0.088841992990236665

>  <r_glide_ring_energy>  (1) 
0

>  <r_i_docking_score>  (1) 
-7.1343089336115399

>  <r_i_glide_ecoul>  (1) 
-7.957391208277536

>  <r_i_glide_eff_state_penalty>  (1) 
0.088841992990236665

>  <r_i_glide_einternal>  (1) 
11.976086680867052

>  <r_i_glide_emodel>  (1) 
-60.427670448206634

>  <r_i_glide_emodel_strain>  (1) 
2.0973102523128944

>  <r_i_glide_energy>  (1) 
-49.729315550579159

>  <r_i_glide_erotb>  (1) 
1.2671681791471729

>  <r_i_glide_esite>  (1) 
-0.080105180256065334

>  <r_i_glide_evdw>  (1) 
-41.771924342301624

>  <r_i_glide_gscore>  (1) 
-7.223150926601777

>  <r_i_glide_gscore_strain>  (1) 
0

>  <r_i_glide_hbond>  (1) 
-0.45599999999999996

>  <r_i_glide_ligand_efficiency>  (1) 
-0.25479674762898358

>  <r_i_glide_ligand_efficiency_ln>  (1) 
-1.6468079742899793

>  <r_i_glide_ligand_efficiency_sa>  (1) 
-0.77371299391995796

>  <r_i_glide_lipo>  (1) 
-3.3409988226981953

>  <r_i_glide_metal>  (1) 
-0

>  <r_i_glide_rewards>  (1) 
-1.3310102044379772

>  <r_lp_Energy>  (1) 
22.608298999999999

>  <s_epik_Chemistry_Notes>  (1) 
This compound has an ester and may undergo hydrolysis at high or low pH.

>  <s_epik_cmdline>  (1) 
J2VwaWtfcHl0aG9uJywgJy1waHQnLCAnMS4wJywgJy1waCcsICc3LjQnLCAnLXRuJywgJzgnLCAnLW1hJywgJzUwMCcsICctaW1hZScsICc8aW5maWxlLm1hZT4nLCAnLW9tYWUnLCAnPG91dGZpbGUubWFlPic=

>  <s_epik_input>  (1) 
W09IXVtDQEhdMVtDSF09W0NIXUMoPVtDSF1bQ0gyXVtDSDJdMSlbQ0BAXTIoW0NAQEhdKFtDSDNdKVtDSDJdMilbQ0gyXU9DKD1PKVtDQEBIXShbQ0gzXSlbTkhdW0NASF0oW0NIM10pQyg9TylbTkhdW0NAQEhdKFtDSDNdKVtDSDJdW0NIM10=

>  <s_glide_docking_method>  (1) 
confgen

>  <s_i_glide_gridfile>  (1) 
gpcr_5ht2c_6bqh_protein_autoprepared_prepared

>  <s_lp_Force_Field>  (1) 
S-OPLS

>  <s_lp_Variant>  (1) 
DiffSBDD_73-2

>  <s_m_source_file>  (1) 
generated_GPCR_5HT2C_ligand_DiffSBDD_2026-06-23_prepared.sdf

>  <GenAI_Model>  (1) 
DiffSBDD

>  <Protein>  (1) 
GPCR_5HT2C

$$$$
DiffSBDD_75
     RDKit          3D

  0  0  0  0  0  0  0  0  0  0999 V3000
M  V30 BEGIN CTAB
M  V30 COUNTS 77 78 0 0 1
M  V30 BEGIN ATOM
M  V30 1 C 39.477030 30.503510 61.871467 0
M  V30 2 C 36.771123 33.017307 61.584377 0
M  V30 3 O 36.845148 29.737751 57.332307 0
M  V30 4 C 41.067737 29.804387 65.351333 0
M  V30 5 C 38.871606 30.051755 55.454044 0 CFG=1
M  V30 6 C 40.783112 35.145201 63.308781 0
M  V30 7 C 38.056476 29.182482 57.781766 0 CFG=2
M  V30 8 C 40.527457 34.958966 61.934591 0
M  V30 9 O 37.245241 29.249622 53.867208 0
M  V30 10 C 40.204412 28.231432 56.644153 0 CFG=2
M  V30 11 O 37.929673 37.509178 61.370236 0
M  V30 12 S 38.445205 31.407579 59.426841 0
M  V30 13 C 41.056268 28.545086 66.234609 0
M  V30 14 C 38.862376 36.739313 62.001615 0
M  V30 15 C 38.227055 29.612843 59.246253 0
M  V30 16 C 41.808530 34.276022 64.018913 0
M  V30 17 C 40.081210 36.137716 64.024791 0
M  V30 18 O 40.445127 26.137717 55.450097 0
M  V30 19 C 40.771008 27.690433 57.971297 0
M  V30 20 C 39.275592 29.468044 56.838326 0 CFG=1
M  V30 21 O 41.562807 28.883392 67.506874 0
M  V30 22 O 37.438174 31.805590 61.930567 0
M  V30 23 O 41.960913 31.983588 62.266487 0
M  V30 24 C 41.587235 28.781914 63.152514 0
M  V30 25 N 40.608673 29.572728 63.952582 0 CFG=2 CHG=1
M  V30 26 C 41.164863 31.905186 63.201413 0
M  V30 27 C 39.565613 35.751279 61.283660 0
M  V30 28 C 41.271053 32.877978 64.386436 0
M  V30 29 C 40.077573 30.803473 63.269166 0 CFG=1
M  V30 30 C 39.123266 36.933267 63.371037 0
M  V30 31 C 38.900808 27.622631 54.476816 0
M  V30 32 C 38.659031 31.646576 61.223349 0 CFG=1
M  V30 33 C 40.013904 30.794056 54.737019 0
M  V30 34 C 39.507395 27.130919 55.805723 0 CFG=2
M  V30 35 C 38.237189 28.995838 54.538682 0
M  V30 36 H 40.287398 30.248927 61.188100 0
M  V30 37 H 38.845038 29.618214 61.949384 0
M  V30 38 H 35.863489 33.145367 62.167684 0
M  V30 39 H 37.400894 33.887547 61.767695 0
M  V30 40 H 36.469252 33.030095 60.537178 0
M  V30 41 H 36.807663 30.689683 57.375866 0
M  V30 42 H 42.074097 30.225167 65.337645 0
M  V30 43 H 40.417607 30.542008 65.824982 0
M  V30 44 H 37.858720 28.112667 57.790951 0
M  V30 45 H 41.065912 34.205561 61.380920 0
M  V30 46 H 39.650264 27.679346 53.693078 0
M  V30 47 H 41.072449 28.564364 56.077442 0
M  V30 48 H 37.795940 37.271536 60.465637 0
M  V30 49 H 40.044883 28.159760 66.351056 0
M  V30 50 H 41.669006 27.739939 65.831671 0
M  V30 51 H 39.077887 29.086657 59.671330 0
M  V30 52 H 37.348476 29.319308 59.819961 0
M  V30 53 H 42.698642 34.178771 63.402347 0
M  V30 54 H 42.134847 34.786863 64.925970 0
M  V30 55 H 40.276219 36.286101 65.076912 0
M  V30 56 H 40.942366 25.875090 56.213268 0
M  V30 57 H 40.003735 27.202585 58.573057 0
M  V30 58 H 41.559224 26.957664 57.797358 0
M  V30 59 H 41.209049 28.493109 58.566141 0
M  V30 60 H 39.876806 30.237946 57.318540 0
M  V30 61 H 42.498027 29.011497 67.450004 0
M  V30 62 H 42.509812 29.336794 62.978172 0
M  V30 63 H 41.856747 27.852469 63.651159 0
M  V30 64 H 41.181349 28.483829 62.186653 0
M  V30 65 H 39.368770 35.603076 60.231984 0
M  V30 66 H 41.964033 32.436233 65.101532 0
M  V30 67 H 40.309803 32.957472 64.893827 0
M  V30 68 H 39.259583 31.164382 63.886744 0
M  V30 69 H 38.586256 37.689890 63.922214 0
M  V30 70 H 38.168266 26.895773 54.124111 0
M  V30 71 H 38.110034 30.815124 55.614441 0
M  V30 72 H 39.229073 32.569811 61.317613 0
M  V30 73 H 39.663970 31.245050 53.807150 0
M  V30 74 H 40.400470 31.602701 55.358054 0
M  V30 75 H 40.845093 30.137839 54.490521 0
M  V30 76 H 38.727354 26.646069 56.391721 0
M  V30 77 H 39.790750 28.976411 64.054221 0
M  V30 END ATOM
M  V30 BEGIN BOND
M  V30 1 1 7 3
M  V30 2 1 8 6
M  V30 3 1 13 4
M  V30 4 1 14 11
M  V30 5 1 15 7
M  V30 6 1 15 12
M  V30 7 1 16 6
M  V30 8 2 17 6
M  V30 9 1 19 10
M  V30 10 1 20 5
M  V30 11 1 20 7
M  V30 12 1 20 10
M  V30 13 1 21 13
M  V30 14 1 22 2
M  V30 15 1 25 4
M  V30 16 1 25 24
M  V30 17 2 26 23
M  V30 18 2 27 8
M  V30 19 1 27 14
M  V30 20 1 28 16
M  V30 21 1 28 26
M  V30 22 1 29 1
M  V30 23 1 29 25
M  V30 24 1 29 26
M  V30 25 2 30 14
M  V30 26 1 30 17
M  V30 27 1 32 1
M  V30 28 1 32 12
M  V30 29 1 32 22
M  V30 30 1 33 5
M  V30 31 1 34 10
M  V30 32 1 34 18
M  V30 33 1 34 31
M  V30 34 1 35 5
M  V30 35 2 35 9
M  V30 36 1 35 31
M  V30 37 1 36 1
M  V30 38 1 37 1
M  V30 39 1 38 2
M  V30 40 1 39 2
M  V30 41 1 40 2
M  V30 42 1 41 3
M  V30 43 1 42 4
M  V30 44 1 43 4
M  V30 45 1 7 44 CFG=1
M  V30 46 1 45 8
M  V30 47 1 46 31
M  V30 48 1 10 47 CFG=3
M  V30 49 1 48 11
M  V30 50 1 49 13
M  V30 51 1 50 13
M  V30 52 1 51 15
M  V30 53 1 52 15
M  V30 54 1 53 16
M  V30 55 1 54 16
M  V30 56 1 55 17
M  V30 57 1 56 18
M  V30 58 1 57 19
M  V30 59 1 58 19
M  V30 60 1 59 19
M  V30 61 1 20 60 CFG=1
M  V30 62 1 61 21
M  V30 63 1 62 24
M  V30 64 1 63 24
M  V30 65 1 64 24
M  V30 66 1 65 27
M  V30 67 1 66 28
M  V30 68 1 67 28
M  V30 69 1 29 68 CFG=1
M  V30 70 1 69 30
M  V30 71 1 70 31
M  V30 72 1 5 71 CFG=1
M  V30 73 1 32 72 CFG=3
M  V30 74 1 73 33
M  V30 75 1 74 33
M  V30 76 1 75 33
M  V30 77 1 34 76 CFG=1
M  V30 78 1 25 77 CFG=1
M  V30 END BOND
M  V30 END CTAB
M  END
>  <i_epik_Tot_Q>  (1) 
1

>  <i_epik_Tot_abs_Q>  (1) 
1

>  <i_i_glide_confnum>  (1) 
1756

>  <i_i_glide_lignum>  (1) 
164

>  <i_i_glide_posenum>  (1) 
266

>  <i_i_glide_rotatable_bonds>  (1) 
18

>  <i_lp_mmshare_version>  (1) 
72125

>  <i_m_source_file_index>  (1) 
76

>  <i_f3d_flags>  (1) 
0

>  <num_sample>  (1) 
100

>  <b_lp_Chiralities_Consistent>  (1) 
1

>  <r_epik_Charging_Adjusted_Penalty>  (1) 
0.52789471212939676

>  <r_epik_Ionization_Penalty>  (1) 
0.26592108790513191

>  <r_epik_Ionization_Penalty_Charging>  (1) 
0.26394735606469838

>  <r_epik_Ionization_Penalty_Neutral>  (1) 
0.0019737318404335234

>  <r_epik_State_Penalty>  (1) 
0.26394735606469838

>  <r_glide_ring_energy>  (1) 
0

>  <r_i_docking_score>  (1) 
-7.1287726140599448

>  <r_i_glide_ecoul>  (1) 
-10.607614206833398

>  <r_i_glide_eff_state_penalty>  (1) 
0.26394735606469838

>  <r_i_glide_einternal>  (1) 
6.6250556769050899

>  <r_i_glide_emodel>  (1) 
-78.018753227937566

>  <r_i_glide_emodel_strain>  (1) 
1.094936119346265

>  <r_i_glide_energy>  (1) 
-54.790176750219317

>  <r_i_glide_erotb>  (1) 
1.0139394581015995

>  <r_i_glide_esite>  (1) 
-0.041512580421347284

>  <r_i_glide_evdw>  (1) 
-44.18256254338592

>  <r_i_glide_gscore>  (1) 
-7.3927199701246433

>  <r_i_glide_gscore_strain>  (1) 
0

>  <r_i_glide_hbond>  (1) 
-0.53900373357519793

>  <r_i_glide_ligand_efficiency>  (1) 
-0.20367921754456986

>  <r_i_glide_ligand_efficiency_ln>  (1) 
-1.5649238033699508

>  <r_i_glide_ligand_efficiency_sa>  (1) 
-0.66624822659561522

>  <r_i_glide_lipo>  (1) 
-3.2864083363017156

>  <r_i_glide_metal>  (1) 
-0

>  <r_i_glide_rewards>  (1) 
-0.739464519733676

>  <r_lp_Energy>  (1) 
29.106935999999997

>  <r_lp_tautomer_probability>  (1) 
0.99989998499911525

>  <s_epik_Chemistry_Notes>  (1) 
This compound contains an acetal/aminal-like group ( X-CH(R)-Y where X, Y are N, S, or O) that may be acid/base labile, releasing an aldehyde.

>  <s_epik_cmdline>  (1) 
J2VwaWtfcHl0aG9uJywgJy1waHQnLCAnMS4wJywgJy1waCcsICc3LjQnLCAnLXRuJywgJzgnLCAnLW1hJywgJzUwMCcsICctaW1hZScsICc8aW5maWxlLm1hZT4nLCAnLW9tYWUnLCAnPG91dGZpbGUubWFlPic=

>  <s_epik_input>  (1) 
W2NIXTFbY0hdYyhbT0hdKVtjSF1bY0hdYzFbQ0gyXVtDSDJdQyg9TylbQ0BIXShOKFtDSDNdKVtDSDJdW0NIMl1bT0hdKVtDSDJdW0NASF0oT1tDSDNdKVNbQ0gyXVtDQEBIXShbT0hdKVtDQEhdMltDQEBIXShbQ0gzXSlbQ0BIXShbT0hdKVtDSDJdQyhbT0hdKT1DMltDSDNd

>  <s_glide_docking_method>  (1) 
confgen

>  <s_i_glide_gridfile>  (1) 
gpcr_5ht2c_6bqh_protein_autoprepared_prepared

>  <s_lp_Force_Field>  (1) 
S-OPLS

>  <s_lp_Variant>  (1) 
DiffSBDD_75-1

>  <s_m_source_file>  (1) 
generated_GPCR_5HT2C_ligand_DiffSBDD_2026-06-23_prepared.sdf

>  <GenAI_Model>  (1) 
DiffSBDD

>  <Protein>  (1) 
GPCR_5HT2C

$$$$
DiffSBDD_82
     RDKit          3D

  0  0  0  0  0  0  0  0  0  0999 V3000
M  V30 BEGIN CTAB
M  V30 COUNTS 37 38 0 0 1
M  V30 BEGIN ATOM
M  V30 1 C 39.965436 28.774209 56.029844 0 CFG=2
M  V30 2 O 36.178726 29.737739 58.567759 0
M  V30 3 C 39.644060 29.220192 57.441702 0 CFG=2
M  V30 4 O 38.045294 27.863762 58.567759 0
M  V30 5 C 37.615582 26.196147 55.185009 0
M  V30 6 C 38.889209 28.235520 55.073386 0 CFG=2
M  V30 7 C 39.541918 29.969770 53.310534 0
M  V30 8 C 40.540099 28.013794 57.201386 0
M  V30 9 O 38.880510 26.825423 55.276346 0
M  V30 10 N 37.428489 29.943811 57.931145 0
M  V30 11 C 39.222864 28.625496 53.631136 0
M  V30 12 F 39.503084 30.928200 54.267753 0
M  V30 13 C 36.554404 23.882053 55.115970 0
M  V30 14 C 39.960850 29.321171 51.001779 0
M  V30 15 C 39.245133 27.641329 52.616384 0
M  V30 16 C 39.612838 27.992123 51.304934 0
M  V30 17 C 38.309533 28.934735 58.030609 0
M  V30 18 C 39.918688 30.308168 51.999864 0
M  V30 19 Cl 40.445056 29.737754 49.412502 0
M  V30 20 C 37.841197 24.686296 55.310382 0
M  V30 21 H 40.731780 29.359992 55.530983 0
M  V30 22 H 35.645391 30.446931 58.217386 0
M  V30 23 H 40.112260 30.137766 57.772107 0
M  V30 24 H 36.959866 26.537880 55.985333 0
M  V30 25 H 37.141296 26.435939 54.232762 0
M  V30 26 H 37.924035 28.676895 55.324661 0
M  V30 27 H 41.598941 28.140972 57.419978 0
M  V30 28 H 40.157722 27.015760 57.406596 0
M  V30 29 H 37.515640 30.879030 57.553772 0
M  V30 30 H 36.761463 22.812089 55.113602 0
M  V30 31 H 35.839121 24.085695 55.911746 0
M  V30 32 H 36.081098 24.137764 54.168093 0
M  V30 33 H 39.001494 26.615553 52.847175 0
M  V30 34 H 39.642345 27.236266 50.533192 0
M  V30 35 H 40.178312 31.329394 51.760655 0
M  V30 36 H 38.571836 24.371159 54.567780 0
M  V30 37 H 38.278258 24.454996 56.283006 0
M  V30 END ATOM
M  V30 BEGIN BOND
M  V30 1 1 3 1
M  V30 2 1 6 1
M  V30 3 1 8 1
M  V30 4 1 8 3
M  V30 5 1 9 5
M  V30 6 1 9 6
M  V30 7 1 10 2
M  V30 8 1 11 6
M  V30 9 2 11 7
M  V30 10 1 12 7
M  V30 11 1 15 11
M  V30 12 1 16 14
M  V30 13 2 16 15
M  V30 14 1 17 3
M  V30 15 2 17 4
M  V30 16 1 17 10
M  V30 17 1 18 7
M  V30 18 2 18 14
M  V30 19 1 19 14
M  V30 20 1 20 5
M  V30 21 1 20 13
M  V30 22 1 1 21 CFG=3
M  V30 23 1 22 2
M  V30 24 1 3 23 CFG=3
M  V30 25 1 24 5
M  V30 26 1 25 5
M  V30 27 1 6 26 CFG=1
M  V30 28 1 27 8
M  V30 29 1 28 8
M  V30 30 1 29 10
M  V30 31 1 30 13
M  V30 32 1 31 13
M  V30 33 1 32 13
M  V30 34 1 33 15
M  V30 35 1 34 16
M  V30 36 1 35 18
M  V30 37 1 36 20
M  V30 38 1 37 20
M  V30 END BOND
M  V30 END CTAB
M  END
>  <i_epik_Tot_Q>  (1) 
0

>  <i_epik_Tot_abs_Q>  (1) 
0

>  <i_i_glide_confnum>  (1) 
43

>  <i_i_glide_lignum>  (1) 
189

>  <i_i_glide_posenum>  (1) 
223

>  <i_i_glide_rotatable_bonds>  (1) 
8

>  <i_lp_mmshare_version>  (1) 
72125

>  <i_m_source_file_index>  (1) 
83

>  <i_f3d_flags>  (1) 
0

>  <num_sample>  (1) 
100

>  <b_lp_Chiralities_Consistent>  (1) 
1

>  <r_epik_Charging_Adjusted_Penalty>  (1) 
0

>  <r_epik_Ionization_Penalty>  (1) 
0.011497294520252079

>  <r_epik_Ionization_Penalty_Charging>  (1) 
0

>  <r_epik_Ionization_Penalty_Neutral>  (1) 
0.011497294520252079

>  <r_epik_State_Penalty>  (1) 
-0

>  <r_glide_ring_energy>  (1) 
0

>  <r_i_docking_score>  (1) 
-7.1280159557603238

>  <r_i_glide_ecoul>  (1) 
-4.8218488851122396

>  <r_i_glide_eff_state_penalty>  (1) 
-0

>  <r_i_glide_einternal>  (1) 
7.8359392667616596

>  <r_i_glide_emodel>  (1) 
-40.820606817662167

>  <r_i_glide_emodel_strain>  (1) 
1.9608279642026218

>  <r_i_glide_energy>  (1) 
-31.131500700072216

>  <r_i_glide_erotb>  (1) 
1.2126053731810509

>  <r_i_glide_esite>  (1) 
-0.080397547009294273

>  <r_i_glide_evdw>  (1) 
-26.309651814959977

>  <r_i_glide_gscore>  (1) 
-7.1280159557603238

>  <r_i_glide_gscore_strain>  (1) 
0

>  <r_i_glide_hbond>  (1) 
-0.16

>  <r_i_glide_ligand_efficiency>  (1) 
-0.3564007977880162

>  <r_i_glide_ligand_efficiency_ln>  (1) 
-1.7839072960262008

>  <r_i_glide_ligand_efficiency_sa>  (1) 
-0.96742060408427022

>  <r_i_glide_lipo>  (1) 
-3.4432476596743813

>  <r_i_glide_metal>  (1) 
-0

>  <r_i_glide_rewards>  (1) 
-2.6182161987428638

>  <r_lp_Energy>  (1) 
29.806459999999998

>  <r_lp_tautomer_probability>  (1) 
1

>  <s_epik_Chemistry_Notes>  (1) 
This compound has a N-S or N-O group and may undergo hydrolysis at high or low pH.

>  <s_epik_cmdline>  (1) 
J2VwaWtfcHl0aG9uJywgJy1waHQnLCAnMS4wJywgJy1waCcsICc3LjQnLCAnLXRuJywgJzgnLCAnLW1hJywgJzUwMCcsICctaW1hZScsICc8aW5maWxlLm1hZT4nLCAnLW9tYWUnLCAnPG91dGZpbGUubWFlPic=

>  <s_epik_input>  (1) 
W09IXVtOSF1DKD1PKVtDQEBIXShbQ0gyXTEpW0NAQEhdMVtDQEhdKE9bQ0gyXVtDSDJdW0NIM10pYyhjMkYpW2NIXVtjSF1jKENsKVtjSF0y

>  <s_glide_docking_method>  (1) 
confgen

>  <s_i_glide_gridfile>  (1) 
gpcr_5ht2c_6bqh_protein_autoprepared_prepared

>  <s_lp_Force_Field>  (1) 
S-OPLS

>  <s_lp_Variant>  (1) 
DiffSBDD_82-1

>  <s_m_source_file>  (1) 
generated_GPCR_5HT2C_ligand_DiffSBDD_2026-06-23_prepared.sdf

>  <GenAI_Model>  (1) 
DiffSBDD

>  <Protein>  (1) 
GPCR_5HT2C

$$$$
DiffSBDD_89
     RDKit          3D

  0  0  0  0  0  0  0  0  0  0999 V3000
M  V30 BEGIN CTAB
M  V30 COUNTS 60 62 0 0 1
M  V30 BEGIN ATOM
M  V30 1 C 38.847027 28.978683 54.474218 0
M  V30 2 O 42.240886 31.219701 64.435325 0 CHG=-1
M  V30 3 C 41.481557 27.819242 56.967757 0
M  V30 4 C 40.796844 28.759928 61.996593 0
M  V30 5 C 38.208669 27.708321 54.995995 0 CFG=2
M  V30 6 O 41.645140 28.857486 58.973096 0
M  V30 7 C 37.769875 30.947136 61.160842 0
M  V30 8 O 41.645143 31.439324 62.302075 0
M  V30 9 C 38.802462 30.347433 61.893066 0
M  V30 10 C 40.592813 29.551698 51.370573 0
M  V30 11 C 39.231877 27.351660 51.363092 0
M  V30 12 C 40.367350 28.264755 59.064056 0 CFG=1
M  V30 13 C 41.240145 29.342247 63.369478 0
M  V30 14 C 41.752078 30.792424 63.367729 0
M  V30 15 O 37.004502 28.137734 52.967762 0
M  V30 16 C 38.201801 25.253294 55.495453 0
M  V30 17 C 36.527784 31.223521 58.984446 0
M  V30 18 N 38.441104 29.763468 59.146933 0
M  V30 19 C 39.442825 29.196419 59.849760 0
M  V30 20 C 39.363912 28.796821 50.855193 0
M  V30 21 C 40.084484 28.024255 57.554444 0 CFG=2
M  V30 22 C 38.950339 26.580179 55.699616 0 CFG=2
M  V30 23 C 39.140578 26.850768 57.219431 0
M  V30 24 C 42.441169 28.081330 58.109186 0
M  V30 25 C 38.294652 27.956784 53.505217 0 CFG=1
M  V30 26 C 39.659365 29.448048 61.234838 0
M  V30 27 C 37.629227 30.620138 59.800284 0
M  V30 28 O 39.245127 27.185646 52.782159 0
M  V30 29 H 39.924665 29.071645 54.567830 0
M  V30 30 H 38.292102 29.906686 54.597189 0
M  V30 31 H 41.645128 26.821209 56.567795 0
M  V30 32 H 41.645127 28.537578 56.167774 0
M  V30 33 H 40.471472 27.736484 62.164251 0
M  V30 34 H 41.668277 28.682110 61.361454 0
M  V30 35 H 37.245137 27.882301 55.446098 0
M  V30 36 H 37.093317 31.642758 61.632735 0
M  V30 37 H 38.930734 30.570845 62.940921 0
M  V30 38 H 40.790668 30.435101 50.762433 0
M  V30 39 H 40.443714 29.892200 52.393532 0
M  V30 40 H 41.484795 28.928138 51.367751 0
M  V30 41 H 40.032719 26.753999 50.934011 0
M  V30 42 H 38.309808 26.926932 50.967928 0
M  V30 43 H 40.445152 27.320242 59.595742 0
M  V30 44 H 40.426330 29.270362 64.089533 0
M  V30 45 H 42.039170 28.717048 63.769040 0
M  V30 46 H 36.675252 27.280274 52.737681 0
M  V30 47 H 37.218285 25.273873 55.966646 0
M  V30 48 H 38.053290 25.042354 54.436853 0
M  V30 49 H 38.759484 24.419115 55.921238 0
M  V30 50 H 36.845121 32.179638 58.567768 0
M  V30 51 H 36.300477 30.537729 58.168567 0
M  V30 52 H 35.624160 31.371285 59.575493 0
M  V30 53 H 39.408457 28.764587 49.767758 0
M  V30 54 H 38.459329 29.351563 51.091497 0
M  V30 55 H 39.698094 28.943316 57.113819 0
M  V30 56 H 39.921145 26.470513 55.217327 0
M  V30 57 H 38.169776 27.032961 57.683165 0
M  V30 58 H 39.531172 25.950150 57.694952 0
M  V30 59 H 42.737331 27.154261 58.603363 0
M  V30 60 H 43.338128 28.613656 57.792172 0
M  V30 END ATOM
M  V30 BEGIN BOND
M  V30 1 1 5 1
M  V30 2 2 9 7
M  V30 3 1 12 6
M  V30 4 1 13 4
M  V30 5 1 14 2
M  V30 6 2 14 8
M  V30 7 1 14 13
M  V30 8 1 19 12
M  V30 9 1 19 18
M  V30 10 1 20 10
M  V30 11 1 20 11
M  V30 12 1 21 3
M  V30 13 1 21 12
M  V30 14 1 22 5
M  V30 15 1 22 16
M  V30 16 1 23 21
M  V30 17 1 23 22
M  V30 18 1 24 3
M  V30 19 1 24 6
M  V30 20 1 25 1
M  V30 21 1 25 5
M  V30 22 1 25 15 CFG=3
M  V30 23 1 26 4
M  V30 24 1 26 9
M  V30 25 2 26 19
M  V30 26 1 27 7
M  V30 27 1 27 17
M  V30 28 2 27 18
M  V30 29 1 28 11
M  V30 30 1 28 25
M  V30 31 1 29 1
M  V30 32 1 30 1
M  V30 33 1 31 3
M  V30 34 1 32 3
M  V30 35 1 33 4
M  V30 36 1 34 4
M  V30 37 1 5 35 CFG=1
M  V30 38 1 36 7
M  V30 39 1 37 9
M  V30 40 1 38 10
M  V30 41 1 39 10
M  V30 42 1 40 10
M  V30 43 1 41 11
M  V30 44 1 42 11
M  V30 45 1 12 43 CFG=1
M  V30 46 1 44 13
M  V30 47 1 45 13
M  V30 48 1 46 15
M  V30 49 1 47 16
M  V30 50 1 48 16
M  V30 51 1 49 16
M  V30 52 1 50 17
M  V30 53 1 51 17
M  V30 54 1 52 17
M  V30 55 1 53 20
M  V30 56 1 54 20
M  V30 57 1 21 55 CFG=3
M  V30 58 1 22 56 CFG=3
M  V30 59 1 57 23
M  V30 60 1 58 23
M  V30 61 1 59 24
M  V30 62 1 60 24
M  V30 END BOND
M  V30 END CTAB
M  END
>  <i_epik_Tot_Q>  (1) 
-1

>  <i_epik_Tot_abs_Q>  (1) 
1

>  <i_i_glide_confnum>  (1) 
767

>  <i_i_glide_lignum>  (1) 
209

>  <i_i_glide_posenum>  (1) 
78

>  <i_i_glide_rotatable_bonds>  (1) 
11

>  <i_lp_mmshare_version>  (1) 
72125

>  <i_m_source_file_index>  (1) 
90

>  <i_f3d_flags>  (1) 
0

>  <num_sample>  (1) 
100

>  <b_lp_Chiralities_Consistent>  (1) 
1

>  <r_epik_Charging_Adjusted_Penalty>  (1) 
0.038997202990306332

>  <r_epik_Ionization_Penalty>  (1) 
0.038997322870567536

>  <r_epik_Ionization_Penalty_Charging>  (1) 
0.00068578103088963352

>  <r_epik_Ionization_Penalty_Neutral>  (1) 
0.038311541839677901

>  <r_epik_State_Penalty>  (1) 
0.038311421959416697

>  <r_glide_ring_energy>  (1) 
0

>  <r_i_docking_score>  (1) 
-7.1266577138058391

>  <r_i_glide_ecoul>  (1) 
-5.088328141350396

>  <r_i_glide_eff_state_penalty>  (1) 
0.038311421959416697

>  <r_i_glide_einternal>  (1) 
16.038261885535082

>  <r_i_glide_emodel>  (1) 
-47.877875365398268

>  <r_i_glide_emodel_strain>  (1) 
4.0134717036599099

>  <r_i_glide_energy>  (1) 
-41.279525704613519

>  <r_i_glide_erotb>  (1) 
1.0232646033352888

>  <r_i_glide_esite>  (1) 
0

>  <r_i_glide_evdw>  (1) 
-36.191197563263124

>  <r_i_glide_gscore>  (1) 
-7.1649691357652561

>  <r_i_glide_gscore_strain>  (1) 
0.0033679259149774765

>  <r_i_glide_hbond>  (1) 
-0.29350681803529466

>  <r_i_glide_ligand_efficiency>  (1) 
-0.25452348977877998

>  <r_i_glide_ligand_efficiency_ln>  (1) 
-1.6450418481092484

>  <r_i_glide_ligand_efficiency_sa>  (1) 
-0.77288322214555127

>  <r_i_glide_lipo>  (1) 
-3.5299825401023393

>  <r_i_glide_metal>  (1) 
-0

>  <r_i_glide_rewards>  (1) 
-1.795303207512172

>  <r_lp_Energy>  (1) 
22.324921

>  <s_epik_cmdline>  (1) 
J2VwaWtfcHl0aG9uJywgJy1waHQnLCAnMS4wJywgJy1waCcsICc3LjQnLCAnLXRuJywgJzgnLCAnLW1hJywgJzUwMCcsICctaW1hZScsICc8aW5maWxlLm1hZT4nLCAnLW9tYWUnLCAnPG91dGZpbGUubWFlPic=

>  <s_epik_input>  (1) 
W0NIM11bQ0gyXVtDSDJdT0MxKFtPSF0pW0NIMl1bQ0BASF0xW0NASF0oW0NIM10pW0NIMl1bQ0BASF0yW0NIMl1bQ0gyXU9bQ0BIXTJjM25jKFtDSDNdKVtjSF1bY0hdYzNbQ0gyXVtDSDJdQyg9TylbT0hd

>  <s_glide_docking_method>  (1) 
confgen

>  <s_i_glide_gridfile>  (1) 
gpcr_5ht2c_6bqh_protein_autoprepared_prepared

>  <s_lp_Force_Field>  (1) 
S-OPLS

>  <s_lp_Variant>  (1) 
DiffSBDD_89-1

>  <s_m_source_file>  (1) 
generated_GPCR_5HT2C_ligand_DiffSBDD_2026-06-23_prepared.sdf

>  <GenAI_Model>  (1) 
DiffSBDD

>  <Protein>  (1) 
GPCR_5HT2C

$$$$
DiffSBDD_8
     RDKit          3D

  0  0  0  0  0  0  0  0  0  0999 V3000
M  V30 BEGIN CTAB
M  V30 COUNTS 46 50 0 0 1
M  V30 BEGIN ATOM
M  V30 1 C 38.043758 25.493309 55.716578 0
M  V30 2 O 40.378536 30.897868 52.170623 0
M  V30 3 C 37.508429 24.281059 55.900808 0
M  V30 4 C 38.630826 29.831513 54.497770 0
M  V30 5 N 38.541423 28.485730 53.921701 0
M  V30 6 C 39.303058 28.726894 51.515348 0
M  V30 7 C 39.483454 29.901163 55.787294 0
M  V30 8 C 38.121313 29.277031 58.821775 0
M  V30 9 N 38.821624 26.165146 56.616236 0
M  V30 10 C 39.554920 30.771990 49.848313 0
M  V30 11 C 39.352883 27.482934 56.094728 0 CFG=1
M  V30 12 N 39.353161 29.221496 59.149213 0
M  V30 13 C 40.714480 30.938163 50.781216 0 CFG=1
M  V30 14 C 39.504354 30.216008 51.257678 0 CFG=1
M  V30 15 C 37.873032 26.258239 54.598925 0
M  V30 16 N 40.044545 28.937730 58.014959 0
M  V30 17 C 38.533413 27.384825 54.763512 0
M  V30 18 C 37.731837 28.994438 57.427509 0
M  V30 19 C 41.999932 30.288311 50.448163 0
M  V30 20 C 38.152737 28.406828 52.508590 0
M  V30 21 C 41.369810 28.352037 58.217035 0
M  V30 22 C 39.142310 28.810000 56.844092 0 CFG=1
M  V30 23 H 37.675016 23.737748 56.816968 0
M  V30 24 H 36.894714 23.818974 55.140956 0
M  V30 25 H 37.609587 30.114058 54.755123 0
M  V30 26 H 38.937480 30.591577 53.796703 0
M  V30 27 H 40.233372 28.266992 51.845638 0
M  V30 28 H 39.059434 28.259443 50.560748 0
M  V30 29 H 39.395488 30.894928 56.228003 0
M  V30 30 H 40.524908 29.795212 55.487022 0
M  V30 31 H 37.353528 29.525087 59.554487 0
M  V30 32 H 39.210382 25.734972 57.442517 0
M  V30 33 H 39.645277 30.065564 49.025704 0
M  V30 34 H 38.963676 31.662206 49.642230 0
M  V30 35 H 37.245114 26.007849 53.756966 0
M  V30 36 H 37.136374 28.085315 57.383569 0
M  V30 37 H 37.171655 29.823913 56.994573 0
M  V30 38 H 42.045140 30.137755 49.370537 0
M  V30 39 H 42.833548 30.909180 50.766414 0
M  V30 40 H 42.045136 29.337753 50.967761 0
M  V30 41 H 37.811763 27.399629 52.276446 0
M  V30 42 H 37.287131 29.036750 52.324263 0
M  V30 43 H 41.923625 28.339233 57.278376 0
M  V30 44 H 41.933478 28.937694 58.943472 0
M  V30 45 H 41.274048 27.330046 58.583380 0
M  V30 46 H 40.404993 27.349133 55.840667 0
M  V30 END ATOM
M  V30 BEGIN BOND
M  V30 1 2 3 1
M  V30 2 1 5 4
M  V30 3 1 7 4
M  V30 4 1 9 1
M  V30 5 1 11 9
M  V30 6 2 12 8
M  V30 7 1 13 2
M  V30 8 1 13 10
M  V30 9 1 14 2
M  V30 10 1 14 6 CFG=3
M  V30 11 1 14 10
M  V30 12 1 14 13
M  V30 13 1 15 1
M  V30 14 1 16 12
M  V30 15 1 17 5
M  V30 16 1 17 11
M  V30 17 2 17 15
M  V30 18 1 18 8
M  V30 19 1 13 19 CFG=3
M  V30 20 1 20 5
M  V30 21 1 20 6
M  V30 22 1 21 16
M  V30 23 1 22 7
M  V30 24 1 22 11
M  V30 25 1 22 16 CFG=1
M  V30 26 1 22 18
M  V30 27 1 23 3
M  V30 28 1 24 3
M  V30 29 1 25 4
M  V30 30 1 26 4
M  V30 31 1 27 6
M  V30 32 1 28 6
M  V30 33 1 29 7
M  V30 34 1 30 7
M  V30 35 1 31 8
M  V30 36 1 32 9
M  V30 37 1 33 10
M  V30 38 1 34 10
M  V30 39 1 35 15
M  V30 40 1 36 18
M  V30 41 1 37 18
M  V30 42 1 38 19
M  V30 43 1 39 19
M  V30 44 1 40 19
M  V30 45 1 41 20
M  V30 46 1 42 20
M  V30 47 1 43 21
M  V30 48 1 44 21
M  V30 49 1 45 21
M  V30 50 1 11 46 CFG=3
M  V30 END BOND
M  V30 END CTAB
M  END
>  <i_epik_Tot_Q>  (1) 
0

>  <i_epik_Tot_abs_Q>  (1) 
0

>  <i_i_glide_confnum>  (1) 
16

>  <i_i_glide_lignum>  (1) 
11

>  <i_i_glide_posenum>  (1) 
54

>  <i_i_glide_rotatable_bonds>  (1) 
3

>  <i_lp_mmshare_version>  (1) 
72125

>  <i_m_source_file_index>  (1) 
9

>  <i_f3d_flags>  (1) 
0

>  <num_sample>  (1) 
100

>  <b_lp_Chiralities_Consistent>  (1) 
1

>  <r_epik_Charging_Adjusted_Penalty>  (1) 
0.0013502642422006258

>  <r_epik_Ionization_Penalty>  (1) 
0.0017789760984620326

>  <r_epik_Ionization_Penalty_Charging>  (1) 
0.0013502642422006258

>  <r_epik_Ionization_Penalty_Neutral>  (1) 
0.00042871185626140696

>  <r_epik_State_Penalty>  (1) 
-0

>  <r_glide_ring_energy>  (1) 
0

>  <r_i_docking_score>  (1) 
-7.1262432310609842

>  <r_i_glide_ecoul>  (1) 
-0.97197666725151211

>  <r_i_glide_eff_state_penalty>  (1) 
-0

>  <r_i_glide_einternal>  (1) 
4.6300498402770049

>  <r_i_glide_emodel>  (1) 
-37.483452277867038

>  <r_i_glide_emodel_strain>  (1) 
3.2479454241297958

>  <r_i_glide_energy>  (1) 
-29.469908283633291

>  <r_i_glide_erotb>  (1) 
0.61104831889555555

>  <r_i_glide_esite>  (1) 
0

>  <r_i_glide_evdw>  (1) 
-28.497931616381781

>  <r_i_glide_gscore>  (1) 
-7.1262432310609842

>  <r_i_glide_gscore_strain>  (1) 
0

>  <r_i_glide_hbond>  (1) 
0

>  <r_i_glide_ligand_efficiency>  (1) 
-0.32392014686640835

>  <r_i_glide_ligand_efficiency_ln>  (1) 
-1.7419137817088863

>  <r_i_glide_ligand_efficiency_sa>  (1) 
-0.90763699151134569

>  <r_i_glide_lipo>  (1) 
-3.6579433483396939

>  <r_i_glide_metal>  (1) 
-0

>  <r_i_glide_rewards>  (1) 
-2.5086551207100296

>  <r_lp_Energy>  (1) 
30.330791999999999

>  <r_lp_tautomer_probability>  (1) 
1

>  <s_epik_Chemistry_Notes>  (1) 
This compound has an imine and may undergo hydrolysis.

>  <s_epik_cmdline>  (1) 
J2VwaWtfcHl0aG9uJywgJy1waHQnLCAnMS4wJywgJy1waCcsICc3LjQnLCAnLXRuJywgJzgnLCAnLW1hJywgJzUwMCcsICctaW1hZScsICc8aW5maWxlLm1hZT4nLCAnLW9tYWUnLCAnPG91dGZpbGUubWFlPic=

>  <s_epik_input>  (1) 
W0NIM11bQ0BAXTEyW0NAQF0oTzEpKFtDSDJdMilbQ0gyXVtDSDJdTihbQ0gyXVtDSDJdMyljKFtjSF1jKFtDSDNdKVtuSF00KWM0W0NAQF0zNU4oW0NIM10pTj1bQ0hdW0NIMl01

>  <s_glide_docking_method>  (1) 
confgen

>  <s_i_glide_gridfile>  (1) 
gpcr_5ht2c_6bqh_protein_autoprepared_prepared

>  <s_lp_Force_Field>  (1) 
S-OPLS

>  <s_lp_Variant>  (1) 
DiffSBDD_8-1

>  <s_m_source_file>  (1) 
generated_GPCR_5HT2C_ligand_DiffSBDD_2026-06-23_prepared.sdf

>  <GenAI_Model>  (1) 
DiffSBDD

>  <Protein>  (1) 
GPCR_5HT2C

$$$$
DiffSBDD_50
     RDKit          3D

  0  0  0  0  0  0  0  0  0  0999 V3000
M  V30 BEGIN CTAB
M  V30 COUNTS 66 69 0 0 1
M  V30 BEGIN ATOM
M  V30 1 C 38.452720 29.861257 58.919060 0 CFG=2
M  V30 2 F 39.375751 31.790428 54.475660 0
M  V30 3 C 38.662646 32.243911 61.627658 0
M  V30 4 O 40.782395 29.776704 61.986926 0
M  V30 5 O 40.195597 35.331440 61.499661 0
M  V30 6 O 39.387679 32.854266 62.635348 0
M  V30 7 S 36.854377 32.008437 59.666151 0
M  V30 8 C 37.458003 29.041382 58.044150 0
M  V30 9 C 41.507963 32.702304 63.791562 0 CFG=2
M  V30 10 O 39.001730 26.522065 57.539448 0
M  V30 11 C 41.044539 34.624714 62.370690 0 CFG=1
M  V30 12 C 41.670076 34.030753 66.056615 0
M  V30 13 C 40.301471 28.603021 57.767360 0
M  V30 14 C 38.024105 28.558090 56.692387 0 CFG=2
M  V30 15 C 39.719295 30.442799 52.536031 0
M  V30 16 C 39.392687 29.888902 62.209263 0
M  V30 17 C 39.332410 27.764842 56.928460 0 CFG=2
M  V30 18 C 40.035400 25.551260 57.481152 0
M  V30 19 F 38.844639 26.937768 51.915583 0
M  V30 20 C 38.499234 28.279712 53.863998 0
M  V30 21 C 41.837800 34.028805 64.528248 0 CFG=2
M  V30 22 C 39.727778 29.028104 59.121326 0
M  V30 23 C 39.582915 29.205370 51.882387 0
M  V30 24 C 41.054886 35.124041 63.805895 0
M  V30 25 C 37.765535 30.443275 60.198367 0 CFG=2
M  V30 26 C 38.639768 29.529625 54.521935 0
M  V30 27 C 40.774983 33.107374 62.477036 0 CFG=2
M  V30 28 C 38.655105 30.937834 61.370229 0
M  V30 29 N 38.185559 29.731696 55.839227 0
M  V30 30 C 39.245085 30.602168 53.849943 0
M  V30 31 C 38.972684 28.124759 52.544452 0
M  V30 32 O 41.377822 32.488085 61.367877 0
M  V30 33 O 37.656001 34.227053 60.879135 0
M  V30 34 O 40.766322 31.797101 64.584372 0
M  V30 35 C 37.793805 33.009117 60.812190 0
M  V30 36 H 38.766377 30.726639 58.334062 0
M  V30 37 H 41.076894 28.969315 62.385723 0
M  V30 38 H 40.405868 36.251462 61.549119 0
M  V30 39 H 37.189965 28.137791 58.567758 0
M  V30 40 H 36.532469 29.597735 57.883472 0
M  V30 41 H 42.445686 32.208465 63.533516 0
M  V30 42 H 42.045122 34.751817 61.971038 0
M  V30 43 H 40.630904 33.868255 66.344380 0
M  V30 44 H 42.271395 33.245719 66.515750 0
M  V30 45 H 41.987797 34.983334 66.481650 0
M  V30 46 H 40.445193 29.516882 57.197664 0
M  V30 47 H 41.270038 28.115965 57.879918 0
M  V30 48 H 37.292946 27.886332 56.254547 0
M  V30 49 H 40.186045 31.273905 52.027416 0
M  V30 50 H 38.933075 28.914049 62.050996 0
M  V30 51 H 39.228665 30.128461 63.259100 0
M  V30 52 H 39.812105 27.545702 55.975861 0
M  V30 53 H 39.637475 24.578784 57.767755 0
M  V30 54 H 40.441413 25.445657 56.473867 0
M  V30 55 H 40.845171 25.800885 58.166407 0
M  V30 56 H 38.031869 27.445819 54.362345 0
M  V30 57 H 42.889183 34.235882 64.333520 0
M  V30 58 H 40.489907 29.640839 59.593234 0
M  V30 59 H 39.543240 28.160139 59.755746 0
M  V30 60 H 39.945333 29.084503 50.871957 0
M  V30 61 H 40.045124 35.202776 64.191407 0
M  V30 62 H 41.526891 36.102866 63.903956 0
M  V30 63 H 37.028449 29.738382 60.567743 0
M  V30 64 H 38.374527 30.621017 56.282523 0
M  V30 65 H 40.982599 32.868335 60.598683 0
M  V30 66 H 40.566528 31.049927 64.040005 0
M  V30 END ATOM
M  V30 BEGIN BOND
M  V30 1 1 6 3
M  V30 2 1 8 1
M  V30 3 1 11 5
M  V30 4 1 14 8
M  V30 5 1 16 4
M  V30 6 1 17 10
M  V30 7 1 17 13
M  V30 8 1 17 14
M  V30 9 1 18 10
M  V30 10 1 21 9
M  V30 11 1 21 12
M  V30 12 1 22 1
M  V30 13 1 22 13
M  V30 14 2 23 15
M  V30 15 1 24 11
M  V30 16 1 24 21
M  V30 17 1 25 1
M  V30 18 1 25 7
M  V30 19 1 26 20
M  V30 20 1 27 6 CFG=1
M  V30 21 1 27 9
M  V30 22 1 27 11
M  V30 23 2 28 3
M  V30 24 1 28 16
M  V30 25 1 28 25
M  V30 26 1 29 14
M  V30 27 1 29 26
M  V30 28 1 30 2
M  V30 29 1 30 15
M  V30 30 2 30 26
M  V30 31 1 31 19
M  V30 32 2 31 20
M  V30 33 1 31 23
M  V30 34 1 32 27
M  V30 35 1 34 9
M  V30 36 1 35 3
M  V30 37 1 35 7
M  V30 38 2 35 33
M  V30 39 1 1 36 CFG=3
M  V30 40 1 37 4
M  V30 41 1 38 5
M  V30 42 1 39 8
M  V30 43 1 40 8
M  V30 44 1 9 41 CFG=3
M  V30 45 1 11 42 CFG=3
M  V30 46 1 43 12
M  V30 47 1 44 12
M  V30 48 1 45 12
M  V30 49 1 46 13
M  V30 50 1 47 13
M  V30 51 1 14 48 CFG=3
M  V30 52 1 49 15
M  V30 53 1 50 16
M  V30 54 1 51 16
M  V30 55 1 17 52 CFG=3
M  V30 56 1 53 18
M  V30 57 1 54 18
M  V30 58 1 55 18
M  V30 59 1 56 20
M  V30 60 1 21 57 CFG=1
M  V30 61 1 58 22
M  V30 62 1 59 22
M  V30 63 1 60 23
M  V30 64 1 61 24
M  V30 65 1 62 24
M  V30 66 1 25 63 CFG=1
M  V30 67 1 64 29
M  V30 68 1 65 32
M  V30 69 1 66 34
M  V30 END BOND
M  V30 END CTAB
M  END
>  <i_epik_Tot_Q>  (1) 
0

>  <i_epik_Tot_abs_Q>  (1) 
0

>  <i_i_glide_confnum>  (1) 
130

>  <i_i_glide_lignum>  (1) 
104

>  <i_i_glide_posenum>  (1) 
192

>  <i_i_glide_rotatable_bonds>  (1) 
11

>  <i_lp_mmshare_version>  (1) 
72125

>  <i_m_source_file_index>  (1) 
51

>  <i_f3d_flags>  (1) 
0

>  <num_sample>  (1) 
100

>  <b_lp_Chiralities_Consistent>  (1) 
1

>  <r_epik_Charging_Adjusted_Penalty>  (1) 
0.32088234562257889

>  <r_epik_Ionization_Penalty>  (1) 
0.32096673837562456

>  <r_epik_Ionization_Penalty_Charging>  (1) 
0

>  <r_epik_Ionization_Penalty_Neutral>  (1) 
0.32096673837562456

>  <r_epik_State_Penalty>  (1) 
0.32088234562257889

>  <r_glide_ring_energy>  (1) 
0

>  <r_i_docking_score>  (1) 
-7.1174211999258006

>  <r_i_glide_ecoul>  (1) 
-1.9604109776794072

>  <r_i_glide_eff_state_penalty>  (1) 
0.32088234562257889

>  <r_i_glide_einternal>  (1) 
10.063874449020485

>  <r_i_glide_emodel>  (1) 
-58.09321894472771

>  <r_i_glide_emodel_strain>  (1) 
1.4022226654036558

>  <r_i_glide_energy>  (1) 
-45.571597246744552

>  <r_i_glide_erotb>  (1) 
0.46316945766964901

>  <r_i_glide_esite>  (1) 
-0.028316526189259519

>  <r_i_glide_evdw>  (1) 
-43.611186269065144

>  <r_i_glide_gscore>  (1) 
-7.4383035455483792

>  <r_i_glide_gscore_strain>  (1) 
0

>  <r_i_glide_hbond>  (1) 
-0.27038394240719166

>  <r_i_glide_ligand_efficiency>  (1) 
-0.20335489142645144

>  <r_i_glide_ligand_efficiency_ln>  (1) 
-1.562431916036443

>  <r_i_glide_ligand_efficiency_sa>  (1) 
-0.66518733435712396

>  <r_i_glide_lipo>  (1) 
-3.8543150069698191

>  <r_i_glide_metal>  (1) 
-0

>  <r_i_glide_rewards>  (1) 
-1.2738365675465897

>  <r_lp_Energy>  (1) 
66.3018

>  <r_lp_tautomer_probability>  (1) 
0.99999998906363929

>  <s_epik_cmdline>  (1) 
J2VwaWtfcHl0aG9uJywgJy1waHQnLCAnMS4wJywgJy1waCcsICc3LjQnLCAnLXRuJywgJzgnLCAnLW1hJywgJzUwMCcsICctaW1hZScsICc8aW5maWxlLm1hZT4nLCAnLW9tYWUnLCAnPG91dGZpbGUubWFlPic=

>  <s_epik_input>  (1) 
W09IXVtDQEhdMVtDSDJdW0NAQEhdKFtDSDNdKVtDQEBIXShbT0hdKVtDQEBdMShbT0hdKU9DMj1DKFtDSDJdW09IXSlbQ0BASF0oU0MyPU8pW0NAQEhdM1tDSDJdW0NASF0oW0NASF0oT1tDSDNdKVtDSDJdW0NIMl0zKVtOSF1jNFtjSF1jKEYpW2NIXVtjSF1jNEY=

>  <s_glide_docking_method>  (1) 
confgen

>  <s_i_glide_gridfile>  (1) 
gpcr_5ht2c_6bqh_protein_autoprepared_prepared

>  <s_lp_Force_Field>  (1) 
S-OPLS

>  <s_lp_Variant>  (1) 
DiffSBDD_50-2

>  <s_m_source_file>  (1) 
generated_GPCR_5HT2C_ligand_DiffSBDD_2026-06-23_prepared.sdf

>  <GenAI_Model>  (1) 
DiffSBDD

>  <Protein>  (1) 
GPCR_5HT2C

$$$$
DiffSBDD_62
     RDKit          3D

  0  0  0  0  0  0  0  0  0  0999 V3000
M  V30 BEGIN CTAB
M  V30 COUNTS 79 83 0 0 1
M  V30 BEGIN ATOM
M  V30 1 C 38.746115 26.821850 57.815057 0
M  V30 2 C 41.604293 30.656986 67.323124 0
M  V30 3 C 38.894243 34.909745 60.768951 0
M  V30 4 C 39.724392 28.621384 59.367812 0
M  V30 5 C 37.431858 28.174135 52.745164 0
M  V30 6 C 41.230931 28.274097 66.266057 0
M  V30 7 C 39.088595 33.473689 61.330531 0 CFG=2
M  V30 8 C 41.108544 30.464762 65.079775 0
M  V30 9 C 40.600039 30.865604 62.819460 0
M  V30 10 O 37.383656 26.537705 55.149372 0
M  V30 11 C 38.637791 27.872886 53.612816 0
M  V30 12 C 41.162912 34.124791 64.561970 0
M  V30 13 C 38.791648 28.290214 58.206291 0
M  V30 14 C 38.483461 26.941523 54.766664 0
M  V30 15 C 41.012365 32.689174 64.284233 0
M  V30 16 N 41.230902 31.769940 65.281263 0
M  V30 17 C 37.861532 35.793941 61.493546 0
M  V30 18 O 37.245118 33.177000 58.509214 0
M  V30 19 C 37.918854 29.200786 53.735868 0
M  V30 20 N 39.644886 25.337696 56.049248 0
M  V30 21 N 41.553667 32.124542 66.667232 0
M  V30 22 N 38.097549 29.171222 57.596720 0
M  V30 23 C 38.214184 30.583667 57.907149 0
M  V30 24 C 41.295568 29.782607 66.130974 0
M  V30 25 C 40.697093 32.320668 63.096997 0
M  V30 26 C 40.819779 34.585662 63.063208 0
M  V30 27 N 39.644291 26.614411 55.372317 0
M  V30 28 C 37.509905 32.269902 59.556957 0 CFG=2
M  V30 29 C 39.858873 26.482561 56.817466 0 CFG=1
M  V30 30 C 39.271481 37.895449 61.767959 0
M  V30 31 C 37.996731 37.291042 61.148606 0
M  V30 32 C 40.489971 33.360359 62.043822 0 CFG=2
M  V30 33 C 36.761063 38.084494 61.595275 0
M  V30 34 C 38.929882 32.461694 60.156571 0
M  V30 35 N 37.308473 30.930203 58.999956 0
M  V30 36 N 40.792280 29.994370 63.758925 0
M  V30 37 H 38.897217 26.211334 58.705488 0
M  V30 38 H 37.748607 26.558057 57.473544 0
M  V30 39 H 40.849127 30.557195 68.102517 0
M  V30 40 H 42.593905 30.451549 67.731660 0
M  V30 41 H 39.861898 35.401225 60.690824 0
M  V30 42 H 38.554428 34.871748 59.745807 0
M  V30 43 H 40.199188 27.724492 59.764939 0
M  V30 44 H 40.519476 29.295312 59.048755 0
M  V30 45 H 39.165948 29.084010 60.181462 0
M  V30 46 H 37.624787 28.345622 51.688683 0
M  V30 47 H 36.485195 27.685153 52.968098 0
M  V30 48 H 42.179833 27.887002 66.637023 0
M  V30 49 H 40.445363 27.996484 66.967902 0
M  V30 50 H 41.014310 27.792856 65.311824 0
M  V30 51 H 38.309873 33.270350 62.066796 0
M  V30 52 H 40.372721 30.576491 61.799376 0
M  V30 53 H 39.613422 27.892490 53.131405 0
M  V30 54 H 40.445135 34.483786 65.299069 0
M  V30 55 H 42.181225 34.380786 64.856883 0
M  V30 56 H 36.863956 35.440066 61.228007 0
M  V30 57 H 37.935414 35.681938 62.569258 0
M  V30 58 H 37.303388 29.374360 54.617767 0
M  V30 59 H 38.443983 30.078546 53.365996 0
M  V30 60 H 38.732524 24.904158 56.105431 0
M  V30 61 H 42.479622 32.546903 66.680836 0
M  V30 62 H 37.942985 31.163507 57.023788 0
M  V30 63 H 39.245125 30.853055 58.131562 0
M  V30 64 H 41.645084 35.175465 62.664227 0
M  V30 65 H 39.991024 35.282191 63.136256 0
M  V30 66 H 36.759531 32.407439 60.336355 0
M  V30 67 H 40.873411 26.657791 57.171618 0
M  V30 68 H 39.276446 37.764168 62.850899 0
M  V30 69 H 40.182570 37.430392 61.393977 0
M  V30 70 H 39.350990 38.959716 61.547986 0
M  V30 71 H 38.045242 37.388826 60.063387 0
M  V30 72 H 41.292670 33.275108 61.313617 0
M  V30 73 H 36.584630 37.986474 62.666844 0
M  V30 74 H 36.868537 39.145682 61.367387 0
M  V30 75 H 35.871887 37.738089 61.071612 0
M  V30 76 H 39.227790 31.481447 60.488237 0
M  V30 77 H 39.633192 32.728994 59.368620 0
M  V30 78 H 36.364314 30.852994 58.636040 0
M  V30 79 H 36.601920 32.790816 57.917124 0
M  V30 END ATOM
M  V30 BEGIN BOND
M  V30 1 1 7 3
M  V30 2 1 11 5
M  V30 3 1 13 1
M  V30 4 1 13 4
M  V30 5 2 14 10
M  V30 6 1 14 11
M  V30 7 1 15 12
M  V30 8 1 16 8
M  V30 9 1 16 15
M  V30 10 1 17 3
M  V30 11 1 19 5
M  V30 12 1 19 11
M  V30 13 1 21 2
M  V30 14 1 21 16
M  V30 15 2 22 13
M  V30 16 1 23 22
M  V30 17 1 24 2
M  V30 18 1 24 6
M  V30 19 2 24 8
M  V30 20 1 25 9
M  V30 21 2 25 15
M  V30 22 1 26 12
M  V30 23 1 27 14
M  V30 24 1 27 20
M  V30 25 1 28 18
M  V30 26 1 29 1
M  V30 27 1 29 20
M  V30 28 1 29 27
M  V30 29 1 31 17
M  V30 30 1 31 30
M  V30 31 1 32 7
M  V30 32 1 32 25
M  V30 33 1 32 26
M  V30 34 1 33 31
M  V30 35 1 34 7
M  V30 36 1 34 28
M  V30 37 1 35 23
M  V30 38 1 35 28
M  V30 39 1 36 8
M  V30 40 2 36 9
M  V30 41 1 37 1
M  V30 42 1 38 1
M  V30 43 1 39 2
M  V30 44 1 40 2
M  V30 45 1 41 3
M  V30 46 1 42 3
M  V30 47 1 43 4
M  V30 48 1 44 4
M  V30 49 1 45 4
M  V30 50 1 46 5
M  V30 51 1 47 5
M  V30 52 1 48 6
M  V30 53 1 49 6
M  V30 54 1 50 6
M  V30 55 1 7 51 CFG=1
M  V30 56 1 52 9
M  V30 57 1 53 11
M  V30 58 1 54 12
M  V30 59 1 55 12
M  V30 60 1 56 17
M  V30 61 1 57 17
M  V30 62 1 58 19
M  V30 63 1 59 19
M  V30 64 1 60 20
M  V30 65 1 61 21
M  V30 66 1 62 23
M  V30 67 1 63 23
M  V30 68 1 64 26
M  V30 69 1 65 26
M  V30 70 1 28 66 CFG=1
M  V30 71 1 29 67 CFG=1
M  V30 72 1 68 30
M  V30 73 1 69 30
M  V30 74 1 70 30
M  V30 75 1 71 31
M  V30 76 1 32 72 CFG=3
M  V30 77 1 73 33
M  V30 78 1 74 33
M  V30 79 1 75 33
M  V30 80 1 76 34
M  V30 81 1 77 34
M  V30 82 1 78 35
M  V30 83 1 79 18
M  V30 END BOND
M  V30 END CTAB
M  END
>  <i_epik_Tot_Q>  (1) 
0

>  <i_epik_Tot_abs_Q>  (1) 
0

>  <i_i_glide_confnum>  (1) 
1709

>  <i_i_glide_lignum>  (1) 
136

>  <i_i_glide_posenum>  (1) 
200

>  <i_i_glide_rotatable_bonds>  (1) 
14

>  <i_lp_mmshare_version>  (1) 
72125

>  <i_m_source_file_index>  (1) 
63

>  <i_f3d_flags>  (1) 
0

>  <num_sample>  (1) 
100

>  <b_lp_Chiralities_Consistent>  (1) 
1

>  <r_epik_Charging_Adjusted_Penalty>  (1) 
0.66759273229091232

>  <r_epik_Ionization_Penalty>  (1) 
2.307606927441598

>  <r_epik_Ionization_Penalty_Charging>  (1) 
0

>  <r_epik_Ionization_Penalty_Neutral>  (1) 
2.307606927441598

>  <r_epik_State_Penalty>  (1) 
0.66759273229091232

>  <r_glide_ring_energy>  (1) 
0

>  <r_i_docking_score>  (1) 
-7.1165754100010945

>  <r_i_glide_ecoul>  (1) 
-2.0386065359092074

>  <r_i_glide_eff_state_penalty>  (1) 
0.66759273229091232

>  <r_i_glide_einternal>  (1) 
24.582479263742997

>  <r_i_glide_emodel>  (1) 
-63.038841410539625

>  <r_i_glide_emodel_strain>  (1) 
0.7741851678657099

>  <r_i_glide_energy>  (1) 
-52.764637587269462

>  <r_i_glide_erotb>  (1) 
0.98835574197518972

>  <r_i_glide_esite>  (1) 
-0.11561776289799144

>  <r_i_glide_evdw>  (1) 
-50.726031051360252

>  <r_i_glide_gscore>  (1) 
-7.7841681422920068

>  <r_i_glide_gscore_strain>  (1) 
0

>  <r_i_glide_hbond>  (1) 
-0.21472067750342835

>  <r_i_glide_ligand_efficiency>  (1) 
-0.19768265027780818

>  <r_i_glide_ligand_efficiency_ln>  (1) 
-1.5526444868139253

>  <r_i_glide_ligand_efficiency_sa>  (1) 
-0.65273372958600195

>  <r_i_glide_lipo>  (1) 
-3.7105878902240552

>  <r_i_glide_metal>  (1) 
-0

>  <r_i_glide_rewards>  (1) 
-1.8895050206873278

>  <r_lp_Energy>  (1) 
35.107028999999997

>  <r_lp_tautomer_probability>  (1) 
0.49999399997599986

>  <s_epik_Chemistry_Notes>  (1) 
This compound has an imine and may undergo hydrolysis. This compound contains an acetal/aminal-like group ( X-CH(R)-Y where X, Y are N, S, or O) that may be acid/base labile, releasing an aldehyde.

>  <s_epik_cmdline>  (1) 
J2VwaWtfcHl0aG9uJywgJy1waHQnLCAnMS4wJywgJy1waCcsICc3LjQnLCAnLXRuJywgJzgnLCAnLW1hJywgJzUwMCcsICctaW1hZScsICc8aW5maWxlLm1hZT4nLCAnLW9tYWUnLCAnPG91dGZpbGUubWFlPic=

>  <s_epik_input>  (1) 
W0NIMl0xW0NIMl1bQ0hdMUMoPU8pTjJbTkhdW0NAQEhdMltDSDJdL0MoW0NIM10pPU4vW0NIMl1bTkhdW0NASF0oW09IXSlbQ0gyXVtDQEhdKFtDSDJdW0NIMl1bQ0hdKFtDSDNdKVtDSDNdKVtDQEBIXShbQ0gyXVtDSDJdMylDKFtDSF09TjQpPUMzTihDND01KVtOSF1bQ0gyXUM1W0NIM10=

>  <s_glide_docking_method>  (1) 
confgen

>  <s_i_glide_gridfile>  (1) 
gpcr_5ht2c_6bqh_protein_autoprepared_prepared

>  <s_lp_Force_Field>  (1) 
S-OPLS

>  <s_lp_Variant>  (1) 
DiffSBDD_62-2

>  <s_m_source_file>  (1) 
generated_GPCR_5HT2C_ligand_DiffSBDD_2026-06-23_prepared.sdf

>  <GenAI_Model>  (1) 
DiffSBDD

>  <Protein>  (1) 
GPCR_5HT2C

$$$$
DiffSBDD_12
     RDKit          3D

  0  0  0  0  0  0  0  0  0  0999 V3000
M  V30 BEGIN CTAB
M  V30 COUNTS 68 70 0 0 1
M  V30 BEGIN ATOM
M  V30 1 C 39.072711 29.142284 51.274691 0 CFG=1
M  V30 2 C 39.728552 28.416718 59.350093 0
M  V30 3 N 38.427078 28.872331 52.576565 0 CFG=2 CHG=1
M  V30 4 C 37.796177 24.753950 57.648690 0
M  V30 5 O 37.124803 30.309204 54.713774 0
M  V30 6 O 41.070531 30.537702 50.967730 0
M  V30 7 N 40.165269 29.809070 63.169637 0 CHG=-1
M  V30 8 C 41.264517 29.158826 63.594850 0
M  V30 9 O 40.845159 30.724611 60.926527 0
M  V30 10 C 39.147209 29.656362 53.586109 0 CFG=1
M  V30 11 C 43.982983 29.201886 65.186443 0
M  V30 12 S 39.835165 27.466038 55.890306 0
M  V30 13 C 39.542718 27.401419 58.529107 0
M  V30 14 C 38.207424 27.457407 52.951008 0
M  V30 15 C 42.647501 28.578241 65.539939 0 CFG=1
M  V30 16 C 38.199268 28.225842 55.408990 0 CFG=1
M  V30 17 O 40.197060 26.410446 54.933796 0
M  V30 18 O 44.014899 28.538564 67.416054 0
M  V30 19 C 39.597131 30.941014 52.889312 0
M  V30 20 C 42.659578 28.762350 67.041956 0 CFG=2
M  V30 21 C 39.711558 28.286126 60.865919 0
M  V30 22 N 44.844636 28.658487 66.220583 0
M  V30 23 O 42.045468 28.540051 62.884815 0
M  V30 24 O 38.411119 30.537765 61.461362 0
M  V30 25 C 38.381791 29.690293 54.920551 0 CFG=2
M  V30 26 C 37.493581 27.373622 54.315264 0
M  V30 27 C 39.266169 25.142177 57.466713 0
M  V30 28 C 39.518105 26.639550 57.450322 0
M  V30 29 O 40.798013 28.537744 56.167809 0
M  V30 30 C 39.727775 30.543149 51.399772 0 CFG=2
M  V30 31 C 40.039207 28.053849 50.808463 0
M  V30 32 C 41.712579 27.801848 67.764617 0
M  V30 33 S 39.771089 29.998907 61.614866 0
M  V30 34 N 41.493482 29.222702 64.909713 0
M  V30 35 H 38.273637 29.134103 50.567814 0
M  V30 36 H 39.912302 29.408323 58.960961 0
M  V30 37 H 37.677494 23.669894 57.676462 0
M  V30 38 H 37.391444 25.152129 58.567770 0
M  V30 39 H 37.184385 25.136088 56.829781 0
M  V30 40 H 36.789493 30.653885 55.537349 0
M  V30 41 H 41.107946 30.848579 50.074960 0
M  V30 42 H 40.045100 29.121924 53.784533 0
M  V30 43 H 44.335805 28.932029 64.190171 0
M  V30 44 H 43.948718 30.289640 65.261842 0
M  V30 45 H 37.632935 26.961997 52.175174 0
M  V30 46 H 39.151811 26.925776 52.960205 0
M  V30 47 H 42.663119 27.514173 65.292147 0
M  V30 48 H 37.627853 28.241890 56.332854 0
M  V30 49 H 38.845543 31.722728 53.008077 0
M  V30 50 H 40.526548 31.322406 53.310002 0
M  V30 51 H 42.406374 29.794456 67.293678 0
M  V30 52 H 38.845289 27.751793 61.245334 0
M  V30 53 H 40.603538 27.737919 61.152961 0
M  V30 54 H 45.597781 29.293119 66.455359 0
M  V30 55 H 38.935068 30.276683 55.656786 0
M  V30 56 H 36.471263 27.727408 54.170839 0
M  V30 57 H 37.414106 26.333587 54.635532 0
M  V30 58 H 39.582745 24.718740 56.514293 0
M  V30 59 H 39.944434 24.677455 58.167769 0
M  V30 60 H 39.245192 31.277232 50.755224 0
M  V30 61 H 40.444941 28.301937 49.830182 0
M  V30 62 H 40.845204 28.023222 51.531830 0
M  V30 63 H 39.583523 27.067906 50.714893 0
M  V30 64 H 40.702839 27.906885 67.367741 0
M  V30 65 H 42.016343 26.765290 67.620202 0
M  V30 66 H 41.682467 28.001800 68.835710 0
M  V30 67 H 40.850469 29.730778 65.496078 0
M  V30 68 H 37.512891 29.302156 52.552579 0
M  V30 END ATOM
M  V30 BEGIN BOND
M  V30 1 1 3 1
M  V30 2 1 8 7
M  V30 3 1 10 3
M  V30 4 2 13 2
M  V30 5 1 14 3
M  V30 6 1 15 11
M  V30 7 1 16 12
M  V30 8 2 17 12
M  V30 9 1 19 10
M  V30 10 1 20 15
M  V30 11 1 20 18
M  V30 12 1 21 2
M  V30 13 1 22 11
M  V30 14 1 22 18
M  V30 15 2 23 8
M  V30 16 1 25 5
M  V30 17 1 25 10
M  V30 18 1 25 16
M  V30 19 1 26 14
M  V30 20 1 26 16
M  V30 21 1 27 4
M  V30 22 1 28 12
M  V30 23 2 28 13
M  V30 24 1 28 27
M  V30 25 2 29 12
M  V30 26 1 30 1
M  V30 27 1 30 6
M  V30 28 1 30 19
M  V30 29 1 31 1
M  V30 30 1 32 20
M  V30 31 1 33 7
M  V30 32 2 33 9
M  V30 33 1 33 21
M  V30 34 2 33 24
M  V30 35 1 34 8
M  V30 36 1 34 15
M  V30 37 1 1 35 CFG=3
M  V30 38 1 36 2
M  V30 39 1 37 4
M  V30 40 1 38 4
M  V30 41 1 39 4
M  V30 42 1 40 5
M  V30 43 1 41 6
M  V30 44 1 10 42 CFG=1
M  V30 45 1 43 11
M  V30 46 1 44 11
M  V30 47 1 45 14
M  V30 48 1 46 14
M  V30 49 1 15 47 CFG=1
M  V30 50 1 16 48 CFG=1
M  V30 51 1 49 19
M  V30 52 1 50 19
M  V30 53 1 20 51 CFG=3
M  V30 54 1 52 21
M  V30 55 1 53 21
M  V30 56 1 54 22
M  V30 57 1 25 55 CFG=1
M  V30 58 1 56 26
M  V30 59 1 57 26
M  V30 60 1 58 27
M  V30 61 1 59 27
M  V30 62 1 30 60 CFG=3
M  V30 63 1 61 31
M  V30 64 1 62 31
M  V30 65 1 63 31
M  V30 66 1 64 32
M  V30 67 1 65 32
M  V30 68 1 66 32
M  V30 69 1 67 34
M  V30 70 1 3 68 CFG=3
M  V30 END BOND
M  V30 END CTAB
M  END
>  <i_epik_Tot_Q>  (1) 
0

>  <i_epik_Tot_abs_Q>  (1) 
2

>  <i_i_glide_confnum>  (1) 
300

>  <i_i_glide_lignum>  (1) 
20

>  <i_i_glide_posenum>  (1) 
344

>  <i_i_glide_rotatable_bonds>  (1) 
11

>  <i_lp_mmshare_version>  (1) 
72125

>  <i_m_source_file_index>  (1) 
13

>  <i_f3d_flags>  (1) 
0

>  <num_sample>  (1) 
100

>  <b_lp_Chiralities_Consistent>  (1) 
1

>  <r_epik_Charging_Adjusted_Penalty>  (1) 
0.60912623126161669

>  <r_epik_Ionization_Penalty>  (1) 
0.30573665464692801

>  <r_epik_Ionization_Penalty_Charging>  (1) 
0.30464155940026277

>  <r_epik_Ionization_Penalty_Neutral>  (1) 
0.0010950952466652615

>  <r_epik_State_Penalty>  (1) 
0.30448467186135392

>  <r_glide_ring_energy>  (1) 
0

>  <r_i_docking_score>  (1) 
-7.1142530583404939

>  <r_i_glide_ecoul>  (1) 
-9.2313097059469698

>  <r_i_glide_eff_state_penalty>  (1) 
0.30448467186135392

>  <r_i_glide_einternal>  (1) 
4.4070655296111925

>  <r_i_glide_emodel>  (1) 
-56.014799679166821

>  <r_i_glide_emodel_strain>  (1) 
2.2843373682677779

>  <r_i_glide_energy>  (1) 
-45.584000978553291

>  <r_i_glide_erotb>  (1) 
0.67758354065758886

>  <r_i_glide_esite>  (1) 
-0.0298065577897372

>  <r_i_glide_evdw>  (1) 
-36.352691272606322

>  <r_i_glide_gscore>  (1) 
-7.4187377302018476

>  <r_i_glide_gscore_strain>  (1) 
0

>  <r_i_glide_hbond>  (1) 
-0.1276569509053061

>  <r_i_glide_ligand_efficiency>  (1) 
-0.20924273701001453

>  <r_i_glide_ligand_efficiency_ln>  (1) 
-1.5717380486265591

>  <r_i_glide_ligand_efficiency_sa>  (1) 
-0.67786524014924399

>  <r_i_glide_lipo>  (1) 
-4.0905251580903093

>  <r_i_glide_metal>  (1) 
-0

>  <r_i_glide_rewards>  (1) 
-0.6460015845517233

>  <r_lp_Energy>  (1) 
-7.8299149999999997

>  <s_epik_Chemistry_Notes>  (1) 
This compound has a N-S or N-O group and may undergo hydrolysis at high or low pH.

>  <s_epik_cmdline>  (1) 
J2VwaWtfcHl0aG9uJywgJy1waHQnLCAnMS4wJywgJy1waCcsICc3LjQnLCAnLXRuJywgJzgnLCAnLW1hJywgJzUwMCcsICctaW1hZScsICc8aW5maWxlLm1hZT4nLCAnLW9tYWUnLCAnPG91dGZpbGUubWFlPic=

>  <s_epik_input>  (1) 
W0NIM11bQ0BASF0xW0NASF0oW09IXSlbQ0gyXVtDQEhdKE4xMilbQ0BASF0oW09IXSlbQ0BASF0oW0NIMl1bQ0gyXTIpUyg9TykoPU8pQyhbQ0gyXVtDSDNdKT1DPVtDSF1bQ0gyXVMoPU8pKD1PKVtOSF1DKD1PKVtOSF1bQ0BIXTNbQ0gyXVtOSF1PW0NAQEhdM1tDSDNd

>  <s_glide_docking_method>  (1) 
confgen

>  <s_i_glide_gridfile>  (1) 
gpcr_5ht2c_6bqh_protein_autoprepared_prepared

>  <s_lp_Force_Field>  (1) 
S-OPLS

>  <s_lp_Variant>  (1) 
DiffSBDD_12-2

>  <s_m_source_file>  (1) 
generated_GPCR_5HT2C_ligand_DiffSBDD_2026-06-23_prepared.sdf

>  <GenAI_Model>  (1) 
DiffSBDD

>  <Protein>  (1) 
GPCR_5HT2C

$$$$
DiffSBDD_13
     RDKit          3D

  0  0  0  0  0  0  0  0  0  0999 V3000
M  V30 BEGIN CTAB
M  V30 COUNTS 53 55 0 0 1
M  V30 BEGIN ATOM
M  V30 1 C 37.443172 33.926697 60.437838 0
M  V30 2 C 38.826733 29.822180 60.241308 0
M  V30 3 C 39.493315 30.751852 61.066672 0
M  V30 4 C 37.258761 31.562019 59.550731 0
M  V30 5 F 36.497564 34.054984 61.367737 0
M  V30 6 C 37.512512 27.100783 53.711288 0
M  V30 7 C 38.908828 28.872078 55.881980 0
M  V30 8 O 38.910872 29.843880 56.631613 0
M  V30 9 N 38.867207 29.033502 54.519270 0
M  V30 10 C 39.043322 26.362016 55.544503 0
M  V30 11 C 37.782903 26.041907 54.755363 0
M  V30 12 C 39.307128 28.384279 60.170295 0
M  V30 13 C 37.706981 30.229678 59.485774 0
M  V30 14 C 39.043232 32.085801 61.132012 0
M  V30 15 C 39.934873 30.907070 52.485602 0
M  V30 16 C 39.525544 29.737463 51.568903 0
M  V30 17 C 40.742395 29.018947 50.998120 0
M  V30 18 C 39.790041 27.998861 58.782844 0 CFG=1
M  V30 19 C 37.926126 32.492162 60.372052 0
M  V30 20 C 38.726342 28.012552 53.472029 0 CFG=2
M  V30 21 C 39.970308 26.538119 58.443658 0
M  V30 22 C 38.861659 27.318032 57.783399 0 CFG=2
M  V30 23 N 38.936320 27.575652 56.368169 0
M  V30 24 C 38.457944 28.770301 52.144799 0
M  V30 25 H 38.255436 34.609643 60.688233 0
M  V30 26 H 37.015025 34.238170 59.483781 0
M  V30 27 H 40.348334 30.442734 61.649564 0
M  V30 28 H 36.402510 31.871187 58.967763 0
M  V30 29 H 36.644590 27.700064 53.990982 0
M  V30 30 H 37.245127 26.586966 52.791701 0
M  V30 31 H 38.867938 29.987049 54.189325 0
M  V30 32 H 39.971215 26.340959 54.974696 0
M  V30 33 H 39.175885 25.502756 56.202595 0
M  V30 34 H 36.925141 25.938809 55.421681 0
M  V30 35 H 37.907093 25.073788 54.270340 0
M  V30 36 H 40.116073 28.218363 60.882844 0
M  V30 37 H 38.483371 27.737752 60.469715 0
M  V30 38 H 37.193420 29.520296 58.853084 0
M  V30 39 H 39.554661 32.796917 61.764129 0
M  V30 40 H 40.613388 30.586837 53.275246 0
M  V30 41 H 40.445155 31.676568 51.908065 0
M  V30 42 H 39.080236 31.383146 52.967783 0
M  V30 43 H 39.058366 30.183525 50.690927 0
M  V30 44 H 41.285105 28.482158 51.767725 0
M  V30 45 H 40.445055 28.300194 50.234408 0
M  V30 46 H 41.426101 29.737756 50.542737 0
M  V30 47 H 40.561161 28.657692 58.387189 0
M  V30 48 H 39.645123 27.460571 53.294966 0
M  V30 49 H 40.842404 26.272378 57.848659 0
M  V30 50 H 39.645143 25.783802 59.154016 0
M  V30 51 H 37.857566 27.109581 58.147800 0
M  V30 52 H 38.225333 28.044132 51.363474 0
M  V30 53 H 37.543406 29.337404 52.280663 0
M  V30 END ATOM
M  V30 BEGIN BOND
M  V30 1 2 3 2
M  V30 2 1 5 1
M  V30 3 2 8 7
M  V30 4 1 9 7
M  V30 5 1 11 6
M  V30 6 1 11 10
M  V30 7 1 12 2
M  V30 8 1 13 2
M  V30 9 2 13 4
M  V30 10 1 14 3
M  V30 11 1 16 15
M  V30 12 1 17 16
M  V30 13 1 18 12
M  V30 14 1 19 1
M  V30 15 1 19 4
M  V30 16 2 19 14
M  V30 17 1 20 6
M  V30 18 1 20 9
M  V30 19 1 21 18
M  V30 20 1 22 18
M  V30 21 1 22 21
M  V30 22 1 23 7
M  V30 23 1 23 10
M  V30 24 1 23 22
M  V30 25 1 24 16
M  V30 26 1 24 20
M  V30 27 1 25 1
M  V30 28 1 26 1
M  V30 29 1 27 3
M  V30 30 1 28 4
M  V30 31 1 29 6
M  V30 32 1 30 6
M  V30 33 1 31 9
M  V30 34 1 32 10
M  V30 35 1 33 10
M  V30 36 1 34 11
M  V30 37 1 35 11
M  V30 38 1 36 12
M  V30 39 1 37 12
M  V30 40 1 38 13
M  V30 41 1 39 14
M  V30 42 1 40 15
M  V30 43 1 41 15
M  V30 44 1 42 15
M  V30 45 1 43 16
M  V30 46 1 44 17
M  V30 47 1 45 17
M  V30 48 1 46 17
M  V30 49 1 18 47 CFG=3
M  V30 50 1 20 48 CFG=3
M  V30 51 1 49 21
M  V30 52 1 50 21
M  V30 53 1 22 51 CFG=1
M  V30 54 1 52 24
M  V30 55 1 53 24
M  V30 END BOND
M  V30 END CTAB
M  END
>  <i_epik_Tot_Q>  (1) 
0

>  <i_epik_Tot_abs_Q>  (1) 
0

>  <i_i_glide_confnum>  (1) 
178

>  <i_i_glide_lignum>  (1) 
22

>  <i_i_glide_posenum>  (1) 
114

>  <i_i_glide_rotatable_bonds>  (1) 
6

>  <i_lp_mmshare_version>  (1) 
72125

>  <i_m_source_file_index>  (1) 
14

>  <i_f3d_flags>  (1) 
0

>  <num_sample>  (1) 
100

>  <b_lp_Chiralities_Consistent>  (1) 
1

>  <r_epik_Charging_Adjusted_Penalty>  (1) 
0

>  <r_epik_Ionization_Penalty>  (1) 
3.0121457711640309e-05

>  <r_epik_Ionization_Penalty_Charging>  (1) 
0

>  <r_epik_Ionization_Penalty_Neutral>  (1) 
3.0121457711640309e-05

>  <r_epik_State_Penalty>  (1) 
-0

>  <r_glide_ring_energy>  (1) 
2.4280033264109

>  <r_i_docking_score>  (1) 
-7.1131018490083218

>  <r_i_glide_ecoul>  (1) 
-0.77442113227917508

>  <r_i_glide_eff_state_penalty>  (1) 
-0

>  <r_i_glide_einternal>  (1) 
0.78475999692083676

>  <r_i_glide_emodel>  (1) 
-47.203626592456658

>  <r_i_glide_emodel_strain>  (1) 
0.048861146674624933

>  <r_i_glide_energy>  (1) 
-34.64762486836139

>  <r_i_glide_erotb>  (1) 
0.68159817047081894

>  <r_i_glide_esite>  (1) 
0

>  <r_i_glide_evdw>  (1) 
-33.873203736082218

>  <r_i_glide_gscore>  (1) 
-7.1131018490083218

>  <r_i_glide_gscore_strain>  (1) 
0

>  <r_i_glide_hbond>  (1) 
0

>  <r_i_glide_ligand_efficiency>  (1) 
-0.29637924370868007

>  <r_i_glide_ligand_efficiency_ln>  (1) 
-1.7024916714431004

>  <r_i_glide_ligand_efficiency_sa>  (1) 
-0.85490567377375704

>  <r_i_glide_lipo>  (1) 
-3.7143975303341432

>  <r_i_glide_metal>  (1) 
-0

>  <r_i_glide_rewards>  (1) 
-2.2704791324990103

>  <r_lp_Energy>  (1) 
33.445327999999996

>  <r_lp_tautomer_probability>  (1) 
1

>  <s_epik_cmdline>  (1) 
J2VwaWtfcHl0aG9uJywgJy1waHQnLCAnMS4wJywgJy1waCcsICc3LjQnLCAnLXRuJywgJzgnLCAnLW1hJywgJzUwMCcsICctaW1hZScsICc8aW5maWxlLm1hZT4nLCAnLW9tYWUnLCAnPG91dGZpbGUubWFlPic=

>  <s_epik_input>  (1) 
RltDSDJdYyhbY0hdW2NIXTEpW2NIXVtjSF1jMVtDSDJdW0NASF0yW0NIMl1bQ0BASF0yTjNbQ0gyXVtDSDJdW0NIMl1bQ0BIXShbTkhdQzM9TylbQ0gyXVtDSF0oW0NIM10pW0NIM10=

>  <s_glide_docking_method>  (1) 
confgen

>  <s_i_glide_gridfile>  (1) 
gpcr_5ht2c_6bqh_protein_autoprepared_prepared

>  <s_lp_Force_Field>  (1) 
S-OPLS

>  <s_lp_Variant>  (1) 
DiffSBDD_13-1

>  <s_m_source_file>  (1) 
generated_GPCR_5HT2C_ligand_DiffSBDD_2026-06-23_prepared.sdf

>  <GenAI_Model>  (1) 
DiffSBDD

>  <Protein>  (1) 
GPCR_5HT2C

$$$$
DiffSBDD_95
     RDKit          3D

  0  0  0  0  0  0  0  0  0  0999 V3000
M  V30 BEGIN CTAB
M  V30 COUNTS 57 59 0 0 1
M  V30 BEGIN ATOM
M  V30 1 O 38.845136 33.279425 59.208984 0
M  V30 2 C 40.134405 34.584446 62.100191 0
M  V30 3 C 40.136129 33.247055 62.795631 0
M  V30 4 C 37.559656 24.569860 55.243342 0
M  V30 5 C 37.668379 29.759568 55.174027 0
M  V30 6 O 38.845570 31.588422 57.032706 0
M  V30 7 O 39.718228 30.335504 60.501114 0 CHG=-1
M  V30 8 C 38.847746 25.721520 57.460172 0
M  V30 9 O 37.909270 30.937757 62.167745 0
M  V30 10 C 40.788796 28.063922 57.061371 0
M  V30 11 C 38.552936 30.311549 57.555660 0 CFG=2
M  V30 12 C 40.039984 33.312630 61.286581 0
M  V30 13 C 39.890744 28.741970 56.044743 0 CFG=2
M  V30 14 C 37.887568 24.710351 57.646167 0
M  V30 15 C 37.681289 28.869173 53.909241 0
M  V30 16 C 38.783627 29.079512 52.866940 0
M  V30 17 C 39.645163 30.113439 52.912163 0
M  V30 18 C 38.764737 32.908802 60.569979 0 CFG=2
M  V30 19 C 38.497791 29.264207 56.404345 0 CFG=2
M  V30 20 C 38.842617 28.041738 51.763486 0
M  V30 21 C 37.236666 30.359600 58.316647 0
M  V30 22 C 37.093589 30.651311 59.629301 0
M  V30 23 C 37.244377 24.137754 56.538020 0
M  V30 24 P 38.462181 31.058397 60.804281 0
M  V30 25 C 38.521440 25.576059 55.051244 0
M  V30 26 C 39.170777 26.166409 56.156066 0
M  V30 27 C 40.193021 27.248843 55.937033 0 CFG=2
M  V30 28 H 38.088669 33.810564 59.003904 0
M  V30 29 H 41.071589 35.135478 62.059413 0
M  V30 30 H 39.238651 35.195727 62.189660 0
M  V30 31 H 39.245134 32.963729 63.350797 0
M  V30 32 H 41.075780 32.900885 63.220345 0
M  V30 33 H 37.064078 24.128178 54.392363 0
M  V30 34 H 36.630726 29.821758 55.501132 0
M  V30 35 H 37.896894 30.788023 54.904765 0
M  V30 36 H 38.913998 32.193828 57.767391 0
M  V30 37 H 39.336240 26.154830 58.318297 0
M  V30 38 H 41.853442 28.280115 57.003436 0
M  V30 39 H 40.398423 27.980035 58.072194 0
M  V30 40 H 39.361464 30.041726 58.220950 0
M  V30 41 H 40.934441 32.937750 60.801080 0
M  V30 42 H 40.445187 29.415922 55.398092 0
M  V30 43 H 37.645138 24.374154 58.641772 0
M  V30 44 H 37.646947 27.828854 54.207674 0
M  V30 45 H 36.751859 29.021210 53.367823 0
M  V30 46 H 40.409131 30.231160 52.157702 0
M  V30 47 H 39.600347 30.851180 53.696803 0
M  V30 48 H 37.931983 33.453682 61.015200 0
M  V30 49 H 37.959092 28.408092 56.809429 0
M  V30 50 H 37.862983 27.931155 51.299280 0
M  V30 51 H 39.555557 28.322091 50.987334 0
M  V30 52 H 39.141560 27.072700 52.160219 0
M  V30 53 H 36.353773 30.137756 57.740840 0
M  V30 54 H 36.094630 30.640128 60.036268 0
M  V30 55 H 36.507794 23.362113 56.680968 0
M  V30 56 H 38.761589 25.901046 54.051952 0
M  V30 57 H 40.845137 26.937791 55.127649 0
M  V30 END ATOM
M  V30 BEGIN BOND
M  V30 1 1 3 2
M  V30 2 1 11 6
M  V30 3 1 12 2
M  V30 4 1 12 3
M  V30 5 1 13 10
M  V30 6 2 14 8
M  V30 7 1 15 5
M  V30 8 1 16 15
M  V30 9 2 17 16
M  V30 10 1 18 1
M  V30 11 1 18 12
M  V30 12 1 19 5
M  V30 13 1 19 11
M  V30 14 1 19 13
M  V30 15 1 20 16
M  V30 16 1 21 11
M  V30 17 2 22 21
M  V30 18 2 23 4
M  V30 19 1 23 14
M  V30 20 1 24 7
M  V30 21 2 24 9
M  V30 22 1 24 18
M  V30 23 1 24 22
M  V30 24 1 25 4
M  V30 25 1 26 8
M  V30 26 2 26 25
M  V30 27 1 27 10
M  V30 28 1 27 13
M  V30 29 1 27 26
M  V30 30 1 28 1
M  V30 31 1 29 2
M  V30 32 1 30 2
M  V30 33 1 31 3
M  V30 34 1 32 3
M  V30 35 1 33 4
M  V30 36 1 34 5
M  V30 37 1 35 5
M  V30 38 1 36 6
M  V30 39 1 37 8
M  V30 40 1 38 10
M  V30 41 1 39 10
M  V30 42 1 11 40 CFG=1
M  V30 43 1 41 12
M  V30 44 1 13 42 CFG=3
M  V30 45 1 43 14
M  V30 46 1 44 15
M  V30 47 1 45 15
M  V30 48 1 46 17
M  V30 49 1 47 17
M  V30 50 1 18 48 CFG=1
M  V30 51 1 19 49 CFG=1
M  V30 52 1 50 20
M  V30 53 1 51 20
M  V30 54 1 52 20
M  V30 55 1 53 21
M  V30 56 1 54 22
M  V30 57 1 55 23
M  V30 58 1 56 25
M  V30 59 1 27 57 CFG=3
M  V30 END BOND
M  V30 END CTAB
M  END
>  <i_epik_Tot_Q>  (1) 
-1

>  <i_epik_Tot_abs_Q>  (1) 
1

>  <i_i_glide_confnum>  (1) 
243

>  <i_i_glide_lignum>  (1) 
227

>  <i_i_glide_posenum>  (1) 
194

>  <i_i_glide_rotatable_bonds>  (1) 
12

>  <i_lp_mmshare_version>  (1) 
72125

>  <i_m_source_file_index>  (1) 
96

>  <i_f3d_flags>  (1) 
0

>  <num_sample>  (1) 
100

>  <b_lp_Chiralities_Consistent>  (1) 
1

>  <r_epik_Charging_Adjusted_Penalty>  (1) 
1.080755722854454e-05

>  <r_epik_Ionization_Penalty>  (1) 
1.1075885964492435e-05

>  <r_epik_Ionization_Penalty_Charging>  (1) 
1.080755722854454e-05

>  <r_epik_Ionization_Penalty_Neutral>  (1) 
2.6832873594789518e-07

>  <r_epik_State_Penalty>  (1) 
-0

>  <r_glide_ring_energy>  (1) 
0

>  <r_i_docking_score>  (1) 
-7.1105288595128666

>  <r_i_glide_ecoul>  (1) 
-3.6608814667610812

>  <r_i_glide_eff_state_penalty>  (1) 
-0

>  <r_i_glide_einternal>  (1) 
10.159973274216084

>  <r_i_glide_emodel>  (1) 
-59.475296577657197

>  <r_i_glide_emodel_strain>  (1) 
0.36798931128481627

>  <r_i_glide_energy>  (1) 
-41.952308149906415

>  <r_i_glide_erotb>  (1) 
1.1567431559220434

>  <r_i_glide_esite>  (1) 
0

>  <r_i_glide_evdw>  (1) 
-38.291426683145332

>  <r_i_glide_gscore>  (1) 
-7.1105288595128666

>  <r_i_glide_gscore_strain>  (1) 
0

>  <r_i_glide_hbond>  (1) 
-0.10269551643626729

>  <r_i_glide_ligand_efficiency>  (1) 
-0.26335292072269878

>  <r_i_glide_ligand_efficiency_ln>  (1) 
-1.6552138922646187

>  <r_i_glide_ligand_efficiency_sa>  (1) 
-0.79005876216809645

>  <r_i_glide_lipo>  (1) 
-4.5269489475600793

>  <r_i_glide_metal>  (1) 
-0

>  <r_i_glide_rewards>  (1) 
-1.1739239972671334

>  <r_lp_Energy>  (1) 
33.993966

>  <r_lp_tautomer_probability>  (1) 
1

>  <s_epik_cmdline>  (1) 
J2VwaWtfcHl0aG9uJywgJy1waHQnLCAnMS4wJywgJy1waCcsICc3LjQnLCAnLXRuJywgJzgnLCAnLW1hJywgJzUwMCcsICctaW1hZScsICc8aW5maWxlLm1hZT4nLCAnLW9tYWUnLCAnPG91dGZpbGUubWFlPic=

>  <s_epik_input>  (1) 
W0NIMl0xW0NIMl1bQ0hdMVtDQEBIXShbT0hdKVtQQF0oPU8pKFtPSF0pL1tDSF09W0NIXVxbQ0BIXShbT0hdKVtDQEBIXShbQ0gyXVtDSDJdQyg9W0NIMl0pW0NIM10pW0NASF0yW0NIMl1bQ0BIXTJjM1tjSF1bY0hdW2NIXVtjSF1bY0hdMw==

>  <s_glide_docking_method>  (1) 
confgen

>  <s_i_glide_gridfile>  (1) 
gpcr_5ht2c_6bqh_protein_autoprepared_prepared

>  <s_lp_Force_Field>  (1) 
S-OPLS

>  <s_lp_Variant>  (1) 
DiffSBDD_95-2

>  <s_m_source_file>  (1) 
generated_GPCR_5HT2C_ligand_DiffSBDD_2026-06-23_prepared.sdf

>  <GenAI_Model>  (1) 
DiffSBDD

>  <Protein>  (1) 
GPCR_5HT2C

$$$$
DiffSBDD_75
     RDKit          3D

  0  0  0  0  0  0  0  0  0  0999 V3000
M  V30 BEGIN CTAB
M  V30 COUNTS 76 77 0 0 1
M  V30 BEGIN ATOM
M  V30 1 C 38.851603 31.198229 61.905259 0
M  V30 2 C 41.091008 29.046437 62.735978 0
M  V30 3 O 40.845148 26.753727 57.919109 0
M  V30 4 C 37.691768 33.532908 60.206688 0
M  V30 5 C 38.607559 26.054898 56.457011 0 CFG=1
M  V30 6 C 41.393267 34.084094 65.817331 0
M  V30 7 C 39.902611 27.799832 57.883038 0 CFG=2
M  V30 8 C 41.555811 33.114393 66.828427 0
M  V30 9 O 37.027814 24.937778 55.004016 0
M  V30 10 C 39.328551 28.376144 55.462706 0 CFG=1
M  V30 11 O 40.229333 34.937774 69.741341 0
M  V30 12 S 38.878185 29.728406 59.577053 0
M  V30 13 C 36.475802 34.470912 60.338752 0
M  V30 14 C 40.606901 34.658229 68.462255 0
M  V30 15 C 39.311683 27.994042 59.288388 0
M  V30 16 C 41.790772 33.764953 64.390370 0
M  V30 17 C 40.843931 35.343984 66.132687 0
M  V30 18 O 37.246630 28.600365 54.167722 0
M  V30 19 C 39.334700 29.913342 55.653317 0
M  V30 20 C 38.865685 27.584190 56.727931 0 CFG=1
M  V30 21 O 35.508422 34.137718 59.367748 0
M  V30 22 O 40.765094 29.728563 61.533213 0
M  V30 23 O 42.003278 32.578262 61.767774 0
M  V30 24 C 39.425629 34.940857 61.117885 0
M  V30 25 N 38.695419 33.670402 61.280745 0
M  V30 26 C 40.865929 32.677756 62.227173 0
M  V30 27 C 41.164816 33.402359 68.150328 0
M  V30 28 C 40.648720 33.001044 63.705117 0
M  V30 29 C 39.581920 32.476568 61.378623 0 CFG=1
M  V30 30 C 40.445196 35.628305 67.453401 0
M  V30 31 C 38.448436 26.531614 53.898220 0
M  V30 32 C 39.364820 29.870837 61.317377 0 CFG=1
M  V30 33 C 37.878806 25.338785 57.617153 0
M  V30 34 C 38.544421 28.034118 54.170061 0 CFG=2
M  V30 35 C 37.932815 25.765467 55.108953 0
M  V30 36 H 38.909101 31.136180 62.989923 0
M  V30 37 H 37.779296 31.241518 61.730497 0
M  V30 38 H 42.173754 29.008124 62.855661 0
M  V30 39 H 40.674211 29.553411 63.607090 0
M  V30 40 H 40.721319 28.020396 62.718648 0
M  V30 41 H 41.583152 27.022231 58.446438 0
M  V30 42 H 38.165583 33.680199 59.233964 0
M  V30 43 H 37.297719 32.520229 60.162688 0
M  V30 44 H 40.522103 28.672073 57.692076 0
M  V30 45 H 41.975934 32.148318 66.588712 0
M  V30 46 H 37.803352 26.343091 53.039310 0
M  V30 47 H 40.360747 28.067069 55.300285 0
M  V30 48 H 40.450466 34.252341 70.351196 0
M  V30 49 H 36.028392 34.376416 61.329108 0
M  V30 50 H 36.749191 35.515821 60.199164 0
M  V30 51 H 40.058371 27.717778 60.033519 0
M  V30 52 H 38.445258 27.363896 59.473789 0
M  V30 53 H 42.020570 34.685418 63.851323 0
M  V30 54 H 42.700405 33.164956 64.399498 0
M  V30 55 H 40.718497 36.089287 65.359979 0
M  V30 56 H 36.826683 28.405527 54.990969 0
M  V30 57 H 38.352087 30.282917 55.950245 0
M  V30 58 H 40.045073 30.259502 56.400031 0
M  V30 59 H 39.603715 30.418292 54.724914 0
M  V30 60 H 37.917685 28.027139 57.037264 0
M  V30 61 H 34.769556 34.721740 59.449661 0
M  V30 62 H 38.749651 35.789850 61.035004 0
M  V30 63 H 40.059827 35.171817 61.973203 0
M  V30 64 H 40.049002 34.927006 60.222592 0
M  V30 65 H 41.289601 32.658188 68.923201 0
M  V30 66 H 40.470863 32.069241 64.241373 0
M  V30 67 H 39.729898 33.580487 63.767758 0
M  V30 68 H 39.922010 32.263426 60.364974 0
M  V30 69 H 40.019180 36.591814 67.693324 0
M  V30 70 H 39.434284 26.138235 53.650836 0
M  V30 71 H 39.570768 25.560609 56.335248 0
M  V30 72 H 38.845139 29.055520 61.821205 0
M  V30 73 H 37.681693 24.290013 57.390635 0
M  V30 74 H 38.478600 25.338668 58.525351 0
M  V30 75 H 36.923953 25.816570 57.836709 0
M  V30 76 H 39.066576 28.482250 53.323722 0
M  V30 END ATOM
M  V30 BEGIN BOND
M  V30 1 1 7 3
M  V30 2 1 8 6
M  V30 3 1 13 4
M  V30 4 1 14 11
M  V30 5 1 15 7
M  V30 6 1 15 12
M  V30 7 1 16 6
M  V30 8 2 17 6
M  V30 9 1 19 10
M  V30 10 1 20 5
M  V30 11 1 20 7
M  V30 12 1 20 10
M  V30 13 1 21 13
M  V30 14 1 22 2
M  V30 15 1 25 4
M  V30 16 1 25 24
M  V30 17 2 26 23
M  V30 18 2 27 8
M  V30 19 1 27 14
M  V30 20 1 28 16
M  V30 21 1 28 26
M  V30 22 1 29 1
M  V30 23 1 29 25
M  V30 24 1 29 26
M  V30 25 2 30 14
M  V30 26 1 30 17
M  V30 27 1 32 1
M  V30 28 1 32 12
M  V30 29 1 32 22
M  V30 30 1 33 5
M  V30 31 1 34 10
M  V30 32 1 34 18
M  V30 33 1 34 31
M  V30 34 1 35 5
M  V30 35 2 35 9
M  V30 36 1 35 31
M  V30 37 1 36 1
M  V30 38 1 37 1
M  V30 39 1 38 2
M  V30 40 1 39 2
M  V30 41 1 40 2
M  V30 42 1 41 3
M  V30 43 1 42 4
M  V30 44 1 43 4
M  V30 45 1 7 44 CFG=3
M  V30 46 1 45 8
M  V30 47 1 46 31
M  V30 48 1 10 47 CFG=3
M  V30 49 1 48 11
M  V30 50 1 49 13
M  V30 51 1 50 13
M  V30 52 1 51 15
M  V30 53 1 52 15
M  V30 54 1 53 16
M  V30 55 1 54 16
M  V30 56 1 55 17
M  V30 57 1 56 18
M  V30 58 1 57 19
M  V30 59 1 58 19
M  V30 60 1 59 19
M  V30 61 1 20 60 CFG=1
M  V30 62 1 61 21
M  V30 63 1 62 24
M  V30 64 1 63 24
M  V30 65 1 64 24
M  V30 66 1 65 27
M  V30 67 1 66 28
M  V30 68 1 67 28
M  V30 69 1 29 68 CFG=3
M  V30 70 1 69 30
M  V30 71 1 70 31
M  V30 72 1 5 71 CFG=3
M  V30 73 1 32 72 CFG=1
M  V30 74 1 73 33
M  V30 75 1 74 33
M  V30 76 1 75 33
M  V30 77 1 34 76 CFG=3
M  V30 END BOND
M  V30 END CTAB
M  END
>  <i_epik_Tot_Q>  (1) 
0

>  <i_epik_Tot_abs_Q>  (1) 
0

>  <i_i_glide_confnum>  (1) 
5400

>  <i_i_glide_lignum>  (1) 
174

>  <i_i_glide_posenum>  (1) 
357

>  <i_i_glide_rotatable_bonds>  (1) 
18

>  <i_lp_mmshare_version>  (1) 
72125

>  <i_m_source_file_index>  (1) 
76

>  <i_f3d_flags>  (1) 
0

>  <num_sample>  (1) 
100

>  <b_lp_Chiralities_Consistent>  (1) 
1

>  <r_epik_Charging_Adjusted_Penalty>  (1) 
0.60615279515584763

>  <r_epik_Ionization_Penalty>  (1) 
0.6077244911787385

>  <r_epik_Ionization_Penalty_Charging>  (1) 
0

>  <r_epik_Ionization_Penalty_Neutral>  (1) 
0.6077244911787385

>  <r_epik_State_Penalty>  (1) 
0.60615279515584763

>  <r_glide_ring_energy>  (1) 
0

>  <r_i_docking_score>  (1) 
-7.103486330992629

>  <r_i_glide_ecoul>  (1) 
-3.0692732612804168

>  <r_i_glide_eff_state_penalty>  (1) 
0.60615279515584763

>  <r_i_glide_einternal>  (1) 
5.5663647231728532

>  <r_i_glide_emodel>  (1) 
-73.753125950105783

>  <r_i_glide_emodel_strain>  (1) 
0.66833542355723097

>  <r_i_glide_energy>  (1) 
-55.204973998509637

>  <r_i_glide_erotb>  (1) 
1.0176109525924779

>  <r_i_glide_esite>  (1) 
0

>  <r_i_glide_evdw>  (1) 
-52.135700737229222

>  <r_i_glide_gscore>  (1) 
-7.7096391261484767

>  <r_i_glide_gscore_strain>  (1) 
0

>  <r_i_glide_hbond>  (1) 
-0.32000000000000001

>  <r_i_glide_ligand_efficiency>  (1) 
-0.20295675231407512

>  <r_i_glide_ligand_efficiency_ln>  (1) 
-1.5593729030378589

>  <r_i_glide_ligand_efficiency_sa>  (1) 
-0.6638849949198613

>  <r_i_glide_lipo>  (1) 
-4.4518301065596013

>  <r_i_glide_metal>  (1) 
-0

>  <r_i_glide_rewards>  (1) 
-0.88824394612782986

>  <r_lp_Energy>  (1) 
23.807221999999999

>  <r_lp_tautomer_probability>  (1) 
0.99999993999736703

>  <s_epik_Chemistry_Notes>  (1) 
This compound contains an acetal/aminal-like group ( X-CH(R)-Y where X, Y are N, S, or O) that may be acid/base labile, releasing an aldehyde.

>  <s_epik_cmdline>  (1) 
J2VwaWtfcHl0aG9uJywgJy1waHQnLCAnMS4wJywgJy1waCcsICc3LjQnLCAnLXRuJywgJzgnLCAnLW1hJywgJzUwMCcsICctaW1hZScsICc8aW5maWxlLm1hZT4nLCAnLW9tYWUnLCAnPG91dGZpbGUubWFlPic=

>  <s_epik_input>  (1) 
W2NIXTFbY0hdYyhbT0hdKVtjSF1bY0hdYzFbQ0gyXVtDSDJdQyg9TylbQ0BIXShOKFtDSDNdKVtDSDJdW0NIMl1bT0hdKVtDSDJdW0NASF0oT1tDSDNdKVNbQ0gyXVtDQEBIXShbT0hdKVtDQEhdMltDQEBIXShbQ0gzXSlbQ0BIXShbT0hdKVtDSDJdQyhbT0hdKT1DMltDSDNd

>  <s_glide_docking_method>  (1) 
confgen

>  <s_i_glide_gridfile>  (1) 
gpcr_5ht2c_6bqh_protein_autoprepared_prepared

>  <s_lp_Force_Field>  (1) 
S-OPLS

>  <s_lp_Variant>  (1) 
DiffSBDD_75-11

>  <s_m_source_file>  (1) 
generated_GPCR_5HT2C_ligand_DiffSBDD_2026-06-23_prepared.sdf

>  <GenAI_Model>  (1) 
DiffSBDD

>  <Protein>  (1) 
GPCR_5HT2C

$$$$
DiffSBDD_62
     RDKit          3D

  0  0  0  0  0  0  0  0  0  0999 V3000
M  V30 BEGIN CTAB
M  V30 COUNTS 79 83 0 0 1
M  V30 BEGIN ATOM
M  V30 1 C 40.021546 30.283575 63.428952 0
M  V30 2 C 40.377819 30.007063 50.932096 0
M  V30 3 C 39.084746 27.900115 57.447588 0
M  V30 4 C 40.596415 32.550577 64.486115 0
M  V30 5 C 42.462526 25.982337 66.201925 0
M  V30 6 C 39.245159 27.702124 50.427261 0
M  V30 7 C 38.157702 29.121254 57.663964 0 CFG=2
M  V30 8 C 39.055941 29.002412 52.528567 0
M  V30 9 C 37.875869 28.457940 54.486040 0
M  V30 10 O 41.143087 28.718641 65.765606 0
M  V30 11 C 41.637495 26.490422 65.036722 0
M  V30 12 C 39.670217 31.685394 54.983488 0
M  V30 13 C 40.085939 31.807649 63.269630 0
M  V30 14 C 41.534064 27.972899 64.864569 0
M  V30 15 C 39.138283 30.459297 54.380096 0
M  V30 16 N 39.465636 30.126566 53.093982 0
M  V30 17 C 38.296487 26.593095 57.599649 0
M  V30 18 O 36.300753 30.660242 59.541968 0
M  V30 19 C 40.962081 25.850705 66.235093 0
M  V30 20 N 42.439455 29.748831 63.591593 0
M  V30 21 N 40.319567 30.937752 52.233381 0
M  V30 22 N 39.734740 32.424654 62.207353 0
M  V30 23 C 39.425404 31.766035 60.956780 0
M  V30 24 C 39.504511 28.852752 51.356765 0
M  V30 25 C 38.384523 29.711433 55.086702 0
M  V30 26 C 39.132520 31.339908 56.452969 0
M  V30 27 N 41.883345 28.411079 63.634545 0
M  V30 28 C 37.672520 30.975899 59.497751 0 CFG=2
M  V30 29 C 41.252847 29.528673 62.903705 0 CFG=1
M  V30 30 C 39.222266 25.338206 55.600442 0
M  V30 31 C 39.042280 25.342983 57.129480 0
M  V30 32 C 38.065908 30.128478 56.477642 0 CFG=2
M  V30 33 C 38.287139 24.092863 57.600266 0
M  V30 34 C 38.495232 29.750190 59.035275 0
M  V30 35 N 38.020200 31.378668 60.859985 0
M  V30 36 N 38.189378 28.125762 53.271250 0
M  V30 37 H 39.799355 30.084312 64.470087 0
M  V30 38 H 39.150773 29.897345 62.902238 0
M  V30 39 H 41.403570 29.699113 50.731511 0
M  V30 40 H 39.965548 30.530675 50.068896 0
M  V30 41 H 39.599753 27.944750 56.493277 0
M  V30 42 H 39.901496 27.892943 58.170431 0
M  V30 43 H 40.044845 32.255288 65.377947 0
M  V30 44 H 41.653153 32.334388 64.643081 0
M  V30 45 H 40.487586 33.627795 64.354296 0
M  V30 46 H 43.052820 25.083305 66.035879 0
M  V30 47 H 42.915051 26.712869 66.870956 0
M  V30 48 H 38.845132 28.137890 49.519823 0
M  V30 49 H 40.167826 27.182221 50.175324 0
M  V30 50 H 38.530007 26.985618 50.833284 0
M  V30 51 H 37.138929 28.745008 57.767476 0
M  V30 52 H 37.245123 27.839841 55.118471 0
M  V30 53 H 41.702996 25.900993 64.125263 0
M  V30 54 H 40.757618 31.737750 54.937033 0
M  V30 55 H 39.190361 32.568227 54.567678 0
M  V30 56 H 38.045307 26.493567 58.655218 0
M  V30 57 H 37.346722 26.645327 57.066549 0
M  V30 58 H 40.445112 26.481508 66.954590 0
M  V30 59 H 40.525617 24.865533 66.086281 0
M  V30 60 H 42.385255 30.237737 64.475755 0
M  V30 61 H 39.840174 31.812863 52.028396 0
M  V30 62 H 40.077414 30.909753 60.807995 0
M  V30 63 H 39.647546 32.462895 60.147925 0
M  V30 64 H 38.760337 32.235794 56.948162 0
M  V30 65 H 40.006686 31.008815 57.005756 0
M  V30 66 H 37.804505 31.829278 58.835926 0
M  V30 67 H 41.311355 29.454251 61.821145 0
M  V30 68 H 38.268687 25.466307 55.087666 0
M  V30 69 H 39.891612 26.128537 55.263525 0
M  V30 70 H 39.645056 24.405055 55.249872 0
M  V30 71 H 40.027152 25.337817 57.599679 0
M  V30 72 H 37.059102 30.537716 56.446411 0
M  V30 73 H 37.537629 23.772166 56.876343 0
M  V30 74 H 38.987416 23.276792 57.767763 0
M  V30 75 H 37.766551 24.252707 58.545327 0
M  V30 76 H 39.550260 30.014332 58.999417 0
M  V30 77 H 38.410529 28.972980 59.796885 0
M  V30 78 H 37.827327 30.615889 61.488470 0
M  V30 79 H 35.895829 31.019504 58.756371 0
M  V30 END ATOM
M  V30 BEGIN BOND
M  V30 1 1 7 3
M  V30 2 1 11 5
M  V30 3 1 13 1
M  V30 4 1 13 4
M  V30 5 2 14 10
M  V30 6 1 14 11
M  V30 7 1 15 12
M  V30 8 1 16 8
M  V30 9 1 16 15
M  V30 10 1 17 3
M  V30 11 1 19 5
M  V30 12 1 19 11
M  V30 13 1 21 2
M  V30 14 1 21 16
M  V30 15 2 22 13
M  V30 16 1 23 22
M  V30 17 1 24 2
M  V30 18 1 24 6
M  V30 19 2 24 8
M  V30 20 1 25 9
M  V30 21 2 25 15
M  V30 22 1 26 12
M  V30 23 1 27 14
M  V30 24 1 27 20
M  V30 25 1 28 18
M  V30 26 1 29 1
M  V30 27 1 29 20
M  V30 28 1 29 27
M  V30 29 1 31 17
M  V30 30 1 31 30
M  V30 31 1 32 7
M  V30 32 1 32 25
M  V30 33 1 32 26
M  V30 34 1 33 31
M  V30 35 1 34 7
M  V30 36 1 34 28
M  V30 37 1 35 23
M  V30 38 1 35 28
M  V30 39 1 36 8
M  V30 40 2 36 9
M  V30 41 1 37 1
M  V30 42 1 38 1
M  V30 43 1 39 2
M  V30 44 1 40 2
M  V30 45 1 41 3
M  V30 46 1 42 3
M  V30 47 1 43 4
M  V30 48 1 44 4
M  V30 49 1 45 4
M  V30 50 1 46 5
M  V30 51 1 47 5
M  V30 52 1 48 6
M  V30 53 1 49 6
M  V30 54 1 50 6
M  V30 55 1 7 51 CFG=1
M  V30 56 1 52 9
M  V30 57 1 53 11
M  V30 58 1 54 12
M  V30 59 1 55 12
M  V30 60 1 56 17
M  V30 61 1 57 17
M  V30 62 1 58 19
M  V30 63 1 59 19
M  V30 64 1 60 20
M  V30 65 1 61 21
M  V30 66 1 62 23
M  V30 67 1 63 23
M  V30 68 1 64 26
M  V30 69 1 65 26
M  V30 70 1 28 66 CFG=3
M  V30 71 1 29 67 CFG=3
M  V30 72 1 68 30
M  V30 73 1 69 30
M  V30 74 1 70 30
M  V30 75 1 71 31
M  V30 76 1 32 72 CFG=3
M  V30 77 1 73 33
M  V30 78 1 74 33
M  V30 79 1 75 33
M  V30 80 1 76 34
M  V30 81 1 77 34
M  V30 82 1 78 35
M  V30 83 1 79 18
M  V30 END BOND
M  V30 END CTAB
M  END
>  <i_epik_Tot_Q>  (1) 
0

>  <i_epik_Tot_abs_Q>  (1) 
0

>  <i_i_glide_confnum>  (1) 
4382

>  <i_i_glide_lignum>  (1) 
135

>  <i_i_glide_posenum>  (1) 
129

>  <i_i_glide_rotatable_bonds>  (1) 
14

>  <i_lp_mmshare_version>  (1) 
72125

>  <i_m_source_file_index>  (1) 
63

>  <i_f3d_flags>  (1) 
0

>  <num_sample>  (1) 
100

>  <b_lp_Chiralities_Consistent>  (1) 
1

>  <r_epik_Charging_Adjusted_Penalty>  (1) 
0.66759273229091232

>  <r_epik_Ionization_Penalty>  (1) 
2.307606927441598

>  <r_epik_Ionization_Penalty_Charging>  (1) 
0

>  <r_epik_Ionization_Penalty_Neutral>  (1) 
2.307606927441598

>  <r_epik_State_Penalty>  (1) 
0.66759273229091232

>  <r_glide_ring_energy>  (1) 
0

>  <r_i_docking_score>  (1) 
-7.1033385096326809

>  <r_i_glide_ecoul>  (1) 
-2.7905208381404076

>  <r_i_glide_eff_state_penalty>  (1) 
0.66759273229091232

>  <r_i_glide_einternal>  (1) 
41.226090765732401

>  <r_i_glide_emodel>  (1) 
-56.838966846624558

>  <r_i_glide_emodel_strain>  (1) 
4.7880313557344323

>  <r_i_glide_energy>  (1) 
-55.519825426755084

>  <r_i_glide_erotb>  (1) 
0.98835574197518972

>  <r_i_glide_esite>  (1) 
-0.073042529856025148

>  <r_i_glide_evdw>  (1) 
-52.729304588614674

>  <r_i_glide_gscore>  (1) 
-7.7709312419235932

>  <r_i_glide_gscore_strain>  (1) 
0.19700783893360807

>  <r_i_glide_hbond>  (1) 
-0.14292528452496164

>  <r_i_glide_ligand_efficiency>  (1) 
-0.19731495860090781

>  <r_i_glide_ligand_efficiency_ln>  (1) 
-1.5497565527732573

>  <r_i_glide_ligand_efficiency_sa>  (1) 
-0.65151963841885274

>  <r_i_glide_lipo>  (1) 
-4.0441539186326079

>  <r_i_glide_metal>  (1) 
-0

>  <r_i_glide_rewards>  (1) 
-1.6411297346670015

>  <r_lp_Energy>  (1) 
30.718252999999997

>  <r_lp_tautomer_probability>  (1) 
0.49999399997599986

>  <s_epik_Chemistry_Notes>  (1) 
This compound has an imine and may undergo hydrolysis. This compound contains an acetal/aminal-like group ( X-CH(R)-Y where X, Y are N, S, or O) that may be acid/base labile, releasing an aldehyde.

>  <s_epik_cmdline>  (1) 
J2VwaWtfcHl0aG9uJywgJy1waHQnLCAnMS4wJywgJy1waCcsICc3LjQnLCAnLXRuJywgJzgnLCAnLW1hJywgJzUwMCcsICctaW1hZScsICc8aW5maWxlLm1hZT4nLCAnLW9tYWUnLCAnPG91dGZpbGUubWFlPic=

>  <s_epik_input>  (1) 
W0NIMl0xW0NIMl1bQ0hdMUMoPU8pTjJbTkhdW0NAQEhdMltDSDJdL0MoW0NIM10pPU5cW0NIMl1bTkhdW0NASF0oW09IXSlbQ0gyXVtDQEhdKFtDSDJdW0NIMl1bQ0hdKFtDSDNdKVtDSDNdKVtDQEBIXShbQ0gyXVtDSDJdMylDKFtDSF09TjQpPUMzTihDND01KVtOSF1bQ0gyXUM1W0NIM10=

>  <s_glide_docking_method>  (1) 
confgen

>  <s_i_glide_gridfile>  (1) 
gpcr_5ht2c_6bqh_protein_autoprepared_prepared

>  <s_lp_Force_Field>  (1) 
S-OPLS

>  <s_lp_Variant>  (1) 
DiffSBDD_62-1

>  <s_m_source_file>  (1) 
generated_GPCR_5HT2C_ligand_DiffSBDD_2026-06-23_prepared.sdf

>  <GenAI_Model>  (1) 
DiffSBDD

>  <Protein>  (1) 
GPCR_5HT2C

$$$$
DiffSBDD_62
     RDKit          3D

  0  0  0  0  0  0  0  0  0  0999 V3000
M  V30 BEGIN CTAB
M  V30 COUNTS 80 84 0 0 1
M  V30 BEGIN ATOM
M  V30 1 C 38.599037 29.915109 53.717335 0
M  V30 2 C 42.579884 32.011437 66.383242 0
M  V30 3 C 38.079866 35.706754 60.616366 0
M  V30 4 C 40.391383 30.491034 55.367751 0
M  V30 5 C 38.731423 24.753091 55.798726 0
M  V30 6 C 42.461328 29.606819 65.315878 0
M  V30 7 C 38.741059 34.328211 60.896897 0 CFG=2
M  V30 8 C 41.715366 31.742492 64.261932 0
M  V30 9 C 40.782121 32.065967 62.126166 0
M  V30 10 O 39.432395 27.105514 54.132017 0
M  V30 11 C 37.969825 26.056081 55.708176 0
M  V30 12 C 41.106682 35.368330 63.851803 0
M  V30 13 C 38.949517 30.493313 55.060926 0
M  V30 14 C 38.295607 26.992264 54.590325 0
M  V30 15 C 41.143790 33.927090 63.557999 0
M  V30 16 N 41.636148 33.047719 64.490511 0
M  V30 17 C 37.149306 36.215502 61.732727 0
M  V30 18 O 36.423070 33.720538 58.967811 0
M  V30 19 C 39.017115 25.855819 56.787282 0
M  V30 20 N 37.245128 28.137756 52.786397 0
M  V30 21 N 42.150494 33.448695 65.803866 0
M  V30 22 N 38.071467 30.938546 55.875024 0
M  V30 23 C 38.435301 31.341844 57.232191 0
M  V30 24 C 42.217632 31.101021 65.233196 0
M  V30 25 C 40.717867 33.519804 62.419822 0
M  V30 26 C 40.542557 35.784467 62.406257 0
M  V30 27 N 37.245143 27.726157 54.167833 0
M  V30 28 C 37.517534 32.837376 59.036521 0 CFG=2
M  V30 29 C 37.308432 29.132047 53.766541 0 CFG=1
M  V30 30 C 37.705151 38.650502 61.111995 0
M  V30 31 C 36.605049 37.645001 61.493130 0
M  V30 32 C 40.198983 34.518961 61.440224 0 CFG=2
M  V30 33 C 35.830083 38.137395 62.727442 0
M  V30 34 C 38.800900 33.507995 59.569326 0
M  V30 35 N 37.645138 32.520706 57.598237 0 CHG=1
M  V30 36 N 41.251026 31.229336 62.999756 0
M  V30 37 H 38.489605 30.749534 53.038848 0
M  V30 38 H 39.417888 29.336230 53.296025 0
M  V30 39 H 42.005358 31.769144 67.277380 0
M  V30 40 H 43.646762 31.986881 66.605225 0
M  V30 41 H 38.863638 36.427706 60.417667 0
M  V30 42 H 37.513811 35.719140 59.690074 0
M  V30 43 H 41.003679 30.137771 54.546887 0
M  V30 44 H 40.699532 31.515834 55.567575 0
M  V30 45 H 40.445135 29.816900 56.222356 0
M  V30 46 H 38.169729 23.887774 56.143825 0
M  V30 47 H 39.493007 24.540572 55.050415 0
M  V30 48 H 43.517883 29.409665 65.496276 0
M  V30 49 H 41.887816 29.178313 66.137787 0
M  V30 50 H 42.173678 29.095795 64.396229 0
M  V30 51 H 38.146462 33.782345 61.631198 0
M  V30 52 H 40.424158 31.747940 61.150898 0
M  V30 53 H 36.928895 26.036104 56.030010 0
M  V30 54 H 40.413422 35.597620 64.661242 0
M  V30 55 H 42.094829 35.781393 64.059809 0
M  V30 56 H 36.320324 35.515549 61.833437 0
M  V30 57 H 37.653159 36.178431 62.696188 0
M  V30 58 H 39.970448 26.374381 56.693660 0
M  V30 59 H 38.657049 25.734790 57.807839 0
M  V30 60 H 38.089834 27.906392 52.280522 0
M  V30 61 H 42.971319 34.032688 65.662620 0
M  V30 62 H 39.477928 31.613621 57.367727 0
M  V30 63 H 38.213493 30.525291 57.920887 0
M  V30 64 H 41.318969 36.371000 61.911667 0
M  V30 65 H 39.730243 36.489845 62.532800 0
M  V30 66 H 37.238120 31.962180 59.624809 0
M  V30 67 H 36.445153 29.737139 54.010756 0
M  V30 68 H 38.579689 38.537776 61.753190 0
M  V30 69 H 38.032594 38.505518 60.082466 0
M  V30 70 H 37.347751 39.678902 61.183710 0
M  V30 71 H 35.915477 37.619625 60.648485 0
M  V30 72 H 40.845203 34.602091 60.577511 0
M  V30 73 H 36.471707 38.137768 63.605991 0
M  V30 74 H 35.447367 39.147642 62.580165 0
M  V30 75 H 34.982587 37.497305 62.967931 0
M  V30 76 H 39.537774 32.720567 59.640993 0
M  V30 77 H 39.210489 34.137738 58.792613 0
M  V30 78 H 36.688168 32.285009 57.286988 0
M  V30 79 H 37.938729 33.332291 57.077609 0
M  V30 80 H 35.625077 33.239807 59.139469 0
M  V30 END ATOM
M  V30 BEGIN BOND
M  V30 1 1 7 3
M  V30 2 1 11 5
M  V30 3 1 13 1
M  V30 4 1 13 4
M  V30 5 2 14 10
M  V30 6 1 14 11
M  V30 7 1 15 12
M  V30 8 1 16 8
M  V30 9 1 16 15
M  V30 10 1 17 3
M  V30 11 1 19 5
M  V30 12 1 19 11
M  V30 13 1 21 2
M  V30 14 1 21 16
M  V30 15 2 22 13
M  V30 16 1 23 22
M  V30 17 1 24 2
M  V30 18 1 24 6
M  V30 19 2 24 8
M  V30 20 1 25 9
M  V30 21 2 25 15
M  V30 22 1 26 12
M  V30 23 1 27 14
M  V30 24 1 27 20
M  V30 25 1 28 18
M  V30 26 1 29 1
M  V30 27 1 29 20
M  V30 28 1 29 27
M  V30 29 1 31 17
M  V30 30 1 31 30
M  V30 31 1 32 7
M  V30 32 1 32 25
M  V30 33 1 32 26
M  V30 34 1 33 31
M  V30 35 1 34 7
M  V30 36 1 34 28
M  V30 37 1 35 23
M  V30 38 1 35 28
M  V30 39 1 36 8
M  V30 40 2 36 9
M  V30 41 1 37 1
M  V30 42 1 38 1
M  V30 43 1 39 2
M  V30 44 1 40 2
M  V30 45 1 41 3
M  V30 46 1 42 3
M  V30 47 1 43 4
M  V30 48 1 44 4
M  V30 49 1 45 4
M  V30 50 1 46 5
M  V30 51 1 47 5
M  V30 52 1 48 6
M  V30 53 1 49 6
M  V30 54 1 50 6
M  V30 55 1 7 51 CFG=1
M  V30 56 1 52 9
M  V30 57 1 53 11
M  V30 58 1 54 12
M  V30 59 1 55 12
M  V30 60 1 56 17
M  V30 61 1 57 17
M  V30 62 1 58 19
M  V30 63 1 59 19
M  V30 64 1 60 20
M  V30 65 1 61 21
M  V30 66 1 62 23
M  V30 67 1 63 23
M  V30 68 1 64 26
M  V30 69 1 65 26
M  V30 70 1 28 66 CFG=1
M  V30 71 1 29 67 CFG=1
M  V30 72 1 68 30
M  V30 73 1 69 30
M  V30 74 1 70 30
M  V30 75 1 71 31
M  V30 76 1 32 72 CFG=3
M  V30 77 1 73 33
M  V30 78 1 74 33
M  V30 79 1 75 33
M  V30 80 1 76 34
M  V30 81 1 77 34
M  V30 82 1 78 35
M  V30 83 1 79 35
M  V30 84 1 80 18
M  V30 END BOND
M  V30 END CTAB
M  END
>  <i_epik_Tot_Q>  (1) 
1

>  <i_epik_Tot_abs_Q>  (1) 
1

>  <i_i_glide_confnum>  (1) 
401

>  <i_i_glide_lignum>  (1) 
138

>  <i_i_glide_posenum>  (1) 
365

>  <i_i_glide_rotatable_bonds>  (1) 
14

>  <i_lp_mmshare_version>  (1) 
72125

>  <i_m_source_file_index>  (1) 
63

>  <i_f3d_flags>  (1) 
0

>  <num_sample>  (1) 
100

>  <b_lp_Chiralities_Consistent>  (1) 
1

>  <r_epik_Charging_Adjusted_Penalty>  (1) 
1.9108014557952604

>  <r_epik_Ionization_Penalty>  (1) 
0.8812751426241725

>  <r_epik_Ionization_Penalty_Charging>  (1) 
0.72483633588800112

>  <r_epik_Ionization_Penalty_Neutral>  (1) 
0.15643880673617139

>  <r_epik_State_Penalty>  (1) 
1.1859651199072592

>  <r_glide_ring_energy>  (1) 
0

>  <r_i_docking_score>  (1) 
-7.087443431864731

>  <r_i_glide_ecoul>  (1) 
-4.80342234342171

>  <r_i_glide_eff_state_penalty>  (1) 
1.1859651199072592

>  <r_i_glide_einternal>  (1) 
24.283207067646991

>  <r_i_glide_emodel>  (1) 
-64.069331339476818

>  <r_i_glide_emodel_strain>  (1) 
1.3788896377827768

>  <r_i_glide_energy>  (1) 
-46.955359540412296

>  <r_i_glide_erotb>  (1) 
0.98469743448682379

>  <r_i_glide_esite>  (1) 
-0.24296876509031923

>  <r_i_glide_evdw>  (1) 
-42.151937196990588

>  <r_i_glide_gscore>  (1) 
-8.2734085517719897

>  <r_i_glide_gscore_strain>  (1) 
0

>  <r_i_glide_hbond>  (1) 
-0.16563605804129039

>  <r_i_glide_ligand_efficiency>  (1) 
-0.19687342866290919

>  <r_i_glide_ligand_efficiency_ln>  (1) 
-1.5462886762396646

>  <r_i_glide_ligand_efficiency_sa>  (1) 
-0.65006173868537243

>  <r_i_glide_lipo>  (1) 
-3.8607356332842899

>  <r_i_glide_metal>  (1) 
-0

>  <r_i_glide_rewards>  (1) 
-2.1606553184801287

>  <r_lp_Energy>  (1) 
41.955964999999999

>  <r_lp_tautomer_probability>  (1) 
0.49999399997599986

>  <s_epik_Chemistry_Notes>  (1) 
This compound has an imine and may undergo hydrolysis. This compound contains an acetal/aminal-like group ( X-CH(R)-Y where X, Y are N, S, or O) that may be acid/base labile, releasing an aldehyde.

>  <s_epik_cmdline>  (1) 
J2VwaWtfcHl0aG9uJywgJy1waHQnLCAnMS4wJywgJy1waCcsICc3LjQnLCAnLXRuJywgJzgnLCAnLW1hJywgJzUwMCcsICctaW1hZScsICc8aW5maWxlLm1hZT4nLCAnLW9tYWUnLCAnPG91dGZpbGUubWFlPic=

>  <s_epik_input>  (1) 
W0NIMl0xW0NIMl1bQ0hdMUMoPU8pTjJbTkhdW0NAQEhdMltDSDJdL0MoW0NIM10pPU4vW0NIMl1bTkhdW0NASF0oW09IXSlbQ0gyXVtDQEhdKFtDSDJdW0NIMl1bQ0hdKFtDSDNdKVtDSDNdKVtDQEBIXShbQ0gyXVtDSDJdMylDKFtDSF09TjQpPUMzTihDND01KVtOSF1bQ0gyXUM1W0NIM10=

>  <s_glide_docking_method>  (1) 
confgen

>  <s_i_glide_gridfile>  (1) 
gpcr_5ht2c_6bqh_protein_autoprepared_prepared

>  <s_lp_Force_Field>  (1) 
S-OPLS

>  <s_lp_Variant>  (1) 
DiffSBDD_62-4

>  <s_m_source_file>  (1) 
generated_GPCR_5HT2C_ligand_DiffSBDD_2026-06-23_prepared.sdf

>  <GenAI_Model>  (1) 
DiffSBDD

>  <Protein>  (1) 
GPCR_5HT2C

$$$$
DiffSBDD_75
     RDKit          3D

  0  0  0  0  0  0  0  0  0  0999 V3000
M  V30 BEGIN CTAB
M  V30 COUNTS 76 77 0 0 1
M  V30 BEGIN ATOM
M  V30 1 C 38.245283 33.923388 61.172767 0
M  V30 2 C 35.133147 34.052571 59.141502 0
M  V30 3 O 36.870833 29.737764 57.373812 0
M  V30 4 C 38.851349 37.756365 61.674531 0
M  V30 5 C 38.929050 30.034488 55.211732 0 CFG=2
M  V30 6 C 41.292067 34.878772 65.672082 0
M  V30 7 C 38.160638 30.161816 57.767899 0 CFG=2
M  V30 8 C 41.632950 33.691377 66.352489 0
M  V30 9 O 37.245139 28.937760 53.856727 0
M  V30 10 C 40.015987 28.507172 56.934031 0 CFG=2
M  V30 11 O 40.544300 34.537753 69.767396 0
M  V30 12 S 37.227326 31.804045 59.793630 0
M  V30 13 C 38.238877 38.972332 60.951021 0
M  V30 14 C 40.782828 34.644004 68.431900 0
M  V30 15 C 38.101118 31.633101 58.213823 0
M  V30 16 C 41.548255 35.004935 64.184819 0
M  V30 17 C 40.696605 35.946720 66.375326 0
M  V30 18 O 39.745014 26.092284 56.719556 0
M  V30 19 C 40.636241 28.335403 58.338231 0
M  V30 20 C 39.285226 29.866481 56.719663 0 CFG=1
M  V30 21 O 39.127698 40.077528 60.967754 0
M  V30 22 O 36.041799 34.211945 60.222613 0
M  V30 23 O 41.351567 35.303709 61.367759 0
M  V30 24 C 37.082271 36.352251 62.515660 0
M  V30 25 N 38.094370 36.509324 61.468523 0
M  V30 26 C 40.272552 35.202043 61.943168 0
M  V30 27 C 41.378189 33.574753 67.732622 0
M  V30 28 C 40.204662 34.970414 63.443737 0
M  V30 29 C 38.936687 35.315637 61.182739 0 CFG=1
M  V30 30 C 40.440977 35.827642 67.752412 0
M  V30 31 C 38.711115 27.426168 55.028963 0
M  V30 32 C 37.307419 33.610715 59.992785 0 CFG=1
M  V30 33 C 38.255731 31.373976 54.849703 0
M  V30 34 C 39.098891 27.336014 56.516286 0 CFG=2
M  V30 35 C 38.193777 28.811129 54.628304 0
M  V30 36 H 39.041305 33.177263 61.125599 0
M  V30 37 H 37.743245 33.711130 62.114698 0
M  V30 38 H 34.187679 34.537752 59.367532 0
M  V30 39 H 35.527627 34.479154 58.219878 0
M  V30 40 H 34.895387 33.004014 58.967776 0
M  V30 41 H 36.322604 30.503935 57.182696 0
M  V30 42 H 38.973827 37.935191 62.739234 0
M  V30 43 H 39.887603 37.665224 61.367758 0
M  V30 44 H 38.375549 29.593446 58.669854 0
M  V30 45 H 42.086192 32.869775 65.816393 0
M  V30 46 H 39.576215 27.206198 54.403139 0
M  V30 47 H 40.866188 28.505054 56.249527 0
M  V30 48 H 40.864658 33.728792 70.134342 0
M  V30 49 H 38.041229 38.720514 59.908170 0
M  V30 50 H 37.280083 39.255914 61.385499 0
M  V30 51 H 37.639642 32.265263 57.456577 0
M  V30 52 H 39.103824 32.028683 58.370119 0
M  V30 53 H 42.079712 35.938880 63.993220 0
M  V30 54 H 42.196593 34.197540 63.841301 0
M  V30 55 H 40.433607 36.856331 65.855354 0
M  V30 56 H 40.604067 26.116378 56.323283 0
M  V30 57 H 39.890682 28.095312 59.095509 0
M  V30 58 H 41.361381 27.520635 58.347419 0
M  V30 59 H 41.164591 29.234899 58.653759 0
M  V30 60 H 40.045128 30.620267 56.905274 0
M  V30 61 H 39.886500 39.864032 60.440582 0
M  V30 62 H 36.456067 37.242355 62.582138 0
M  V30 63 H 36.406986 35.524996 62.310426 0
M  V30 64 H 37.527913 36.199768 63.495546 0
M  V30 65 H 41.639471 32.666203 68.253535 0
M  V30 66 H 39.723760 34.006368 63.605878 0
M  V30 67 H 39.558257 35.737819 63.864450 0
M  V30 68 H 39.259439 35.461072 60.155953 0
M  V30 69 H 39.984386 36.646042 68.289852 0
M  V30 70 H 37.951861 26.679741 54.791240 0
M  V30 71 H 39.882699 30.039484 54.682586 0
M  V30 72 H 37.731826 34.039512 59.083627 0
M  V30 73 H 38.181702 31.496977 53.768710 0
M  V30 74 H 37.245162 31.445734 55.252337 0
M  V30 75 H 38.830048 32.219076 55.227460 0
M  V30 76 H 38.194949 27.335037 57.127126 0
M  V30 END ATOM
M  V30 BEGIN BOND
M  V30 1 1 7 3
M  V30 2 1 8 6
M  V30 3 1 13 4
M  V30 4 1 14 11
M  V30 5 1 15 7
M  V30 6 1 15 12
M  V30 7 1 16 6
M  V30 8 2 17 6
M  V30 9 1 19 10
M  V30 10 1 20 5
M  V30 11 1 20 7
M  V30 12 1 20 10
M  V30 13 1 21 13
M  V30 14 1 22 2
M  V30 15 1 25 4
M  V30 16 1 25 24
M  V30 17 2 26 23
M  V30 18 2 27 8
M  V30 19 1 27 14
M  V30 20 1 28 16
M  V30 21 1 28 26
M  V30 22 1 29 1
M  V30 23 1 29 25
M  V30 24 1 29 26
M  V30 25 2 30 14
M  V30 26 1 30 17
M  V30 27 1 32 1
M  V30 28 1 32 12
M  V30 29 1 32 22
M  V30 30 1 33 5
M  V30 31 1 34 10
M  V30 32 1 34 18
M  V30 33 1 34 31
M  V30 34 1 35 5
M  V30 35 2 35 9
M  V30 36 1 35 31
M  V30 37 1 36 1
M  V30 38 1 37 1
M  V30 39 1 38 2
M  V30 40 1 39 2
M  V30 41 1 40 2
M  V30 42 1 41 3
M  V30 43 1 42 4
M  V30 44 1 43 4
M  V30 45 1 7 44 CFG=1
M  V30 46 1 45 8
M  V30 47 1 46 31
M  V30 48 1 10 47 CFG=3
M  V30 49 1 48 11
M  V30 50 1 49 13
M  V30 51 1 50 13
M  V30 52 1 51 15
M  V30 53 1 52 15
M  V30 54 1 53 16
M  V30 55 1 54 16
M  V30 56 1 55 17
M  V30 57 1 56 18
M  V30 58 1 57 19
M  V30 59 1 58 19
M  V30 60 1 59 19
M  V30 61 1 20 60 CFG=1
M  V30 62 1 61 21
M  V30 63 1 62 24
M  V30 64 1 63 24
M  V30 65 1 64 24
M  V30 66 1 65 27
M  V30 67 1 66 28
M  V30 68 1 67 28
M  V30 69 1 29 68 CFG=3
M  V30 70 1 69 30
M  V30 71 1 70 31
M  V30 72 1 5 71 CFG=3
M  V30 73 1 32 72 CFG=3
M  V30 74 1 73 33
M  V30 75 1 74 33
M  V30 76 1 75 33
M  V30 77 1 34 76 CFG=1
M  V30 END BOND
M  V30 END CTAB
M  END
>  <i_epik_Tot_Q>  (1) 
0

>  <i_epik_Tot_abs_Q>  (1) 
0

>  <i_i_glide_confnum>  (1) 
4880

>  <i_i_glide_lignum>  (1) 
173

>  <i_i_glide_posenum>  (1) 
178

>  <i_i_glide_rotatable_bonds>  (1) 
18

>  <i_lp_mmshare_version>  (1) 
72125

>  <i_m_source_file_index>  (1) 
76

>  <i_f3d_flags>  (1) 
0

>  <num_sample>  (1) 
100

>  <b_lp_Chiralities_Consistent>  (1) 
1

>  <r_epik_Charging_Adjusted_Penalty>  (1) 
0.60615279515584763

>  <r_epik_Ionization_Penalty>  (1) 
0.6077244911787385

>  <r_epik_Ionization_Penalty_Charging>  (1) 
0

>  <r_epik_Ionization_Penalty_Neutral>  (1) 
0.6077244911787385

>  <r_epik_State_Penalty>  (1) 
0.60615279515584763

>  <r_glide_ring_energy>  (1) 
0

>  <r_i_docking_score>  (1) 
-7.0867157750725616

>  <r_i_glide_ecoul>  (1) 
-12.645681816099474

>  <r_i_glide_eff_state_penalty>  (1) 
0.60615279515584763

>  <r_i_glide_einternal>  (1) 
14.367599176268424

>  <r_i_glide_emodel>  (1) 
-74.200737845880639

>  <r_i_glide_emodel_strain>  (1) 
3.7602282806079472

>  <r_i_glide_energy>  (1) 
-59.445227767615975

>  <r_i_glide_erotb>  (1) 
1.0176109525924779

>  <r_i_glide_esite>  (1) 
0

>  <r_i_glide_evdw>  (1) 
-46.7995459515165

>  <r_i_glide_gscore>  (1) 
-7.6928685702284092

>  <r_i_glide_gscore_strain>  (1) 
0

>  <r_i_glide_hbond>  (1) 
-0.45599999999999996

>  <r_i_glide_ligand_efficiency>  (1) 
-0.20247759357350176

>  <r_i_glide_ligand_efficiency_ln>  (1) 
-1.5556913938109691

>  <r_i_glide_ligand_efficiency_sa>  (1) 
-0.66231763490633944

>  <r_i_glide_lipo>  (1) 
-3.0569347161612819

>  <r_i_glide_metal>  (1) 
-0

>  <r_i_glide_rewards>  (1) 
-0.96071523666886027

>  <r_lp_Energy>  (1) 
28.00357

>  <r_lp_tautomer_probability>  (1) 
0.99999993999736703

>  <s_epik_Chemistry_Notes>  (1) 
This compound contains an acetal/aminal-like group ( X-CH(R)-Y where X, Y are N, S, or O) that may be acid/base labile, releasing an aldehyde.

>  <s_epik_cmdline>  (1) 
J2VwaWtfcHl0aG9uJywgJy1waHQnLCAnMS4wJywgJy1waCcsICc3LjQnLCAnLXRuJywgJzgnLCAnLW1hJywgJzUwMCcsICctaW1hZScsICc8aW5maWxlLm1hZT4nLCAnLW9tYWUnLCAnPG91dGZpbGUubWFlPic=

>  <s_epik_input>  (1) 
W2NIXTFbY0hdYyhbT0hdKVtjSF1bY0hdYzFbQ0gyXVtDSDJdQyg9TylbQ0BIXShOKFtDSDNdKVtDSDJdW0NIMl1bT0hdKVtDSDJdW0NASF0oT1tDSDNdKVNbQ0gyXVtDQEBIXShbT0hdKVtDQEhdMltDQEBIXShbQ0gzXSlbQ0BIXShbT0hdKVtDSDJdQyhbT0hdKT1DMltDSDNd

>  <s_glide_docking_method>  (1) 
confgen

>  <s_i_glide_gridfile>  (1) 
gpcr_5ht2c_6bqh_protein_autoprepared_prepared

>  <s_lp_Force_Field>  (1) 
S-OPLS

>  <s_lp_Variant>  (1) 
DiffSBDD_75-10

>  <s_m_source_file>  (1) 
generated_GPCR_5HT2C_ligand_DiffSBDD_2026-06-23_prepared.sdf

>  <GenAI_Model>  (1) 
DiffSBDD

>  <Protein>  (1) 
GPCR_5HT2C

$$$$
DiffSBDD_53
     RDKit          3D

  0  0  0  0  0  0  0  0  0  0999 V3000
M  V30 BEGIN CTAB
M  V30 COUNTS 82 86 0 0 1
M  V30 BEGIN ATOM
M  V30 1 C 39.610133 27.381682 58.794431 0
M  V30 2 C 36.673895 32.976287 61.496425 0
M  V30 3 C 41.003132 33.377033 65.094904 0
M  V30 4 C 40.728012 27.743105 59.772884 0
M  V30 5 C 39.991742 33.781570 62.127444 0
M  V30 6 C 37.406139 26.130032 54.100419 0
M  V30 7 C 39.363003 29.906452 55.156656 0
M  V30 8 N 40.104970 27.558519 57.419466 0 CHG=1
M  V30 9 N 40.445627 36.537565 66.251663 0 CHG=1
M  V30 10 C 36.940851 33.800032 58.682335 0
M  V30 11 C 39.077664 27.478078 56.366118 0 CFG=1
M  V30 12 N 40.845136 29.181034 59.878698 0
M  V30 13 C 39.954075 32.676551 62.892611 0
M  V30 14 C 39.060656 33.888623 60.930847 0
M  V30 15 C 38.603112 28.863548 55.940031 0 CFG=1
M  V30 16 C 38.599358 31.457237 61.321876 0 CFG=1
M  V30 17 C 39.649293 26.670409 55.194576 0 CFG=2
M  V30 18 C 41.527617 35.544596 66.142231 0
M  V30 19 O 37.721788 29.442060 56.883743 0
M  V30 20 C 40.035779 29.743495 60.900001 0
M  V30 21 C 35.837659 34.137737 60.943629 0
M  V30 22 C 35.614380 34.010729 59.426075 0
M  V30 23 C 38.013337 32.759119 60.751612 0
M  V30 24 O 39.597395 30.985951 60.491971 0
M  V30 25 C 37.688778 32.578581 59.244942 0
M  V30 26 C 38.788752 26.773244 53.921249 0 CFG=2
M  V30 27 O 39.727848 25.337724 55.644018 0
M  V30 28 C 41.481604 35.281863 63.582071 0
M  V30 29 N 38.706136 28.192652 53.470695 0 CFG=1 CHG=1
M  V30 30 O 39.084055 31.649569 62.612742 0
M  V30 31 C 38.045535 28.360071 52.155305 0
M  V30 32 C 38.212280 29.154895 54.500141 0 CFG=2
M  V30 33 C 40.915747 34.902295 62.391642 0
M  V30 34 C 40.856160 32.367122 64.026286 0
M  V30 35 C 41.316589 34.670963 64.916829 0
M  V30 36 H 38.715852 27.980839 58.976234 0
M  V30 37 H 39.325500 26.336736 58.926828 0
M  V30 38 H 36.059340 32.080717 61.393997 0
M  V30 39 H 36.845123 33.076855 62.565349 0
M  V30 40 H 40.901356 33.001044 66.103048 0
M  V30 41 H 40.526508 27.337874 60.765424 0
M  V30 42 H 41.683342 27.337854 59.432722 0
M  V30 43 H 37.474697 25.085896 54.406293 0
M  V30 44 H 36.840572 26.658469 54.861872 0
M  V30 45 H 36.845155 26.138630 53.170658 0
M  V30 46 H 39.195342 30.952177 55.413041 0
M  V30 47 H 40.386526 29.670380 54.873416 0
M  V30 48 H 40.766090 26.810756 57.249967 0
M  V30 49 H 40.502055 37.001262 67.147092 0
M  V30 50 H 40.585098 37.223380 65.517170 0
M  V30 51 H 37.556280 34.694176 58.769648 0
M  V30 52 H 36.764550 33.673743 57.615166 0
M  V30 53 H 38.208067 26.941861 56.754131 0
M  V30 54 H 40.685323 29.650640 59.001265 0
M  V30 55 H 38.578401 34.865471 60.952760 0
M  V30 56 H 39.715904 33.908323 60.059036 0
M  V30 57 H 37.815313 30.699585 61.378342 0
M  V30 58 H 40.665097 26.987666 54.967882 0
M  V30 59 H 41.555659 34.944803 67.052444 0
M  V30 60 H 42.483797 36.063880 66.069899 0
M  V30 61 H 37.338433 30.246823 56.552901 0
M  V30 62 H 39.172287 29.100241 61.083709 0
M  V30 63 H 40.600816 29.821341 61.831228 0
M  V30 64 H 36.316933 35.089027 61.173132 0
M  V30 65 H 34.873664 34.137779 61.452242 0
M  V30 66 H 35.110140 34.898395 59.044027 0
M  V30 67 H 34.950319 33.169413 59.222672 0
M  V30 68 H 38.599082 32.419656 58.665466 0
M  V30 69 H 37.077926 31.686760 59.093285 0
M  V30 70 H 39.312785 26.221426 53.139278 0
M  V30 71 H 40.046748 24.776948 54.950717 0
M  V30 72 H 42.077571 36.183028 63.548294 0
M  V30 73 H 36.960638 28.278994 52.234443 0
M  V30 74 H 38.284038 29.337685 51.739931 0
M  V30 75 H 38.388744 27.613271 51.436902 0
M  V30 76 H 37.274207 29.664186 54.280480 0
M  V30 77 H 41.127626 35.545363 61.548817 0
M  V30 78 H 40.506531 31.446507 64.496044 0
M  V30 79 H 41.846411 32.138824 63.630249 0
M  V30 80 H 39.661213 28.465825 53.293769 0
M  V30 81 H 40.585773 28.441685 57.344124 0
M  V30 82 H 39.543969 36.095394 66.148905 0
M  V30 END ATOM
M  V30 BEGIN BOND
M  V30 1 1 4 1
M  V30 2 1 8 1
M  V30 3 1 11 8
M  V30 4 1 12 4
M  V30 5 2 13 5
M  V30 6 1 14 5
M  V30 7 1 15 7
M  V30 8 1 15 11
M  V30 9 1 17 11
M  V30 10 1 18 9
M  V30 11 1 15 19 CFG=1
M  V30 12 1 20 12
M  V30 13 1 21 2
M  V30 14 1 22 10
M  V30 15 1 22 21
M  V30 16 1 23 2
M  V30 17 1 23 14
M  V30 18 1 23 16
M  V30 19 1 24 16
M  V30 20 1 24 20
M  V30 21 1 25 10
M  V30 22 1 25 23
M  V30 23 1 26 6
M  V30 24 1 26 17
M  V30 25 1 27 17
M  V30 26 1 29 26
M  V30 27 1 30 13
M  V30 28 1 30 16
M  V30 29 1 31 29
M  V30 30 1 32 7
M  V30 31 1 32 15
M  V30 32 1 32 29
M  V30 33 1 33 5
M  V30 34 2 33 28
M  V30 35 1 34 3
M  V30 36 1 34 13
M  V30 37 2 35 3
M  V30 38 1 35 18
M  V30 39 1 35 28
M  V30 40 1 36 1
M  V30 41 1 37 1
M  V30 42 1 38 2
M  V30 43 1 39 2
M  V30 44 1 40 3
M  V30 45 1 41 4
M  V30 46 1 42 4
M  V30 47 1 43 6
M  V30 48 1 44 6
M  V30 49 1 45 6
M  V30 50 1 46 7
M  V30 51 1 47 7
M  V30 52 1 48 8
M  V30 53 1 49 9
M  V30 54 1 50 9
M  V30 55 1 51 10
M  V30 56 1 52 10
M  V30 57 1 11 53 CFG=1
M  V30 58 1 54 12
M  V30 59 1 55 14
M  V30 60 1 56 14
M  V30 61 1 16 57 CFG=1
M  V30 62 1 17 58 CFG=3
M  V30 63 1 59 18
M  V30 64 1 60 18
M  V30 65 1 61 19
M  V30 66 1 62 20
M  V30 67 1 63 20
M  V30 68 1 64 21
M  V30 69 1 65 21
M  V30 70 1 66 22
M  V30 71 1 67 22
M  V30 72 1 68 25
M  V30 73 1 69 25
M  V30 74 1 26 70 CFG=3
M  V30 75 1 71 27
M  V30 76 1 72 28
M  V30 77 1 73 31
M  V30 78 1 74 31
M  V30 79 1 75 31
M  V30 80 1 32 76 CFG=1
M  V30 81 1 77 33
M  V30 82 1 78 34
M  V30 83 1 79 34
M  V30 84 1 29 80 CFG=3
M  V30 85 1 81 8
M  V30 86 1 82 9
M  V30 END BOND
M  V30 END CTAB
M  END
>  <i_epik_Tot_Q>  (1) 
3

>  <i_epik_Tot_abs_Q>  (1) 
3

>  <i_i_glide_confnum>  (1) 
358

>  <i_i_glide_lignum>  (1) 
110

>  <i_i_glide_posenum>  (1) 
336

>  <i_i_glide_rotatable_bonds>  (1) 
10

>  <i_lp_mmshare_version>  (1) 
72125

>  <i_m_source_file_index>  (1) 
54

>  <i_f3d_flags>  (1) 
0

>  <num_sample>  (1) 
100

>  <b_lp_Chiralities_Consistent>  (1) 
1

>  <r_epik_Charging_Adjusted_Penalty>  (1) 
0.52217566130243886

>  <r_epik_Ionization_Penalty>  (1) 
0.30399825412207077

>  <r_epik_Ionization_Penalty_Charging>  (1) 
0.29355179195135561

>  <r_epik_Ionization_Penalty_Neutral>  (1) 
0.010446462170715176

>  <r_epik_State_Penalty>  (1) 
0.22862386935108323

>  <r_glide_ring_energy>  (1) 
0.00062545301478619732

>  <r_i_docking_score>  (1) 
-7.0738393878396302

>  <r_i_glide_ecoul>  (1) 
-5.5303660966315356

>  <r_i_glide_eff_state_penalty>  (1) 
0.22862386935108323

>  <r_i_glide_einternal>  (1) 
9.7202989029234672

>  <r_i_glide_emodel>  (1) 
-62.528824368000912

>  <r_i_glide_emodel_strain>  (1) 
0.31863357866039621

>  <r_i_glide_energy>  (1) 
-47.092903632536633

>  <r_i_glide_erotb>  (1) 
0.58947078011706677

>  <r_i_glide_esite>  (1) 
0

>  <r_i_glide_evdw>  (1) 
-41.562537535905093

>  <r_i_glide_gscore>  (1) 
-7.3024632571907135

>  <r_i_glide_gscore_strain>  (1) 
0

>  <r_i_glide_hbond>  (1) 
-0.032906566040444958

>  <r_i_glide_ligand_efficiency>  (1) 
-0.20210969679541801

>  <r_i_glide_ligand_efficiency_ln>  (1) 
-1.5528647410373233

>  <r_i_glide_ligand_efficiency_sa>  (1) 
-0.66111422014992272

>  <r_i_glide_lipo>  (1) 
-3.947347326264032

>  <r_i_glide_metal>  (1) 
-0

>  <r_i_glide_rewards>  (1) 
-1.0039983537133184

>  <r_lp_Energy>  (1) 
69.168939999999992

>  <s_epik_Chemistry_Notes>  (1) 
This compound contains an acetal/aminal-like group ( X-CH(R)-Y where X, Y are N, S, or O) that may be acid/base labile, releasing an aldehyde.

>  <s_epik_cmdline>  (1) 
J2VwaWtfcHl0aG9uJywgJy1waHQnLCAnMS4wJywgJy1waCcsICc3LjQnLCAnLXRuJywgJzgnLCAnLW1hJywgJzUwMCcsICctaW1hZScsICc8aW5maWxlLm1hZT4nLCAnLW9tYWUnLCAnPG91dGZpbGUubWFlPic=

>  <s_epik_input>  (1) 
W09IXVtDQEBdMTJbQ0BASF0oW0NIMl0xKU4oW0NIM10pW0NASF0oW0NIM10pW0NASF0oW09IXSlbQ0BIXTJbTkhdW0NIMl1bQ0gyXVtOSF1bQ0gyXU9bQ0BIXTNPQyhbQ0gyXVtDSF09QyhbQ0gyXVtOSDJdKVtDSF09W0NIXTQpPUM0W0NIMl1DMzVbQ0gyXVtDSDJdW0NIMl1bQ0gyXVtDSDJdNQ==

>  <s_glide_docking_method>  (1) 
confgen

>  <s_i_glide_gridfile>  (1) 
gpcr_5ht2c_6bqh_protein_autoprepared_prepared

>  <s_lp_Force_Field>  (1) 
S-OPLS

>  <s_lp_Variant>  (1) 
DiffSBDD_53-2

>  <s_m_source_file>  (1) 
generated_GPCR_5HT2C_ligand_DiffSBDD_2026-06-23_prepared.sdf

>  <GenAI_Model>  (1) 
DiffSBDD

>  <Protein>  (1) 
GPCR_5HT2C

$$$$
DiffSBDD_62
     RDKit          3D

  0  0  0  0  0  0  0  0  0  0999 V3000
M  V30 BEGIN CTAB
M  V30 COUNTS 80 84 0 0 1
M  V30 BEGIN ATOM
M  V30 1 C 39.299027 29.149422 55.638026 0
M  V30 2 C 41.594546 29.606757 66.277616 0
M  V30 3 C 38.769787 35.391246 60.943133 0
M  V30 4 C 38.905293 27.327140 57.421326 0
M  V30 5 C 39.823497 30.171955 50.078183 0
M  V30 6 C 41.198483 27.566410 64.661727 0
M  V30 7 C 38.991978 33.851472 61.124348 0 CFG=2
M  V30 8 C 41.006944 29.985227 64.080294 0
M  V30 9 C 40.432663 30.942438 62.009427 0
M  V30 10 O 39.645161 30.724761 53.171730 0
M  V30 11 C 40.228088 29.356146 51.293203 0
M  V30 12 C 41.074384 33.655198 64.501702 0
M  V30 13 C 38.759526 28.787175 57.039238 0
M  V30 14 C 39.542475 29.642067 52.593472 0
M  V30 15 C 40.905374 32.338491 63.873253 0
M  V30 16 N 41.128035 31.196912 64.603942 0
M  V30 17 C 37.326507 35.842045 60.623346 0
M  V30 18 O 37.630908 33.737761 57.770332 0
M  V30 19 C 41.148727 30.425284 50.733609 0
M  V30 20 N 37.645082 28.939579 53.841773 0
M  V30 21 N 41.513565 31.191755 66.018930 0
M  V30 22 N 38.229502 29.635247 57.838702 0
M  V30 23 C 38.117547 31.047125 57.542258 0
M  V30 24 C 41.245171 29.060467 64.914147 0
M  V30 25 C 40.562350 32.283904 62.637740 0
M  V30 26 C 40.584281 34.475387 63.213487 0
M  V30 27 N 38.836589 28.599276 53.087370 0
M  V30 28 C 37.585517 33.054520 59.006728 0 CFG=2
M  V30 29 C 38.667296 28.291356 54.522343 0 CFG=1
M  V30 30 C 37.883808 38.367957 60.636674 0
M  V30 31 C 36.938753 37.257839 61.111281 0
M  V30 32 C 40.346420 33.565398 61.884754 0 CFG=2
M  V30 33 C 36.732499 37.314389 62.634904 0
M  V30 34 C 38.956209 33.180073 59.717731 0
M  V30 35 N 37.245152 31.674681 58.567757 0 CHG=1
M  V30 36 N 40.638907 29.862477 62.695544 0
M  V30 37 H 39.189599 30.209332 55.437353 0
M  V30 38 H 40.373614 28.962400 55.636513 0
M  V30 39 H 40.859631 29.303760 67.024735 0
M  V30 40 H 42.595724 29.316277 66.596057 0
M  V30 41 H 39.065832 35.943024 61.826650 0
M  V30 42 H 39.443064 35.760869 60.169751 0
M  V30 43 H 38.017299 26.769205 57.124262 0
M  V30 44 H 39.778030 26.881816 56.942769 0
M  V30 45 H 39.024501 27.225723 58.500702 0
M  V30 46 H 39.817221 29.652956 49.121788 0
M  V30 47 H 39.084770 30.964322 50.167768 0
M  V30 48 H 42.170094 27.116516 64.865024 0
M  V30 49 H 40.457004 27.104786 65.314061 0
M  V30 50 H 40.925810 27.342062 63.630153 0
M  V30 51 H 38.185163 33.450222 61.738970 0
M  V30 52 H 40.169381 30.915543 60.961013 0
M  V30 53 H 40.473368 28.314180 51.098640 0
M  V30 54 H 40.445762 33.789945 65.382038 0
M  V30 55 H 42.121210 33.844157 64.742257 0
M  V30 56 H 37.171261 35.796280 59.545541 0
M  V30 57 H 36.617615 35.140696 61.063450 0
M  V30 58 H 41.245142 31.337755 51.306362 0
M  V30 59 H 42.045061 30.137752 50.192671 0
M  V30 60 H 37.524173 29.927596 54.023605 0
M  V30 61 H 42.438764 31.608757 66.100086 0
M  V30 62 H 37.645293 31.223279 56.573584 0
M  V30 63 H 39.106787 31.507111 57.519500 0
M  V30 64 H 41.262354 35.303448 63.000141 0
M  V30 65 H 39.645146 34.929866 63.521485 0
M  V30 66 H 36.761731 33.417888 59.617517 0
M  V30 67 H 38.545601 27.232880 54.743569 0
M  V30 68 H 38.846643 38.306136 61.138499 0
M  V30 69 H 38.045134 38.317121 59.560015 0
M  V30 70 H 37.466176 39.350501 60.858981 0
M  V30 71 H 35.979006 37.481974 60.648134 0
M  V30 72 H 41.194605 33.700964 61.217912 0
M  V30 73 H 37.667891 37.179424 63.177739 0
M  V30 74 H 36.313242 38.274787 62.936519 0
M  V30 75 H 36.045186 36.538191 62.972177 0
M  V30 76 H 39.365635 32.189433 59.757741 0
M  V30 77 H 39.652192 33.710269 59.066985 0
M  V30 78 H 37.158385 31.058019 59.359543 0
M  V30 79 H 36.340822 31.737744 58.074564 0
M  V30 80 H 36.993434 34.439587 57.767621 0
M  V30 END ATOM
M  V30 BEGIN BOND
M  V30 1 1 7 3
M  V30 2 1 11 5
M  V30 3 1 13 1
M  V30 4 1 13 4
M  V30 5 2 14 10
M  V30 6 1 14 11
M  V30 7 1 15 12
M  V30 8 1 16 8
M  V30 9 1 16 15
M  V30 10 1 17 3
M  V30 11 1 19 5
M  V30 12 1 19 11
M  V30 13 1 21 2
M  V30 14 1 21 16
M  V30 15 2 22 13
M  V30 16 1 23 22
M  V30 17 1 24 2
M  V30 18 1 24 6
M  V30 19 2 24 8
M  V30 20 1 25 9
M  V30 21 2 25 15
M  V30 22 1 26 12
M  V30 23 1 27 14
M  V30 24 1 27 20
M  V30 25 1 28 18
M  V30 26 1 29 1
M  V30 27 1 29 20
M  V30 28 1 29 27
M  V30 29 1 31 17
M  V30 30 1 31 30
M  V30 31 1 32 7
M  V30 32 1 32 25
M  V30 33 1 32 26
M  V30 34 1 33 31
M  V30 35 1 34 7
M  V30 36 1 34 28
M  V30 37 1 35 23
M  V30 38 1 35 28
M  V30 39 1 36 8
M  V30 40 2 36 9
M  V30 41 1 37 1
M  V30 42 1 38 1
M  V30 43 1 39 2
M  V30 44 1 40 2
M  V30 45 1 41 3
M  V30 46 1 42 3
M  V30 47 1 43 4
M  V30 48 1 44 4
M  V30 49 1 45 4
M  V30 50 1 46 5
M  V30 51 1 47 5
M  V30 52 1 48 6
M  V30 53 1 49 6
M  V30 54 1 50 6
M  V30 55 1 7 51 CFG=1
M  V30 56 1 52 9
M  V30 57 1 53 11
M  V30 58 1 54 12
M  V30 59 1 55 12
M  V30 60 1 56 17
M  V30 61 1 57 17
M  V30 62 1 58 19
M  V30 63 1 59 19
M  V30 64 1 60 20
M  V30 65 1 61 21
M  V30 66 1 62 23
M  V30 67 1 63 23
M  V30 68 1 64 26
M  V30 69 1 65 26
M  V30 70 1 28 66 CFG=1
M  V30 71 1 29 67 CFG=3
M  V30 72 1 68 30
M  V30 73 1 69 30
M  V30 74 1 70 30
M  V30 75 1 71 31
M  V30 76 1 32 72 CFG=3
M  V30 77 1 73 33
M  V30 78 1 74 33
M  V30 79 1 75 33
M  V30 80 1 76 34
M  V30 81 1 77 34
M  V30 82 1 78 35
M  V30 83 1 79 35
M  V30 84 1 80 18
M  V30 END BOND
M  V30 END CTAB
M  END
>  <i_epik_Tot_Q>  (1) 
1

>  <i_epik_Tot_abs_Q>  (1) 
1

>  <i_i_glide_confnum>  (1) 
426

>  <i_i_glide_lignum>  (1) 
137

>  <i_i_glide_posenum>  (1) 
307

>  <i_i_glide_rotatable_bonds>  (1) 
14

>  <i_lp_mmshare_version>  (1) 
72125

>  <i_m_source_file_index>  (1) 
63

>  <i_f3d_flags>  (1) 
0

>  <num_sample>  (1) 
100

>  <b_lp_Chiralities_Consistent>  (1) 
1

>  <r_epik_Charging_Adjusted_Penalty>  (1) 
1.9108014557952604

>  <r_epik_Ionization_Penalty>  (1) 
0.8812751426241725

>  <r_epik_Ionization_Penalty_Charging>  (1) 
0.72483633588800112

>  <r_epik_Ionization_Penalty_Neutral>  (1) 
0.15643880673617139

>  <r_epik_State_Penalty>  (1) 
1.1859651199072592

>  <r_glide_ring_energy>  (1) 
0

>  <r_i_docking_score>  (1) 
-7.0710275971277436

>  <r_i_glide_ecoul>  (1) 
-4.7172573760766427

>  <r_i_glide_eff_state_penalty>  (1) 
1.1859651199072592

>  <r_i_glide_einternal>  (1) 
25.812312263147859

>  <r_i_glide_emodel>  (1) 
-65.328423627282376

>  <r_i_glide_emodel_strain>  (1) 
3.9440885959367051

>  <r_i_glide_energy>  (1) 
-55.194215488355006

>  <r_i_glide_erotb>  (1) 
0.98469743448682379

>  <r_i_glide_esite>  (1) 
-0.25612659502682422

>  <r_i_glide_evdw>  (1) 
-50.476958112278361

>  <r_i_glide_gscore>  (1) 
-8.2569927170350024

>  <r_i_glide_gscore_strain>  (1) 
0

>  <r_i_glide_hbond>  (1) 
-0.38584186318475222

>  <r_i_glide_ligand_efficiency>  (1) 
-0.19641743325354843

>  <r_i_glide_ligand_efficiency_ln>  (1) 
-1.5427071846046554

>  <r_i_glide_ligand_efficiency_sa>  (1) 
-0.6485560750178333

>  <r_i_glide_lipo>  (1) 
-3.3716048800408811

>  <r_i_glide_metal>  (1) 
-0

>  <r_i_glide_rewards>  (1) 
-1.9966803012439533

>  <r_lp_Energy>  (1) 
37.126494999999998

>  <r_lp_tautomer_probability>  (1) 
0.49999399997599986

>  <s_epik_Chemistry_Notes>  (1) 
This compound has an imine and may undergo hydrolysis. This compound contains an acetal/aminal-like group ( X-CH(R)-Y where X, Y are N, S, or O) that may be acid/base labile, releasing an aldehyde.

>  <s_epik_cmdline>  (1) 
J2VwaWtfcHl0aG9uJywgJy1waHQnLCAnMS4wJywgJy1waCcsICc3LjQnLCAnLXRuJywgJzgnLCAnLW1hJywgJzUwMCcsICctaW1hZScsICc8aW5maWxlLm1hZT4nLCAnLW9tYWUnLCAnPG91dGZpbGUubWFlPic=

>  <s_epik_input>  (1) 
W0NIMl0xW0NIMl1bQ0hdMUMoPU8pTjJbTkhdW0NAQEhdMltDSDJdL0MoW0NIM10pPU5cW0NIMl1bTkhdW0NASF0oW09IXSlbQ0gyXVtDQEhdKFtDSDJdW0NIMl1bQ0hdKFtDSDNdKVtDSDNdKVtDQEBIXShbQ0gyXVtDSDJdMylDKFtDSF09TjQpPUMzTihDND01KVtOSF1bQ0gyXUM1W0NIM10=

>  <s_glide_docking_method>  (1) 
confgen

>  <s_i_glide_gridfile>  (1) 
gpcr_5ht2c_6bqh_protein_autoprepared_prepared

>  <s_lp_Force_Field>  (1) 
S-OPLS

>  <s_lp_Variant>  (1) 
DiffSBDD_62-3

>  <s_m_source_file>  (1) 
generated_GPCR_5HT2C_ligand_DiffSBDD_2026-06-23_prepared.sdf

>  <GenAI_Model>  (1) 
DiffSBDD

>  <Protein>  (1) 
GPCR_5HT2C

$$$$
DiffSBDD_34
     RDKit          3D

  0  0  0  0  0  0  0  0  0  0999 V3000
M  V30 BEGIN CTAB
M  V30 COUNTS 77 79 0 0 1
M  V30 BEGIN ATOM
M  V30 1 C 38.304692 29.492480 54.947296 0
M  V30 2 C 38.926410 36.708808 62.945238 0
M  V30 3 C 41.230099 28.702031 59.064368 0
M  V30 4 C 39.969837 28.287110 59.834831 0
M  V30 5 C 42.108747 35.055931 64.332558 0
M  V30 6 N 38.325185 27.129166 55.685737 0
M  V30 7 C 37.398098 35.374750 61.360608 0
M  V30 8 C 37.668228 30.620992 60.931499 0
M  V30 9 C 38.147299 36.697944 61.614199 0
M  V30 10 C 40.228436 35.880830 62.918330 0
M  V30 11 O 38.845147 32.764721 55.379327 0
M  V30 12 C 37.134463 35.056010 59.867133 0 CFG=2
M  V30 13 N 38.293559 33.359915 57.463872 0
M  V30 14 C 38.530551 31.052881 57.033351 0 CFG=1
M  V30 15 N 39.241943 29.062249 52.989653 0
M  V30 16 C 40.175195 28.390408 61.353240 0
M  V30 17 C 38.706952 29.000713 59.305312 0
M  V30 18 O 40.845264 33.258011 65.222352 0
M  V30 19 C 37.643682 30.146761 56.139960 0
M  V30 20 C 37.364004 32.014435 61.472017 0
M  V30 21 O 42.844979 33.665752 66.105691 0 CHG=-1
M  V30 22 C 39.806952 29.175900 51.660923 0
M  V30 23 C 38.026357 32.871263 58.782653 0 CFG=1
M  V30 24 O 36.132690 35.917266 59.367740 0
M  V30 25 C 36.274463 32.740746 60.655935 0
M  V30 26 N 40.854379 35.826353 64.254305 0 CHG=1
M  V30 27 C 38.572865 32.481353 56.542008 0
M  V30 28 C 36.819045 33.571132 59.475998 0 CFG=1
M  V30 29 C 41.917688 33.894311 65.303571 0
M  V30 30 C 37.915999 31.323918 58.479911 0 CFG=2
M  V30 31 C 38.602581 28.113622 54.743593 0
M  V30 32 C 38.743649 30.064442 53.790042 0
M  V30 33 C 38.534355 30.504260 59.647146 0 CFG=1
M  V30 34 N 39.160785 27.843298 53.572366 0
M  V30 35 H 39.188264 37.737710 63.194376 0
M  V30 36 H 38.272637 36.362544 63.746194 0
M  V30 37 H 41.504425 29.736678 59.263747 0
M  V30 38 H 41.096145 28.592554 57.987710 0
M  V30 39 H 42.069796 28.070241 59.346445 0
M  V30 40 H 39.824564 27.229125 59.615927 0
M  V30 41 H 42.903550 35.721733 64.671014 0
M  V30 42 H 42.405598 34.651031 63.367757 0
M  V30 43 H 37.897631 27.352000 56.571177 0
M  V30 44 H 38.544718 26.159873 55.512128 0
M  V30 45 H 38.018283 34.590851 61.769280 0
M  V30 46 H 36.474131 35.361056 61.941003 0
M  V30 47 H 38.159341 30.095299 61.744213 0
M  V30 48 H 36.709609 30.137948 60.762376 0
M  V30 49 H 38.845159 36.901048 60.806311 0
M  V30 50 H 37.425830 37.516802 61.599144 0
M  V30 51 H 40.933365 36.314950 62.206916 0
M  V30 52 H 40.039545 34.858417 62.592355 0
M  V30 53 H 38.045134 35.338148 59.367760 0
M  V30 54 H 38.274827 34.348796 57.266476 0
M  V30 55 H 39.548243 30.669968 57.110385 0
M  V30 56 H 40.398203 29.411895 61.661574 0
M  V30 57 H 41.007864 27.765844 61.676040 0
M  V30 58 H 39.290577 28.059268 61.896572 0
M  V30 59 H 38.702479 28.822794 58.235129 0
M  V30 60 H 37.822560 28.485303 59.654014 0
M  V30 61 H 36.845137 30.766093 55.753437 0
M  V30 62 H 37.139791 29.403837 56.754964 0
M  V30 63 H 37.006581 31.909530 62.494994 0
M  V30 64 H 38.296900 32.565908 61.551272 0
M  V30 65 H 39.883706 30.225367 51.375665 0
M  V30 66 H 39.165653 28.660505 50.944485 0
M  V30 67 H 40.801949 28.731380 51.640603 0
M  V30 68 H 38.932531 33.067049 59.357257 0
M  V30 69 H 36.045146 35.777236 58.430109 0
M  V30 70 H 35.566172 32.007494 60.268168 0
M  V30 71 H 35.661519 33.362163 61.308116 0
M  V30 72 H 41.054643 36.767863 64.574530 0
M  V30 73 H 36.017067 33.590333 58.735405 0
M  V30 74 H 36.854243 31.069932 58.424213 0
M  V30 75 H 38.733536 31.095186 53.465820 0
M  V30 76 H 39.520958 30.916148 59.853926 0
M  V30 77 H 40.226801 35.366271 64.901487 0
M  V30 END ATOM
M  V30 BEGIN BOND
M  V30 1 1 4 3
M  V30 2 1 9 2
M  V30 3 1 9 7
M  V30 4 1 10 2
M  V30 5 1 12 7
M  V30 6 1 16 4
M  V30 7 1 17 4
M  V30 8 1 19 1
M  V30 9 1 19 14
M  V30 10 1 20 8
M  V30 11 1 22 15
M  V30 12 1 23 13
M  V30 13 1 24 12
M  V30 14 1 25 20
M  V30 15 1 26 5
M  V30 16 1 26 10
M  V30 17 2 27 11
M  V30 18 1 27 13
M  V30 19 1 27 14
M  V30 20 1 28 12
M  V30 21 1 28 23
M  V30 22 1 28 25
M  V30 23 1 29 5
M  V30 24 2 29 18
M  V30 25 1 29 21
M  V30 26 1 30 14
M  V30 27 1 30 23
M  V30 28 1 31 1
M  V30 29 1 31 6
M  V30 30 2 32 1
M  V30 31 1 32 15
M  V30 32 1 33 8
M  V30 33 1 33 17
M  V30 34 1 33 30
M  V30 35 1 34 15
M  V30 36 2 34 31
M  V30 37 1 35 2
M  V30 38 1 36 2
M  V30 39 1 37 3
M  V30 40 1 38 3
M  V30 41 1 39 3
M  V30 42 1 40 4
M  V30 43 1 41 5
M  V30 44 1 42 5
M  V30 45 1 43 6
M  V30 46 1 44 6
M  V30 47 1 45 7
M  V30 48 1 46 7
M  V30 49 1 47 8
M  V30 50 1 48 8
M  V30 51 1 49 9
M  V30 52 1 50 9
M  V30 53 1 51 10
M  V30 54 1 52 10
M  V30 55 1 12 53 CFG=3
M  V30 56 1 54 13
M  V30 57 1 14 55 CFG=1
M  V30 58 1 56 16
M  V30 59 1 57 16
M  V30 60 1 58 16
M  V30 61 1 59 17
M  V30 62 1 60 17
M  V30 63 1 61 19
M  V30 64 1 62 19
M  V30 65 1 63 20
M  V30 66 1 64 20
M  V30 67 1 65 22
M  V30 68 1 66 22
M  V30 69 1 67 22
M  V30 70 1 23 68 CFG=1
M  V30 71 1 69 24
M  V30 72 1 70 25
M  V30 73 1 71 25
M  V30 74 1 72 26
M  V30 75 1 28 73 CFG=3
M  V30 76 1 30 74 CFG=3
M  V30 77 1 75 32
M  V30 78 1 33 76 CFG=1
M  V30 79 1 77 26
M  V30 END BOND
M  V30 END CTAB
M  END
>  <i_epik_Tot_Q>  (1) 
0

>  <i_epik_Tot_abs_Q>  (1) 
2

>  <i_i_glide_confnum>  (1) 
814

>  <i_i_glide_lignum>  (1) 
78

>  <i_i_glide_posenum>  (1) 
333

>  <i_i_glide_rotatable_bonds>  (1) 
13

>  <i_lp_mmshare_version>  (1) 
72125

>  <i_m_source_file_index>  (1) 
35

>  <i_f3d_flags>  (1) 
0

>  <num_sample>  (1) 
100

>  <b_lp_Chiralities_Consistent>  (1) 
1

>  <r_epik_Charging_Adjusted_Penalty>  (1) 
0.0058843035304018774

>  <r_epik_Ionization_Penalty>  (1) 
0.0059063327183222396

>  <r_epik_Ionization_Penalty_Charging>  (1) 
0.0010621566203982099

>  <r_epik_Ionization_Penalty_Neutral>  (1) 
0.0048441760979240295

>  <r_epik_State_Penalty>  (1) 
0.0048221469100036673

>  <r_glide_ring_energy>  (1) 
0

>  <r_i_docking_score>  (1) 
-7.0692099595583198

>  <r_i_glide_ecoul>  (1) 
-7.3813844147480729

>  <r_i_glide_eff_state_penalty>  (1) 
0.0048221469100036673

>  <r_i_glide_einternal>  (1) 
9.8049279960751541

>  <r_i_glide_emodel>  (1) 
-49.739969167134369

>  <r_i_glide_emodel_strain>  (1) 
3.6131615497593259

>  <r_i_glide_energy>  (1) 
-51.819695975607146

>  <r_i_glide_erotb>  (1) 
0.88794746620747522

>  <r_i_glide_esite>  (1) 
-0.15292319389636416

>  <r_i_glide_evdw>  (1) 
-44.438311560859077

>  <r_i_glide_gscore>  (1) 
-7.0740321064683238

>  <r_i_glide_gscore_strain>  (1) 
0

>  <r_i_glide_hbond>  (1) 
-0.32000000000000001

>  <r_i_glide_ligand_efficiency>  (1) 
-0.20791793998700941

>  <r_i_glide_ligand_efficiency_ln>  (1) 
-1.5617867646894508

>  <r_i_glide_ligand_efficiency_sa>  (1) 
-0.67357341207921928

>  <r_i_glide_lipo>  (1) 
-2.9670408854600807

>  <r_i_glide_metal>  (1) 
-0

>  <r_i_glide_rewards>  (1) 
-1.1928922530641886

>  <r_lp_Energy>  (1) 
22.816407999999999

>  <r_lp_tautomer_probability>  (1) 
0.99999999999999989

>  <s_epik_cmdline>  (1) 
J2VwaWtfcHl0aG9uJywgJy1waHQnLCAnMS4wJywgJy1waCcsICc3LjQnLCAnLXRuJywgJzgnLCAnLW1hJywgJzUwMCcsICctaW1hZScsICc8aW5maWxlLm1hZT4nLCAnLW9tYWUnLCAnPG91dGZpbGUubWFlPic=

>  <s_epik_input>  (1) 
W0NIM11uKFtjSF0xKW5jKFtOSDJdKWMxW0NIMl1bQ0BASF0oQyg9TylbTkhdMilbQ0BIXShbQ0BASF0yMylbQ0BIXShbQ0gyXVtDSF0oW0NIM10pW0NIM10pW0NIMl1bQ0gyXVtDSDJdW0NASF0zW0NAQEhdKFtPSF0pW0NIMl1bQ0gyXVtDSDJdW0NIMl1bTkhdW0NIMl1DKD1PKVtPSF0=

>  <s_glide_docking_method>  (1) 
confgen

>  <s_i_glide_gridfile>  (1) 
gpcr_5ht2c_6bqh_protein_autoprepared_prepared

>  <s_lp_Force_Field>  (1) 
S-OPLS

>  <s_lp_Variant>  (1) 
DiffSBDD_34-1

>  <s_m_source_file>  (1) 
generated_GPCR_5HT2C_ligand_DiffSBDD_2026-06-23_prepared.sdf

>  <GenAI_Model>  (1) 
DiffSBDD

>  <Protein>  (1) 
GPCR_5HT2C

$$$$
DiffSBDD_58
     RDKit          3D

  0  0  0  0  0  0  0  0  0  0999 V3000
M  V30 BEGIN CTAB
M  V30 COUNTS 76 76 0 0 1
M  V30 BEGIN ATOM
M  V30 1 C 40.640785 31.524248 63.859445 0
M  V30 2 C 39.994007 33.088821 61.933544 0 CFG=1
M  V30 3 C 39.606605 31.197148 55.365548 0
M  V30 4 C 38.121104 32.040916 60.336659 0 CFG=1
M  V30 5 C 42.186897 29.932557 66.650014 0
M  V30 6 C 39.388320 26.147536 55.593077 0
M  V30 7 O 45.245235 30.236279 65.391972 0
M  V30 8 C 38.002902 30.614732 57.344460 0
M  V30 9 N 38.540552 26.883606 54.838600 0
M  V30 10 C 43.297730 29.050291 64.467174 0 CFG=2
M  V30 11 C 42.311332 26.776931 65.344942 0
M  V30 12 C 40.657764 35.558337 61.409659 0
M  V30 13 C 41.648443 34.439136 63.404568 0
M  V30 14 C 44.670673 28.961278 65.187936 0
M  V30 15 N 40.161163 28.014693 56.938966 0
M  V30 16 C 39.256736 30.250118 56.537026 0 CFG=1
M  V30 17 N 38.043888 32.019405 57.812741 0 CHG=1
M  V30 18 O 37.246107 32.050978 61.451159 0
M  V30 19 C 40.180994 26.701528 56.620037 0
M  V30 20 C 40.544154 31.694743 62.352563 0
M  V30 21 O 41.346559 25.814188 64.967752 0
M  V30 22 C 37.273831 32.293279 59.051472 0 CFG=2
M  V30 23 C 41.101255 34.197432 61.984295 0
M  V30 24 O 43.648787 26.918909 63.368242 0
M  V30 25 C 42.279906 29.954939 65.184849 0
M  V30 26 C 41.326603 30.697399 67.352025 0
M  V30 27 C 42.703692 27.651014 64.130137 0 CFG=2
M  V30 28 C 38.509068 28.197999 55.152510 0
M  V30 29 C 39.272257 33.060623 60.552881 0
M  V30 30 C 39.312095 28.757713 56.190797 0
M  V30 31 N 37.644915 28.993935 54.409054 0
M  V30 32 C 41.514739 30.731456 64.439456 0
M  V30 33 C 36.648407 33.701602 58.977819 0
M  V30 34 H 39.942211 32.094784 64.449085 0
M  V30 35 H 39.226292 33.374519 62.655129 0
M  V30 36 H 40.520683 30.875889 54.866677 0
M  V30 37 H 38.826589 31.263701 54.609535 0
M  V30 38 H 39.787430 32.216275 55.712992 0
M  V30 39 H 38.532654 31.034031 60.277857 0
M  V30 40 H 42.837615 29.271017 67.198695 0
M  V30 41 H 39.435938 25.090475 55.375411 0
M  V30 42 H 46.102525 30.115898 65.783553 0
M  V30 43 H 37.940234 29.942583 58.203528 0
M  V30 44 H 37.104218 30.450435 56.755934 0
M  V30 45 H 43.518568 29.523969 63.507233 0
M  V30 46 H 41.851321 27.366712 66.130608 0
M  V30 47 H 43.177221 26.283779 65.785244 0
M  V30 48 H 39.769270 35.937056 61.917867 0
M  V30 49 H 41.443773 36.307477 61.519431 0
M  V30 50 H 40.445378 35.504893 60.343569 0
M  V30 51 H 40.844468 34.606388 64.120364 0
M  V30 52 H 42.249900 33.602529 63.755087 0
M  V30 53 H 42.297693 35.312400 63.440938 0
M  V30 54 H 44.592996 28.443690 66.142499 0
M  V30 55 H 45.374082 28.382667 64.590184 0
M  V30 56 H 40.052313 30.395179 57.260612 0
M  V30 57 H 37.580662 32.544503 57.081095 0
M  V30 58 H 36.915742 32.931348 61.566708 0
M  V30 59 H 40.843678 26.076519 57.199353 0
M  V30 60 H 41.502911 31.491749 61.872701 0
M  V30 61 H 39.866232 30.905555 62.031171 0
M  V30 62 H 40.585411 26.273511 64.644107 0
M  V30 63 H 36.434768 31.596458 59.063532 0
M  V30 64 H 41.937051 33.860001 61.369434 0
M  V30 65 H 43.766385 27.337941 62.512523 0
M  V30 66 H 41.294115 30.645706 68.429847 0
M  V30 67 H 40.648729 31.381250 66.860698 0
M  V30 68 H 41.821912 27.805567 63.504859 0
M  V30 69 H 38.836850 34.045422 60.407416 0
M  V30 70 H 40.017696 32.937617 59.769249 0
M  V30 71 H 37.549172 29.982198 54.585086 0
M  V30 72 H 37.069742 28.600548 53.678709 0
M  V30 73 H 36.113222 33.960084 59.890934 0
M  V30 74 H 37.390781 34.478909 58.788831 0
M  V30 75 H 35.921585 33.758910 58.168987 0
M  V30 76 H 38.991574 32.346031 57.914834 0
M  V30 END ATOM
M  V30 BEGIN BOND
M  V30 1 1 9 6
M  V30 2 1 14 7
M  V30 3 1 14 10
M  V30 4 1 16 3
M  V30 5 1 16 8
M  V30 6 1 17 8
M  V30 7 1 18 4
M  V30 8 2 19 6
M  V30 9 1 19 15
M  V30 10 1 20 1
M  V30 11 1 20 2
M  V30 12 1 21 11
M  V30 13 1 22 4
M  V30 14 1 22 17
M  V30 15 1 23 2
M  V30 16 1 23 12
M  V30 17 1 23 13
M  V30 18 1 25 5
M  V30 19 1 25 10
M  V30 20 2 26 5
M  V30 21 1 27 10
M  V30 22 1 27 11
M  V30 23 1 27 24
M  V30 24 2 28 9
M  V30 25 1 29 2
M  V30 26 1 29 4
M  V30 27 2 30 15
M  V30 28 1 30 16
M  V30 29 1 30 28
M  V30 30 1 31 28
M  V30 31 2 32 1
M  V30 32 2 32 25
M  V30 33 1 33 22
M  V30 34 1 34 1
M  V30 35 1 2 35 CFG=1
M  V30 36 1 36 3
M  V30 37 1 37 3
M  V30 38 1 38 3
M  V30 39 1 4 39 CFG=3
M  V30 40 1 40 5
M  V30 41 1 41 6
M  V30 42 1 42 7
M  V30 43 1 43 8
M  V30 44 1 44 8
M  V30 45 1 10 45 CFG=3
M  V30 46 1 46 11
M  V30 47 1 47 11
M  V30 48 1 48 12
M  V30 49 1 49 12
M  V30 50 1 50 12
M  V30 51 1 51 13
M  V30 52 1 52 13
M  V30 53 1 53 13
M  V30 54 1 54 14
M  V30 55 1 55 14
M  V30 56 1 16 56 CFG=1
M  V30 57 1 57 17
M  V30 58 1 58 18
M  V30 59 1 59 19
M  V30 60 1 60 20
M  V30 61 1 61 20
M  V30 62 1 62 21
M  V30 63 1 22 63 CFG=1
M  V30 64 1 64 23
M  V30 65 1 65 24
M  V30 66 1 66 26
M  V30 67 1 67 26
M  V30 68 1 27 68 CFG=3
M  V30 69 1 69 29
M  V30 70 1 70 29
M  V30 71 1 71 31
M  V30 72 1 72 31
M  V30 73 1 73 33
M  V30 74 1 74 33
M  V30 75 1 75 33
M  V30 76 1 76 17
M  V30 END BOND
M  V30 END CTAB
M  END
>  <i_epik_Tot_Q>  (1) 
1

>  <i_epik_Tot_abs_Q>  (1) 
1

>  <i_i_glide_confnum>  (1) 
685

>  <i_i_glide_lignum>  (1) 
130

>  <i_i_glide_posenum>  (1) 
88

>  <i_i_glide_rotatable_bonds>  (1) 
19

>  <i_lp_mmshare_version>  (1) 
72125

>  <i_m_source_file_index>  (1) 
59

>  <i_f3d_flags>  (1) 
0

>  <num_sample>  (1) 
100

>  <b_lp_Chiralities_Consistent>  (1) 
1

>  <r_epik_Charging_Adjusted_Penalty>  (1) 
0.031800499123457865

>  <r_epik_Ionization_Penalty>  (1) 
0.015929061655920795

>  <r_epik_Ionization_Penalty_Charging>  (1) 
0.015900249561728946

>  <r_epik_Ionization_Penalty_Neutral>  (1) 
2.8812094191846713e-05

>  <r_epik_State_Penalty>  (1) 
0.015900249561728919

>  <r_glide_ring_energy>  (1) 
0

>  <r_i_docking_score>  (1) 
-7.063240146512161

>  <r_i_glide_ecoul>  (1) 
-12.01029558266433

>  <r_i_glide_eff_state_penalty>  (1) 
0.015900249561728919

>  <r_i_glide_einternal>  (1) 
17.164155971176303

>  <r_i_glide_emodel>  (1) 
-69.419604806744104

>  <r_i_glide_emodel_strain>  (1) 
0.806382026574056

>  <r_i_glide_energy>  (1) 
-54.313598011584276

>  <r_i_glide_erotb>  (1) 
1.3125063474323406

>  <r_i_glide_esite>  (1) 
-0.10000000000000001

>  <r_i_glide_evdw>  (1) 
-42.303302428919949

>  <r_i_glide_gscore>  (1) 
-7.0791403960738899

>  <r_i_glide_gscore_strain>  (1) 
0

>  <r_i_glide_hbond>  (1) 
-0.59900366319529974

>  <r_i_glide_ligand_efficiency>  (1) 
-0.21403758019733821

>  <r_i_glide_ligand_efficiency_ln>  (1) 
-1.5708280370840906

>  <r_i_glide_ligand_efficiency_sa>  (1) 
-0.68653288639219723

>  <r_i_glide_lipo>  (1) 
-3.141511885887537

>  <r_i_glide_metal>  (1) 
-0

>  <r_i_glide_rewards>  (1) 
-0.6344217355777475

>  <r_lp_Energy>  (1) 
12.855034999999999

>  <r_lp_tautomer_probability>  (1) 
0.99999990128000804

>  <s_epik_cmdline>  (1) 
J2VwaWtfcHl0aG9uJywgJy1waHQnLCAnMS4wJywgJy1waCcsICc3LjQnLCAnLXRuJywgJzgnLCAnLW1hJywgJzUwMCcsICctaW1hZScsICc8aW5maWxlLm1hZT4nLCAnLW9tYWUnLCAnPG91dGZpbGUubWFlPic=

>  <s_epik_input>  (1) 
W09IXVtDSDJdW0NASF0oW09IXSlbQ0BIXShbQ0gyXVtPSF0pQyhbQ0hdPVtDSDJdKT1DPVtDSF1bQ0gyXVtDQEBIXShbQ0hdKFtDSDNdKVtDSDNdKVtDSDJdW0NAQEhdKFtPSF0pW0NAQEhdKFtDSDNdKVtOSF1bQ0gyXVtDQEBIXShbQ0gzXSljMW5bY0hdW2NIXW5jMVtOSDJd

>  <s_glide_docking_method>  (1) 
confgen

>  <s_i_glide_gridfile>  (1) 
gpcr_5ht2c_6bqh_protein_autoprepared_prepared

>  <s_lp_Force_Field>  (1) 
S-OPLS

>  <s_lp_Variant>  (1) 
DiffSBDD_58-2

>  <s_m_source_file>  (1) 
generated_GPCR_5HT2C_ligand_DiffSBDD_2026-06-23_prepared.sdf

>  <GenAI_Model>  (1) 
DiffSBDD

>  <Protein>  (1) 
GPCR_5HT2C

$$$$
DiffSBDD_41
     RDKit          3D

  0  0  0  0  0  0  0  0  0  0999 V3000
M  V30 BEGIN CTAB
M  V30 COUNTS 51 52 0 0 1
M  V30 BEGIN ATOM
M  V30 1 C 38.473923 29.337465 54.231116 0
M  V30 2 C 39.203535 28.003699 57.708666 0 CFG=1
M  V30 3 C 36.810963 32.130936 59.323805 0
M  V30 4 C 39.700489 29.815198 60.365353 0
M  V30 5 C 39.561631 31.676806 61.954928 0
M  V30 6 C 38.482271 32.224253 61.243197 0
M  V30 7 C 40.163560 30.482714 61.522518 0
M  V30 8 O 40.445139 30.505409 51.344662 0 CHG=-1
M  V30 9 C 40.224978 27.793737 58.826220 0
M  V30 10 S 39.645136 29.450924 56.685446 0
M  V30 11 N 37.245137 32.937728 58.168350 0 CHG=1
M  V30 12 C 39.055019 28.562344 51.584511 0
M  V30 13 C 38.190280 27.783587 52.373490 0
M  V30 14 C 37.855294 33.522462 61.711270 0
M  V30 15 C 39.237822 26.749927 56.800922 0
M  V30 16 C 39.625496 29.737724 52.114441 0
M  V30 17 C 40.422043 28.561772 59.938746 0
M  V30 18 C 37.896211 28.169969 53.693006 0
M  V30 19 C 37.177406 25.318710 57.319209 0
M  V30 20 C 38.595486 30.363696 59.659795 0
M  V30 21 C 38.698337 25.456869 57.438626 0
M  V30 22 F 39.333106 28.184475 50.314500 0
M  V30 23 C 39.337001 30.124510 53.438254 0
M  V30 24 C 37.990528 31.562581 60.096695 0
M  V30 25 C 38.173336 29.745781 55.659439 0
M  V30 26 H 38.192122 28.053311 58.105614 0
M  V30 27 H 36.221626 31.285964 58.967762 0
M  V30 28 H 36.127764 32.707160 59.946708 0
M  V30 29 H 39.936513 32.177531 62.836041 0
M  V30 30 H 40.997665 30.077650 62.076557 0
M  V30 31 H 40.859429 26.931493 58.701282 0
M  V30 32 H 36.533525 32.757048 57.450864 0
M  V30 33 H 37.291017 33.920259 58.390440 0
M  V30 34 H 37.750448 26.891223 51.964663 0
M  V30 35 H 37.731570 34.224582 60.886849 0
M  V30 36 H 36.882827 33.337695 62.167759 0
M  V30 37 H 38.502617 34.006698 62.441649 0
M  V30 38 H 38.683555 26.927223 55.885524 0
M  V30 39 H 40.265363 26.579730 56.473650 0
M  V30 40 H 41.204169 28.242452 60.613378 0
M  V30 41 H 37.230929 27.568065 54.293616 0
M  V30 42 H 36.867388 25.257821 56.275398 0
M  V30 43 H 36.657546 26.163721 57.767789 0
M  V30 44 H 36.845141 24.409342 57.817408 0
M  V30 45 H 38.208561 29.888636 58.795138 0
M  V30 46 H 39.156660 24.601687 56.939794 0
M  V30 47 H 38.995773 25.386163 58.484288 0
M  V30 48 H 39.777031 31.023459 53.845286 0
M  V30 49 H 37.310126 29.215537 56.059866 0
M  V30 50 H 37.931163 30.808874 55.679815 0
M  V30 51 H 38.132535 32.600825 57.826567 0
M  V30 END ATOM
M  V30 BEGIN BOND
M  V30 1 1 6 5
M  V30 2 1 7 4
M  V30 3 2 7 5
M  V30 4 1 9 2
M  V30 5 1 10 2
M  V30 6 1 11 3
M  V30 7 1 13 12
M  V30 8 1 14 6
M  V30 9 1 15 2
M  V30 10 1 16 8
M  V30 11 2 16 12
M  V30 12 1 17 4
M  V30 13 2 17 9
M  V30 14 1 18 1
M  V30 15 2 18 13
M  V30 16 2 20 4
M  V30 17 1 21 15
M  V30 18 1 21 19
M  V30 19 1 22 12
M  V30 20 2 23 1
M  V30 21 1 23 16
M  V30 22 1 24 3
M  V30 23 2 24 6
M  V30 24 1 24 20
M  V30 25 1 25 1
M  V30 26 1 25 10
M  V30 27 1 2 26 CFG=1
M  V30 28 1 27 3
M  V30 29 1 28 3
M  V30 30 1 29 5
M  V30 31 1 30 7
M  V30 32 1 31 9
M  V30 33 1 32 11
M  V30 34 1 33 11
M  V30 35 1 34 13
M  V30 36 1 35 14
M  V30 37 1 36 14
M  V30 38 1 37 14
M  V30 39 1 38 15
M  V30 40 1 39 15
M  V30 41 1 40 17
M  V30 42 1 41 18
M  V30 43 1 42 19
M  V30 44 1 43 19
M  V30 45 1 44 19
M  V30 46 1 45 20
M  V30 47 1 46 21
M  V30 48 1 47 21
M  V30 49 1 48 23
M  V30 50 1 49 25
M  V30 51 1 50 25
M  V30 52 1 51 11
M  V30 END BOND
M  V30 END CTAB
M  END
>  <i_epik_Tot_Q>  (1) 
0

>  <i_epik_Tot_abs_Q>  (1) 
2

>  <i_i_glide_confnum>  (1) 
132

>  <i_i_glide_lignum>  (1) 
91

>  <i_i_glide_posenum>  (1) 
193

>  <i_i_glide_rotatable_bonds>  (1) 
8

>  <i_lp_mmshare_version>  (1) 
72125

>  <i_m_source_file_index>  (1) 
42

>  <i_f3d_flags>  (1) 
0

>  <num_sample>  (1) 
100

>  <b_lp_Chiralities_Consistent>  (1) 
1

>  <r_epik_Charging_Adjusted_Penalty>  (1) 
2.7167828853708742

>  <r_epik_Ionization_Penalty>  (1) 
1.3565026725465308

>  <r_epik_Ionization_Penalty_Charging>  (1) 
1.3565026725465308

>  <r_epik_Ionization_Penalty_Neutral>  (1) 
0

>  <r_epik_State_Penalty>  (1) 
1.3602802128243434

>  <r_glide_ring_energy>  (1) 
0

>  <r_i_docking_score>  (1) 
-7.0621458829075712

>  <r_i_glide_ecoul>  (1) 
-6.12008379627067

>  <r_i_glide_eff_state_penalty>  (1) 
1.3602802128243434

>  <r_i_glide_einternal>  (1) 
9.0103310402156254

>  <r_i_glide_emodel>  (1) 
-61.186542049236678

>  <r_i_glide_emodel_strain>  (1) 
0.91559406731625259

>  <r_i_glide_energy>  (1) 
-41.057073795370542

>  <r_i_glide_erotb>  (1) 
0.74153290357203427

>  <r_i_glide_esite>  (1) 
-0.092089857108847775

>  <r_i_glide_evdw>  (1) 
-34.936989999099872

>  <r_i_glide_gscore>  (1) 
-8.4224260957319146

>  <r_i_glide_gscore_strain>  (1) 
0

>  <r_i_glide_hbond>  (1) 
-0.19978764464144227

>  <r_i_glide_ligand_efficiency>  (1) 
-0.28248583531630284

>  <r_i_glide_ligand_efficiency_ln>  (1) 
-1.6739402096832738

>  <r_i_glide_ligand_efficiency_sa>  (1) 
-0.8259935932587481

>  <r_i_glide_lipo>  (1) 
-4.0992923767794709

>  <r_i_glide_metal>  (1) 
-0

>  <r_i_glide_rewards>  (1) 
-2.1079270513785948

>  <r_lp_Energy>  (1) 
21.037921999999998

>  <s_epik_cmdline>  (1) 
J2VwaWtfcHl0aG9uJywgJy1waHQnLCAnMS4wJywgJy1waCcsICc3LjQnLCAnLXRuJywgJzgnLCAnLW1hJywgJzUwMCcsICctaW1hZScsICc8aW5maWxlLm1hZT4nLCAnLW9tYWUnLCAnPG91dGZpbGUubWFlPic=

>  <s_epik_input>  (1) 
W09IXWMoW2NIXTEpYyhGKVtjSF1bY0hdYzFbQ0gyXVNbQ0BASF0oW0NIMl1bQ0gyXVtDSDNdKS9bQ0hdPVtDSF1cYzJbY0hdW2NIXWMoW0NIM10pYyhbY0hdMilbQ0gyXVtOSDJd

>  <s_glide_docking_method>  (1) 
confgen

>  <s_i_glide_gridfile>  (1) 
gpcr_5ht2c_6bqh_protein_autoprepared_prepared

>  <s_lp_Force_Field>  (1) 
S-OPLS

>  <s_lp_Variant>  (1) 
DiffSBDD_41-4

>  <s_m_source_file>  (1) 
generated_GPCR_5HT2C_ligand_DiffSBDD_2026-06-23_prepared.sdf

>  <GenAI_Model>  (1) 
DiffSBDD

>  <Protein>  (1) 
GPCR_5HT2C

$$$$
DiffSBDD_63
     RDKit          3D

  0  0  0  0  0  0  0  0  0  0999 V3000
M  V30 BEGIN CTAB
M  V30 COUNTS 83 88 0 0 1
M  V30 BEGIN ATOM
M  V30 1 F 43.406644 31.298935 66.994890 0
M  V30 2 C 38.221235 27.081488 55.214871 0
M  V30 3 C 43.967949 30.939173 65.839404 0 CFG=1
M  V30 4 C 35.437904 34.018384 59.315148 0
M  V30 5 C 40.317272 32.281163 63.388559 0
M  V30 6 C 40.265094 30.434609 61.616972 0 CFG=1
M  V30 7 N 44.393199 28.626421 66.239492 0 CHG=1
M  V30 8 C 38.445123 32.172218 55.962361 0
M  V30 9 C 38.557565 29.075843 53.759318 0
M  V30 10 C 38.027334 30.169866 57.506508 0 CFG=2
M  V30 11 C 38.479887 31.657288 57.397329 0 CFG=2
M  V30 12 C 41.699901 32.136331 64.014036 0
M  V30 13 C 38.266837 31.377303 54.896523 0
M  V30 14 C 38.445250 27.849848 56.329915 0
M  V30 15 N 38.062744 25.723629 55.511553 0
M  V30 16 N 40.599854 30.018596 64.097695 0 CHG=1
M  V30 17 C 41.600210 30.833992 64.822405 0 CFG=1
M  V30 18 C 37.214394 35.723284 59.881340 0
M  V30 19 C 37.984452 24.102387 57.386508 0
M  V30 20 O 40.806230 28.137765 62.102473 0
M  V30 21 O 38.191280 29.637776 58.830072 0
M  V30 22 S 38.482859 26.868472 57.773398 0
M  V30 23 C 43.010875 28.767283 65.722299 0 CFG=2
M  V30 24 C 39.902050 30.837814 63.077416 0 CFG=1
M  V30 25 C 42.630482 27.554077 64.859247 0
M  V30 26 C 38.648245 29.333444 56.351578 0 CFG=1
M  V30 27 C 40.330344 28.945491 61.312853 0
M  V30 28 C 38.149278 25.457399 56.811861 0
M  V30 29 O 35.069938 32.653990 59.367761 0
M  V30 30 C 36.939605 34.236999 59.605271 0 CFG=2
M  V30 31 C 37.856706 33.737707 58.473208 0
M  V30 32 C 39.417823 29.804078 59.461240 0 CFG=2
M  V30 33 O 37.644979 32.355304 58.298612 0
M  V30 34 C 38.073865 29.878566 55.002005 0 CFG=2
M  V30 35 O 39.832530 28.646785 60.111501 0
M  V30 36 C 45.073893 29.930849 66.131450 0
M  V30 37 C 39.277841 30.881380 60.554575 0
M  V30 38 C 42.975737 30.130008 64.991944 0 CFG=2
M  V30 39 C 38.134830 27.581017 53.809290 0
M  V30 40 H 44.337961 31.845698 65.367751 0
M  V30 41 H 35.154337 34.433406 58.347224 0
M  V30 42 H 34.845271 34.536174 60.065585 0
M  V30 43 H 40.306761 32.935622 62.515148 0
M  V30 44 H 39.645158 32.712492 64.127618 0
M  V30 45 H 41.245305 30.837393 61.369914 0
M  V30 46 H 44.908023 27.940591 65.704308 0
M  V30 47 H 38.576180 33.234239 55.820257 0
M  V30 48 H 38.193565 29.521463 52.834689 0
M  V30 49 H 39.644819 29.140989 53.717482 0
M  V30 50 H 36.946376 30.137690 57.357683 0
M  V30 51 H 39.509994 31.789622 57.698633 0
M  V30 52 H 42.444682 32.045323 63.221267 0
M  V30 53 H 41.977426 32.995630 64.626473 0
M  V30 54 H 38.250297 31.804414 53.904441 0
M  V30 55 H 39.913064 29.648322 64.743714 0
M  V30 56 H 41.168203 31.057596 65.799318 0
M  V30 57 H 37.010793 36.328449 58.996888 0
M  V30 58 H 36.589290 36.098916 60.691310 0
M  V30 59 H 38.253412 35.887010 60.167821 0
M  V30 60 H 38.944370 23.587833 57.367970 0
M  V30 61 H 37.645135 24.171967 58.419821 0
M  V30 62 H 37.245048 23.537462 56.817553 0
M  V30 63 H 42.349971 28.809199 66.590156 0
M  V30 64 H 38.829016 30.708863 63.225415 0
M  V30 65 H 41.574750 27.564182 64.591198 0
M  V30 66 H 43.210543 27.514148 63.936548 0
M  V30 67 H 42.804389 26.621520 65.397048 0
M  V30 68 H 39.725565 29.500612 56.364261 0
M  V30 69 H 35.245143 32.275977 58.492576 0
M  V30 70 H 37.190030 33.687292 60.513731 0
M  V30 71 H 37.645514 34.281751 57.552809 0
M  V30 72 H 38.900983 33.893579 58.743649 0
M  V30 73 H 40.194498 30.022377 58.732825 0
M  V30 74 H 36.989279 29.754334 55.026994 0
M  V30 75 H 45.767230 29.890778 65.290113 0
M  V30 76 H 45.645084 30.172731 67.028368 0
M  V30 77 H 39.493238 31.874763 60.164959 0
M  V30 78 H 38.254173 30.871614 60.933174 0
M  V30 79 H 43.419111 29.994474 64.002800 0
M  V30 80 H 37.108148 27.481052 53.455868 0
M  V30 81 H 38.752350 26.984286 53.137379 0
M  V30 82 H 41.032141 29.234325 63.622756 0
M  V30 83 H 44.360554 28.336757 67.207029 0
M  V30 END ATOM
M  V30 BEGIN BOND
M  V30 1 1 3 1
M  V30 2 1 11 8
M  V30 3 1 11 10
M  V30 4 1 12 5
M  V30 5 2 13 8
M  V30 6 2 14 2
M  V30 7 1 15 2
M  V30 8 1 17 12
M  V30 9 1 17 16
M  V30 10 1 21 10
M  V30 11 1 22 14
M  V30 12 1 23 7
M  V30 13 1 24 5
M  V30 14 1 24 6
M  V30 15 1 24 16
M  V30 16 1 25 23
M  V30 17 1 26 10
M  V30 18 1 26 14
M  V30 19 1 27 6
M  V30 20 2 27 20
M  V30 21 2 28 15
M  V30 22 1 28 19
M  V30 23 1 28 22
M  V30 24 1 29 4
M  V30 25 1 30 4
M  V30 26 1 30 18
M  V30 27 1 31 30
M  V30 28 1 32 21
M  V30 29 1 33 11
M  V30 30 1 33 31
M  V30 31 1 34 9
M  V30 32 1 34 13
M  V30 33 1 34 26
M  V30 34 1 35 27
M  V30 35 1 35 32
M  V30 36 1 36 3
M  V30 37 1 36 7
M  V30 38 1 37 6
M  V30 39 1 37 32
M  V30 40 1 38 3
M  V30 41 1 38 17
M  V30 42 1 38 23
M  V30 43 1 39 2
M  V30 44 1 39 9
M  V30 45 1 3 40 CFG=3
M  V30 46 1 41 4
M  V30 47 1 42 4
M  V30 48 1 43 5
M  V30 49 1 44 5
M  V30 50 1 6 45 CFG=3
M  V30 51 1 46 7
M  V30 52 1 47 8
M  V30 53 1 48 9
M  V30 54 1 49 9
M  V30 55 1 10 50 CFG=3
M  V30 56 1 11 51 CFG=1
M  V30 57 1 52 12
M  V30 58 1 53 12
M  V30 59 1 54 13
M  V30 60 1 55 16
M  V30 61 1 17 56 CFG=1
M  V30 62 1 57 18
M  V30 63 1 58 18
M  V30 64 1 59 18
M  V30 65 1 60 19
M  V30 66 1 61 19
M  V30 67 1 62 19
M  V30 68 1 23 63 CFG=1
M  V30 69 1 24 64 CFG=3
M  V30 70 1 65 25
M  V30 71 1 66 25
M  V30 72 1 67 25
M  V30 73 1 26 68 CFG=3
M  V30 74 1 69 29
M  V30 75 1 30 70 CFG=1
M  V30 76 1 71 31
M  V30 77 1 72 31
M  V30 78 1 32 73 CFG=3
M  V30 79 1 34 74 CFG=1
M  V30 80 1 75 36
M  V30 81 1 76 36
M  V30 82 1 77 37
M  V30 83 1 78 37
M  V30 84 1 38 79 CFG=3
M  V30 85 1 80 39
M  V30 86 1 81 39
M  V30 87 1 82 16
M  V30 88 1 83 7
M  V30 END BOND
M  V30 END CTAB
M  END
>  <i_epik_Tot_Q>  (1) 
2

>  <i_epik_Tot_abs_Q>  (1) 
2

>  <i_i_glide_confnum>  (1) 
1291

>  <i_i_glide_lignum>  (1) 
142

>  <i_i_glide_posenum>  (1) 
87

>  <i_i_glide_rotatable_bonds>  (1) 
9

>  <i_lp_mmshare_version>  (1) 
72125

>  <i_m_source_file_index>  (1) 
64

>  <i_f3d_flags>  (1) 
0

>  <num_sample>  (1) 
100

>  <b_lp_Chiralities_Consistent>  (1) 
1

>  <r_epik_Charging_Adjusted_Penalty>  (1) 
0.080070908620723774

>  <r_epik_Ionization_Penalty>  (1) 
0.041568301575603359

>  <r_epik_Ionization_Penalty_Charging>  (1) 
0.040241786303222601

>  <r_epik_Ionization_Penalty_Neutral>  (1) 
0.0013265152723807572

>  <r_epik_State_Penalty>  (1) 
0.039829122317501166

>  <r_glide_ring_energy>  (1) 
1.9359321119516504

>  <r_i_docking_score>  (1) 
-7.0610141276907168

>  <r_i_glide_ecoul>  (1) 
-6.4434868224858075

>  <r_i_glide_eff_state_penalty>  (1) 
0.039829122317501166

>  <r_i_glide_einternal>  (1) 
5.2454733455523996

>  <r_i_glide_emodel>  (1) 
-76.06689730189467

>  <r_i_glide_emodel_strain>  (1) 
0.31825384230987197

>  <r_i_glide_energy>  (1) 
-55.055574734920825

>  <r_i_glide_erotb>  (1) 
0.43483266289788453

>  <r_i_glide_esite>  (1) 
-0.030409487996760243

>  <r_i_glide_evdw>  (1) 
-48.612087912435015

>  <r_i_glide_gscore>  (1) 
-7.1008432500082179

>  <r_i_glide_gscore_strain>  (1) 
0

>  <r_i_glide_hbond>  (1) 
-0.16

>  <r_i_glide_ligand_efficiency>  (1) 
-0.18105164429976198

>  <r_i_glide_ligand_efficiency_ln>  (1) 
-1.514081867782481

>  <r_i_glide_ligand_efficiency_sa>  (1) 
-0.61398440792588349

>  <r_i_glide_lipo>  (1) 
-3.0104877045647531

>  <r_i_glide_metal>  (1) 
-0

>  <r_i_glide_rewards>  (1) 
-0.93765130134996588

>  <r_lp_Energy>  (1) 
32.274032999999996

>  <s_epik_Chemistry_Notes>  (1) 
This compound has an ester and may undergo hydrolysis at high or low pH. This compound contains an acetal/aminal-like group ( X-CH(R)-Y where X, Y are N, S, or O) that may be acid/base labile, releasing an aldehyde.

>  <s_epik_cmdline>  (1) 
J2VwaWtfcHl0aG9uJywgJy1waHQnLCAnMS4wJywgJy1waCcsICc3LjQnLCAnLXRuJywgJzgnLCAnLW1hJywgJzUwMCcsICctaW1hZScsICc8aW5maWxlLm1hZT4nLCAnLW9tYWUnLCAnPG91dGZpbGUubWFlPic=

>  <s_epik_input>  (1) 
RltDQEhdMVtDSDJdW05IXVtDQEhdKFtDSDNdKVtDQEhdMVtDQEhdMltDSDJdW0NIMl1bQ0BIXShbTkhdMilbQ0BIXTNDKD1PKU9bQ0BIXShbQ0gyXTMpT1tDQEhdNFtDQEhdKE9bQ0gyXVtDQEBIXShbQ0gzXSlbQ0gyXVtPSF0pW0NIXT1bQ0hdW0NAQEhdKFtDSDJdW0NIMl01KVtDQEBIXTRjKGM1NilzYyhuNilbQ0gzXQ==

>  <s_glide_docking_method>  (1) 
confgen

>  <s_i_glide_gridfile>  (1) 
gpcr_5ht2c_6bqh_protein_autoprepared_prepared

>  <s_lp_Force_Field>  (1) 
S-OPLS

>  <s_lp_Variant>  (1) 
DiffSBDD_63-4

>  <s_m_source_file>  (1) 
generated_GPCR_5HT2C_ligand_DiffSBDD_2026-06-23_prepared.sdf

>  <GenAI_Model>  (1) 
DiffSBDD

>  <Protein>  (1) 
GPCR_5HT2C

$$$$
DiffSBDD_69
     RDKit          3D

  0  0  0  0  0  0  0  0  0  0999 V3000
M  V30 BEGIN CTAB
M  V30 COUNTS 57 57 0 0 1
M  V30 BEGIN ATOM
M  V30 1 C 39.472745 29.297830 54.810023 0
M  V30 2 N 36.445140 30.958261 58.967760 0 CHG=1
M  V30 3 C 38.414549 31.548690 54.699153 0
M  V30 4 C 38.657079 31.467847 60.018535 0 CFG=1
M  V30 5 C 39.481705 30.565033 55.146444 0
M  V30 6 C 37.386947 32.035636 59.323980 0 CFG=1
M  V30 7 C 39.609312 28.021354 54.528980 0
M  V30 8 C 39.638193 30.830890 62.336457 0
M  V30 9 C 38.432253 32.727497 56.932205 0
M  V30 10 C 37.608289 33.089252 58.190875 0
M  V30 11 C 38.058852 28.151772 52.484133 0
M  V30 12 C 38.159233 25.417870 55.356623 0 CFG=1
M  V30 13 C 37.626024 26.425878 54.315321 0
M  V30 14 C 38.586002 26.038887 56.700381 0
M  V30 15 N 37.645192 32.074807 55.849278 0 CHG=1
M  V30 16 C 37.245142 24.185684 57.527656 0
M  V30 17 C 38.405584 31.267169 61.532866 0
M  V30 18 C 39.182186 30.165718 59.364640 0
M  V30 19 S 36.893159 24.180152 55.752700 0
M  V30 20 C 38.553902 24.931666 57.741781 0
M  V30 21 C 38.688374 27.267474 53.579799 0 CFG=2
M  V30 22 H 36.938831 30.194269 58.533256 0
M  V30 23 H 35.957012 30.627646 59.786180 0
M  V30 24 H 38.884318 32.375158 54.167821 0
M  V30 25 H 37.719391 31.076945 54.003511 0
M  V30 26 H 39.435911 32.226608 59.933031 0
M  V30 27 H 40.267770 30.960442 55.767752 0
M  V30 28 H 36.842503 32.609085 60.075718 0
M  V30 29 H 40.410348 27.444670 54.967793 0
M  V30 30 H 39.403805 30.782532 63.400450 0
M  V30 31 H 39.983386 29.839136 62.044277 0
M  V30 32 H 40.464233 31.531283 62.209573 0
M  V30 33 H 39.296858 32.150175 57.238684 0
M  V30 34 H 38.832700 33.646427 56.502326 0
M  V30 35 H 38.129429 33.922869 58.663369 0
M  V30 36 H 36.653925 33.521612 57.889957 0
M  V30 37 H 38.800379 28.799961 52.015891 0
M  V30 38 H 37.645127 27.533812 51.689177 0
M  V30 39 H 37.257501 28.778279 52.876232 0
M  V30 40 H 39.002523 24.865913 54.939148 0
M  V30 41 H 36.888548 27.078517 54.779842 0
M  V30 42 H 37.077477 25.866659 53.555688 0
M  V30 43 H 39.582690 26.472205 56.676457 0
M  V30 44 H 37.890895 26.828411 56.988827 0
M  V30 45 H 36.962771 32.749686 55.507382 0
M  V30 46 H 36.445139 24.725335 58.033381 0
M  V30 47 H 37.278334 23.169807 57.918203 0
M  V30 48 H 38.044284 32.200622 61.967158 0
M  V30 49 H 37.611040 30.537757 61.684571 0
M  V30 50 H 38.546823 29.311347 59.601047 0
M  V30 51 H 39.245175 30.232094 58.280374 0
M  V30 52 H 40.181811 29.920526 59.723833 0
M  V30 53 H 38.629654 25.337755 58.750325 0
M  V30 54 H 39.396446 24.256638 57.583470 0
M  V30 55 H 39.347421 26.572486 53.056945 0
M  V30 56 H 35.772908 31.337679 58.285421 0
M  V30 57 H 37.074783 31.337860 56.244304 0
M  V30 END ATOM
M  V30 BEGIN BOND
M  V30 1 2 5 1
M  V30 2 1 5 3
M  V30 3 1 6 2
M  V30 4 1 6 4
M  V30 5 2 7 1
M  V30 6 1 10 6
M  V30 7 1 10 9
M  V30 8 1 13 12
M  V30 9 1 14 12
M  V30 10 1 15 3
M  V30 11 1 15 9
M  V30 12 1 17 4
M  V30 13 1 17 8
M  V30 14 1 18 4
M  V30 15 1 19 12
M  V30 16 1 19 16
M  V30 17 1 20 14
M  V30 18 1 20 16
M  V30 19 1 21 7
M  V30 20 1 21 11
M  V30 21 1 21 13
M  V30 22 1 22 2
M  V30 23 1 23 2
M  V30 24 1 24 3
M  V30 25 1 25 3
M  V30 26 1 4 26 CFG=1
M  V30 27 1 27 5
M  V30 28 1 6 28 CFG=1
M  V30 29 1 29 7
M  V30 30 1 30 8
M  V30 31 1 31 8
M  V30 32 1 32 8
M  V30 33 1 33 9
M  V30 34 1 34 9
M  V30 35 1 35 10
M  V30 36 1 36 10
M  V30 37 1 37 11
M  V30 38 1 38 11
M  V30 39 1 39 11
M  V30 40 1 12 40 CFG=3
M  V30 41 1 41 13
M  V30 42 1 42 13
M  V30 43 1 43 14
M  V30 44 1 44 14
M  V30 45 1 45 15
M  V30 46 1 46 16
M  V30 47 1 47 16
M  V30 48 1 48 17
M  V30 49 1 49 17
M  V30 50 1 50 18
M  V30 51 1 51 18
M  V30 52 1 52 18
M  V30 53 1 53 20
M  V30 54 1 54 20
M  V30 55 1 21 55 CFG=3
M  V30 56 1 56 2
M  V30 57 1 57 15
M  V30 END BOND
M  V30 END CTAB
M  END
>  <i_epik_Tot_Q>  (1) 
2

>  <i_epik_Tot_abs_Q>  (1) 
2

>  <i_i_glide_confnum>  (1) 
460

>  <i_i_glide_lignum>  (1) 
154

>  <i_i_glide_posenum>  (1) 
330

>  <i_i_glide_rotatable_bonds>  (1) 
10

>  <i_lp_mmshare_version>  (1) 
72125

>  <i_m_source_file_index>  (1) 
70

>  <i_f3d_flags>  (1) 
0

>  <num_sample>  (1) 
100

>  <b_lp_Chiralities_Consistent>  (1) 
1

>  <r_epik_Charging_Adjusted_Penalty>  (1) 
0.029112061252425856

>  <r_epik_Ionization_Penalty>  (1) 
0.014593894863530521

>  <r_epik_Ionization_Penalty_Charging>  (1) 
0.014593894863530521

>  <r_epik_Ionization_Penalty_Neutral>  (1) 
0

>  <r_epik_State_Penalty>  (1) 
0.014518166388895335

>  <r_glide_ring_energy>  (1) 
0

>  <r_i_docking_score>  (1) 
-7.0547095834728948

>  <r_i_glide_ecoul>  (1) 
-9.5933768177949084

>  <r_i_glide_eff_state_penalty>  (1) 
0.014518166388895335

>  <r_i_glide_einternal>  (1) 
14.415574692751557

>  <r_i_glide_emodel>  (1) 
-55.651017374109976

>  <r_i_glide_emodel_strain>  (1) 
0.37528877908487601

>  <r_i_glide_energy>  (1) 
-36.307322180777362

>  <r_i_glide_erotb>  (1) 
1.5199289784806138

>  <r_i_glide_esite>  (1) 
-0.20000000000000001

>  <r_i_glide_evdw>  (1) 
-26.71394536298245

>  <r_i_glide_gscore>  (1) 
-7.0692277498617901

>  <r_i_glide_gscore_strain>  (1) 
0

>  <r_i_glide_hbond>  (1) 
-0.45460711816582411

>  <r_i_glide_ligand_efficiency>  (1) 
-0.33593855159394737

>  <r_i_glide_ligand_efficiency_ln>  (1) 
-1.744262689130696

>  <r_i_glide_ligand_efficiency_sa>  (1) 
-0.92682899177099798

>  <r_i_glide_lipo>  (1) 
-3.2887160216920606

>  <r_i_glide_metal>  (1) 
-0

>  <r_i_glide_rewards>  (1) 
-1.8711297976661614

>  <r_lp_Energy>  (1) 
2.2558279999999997

>  <s_epik_cmdline>  (1) 
J2VwaWtfcHl0aG9uJywgJy1waHQnLCAnMS4wJywgJy1waCcsICc3LjQnLCAnLXRuJywgJzgnLCAnLW1hJywgJzUwMCcsICctaW1hZScsICc8aW5maWxlLm1hZT4nLCAnLW9tYWUnLCAnPG91dGZpbGUubWFlPic=

>  <s_epik_input>  (1) 
UzFbQ0gyXVtDSDJdW0NIMl1bQ0BASF0xW0NIMl1bQ0BIXShbQ0gzXSlbQ0hdPUM9W0NIXVtDSDJdW05IXVtDSDJdW0NIMl1bQ0BASF0oW05IMl0pW0NASF0oW0NIM10pW0NIMl1bQ0gzXQ==

>  <s_glide_docking_method>  (1) 
confgen

>  <s_i_glide_gridfile>  (1) 
gpcr_5ht2c_6bqh_protein_autoprepared_prepared

>  <s_lp_Force_Field>  (1) 
S-OPLS

>  <s_lp_Variant>  (1) 
DiffSBDD_69-2

>  <s_m_source_file>  (1) 
generated_GPCR_5HT2C_ligand_DiffSBDD_2026-06-23_prepared.sdf

>  <GenAI_Model>  (1) 
DiffSBDD

>  <Protein>  (1) 
GPCR_5HT2C

$$$$
DiffSBDD_84
     RDKit          3D

  0  0  0  0  0  0  0  0  0  0999 V3000
M  V30 BEGIN CTAB
M  V30 COUNTS 77 81 0 0 1
M  V30 BEGIN ATOM
M  V30 1 C 38.106687 31.591995 54.400210 0
M  V30 2 C 41.728539 33.338387 62.728525 0
M  V30 3 C 39.676274 30.719294 60.783414 0
M  V30 4 C 38.777768 24.723396 57.073386 0
M  V30 5 S 38.045811 27.819767 57.645003 0
M  V30 6 C 41.985243 34.140790 66.913134 0
M  V30 7 C 41.197260 32.675830 65.175873 0
M  V30 8 C 35.034890 32.262889 60.111602 0
M  V30 9 O 37.655962 24.689825 57.932099 0
M  V30 10 C 39.010273 32.927060 61.675319 0
M  V30 11 C 40.746747 31.320778 64.663818 0
M  V30 12 C 41.219064 33.800061 64.118806 0 CFG=1
M  V30 13 C 37.358382 31.543039 60.349448 0
M  V30 14 N 38.045137 32.525121 55.542413 0 CHG=1
M  V30 15 C 38.628772 25.761211 55.938201 0
M  V30 16 C 39.061968 30.395790 54.611046 0
M  V30 17 N 41.513074 32.860247 66.400452 0
M  V30 18 C 36.050698 31.329526 59.858269 0
M  V30 19 N 39.215280 30.145863 57.595597 0
M  V30 20 N 39.957772 31.808437 61.551057 0
M  V30 21 C 41.577650 35.347271 66.052898 0
M  V30 22 C 37.620563 32.691981 61.120048 0
M  V30 23 N 39.003298 27.083742 56.433021 0
M  V30 24 C 37.242107 25.768577 55.257738 0
M  V30 25 C 41.272609 31.934416 62.247129 0 CFG=2
M  V30 26 O 40.445921 29.760161 60.711295 0
M  V30 27 C 36.597501 33.627091 61.368468 0
M  V30 28 O 36.983333 24.522745 54.662581 0
M  V30 29 C 41.964114 35.055551 64.607722 0
M  V30 30 C 38.158180 29.439997 56.878116 0 CFG=1
M  V30 31 C 41.474179 30.907872 63.383391 0
M  V30 32 N 38.732947 31.115951 58.502851 0
M  V30 33 N 39.321550 27.990500 55.326081 0 CHG=1
M  V30 34 C 35.307719 33.409613 60.864113 0
M  V30 35 C 38.435102 30.663764 59.863925 0 CFG=1
M  V30 36 C 38.466748 29.196938 55.392668 0 CFG=2
M  V30 37 H 38.443432 32.162329 53.533674 0
M  V30 38 H 37.097768 31.248948 54.168229 0
M  V30 39 H 42.816174 33.292453 62.799204 0
M  V30 40 H 41.534205 34.099944 61.973222 0
M  V30 41 H 39.690441 24.881244 57.649900 0
M  V30 42 H 38.862553 23.737767 56.628524 0
M  V30 43 H 41.604755 34.281621 67.925545 0
M  V30 44 H 43.070799 34.103805 67.003125 0
M  V30 45 H 34.043906 32.099513 59.718357 0
M  V30 46 H 37.627732 25.499417 58.418156 0
M  V30 47 H 38.857939 33.129424 62.730818 0
M  V30 48 H 39.419222 33.822432 61.206992 0
M  V30 49 H 39.677006 31.347390 64.477977 0
M  V30 50 H 37.456279 33.309232 55.282690 0
M  V30 51 H 37.567851 32.090731 56.322043 0
M  V30 52 H 39.372601 25.491131 55.186417 0
M  V30 53 H 40.005114 30.730570 55.044084 0
M  V30 54 H 39.323490 30.030143 53.616726 0
M  V30 55 H 35.835175 30.454640 59.261268 0
M  V30 56 H 39.865531 30.593813 56.953592 0
M  V30 57 H 40.504249 35.525789 66.128874 0
M  V30 58 H 42.069596 36.253604 66.406816 0
M  V30 59 H 36.446374 25.987639 55.969454 0
M  V30 60 H 37.188549 26.523112 54.473494 0
M  V30 61 H 42.001110 31.701534 61.471147 0
M  V30 62 H 36.803684 34.512730 61.948985 0
M  V30 63 H 36.109366 24.526598 54.301324 0
M  V30 64 H 41.742231 35.913332 63.969459 0
M  V30 65 H 43.041711 34.898611 64.568168 0
M  V30 66 H 37.211097 29.972728 56.985914 0
M  V30 67 H 41.155211 29.906210 63.096995 0
M  V30 68 H 42.540718 30.817411 63.598257 0
M  V30 69 H 37.915736 31.593913 58.127936 0
M  V30 70 H 40.293782 28.235960 55.452432 0
M  V30 71 H 34.526947 34.125331 61.053374 0
M  V30 72 H 38.068920 29.637103 59.850441 0
M  V30 73 H 37.526183 28.916964 54.915622 0
M  V30 74 H 39.191843 27.480747 54.463263 0
M  V30 75 H 40.189416 34.114848 63.996162 0
M  V30 76 H 40.906442 30.568393 65.436937 0
M  V30 77 H 38.959792 32.858349 55.809647 0
M  V30 END ATOM
M  V30 BEGIN BOND
M  V30 1 1 9 4
M  V30 2 1 11 7
M  V30 3 1 12 2
M  V30 4 1 12 7
M  V30 5 1 14 1
M  V30 6 1 15 4
M  V30 7 1 16 1
M  V30 8 1 17 6
M  V30 9 2 17 7
M  V30 10 1 18 8
M  V30 11 2 18 13
M  V30 12 1 20 3
M  V30 13 1 20 10
M  V30 14 1 21 6
M  V30 15 1 22 10
M  V30 16 1 22 13
M  V30 17 1 23 5
M  V30 18 1 23 15
M  V30 19 1 24 15
M  V30 20 1 25 2
M  V30 21 1 25 20
M  V30 22 2 26 3
M  V30 23 2 27 22
M  V30 24 1 28 24
M  V30 25 1 29 12
M  V30 26 1 29 21
M  V30 27 1 30 5
M  V30 28 1 30 19
M  V30 29 1 31 11
M  V30 30 1 31 25
M  V30 31 1 32 19
M  V30 32 1 33 23
M  V30 33 2 34 8
M  V30 34 1 34 27
M  V30 35 1 35 3
M  V30 36 1 35 13
M  V30 37 1 35 32
M  V30 38 1 36 16
M  V30 39 1 36 30
M  V30 40 1 36 33
M  V30 41 1 37 1
M  V30 42 1 38 1
M  V30 43 1 39 2
M  V30 44 1 40 2
M  V30 45 1 41 4
M  V30 46 1 42 4
M  V30 47 1 43 6
M  V30 48 1 44 6
M  V30 49 1 45 8
M  V30 50 1 46 9
M  V30 51 1 47 10
M  V30 52 1 48 10
M  V30 53 1 49 11
M  V30 54 1 50 14
M  V30 55 1 51 14
M  V30 56 1 52 15
M  V30 57 1 53 16
M  V30 58 1 54 16
M  V30 59 1 55 18
M  V30 60 1 56 19
M  V30 61 1 57 21
M  V30 62 1 58 21
M  V30 63 1 59 24
M  V30 64 1 60 24
M  V30 65 1 25 61 CFG=3
M  V30 66 1 62 27
M  V30 67 1 63 28
M  V30 68 1 64 29
M  V30 69 1 65 29
M  V30 70 1 30 66 CFG=3
M  V30 71 1 67 31
M  V30 72 1 68 31
M  V30 73 1 69 32
M  V30 74 1 70 33
M  V30 75 1 71 34
M  V30 76 1 35 72 CFG=3
M  V30 77 1 36 73 CFG=3
M  V30 78 1 74 33
M  V30 79 1 12 75 CFG=3
M  V30 80 1 76 11
M  V30 81 1 77 14
M  V30 END BOND
M  V30 END CTAB
M  END
>  <i_epik_Tot_Q>  (1) 
2

>  <i_epik_Tot_abs_Q>  (1) 
2

>  <i_i_glide_confnum>  (1) 
918

>  <i_i_glide_lignum>  (1) 
199

>  <i_i_glide_posenum>  (1) 
358

>  <i_i_glide_rotatable_bonds>  (1) 
11

>  <i_lp_mmshare_version>  (1) 
72125

>  <i_m_source_file_index>  (1) 
85

>  <i_f3d_flags>  (1) 
0

>  <num_sample>  (1) 
100

>  <b_lp_Chiralities_Consistent>  (1) 
1

>  <r_epik_Charging_Adjusted_Penalty>  (1) 
0.034284474231679775

>  <r_epik_Ionization_Penalty>  (1) 
0.42650113434003467

>  <r_epik_Ionization_Penalty_Charging>  (1) 
0.012847136256187231

>  <r_epik_Ionization_Penalty_Neutral>  (1) 
0.41365399808384745

>  <r_epik_State_Penalty>  (1) 
0.021437337975492542

>  <r_glide_ring_energy>  (1) 
0.20284343658850779

>  <r_i_docking_score>  (1) 
-7.0521629413071354

>  <r_i_glide_ecoul>  (1) 
-4.715824412553852

>  <r_i_glide_eff_state_penalty>  (1) 
0.021437337975492542

>  <r_i_glide_einternal>  (1) 
17.41494546364213

>  <r_i_glide_emodel>  (1) 
-67.975274426443988

>  <r_i_glide_emodel_strain>  (1) 
0.018300297517001241

>  <r_i_glide_energy>  (1) 
-52.777495228188066

>  <r_i_glide_erotb>  (1) 
0.60855438394346106

>  <r_i_glide_esite>  (1) 
-0.13603050911793022

>  <r_i_glide_evdw>  (1) 
-48.061670815634216

>  <r_i_glide_gscore>  (1) 
-7.073600279282628

>  <r_i_glide_gscore_strain>  (1) 
0

>  <r_i_glide_hbond>  (1) 
-0.23445414347179475

>  <r_i_glide_ligand_efficiency>  (1) 
-0.1958934150363093

>  <r_i_glide_ligand_efficiency_ln>  (1) 
-1.5385914263686999

>  <r_i_glide_ligand_efficiency_sa>  (1) 
-0.64682580498741427

>  <r_i_glide_lipo>  (1) 
-3.1589305945912698

>  <r_i_glide_metal>  (1) 
-0

>  <r_i_glide_rewards>  (1) 
-1.0422822133803056

>  <r_lp_Energy>  (1) 
55.540033999999999

>  <r_lp_tautomer_probability>  (1) 
0.99998399999999998

>  <s_epik_Chemistry_Notes>  (1) 
This compound has an imine and may undergo hydrolysis. This compound contains an acetal/aminal-like group ( X-CH(R)-Y where X, Y are N, S, or O) that may be acid/base labile, releasing an aldehyde. This compound has a N-S or N-O group and may undergo hydrolysis at high or low pH.

>  <s_epik_cmdline>  (1) 
J2VwaWtfcHl0aG9uJywgJy1waHQnLCAnMS4wJywgJy1waCcsICc3LjQnLCAnLXRuJywgJzgnLCAnLW1hJywgJzUwMCcsICctaW1hZScsICc8aW5maWxlLm1hZT4nLCAnLW9tYWUnLCAnPG91dGZpbGUubWFlPic=

>  <s_epik_input>  (1) 
W09IXVtDSDJdW0NIXShbQ0gyXVtPSF0pTjFTW0NASF0oW0NASF0oW05IXTEpW0NIMl1bQ0gyXVtOSDJdKVtOSF1bTkhdW0NASF0yQyg9TylOKFtDSDJdYyhjMjMpW2NIXVtjSF1bY0hdW2NIXTMpW0NASF0oW0NIMl1bQ0gyXTQpW0NIMl1DKD1DNDUpW0NIMl1bQ0gyXVtDSDJdW05IXTU=

>  <s_glide_docking_method>  (1) 
confgen

>  <s_i_glide_gridfile>  (1) 
gpcr_5ht2c_6bqh_protein_autoprepared_prepared

>  <s_lp_Force_Field>  (1) 
S-OPLS

>  <s_lp_Variant>  (1) 
DiffSBDD_84-2

>  <s_m_source_file>  (1) 
generated_GPCR_5HT2C_ligand_DiffSBDD_2026-06-23_prepared.sdf

>  <GenAI_Model>  (1) 
DiffSBDD

>  <Protein>  (1) 
GPCR_5HT2C

$$$$
DiffSBDD_8
     RDKit          3D

  0  0  0  0  0  0  0  0  0  0999 V3000
M  V30 BEGIN CTAB
M  V30 COUNTS 46 50 0 0 1
M  V30 BEGIN ATOM
M  V30 1 C 37.592795 24.946787 56.247901 0
M  V30 2 O 40.791847 28.537651 51.367602 0
M  V30 3 C 36.865661 23.829234 56.367601 0
M  V30 4 C 39.314391 29.018364 54.981810 0
M  V30 5 N 38.805359 27.732251 54.465859 0
M  V30 6 C 38.504770 28.979473 52.226640 0
M  V30 7 C 39.921283 28.966259 56.403713 0
M  V30 8 C 38.042221 29.200370 59.042478 0
M  V30 9 N 38.356973 25.516366 57.231196 0
M  V30 10 C 40.201111 30.914183 51.665948 0
M  V30 11 C 39.174514 26.699482 56.748064 0 CFG=1
M  V30 12 N 39.154041 28.915349 59.599938 0
M  V30 13 C 40.635964 29.805702 50.734604 0 CFG=1
M  V30 14 C 39.920417 29.474642 52.007007 0 CFG=1
M  V30 15 C 37.678076 25.694748 55.113843 0
M  V30 16 N 39.823740 28.107424 58.736640 0
M  V30 17 C 38.502528 26.695176 55.334429 0
M  V30 18 C 37.743962 28.651330 57.703687 0
M  V30 19 C 40.044775 29.684653 49.362963 0
M  V30 20 C 38.423415 27.678974 53.041958 0
M  V30 21 C 41.261768 28.027551 58.990852 0
M  V30 22 C 39.143576 28.085225 57.417449 0 CFG=1
M  V30 23 H 36.845431 23.278051 57.296327 0
M  V30 24 H 36.287168 23.447905 55.538934 0
M  V30 25 H 38.482468 29.722283 54.987021 0
M  V30 26 H 40.069976 29.457574 54.347618 0
M  V30 27 H 38.020497 28.834351 51.266287 0
M  V30 28 H 37.944300 29.736773 52.762771 0
M  V30 29 H 40.040750 29.982612 56.785448 0
M  V30 30 H 40.935640 28.575591 56.307164 0
M  V30 31 H 37.308424 29.836623 59.538858 0
M  V30 32 H 38.608153 25.028997 58.077442 0
M  V30 33 H 39.459568 31.598185 51.271711 0
M  V30 34 H 40.906657 31.353127 52.349229 0
M  V30 35 H 37.122242 25.521143 54.204545 0
M  V30 36 H 36.980031 27.875174 57.771979 0
M  V30 37 H 37.414219 29.423785 57.008161 0
M  V30 38 H 39.645923 30.640223 49.025534 0
M  V30 39 H 40.809012 29.335631 48.670322 0
M  V30 40 H 39.249681 28.943133 49.368225 0
M  V30 41 H 39.018427 26.905881 52.554334 0
M  V30 42 H 37.390884 27.336846 52.981635 0
M  V30 43 H 41.736503 28.984760 58.770311 0
M  V30 44 H 41.453438 27.778642 60.036174 0
M  V30 45 H 41.703558 27.259304 58.354856 0
M  V30 46 H 40.203617 26.355575 56.627411 0
M  V30 END ATOM
M  V30 BEGIN BOND
M  V30 1 2 3 1
M  V30 2 1 5 4
M  V30 3 1 7 4
M  V30 4 1 9 1
M  V30 5 1 11 9
M  V30 6 2 12 8
M  V30 7 1 13 2
M  V30 8 1 13 10
M  V30 9 1 14 2
M  V30 10 1 14 6 CFG=1
M  V30 11 1 14 10
M  V30 12 1 14 13
M  V30 13 1 15 1
M  V30 14 1 16 12
M  V30 15 1 17 5
M  V30 16 1 17 11
M  V30 17 2 17 15
M  V30 18 1 18 8
M  V30 19 1 13 19 CFG=3
M  V30 20 1 20 5
M  V30 21 1 20 6
M  V30 22 1 21 16
M  V30 23 1 22 7
M  V30 24 1 22 11
M  V30 25 1 22 16 CFG=1
M  V30 26 1 22 18
M  V30 27 1 23 3
M  V30 28 1 24 3
M  V30 29 1 25 4
M  V30 30 1 26 4
M  V30 31 1 27 6
M  V30 32 1 28 6
M  V30 33 1 29 7
M  V30 34 1 30 7
M  V30 35 1 31 8
M  V30 36 1 32 9
M  V30 37 1 33 10
M  V30 38 1 34 10
M  V30 39 1 35 15
M  V30 40 1 36 18
M  V30 41 1 37 18
M  V30 42 1 38 19
M  V30 43 1 39 19
M  V30 44 1 40 19
M  V30 45 1 41 20
M  V30 46 1 42 20
M  V30 47 1 43 21
M  V30 48 1 44 21
M  V30 49 1 45 21
M  V30 50 1 11 46 CFG=3
M  V30 END BOND
M  V30 END CTAB
M  END
>  <i_epik_Tot_Q>  (1) 
0

>  <i_epik_Tot_abs_Q>  (1) 
0

>  <i_i_glide_confnum>  (1) 
13

>  <i_i_glide_lignum>  (1) 
11

>  <i_i_glide_posenum>  (1) 
306

>  <i_i_glide_rotatable_bonds>  (1) 
3

>  <i_lp_mmshare_version>  (1) 
72125

>  <i_m_source_file_index>  (1) 
9

>  <i_f3d_flags>  (1) 
0

>  <num_sample>  (1) 
100

>  <b_lp_Chiralities_Consistent>  (1) 
1

>  <r_epik_Charging_Adjusted_Penalty>  (1) 
0.0013502642422006258

>  <r_epik_Ionization_Penalty>  (1) 
0.0017789760984620326

>  <r_epik_Ionization_Penalty_Charging>  (1) 
0.0013502642422006258

>  <r_epik_Ionization_Penalty_Neutral>  (1) 
0.00042871185626140696

>  <r_epik_State_Penalty>  (1) 
-0

>  <r_glide_ring_energy>  (1) 
0

>  <r_i_docking_score>  (1) 
-7.0512818751697024

>  <r_i_glide_ecoul>  (1) 
-1.3398332968844704

>  <r_i_glide_eff_state_penalty>  (1) 
-0

>  <r_i_glide_einternal>  (1) 
13.189022559192928

>  <r_i_glide_emodel>  (1) 
-39.099566286159629

>  <r_i_glide_emodel_strain>  (1) 
0.2688783999921327

>  <r_i_glide_energy>  (1) 
-32.529253750000521

>  <r_i_glide_erotb>  (1) 
0.61104831889555555

>  <r_i_glide_esite>  (1) 
0

>  <r_i_glide_evdw>  (1) 
-31.189420453116053

>  <r_i_glide_gscore>  (1) 
-7.0512818751697024

>  <r_i_glide_gscore_strain>  (1) 
0

>  <r_i_glide_hbond>  (1) 
0

>  <r_i_glide_ligand_efficiency>  (1) 
-0.32051281250771374

>  <r_i_glide_ligand_efficiency_ln>  (1) 
-1.7235904920471654

>  <r_i_glide_ligand_efficiency_sa>  (1) 
-0.89808950662558995

>  <r_i_glide_lipo>  (1) 
-3.4159534933723443

>  <r_i_glide_metal>  (1) 
-0

>  <r_i_glide_rewards>  (1) 
-2.4859306835044399

>  <r_lp_Energy>  (1) 
30.330791999999999

>  <r_lp_tautomer_probability>  (1) 
1

>  <s_epik_Chemistry_Notes>  (1) 
This compound has an imine and may undergo hydrolysis.

>  <s_epik_cmdline>  (1) 
J2VwaWtfcHl0aG9uJywgJy1waHQnLCAnMS4wJywgJy1waCcsICc3LjQnLCAnLXRuJywgJzgnLCAnLW1hJywgJzUwMCcsICctaW1hZScsICc8aW5maWxlLm1hZT4nLCAnLW9tYWUnLCAnPG91dGZpbGUubWFlPic=

>  <s_epik_input>  (1) 
W0NIM11bQ0BAXTEyW0NAQF0oTzEpKFtDSDJdMilbQ0gyXVtDSDJdTihbQ0gyXVtDSDJdMyljKFtjSF1jKFtDSDNdKVtuSF00KWM0W0NAQF0zNU4oW0NIM10pTj1bQ0hdW0NIMl01

>  <s_glide_docking_method>  (1) 
confgen

>  <s_i_glide_gridfile>  (1) 
gpcr_5ht2c_6bqh_protein_autoprepared_prepared

>  <s_lp_Force_Field>  (1) 
S-OPLS

>  <s_lp_Variant>  (1) 
DiffSBDD_8-1

>  <s_m_source_file>  (1) 
generated_GPCR_5HT2C_ligand_DiffSBDD_2026-06-23_prepared.sdf

>  <GenAI_Model>  (1) 
DiffSBDD

>  <Protein>  (1) 
GPCR_5HT2C

$$$$
DiffSBDD_78
     RDKit          3D

  0  0  0  0  0  0  0  0  0  0999 V3000
M  V30 BEGIN CTAB
M  V30 COUNTS 105 110 0 0 1
M  V30 BEGIN ATOM
M  V30 1 O 38.085333 25.615759 54.837761 0
M  V30 2 C 37.669877 37.291369 62.229206 0
M  V30 3 C 41.301802 31.674545 61.620882 0 CFG=1
M  V30 4 C 40.114314 30.929720 53.773528 0
M  V30 5 O 40.843612 30.137478 49.523105 0
M  V30 6 C 38.985039 35.029487 62.606729 0 CFG=2
M  V30 7 C 39.172980 26.500815 54.617303 0
M  V30 8 O 39.645007 28.729920 53.955400 0
M  V30 9 C 38.405837 36.324506 63.133833 0 CFG=1
M  V30 10 O 39.339717 27.602949 58.861941 0
M  V30 11 C 42.611352 31.130285 69.570481 0
M  V30 12 N 40.510193 32.818527 62.028283 0
M  V30 13 N 39.852798 36.159230 62.916032 0 CFG=2 CHG=1
M  V30 14 C 41.495490 29.752543 71.169437 0
M  V30 15 C 38.480465 38.227927 61.348909 0
M  V30 16 C 41.515532 30.529711 62.613854 0 CFG=1
M  V30 17 N 39.567873 33.180072 61.011594 0
M  V30 18 C 38.444753 24.449945 55.540627 0
M  V30 19 C 38.925922 34.493713 61.158093 0 CFG=1
M  V30 20 C 41.654387 29.161393 69.800858 0
M  V30 21 C 37.571929 33.921868 59.026243 0
M  V30 22 C 39.482856 29.769402 53.033509 0 CFG=2
M  V30 23 C 38.313756 31.126425 60.654126 0
M  V30 24 C 42.589590 29.636667 67.497276 0
M  V30 25 C 40.225403 30.574850 50.701072 0
M  V30 26 C 38.619366 27.786122 54.000635 0 CFG=2
M  V30 27 C 39.139683 30.139346 61.480891 0
M  V30 28 C 38.442780 24.648307 57.058858 0
M  V30 29 O 36.445842 37.338994 62.215524 0
M  V30 30 C 37.668450 33.785738 60.561906 0
M  V30 31 C 42.256099 29.918062 68.951466 0
M  V30 32 C 36.294049 34.207393 61.081131 0
M  V30 33 C 38.057180 28.985913 56.232637 0
M  V30 34 C 40.570577 36.935913 61.887348 0
M  V30 35 C 41.597745 30.294215 66.523600 0
M  V30 36 C 42.069415 30.192739 65.066309 0
M  V30 37 O 42.173738 31.070685 70.905139 0
M  V30 38 N 37.667657 29.558885 58.846525 0
M  V30 39 S 37.645194 27.937107 57.683344 0
M  V30 40 C 37.634063 30.802578 59.512696 0
M  V30 41 C 40.103617 29.394609 51.666943 0
M  V30 42 C 38.670881 28.622228 59.011652 0
M  V30 43 C 39.943629 38.329755 61.767734 0
M  V30 44 C 40.984793 30.572988 64.046631 0
M  V30 45 O 43.198291 32.075098 69.046143 0
M  V30 46 C 38.281757 32.532437 61.237569 0 CFG=2
M  V30 47 C 40.635150 30.341512 61.382934 0 CFG=1
M  V30 48 C 37.553078 28.414180 54.877912 0
M  V30 49 H 42.120022 31.877803 60.940120 0
M  V30 50 H 40.144161 31.737808 53.078136 0
M  V30 51 H 41.118913 30.722568 54.140678 0
M  V30 52 H 39.508603 31.233090 54.627802 0
M  V30 53 H 41.131508 30.897954 49.040686 0
M  V30 54 H 39.245090 34.302297 63.367549 0
M  V30 55 H 39.906258 26.048142 53.948357 0
M  V30 56 H 39.686817 26.725568 55.552103 0
M  V30 57 H 38.224789 36.421889 64.201718 0
M  V30 58 H 41.126415 33.599056 62.248963 0
M  V30 59 H 42.020426 29.171900 71.926643 0
M  V30 60 H 38.013905 39.213062 61.365235 0
M  V30 61 H 38.398452 37.865904 60.325974 0
M  V30 62 H 42.449024 29.977935 62.567759 0
M  V30 63 H 37.732242 23.668329 55.278060 0
M  V30 64 H 39.424737 24.137777 55.198579 0
M  V30 65 H 39.295306 35.170394 60.395084 0
M  V30 66 H 41.282645 28.171362 69.575408 0
M  V30 67 H 36.627394 33.553818 58.622658 0
M  V30 68 H 38.381087 33.405653 58.507557 0
M  V30 69 H 37.618231 34.966759 58.725962 0
M  V30 70 H 38.437244 30.022075 52.896976 0
M  V30 71 H 42.591780 28.557330 67.337734 0
M  V30 72 H 43.607388 29.972508 67.291936 0
M  V30 73 H 40.875502 31.337892 51.117004 0
M  V30 74 H 39.259871 31.028557 50.476764 0
M  V30 75 H 38.228775 27.562032 53.005276 0
M  V30 76 H 38.878433 29.088140 61.418045 0
M  V30 77 H 38.837337 30.362167 62.501276 0
M  V30 78 H 38.700385 23.726468 57.575249 0
M  V30 79 H 37.461180 24.966155 57.410411 0
M  V30 80 H 39.174852 25.396624 57.359264 0
M  V30 81 H 40.447408 29.880315 71.439550 0
M  V30 82 H 35.512075 33.538306 60.718316 0
M  V30 83 H 36.045180 35.208792 60.733674 0
M  V30 84 H 36.233013 34.205247 62.167719 0
M  V30 85 H 37.602746 29.969413 56.357650 0
M  V30 86 H 39.133577 29.154599 56.238664 0
M  V30 87 H 41.604089 36.939440 62.235248 0
M  V30 88 H 40.654885 36.459571 60.923411 0
M  V30 89 H 40.621546 29.818438 66.635777 0
M  V30 90 H 41.460589 31.346379 66.777853 0
M  V30 91 H 42.948852 30.825021 64.930654 0
M  V30 92 H 42.395420 29.170404 64.866231 0
M  V30 93 H 36.996823 29.386517 58.111133 0
M  V30 94 H 37.019474 31.513184 58.995671 0
M  V30 95 H 41.092690 28.949765 51.768601 0
M  V30 96 H 39.491340 28.619419 51.205036 0
M  V30 97 H 40.444951 38.937913 61.009899 0
M  V30 98 H 40.045103 38.865448 62.712960 0
M  V30 99 H 40.590604 31.560577 64.282611 0
M  V30 100 H 40.162521 29.866439 64.152937 0
M  V30 101 H 38.027749 32.489663 62.299310 0
M  V30 102 H 41.068925 29.767565 60.568600 0
M  V30 103 H 37.024028 29.198682 54.337279 0
M  V30 104 H 36.845159 27.610115 54.967802 0
M  V30 105 H 40.340506 36.074058 63.797210 0
M  V30 END ATOM
M  V30 BEGIN BOND
M  V30 1 1 7 1
M  V30 2 1 9 2
M  V30 3 1 9 6
M  V30 4 1 12 3
M  V30 5 1 13 6
M  V30 6 1 13 9
M  V30 7 1 15 2
M  V30 8 1 16 3
M  V30 9 1 17 12
M  V30 10 1 18 1
M  V30 11 1 19 6
M  V30 12 1 19 17
M  V30 13 1 20 14
M  V30 14 1 22 4
M  V30 15 1 22 8
M  V30 16 1 25 5
M  V30 17 1 26 7
M  V30 18 1 26 8
M  V30 19 1 27 23
M  V30 20 1 28 18
M  V30 21 2 29 2
M  V30 22 1 30 19
M  V30 23 1 30 21
M  V30 24 1 31 11
M  V30 25 2 31 20
M  V30 26 1 31 24
M  V30 27 1 32 30
M  V30 28 1 34 13
M  V30 29 1 35 24
M  V30 30 1 36 35
M  V30 31 1 37 11
M  V30 32 1 37 14
M  V30 33 1 39 33
M  V30 34 2 40 23
M  V30 35 1 40 38
M  V30 36 1 41 22
M  V30 37 1 41 25
M  V30 38 2 42 10
M  V30 39 1 42 38
M  V30 40 1 42 39
M  V30 41 1 43 15
M  V30 42 1 43 34
M  V30 43 1 44 16
M  V30 44 1 44 36
M  V30 45 2 45 11
M  V30 46 1 46 17
M  V30 47 1 46 23
M  V30 48 1 46 30
M  V30 49 1 47 3
M  V30 50 1 47 16
M  V30 51 1 47 27
M  V30 52 1 48 26
M  V30 53 1 48 33
M  V30 54 1 3 49 CFG=3
M  V30 55 1 50 4
M  V30 56 1 51 4
M  V30 57 1 52 4
M  V30 58 1 53 5
M  V30 59 1 6 54 CFG=1
M  V30 60 1 55 7
M  V30 61 1 56 7
M  V30 62 1 9 57 CFG=1
M  V30 63 1 58 12
M  V30 64 1 59 14
M  V30 65 1 60 15
M  V30 66 1 61 15
M  V30 67 1 16 62 CFG=1
M  V30 68 1 63 18
M  V30 69 1 64 18
M  V30 70 1 19 65 CFG=3
M  V30 71 1 66 20
M  V30 72 1 67 21
M  V30 73 1 68 21
M  V30 74 1 69 21
M  V30 75 1 22 70 CFG=3
M  V30 76 1 71 24
M  V30 77 1 72 24
M  V30 78 1 73 25
M  V30 79 1 74 25
M  V30 80 1 26 75 CFG=3
M  V30 81 1 76 27
M  V30 82 1 77 27
M  V30 83 1 78 28
M  V30 84 1 79 28
M  V30 85 1 80 28
M  V30 86 1 81 14
M  V30 87 1 82 32
M  V30 88 1 83 32
M  V30 89 1 84 32
M  V30 90 1 85 33
M  V30 91 1 86 33
M  V30 92 1 87 34
M  V30 93 1 88 34
M  V30 94 1 89 35
M  V30 95 1 90 35
M  V30 96 1 91 36
M  V30 97 1 92 36
M  V30 98 1 93 38
M  V30 99 1 94 40
M  V30 100 1 95 41
M  V30 101 1 96 41
M  V30 102 1 97 43
M  V30 103 1 98 43
M  V30 104 1 99 44
M  V30 105 1 100 44
M  V30 106 1 46 101 CFG=1
M  V30 107 1 47 102 CFG=3
M  V30 108 1 103 48
M  V30 109 1 104 48
M  V30 110 1 13 105 CFG=1
M  V30 END BOND
M  V30 END CTAB
M  END
>  <i_epik_Tot_Q>  (1) 
1

>  <i_epik_Tot_abs_Q>  (1) 
1

>  <i_i_glide_confnum>  (1) 
3338

>  <i_i_glide_lignum>  (1) 
179

>  <i_i_glide_posenum>  (1) 
232

>  <i_i_glide_rotatable_bonds>  (1) 
20

>  <i_lp_mmshare_version>  (1) 
72125

>  <i_m_source_file_index>  (1) 
79

>  <i_f3d_flags>  (1) 
0

>  <num_sample>  (1) 
100

>  <b_lp_Chiralities_Consistent>  (1) 
1

>  <r_epik_Charging_Adjusted_Penalty>  (1) 
0.27991857207723647

>  <r_epik_Ionization_Penalty>  (1) 
0.14008487576319317

>  <r_epik_Ionization_Penalty_Charging>  (1) 
0.13995928603861824

>  <r_epik_Ionization_Penalty_Neutral>  (1) 
0.0001255897245749389

>  <r_epik_State_Penalty>  (1) 
0.13995928603861821

>  <r_glide_ring_energy>  (1) 
0

>  <r_i_docking_score>  (1) 
-7.0509819443755921

>  <r_i_glide_ecoul>  (1) 
-3.7973843173907302

>  <r_i_glide_eff_state_penalty>  (1) 
0.13995928603861821

>  <r_i_glide_einternal>  (1) 
19.326925767100761

>  <r_i_glide_emodel>  (1) 
-49.460064127067731

>  <r_i_glide_emodel_strain>  (1) 
3.6293542238914824

>  <r_i_glide_energy>  (1) 
-42.646820107530694

>  <r_i_glide_erotb>  (1) 
0.59343049219720367

>  <r_i_glide_esite>  (1) 
-0.0036598290045865181

>  <r_i_glide_evdw>  (1) 
-38.849435790139964

>  <r_i_glide_gscore>  (1) 
-7.19094123041421

>  <r_i_glide_gscore_strain>  (1) 
0

>  <r_i_glide_hbond>  (1) 
0

>  <r_i_glide_ligand_efficiency>  (1) 
-0.14689545717449151

>  <r_i_glide_ligand_efficiency_ln>  (1) 
-1.4474832651304275

>  <r_i_glide_ligand_efficiency_sa>  (1) 
-0.53385352045052048

>  <r_i_glide_lipo>  (1) 
-4.1138333380862582

>  <r_i_glide_metal>  (1) 
-0

>  <r_i_glide_rewards>  (1) 
-1.15479911840496

>  <r_lp_Energy>  (1) 
45.973873999999995

>  <r_lp_tautomer_probability>  (1) 
0.99979120136373534

>  <s_epik_Chemistry_Notes>  (1) 
This compound has an ester and may undergo hydrolysis at high or low pH.

>  <s_epik_cmdline>  (1) 
J2VwaWtfcHl0aG9uJywgJy1waHQnLCAnMS4wJywgJy1waCcsICc3LjQnLCAnLXRuJywgJzgnLCAnLW1hJywgJzUwMCcsICctaW1hZScsICc8aW5maWxlLm1hZT4nLCAnLW9tYWUnLCAnPG91dGZpbGUubWFlPic=

>  <s_epik_input>  (1) 
W09IXVtDSDJdW0NIMl1bQ0BIXShbQ0gzXSlPW0NAQEhdKFtDSDJdT1tDSDJdW0NIM10pW0NIMl1bQ0gyXVNDKD1PKVtOSF0vW0NIXT1DKFtDQEhdMU4oW05IXTIpW0NAQEhdKEMxKFtDSDNdKVtDSDNdKVtDQEhdM04oW0NASF0zNClbQ0gyXVtDSDJdW0NIMl1DND1PKVxbQ0gyXVtDQEBIXShbQ0BASF0yNSlbQ0BASF01W0NIMl1bQ0gyXVtDSDJdW0NIMl1bQ0BASF0oQzY9TylbQ0hdPVtDSF1PNg==

>  <s_glide_docking_method>  (1) 
confgen

>  <s_i_glide_gridfile>  (1) 
gpcr_5ht2c_6bqh_protein_autoprepared_prepared

>  <s_lp_Force_Field>  (1) 
S-OPLS

>  <s_lp_Variant>  (1) 
DiffSBDD_78-1

>  <s_m_source_file>  (1) 
generated_GPCR_5HT2C_ligand_DiffSBDD_2026-06-23_prepared.sdf

>  <GenAI_Model>  (1) 
DiffSBDD

>  <Protein>  (1) 
GPCR_5HT2C

$$$$
DiffSBDD_75
     RDKit          3D

  0  0  0  0  0  0  0  0  0  0999 V3000
M  V30 BEGIN CTAB
M  V30 COUNTS 76 77 0 0 1
M  V30 BEGIN ATOM
M  V30 1 C 40.048778 29.503462 61.687350 0
M  V30 2 C 37.155749 31.093262 60.022098 0
M  V30 3 O 39.302522 26.775274 56.860544 0
M  V30 4 C 41.097370 29.038069 64.479252 0
M  V30 5 C 38.789810 27.890534 54.291402 0 CFG=1
M  V30 6 C 38.660296 35.257283 61.165246 0
M  V30 7 C 39.184936 28.183091 56.892756 0 CFG=2
M  V30 8 C 37.706684 35.561670 60.167762 0
M  V30 9 O 38.205689 28.145245 51.946385 0
M  V30 10 C 39.632385 30.135619 55.337053 0 CFG=1
M  V30 11 O 36.101421 38.537375 61.651015 0
M  V30 12 S 38.845255 28.191979 59.663455 0
M  V30 13 C 42.266202 28.438805 65.285377 0
M  V30 14 C 36.927789 37.458568 61.493745 0
M  V30 15 C 38.196999 28.561113 58.012717 0
M  V30 16 C 39.611775 34.088263 60.983242 0
M  V30 17 C 38.735668 36.048942 62.327918 0
M  V30 18 O 37.939493 31.311942 54.167756 0
M  V30 19 C 39.536786 31.146079 56.490737 0
M  V30 20 C 38.776564 28.846688 55.536569 0 CFG=1
M  V30 21 O 41.902806 27.168195 65.784377 0
M  V30 22 O 38.006849 30.488989 60.981081 0
M  V30 23 O 41.634633 32.147120 61.367776 0
M  V30 24 C 41.801661 31.355253 64.589525 0
M  V30 25 N 41.414350 30.248348 63.697096 0
M  V30 26 C 40.596912 31.949130 61.997458 0
M  V30 27 C 36.845288 36.665907 60.329769 0
M  V30 28 C 39.533394 33.047204 62.116280 0
M  V30 29 C 40.335088 30.620000 62.735537 0 CFG=1
M  V30 30 C 37.865802 37.140129 62.494855 0
M  V30 31 C 39.510418 29.957614 52.832805 0
M  V30 32 C 39.149315 29.806700 60.467976 0 CFG=1
M  V30 33 C 37.607048 26.888407 54.312168 0
M  V30 34 C 39.273783 30.858936 54.048737 0 CFG=2
M  V30 35 C 38.774942 28.623713 52.926475 0
M  V30 36 H 40.994960 29.094325 61.329185 0
M  V30 37 H 39.544441 28.688827 62.204722 0
M  V30 38 H 36.463366 31.763485 60.531404 0
M  V30 39 H 37.715556 31.683050 59.294940 0
M  V30 40 H 36.554595 30.347564 59.503018 0
M  V30 41 H 39.573043 26.483143 57.718836 0
M  V30 42 H 40.254477 29.233719 65.145083 0
M  V30 43 H 40.778864 28.237443 63.816823 0
M  V30 44 H 40.184958 28.518713 57.170172 0
M  V30 45 H 37.643755 34.955602 59.274993 0
M  V30 46 H 39.245150 30.470873 51.911376 0
M  V30 47 H 40.677292 29.832903 55.256139 0
M  V30 48 H 35.741576 38.859472 60.833615 0
M  V30 49 H 43.150943 28.331439 64.656642 0
M  V30 50 H 42.537448 29.065798 66.134172 0
M  V30 51 H 37.256597 28.027791 57.873025 0
M  V30 52 H 37.948045 29.614472 57.961616 0
M  V30 53 H 39.433827 33.607845 60.019843 0
M  V30 54 H 40.616099 34.511667 60.943509 0
M  V30 55 H 39.461965 35.818217 63.094095 0
M  V30 56 H 37.852435 31.853285 54.939991 0
M  V30 57 H 38.506149 31.397810 56.740958 0
M  V30 58 H 40.010620 30.731059 57.367834 0
M  V30 59 H 40.045124 32.080317 56.253429 0
M  V30 60 H 37.737072 29.165292 55.632530 0
M  V30 61 H 41.728834 26.595102 65.053376 0
M  V30 62 H 42.605511 31.070436 65.265314 0
M  V30 63 H 42.194017 32.213978 64.046104 0
M  V30 64 H 40.957678 31.689051 65.194811 0
M  V30 65 H 36.123083 36.902924 59.562027 0
M  V30 66 H 39.682174 33.532372 63.080313 0
M  V30 67 H 38.541196 32.599765 62.142793 0
M  V30 68 H 39.417025 30.757875 63.309601 0
M  V30 69 H 37.923840 37.737752 63.389506 0
M  V30 70 H 40.570485 29.738694 52.738386 0
M  V30 71 H 39.718497 27.320703 54.315644 0
M  V30 72 H 39.680569 30.451103 59.767898 0
M  V30 73 H 37.706695 26.137760 53.527362 0
M  V30 74 H 37.508299 26.344588 55.248050 0
M  V30 75 H 36.662931 27.407345 54.148417 0
M  V30 76 H 39.906471 31.737746 53.936897 0
M  V30 END ATOM
M  V30 BEGIN BOND
M  V30 1 1 7 3
M  V30 2 1 8 6
M  V30 3 1 13 4
M  V30 4 1 14 11
M  V30 5 1 15 7
M  V30 6 1 15 12
M  V30 7 1 16 6
M  V30 8 2 17 6
M  V30 9 1 19 10
M  V30 10 1 20 5
M  V30 11 1 20 7
M  V30 12 1 20 10
M  V30 13 1 21 13
M  V30 14 1 22 2
M  V30 15 1 25 4
M  V30 16 1 25 24
M  V30 17 2 26 23
M  V30 18 2 27 8
M  V30 19 1 27 14
M  V30 20 1 28 16
M  V30 21 1 28 26
M  V30 22 1 29 1
M  V30 23 1 29 25
M  V30 24 1 29 26
M  V30 25 2 30 14
M  V30 26 1 30 17
M  V30 27 1 32 1
M  V30 28 1 32 12
M  V30 29 1 32 22
M  V30 30 1 33 5
M  V30 31 1 34 10
M  V30 32 1 34 18
M  V30 33 1 34 31
M  V30 34 1 35 5
M  V30 35 2 35 9
M  V30 36 1 35 31
M  V30 37 1 36 1
M  V30 38 1 37 1
M  V30 39 1 38 2
M  V30 40 1 39 2
M  V30 41 1 40 2
M  V30 42 1 41 3
M  V30 43 1 42 4
M  V30 44 1 43 4
M  V30 45 1 7 44 CFG=1
M  V30 46 1 45 8
M  V30 47 1 46 31
M  V30 48 1 10 47 CFG=3
M  V30 49 1 48 11
M  V30 50 1 49 13
M  V30 51 1 50 13
M  V30 52 1 51 15
M  V30 53 1 52 15
M  V30 54 1 53 16
M  V30 55 1 54 16
M  V30 56 1 55 17
M  V30 57 1 56 18
M  V30 58 1 57 19
M  V30 59 1 58 19
M  V30 60 1 59 19
M  V30 61 1 20 60 CFG=1
M  V30 62 1 61 21
M  V30 63 1 62 24
M  V30 64 1 63 24
M  V30 65 1 64 24
M  V30 66 1 65 27
M  V30 67 1 66 28
M  V30 68 1 67 28
M  V30 69 1 29 68 CFG=1
M  V30 70 1 69 30
M  V30 71 1 70 31
M  V30 72 1 5 71 CFG=3
M  V30 73 1 32 72 CFG=3
M  V30 74 1 73 33
M  V30 75 1 74 33
M  V30 76 1 75 33
M  V30 77 1 34 76 CFG=3
M  V30 END BOND
M  V30 END CTAB
M  END
>  <i_epik_Tot_Q>  (1) 
0

>  <i_epik_Tot_abs_Q>  (1) 
0

>  <i_i_glide_confnum>  (1) 
1759

>  <i_i_glide_lignum>  (1) 
174

>  <i_i_glide_posenum>  (1) 
313

>  <i_i_glide_rotatable_bonds>  (1) 
18

>  <i_lp_mmshare_version>  (1) 
72125

>  <i_m_source_file_index>  (1) 
76

>  <i_f3d_flags>  (1) 
0

>  <num_sample>  (1) 
100

>  <b_lp_Chiralities_Consistent>  (1) 
1

>  <r_epik_Charging_Adjusted_Penalty>  (1) 
0.60615279515584763

>  <r_epik_Ionization_Penalty>  (1) 
0.6077244911787385

>  <r_epik_Ionization_Penalty_Charging>  (1) 
0

>  <r_epik_Ionization_Penalty_Neutral>  (1) 
0.6077244911787385

>  <r_epik_State_Penalty>  (1) 
0.60615279515584763

>  <r_glide_ring_energy>  (1) 
0

>  <r_i_docking_score>  (1) 
-7.0426704609235777

>  <r_i_glide_ecoul>  (1) 
-5.4964325228697204

>  <r_i_glide_eff_state_penalty>  (1) 
0.60615279515584763

>  <r_i_glide_einternal>  (1) 
9.2674290828283219

>  <r_i_glide_emodel>  (1) 
-66.38665617359095

>  <r_i_glide_emodel_strain>  (1) 
2.1204487581411513

>  <r_i_glide_energy>  (1) 
-51.314689513610006

>  <r_i_glide_erotb>  (1) 
1.0176109525924779

>  <r_i_glide_esite>  (1) 
0

>  <r_i_glide_evdw>  (1) 
-45.818256990740288

>  <r_i_glide_gscore>  (1) 
-7.6488232560794254

>  <r_i_glide_gscore_strain>  (1) 
0

>  <r_i_glide_hbond>  (1) 
-0.3133856997201428

>  <r_i_glide_ligand_efficiency>  (1) 
-0.20121915602638793

>  <r_i_glide_ligand_efficiency_ln>  (1) 
-1.5460224698221878

>  <r_i_glide_ligand_efficiency_sa>  (1) 
-0.65820120224249901

>  <r_i_glide_lipo>  (1) 
-4.0826086944700997

>  <r_i_glide_metal>  (1) 
-0

>  <r_i_glide_rewards>  (1) 
-1.1550620865141883

>  <r_lp_Energy>  (1) 
23.807221999999999

>  <r_lp_tautomer_probability>  (1) 
0.99999993999736703

>  <s_epik_Chemistry_Notes>  (1) 
This compound contains an acetal/aminal-like group ( X-CH(R)-Y where X, Y are N, S, or O) that may be acid/base labile, releasing an aldehyde.

>  <s_epik_cmdline>  (1) 
J2VwaWtfcHl0aG9uJywgJy1waHQnLCAnMS4wJywgJy1waCcsICc3LjQnLCAnLXRuJywgJzgnLCAnLW1hJywgJzUwMCcsICctaW1hZScsICc8aW5maWxlLm1hZT4nLCAnLW9tYWUnLCAnPG91dGZpbGUubWFlPic=

>  <s_epik_input>  (1) 
W2NIXTFbY0hdYyhbT0hdKVtjSF1bY0hdYzFbQ0gyXVtDSDJdQyg9TylbQ0BIXShOKFtDSDNdKVtDSDJdW0NIMl1bT0hdKVtDSDJdW0NASF0oT1tDSDNdKVNbQ0gyXVtDQEBIXShbT0hdKVtDQEhdMltDQEBIXShbQ0gzXSlbQ0BIXShbT0hdKVtDSDJdQyhbT0hdKT1DMltDSDNd

>  <s_glide_docking_method>  (1) 
confgen

>  <s_i_glide_gridfile>  (1) 
gpcr_5ht2c_6bqh_protein_autoprepared_prepared

>  <s_lp_Force_Field>  (1) 
S-OPLS

>  <s_lp_Variant>  (1) 
DiffSBDD_75-11

>  <s_m_source_file>  (1) 
generated_GPCR_5HT2C_ligand_DiffSBDD_2026-06-23_prepared.sdf

>  <GenAI_Model>  (1) 
DiffSBDD

>  <Protein>  (1) 
GPCR_5HT2C

$$$$
DiffSBDD_44
     RDKit          3D

  0  0  0  0  0  0  0  0  0  0999 V3000
M  V30 BEGIN CTAB
M  V30 COUNTS 72 74 0 0 1
M  V30 BEGIN ATOM
M  V30 1 C 38.876064 28.178881 52.278647 0 CFG=1
M  V30 2 O 38.557786 27.739042 55.122198 0
M  V30 3 C 39.232327 33.445734 59.892313 0
M  V30 4 C 36.805378 32.987754 60.653890 0
M  V30 5 C 37.159424 35.593975 60.414840 0
M  V30 6 C 39.260237 29.393414 57.333881 0
M  V30 7 C 38.383803 31.082527 55.798748 0
M  V30 8 C 39.007909 28.843860 54.816322 0
M  V30 9 C 37.586289 29.972814 59.294390 0
M  V30 10 C 35.419076 34.295798 58.967795 0
M  V30 11 O 39.690489 30.329379 53.035210 0
M  V30 12 N 37.645151 31.083356 57.064789 0 CHG=1
M  V30 13 C 37.971479 35.679187 61.703795 0 CFG=2
M  V30 14 C 38.402193 31.048711 60.052544 0
M  V30 15 C 37.245120 36.542727 59.465297 0
M  V30 16 C 38.270442 36.928110 63.830572 0
M  V30 17 C 38.005500 32.532940 59.802805 0 CFG=2
M  V30 18 C 37.719954 37.019184 62.415912 0
M  V30 19 C 41.670759 35.255925 63.200230 0
M  V30 20 C 39.771718 36.748589 63.801682 0
M  V30 21 C 39.484322 28.485952 50.899510 0
M  V30 22 C 36.203584 34.374938 60.292696 0 CFG=1
M  V30 23 C 37.856860 29.824715 57.774827 0 CFG=1
M  V30 24 C 39.493194 35.255793 61.711126 0 CFG=2
M  V30 25 C 39.236981 29.224424 53.337939 0
M  V30 26 C 39.363652 29.896364 55.874755 0 CFG=2
M  V30 27 C 39.707787 33.777469 61.295743 0
M  V30 28 O 37.472382 28.137752 52.167828 0
M  V30 29 C 40.137930 35.420127 63.133231 0 CFG=1
M  V30 30 O 42.090106 35.049754 64.534979 0
M  V30 31 H 39.228877 27.204559 52.618586 0
M  V30 32 H 40.045139 32.991033 59.347598 0
M  V30 33 H 39.061181 34.371917 59.367750 0
M  V30 34 H 37.051691 32.932067 61.712726 0
M  V30 35 H 36.010733 32.249659 60.540355 0
M  V30 36 H 40.030901 29.882289 57.927511 0
M  V30 37 H 39.416551 28.319690 57.446898 0
M  V30 38 H 38.910260 32.031075 55.681709 0
M  V30 39 H 37.664975 31.008735 54.979936 0
M  V30 40 H 37.785707 29.007126 59.761722 0
M  V30 41 H 36.522415 30.157164 59.451610 0
M  V30 42 H 34.845164 35.202677 58.780068 0
M  V30 43 H 36.085112 34.137745 58.120757 0
M  V30 44 H 34.704590 33.471915 58.975072 0
M  V30 45 H 36.642995 31.336371 56.966306 0
M  V30 46 H 37.460122 34.937802 62.262778 0
M  V30 47 H 39.457207 30.892993 59.835824 0
M  V30 48 H 38.320758 30.853180 61.122702 0
M  V30 49 H 36.657622 36.489909 58.567662 0
M  V30 50 H 37.907712 37.387128 59.582451 0
M  V30 51 H 37.783336 36.137758 64.361726 0
M  V30 52 H 38.026626 37.737814 64.467876 0
M  V30 53 H 37.677056 32.671387 58.787039 0
M  V30 54 H 36.651334 37.236883 62.451821 0
M  V30 55 H 38.194488 37.839608 61.876882 0
M  V30 56 H 42.168426 36.137737 62.798746 0
M  V30 57 H 42.043664 34.399794 62.647193 0
M  V30 58 H 40.145849 36.779116 64.826087 0
M  V30 59 H 40.236690 37.582970 63.275713 0
M  V30 60 H 40.572570 28.525299 50.960010 0
M  V30 61 H 39.223517 27.719796 50.168862 0
M  V30 62 H 39.142143 29.445905 50.511008 0
M  V30 63 H 35.446244 34.537667 61.058270 0
M  V30 64 H 37.142653 29.106097 57.367796 0
M  V30 65 H 40.026212 35.908166 61.017773 0
M  V30 66 H 40.380100 30.231127 55.667006 0
M  V30 67 H 39.272614 33.098870 62.028694 0
M  V30 68 H 40.766118 33.536852 61.295878 0
M  V30 69 H 37.214493 27.405397 51.619639 0
M  V30 70 H 39.720626 34.630191 63.751109 0
M  V30 71 H 41.615845 34.315647 64.894070 0
M  V30 72 H 38.062385 31.802548 57.634706 0
M  V30 END ATOM
M  V30 BEGIN BOND
M  V30 1 2 8 2
M  V30 2 1 12 7
M  V30 3 1 13 5
M  V30 4 1 14 9
M  V30 5 2 15 5
M  V30 6 1 17 3
M  V30 7 1 17 4
M  V30 8 1 17 14
M  V30 9 1 18 13
M  V30 10 1 18 16
M  V30 11 1 20 16
M  V30 12 1 21 1
M  V30 13 1 22 4
M  V30 14 1 22 5
M  V30 15 1 22 10
M  V30 16 1 23 6
M  V30 17 1 23 9
M  V30 18 1 23 12
M  V30 19 1 24 13
M  V30 20 1 25 1
M  V30 21 1 25 8
M  V30 22 2 25 11
M  V30 23 1 26 6
M  V30 24 1 26 7
M  V30 25 1 26 8
M  V30 26 1 27 3
M  V30 27 1 27 24
M  V30 28 1 28 1
M  V30 29 1 29 19
M  V30 30 1 29 20
M  V30 31 1 29 24
M  V30 32 1 30 19
M  V30 33 1 1 31 CFG=1
M  V30 34 1 32 3
M  V30 35 1 33 3
M  V30 36 1 34 4
M  V30 37 1 35 4
M  V30 38 1 36 6
M  V30 39 1 37 6
M  V30 40 1 38 7
M  V30 41 1 39 7
M  V30 42 1 40 9
M  V30 43 1 41 9
M  V30 44 1 42 10
M  V30 45 1 43 10
M  V30 46 1 44 10
M  V30 47 1 45 12
M  V30 48 1 13 46 CFG=1
M  V30 49 1 47 14
M  V30 50 1 48 14
M  V30 51 1 49 15
M  V30 52 1 50 15
M  V30 53 1 51 16
M  V30 54 1 52 16
M  V30 55 1 17 53 CFG=3
M  V30 56 1 54 18
M  V30 57 1 55 18
M  V30 58 1 56 19
M  V30 59 1 57 19
M  V30 60 1 58 20
M  V30 61 1 59 20
M  V30 62 1 60 21
M  V30 63 1 61 21
M  V30 64 1 62 21
M  V30 65 1 22 63 CFG=1
M  V30 66 1 23 64 CFG=3
M  V30 67 1 24 65 CFG=3
M  V30 68 1 26 66 CFG=3
M  V30 69 1 67 27
M  V30 70 1 68 27
M  V30 71 1 69 28
M  V30 72 1 29 70 CFG=1
M  V30 73 1 71 30
M  V30 74 1 72 12
M  V30 END BOND
M  V30 END CTAB
M  END
>  <i_epik_Tot_Q>  (1) 
1

>  <i_epik_Tot_abs_Q>  (1) 
1

>  <i_i_glide_confnum>  (1) 
79

>  <i_i_glide_lignum>  (1) 
97

>  <i_i_glide_posenum>  (1) 
37

>  <i_i_glide_rotatable_bonds>  (1) 
9

>  <i_lp_mmshare_version>  (1) 
72125

>  <i_m_source_file_index>  (1) 
45

>  <i_f3d_flags>  (1) 
0

>  <num_sample>  (1) 
100

>  <b_lp_Chiralities_Consistent>  (1) 
1

>  <r_epik_Charging_Adjusted_Penalty>  (1) 
0.0074455109037498855

>  <r_epik_Ionization_Penalty>  (1) 
0.0074458693978643794

>  <r_epik_Ionization_Penalty_Charging>  (1) 
0.0018801258091055938

>  <r_epik_Ionization_Penalty_Neutral>  (1) 
0.0055657435887587854

>  <r_epik_State_Penalty>  (1) 
0.0055653850946442915

>  <r_glide_ring_energy>  (1) 
0

>  <r_i_docking_score>  (1) 
-7.041176015297606

>  <r_i_glide_ecoul>  (1) 
-8.8825951969964017

>  <r_i_glide_eff_state_penalty>  (1) 
0.0055653850946442915

>  <r_i_glide_einternal>  (1) 
6.5549823909780951

>  <r_i_glide_emodel>  (1) 
-49.505008677410828

>  <r_i_glide_emodel_strain>  (1) 
0.51660468549380312

>  <r_i_glide_energy>  (1) 
-39.91401752147997

>  <r_i_glide_erotb>  (1) 
0.78317259644861148

>  <r_i_glide_esite>  (1) 
-0.10000000000000001

>  <r_i_glide_evdw>  (1) 
-31.031422324483568

>  <r_i_glide_gscore>  (1) 
-7.0467414003922499

>  <r_i_glide_gscore_strain>  (1) 
0

>  <r_i_glide_hbond>  (1) 
-0.42141871761853655

>  <r_i_glide_ligand_efficiency>  (1) 
-0.23470586717658687

>  <r_i_glide_ligand_efficiency_ln>  (1) 
-1.5998319104330732

>  <r_i_glide_ligand_efficiency_sa>  (1) 
-0.72928569982917968

>  <r_i_glide_lipo>  (1) 
-2.8335955382993583

>  <r_i_glide_metal>  (1) 
-0

>  <r_i_glide_rewards>  (1) 
-1.5909393451493279

>  <r_lp_Energy>  (1) 
44.150161999999995

>  <s_epik_cmdline>  (1) 
J2VwaWtfcHl0aG9uJywgJy1waHQnLCAnMS4wJywgJy1waCcsICc3LjQnLCAnLXRuJywgJzgnLCAnLW1hJywgJzUwMCcsICctaW1hZScsICc8aW5maWxlLm1hZT4nLCAnLW9tYWUnLCAnPG91dGZpbGUubWFlPic=

>  <s_epik_input>  (1) 
W0NIM11bQ0BIXShbT0hdKUMoPU8pQyg9TylbQ0BASF0oW0NIMl1bTkhdMSlbQ0gyXVtDQEhdMVtDSDJdW0NIMl1bQ0BASF0oW0NIMl1bQ0BIXShbQ0gzXSlDMj1bQ0gyXSlbQ0gyXVtDSDJdW0NAQEhdKFtDQEhdMjMpW0NAQEhdKFtDSDJdW09IXSlbQ0gyXVtDSDJdW0NIMl0z

>  <s_glide_docking_method>  (1) 
confgen

>  <s_i_glide_gridfile>  (1) 
gpcr_5ht2c_6bqh_protein_autoprepared_prepared

>  <s_lp_Force_Field>  (1) 
S-OPLS

>  <s_lp_Variant>  (1) 
DiffSBDD_44-1

>  <s_m_source_file>  (1) 
generated_GPCR_5HT2C_ligand_DiffSBDD_2026-06-23_prepared.sdf

>  <GenAI_Model>  (1) 
DiffSBDD

>  <Protein>  (1) 
GPCR_5HT2C

$$$$
DiffSBDD_62
     RDKit          3D

  0  0  0  0  0  0  0  0  0  0999 V3000
M  V30 BEGIN CTAB
M  V30 COUNTS 79 83 0 0 1
M  V30 BEGIN ATOM
M  V30 1 C 41.914171 33.623012 64.559284 0
M  V30 2 C 38.533363 27.627269 51.961712 0
M  V30 3 C 37.473751 30.305652 58.553418 0
M  V30 4 C 40.915228 31.373404 65.299361 0
M  V30 5 C 40.547167 35.264959 61.905693 0
M  V30 6 C 39.645191 29.933613 51.357174 0
M  V30 7 C 38.860815 29.679183 58.841612 0 CFG=2
M  V30 8 C 39.039886 29.125168 53.640388 0
M  V30 9 C 39.629091 30.095071 55.699976 0
M  V30 10 O 38.967415 36.841249 64.140041 0
M  V30 11 C 40.987341 36.136126 63.069700 0
M  V30 12 C 38.271600 26.665408 56.290616 0
M  V30 13 C 41.129281 32.378860 64.172057 0
M  V30 14 C 40.045138 36.254517 64.238766 0
M  V30 15 C 38.692784 27.916493 55.634700 0
M  V30 16 N 38.531165 28.074962 54.279370 0
M  V30 17 C 37.371518 31.754088 59.095420 0
M  V30 18 O 41.233242 28.537739 60.302746 0
M  V30 19 C 40.506198 36.756686 61.767855 0
M  V30 20 N 41.888918 35.737738 65.701711 0
M  V30 21 N 38.162415 26.974652 53.380792 0
M  V30 22 N 40.700058 32.196920 62.983787 0
M  V30 23 C 39.999709 30.991854 62.581520 0
M  V30 24 C 39.083996 28.966507 52.382092 0
M  V30 25 C 39.201189 28.841587 56.356794 0
M  V30 26 C 38.592111 27.186565 57.782391 0
M  V30 27 N 40.470488 35.737738 65.432808 0
M  V30 28 C 40.210540 29.113916 61.075599 0 CFG=2
M  V30 29 C 41.245266 34.495735 65.632089 0 CFG=1
M  V30 30 C 35.788065 33.652269 59.675283 0
M  V30 31 C 36.007342 32.132634 59.713782 0
M  V30 32 C 39.350912 28.611673 57.813341 0 CFG=2
M  V30 33 C 35.871889 31.617568 61.150955 0
M  V30 34 C 38.871272 29.144011 60.304808 0
M  V30 35 N 40.691099 30.443643 61.422592 0
M  V30 36 N 39.518142 30.243825 54.414231 0
M  V30 37 H 42.845430 33.269094 65.000154 0
M  V30 38 H 42.247359 34.148109 63.673310 0
M  V30 39 H 37.644506 27.738848 51.344884 0
M  V30 40 H 39.273836 27.021122 51.439626 0
M  V30 41 H 37.260422 30.335471 57.485580 0
M  V30 42 H 36.691682 29.674230 58.976404 0
M  V30 43 H 41.381568 31.707460 66.226133 0
M  V30 44 H 39.852258 31.229616 65.492197 0
M  V30 45 H 41.364903 30.412055 65.046278 0
M  V30 46 H 41.324676 34.720843 61.373629 0
M  V30 47 H 39.593104 34.745995 61.984799 0
M  V30 48 H 40.543026 29.516998 50.899610 0
M  V30 49 H 38.917625 30.113327 50.567720 0
M  V30 50 H 39.906932 30.892188 51.807038 0
M  V30 51 H 39.581433 30.492255 58.777239 0
M  V30 52 H 40.045133 30.867291 56.350684 0
M  V30 53 H 42.048878 36.290674 63.242947 0
M  V30 54 H 37.219301 26.432439 56.128550 0
M  V30 55 H 38.906295 25.829558 55.995165 0
M  V30 56 H 38.149062 31.951821 59.834912 0
M  V30 57 H 37.594313 32.424729 58.263928 0
M  V30 58 H 39.521567 37.218430 61.723501 0
M  V30 59 H 41.245114 37.213713 61.118400 0
M  V30 60 H 42.477776 36.056603 64.944575 0
M  V30 61 H 38.774419 26.185121 53.575900 0
M  V30 62 H 38.974199 31.245490 62.315139 0
M  V30 63 H 39.942267 30.234786 63.362557 0
M  V30 64 H 39.154322 26.438467 58.342960 0
M  V30 65 H 37.644663 27.292580 58.297835 0
M  V30 66 H 40.102448 28.512420 61.980066 0
M  V30 67 H 41.064585 33.989248 66.578254 0
M  V30 68 H 36.543199 34.179085 60.259431 0
M  V30 69 H 35.831533 34.028987 58.651747 0
M  V30 70 H 34.809504 33.915391 60.076256 0
M  V30 71 H 35.214846 31.673232 59.122268 0
M  V30 72 H 40.414805 28.428764 57.958648 0
M  V30 73 H 36.631613 32.058247 61.797030 0
M  V30 74 H 34.893328 31.859482 61.567034 0
M  V30 75 H 35.984824 30.537773 61.181441 0
M  V30 76 H 38.450050 28.139469 60.317288 0
M  V30 77 H 38.177154 29.737690 60.896560 0
M  V30 78 H 40.574271 31.070181 60.640252 0
M  V30 79 H 41.806600 28.028326 60.860656 0
M  V30 END ATOM
M  V30 BEGIN BOND
M  V30 1 1 7 3
M  V30 2 1 11 5
M  V30 3 1 13 1
M  V30 4 1 13 4
M  V30 5 2 14 10
M  V30 6 1 14 11
M  V30 7 1 15 12
M  V30 8 1 16 8
M  V30 9 1 16 15
M  V30 10 1 17 3
M  V30 11 1 19 5
M  V30 12 1 19 11
M  V30 13 1 21 2
M  V30 14 1 21 16
M  V30 15 2 22 13
M  V30 16 1 23 22
M  V30 17 1 24 2
M  V30 18 1 24 6
M  V30 19 2 24 8
M  V30 20 1 25 9
M  V30 21 2 25 15
M  V30 22 1 26 12
M  V30 23 1 27 14
M  V30 24 1 27 20
M  V30 25 1 28 18
M  V30 26 1 29 1
M  V30 27 1 29 20
M  V30 28 1 29 27
M  V30 29 1 31 17
M  V30 30 1 31 30
M  V30 31 1 32 7
M  V30 32 1 32 25
M  V30 33 1 32 26
M  V30 34 1 33 31
M  V30 35 1 34 7
M  V30 36 1 34 28
M  V30 37 1 35 23
M  V30 38 1 35 28
M  V30 39 1 36 8
M  V30 40 2 36 9
M  V30 41 1 37 1
M  V30 42 1 38 1
M  V30 43 1 39 2
M  V30 44 1 40 2
M  V30 45 1 41 3
M  V30 46 1 42 3
M  V30 47 1 43 4
M  V30 48 1 44 4
M  V30 49 1 45 4
M  V30 50 1 46 5
M  V30 51 1 47 5
M  V30 52 1 48 6
M  V30 53 1 49 6
M  V30 54 1 50 6
M  V30 55 1 7 51 CFG=1
M  V30 56 1 52 9
M  V30 57 1 53 11
M  V30 58 1 54 12
M  V30 59 1 55 12
M  V30 60 1 56 17
M  V30 61 1 57 17
M  V30 62 1 58 19
M  V30 63 1 59 19
M  V30 64 1 60 20
M  V30 65 1 61 21
M  V30 66 1 62 23
M  V30 67 1 63 23
M  V30 68 1 64 26
M  V30 69 1 65 26
M  V30 70 1 28 66 CFG=1
M  V30 71 1 29 67 CFG=1
M  V30 72 1 68 30
M  V30 73 1 69 30
M  V30 74 1 70 30
M  V30 75 1 71 31
M  V30 76 1 32 72 CFG=3
M  V30 77 1 73 33
M  V30 78 1 74 33
M  V30 79 1 75 33
M  V30 80 1 76 34
M  V30 81 1 77 34
M  V30 82 1 78 35
M  V30 83 1 79 18
M  V30 END BOND
M  V30 END CTAB
M  END
>  <i_epik_Tot_Q>  (1) 
0

>  <i_epik_Tot_abs_Q>  (1) 
0

>  <i_i_glide_confnum>  (1) 
442

>  <i_i_glide_lignum>  (1) 
136

>  <i_i_glide_posenum>  (1) 
261

>  <i_i_glide_rotatable_bonds>  (1) 
14

>  <i_lp_mmshare_version>  (1) 
72125

>  <i_m_source_file_index>  (1) 
63

>  <i_f3d_flags>  (1) 
0

>  <num_sample>  (1) 
100

>  <b_lp_Chiralities_Consistent>  (1) 
1

>  <r_epik_Charging_Adjusted_Penalty>  (1) 
0.66759273229091232

>  <r_epik_Ionization_Penalty>  (1) 
2.307606927441598

>  <r_epik_Ionization_Penalty_Charging>  (1) 
0

>  <r_epik_Ionization_Penalty_Neutral>  (1) 
2.307606927441598

>  <r_epik_State_Penalty>  (1) 
0.66759273229091232

>  <r_glide_ring_energy>  (1) 
0

>  <r_i_docking_score>  (1) 
-7.0372245392071617

>  <r_i_glide_ecoul>  (1) 
-6.2276551154670834

>  <r_i_glide_eff_state_penalty>  (1) 
0.66759273229091232

>  <r_i_glide_einternal>  (1) 
14.938425450128307

>  <r_i_glide_emodel>  (1) 
-67.680615376927094

>  <r_i_glide_emodel_strain>  (1) 
2.6394345923151832

>  <r_i_glide_energy>  (1) 
-54.68755542928983

>  <r_i_glide_erotb>  (1) 
0.98835574197518972

>  <r_i_glide_esite>  (1) 
-0.031115083902679853

>  <r_i_glide_evdw>  (1) 
-48.45990031382275

>  <r_i_glide_gscore>  (1) 
-7.704817271498074

>  <r_i_glide_gscore_strain>  (1) 
0

>  <r_i_glide_hbond>  (1) 
-0.49873696425285147

>  <r_i_glide_ligand_efficiency>  (1) 
-0.19547845942242115

>  <r_i_glide_ligand_efficiency_ln>  (1) 
-1.5353322706194699

>  <r_i_glide_ligand_efficiency_sa>  (1) 
-0.64545565173883512

>  <r_i_glide_lipo>  (1) 
-3.2581011220986014

>  <r_i_glide_metal>  (1) 
-0

>  <r_i_glide_rewards>  (1) 
-1.5480765602079314

>  <r_lp_Energy>  (1) 
35.107028999999997

>  <r_lp_tautomer_probability>  (1) 
0.49999399997599986

>  <s_epik_Chemistry_Notes>  (1) 
This compound has an imine and may undergo hydrolysis. This compound contains an acetal/aminal-like group ( X-CH(R)-Y where X, Y are N, S, or O) that may be acid/base labile, releasing an aldehyde.

>  <s_epik_cmdline>  (1) 
J2VwaWtfcHl0aG9uJywgJy1waHQnLCAnMS4wJywgJy1waCcsICc3LjQnLCAnLXRuJywgJzgnLCAnLW1hJywgJzUwMCcsICctaW1hZScsICc8aW5maWxlLm1hZT4nLCAnLW9tYWUnLCAnPG91dGZpbGUubWFlPic=

>  <s_epik_input>  (1) 
W0NIMl0xW0NIMl1bQ0hdMUMoPU8pTjJbTkhdW0NAQEhdMltDSDJdL0MoW0NIM10pPU4vW0NIMl1bTkhdW0NASF0oW09IXSlbQ0gyXVtDQEhdKFtDSDJdW0NIMl1bQ0hdKFtDSDNdKVtDSDNdKVtDQEBIXShbQ0gyXVtDSDJdMylDKFtDSF09TjQpPUMzTihDND01KVtOSF1bQ0gyXUM1W0NIM10=

>  <s_glide_docking_method>  (1) 
confgen

>  <s_i_glide_gridfile>  (1) 
gpcr_5ht2c_6bqh_protein_autoprepared_prepared

>  <s_lp_Force_Field>  (1) 
S-OPLS

>  <s_lp_Variant>  (1) 
DiffSBDD_62-2

>  <s_m_source_file>  (1) 
generated_GPCR_5HT2C_ligand_DiffSBDD_2026-06-23_prepared.sdf

>  <GenAI_Model>  (1) 
DiffSBDD

>  <Protein>  (1) 
GPCR_5HT2C

$$$$
DiffSBDD_16
     RDKit          3D

  0  0  0  0  0  0  0  0  0  0999 V3000
M  V30 BEGIN CTAB
M  V30 COUNTS 69 73 0 0 1
M  V30 BEGIN ATOM
M  V30 1 C 40.783738 31.131917 64.264664 0
M  V30 2 C 40.176865 26.039605 55.532083 0
M  V30 3 C 38.419281 30.581939 59.692683 0 CFG=1
M  V30 4 C 39.575926 29.683624 60.195749 0
M  V30 5 C 42.659574 31.794321 65.712370 0
M  V30 6 C 42.715173 30.494141 66.241543 0
M  V30 7 C 40.585023 34.811822 61.760461 0
M  V30 8 C 39.925488 35.133853 60.420654 0
M  V30 9 C 38.665382 32.090371 59.906176 0
M  V30 10 C 41.807364 29.518584 65.801783 0
M  V30 11 O 42.015052 32.937755 62.101051 0
M  V30 12 C 39.722715 27.221651 57.596155 0
M  V30 13 C 39.029606 28.087197 58.393022 0
M  V30 14 C 37.892860 28.992953 57.932597 0
M  V30 15 C 39.546875 27.008276 56.143625 0
M  V30 16 C 41.699615 32.118869 64.731582 0
M  V30 17 N 39.954483 25.934645 54.188629 0
M  V30 18 C 38.647152 28.861998 52.614089 0
M  V30 19 N 38.196625 30.382182 58.257059 0
M  V30 20 C 38.639019 29.730203 53.834168 0
M  V30 21 C 43.626361 32.851600 66.203597 0
M  V30 22 C 38.398144 35.056220 60.394134 0
M  V30 23 C 36.289337 33.951315 61.229890 0
M  V30 24 C 37.819322 34.027920 61.367746 0 CFG=1
M  V30 25 C 39.716114 31.418722 63.228019 0
M  V30 26 C 38.462819 32.619883 61.347673 0 CFG=2
M  V30 27 C 40.848852 33.332468 62.059873 0
M  V30 28 C 38.683298 27.813799 55.239358 0 CFG=2
M  V30 29 C 39.676781 32.422300 62.286274 0
M  V30 30 C 39.245143 26.996498 54.017869 0
M  V30 31 N 38.858111 29.267287 55.017838 0
M  V30 32 C 40.845108 29.835676 64.824764 0
M  V30 33 C 39.344625 28.206703 59.865015 0
M  V30 34 C 38.963953 27.559643 52.708588 0
M  V30 35 H 40.845119 25.339465 56.004431 0
M  V30 36 H 37.496866 30.297666 60.202944 0
M  V30 37 H 40.522553 30.010862 59.767745 0
M  V30 38 H 39.685798 29.765211 61.271525 0
M  V30 39 H 43.450129 30.246965 66.993867 0
M  V30 40 H 40.037044 35.262832 62.587390 0
M  V30 41 H 41.560237 35.299800 61.774549 0
M  V30 42 H 40.226476 36.137761 60.167778 0
M  V30 43 H 40.327248 34.534595 59.617094 0
M  V30 44 H 39.644029 32.387300 59.539794 0
M  V30 45 H 37.955682 32.607829 59.260402 0
M  V30 46 H 41.845361 28.522099 66.216114 0
M  V30 47 H 40.486771 26.629243 58.078781 0
M  V30 48 H 37.515890 28.912600 56.932578 0
M  V30 49 H 37.024077 28.715278 58.529349 0
M  V30 50 H 41.655272 33.125306 64.367685 0
M  V30 51 H 38.443216 29.337828 51.668623 0
M  V30 52 H 37.429089 30.964586 57.934972 0
M  V30 53 H 38.452387 30.791849 53.653699 0
M  V30 54 H 43.373813 33.150010 67.221010 0
M  V30 55 H 44.647573 32.469848 66.199132 0
M  V30 56 H 43.593880 33.737739 65.569989 0
M  V30 57 H 38.000636 36.037038 60.660223 0
M  V30 58 H 38.045122 34.869659 59.378986 0
M  V30 59 H 35.991601 33.531288 60.269003 0
M  V30 60 H 35.845757 33.338866 62.012628 0
M  V30 61 H 35.842716 34.937717 61.306651 0
M  V30 62 H 38.045156 34.460265 62.324829 0
M  V30 63 H 38.864503 30.754122 63.270991 0
M  V30 64 H 37.703236 31.971436 61.784301 0
M  V30 65 H 37.636504 27.542160 55.371087 0
M  V30 66 H 40.151313 29.078351 64.496095 0
M  V30 67 H 38.499360 27.820849 60.434177 0
M  V30 68 H 40.217122 27.613762 60.138357 0
M  V30 69 H 39.046974 26.907340 51.851615 0
M  V30 END ATOM
M  V30 BEGIN BOND
M  V30 1 1 4 3
M  V30 2 1 6 5
M  V30 3 1 8 7
M  V30 4 1 9 3
M  V30 5 2 10 6
M  V30 6 2 13 12
M  V30 7 1 14 13
M  V30 8 2 15 2
M  V30 9 1 15 12
M  V30 10 1 16 1
M  V30 11 2 16 5
M  V30 12 1 17 2
M  V30 13 1 19 3
M  V30 14 1 19 14
M  V30 15 1 20 18
M  V30 16 1 21 5
M  V30 17 1 22 8
M  V30 18 1 24 22
M  V30 19 1 24 23
M  V30 20 1 25 1
M  V30 21 1 26 9
M  V30 22 1 26 24
M  V30 23 1 27 7
M  V30 24 2 27 11
M  V30 25 1 28 15
M  V30 26 2 29 25
M  V30 27 1 29 26
M  V30 28 1 29 27
M  V30 29 2 30 17
M  V30 30 1 30 28
M  V30 31 2 31 20
M  V30 32 1 31 28
M  V30 33 2 32 1
M  V30 34 1 32 10
M  V30 35 1 33 4
M  V30 36 1 33 13
M  V30 37 2 34 18
M  V30 38 1 34 30
M  V30 39 1 35 2
M  V30 40 1 3 36 CFG=1
M  V30 41 1 37 4
M  V30 42 1 38 4
M  V30 43 1 39 6
M  V30 44 1 40 7
M  V30 45 1 41 7
M  V30 46 1 42 8
M  V30 47 1 43 8
M  V30 48 1 44 9
M  V30 49 1 45 9
M  V30 50 1 46 10
M  V30 51 1 47 12
M  V30 52 1 48 14
M  V30 53 1 49 14
M  V30 54 1 50 16
M  V30 55 1 51 18
M  V30 56 1 52 19
M  V30 57 1 53 20
M  V30 58 1 54 21
M  V30 59 1 55 21
M  V30 60 1 56 21
M  V30 61 1 57 22
M  V30 62 1 58 22
M  V30 63 1 59 23
M  V30 64 1 60 23
M  V30 65 1 61 23
M  V30 66 1 24 62 CFG=1
M  V30 67 1 63 25
M  V30 68 1 26 64 CFG=1
M  V30 69 1 28 65 CFG=1
M  V30 70 1 66 32
M  V30 71 1 67 33
M  V30 72 1 68 33
M  V30 73 1 69 34
M  V30 END BOND
M  V30 END CTAB
M  END
>  <i_epik_Tot_Q>  (1) 
0

>  <i_epik_Tot_abs_Q>  (1) 
0

>  <i_i_glide_confnum>  (1) 
17

>  <i_i_glide_lignum>  (1) 
37

>  <i_i_glide_posenum>  (1) 
269

>  <i_i_glide_rotatable_bonds>  (1) 
4

>  <i_lp_mmshare_version>  (1) 
72125

>  <i_m_source_file_index>  (1) 
17

>  <i_f3d_flags>  (1) 
0

>  <num_sample>  (1) 
100

>  <b_lp_Chiralities_Consistent>  (1) 
1

>  <r_epik_Charging_Adjusted_Penalty>  (1) 
0.56391873878667209

>  <r_epik_Ionization_Penalty>  (1) 
0.56391873878667209

>  <r_epik_Ionization_Penalty_Charging>  (1) 
0

>  <r_epik_Ionization_Penalty_Neutral>  (1) 
0.56391873878667209

>  <r_epik_State_Penalty>  (1) 
0.56391873878667209

>  <r_glide_ring_energy>  (1) 
0

>  <r_i_docking_score>  (1) 
-7.0367158931050797

>  <r_i_glide_ecoul>  (1) 
-2.756938359127457

>  <r_i_glide_eff_state_penalty>  (1) 
0.56391873878667209

>  <r_i_glide_einternal>  (1) 
5.0631520045930358

>  <r_i_glide_emodel>  (1) 
-52.731119972464491

>  <r_i_glide_emodel_strain>  (1) 
0

>  <r_i_glide_energy>  (1) 
-38.599416292688481

>  <r_i_glide_erotb>  (1) 
0.29265828080580603

>  <r_i_glide_esite>  (1) 
0

>  <r_i_glide_evdw>  (1) 
-35.842477933561021

>  <r_i_glide_gscore>  (1) 
-7.6006346318917517

>  <r_i_glide_gscore_strain>  (1) 
0

>  <r_i_glide_hbond>  (1) 
0

>  <r_i_glide_ligand_efficiency>  (1) 
-0.20696223215014942

>  <r_i_glide_ligand_efficiency_ln>  (1) 
-1.5546079139822382

>  <r_i_glide_ligand_efficiency_sa>  (1) 
-0.67047728969235432

>  <r_i_glide_lipo>  (1) 
-4.0616040736542383

>  <r_i_glide_metal>  (1) 
-0

>  <r_i_glide_rewards>  (1) 
-1.6260241884961499

>  <r_lp_Energy>  (1) 
61.267170999999998

>  <s_epik_Chemistry_Notes>  (1) 
This compound has an imine and may undergo hydrolysis.

>  <s_epik_cmdline>  (1) 
J2VwaWtfcHl0aG9uJywgJy1waHQnLCAnMS4wJywgJy1waCcsICc3LjQnLCAnLXRuJywgJzgnLCAnLW1hJywgJzUwMCcsICctaW1hZScsICc8aW5maWxlLm1hZT4nLCAnLW9tYWUnLCAnPG91dGZpbGUubWFlPic=

>  <s_epik_input>  (1) 
W2NIXTFbY0hdW2NIXWMoW0NIM10pW2NIXWMxL1tDSF09QyhDKD1PKVtDSDJdW0NIMl1bQ0gyXVtDQEhdMltDSDNdKS9bQ0BASF0yW0NIMl1bQ0BASF0zW0NIMl1bQ0gyXUMoXFtDSDJdW05IXTMpPVtDSF1cQzQ9W0NIXU49QyhbQ0BASF00NSlbQ0hdPVtDSF1bQ0hdPU41

>  <s_glide_docking_method>  (1) 
confgen

>  <s_i_glide_gridfile>  (1) 
gpcr_5ht2c_6bqh_protein_autoprepared_prepared

>  <s_lp_Force_Field>  (1) 
S-OPLS

>  <s_lp_Variant>  (1) 
DiffSBDD_16-5

>  <s_m_source_file>  (1) 
generated_GPCR_5HT2C_ligand_DiffSBDD_2026-06-23_prepared.sdf

>  <GenAI_Model>  (1) 
DiffSBDD

>  <Protein>  (1) 
GPCR_5HT2C

$$$$
DiffSBDD_83
     RDKit          3D

  0  0  0  0  0  0  0  0  0  0999 V3000
M  V30 BEGIN CTAB
M  V30 COUNTS 54 55 0 0 1
M  V30 BEGIN ATOM
M  V30 1 C 36.481511 33.157907 60.137457 0
M  V30 2 C 40.102477 28.879787 60.099107 0
M  V30 3 N 40.845167 28.857523 61.241166 0
M  V30 4 O 37.351268 26.166529 57.529093 0
M  V30 5 O 35.204802 33.428487 59.836625 0
M  V30 6 C 38.431516 34.269452 61.260196 0
M  V30 7 C 39.047480 35.438104 62.005151 0
M  V30 8 C 37.465604 24.522828 56.045821 0
M  V30 9 C 38.772917 27.186036 52.696092 0
M  V30 10 C 37.124439 34.293139 60.862887 0
M  V30 11 C 40.192337 27.802797 59.066862 0
M  V30 12 C 39.208449 31.915002 61.976168 0
M  V30 13 N 40.644438 29.918091 62.041566 0
M  V30 14 O 34.474348 32.255388 59.367762 0
M  V30 15 C 39.450717 27.086504 56.637573 0 CFG=1
M  V30 16 C 38.937732 29.101406 55.055916 0
M  V30 17 C 36.716630 25.294089 56.753594 0
M  V30 18 O 37.035630 32.100206 59.851583 0
M  V30 19 C 38.718050 25.821852 57.180424 0 CFG=2
M  V30 20 C 39.345396 30.008401 60.148450 0
M  V30 21 O 38.772231 24.737344 56.218362 0
M  V30 22 C 39.367567 26.811906 54.064255 0
M  V30 23 C 38.794994 27.578204 55.288538 0 CFG=1
M  V30 24 C 39.718773 30.625646 61.387278 0
M  V30 25 Cl 36.845051 23.335524 54.967766 0
M  V30 26 C 39.385238 33.098251 61.000680 0
M  V30 27 C 39.432142 28.152629 57.770329 0
M  V30 28 H 41.507088 28.131642 61.484693 0
M  V30 29 H 39.448781 35.103742 62.961964 0
M  V30 30 H 39.862573 35.872132 61.424576 0
M  V30 31 H 38.315526 36.222365 62.199289 0
M  V30 32 H 39.171698 26.537795 51.916020 0
M  V30 33 H 37.687607 27.078797 52.692895 0
M  V30 34 H 39.018658 28.204479 52.399333 0
M  V30 35 H 36.513830 35.158748 61.075002 0
M  V30 36 H 41.239706 27.600334 58.837903 0
M  V30 37 H 39.784945 26.900688 59.510003 0
M  V30 38 H 39.710455 32.143329 62.916922 0
M  V30 39 H 38.156624 31.788894 62.231960 0
M  V30 40 H 34.840787 32.137758 58.480073 0
M  V30 41 H 40.490231 26.813462 56.449111 0
M  V30 42 H 39.983907 29.407241 55.012980 0
M  V30 43 H 38.457281 29.423923 54.133666 0
M  V30 44 H 38.442684 29.678031 55.837555 0
M  V30 45 H 35.643701 25.337705 56.800867 0
M  V30 46 H 39.201997 25.424606 58.071554 0
M  V30 47 H 38.634342 30.348803 59.412858 0
M  V30 48 H 40.445130 26.930067 54.035339 0
M  V30 49 H 39.213556 25.743753 54.177461 0
M  V30 50 H 37.722109 27.393419 55.327603 0
M  V30 51 H 39.301148 32.789465 59.960335 0
M  V30 52 H 40.414797 33.451649 61.066286 0
M  V30 53 H 38.397521 28.406996 58.005586 0
M  V30 54 H 39.899499 29.069150 57.412898 0
M  V30 END ATOM
M  V30 BEGIN BOND
M  V30 1 1 3 2
M  V30 2 1 5 1
M  V30 3 1 7 6
M  V30 4 1 10 1
M  V30 5 2 10 6
M  V30 6 1 11 2
M  V30 7 1 13 3
M  V30 8 1 14 5
M  V30 9 1 17 4
M  V30 10 2 17 8
M  V30 11 2 18 1
M  V30 12 1 19 4
M  V30 13 1 19 15
M  V30 14 2 20 2
M  V30 15 1 21 8
M  V30 16 1 21 19
M  V30 17 1 22 9
M  V30 18 1 23 15
M  V30 19 1 23 16
M  V30 20 1 23 22
M  V30 21 1 24 12
M  V30 22 2 24 13
M  V30 23 1 24 20
M  V30 24 1 25 8
M  V30 25 1 26 6
M  V30 26 1 26 12
M  V30 27 1 27 11
M  V30 28 1 27 15
M  V30 29 1 28 3
M  V30 30 1 29 7
M  V30 31 1 30 7
M  V30 32 1 31 7
M  V30 33 1 32 9
M  V30 34 1 33 9
M  V30 35 1 34 9
M  V30 36 1 35 10
M  V30 37 1 36 11
M  V30 38 1 37 11
M  V30 39 1 38 12
M  V30 40 1 39 12
M  V30 41 1 40 14
M  V30 42 1 15 41 CFG=3
M  V30 43 1 42 16
M  V30 44 1 43 16
M  V30 45 1 44 16
M  V30 46 1 45 17
M  V30 47 1 19 46 CFG=1
M  V30 48 1 47 20
M  V30 49 1 48 22
M  V30 50 1 49 22
M  V30 51 1 23 50 CFG=1
M  V30 52 1 51 26
M  V30 53 1 52 26
M  V30 54 1 53 27
M  V30 55 1 54 27
M  V30 END BOND
M  V30 END CTAB
M  END
>  <i_epik_Tot_Q>  (1) 
0

>  <i_epik_Tot_abs_Q>  (1) 
0

>  <i_i_glide_confnum>  (1) 
1409

>  <i_i_glide_lignum>  (1) 
192

>  <i_i_glide_posenum>  (1) 
260

>  <i_i_glide_rotatable_bonds>  (1) 
12

>  <i_lp_mmshare_version>  (1) 
72125

>  <i_m_source_file_index>  (1) 
84

>  <i_f3d_flags>  (1) 
0

>  <num_sample>  (1) 
100

>  <b_lp_Chiralities_Consistent>  (1) 
1

>  <r_epik_Charging_Adjusted_Penalty>  (1) 
0.41067983895260396

>  <r_epik_Ionization_Penalty>  (1) 
0.00076996626271645392

>  <r_epik_Ionization_Penalty_Charging>  (1) 
0

>  <r_epik_Ionization_Penalty_Neutral>  (1) 
0.00076996626271645392

>  <r_epik_State_Penalty>  (1) 
0.41067983895260396

>  <r_glide_ring_energy>  (1) 
0

>  <r_i_docking_score>  (1) 
-7.0359037031192528

>  <r_i_glide_ecoul>  (1) 
-7.4265006358274137

>  <r_i_glide_eff_state_penalty>  (1) 
0.41067983895260396

>  <r_i_glide_einternal>  (1) 
12.26132298110651

>  <r_i_glide_emodel>  (1) 
-58.610729688329819

>  <r_i_glide_emodel_strain>  (1) 
1.1876141649172567

>  <r_i_glide_energy>  (1) 
-46.022929353563626

>  <r_i_glide_erotb>  (1) 
1.1080255732668134

>  <r_i_glide_esite>  (1) 
-0.096224809406040321

>  <r_i_glide_evdw>  (1) 
-38.59642871773621

>  <r_i_glide_gscore>  (1) 
-7.4465835420718571

>  <r_i_glide_gscore_strain>  (1) 
0

>  <r_i_glide_hbond>  (1) 
-0.31261938144154827

>  <r_i_glide_ligand_efficiency>  (1) 
-0.26058902604145379

>  <r_i_glide_ligand_efficiency_ln>  (1) 
-1.6378423861480411

>  <r_i_glide_ligand_efficiency_sa>  (1) 
-0.78176707812436164

>  <r_i_glide_lipo>  (1) 
-3.6835990626640389

>  <r_i_glide_metal>  (1) 
-0

>  <r_i_glide_rewards>  (1) 
-1.4183693305661205

>  <r_lp_Energy>  (1) 
14.849965999999998

>  <r_lp_tautomer_probability>  (1) 
0.5

>  <s_epik_Chemistry_Notes>  (1) 
This compound contains an acetal/aminal-like group ( X-CH(R)-Y where X, Y are N, S, or O) that may be acid/base labile, releasing an aldehyde.

>  <s_epik_cmdline>  (1) 
J2VwaWtfcHl0aG9uJywgJy1waHQnLCAnMS4wJywgJy1waCcsICc3LjQnLCAnLXRuJywgJzgnLCAnLW1hJywgJzUwMCcsICctaW1hZScsICc8aW5maWxlLm1hZT4nLCAnLW9tYWUnLCAnPG91dGZpbGUubWFlPic=

>  <s_epik_input>  (1) 
W09IXU9DKD1PKVxbQ0hdPUMoXFtDSDNdKVtDSDJdW0NIMl1jKFtjSF0xKW5bbkhdYzFbQ0gyXVtDSDJdW0NASF0oW0NAQEhdKFtDSDNdKVtDSDJdW0NIM10pW0NAQEhdKE8yKU9bQ0hdPUMyQ2w=

>  <s_glide_docking_method>  (1) 
confgen

>  <s_i_glide_gridfile>  (1) 
gpcr_5ht2c_6bqh_protein_autoprepared_prepared

>  <s_lp_Force_Field>  (1) 
S-OPLS

>  <s_lp_Variant>  (1) 
DiffSBDD_83-3

>  <s_m_source_file>  (1) 
generated_GPCR_5HT2C_ligand_DiffSBDD_2026-06-23_prepared.sdf

>  <GenAI_Model>  (1) 
DiffSBDD

>  <Protein>  (1) 
GPCR_5HT2C

$$$$
DiffSBDD_95
     RDKit          3D

  0  0  0  0  0  0  0  0  0  0999 V3000
M  V30 BEGIN CTAB
M  V30 COUNTS 57 59 0 0 1
M  V30 BEGIN ATOM
M  V30 1 O 36.023679 31.812145 61.303059 0
M  V30 2 C 35.561089 34.616769 59.302245 0
M  V30 3 C 37.023630 34.659708 58.967765 0
M  V30 4 C 37.742513 24.537756 57.207633 0
M  V30 5 C 37.739121 29.381684 56.477080 0
M  V30 6 O 36.424730 30.147526 58.990776 0
M  V30 7 O 39.289267 32.937772 59.767751 0 CHG=-1
M  V30 8 C 39.051376 26.330060 55.481908 0
M  V30 9 O 39.173655 33.179580 62.283947 0
M  V30 10 C 40.377035 27.748494 58.888912 0
M  V30 11 C 37.841600 30.154249 58.942600 0 CFG=2
M  V30 12 C 36.417739 33.405437 59.554762 0
M  V30 13 C 39.762417 28.742325 57.927231 0 CFG=2
M  V30 14 C 38.129649 25.399592 54.967771 0
M  V30 15 C 38.564747 30.362647 55.612179 0
M  V30 16 C 38.559684 30.123744 54.100717 0
M  V30 17 C 37.724625 29.254354 53.497989 0
M  V30 18 C 36.806922 32.939463 60.949894 0 CFG=2
M  V30 19 C 38.261480 29.082586 57.909109 0 CFG=2
M  V30 20 C 39.563417 30.937766 53.314031 0
M  V30 21 C 38.367877 29.820194 60.332933 0
M  V30 22 C 38.733546 30.723802 61.265992 0
M  V30 23 C 37.475726 24.505031 55.829381 0
M  V30 24 P 38.662162 32.551326 61.047688 0
M  V30 25 C 38.656141 25.472060 57.727288 0
M  V30 26 C 39.316279 26.381333 56.868086 0
M  V30 27 C 40.276847 27.403657 57.416950 0 CFG=2
M  V30 28 H 36.063003 31.205573 60.567842 0
M  V30 29 H 34.848715 34.565003 58.481256 0
M  V30 30 H 35.245141 35.178349 60.167748 0
M  V30 31 H 37.660084 35.266978 59.607301 0
M  V30 32 H 37.328585 34.590163 57.926238 0
M  V30 33 H 37.243898 23.847124 57.869999 0
M  V30 34 H 37.685422 28.415305 55.994448 0
M  V30 35 H 36.708806 29.737753 56.497074 0
M  V30 36 H 36.092971 30.662125 58.254699 0
M  V30 37 H 39.547562 27.019190 54.813743 0
M  V30 38 H 41.360838 28.000736 59.280971 0
M  V30 39 H 39.716806 27.263610 59.599922 0
M  V30 40 H 38.182853 31.127869 58.602435 0
M  V30 41 H 36.334743 32.608109 58.830989 0
M  V30 42 H 40.401313 29.607399 57.768509 0
M  V30 43 H 37.922774 25.375366 53.909109 0
M  V30 44 H 38.236861 31.384268 55.809986 0
M  V30 45 H 39.612972 30.335186 55.896893 0
M  V30 46 H 37.753446 29.111150 52.427991 0
M  V30 47 H 37.006314 28.679311 54.058692 0
M  V30 48 H 36.584226 33.736304 61.659699 0
M  V30 49 H 37.745251 28.172905 58.220931 0
M  V30 50 H 40.553684 30.873859 53.764838 0
M  V30 51 H 39.643393 30.608205 52.277571 0
M  V30 52 H 39.245140 31.978654 53.320660 0
M  V30 53 H 38.445113 28.771741 60.567764 0
M  V30 54 H 39.095887 30.355705 62.213981 0
M  V30 55 H 36.769800 23.790547 55.432360 0
M  V30 56 H 38.846742 25.494841 58.786859 0
M  V30 57 H 41.199841 27.411081 56.839591 0
M  V30 END ATOM
M  V30 BEGIN BOND
M  V30 1 1 3 2
M  V30 2 1 11 6
M  V30 3 1 12 2
M  V30 4 1 12 3
M  V30 5 1 13 10
M  V30 6 2 14 8
M  V30 7 1 15 5
M  V30 8 1 16 15
M  V30 9 2 17 16
M  V30 10 1 18 1
M  V30 11 1 18 12
M  V30 12 1 19 5
M  V30 13 1 19 11
M  V30 14 1 19 13
M  V30 15 1 20 16
M  V30 16 1 21 11
M  V30 17 2 22 21
M  V30 18 2 23 4
M  V30 19 1 23 14
M  V30 20 1 24 7
M  V30 21 2 24 9
M  V30 22 1 24 18
M  V30 23 1 24 22
M  V30 24 1 25 4
M  V30 25 1 26 8
M  V30 26 2 26 25
M  V30 27 1 27 10
M  V30 28 1 27 13
M  V30 29 1 27 26
M  V30 30 1 28 1
M  V30 31 1 29 2
M  V30 32 1 30 2
M  V30 33 1 31 3
M  V30 34 1 32 3
M  V30 35 1 33 4
M  V30 36 1 34 5
M  V30 37 1 35 5
M  V30 38 1 36 6
M  V30 39 1 37 8
M  V30 40 1 38 10
M  V30 41 1 39 10
M  V30 42 1 11 40 CFG=3
M  V30 43 1 41 12
M  V30 44 1 13 42 CFG=3
M  V30 45 1 43 14
M  V30 46 1 44 15
M  V30 47 1 45 15
M  V30 48 1 46 17
M  V30 49 1 47 17
M  V30 50 1 18 48 CFG=1
M  V30 51 1 19 49 CFG=1
M  V30 52 1 50 20
M  V30 53 1 51 20
M  V30 54 1 52 20
M  V30 55 1 53 21
M  V30 56 1 54 22
M  V30 57 1 55 23
M  V30 58 1 56 25
M  V30 59 1 27 57 CFG=3
M  V30 END BOND
M  V30 END CTAB
M  END
>  <i_epik_Tot_Q>  (1) 
-1

>  <i_epik_Tot_abs_Q>  (1) 
1

>  <i_i_glide_confnum>  (1) 
1184

>  <i_i_glide_lignum>  (1) 
227

>  <i_i_glide_posenum>  (1) 
116

>  <i_i_glide_rotatable_bonds>  (1) 
12

>  <i_lp_mmshare_version>  (1) 
72125

>  <i_m_source_file_index>  (1) 
96

>  <i_f3d_flags>  (1) 
0

>  <num_sample>  (1) 
100

>  <b_lp_Chiralities_Consistent>  (1) 
1

>  <r_epik_Charging_Adjusted_Penalty>  (1) 
1.080755722854454e-05

>  <r_epik_Ionization_Penalty>  (1) 
1.1075885964492435e-05

>  <r_epik_Ionization_Penalty_Charging>  (1) 
1.080755722854454e-05

>  <r_epik_Ionization_Penalty_Neutral>  (1) 
2.6832873594789518e-07

>  <r_epik_State_Penalty>  (1) 
-0

>  <r_glide_ring_energy>  (1) 
0

>  <r_i_docking_score>  (1) 
-7.0324057517799128

>  <r_i_glide_ecoul>  (1) 
-6.7210955379987265

>  <r_i_glide_eff_state_penalty>  (1) 
-0

>  <r_i_glide_einternal>  (1) 
8.1575297330253704

>  <r_i_glide_emodel>  (1) 
-60.898143582915225

>  <r_i_glide_emodel_strain>  (1) 
1.7565899088326518

>  <r_i_glide_energy>  (1) 
-44.014915086271557

>  <r_i_glide_erotb>  (1) 
1.1567431559220434

>  <r_i_glide_esite>  (1) 
0

>  <r_i_glide_evdw>  (1) 
-37.293819548272829

>  <r_i_glide_gscore>  (1) 
-7.0324057517799128

>  <r_i_glide_gscore_strain>  (1) 
0

>  <r_i_glide_hbond>  (1) 
-0.45599999999999996

>  <r_i_glide_ligand_efficiency>  (1) 
-0.26045947228814492

>  <r_i_glide_ligand_efficiency_ln>  (1) 
-1.6370281207444775

>  <r_i_glide_ligand_efficiency_sa>  (1) 
-0.78137841686443488

>  <r_i_glide_lipo>  (1) 
-3.5382390127253744

>  <r_i_glide_metal>  (1) 
-0

>  <r_i_glide_rewards>  (1) 
-1.3220545868631315

>  <r_lp_Energy>  (1) 
33.993966

>  <r_lp_tautomer_probability>  (1) 
1

>  <s_epik_cmdline>  (1) 
J2VwaWtfcHl0aG9uJywgJy1waHQnLCAnMS4wJywgJy1waCcsICc3LjQnLCAnLXRuJywgJzgnLCAnLW1hJywgJzUwMCcsICctaW1hZScsICc8aW5maWxlLm1hZT4nLCAnLW9tYWUnLCAnPG91dGZpbGUubWFlPic=

>  <s_epik_input>  (1) 
W0NIMl0xW0NIMl1bQ0hdMVtDQEBIXShbT0hdKVtQQF0oPU8pKFtPSF0pL1tDSF09W0NIXVxbQ0BIXShbT0hdKVtDQEBIXShbQ0gyXVtDSDJdQyg9W0NIMl0pW0NIM10pW0NASF0yW0NIMl1bQ0BIXTJjM1tjSF1bY0hdW2NIXVtjSF1bY0hdMw==

>  <s_glide_docking_method>  (1) 
confgen

>  <s_i_glide_gridfile>  (1) 
gpcr_5ht2c_6bqh_protein_autoprepared_prepared

>  <s_lp_Force_Field>  (1) 
S-OPLS

>  <s_lp_Variant>  (1) 
DiffSBDD_95-2

>  <s_m_source_file>  (1) 
generated_GPCR_5HT2C_ligand_DiffSBDD_2026-06-23_prepared.sdf

>  <GenAI_Model>  (1) 
DiffSBDD

>  <Protein>  (1) 
GPCR_5HT2C

$$$$
DiffSBDD_63
     RDKit          3D

  0  0  0  0  0  0  0  0  0  0999 V3000
M  V30 BEGIN CTAB
M  V30 COUNTS 83 88 0 0 1
M  V30 BEGIN ATOM
M  V30 1 F 43.500013 32.083719 66.793560 0
M  V30 2 C 38.445632 27.459937 55.383723 0
M  V30 3 C 44.155389 31.205559 66.033785 0 CFG=1
M  V30 4 C 36.928034 35.987960 60.306963 0
M  V30 5 C 40.313175 32.223974 63.743250 0
M  V30 6 C 40.272452 30.442890 61.913537 0 CFG=1
M  V30 7 N 44.701835 28.924749 66.521730 0 CHG=1
M  V30 8 C 38.445142 32.491881 56.503866 0
M  V30 9 C 38.882174 29.568021 54.139177 0
M  V30 10 C 37.907750 30.373684 57.883115 0 CFG=2
M  V30 11 C 38.272022 31.899044 57.901015 0 CFG=2
M  V30 12 C 41.734681 32.179055 64.289124 0
M  V30 13 C 38.427161 31.761670 55.380532 0
M  V30 14 C 38.515896 28.142668 56.573949 0
M  V30 15 N 38.317977 26.075639 55.553595 0
M  V30 16 N 40.845120 29.968359 64.335839 0 CHG=1
M  V30 17 C 41.773247 30.858159 65.068301 0 CFG=1
M  V30 18 C 36.740114 33.692104 61.353447 0
M  V30 19 C 38.139305 24.287232 57.271800 0
M  V30 20 O 40.845260 28.137735 62.277962 0
M  V30 21 O 38.058376 29.779830 59.182815 0
M  V30 22 S 38.445205 27.044795 57.933443 0
M  V30 23 C 43.339871 28.922143 65.954180 0 CFG=2
M  V30 24 C 39.999357 30.762291 63.408979 0 CFG=1
M  V30 25 C 43.131754 27.692172 65.054382 0
M  V30 26 C 38.659703 29.631801 56.731699 0 CFG=1
M  V30 27 C 40.313107 28.968623 61.554370 0
M  V30 28 C 38.289617 25.701306 56.829586 0
M  V30 29 O 36.445173 36.791094 59.250830 0
M  V30 30 C 36.648069 34.494938 60.046407 0 CFG=2
M  V30 31 C 37.619147 33.940990 58.989871 0
M  V30 32 C 39.299248 29.896974 59.799997 0 CFG=2
M  V30 33 O 37.307727 32.587975 58.694166 0
M  V30 34 C 38.230826 30.263583 55.368051 0 CFG=2
M  V30 35 O 39.724895 28.709849 60.384204 0
M  V30 36 C 44.983913 30.301162 66.949968 0
M  V30 37 C 39.205940 30.919452 60.945528 0
M  V30 38 C 43.209852 30.281629 65.230872 0 CFG=2
M  V30 39 C 38.492166 28.069952 54.020162 0
M  V30 40 H 44.802711 31.772981 65.367906 0
M  V30 41 H 37.996196 36.166131 60.435647 0
M  V30 42 H 36.445287 36.322089 61.225025 0
M  V30 43 H 40.202715 32.904397 62.897650 0
M  V30 44 H 39.645137 32.564282 64.531413 0
M  V30 45 H 41.235596 30.860373 61.621991 0
M  V30 46 H 45.369370 28.680792 65.802168 0
M  V30 47 H 38.589873 33.558866 56.440660 0
M  V30 48 H 38.629031 30.087010 53.214782 0
M  V30 49 H 39.964491 29.650891 54.243983 0
M  V30 50 H 36.845138 30.278251 57.665458 0
M  V30 51 H 39.245137 32.044232 58.354998 0
M  V30 52 H 42.444016 32.161289 63.460315 0
M  V30 53 H 41.970467 33.046687 64.906899 0
M  V30 54 H 38.551165 32.246556 54.422821 0
M  V30 55 H 40.241090 29.474980 64.981177 0
M  V30 56 H 41.324976 31.020130 66.049708 0
M  V30 57 H 37.747257 33.732974 61.768020 0
M  V30 58 H 36.045190 34.078765 62.100111 0
M  V30 59 H 36.487492 32.644752 61.189657 0
M  V30 60 H 39.117176 23.811776 57.354869 0
M  V30 61 H 37.645126 24.246365 58.242222 0
M  V30 62 H 37.531642 23.737752 56.553296 0
M  V30 63 H 42.639905 28.889912 66.791519 0
M  V30 64 H 38.955044 30.537803 63.632926 0
M  V30 65 H 42.106305 27.618281 64.696175 0
M  V30 66 H 43.786809 27.713411 64.181310 0
M  V30 67 H 43.341917 26.770509 65.598573 0
M  V30 68 H 39.725330 29.822116 56.861851 0
M  V30 69 H 36.490441 36.307415 58.433241 0
M  V30 70 H 35.627391 34.391139 59.672671 0
M  V30 71 H 37.541560 34.537852 58.082282 0
M  V30 72 H 38.644109 34.024444 59.354423 0
M  V30 73 H 40.067095 30.137754 59.070276 0
M  V30 74 H 37.152612 30.129125 55.258161 0
M  V30 75 H 46.045158 30.534806 66.904316 0
M  V30 76 H 44.665264 30.412736 67.987890 0
M  V30 77 H 39.369140 31.936484 60.591184 0
M  V30 78 H 38.212756 30.858515 61.393140 0
M  V30 79 H 43.648090 30.165407 64.237530 0
M  V30 80 H 37.510839 27.985647 53.551696 0
M  V30 81 H 39.193697 27.543954 53.371838 0
M  V30 82 H 41.344990 29.281575 63.783621 0
M  V30 83 H 44.793247 28.276238 67.291257 0
M  V30 END ATOM
M  V30 BEGIN BOND
M  V30 1 1 3 1
M  V30 2 1 11 8
M  V30 3 1 11 10
M  V30 4 1 12 5
M  V30 5 2 13 8
M  V30 6 2 14 2
M  V30 7 1 15 2
M  V30 8 1 17 12
M  V30 9 1 17 16
M  V30 10 1 21 10
M  V30 11 1 22 14
M  V30 12 1 23 7
M  V30 13 1 24 5
M  V30 14 1 24 6
M  V30 15 1 24 16
M  V30 16 1 25 23
M  V30 17 1 26 10
M  V30 18 1 26 14
M  V30 19 1 27 6
M  V30 20 2 27 20
M  V30 21 2 28 15
M  V30 22 1 28 19
M  V30 23 1 28 22
M  V30 24 1 29 4
M  V30 25 1 30 4
M  V30 26 1 30 18
M  V30 27 1 31 30
M  V30 28 1 32 21
M  V30 29 1 33 11
M  V30 30 1 33 31
M  V30 31 1 34 9
M  V30 32 1 34 13
M  V30 33 1 34 26
M  V30 34 1 35 27
M  V30 35 1 35 32
M  V30 36 1 36 3
M  V30 37 1 36 7
M  V30 38 1 37 6
M  V30 39 1 37 32
M  V30 40 1 38 3
M  V30 41 1 38 17
M  V30 42 1 38 23
M  V30 43 1 39 2
M  V30 44 1 39 9
M  V30 45 1 3 40 CFG=3
M  V30 46 1 41 4
M  V30 47 1 42 4
M  V30 48 1 43 5
M  V30 49 1 44 5
M  V30 50 1 6 45 CFG=3
M  V30 51 1 46 7
M  V30 52 1 47 8
M  V30 53 1 48 9
M  V30 54 1 49 9
M  V30 55 1 10 50 CFG=3
M  V30 56 1 11 51 CFG=1
M  V30 57 1 52 12
M  V30 58 1 53 12
M  V30 59 1 54 13
M  V30 60 1 55 16
M  V30 61 1 17 56 CFG=1
M  V30 62 1 57 18
M  V30 63 1 58 18
M  V30 64 1 59 18
M  V30 65 1 60 19
M  V30 66 1 61 19
M  V30 67 1 62 19
M  V30 68 1 23 63 CFG=1
M  V30 69 1 24 64 CFG=1
M  V30 70 1 65 25
M  V30 71 1 66 25
M  V30 72 1 67 25
M  V30 73 1 26 68 CFG=1
M  V30 74 1 69 29
M  V30 75 1 30 70 CFG=3
M  V30 76 1 71 31
M  V30 77 1 72 31
M  V30 78 1 32 73 CFG=3
M  V30 79 1 34 74 CFG=3
M  V30 80 1 75 36
M  V30 81 1 76 36
M  V30 82 1 77 37
M  V30 83 1 78 37
M  V30 84 1 38 79 CFG=3
M  V30 85 1 80 39
M  V30 86 1 81 39
M  V30 87 1 82 16
M  V30 88 1 83 7
M  V30 END BOND
M  V30 END CTAB
M  END
>  <i_epik_Tot_Q>  (1) 
2

>  <i_epik_Tot_abs_Q>  (1) 
2

>  <i_i_glide_confnum>  (1) 
1291

>  <i_i_glide_lignum>  (1) 
142

>  <i_i_glide_posenum>  (1) 
87

>  <i_i_glide_rotatable_bonds>  (1) 
9

>  <i_lp_mmshare_version>  (1) 
72125

>  <i_m_source_file_index>  (1) 
64

>  <i_f3d_flags>  (1) 
0

>  <num_sample>  (1) 
100

>  <b_lp_Chiralities_Consistent>  (1) 
1

>  <r_epik_Charging_Adjusted_Penalty>  (1) 
0.080070908620723774

>  <r_epik_Ionization_Penalty>  (1) 
0.041568301575603359

>  <r_epik_Ionization_Penalty_Charging>  (1) 
0.040241786303222601

>  <r_epik_Ionization_Penalty_Neutral>  (1) 
0.0013265152723807572

>  <r_epik_State_Penalty>  (1) 
0.039829122317501166

>  <r_glide_ring_energy>  (1) 
1.9359321119516504

>  <r_i_docking_score>  (1) 
-7.0299563066745456

>  <r_i_glide_ecoul>  (1) 
-4.4912967239863626

>  <r_i_glide_eff_state_penalty>  (1) 
0.039829122317501166

>  <r_i_glide_einternal>  (1) 
3.1689492440967495

>  <r_i_glide_emodel>  (1) 
-75.055867651027015

>  <r_i_glide_emodel_strain>  (1) 
1.7502790583844501

>  <r_i_glide_energy>  (1) 
-54.543071391809107

>  <r_i_glide_erotb>  (1) 
0.43483266289788453

>  <r_i_glide_esite>  (1) 
-0.020183681070897016

>  <r_i_glide_evdw>  (1) 
-50.051774667822741

>  <r_i_glide_gscore>  (1) 
-7.0697854289920468

>  <r_i_glide_gscore_strain>  (1) 
0

>  <r_i_glide_hbond>  (1) 
-0.30901446651680409

>  <r_i_glide_ligand_efficiency>  (1) 
-0.18025528991473194

>  <r_i_glide_ligand_efficiency_ln>  (1) 
-1.5074221893279363

>  <r_i_glide_ligand_efficiency_sa>  (1) 
-0.61128380182267517

>  <r_i_glide_lipo>  (1) 
-2.9237262758579607

>  <r_i_glide_metal>  (1) 
-0

>  <r_i_glide_rewards>  (1) 
-1.0754104264551783

>  <r_lp_Energy>  (1) 
32.274032999999996

>  <s_epik_Chemistry_Notes>  (1) 
This compound has an ester and may undergo hydrolysis at high or low pH. This compound contains an acetal/aminal-like group ( X-CH(R)-Y where X, Y are N, S, or O) that may be acid/base labile, releasing an aldehyde.

>  <s_epik_cmdline>  (1) 
J2VwaWtfcHl0aG9uJywgJy1waHQnLCAnMS4wJywgJy1waCcsICc3LjQnLCAnLXRuJywgJzgnLCAnLW1hJywgJzUwMCcsICctaW1hZScsICc8aW5maWxlLm1hZT4nLCAnLW9tYWUnLCAnPG91dGZpbGUubWFlPic=

>  <s_epik_input>  (1) 
RltDQEhdMVtDSDJdW05IXVtDQEhdKFtDSDNdKVtDQEhdMVtDQEhdMltDSDJdW0NIMl1bQ0BIXShbTkhdMilbQ0BIXTNDKD1PKU9bQ0BIXShbQ0gyXTMpT1tDQEhdNFtDQEhdKE9bQ0gyXVtDQEBIXShbQ0gzXSlbQ0gyXVtPSF0pW0NIXT1bQ0hdW0NAQEhdKFtDSDJdW0NIMl01KVtDQEBIXTRjKGM1NilzYyhuNilbQ0gzXQ==

>  <s_glide_docking_method>  (1) 
confgen

>  <s_i_glide_gridfile>  (1) 
gpcr_5ht2c_6bqh_protein_autoprepared_prepared

>  <s_lp_Force_Field>  (1) 
S-OPLS

>  <s_lp_Variant>  (1) 
DiffSBDD_63-4

>  <s_m_source_file>  (1) 
generated_GPCR_5HT2C_ligand_DiffSBDD_2026-06-23_prepared.sdf

>  <GenAI_Model>  (1) 
DiffSBDD

>  <Protein>  (1) 
GPCR_5HT2C

$$$$
DiffSBDD_24
     RDKit          3D

  0  0  0  0  0  0  0  0  0  0999 V3000
M  V30 BEGIN CTAB
M  V30 COUNTS 76 79 0 0 1
M  V30 BEGIN ATOM
M  V30 1 C 38.113286 25.022653 57.767796 0
M  V30 2 C 41.890325 30.470845 63.816192 0
M  V30 3 C 38.435391 26.163004 57.031568 0
M  V30 4 N 41.532292 28.176214 64.857246 0 CHG=1
M  V30 5 C 38.403436 29.053136 56.893807 0 CFG=2
M  V30 6 N 40.845126 30.869994 61.598077 0
M  V30 7 C 40.253159 29.021116 60.096767 0
M  V30 8 C 40.604184 29.226584 66.945211 0
M  V30 9 O 43.325576 25.514198 67.511252 0 CHG=-1
M  V30 10 N 42.164311 27.372626 67.112350 0
M  V30 11 C 43.074059 26.460758 66.739573 0
M  V30 12 O 39.406954 30.840571 54.961256 0
M  V30 13 C 39.717073 29.281761 57.674383 0
M  V30 14 C 37.362228 23.998439 57.189467 0
M  V30 15 C 38.989144 29.449204 53.012032 0 CFG=2
M  V30 16 C 37.317644 30.419174 58.687423 0
M  V30 17 C 41.193215 31.478342 62.881254 0
M  V30 18 N 38.590836 30.591053 59.389099 0
M  V30 19 O 41.066791 28.137798 59.843085 0
M  V30 20 C 37.245132 25.249099 55.112498 0
M  V30 21 C 41.012992 29.218046 63.942832 0 CFG=2
M  V30 22 C 40.824371 28.610017 62.551052 0
M  V30 23 C 39.645195 28.000777 50.948634 0
M  V30 24 C 36.940596 24.101596 55.857019 0
M  V30 25 C 39.253078 28.029690 52.410555 0
M  V30 26 N 38.603934 28.765830 55.435596 0
M  V30 27 C 41.795181 28.515026 66.277569 0 CFG=1
M  V30 28 C 39.879045 30.527570 52.333654 0
M  V30 29 F 36.845147 25.337700 53.824652 0
M  V30 30 C 39.998566 29.083561 50.242253 0
M  V30 31 C 40.164526 29.575526 61.542322 0 CFG=1
M  V30 32 C 37.963455 26.311212 55.700725 0
M  V30 33 N 39.502915 29.554222 59.111546 0
M  V30 34 C 40.045136 30.478389 50.807097 0
M  V30 35 C 39.026007 29.737984 54.566570 0
M  V30 36 C 37.532926 30.267514 57.175050 0
M  V30 37 O 43.640246 26.581467 65.629196 0
M  V30 38 N 38.204759 27.473013 54.913001 0
M  V30 39 H 38.445155 24.937758 58.785430 0
M  V30 40 H 42.875744 30.207766 63.426399 0
M  V30 41 H 42.053104 30.936478 64.788059 0
M  V30 42 H 39.037496 26.905953 57.492832 0
M  V30 43 H 40.862670 27.421830 64.861095 0
M  V30 44 H 37.725114 28.354378 57.362848 0
M  V30 45 H 40.709802 31.491576 60.811230 0
M  V30 46 H 40.808492 29.422516 67.999052 0
M  V30 47 H 40.384154 30.189935 66.486215 0
M  V30 48 H 39.699943 28.618684 66.897429 0
M  V30 49 H 41.708330 27.270462 68.007011 0
M  V30 50 H 40.427980 28.474859 57.495398 0
M  V30 51 H 40.197400 30.167799 57.275328 0
M  V30 52 H 37.125369 23.116012 57.764704 0
M  V30 53 H 37.965713 29.679552 52.735941 0
M  V30 54 H 36.799358 29.550562 59.095859 0
M  V30 55 H 36.685847 31.284344 58.892050 0
M  V30 56 H 41.841549 32.337287 62.706500 0
M  V30 57 H 40.281598 31.858058 63.344621 0
M  V30 58 H 38.439362 30.655184 60.393479 0
M  V30 59 H 40.045107 29.527867 64.319318 0
M  V30 60 H 40.184764 27.737727 62.628427 0
M  V30 61 H 41.796084 28.264169 62.193864 0
M  V30 62 H 39.636490 27.032534 50.467419 0
M  V30 63 H 36.379713 23.297439 55.404380 0
M  V30 64 H 38.334674 27.443078 52.424153 0
M  V30 65 H 40.007848 27.474006 52.966493 0
M  V30 66 H 42.648038 29.194826 66.298579 0
M  V30 67 H 39.530410 31.531741 52.581880 0
M  V30 68 H 40.845122 30.454294 52.795403 0
M  V30 69 H 40.263149 28.977104 49.200633 0
M  V30 70 H 39.119845 29.711136 61.827202 0
M  V30 71 H 40.981909 30.957460 50.519614 0
M  V30 72 H 39.249237 31.047190 50.325139 0
M  V30 73 H 37.946175 31.204202 56.807183 0
M  V30 74 H 36.574737 30.137616 56.673632 0
M  V30 75 H 38.056580 27.413446 53.915534 0
M  V30 76 H 42.405149 27.791834 64.507554 0
M  V30 END ATOM
M  V30 BEGIN BOND
M  V30 1 1 3 1
M  V30 2 1 11 9
M  V30 3 1 11 10
M  V30 4 1 13 5
M  V30 5 2 14 1
M  V30 6 1 17 2
M  V30 7 1 17 6
M  V30 8 1 18 16
M  V30 9 2 19 7
M  V30 10 1 21 2
M  V30 11 1 21 4
M  V30 12 1 22 21
M  V30 13 1 24 14
M  V30 14 2 24 20
M  V30 15 1 25 15
M  V30 16 1 25 23
M  V30 17 1 26 5
M  V30 18 1 27 4
M  V30 19 1 27 8
M  V30 20 1 27 10
M  V30 21 1 28 15
M  V30 22 1 29 20
M  V30 23 2 30 23
M  V30 24 1 31 6
M  V30 25 1 31 7
M  V30 26 1 31 22
M  V30 27 2 32 3
M  V30 28 1 32 20
M  V30 29 1 33 7
M  V30 30 1 33 13
M  V30 31 1 33 18
M  V30 32 1 34 28
M  V30 33 1 34 30
M  V30 34 2 35 12
M  V30 35 1 35 15
M  V30 36 1 35 26
M  V30 37 1 36 5
M  V30 38 1 36 16
M  V30 39 2 37 11
M  V30 40 1 38 26
M  V30 41 1 38 32
M  V30 42 1 39 1
M  V30 43 1 40 2
M  V30 44 1 41 2
M  V30 45 1 42 3
M  V30 46 1 43 4
M  V30 47 1 5 44 CFG=1
M  V30 48 1 45 6
M  V30 49 1 46 8
M  V30 50 1 47 8
M  V30 51 1 48 8
M  V30 52 1 49 10
M  V30 53 1 50 13
M  V30 54 1 51 13
M  V30 55 1 52 14
M  V30 56 1 15 53 CFG=3
M  V30 57 1 54 16
M  V30 58 1 55 16
M  V30 59 1 56 17
M  V30 60 1 57 17
M  V30 61 1 58 18
M  V30 62 1 21 59 CFG=1
M  V30 63 1 60 22
M  V30 64 1 61 22
M  V30 65 1 62 23
M  V30 66 1 63 24
M  V30 67 1 64 25
M  V30 68 1 65 25
M  V30 69 1 27 66 CFG=3
M  V30 70 1 67 28
M  V30 71 1 68 28
M  V30 72 1 69 30
M  V30 73 1 31 70 CFG=1
M  V30 74 1 71 34
M  V30 75 1 72 34
M  V30 76 1 73 36
M  V30 77 1 74 36
M  V30 78 1 75 38
M  V30 79 1 76 4
M  V30 END BOND
M  V30 END CTAB
M  END
>  <i_epik_Tot_Q>  (1) 
0

>  <i_epik_Tot_abs_Q>  (1) 
2

>  <i_i_glide_confnum>  (1) 
1725

>  <i_i_glide_lignum>  (1) 
60

>  <i_i_glide_posenum>  (1) 
12

>  <i_i_glide_rotatable_bonds>  (1) 
11

>  <i_lp_mmshare_version>  (1) 
72125

>  <i_m_source_file_index>  (1) 
25

>  <i_f3d_flags>  (1) 
0

>  <num_sample>  (1) 
100

>  <b_lp_Chiralities_Consistent>  (1) 
1

>  <r_epik_Charging_Adjusted_Penalty>  (1) 
0.077750035834572392

>  <r_epik_Ionization_Penalty>  (1) 
0.10755876975778689

>  <r_epik_Ionization_Penalty_Charging>  (1) 
0.0083338926467225426

>  <r_epik_Ionization_Penalty_Neutral>  (1) 
0.099224877111064341

>  <r_epik_State_Penalty>  (1) 
0.069416143187849846

>  <r_glide_ring_energy>  (1) 
0

>  <r_i_docking_score>  (1) 
-7.0210233880047141

>  <r_i_glide_ecoul>  (1) 
-2.8267634360430356

>  <r_i_glide_eff_state_penalty>  (1) 
0.069416143187849846

>  <r_i_glide_einternal>  (1) 
16.887339929548556

>  <r_i_glide_emodel>  (1) 
-60.411053980405541

>  <r_i_glide_emodel_strain>  (1) 
7.914565490802687

>  <r_i_glide_energy>  (1) 
-52.264210282192415

>  <r_i_glide_erotb>  (1) 
0.72960086390203738

>  <r_i_glide_esite>  (1) 
0

>  <r_i_glide_evdw>  (1) 
-49.437446846149378

>  <r_i_glide_gscore>  (1) 
-7.0904395311925636

>  <r_i_glide_gscore_strain>  (1) 
0.97864137270067175

>  <r_i_glide_hbond>  (1) 
-0.28075681823931631

>  <r_i_glide_ligand_efficiency>  (1) 
-0.1847637733685451

>  <r_i_glide_ligand_efficiency_ln>  (1) 
-1.5139391800364848

>  <r_i_glide_ligand_efficiency_sa>  (1) 
-0.62117126213242602

>  <r_i_glide_lipo>  (1) 
-3.9512097830690176

>  <r_i_glide_metal>  (1) 
-0

>  <r_i_glide_rewards>  (1) 
-1.6708283087730145

>  <r_lp_Energy>  (1) 
53.347089999999994

>  <s_epik_Chemistry_Notes>  (1) 
This compound contains an acetal/aminal-like group ( X-CH(R)-Y where X, Y are N, S, or O) that may be acid/base labile, releasing an aldehyde.

>  <s_epik_cmdline>  (1) 
J2VwaWtfcHl0aG9uJywgJy1waHQnLCAnMS4wJywgJy1waCcsICc3LjQnLCAnLXRuJywgJzgnLCAnLW1hJywgJzUwMCcsICctaW1hZScsICc8aW5maWxlLm1hZT4nLCAnLW9tYWUnLCAnPG91dGZpbGUubWFlPic=

>  <s_epik_input>  (1) 
RmMxW2NIXVtjSF1bY0hdW2NIXWMxW05IXU4oQyg9TylbQ0BASF0yW0NIMl1bQ0hdPVtDSF1bQ0gyXVtDSDJdMilbQ0BIXTNbQ0gyXU4oW05IXVtDSDJdW0NIMl0zKUMoPU8pW0NAQEhdKFtDSDJdNClbTkhdW0NIMl1bQ0gyXVtDQEBIXTRbTkhdW0NASF0oW0NIM10pW05IXUMoPU8pW09IXQ==

>  <s_glide_docking_method>  (1) 
confgen

>  <s_i_glide_gridfile>  (1) 
gpcr_5ht2c_6bqh_protein_autoprepared_prepared

>  <s_lp_Force_Field>  (1) 
S-OPLS

>  <s_lp_Variant>  (1) 
DiffSBDD_24-2

>  <s_m_source_file>  (1) 
generated_GPCR_5HT2C_ligand_DiffSBDD_2026-06-23_prepared.sdf

>  <GenAI_Model>  (1) 
DiffSBDD

>  <Protein>  (1) 
GPCR_5HT2C

$$$$
DiffSBDD_75
     RDKit          3D

  0  0  0  0  0  0  0  0  0  0999 V3000
M  V30 BEGIN CTAB
M  V30 COUNTS 77 78 0 0 1
M  V30 BEGIN ATOM
M  V30 1 C 39.156082 30.021254 59.296014 0
M  V30 2 C 37.617216 33.388547 58.877480 0
M  V30 3 O 41.037031 32.040396 61.318297 0
M  V30 4 C 40.353858 27.387505 58.644665 0
M  V30 5 C 40.952513 32.903053 64.862643 0 CFG=1
M  V30 6 C 38.999990 30.212628 53.751842 0
M  V30 7 C 40.249149 32.243689 62.462563 0 CFG=2
M  V30 8 C 38.104763 29.116854 53.688408 0
M  V30 9 O 42.376254 33.792874 66.614316 0
M  V30 10 C 40.494204 34.776187 63.071729 0 CFG=1
M  V30 11 O 39.245259 27.466493 50.603762 0
M  V30 12 S 37.801926 31.230690 61.366932 0
M  V30 13 C 39.871934 26.018297 58.167529 0
M  V30 14 C 39.161456 28.364152 51.624087 0
M  V30 15 C 38.789156 32.580680 62.070303 0
M  V30 16 C 38.929567 31.220930 54.901284 0
M  V30 17 C 39.965013 30.382231 52.737048 0
M  V30 18 O 42.377052 36.137761 63.768005 0
M  V30 19 C 40.762339 35.271713 61.625083 0
M  V30 20 C 40.982919 33.308562 63.351445 0 CFG=1
M  V30 21 O 38.485092 26.033758 57.916257 0
M  V30 22 O 38.669605 32.442887 59.057656 0
M  V30 23 O 37.645080 28.695741 56.839900 0
M  V30 24 C 41.176963 28.299426 56.534003 0
M  V30 25 N 40.115055 28.356074 57.555855 0 CFG=2 CHG=1
M  V30 26 C 38.320880 29.709717 56.916657 0
M  V30 27 C 38.190199 28.195252 52.627975 0
M  V30 28 C 37.963067 30.933569 56.071134 0
M  V30 29 C 39.545599 29.721227 57.814364 0 CFG=1
M  V30 30 C 40.044706 29.459354 51.674356 0
M  V30 31 C 40.970762 35.420846 65.545256 0
M  V30 32 C 38.209455 31.208026 59.590288 0 CFG=1
M  V30 33 C 41.665292 31.558923 65.159164 0
M  V30 34 C 41.039796 35.821882 64.067425 0 CFG=2
M  V30 35 C 41.519517 34.019580 65.758864 0
M  V30 36 H 38.594288 29.178720 59.694625 0
M  V30 37 H 40.062345 30.102262 59.893268 0
M  V30 38 H 38.024151 34.318726 58.492955 0
M  V30 39 H 36.869755 33.039360 58.168205 0
M  V30 40 H 37.097980 33.613012 59.807879 0
M  V30 41 H 41.138856 32.873353 60.886480 0
M  V30 42 H 41.415398 27.351364 58.896779 0
M  V30 43 H 39.839954 27.590296 59.576290 0
M  V30 44 H 40.221883 31.275950 62.953743 0
M  V30 45 H 37.353255 28.982571 54.445984 0
M  V30 46 H 41.538319 36.127347 66.152916 0
M  V30 47 H 39.418070 34.807162 63.225132 0
M  V30 48 H 39.881857 27.691074 49.944860 0
M  V30 49 H 40.408187 25.643094 57.296027 0
M  V30 50 H 40.045196 25.337739 58.969945 0
M  V30 51 H 38.702684 33.443383 61.422032 0
M  V30 52 H 38.255613 32.855675 62.967944 0
M  V30 53 H 39.941337 31.360398 55.288359 0
M  V30 54 H 38.649905 32.182591 54.466454 0
M  V30 55 H 40.643926 31.220956 52.773195 0
M  V30 56 H 42.544535 36.991914 64.167571 0
M  V30 57 H 41.826584 35.303044 61.398998 0
M  V30 58 H 40.303837 34.668204 60.847743 0
M  V30 59 H 40.381870 36.284623 61.491532 0
M  V30 60 H 42.042507 33.290340 63.088983 0
M  V30 61 H 38.203852 25.163878 57.669369 0
M  V30 62 H 42.155383 28.537826 56.948690 0
M  V30 63 H 41.244007 27.296781 56.118284 0
M  V30 64 H 40.945391 28.965603 55.706419 0
M  V30 65 H 37.507788 27.357747 52.585074 0
M  V30 66 H 37.949442 31.801645 56.723373 0
M  V30 67 H 36.945170 30.824994 55.696139 0
M  V30 68 H 40.214121 30.484455 57.429281 0
M  V30 69 H 40.788057 29.591447 50.900780 0
M  V30 70 H 39.949251 35.456519 65.913900 0
M  V30 71 H 39.915495 32.782669 65.164261 0
M  V30 72 H 37.260765 30.965865 59.107485 0
M  V30 73 H 41.775539 31.382747 66.229800 0
M  V30 74 H 41.113763 30.697362 64.788556 0
M  V30 75 H 42.661378 31.534010 64.717593 0
M  V30 76 H 40.459597 36.739742 63.942764 0
M  V30 77 H 39.305114 27.924561 57.114075 0
M  V30 END ATOM
M  V30 BEGIN BOND
M  V30 1 1 7 3
M  V30 2 1 8 6
M  V30 3 1 13 4
M  V30 4 1 14 11
M  V30 5 1 15 7
M  V30 6 1 15 12
M  V30 7 1 16 6
M  V30 8 2 17 6
M  V30 9 1 19 10
M  V30 10 1 20 5
M  V30 11 1 20 7
M  V30 12 1 20 10
M  V30 13 1 21 13
M  V30 14 1 22 2
M  V30 15 1 25 4
M  V30 16 1 25 24
M  V30 17 2 26 23
M  V30 18 2 27 8
M  V30 19 1 27 14
M  V30 20 1 28 16
M  V30 21 1 28 26
M  V30 22 1 29 1
M  V30 23 1 29 25
M  V30 24 1 29 26
M  V30 25 2 30 14
M  V30 26 1 30 17
M  V30 27 1 32 1
M  V30 28 1 32 12
M  V30 29 1 32 22
M  V30 30 1 33 5
M  V30 31 1 34 10
M  V30 32 1 34 18
M  V30 33 1 34 31
M  V30 34 1 35 5
M  V30 35 2 35 9
M  V30 36 1 35 31
M  V30 37 1 36 1
M  V30 38 1 37 1
M  V30 39 1 38 2
M  V30 40 1 39 2
M  V30 41 1 40 2
M  V30 42 1 41 3
M  V30 43 1 42 4
M  V30 44 1 43 4
M  V30 45 1 7 44 CFG=1
M  V30 46 1 45 8
M  V30 47 1 46 31
M  V30 48 1 10 47 CFG=3
M  V30 49 1 48 11
M  V30 50 1 49 13
M  V30 51 1 50 13
M  V30 52 1 51 15
M  V30 53 1 52 15
M  V30 54 1 53 16
M  V30 55 1 54 16
M  V30 56 1 55 17
M  V30 57 1 56 18
M  V30 58 1 57 19
M  V30 59 1 58 19
M  V30 60 1 59 19
M  V30 61 1 20 60 CFG=3
M  V30 62 1 61 21
M  V30 63 1 62 24
M  V30 64 1 63 24
M  V30 65 1 64 24
M  V30 66 1 65 27
M  V30 67 1 66 28
M  V30 68 1 67 28
M  V30 69 1 29 68 CFG=3
M  V30 70 1 69 30
M  V30 71 1 70 31
M  V30 72 1 5 71 CFG=1
M  V30 73 1 32 72 CFG=3
M  V30 74 1 73 33
M  V30 75 1 74 33
M  V30 76 1 75 33
M  V30 77 1 34 76 CFG=1
M  V30 78 1 25 77 CFG=3
M  V30 END BOND
M  V30 END CTAB
M  END
>  <i_epik_Tot_Q>  (1) 
1

>  <i_epik_Tot_abs_Q>  (1) 
1

>  <i_i_glide_confnum>  (1) 
3470

>  <i_i_glide_lignum>  (1) 
168

>  <i_i_glide_posenum>  (1) 
304

>  <i_i_glide_rotatable_bonds>  (1) 
18

>  <i_lp_mmshare_version>  (1) 
72125

>  <i_m_source_file_index>  (1) 
76

>  <i_f3d_flags>  (1) 
0

>  <num_sample>  (1) 
100

>  <b_lp_Chiralities_Consistent>  (1) 
1

>  <r_epik_Charging_Adjusted_Penalty>  (1) 
0.52789471212939676

>  <r_epik_Ionization_Penalty>  (1) 
0.26592108790513191

>  <r_epik_Ionization_Penalty_Charging>  (1) 
0.26394735606469838

>  <r_epik_Ionization_Penalty_Neutral>  (1) 
0.0019737318404335234

>  <r_epik_State_Penalty>  (1) 
0.26394735606469838

>  <r_glide_ring_energy>  (1) 
0

>  <r_i_docking_score>  (1) 
-7.0096251690842903

>  <r_i_glide_ecoul>  (1) 
-9.9380814168721514

>  <r_i_glide_eff_state_penalty>  (1) 
0.26394735606469838

>  <r_i_glide_einternal>  (1) 
10.685931519998338

>  <r_i_glide_emodel>  (1) 
-66.812670873868996

>  <r_i_glide_emodel_strain>  (1) 
4.3137134438830742

>  <r_i_glide_energy>  (1) 
-50.76538140641749

>  <r_i_glide_erotb>  (1) 
1.0139394581015995

>  <r_i_glide_esite>  (1) 
-0.030361843032182437

>  <r_i_glide_evdw>  (1) 
-40.827299989545338

>  <r_i_glide_gscore>  (1) 
-7.2735725251489889

>  <r_i_glide_gscore_strain>  (1) 
0.078428360970768551

>  <r_i_glide_hbond>  (1) 
-0.32000000000000001

>  <r_i_glide_ligand_efficiency>  (1) 
-0.20027500483097974

>  <r_i_glide_ligand_efficiency_ln>  (1) 
-1.5387682948627264

>  <r_i_glide_ligand_efficiency_sa>  (1) 
-0.65511282107547497

>  <r_i_glide_lipo>  (1) 
-3.8993892991075731

>  <r_i_glide_metal>  (1) 
-0

>  <r_i_glide_rewards>  (1) 
-0.58411199007351078

>  <r_lp_Energy>  (1) 
30.563872

>  <r_lp_tautomer_probability>  (1) 
0.99989998499911525

>  <s_epik_Chemistry_Notes>  (1) 
This compound contains an acetal/aminal-like group ( X-CH(R)-Y where X, Y are N, S, or O) that may be acid/base labile, releasing an aldehyde.

>  <s_epik_cmdline>  (1) 
J2VwaWtfcHl0aG9uJywgJy1waHQnLCAnMS4wJywgJy1waCcsICc3LjQnLCAnLXRuJywgJzgnLCAnLW1hJywgJzUwMCcsICctaW1hZScsICc8aW5maWxlLm1hZT4nLCAnLW9tYWUnLCAnPG91dGZpbGUubWFlPic=

>  <s_epik_input>  (1) 
W2NIXTFbY0hdYyhbT0hdKVtjSF1bY0hdYzFbQ0gyXVtDSDJdQyg9TylbQ0BIXShOKFtDSDNdKVtDSDJdW0NIMl1bT0hdKVtDSDJdW0NASF0oT1tDSDNdKVNbQ0gyXVtDQEBIXShbT0hdKVtDQEhdMltDQEBIXShbQ0gzXSlbQ0BIXShbT0hdKVtDSDJdQyhbT0hdKT1DMltDSDNd

>  <s_glide_docking_method>  (1) 
confgen

>  <s_i_glide_gridfile>  (1) 
gpcr_5ht2c_6bqh_protein_autoprepared_prepared

>  <s_lp_Force_Field>  (1) 
S-OPLS

>  <s_lp_Variant>  (1) 
DiffSBDD_75-5

>  <s_m_source_file>  (1) 
generated_GPCR_5HT2C_ligand_DiffSBDD_2026-06-23_prepared.sdf

>  <GenAI_Model>  (1) 
DiffSBDD

>  <Protein>  (1) 
GPCR_5HT2C

$$$$
DiffSBDD_63
     RDKit          3D

  0  0  0  0  0  0  0  0  0  0999 V3000
M  V30 BEGIN CTAB
M  V30 COUNTS 83 88 0 0 1
M  V30 BEGIN ATOM
M  V30 1 F 37.837729 28.266959 55.169357 0
M  V30 2 C 40.045130 36.137753 64.385641 0
M  V30 3 C 38.675289 29.299665 55.102014 0 CFG=1
M  V30 4 C 44.550656 27.946023 65.515163 0
M  V30 5 C 39.033426 28.217656 59.338713 0
M  V30 6 C 39.126099 30.193760 61.063507 0 CFG=1
M  V30 7 N 37.515746 31.355093 54.778730 0 CHG=1
M  V30 8 C 42.994424 32.461010 66.253041 0
M  V30 9 C 40.822456 35.246248 66.567629 0
M  V30 10 C 41.368085 32.814095 64.323709 0 CFG=2
M  V30 11 C 42.424600 31.873214 64.974383 0 CFG=2
M  V30 12 C 38.350962 28.087084 57.978047 0
M  V30 13 C 42.841785 33.737751 66.623146 0
M  V30 14 C 40.835264 35.235495 63.720181 0
M  V30 15 N 39.201431 36.857447 63.533481 0
M  V30 16 N 38.042704 30.302261 58.814914 0 CHG=1
M  V30 17 C 37.901320 29.507917 57.578241 0 CFG=1
M  V30 18 C 43.133494 28.924110 67.391589 0
M  V30 19 C 38.398126 37.005291 61.189747 0
M  V30 20 O 40.334055 28.275721 61.904096 0
M  V30 21 O 41.128838 32.458897 62.957953 0
M  V30 22 S 40.553680 35.303472 61.989354 0
M  V30 23 C 38.282563 31.533913 56.016712 0 CFG=2
M  V30 24 C 39.154437 29.725189 59.590632 0 CFG=2
M  V30 25 C 39.450698 32.495146 55.772759 0
M  V30 26 C 41.826727 34.297837 64.340466 0 CFG=1
M  V30 27 C 40.045310 29.461679 62.030538 0
M  V30 28 C 39.290040 36.483829 62.263007 0
M  V30 29 O 45.645134 27.713104 66.379437 0
M  V30 30 C 43.719681 29.155115 65.985788 0 CFG=2
M  V30 31 C 42.594199 29.460862 64.976672 0
M  V30 32 C 40.083580 31.559792 62.766666 0 CFG=2
M  V30 33 O 41.822679 30.622472 65.290150 0
M  V30 34 C 42.098486 34.775503 65.804298 0 CFG=1
M  V30 35 O 40.478229 30.248994 62.996174 0
M  V30 36 C 38.138511 30.247633 54.037360 0
M  V30 37 C 39.628137 31.612527 61.301808 0
M  V30 38 C 38.742802 30.112618 56.420087 0 CFG=2
M  V30 39 C 40.021528 36.364442 65.859816 0
M  V30 40 H 39.645220 28.889517 54.820363 0
M  V30 41 H 44.933922 28.109118 64.506651 0
M  V30 42 H 43.932435 27.047978 65.479437 0
M  V30 43 H 40.008736 27.728186 59.342522 0
M  V30 44 H 38.437804 27.737796 60.113208 0
M  V30 45 H 38.116811 30.104714 61.464611 0
M  V30 46 H 37.479835 32.213109 54.245713 0
M  V30 47 H 43.543261 31.790006 66.892562 0
M  V30 48 H 40.167125 34.382626 66.685120 0
M  V30 49 H 41.067333 35.564553 67.580684 0
M  V30 50 H 40.444026 32.761324 64.902088 0
M  V30 51 H 43.245120 31.737745 64.271814 0
M  V30 52 H 39.041265 27.647337 57.257340 0
M  V30 53 H 37.495738 27.413907 58.043022 0
M  V30 54 H 43.271479 34.076222 67.554281 0
M  V30 55 H 37.191307 30.183058 59.345763 0
M  V30 56 H 36.847533 29.506522 57.293375 0
M  V30 57 H 42.486441 28.046309 67.408686 0
M  V30 58 H 43.920026 28.771940 68.130955 0
M  V30 59 H 42.538345 29.775879 67.720890 0
M  V30 60 H 37.356805 36.919033 61.501022 0
M  V30 61 H 38.611787 38.056360 60.997516 0
M  V30 62 H 38.526995 36.434195 60.270823 0
M  V30 63 H 37.645137 31.990689 56.770362 0
M  V30 64 H 40.079048 30.057148 59.126857 0
M  V30 65 H 40.001936 32.693128 56.689947 0
M  V30 66 H 40.148570 32.078310 55.049119 0
M  V30 67 H 39.101046 33.456038 55.392304 0
M  V30 68 H 42.759999 34.360083 63.781213 0
M  V30 69 H 46.273086 28.425188 66.311860 0
M  V30 70 H 44.398252 30.006124 66.017194 0
M  V30 71 H 42.991324 29.538825 63.963246 0
M  V30 72 H 41.902483 28.617811 64.955150 0
M  V30 73 H 39.245179 31.795171 63.419981 0
M  V30 74 H 42.754257 35.644904 65.732746 0
M  V30 75 H 38.956899 30.645836 53.435974 0
M  V30 76 H 37.446768 29.737780 53.367787 0
M  V30 77 H 38.868397 32.382772 61.168324 0
M  V30 78 H 40.484491 31.848311 60.668320 0
M  V30 79 H 39.784248 30.151912 56.742641 0
M  V30 80 H 38.997766 36.381729 66.235141 0
M  V30 81 H 40.445167 37.337719 66.101907 0
M  V30 82 H 38.173802 31.285755 58.625558 0
M  V30 83 H 36.572520 31.109788 55.057969 0
M  V30 END ATOM
M  V30 BEGIN BOND
M  V30 1 1 3 1
M  V30 2 1 11 8
M  V30 3 1 11 10
M  V30 4 1 12 5
M  V30 5 2 13 8
M  V30 6 2 14 2
M  V30 7 1 15 2
M  V30 8 1 17 12
M  V30 9 1 17 16
M  V30 10 1 21 10
M  V30 11 1 22 14
M  V30 12 1 23 7
M  V30 13 1 24 5
M  V30 14 1 24 6
M  V30 15 1 24 16
M  V30 16 1 25 23
M  V30 17 1 26 10
M  V30 18 1 26 14
M  V30 19 1 27 6
M  V30 20 2 27 20
M  V30 21 2 28 15
M  V30 22 1 28 19
M  V30 23 1 28 22
M  V30 24 1 29 4
M  V30 25 1 30 4
M  V30 26 1 30 18
M  V30 27 1 31 30
M  V30 28 1 32 21
M  V30 29 1 33 11
M  V30 30 1 33 31
M  V30 31 1 34 9
M  V30 32 1 34 13
M  V30 33 1 34 26
M  V30 34 1 35 27
M  V30 35 1 35 32
M  V30 36 1 36 3
M  V30 37 1 36 7
M  V30 38 1 37 6
M  V30 39 1 37 32
M  V30 40 1 38 3
M  V30 41 1 38 17
M  V30 42 1 38 23
M  V30 43 1 39 2
M  V30 44 1 39 9
M  V30 45 1 3 40 CFG=3
M  V30 46 1 41 4
M  V30 47 1 42 4
M  V30 48 1 43 5
M  V30 49 1 44 5
M  V30 50 1 6 45 CFG=1
M  V30 51 1 46 7
M  V30 52 1 47 8
M  V30 53 1 48 9
M  V30 54 1 49 9
M  V30 55 1 10 50 CFG=1
M  V30 56 1 11 51 CFG=3
M  V30 57 1 52 12
M  V30 58 1 53 12
M  V30 59 1 54 13
M  V30 60 1 55 16
M  V30 61 1 17 56 CFG=3
M  V30 62 1 57 18
M  V30 63 1 58 18
M  V30 64 1 59 18
M  V30 65 1 60 19
M  V30 66 1 61 19
M  V30 67 1 62 19
M  V30 68 1 23 63 CFG=1
M  V30 69 1 24 64 CFG=3
M  V30 70 1 65 25
M  V30 71 1 66 25
M  V30 72 1 67 25
M  V30 73 1 26 68 CFG=3
M  V30 74 1 69 29
M  V30 75 1 30 70 CFG=1
M  V30 76 1 71 31
M  V30 77 1 72 31
M  V30 78 1 32 73 CFG=1
M  V30 79 1 34 74 CFG=3
M  V30 80 1 75 36
M  V30 81 1 76 36
M  V30 82 1 77 37
M  V30 83 1 78 37
M  V30 84 1 38 79 CFG=1
M  V30 85 1 80 39
M  V30 86 1 81 39
M  V30 87 1 82 16
M  V30 88 1 83 7
M  V30 END BOND
M  V30 END CTAB
M  END
>  <i_epik_Tot_Q>  (1) 
2

>  <i_epik_Tot_abs_Q>  (1) 
2

>  <i_i_glide_confnum>  (1) 
611

>  <i_i_glide_lignum>  (1) 
139

>  <i_i_glide_posenum>  (1) 
133

>  <i_i_glide_rotatable_bonds>  (1) 
9

>  <i_lp_mmshare_version>  (1) 
72125

>  <i_m_source_file_index>  (1) 
64

>  <i_f3d_flags>  (1) 
0

>  <num_sample>  (1) 
100

>  <b_lp_Chiralities_Consistent>  (1) 
1

>  <r_epik_Charging_Adjusted_Penalty>  (1) 
0.080070908620723774

>  <r_epik_Ionization_Penalty>  (1) 
0.041568301575603359

>  <r_epik_Ionization_Penalty_Charging>  (1) 
0.040241786303222601

>  <r_epik_Ionization_Penalty_Neutral>  (1) 
0.0013265152723807572

>  <r_epik_State_Penalty>  (1) 
0.039829122317501166

>  <r_glide_ring_energy>  (1) 
0.79944395753776076

>  <r_i_docking_score>  (1) 
-7.004064076468306

>  <r_i_glide_ecoul>  (1) 
-4.0773052823296565

>  <r_i_glide_eff_state_penalty>  (1) 
0.039829122317501166

>  <r_i_glide_einternal>  (1) 
9.0054197611045641

>  <r_i_glide_emodel>  (1) 
-63.904386387124916

>  <r_i_glide_emodel_strain>  (1) 
5.8623005999863693

>  <r_i_glide_energy>  (1) 
-48.724613441029952

>  <r_i_glide_erotb>  (1) 
0.43483266289788453

>  <r_i_glide_esite>  (1) 
-0.12830364370682221

>  <r_i_glide_evdw>  (1) 
-44.647308158700298

>  <r_i_glide_gscore>  (1) 
-7.0438931987858071

>  <r_i_glide_gscore_strain>  (1) 
0.46557514999659233

>  <r_i_glide_hbond>  (1) 
-0.36394295734954729

>  <r_i_glide_ligand_efficiency>  (1) 
-0.1795913865761104

>  <r_i_glide_ligand_efficiency_ln>  (1) 
-1.5018701601770559

>  <r_i_glide_ligand_efficiency_sa>  (1) 
-0.60903236522368653

>  <r_i_glide_lipo>  (1) 
-3.5384961997015201

>  <r_i_glide_metal>  (1) 
-0

>  <r_i_glide_rewards>  (1) 
-1.0695970106379296

>  <r_lp_Energy>  (1) 
26.901284999999998

>  <s_epik_Chemistry_Notes>  (1) 
This compound has an ester and may undergo hydrolysis at high or low pH. This compound contains an acetal/aminal-like group ( X-CH(R)-Y where X, Y are N, S, or O) that may be acid/base labile, releasing an aldehyde.

>  <s_epik_cmdline>  (1) 
J2VwaWtfcHl0aG9uJywgJy1waHQnLCAnMS4wJywgJy1waCcsICc3LjQnLCAnLXRuJywgJzgnLCAnLW1hJywgJzUwMCcsICctaW1hZScsICc8aW5maWxlLm1hZT4nLCAnLW9tYWUnLCAnPG91dGZpbGUubWFlPic=

>  <s_epik_input>  (1) 
RltDQEhdMVtDSDJdW05IXVtDQEhdKFtDSDNdKVtDQEhdMVtDQEhdMltDSDJdW0NIMl1bQ0BASF0oW05IXTIpW0NASF0zQyg9TylPW0NASF0oW0NIMl0zKU9bQ0BIXTRbQ0BIXShPW0NIMl1bQ0BASF0oW0NIM10pW0NIMl1bT0hdKVtDSF09W0NIXVtDQEhdKFtDSDJdW0NIMl01KVtDQEBIXTRjKGM1NilzYyhuNilbQ0gzXQ==

>  <s_glide_docking_method>  (1) 
confgen

>  <s_i_glide_gridfile>  (1) 
gpcr_5ht2c_6bqh_protein_autoprepared_prepared

>  <s_lp_Force_Field>  (1) 
S-OPLS

>  <s_lp_Variant>  (1) 
DiffSBDD_63-1

>  <s_m_source_file>  (1) 
generated_GPCR_5HT2C_ligand_DiffSBDD_2026-06-23_prepared.sdf

>  <GenAI_Model>  (1) 
DiffSBDD

>  <Protein>  (1) 
GPCR_5HT2C

$$$$
DiffSBDD_78
     RDKit          3D

  0  0  0  0  0  0  0  0  0  0999 V3000
M  V30 BEGIN CTAB
M  V30 COUNTS 105 110 0 0 1
M  V30 BEGIN ATOM
M  V30 1 O 41.736669 29.240759 67.640519 0
M  V30 2 C 36.429700 33.649388 60.817518 0
M  V30 3 C 38.512113 27.854841 58.726618 0 CFG=1
M  V30 4 C 41.951812 34.693576 66.630135 0
M  V30 5 O 40.906860 35.187177 70.372305 0
M  V30 6 C 38.132284 32.009260 59.600090 0 CFG=2
M  V30 7 C 41.673210 30.606141 68.054388 0
M  V30 8 O 42.770061 32.604422 67.249975 0
M  V30 9 C 37.282172 33.272108 59.629307 0 CFG=1
M  V30 10 O 43.486102 28.459452 64.012716 0
M  V30 11 C 39.931391 30.156102 51.592113 0
M  V30 12 N 38.481771 29.313823 58.864807 0
M  V30 13 N 36.845270 32.043430 58.967731 0 CFG=2 CHG=1
M  V30 14 C 40.070531 29.356278 49.362048 0
M  V30 15 C 34.952571 33.235830 60.815956 0
M  V30 16 C 39.218052 27.150872 57.600361 0 CFG=1
M  V30 17 N 38.633396 29.639499 60.260634 0
M  V30 18 C 40.633217 28.729814 66.873080 0
M  V30 19 C 38.225202 30.978061 60.704142 0 CFG=1
M  V30 20 C 39.289591 28.497523 50.299335 0
M  V30 21 C 39.079611 30.407483 63.025524 0
M  V30 22 C 42.165767 33.752895 67.834429 0 CFG=2
M  V30 23 C 40.910747 28.797247 60.710277 0
M  V30 24 C 38.434573 28.370802 52.686775 0
M  V30 25 C 40.192873 34.775262 69.229757 0
M  V30 26 C 42.993640 31.411893 68.006280 0 CFG=2
M  V30 27 C 41.041456 27.939203 59.448213 0
M  V30 28 C 39.269583 29.402584 67.094110 0
M  V30 29 O 36.892840 34.289108 61.752638 0
M  V30 30 C 39.438582 30.951620 61.650170 0
M  V30 31 C 39.197480 28.953050 51.496068 0
M  V30 32 C 40.165773 32.281980 61.863557 0
M  V30 33 C 44.225508 30.742155 65.772921 0
M  V30 34 C 35.640411 31.304923 59.418957 0
M  V30 35 C 39.314048 28.112783 53.908636 0
M  V30 36 C 38.651203 27.731747 55.225278 0
M  V30 37 O 40.504623 30.409653 50.336122 0
M  V30 38 N 41.690933 29.433401 62.887397 0
M  V30 39 S 42.599457 30.782139 64.946954 0
M  V30 40 C 41.645195 28.562438 61.817301 0
M  V30 41 C 40.832211 33.529531 68.591406 0
M  V30 42 C 42.655134 29.354953 63.868944 0
M  V30 43 C 34.572531 32.359467 59.621003 0
M  V30 44 C 39.692420 27.855973 56.361009 0
M  V30 45 O 40.045423 30.864735 52.589199 0
M  V30 46 C 40.001208 29.995253 60.561636 0 CFG=2
M  V30 47 C 39.822900 27.151618 58.990225 0 CFG=1
M  V30 48 C 44.156580 30.652791 67.315533 0
M  V30 49 H 37.645137 27.282550 58.967709 0
M  V30 50 H 41.657532 35.697495 66.932038 0
M  V30 51 H 41.166398 34.312399 65.977303 0
M  V30 52 H 42.845134 34.786292 66.020506 0
M  V30 53 H 40.922288 34.478103 70.997479 0
M  V30 54 H 38.909859 31.985685 58.841651 0
M  V30 55 H 41.244356 30.634391 69.055197 0
M  V30 56 H 41.009558 31.155992 67.399712 0
M  V30 57 H 37.495414 34.045387 58.895344 0
M  V30 58 H 37.605905 29.678907 58.496134 0
M  V30 59 H 39.444180 29.793778 48.592408 0
M  V30 60 H 34.352619 34.137153 60.807441 0
M  V30 61 H 34.740323 32.710575 61.745949 0
M  V30 62 H 38.814634 26.171937 57.344446 0
M  V30 63 H 40.864696 28.783737 65.815589 0
M  V30 64 H 40.556758 27.663873 67.083599 0
M  V30 65 H 37.345851 30.940089 61.337871 0
M  V30 66 H 38.840946 27.584080 49.961563 0
M  V30 67 H 39.685291 30.801188 63.841414 0
M  V30 68 H 39.230949 29.337581 62.967824 0
M  V30 69 H 38.045289 30.561092 63.303452 0
M  V30 70 H 42.908529 34.137692 68.526768 0
M  V30 71 H 37.949178 27.444235 52.378868 0
M  V30 72 H 37.638273 29.066635 52.951824 0
M  V30 73 H 39.180894 34.529537 69.546439 0
M  V30 74 H 40.093606 35.600550 68.524136 0
M  V30 75 H 43.302130 31.667778 69.022103 0
M  V30 76 H 41.280921 28.644526 58.652345 0
M  V30 77 H 41.941100 27.337719 59.495552 0
M  V30 78 H 38.474394 28.937561 66.539622 0
M  V30 79 H 39.245371 30.438147 66.767223 0
M  V30 80 H 39.004322 29.337767 68.141617 0
M  V30 81 H 40.845084 28.813336 48.859127 0
M  V30 82 H 41.079827 32.158144 62.443628 0
M  V30 83 H 39.536376 32.995617 62.396422 0
M  V30 84 H 40.450323 32.746049 60.919255 0
M  V30 85 H 44.875197 29.962490 65.380170 0
M  V30 86 H 44.713082 31.681478 65.512130 0
M  V30 87 H 35.356744 30.574604 58.655244 0
M  V30 88 H 35.713477 30.701273 60.314492 0
M  V30 89 H 40.037165 27.337567 53.645587 0
M  V30 90 H 39.870119 29.019711 54.138507 0
M  V30 91 H 37.791634 28.372620 55.430722 0
M  V30 92 H 38.271259 26.711316 55.149405 0
M  V30 93 H 41.081049 30.238744 62.892109 0
M  V30 94 H 42.313271 27.737832 61.916917 0
M  V30 95 H 40.095585 33.112331 67.912932 0
M  V30 96 H 40.980683 32.788535 69.369552 0
M  V30 97 H 33.645247 31.844161 59.767540 0
M  V30 98 H 34.432791 32.978707 58.735181 0
M  V30 99 H 39.921943 28.901073 56.566747 0
M  V30 100 H 40.623328 27.378309 56.053250 0
M  V30 101 H 40.445465 30.537808 59.767711 0
M  V30 102 H 39.775611 26.141760 59.367751 0
M  V30 103 H 45.096046 31.052578 67.697064 0
M  V30 104 H 44.156314 29.608633 67.626491 0
M  V30 105 H 36.819454 32.184927 57.962285 0
M  V30 END ATOM
M  V30 BEGIN BOND
M  V30 1 1 7 1
M  V30 2 1 9 2
M  V30 3 1 9 6
M  V30 4 1 12 3
M  V30 5 1 13 6
M  V30 6 1 13 9
M  V30 7 1 15 2
M  V30 8 1 16 3
M  V30 9 1 17 12
M  V30 10 1 18 1
M  V30 11 1 19 6
M  V30 12 1 19 17
M  V30 13 1 20 14
M  V30 14 1 22 4
M  V30 15 1 22 8
M  V30 16 1 25 5
M  V30 17 1 26 7
M  V30 18 1 26 8
M  V30 19 1 27 23
M  V30 20 1 28 18
M  V30 21 2 29 2
M  V30 22 1 30 19
M  V30 23 1 30 21
M  V30 24 1 31 11
M  V30 25 2 31 20
M  V30 26 1 31 24
M  V30 27 1 32 30
M  V30 28 1 34 13
M  V30 29 1 35 24
M  V30 30 1 36 35
M  V30 31 1 37 11
M  V30 32 1 37 14
M  V30 33 1 39 33
M  V30 34 2 40 23
M  V30 35 1 40 38
M  V30 36 1 41 22
M  V30 37 1 41 25
M  V30 38 2 42 10
M  V30 39 1 42 38
M  V30 40 1 42 39
M  V30 41 1 43 15
M  V30 42 1 43 34
M  V30 43 1 44 16
M  V30 44 1 44 36
M  V30 45 2 45 11
M  V30 46 1 46 17
M  V30 47 1 46 23
M  V30 48 1 46 30
M  V30 49 1 47 3
M  V30 50 1 47 16
M  V30 51 1 47 27
M  V30 52 1 48 26
M  V30 53 1 48 33
M  V30 54 1 3 49 CFG=1
M  V30 55 1 50 4
M  V30 56 1 51 4
M  V30 57 1 52 4
M  V30 58 1 53 5
M  V30 59 1 6 54 CFG=3
M  V30 60 1 55 7
M  V30 61 1 56 7
M  V30 62 1 9 57 CFG=3
M  V30 63 1 58 12
M  V30 64 1 59 14
M  V30 65 1 60 15
M  V30 66 1 61 15
M  V30 67 1 16 62 CFG=3
M  V30 68 1 63 18
M  V30 69 1 64 18
M  V30 70 1 19 65 CFG=1
M  V30 71 1 66 20
M  V30 72 1 67 21
M  V30 73 1 68 21
M  V30 74 1 69 21
M  V30 75 1 22 70 CFG=1
M  V30 76 1 71 24
M  V30 77 1 72 24
M  V30 78 1 73 25
M  V30 79 1 74 25
M  V30 80 1 26 75 CFG=1
M  V30 81 1 76 27
M  V30 82 1 77 27
M  V30 83 1 78 28
M  V30 84 1 79 28
M  V30 85 1 80 28
M  V30 86 1 81 14
M  V30 87 1 82 32
M  V30 88 1 83 32
M  V30 89 1 84 32
M  V30 90 1 85 33
M  V30 91 1 86 33
M  V30 92 1 87 34
M  V30 93 1 88 34
M  V30 94 1 89 35
M  V30 95 1 90 35
M  V30 96 1 91 36
M  V30 97 1 92 36
M  V30 98 1 93 38
M  V30 99 1 94 40
M  V30 100 1 95 41
M  V30 101 1 96 41
M  V30 102 1 97 43
M  V30 103 1 98 43
M  V30 104 1 99 44
M  V30 105 1 100 44
M  V30 106 1 46 101 CFG=3
M  V30 107 1 47 102 CFG=1
M  V30 108 1 103 48
M  V30 109 1 104 48
M  V30 110 1 13 105 CFG=3
M  V30 END BOND
M  V30 END CTAB
M  END
>  <i_epik_Tot_Q>  (1) 
1

>  <i_epik_Tot_abs_Q>  (1) 
1

>  <i_i_glide_confnum>  (1) 
2030

>  <i_i_glide_lignum>  (1) 
181

>  <i_i_glide_posenum>  (1) 
394

>  <i_i_glide_rotatable_bonds>  (1) 
20

>  <i_lp_mmshare_version>  (1) 
72125

>  <i_m_source_file_index>  (1) 
79

>  <i_f3d_flags>  (1) 
0

>  <num_sample>  (1) 
100

>  <b_lp_Chiralities_Consistent>  (1) 
1

>  <r_epik_Charging_Adjusted_Penalty>  (1) 
0.27991857207723647

>  <r_epik_Ionization_Penalty>  (1) 
0.14008487576319317

>  <r_epik_Ionization_Penalty_Charging>  (1) 
0.13995928603861824

>  <r_epik_Ionization_Penalty_Neutral>  (1) 
0.0001255897245749389

>  <r_epik_State_Penalty>  (1) 
0.13995928603861821

>  <r_glide_ring_energy>  (1) 
0

>  <r_i_docking_score>  (1) 
-7.0032287143705938

>  <r_i_glide_ecoul>  (1) 
-2.6148549167722956

>  <r_i_glide_eff_state_penalty>  (1) 
0.13995928603861821

>  <r_i_glide_einternal>  (1) 
17.521850626195178

>  <r_i_glide_emodel>  (1) 
-28.540986393839226

>  <r_i_glide_emodel_strain>  (1) 
6.6213268858230947

>  <r_i_glide_energy>  (1) 
-35.17583291327341

>  <r_i_glide_erotb>  (1) 
0.59343049219720367

>  <r_i_glide_esite>  (1) 
-0.13395270861649958

>  <r_i_glide_evdw>  (1) 
-32.560977996501116

>  <r_i_glide_gscore>  (1) 
-7.1431880004092116

>  <r_i_glide_gscore_strain>  (1) 
0.65533172145577367

>  <r_i_glide_hbond>  (1) 
-0.095047072276182809

>  <r_i_glide_ligand_efficiency>  (1) 
-0.14590059821605403

>  <r_i_glide_ligand_efficiency_ln>  (1) 
-1.4376800913549936

>  <r_i_glide_ligand_efficiency_sa>  (1) 
-0.53023796304983994

>  <r_i_glide_lipo>  (1) 
-4.4479677484013225

>  <r_i_glide_metal>  (1) 
-0

>  <r_i_glide_rewards>  (1) 
-1.6947055474272843

>  <r_lp_Energy>  (1) 
49.471941999999999

>  <r_lp_tautomer_probability>  (1) 
0.99979120136373534

>  <s_epik_Chemistry_Notes>  (1) 
This compound has an ester and may undergo hydrolysis at high or low pH.

>  <s_epik_cmdline>  (1) 
J2VwaWtfcHl0aG9uJywgJy1waHQnLCAnMS4wJywgJy1waCcsICc3LjQnLCAnLXRuJywgJzgnLCAnLW1hJywgJzUwMCcsICctaW1hZScsICc8aW5maWxlLm1hZT4nLCAnLW9tYWUnLCAnPG91dGZpbGUubWFlPic=

>  <s_epik_input>  (1) 
W09IXVtDSDJdW0NIMl1bQ0BIXShbQ0gzXSlPW0NAQEhdKFtDSDJdT1tDSDJdW0NIM10pW0NIMl1bQ0gyXVNDKD1PKVtOSF1cW0NIXT1DKFtDQEhdMU4oW05IXTIpW0NAQEhdKEMxKFtDSDNdKVtDSDNdKVtDQEhdM04oW0NASF0zNClbQ0gyXVtDSDJdW0NIMl1DND1PKVxbQ0gyXVtDQEBIXShbQ0BASF0yNSlbQ0BASF01W0NIMl1bQ0gyXVtDSDJdW0NIMl1bQ0BASF0oQzY9TylbQ0hdPVtDSF1PNg==

>  <s_glide_docking_method>  (1) 
confgen

>  <s_i_glide_gridfile>  (1) 
gpcr_5ht2c_6bqh_protein_autoprepared_prepared

>  <s_lp_Force_Field>  (1) 
S-OPLS

>  <s_lp_Variant>  (1) 
DiffSBDD_78-3

>  <s_m_source_file>  (1) 
generated_GPCR_5HT2C_ligand_DiffSBDD_2026-06-23_prepared.sdf

>  <GenAI_Model>  (1) 
DiffSBDD

>  <Protein>  (1) 
GPCR_5HT2C

$$$$
DiffSBDD_20
     RDKit          3D

  0  0  0  0  0  0  0  0  0  0999 V3000
M  V30 BEGIN CTAB
M  V30 COUNTS 53 54 0 0 1
M  V30 BEGIN ATOM
M  V30 1 C 38.585639 30.407601 56.582042 0 CFG=2
M  V30 2 O 40.445145 29.737800 55.284845 0
M  V30 3 O 40.845150 29.371170 60.642640 0
M  V30 4 P 39.616642 29.337212 59.834847 0
M  V30 5 C 38.413074 30.214441 54.057456 0 CFG=1
M  V30 6 N 37.413085 24.699166 56.293200 0
M  V30 7 C 40.013525 29.342375 52.165703 0
M  V30 8 C 40.874541 30.439803 50.018185 0
M  V30 9 C 38.659718 29.049849 57.266121 0
M  V30 10 C 40.476773 27.292412 57.969805 0 CFG=2
M  V30 11 N 37.245138 30.537755 56.103327 0 CHG=1
M  V30 12 C 39.337587 30.558780 55.260143 0
M  V30 13 F 38.045079 25.337694 54.167955 0
M  V30 14 C 39.760478 30.378390 51.064930 0
M  V30 15 C 38.245652 25.394087 55.490523 0
M  V30 16 O 38.719784 30.512259 59.808470 0 CHG=-1
M  V30 17 O 38.736951 28.017731 60.319655 0
M  V30 18 C 39.430237 26.343680 57.378745 0
M  V30 19 C 39.287470 26.200433 55.986662 0
M  V30 20 C 39.954659 28.763749 58.072308 0 CFG=2
M  V30 21 C 37.574389 24.829978 57.622608 0
M  V30 22 O 37.746069 28.537788 52.382148 0
M  V30 23 C 38.555115 25.644946 58.207414 0
M  V30 24 C 38.841076 29.029583 53.132652 0 CFG=2
M  V30 25 C 37.078666 29.989999 54.754899 0
M  V30 26 O 41.645034 27.337714 57.175279 0
M  V30 27 O 39.645627 31.921759 55.195793 0
M  V30 28 H 38.800879 31.199894 57.301471 0
M  V30 29 H 40.370567 29.123422 56.004772 0
M  V30 30 H 38.308775 31.101501 53.431764 0
M  V30 31 H 40.844789 29.737883 52.733622 0
M  V30 32 H 40.354577 28.410140 51.713409 0
M  V30 33 H 40.746039 31.310072 49.375363 0
M  V30 34 H 41.861875 30.507119 50.475248 0
M  V30 35 H 40.845126 29.555928 49.380666 0
M  V30 36 H 37.804342 28.913089 57.932630 0
M  V30 37 H 38.459392 28.368003 56.460248 0
M  V30 38 H 40.768513 26.939970 58.958172 0
M  V30 39 H 37.025310 31.527583 56.054062 0
M  V30 40 H 38.845050 30.137760 50.543799 0
M  V30 41 H 39.645048 31.363949 51.516323 0
M  V30 42 H 38.819167 28.002988 61.259968 0
M  V30 43 H 39.930955 26.740612 55.309181 0
M  V30 44 H 40.757782 29.428980 57.767605 0
M  V30 45 H 36.884971 24.279761 58.238069 0
M  V30 46 H 38.007980 27.751584 51.924470 0
M  V30 47 H 38.623501 25.735411 59.277264 0
M  V30 48 H 39.134707 28.190436 53.760820 0
M  V30 49 H 36.252791 30.494349 54.253504 0
M  V30 50 H 36.845407 28.929492 54.829630 0
M  V30 51 H 42.011303 26.459570 57.112282 0
M  V30 52 H 40.217031 32.136342 55.918870 0
M  V30 53 H 36.560996 30.185342 56.758675 0
M  V30 END ATOM
M  V30 BEGIN BOND
M  V30 1 2 4 3
M  V30 2 1 9 1
M  V30 3 1 11 1
M  V30 4 1 12 1
M  V30 5 1 12 2
M  V30 6 1 12 5
M  V30 7 1 14 7
M  V30 8 1 14 8
M  V30 9 2 15 6
M  V30 10 1 15 13
M  V30 11 1 16 4
M  V30 12 1 17 4
M  V30 13 1 18 10
M  V30 14 1 19 15
M  V30 15 2 19 18
M  V30 16 1 20 4
M  V30 17 1 20 9
M  V30 18 1 20 10
M  V30 19 1 21 6
M  V30 20 1 23 18
M  V30 21 2 23 21
M  V30 22 1 24 5
M  V30 23 1 24 7
M  V30 24 1 24 22
M  V30 25 1 25 5
M  V30 26 1 25 11
M  V30 27 1 26 10
M  V30 28 1 27 12
M  V30 29 1 1 28 CFG=1
M  V30 30 1 29 2
M  V30 31 1 5 30 CFG=3
M  V30 32 1 31 7
M  V30 33 1 32 7
M  V30 34 1 33 8
M  V30 35 1 34 8
M  V30 36 1 35 8
M  V30 37 1 36 9
M  V30 38 1 37 9
M  V30 39 1 10 38 CFG=1
M  V30 40 1 39 11
M  V30 41 1 40 14
M  V30 42 1 41 14
M  V30 43 1 42 17
M  V30 44 1 43 19
M  V30 45 1 20 44 CFG=3
M  V30 46 1 45 21
M  V30 47 1 46 22
M  V30 48 1 47 23
M  V30 49 1 24 48 CFG=1
M  V30 50 1 49 25
M  V30 51 1 50 25
M  V30 52 1 51 26
M  V30 53 1 52 27
M  V30 54 1 53 11
M  V30 END BOND
M  V30 END CTAB
M  END
>  <i_epik_Tot_Q>  (1) 
0

>  <i_epik_Tot_abs_Q>  (1) 
2

>  <i_i_glide_confnum>  (1) 
15

>  <i_i_glide_lignum>  (1) 
50

>  <i_i_glide_posenum>  (1) 
5

>  <i_i_glide_rotatable_bonds>  (1) 
13

>  <i_lp_mmshare_version>  (1) 
72125

>  <i_m_source_file_index>  (1) 
21

>  <i_f3d_flags>  (1) 
0

>  <num_sample>  (1) 
100

>  <b_lp_Chiralities_Consistent>  (1) 
1

>  <r_epik_Charging_Adjusted_Penalty>  (1) 
0.5459377507147144

>  <r_epik_Ionization_Penalty>  (1) 
0.54595169612510452

>  <r_epik_Ionization_Penalty_Charging>  (1) 
0.0068991791537532298

>  <r_epik_Ionization_Penalty_Neutral>  (1) 
0.53905251697135126

>  <r_epik_State_Penalty>  (1) 
0.53903857156096113

>  <r_glide_ring_energy>  (1) 
0

>  <r_i_docking_score>  (1) 
-7.00036582309101

>  <r_i_glide_ecoul>  (1) 
-9.6152063606379663

>  <r_i_glide_eff_state_penalty>  (1) 
0.53903857156096113

>  <r_i_glide_einternal>  (1) 
11.061606594467573

>  <r_i_glide_emodel>  (1) 
-55.073027273261332

>  <r_i_glide_emodel_strain>  (1) 
0.70237016398174035

>  <r_i_glide_energy>  (1) 
-33.233962318716422

>  <r_i_glide_erotb>  (1) 
0.70809137694380864

>  <r_i_glide_esite>  (1) 
-0.10000000000000001

>  <r_i_glide_evdw>  (1) 
-23.618755958078452

>  <r_i_glide_gscore>  (1) 
-7.5394043946519709

>  <r_i_glide_gscore_strain>  (1) 
0

>  <r_i_glide_hbond>  (1) 
-0.4787243585531476

>  <r_i_glide_ligand_efficiency>  (1) 
-0.25927280826262999

>  <r_i_glide_ligand_efficiency_ln>  (1) 
-1.6295697535652081

>  <r_i_glide_ligand_efficiency_sa>  (1) 
-0.77781842478789009

>  <r_i_glide_lipo>  (1) 
-3.2934184427999034

>  <r_i_glide_metal>  (1) 
-0

>  <r_i_glide_rewards>  (1) 
-1.7521342182431112

>  <r_lp_Energy>  (1) 
5.5430529999999996

>  <s_epik_cmdline>  (1) 
J2VwaWtfcHl0aG9uJywgJy1waHQnLCAnMS4wJywgJy1waCcsICc3LjQnLCAnLXRuJywgJzgnLCAnLW1hJywgJzUwMCcsICctaW1hZScsICc8aW5maWxlLm1hZT4nLCAnLW9tYWUnLCAnPG91dGZpbGUubWFlPic=

>  <s_epik_input>  (1) 
W0NIM11bQ0gyXVtDSDJdW0NAQEhdKFtPSF0pW0NASF0xW0NIMl1bTkhdW0NASF0oQzEoW09IXSlbT0hdKVtDSDJdW0NAQEhdKFAoPU8pKFtPSF0pW09IXSlbQ0BIXShbT0hdKWMoW2NIXTIpW2NIXVtjSF1uYzJG

>  <s_glide_docking_method>  (1) 
confgen

>  <s_i_glide_gridfile>  (1) 
gpcr_5ht2c_6bqh_protein_autoprepared_prepared

>  <s_lp_Force_Field>  (1) 
S-OPLS

>  <s_lp_Variant>  (1) 
DiffSBDD_20-4

>  <s_m_source_file>  (1) 
generated_GPCR_5HT2C_ligand_DiffSBDD_2026-06-23_prepared.sdf

>  <GenAI_Model>  (1) 
DiffSBDD

>  <Protein>  (1) 
GPCR_5HT2C

$$$$
DiffSBDD_13
     RDKit          3D

  0  0  0  0  0  0  0  0  0  0999 V3000
M  V30 BEGIN CTAB
M  V30 COUNTS 53 55 0 0 1
M  V30 BEGIN ATOM
M  V30 1 C 35.677936 33.030933 60.155044 0
M  V30 2 C 38.976644 30.227070 60.394812 0
M  V30 3 C 37.769835 29.852690 59.767753 0
M  V30 4 C 38.029023 32.424191 60.885878 0
M  V30 5 F 35.225896 33.337724 61.368429 0
M  V30 6 C 37.849537 25.874602 55.014185 0
M  V30 7 C 38.936819 28.494727 56.468000 0
M  V30 8 O 38.753288 29.568359 57.026582 0
M  V30 9 N 38.445324 28.275036 55.212015 0
M  V30 10 C 39.891845 26.138887 56.470274 0
M  V30 11 C 38.637601 25.315144 56.182979 0
M  V30 12 C 40.141189 29.248091 60.447913 0
M  V30 13 C 39.103520 31.514054 60.958961 0
M  V30 14 C 36.699084 30.761466 59.693954 0
M  V30 15 C 38.994473 29.759748 52.759384 0
M  V30 16 C 38.453535 28.479158 52.102384 0
M  V30 17 C 39.532043 27.865277 51.207819 0
M  V30 18 C 40.586874 28.882026 59.039381 0 CFG=1
M  V30 19 C 36.827256 32.048862 60.248789 0
M  V30 20 C 38.550703 27.083751 54.374585 0 CFG=2
M  V30 21 C 41.577876 27.793753 58.725014 0
M  V30 22 C 40.108743 27.565835 58.440122 0 CFG=2
M  V30 23 N 39.629379 27.453039 57.077265 0
M  V30 24 C 37.805266 27.449790 53.067846 0
M  V30 25 H 35.998209 33.953138 59.669393 0
M  V30 26 H 34.845780 32.617870 59.582953 0
M  V30 27 H 37.669636 28.869997 59.334489 0
M  V30 28 H 38.128560 33.411311 61.312140 0
M  V30 29 H 36.846443 26.150215 55.344799 0
M  V30 30 H 37.710733 25.083509 54.276513 0
M  V30 31 H 37.942084 29.045132 54.797990 0
M  V30 32 H 40.613575 26.194323 55.657166 0
M  V30 33 H 40.445120 25.550082 57.203237 0
M  V30 34 H 38.008941 25.261082 57.072981 0
M  V30 35 H 38.930561 24.289661 55.958322 0
M  V30 36 H 40.980460 29.687058 60.985746 0
M  V30 37 H 39.841625 28.352768 60.995124 0
M  V30 38 H 40.024691 31.806190 61.440260 0
M  V30 39 H 35.780365 30.472999 59.202496 0
M  V30 40 H 39.855385 29.562349 53.396232 0
M  V30 41 H 39.332567 30.470591 52.005940 0
M  V30 42 H 38.237223 30.256562 53.367759 0
M  V30 43 H 37.652663 28.781575 51.429367 0
M  V30 44 H 40.445145 27.737727 51.778982 0
M  V30 45 H 39.230060 26.903106 50.792562 0
M  V30 46 H 39.762366 28.525798 50.370967 0
M  V30 47 H 40.742386 29.737736 58.396012 0
M  V30 48 H 39.571824 26.883275 54.056572 0
M  V30 49 H 42.237653 27.947679 57.872943 0
M  V30 50 H 42.045160 27.337761 59.589555 0
M  V30 51 H 39.605667 26.897797 59.136917 0
M  V30 52 H 37.645135 26.537760 52.501705 0
M  V30 53 H 36.802556 27.799056 53.321288 0
M  V30 END ATOM
M  V30 BEGIN BOND
M  V30 1 2 3 2
M  V30 2 1 5 1
M  V30 3 2 8 7
M  V30 4 1 9 7
M  V30 5 1 11 6
M  V30 6 1 11 10
M  V30 7 1 12 2
M  V30 8 1 13 2
M  V30 9 2 13 4
M  V30 10 1 14 3
M  V30 11 1 16 15
M  V30 12 1 17 16
M  V30 13 1 18 12
M  V30 14 1 19 1
M  V30 15 1 19 4
M  V30 16 2 19 14
M  V30 17 1 20 6
M  V30 18 1 20 9
M  V30 19 1 21 18
M  V30 20 1 22 18
M  V30 21 1 22 21
M  V30 22 1 23 7
M  V30 23 1 23 10
M  V30 24 1 23 22
M  V30 25 1 24 16
M  V30 26 1 24 20
M  V30 27 1 25 1
M  V30 28 1 26 1
M  V30 29 1 27 3
M  V30 30 1 28 4
M  V30 31 1 29 6
M  V30 32 1 30 6
M  V30 33 1 31 9
M  V30 34 1 32 10
M  V30 35 1 33 10
M  V30 36 1 34 11
M  V30 37 1 35 11
M  V30 38 1 36 12
M  V30 39 1 37 12
M  V30 40 1 38 13
M  V30 41 1 39 14
M  V30 42 1 40 15
M  V30 43 1 41 15
M  V30 44 1 42 15
M  V30 45 1 43 16
M  V30 46 1 44 17
M  V30 47 1 45 17
M  V30 48 1 46 17
M  V30 49 1 18 47 CFG=3
M  V30 50 1 20 48 CFG=3
M  V30 51 1 49 21
M  V30 52 1 50 21
M  V30 53 1 22 51 CFG=1
M  V30 54 1 52 24
M  V30 55 1 53 24
M  V30 END BOND
M  V30 END CTAB
M  END
>  <i_epik_Tot_Q>  (1) 
0

>  <i_epik_Tot_abs_Q>  (1) 
0

>  <i_i_glide_confnum>  (1) 
177

>  <i_i_glide_lignum>  (1) 
22

>  <i_i_glide_posenum>  (1) 
328

>  <i_i_glide_rotatable_bonds>  (1) 
6

>  <i_lp_mmshare_version>  (1) 
72125

>  <i_m_source_file_index>  (1) 
14

>  <i_f3d_flags>  (1) 
0

>  <num_sample>  (1) 
100

>  <b_lp_Chiralities_Consistent>  (1) 
1

>  <r_epik_Charging_Adjusted_Penalty>  (1) 
0

>  <r_epik_Ionization_Penalty>  (1) 
3.0121457711640309e-05

>  <r_epik_Ionization_Penalty_Charging>  (1) 
0

>  <r_epik_Ionization_Penalty_Neutral>  (1) 
3.0121457711640309e-05

>  <r_epik_State_Penalty>  (1) 
-0

>  <r_glide_ring_energy>  (1) 
2.4280033264109

>  <r_i_docking_score>  (1) 
-6.9987836151830844

>  <r_i_glide_ecoul>  (1) 
-0.37548259868293382

>  <r_i_glide_eff_state_penalty>  (1) 
-0

>  <r_i_glide_einternal>  (1) 
2.7538945877321233

>  <r_i_glide_emodel>  (1) 
-47.424046770576588

>  <r_i_glide_emodel_strain>  (1) 
0.89954239173083295

>  <r_i_glide_energy>  (1) 
-36.912178807617352

>  <r_i_glide_erotb>  (1) 
0.68159817047081894

>  <r_i_glide_esite>  (1) 
0

>  <r_i_glide_evdw>  (1) 
-36.536696208934416

>  <r_i_glide_gscore>  (1) 
-6.9987836151830844

>  <r_i_glide_gscore_strain>  (1) 
0

>  <r_i_glide_hbond>  (1) 
0

>  <r_i_glide_ligand_efficiency>  (1) 
-0.29161598396596183

>  <r_i_glide_ligand_efficiency_ln>  (1) 
-1.6751300723667868

>  <r_i_glide_ligand_efficiency_sa>  (1) 
-0.84116605513936116

>  <r_i_glide_lipo>  (1) 
-3.4611281327635304

>  <r_i_glide_metal>  (1) 
-0

>  <r_i_glide_rewards>  (1) 
-2.3360964526412129

>  <r_lp_Energy>  (1) 
33.445327999999996

>  <r_lp_tautomer_probability>  (1) 
1

>  <s_epik_cmdline>  (1) 
J2VwaWtfcHl0aG9uJywgJy1waHQnLCAnMS4wJywgJy1waCcsICc3LjQnLCAnLXRuJywgJzgnLCAnLW1hJywgJzUwMCcsICctaW1hZScsICc8aW5maWxlLm1hZT4nLCAnLW9tYWUnLCAnPG91dGZpbGUubWFlPic=

>  <s_epik_input>  (1) 
RltDSDJdYyhbY0hdW2NIXTEpW2NIXVtjSF1jMVtDSDJdW0NASF0yW0NIMl1bQ0BASF0yTjNbQ0gyXVtDSDJdW0NIMl1bQ0BIXShbTkhdQzM9TylbQ0gyXVtDSF0oW0NIM10pW0NIM10=

>  <s_glide_docking_method>  (1) 
confgen

>  <s_i_glide_gridfile>  (1) 
gpcr_5ht2c_6bqh_protein_autoprepared_prepared

>  <s_lp_Force_Field>  (1) 
S-OPLS

>  <s_lp_Variant>  (1) 
DiffSBDD_13-1

>  <s_m_source_file>  (1) 
generated_GPCR_5HT2C_ligand_DiffSBDD_2026-06-23_prepared.sdf

>  <GenAI_Model>  (1) 
DiffSBDD

>  <Protein>  (1) 
GPCR_5HT2C

$$$$
DiffSBDD_25
     RDKit          3D

  0  0  0  0  0  0  0  0  0  0999 V3000
M  V30 BEGIN CTAB
M  V30 COUNTS 68 71 0 0 1
M  V30 BEGIN ATOM
M  V30 1 C 40.595925 34.540607 62.827166 0
M  V30 2 C 38.194479 29.980058 54.097749 0
M  V30 3 O 41.194482 35.180636 63.720405 0 CHG=-1
M  V30 4 C 39.506439 28.951345 60.143957 0
M  V30 5 N 38.112121 32.341220 60.117126 0
M  V30 6 C 37.641668 28.613737 53.667284 0
M  V30 7 C 39.180202 36.607585 62.246599 0
M  V30 8 C 37.256247 36.542731 60.864781 0
M  V30 9 C 40.369607 25.988108 54.698544 0
M  V30 10 C 38.719325 27.520520 53.605082 0
M  V30 11 C 39.204283 26.964887 54.972711 0 CFG=2
M  V30 12 C 36.246802 34.428624 59.920050 0
M  V30 13 O 37.737119 25.143329 54.706667 0
M  V30 14 O 38.723926 32.255487 62.357124 0
M  V30 15 N 38.788949 29.392722 57.929795 0
M  V30 16 C 38.384060 34.425505 61.398032 0
M  V30 17 O 40.980317 33.420572 62.434493 0
M  V30 18 C 38.362260 25.629619 56.921015 0
M  V30 19 C 39.362433 35.194285 62.158763 0
M  V30 20 C 39.706031 28.108318 55.904552 0
M  V30 21 C 38.578783 28.995601 56.519160 0 CFG=2
M  V30 22 C 38.429944 32.894757 61.343003 0
M  V30 23 C 38.139929 30.630272 58.369647 0
M  V30 24 N 38.155251 37.203580 61.607466 0 CHG=1
M  V30 25 C 38.250540 24.138721 56.730712 0
M  V30 26 C 39.371490 28.580874 58.875525 0
M  V30 27 N 40.045137 37.423697 62.967698 0
M  V30 28 N 38.093839 26.227271 55.609524 0
M  V30 29 C 38.325068 30.217955 55.602229 0
M  V30 30 C 38.445130 31.130339 59.798789 0
M  V30 31 C 35.926462 24.004312 55.748857 0
M  V30 32 N 39.088110 30.179265 60.631423 0
M  V30 33 C 37.413747 24.008052 55.476270 0 CFG=1
M  V30 34 C 37.324157 35.146385 60.733110 0
M  V30 35 H 37.523085 30.767692 53.767749 0
M  V30 36 H 39.145000 30.171218 53.598654 0
M  V30 37 H 39.965241 28.315933 60.887275 0
M  V30 38 H 36.817486 28.304554 54.304718 0
M  V30 39 H 37.223248 28.717540 52.665865 0
M  V30 40 H 36.488013 37.151291 60.407246 0
M  V30 41 H 41.132772 26.437737 54.071351 0
M  V30 42 H 40.845119 25.659825 55.620667 0
M  V30 43 H 40.045140 25.096763 54.167768 0
M  V30 44 H 38.343738 26.708549 52.982199 0
M  V30 45 H 39.569617 27.911123 53.045942 0
M  V30 46 H 35.426025 35.107891 59.693490 0
M  V30 47 H 36.633145 34.090000 58.957613 0
M  V30 48 H 35.811355 33.588496 60.462395 0
M  V30 49 H 39.333157 25.882688 57.340042 0
M  V30 50 H 37.600720 25.984160 57.616089 0
M  V30 51 H 40.401794 28.752288 55.367785 0
M  V30 52 H 40.363677 27.673728 56.647156 0
M  V30 53 H 37.645608 28.437069 56.551960 0
M  V30 54 H 38.418376 31.457593 57.719911 0
M  V30 55 H 37.059692 30.509982 58.273053 0
M  V30 56 H 37.821467 23.637570 57.599824 0
M  V30 57 H 39.245138 23.737774 56.568087 0
M  V30 58 H 39.702368 27.626380 58.516422 0
M  V30 59 H 40.807051 37.020792 63.512828 0
M  V30 60 H 39.888404 38.413132 63.064928 0
M  V30 61 H 37.390609 30.690937 55.910596 0
M  V30 62 H 39.110980 30.961353 55.742842 0
M  V30 63 H 35.635000 23.043807 56.167754 0
M  V30 64 H 35.646624 24.815091 56.423216 0
M  V30 65 H 35.385750 24.137665 54.816383 0
M  V30 66 H 37.645165 23.111185 54.905395 0
M  V30 67 H 39.307087 30.384803 61.597730 0
M  V30 68 H 38.060683 38.214931 61.685277 0
M  V30 END ATOM
M  V30 BEGIN BOND
M  V30 1 1 3 1
M  V30 2 1 6 2
M  V30 3 1 10 6
M  V30 4 1 11 9 CFG=3
M  V30 5 1 11 10
M  V30 6 2 17 1
M  V30 7 1 19 1
M  V30 8 2 19 7
M  V30 9 1 19 16
M  V30 10 1 20 11
M  V30 11 1 21 15
M  V30 12 1 21 20
M  V30 13 1 22 5
M  V30 14 2 22 14
M  V30 15 1 22 16
M  V30 16 1 23 15
M  V30 17 1 24 7
M  V30 18 2 24 8
M  V30 19 1 25 18
M  V30 20 2 26 4
M  V30 21 1 26 15
M  V30 22 1 27 7
M  V30 23 1 28 11
M  V30 24 1 28 13
M  V30 25 1 28 18
M  V30 26 1 29 2
M  V30 27 1 29 21
M  V30 28 2 30 5
M  V30 29 1 30 23
M  V30 30 1 32 4
M  V30 31 1 32 30
M  V30 32 1 33 13
M  V30 33 1 33 25
M  V30 34 1 33 31
M  V30 35 1 34 8
M  V30 36 1 34 12
M  V30 37 2 34 16
M  V30 38 1 35 2
M  V30 39 1 36 2
M  V30 40 1 37 4
M  V30 41 1 38 6
M  V30 42 1 39 6
M  V30 43 1 40 8
M  V30 44 1 41 9
M  V30 45 1 42 9
M  V30 46 1 43 9
M  V30 47 1 44 10
M  V30 48 1 45 10
M  V30 49 1 46 12
M  V30 50 1 47 12
M  V30 51 1 48 12
M  V30 52 1 49 18
M  V30 53 1 50 18
M  V30 54 1 51 20
M  V30 55 1 52 20
M  V30 56 1 21 53 CFG=1
M  V30 57 1 54 23
M  V30 58 1 55 23
M  V30 59 1 56 25
M  V30 60 1 57 25
M  V30 61 1 58 26
M  V30 62 1 59 27
M  V30 63 1 60 27
M  V30 64 1 61 29
M  V30 65 1 62 29
M  V30 66 1 63 31
M  V30 67 1 64 31
M  V30 68 1 65 31
M  V30 69 1 33 66 CFG=3
M  V30 70 1 67 32
M  V30 71 1 68 24
M  V30 END BOND
M  V30 END CTAB
M  END
>  <i_epik_Tot_Q>  (1) 
0

>  <i_epik_Tot_abs_Q>  (1) 
2

>  <i_i_glide_confnum>  (1) 
509

>  <i_i_glide_lignum>  (1) 
64

>  <i_i_glide_posenum>  (1) 
246

>  <i_i_glide_rotatable_bonds>  (1) 
5

>  <i_lp_mmshare_version>  (1) 
72125

>  <i_m_source_file_index>  (1) 
26

>  <i_f3d_flags>  (1) 
0

>  <num_sample>  (1) 
100

>  <b_lp_Chiralities_Consistent>  (1) 
1

>  <r_epik_Charging_Adjusted_Penalty>  (1) 
1.7343418636902355

>  <r_epik_Ionization_Penalty>  (1) 
0.81506818440052864

>  <r_epik_Ionization_Penalty_Charging>  (1) 
0.79852554791812069

>  <r_epik_Ionization_Penalty_Neutral>  (1) 
0.016542636482407981

>  <r_epik_State_Penalty>  (1) 
0.93581631577211466

>  <r_glide_ring_energy>  (1) 
1.743036977667465

>  <r_i_docking_score>  (1) 
-6.9963351270865743

>  <r_i_glide_ecoul>  (1) 
-1.0556502663077645

>  <r_i_glide_eff_state_penalty>  (1) 
0.93581631577211466

>  <r_i_glide_einternal>  (1) 
2.2938365951537776

>  <r_i_glide_emodel>  (1) 
-66.841953855995143

>  <r_i_glide_emodel_strain>  (1) 
0.16745768316704357

>  <r_i_glide_energy>  (1) 
-44.628242872759969

>  <r_i_glide_erotb>  (1) 
0.3649910051837349

>  <r_i_glide_esite>  (1) 
-0.016321559318041436

>  <r_i_glide_evdw>  (1) 
-43.572592606452204

>  <r_i_glide_gscore>  (1) 
-7.9321514428586886

>  <r_i_glide_gscore_strain>  (1) 
0

>  <r_i_glide_hbond>  (1) 
0

>  <r_i_glide_ligand_efficiency>  (1) 
-0.20577456256136983

>  <r_i_glide_ligand_efficiency_ln>  (1) 
-1.5456866701266285

>  <r_i_glide_ligand_efficiency_sa>  (1) 
-0.66662970127652565

>  <r_i_glide_lipo>  (1) 
-4.1148415843995281

>  <r_i_glide_metal>  (1) 
-0

>  <r_i_glide_rewards>  (1) 
-1.8290021340560791

>  <r_lp_Energy>  (1) 
71.293013999999999

>  <s_epik_Chemistry_Notes>  (1) 
This compound has an imine and may undergo hydrolysis. This compound has a N-S or N-O group and may undergo hydrolysis at high or low pH.

>  <s_epik_cmdline>  (1) 
J2VwaWtfcHl0aG9uJywgJy1waHQnLCAnMS4wJywgJy1waCcsICc3LjQnLCAnLXRuJywgJzgnLCAnLW1hJywgJzUwMCcsICctaW1hZScsICc8aW5maWxlLm1hZT4nLCAnLW9tYWUnLCAnPG91dGZpbGUubWFlPic=

>  <s_epik_input>  (1) 
W09IXUMoPU8pYyhjMVtOSDJdKWMoYyhbY0hdbjEpW0NIM10pQyg9TylbTkhdQyg9TltDSF09W0NIXTIpW0NIMl1OMltDQEhdKFtDSDJdMylbQ0gyXVtDSDJdW0NIMl1bQ0gyXVtDQF0zKFtDSDNdKU40T1tDQEBIXShbQ0gzXSlbQ0gyXVtDSDJdNA==

>  <s_glide_docking_method>  (1) 
confgen

>  <s_i_glide_gridfile>  (1) 
gpcr_5ht2c_6bqh_protein_autoprepared_prepared

>  <s_lp_Force_Field>  (1) 
S-OPLS

>  <s_lp_Variant>  (1) 
DiffSBDD_25-4

>  <s_m_source_file>  (1) 
generated_GPCR_5HT2C_ligand_DiffSBDD_2026-06-23_prepared.sdf

>  <GenAI_Model>  (1) 
DiffSBDD

>  <Protein>  (1) 
GPCR_5HT2C

$$$$
DiffSBDD_66
     RDKit          3D

  0  0  0  0  0  0  0  0  0  0999 V3000
M  V30 BEGIN CTAB
M  V30 COUNTS 63 66 0 0 1
M  V30 BEGIN ATOM
M  V30 1 C 38.470266 27.767292 59.954862 0
M  V30 2 C 37.545189 28.942278 59.314840 0
M  V30 3 C 38.978622 26.049028 57.186230 0 CFG=1
M  V30 4 N 39.952528 31.597758 61.141599 0
M  V30 5 O 39.645151 37.541969 63.950248 0
M  V30 6 O 37.381855 25.740705 55.361648 0
M  V30 7 O 40.045608 25.338143 57.743126 0
M  V30 8 C 38.451705 36.204623 62.374485 0
M  V30 9 C 39.814097 28.247234 58.126605 0
M  V30 10 C 38.757210 28.342808 56.070056 0
M  V30 11 N 39.819486 27.809693 59.398119 0
M  V30 12 C 38.570206 28.956154 53.603363 0
M  V30 13 C 39.424789 34.096918 61.589226 0
M  V30 14 N 40.015193 30.536847 60.338969 0
M  V30 15 C 40.034345 30.458636 52.244516 0
M  V30 16 C 39.306781 27.558763 57.091586 0
M  V30 17 C 37.639256 29.323710 56.503130 0 CFG=1
M  V30 18 C 36.915285 28.846748 57.859507 0
M  V30 19 C 38.647669 31.290258 55.491550 0
M  V30 20 C 40.597194 29.586398 61.021641 0
M  V30 21 C 40.845023 28.249976 60.357773 0
M  V30 22 C 38.619477 25.306300 55.880260 0
M  V30 23 C 40.918348 30.017965 62.350326 0
M  V30 24 C 40.638000 35.502047 63.185833 0
M  V30 25 C 38.088326 30.749533 56.530334 0
M  V30 26 C 39.352165 32.860647 60.708302 0
M  V30 27 C 38.364356 35.051818 61.577017 0
M  V30 28 O 38.792065 32.870442 59.611615 0
M  V30 29 Cl 36.942597 34.799782 60.612368 0
M  V30 30 C 40.477249 31.315596 62.385691 0
M  V30 31 C 39.225490 31.363636 54.330150 0
M  V30 32 C 39.133931 28.175326 54.780159 0
M  V30 33 C 40.566532 34.342673 62.393536 0
M  V30 34 C 39.310859 30.278739 53.364397 0
M  V30 35 C 39.579165 36.427272 63.178859 0
M  V30 36 H 38.523272 27.854582 61.037211 0
M  V30 37 H 37.994008 29.920874 59.370058 0
M  V30 38 H 38.151345 25.915013 57.874683 0
M  V30 39 H 40.541295 37.737770 64.232250 0
M  V30 40 H 37.471670 26.646636 55.101057 0
M  V30 41 H 40.814790 25.504405 57.214557 0
M  V30 42 H 37.644082 36.919534 62.371622 0
M  V30 43 H 39.968494 29.315593 58.060745 0
M  V30 44 H 36.690964 29.082281 59.969144 0
M  V30 45 H 37.511111 29.170291 53.728280 0
M  V30 46 H 38.620325 28.321952 52.715440 0
M  V30 47 H 40.554251 31.387520 52.057674 0
M  V30 48 H 40.111083 29.680600 51.505023 0
M  V30 49 H 38.045136 26.791978 59.751514 0
M  V30 50 H 36.852070 29.337715 55.751437 0
M  V30 51 H 36.026093 29.472416 57.904947 0
M  V30 52 H 36.544153 27.825687 57.768625 0
M  V30 53 H 41.802298 28.263921 59.838619 0
M  V30 54 H 40.914574 27.487509 61.129215 0
M  V30 55 H 39.403623 25.397690 55.130687 0
M  V30 56 H 38.514349 24.241730 56.083847 0
M  V30 57 H 41.392772 29.462517 63.146094 0
M  V30 58 H 41.510728 35.682012 63.796545 0
M  V30 59 H 37.870823 31.321521 57.419697 0
M  V30 60 H 40.489477 32.030559 63.187492 0
M  V30 61 H 39.645176 32.294129 54.048072 0
M  V30 62 H 39.907543 27.456600 54.544146 0
M  V30 63 H 41.396962 33.656199 62.387806 0
M  V30 END ATOM
M  V30 BEGIN BOND
M  V30 1 1 2 1
M  V30 2 1 7 3
M  V30 3 1 11 1
M  V30 4 1 11 9
M  V30 5 1 14 4
M  V30 6 1 16 3
M  V30 7 2 16 9
M  V30 8 1 16 10
M  V30 9 1 17 10
M  V30 10 1 18 2
M  V30 11 1 18 17
M  V30 12 2 20 14
M  V30 13 1 21 11
M  V30 14 1 21 20
M  V30 15 1 22 3
M  V30 16 1 22 6
M  V30 17 1 23 20
M  V30 18 1 25 17
M  V30 19 2 25 19
M  V30 20 1 26 4
M  V30 21 1 26 13
M  V30 22 1 27 8
M  V30 23 2 27 13
M  V30 24 2 28 26
M  V30 25 1 29 27
M  V30 26 1 30 4
M  V30 27 2 30 23
M  V30 28 2 31 19
M  V30 29 2 32 10
M  V30 30 1 32 12
M  V30 31 1 33 13
M  V30 32 2 33 24
M  V30 33 1 34 12
M  V30 34 2 34 15
M  V30 35 1 34 31
M  V30 36 1 35 5
M  V30 37 2 35 8
M  V30 38 1 35 24
M  V30 39 1 36 1
M  V30 40 1 37 2
M  V30 41 1 3 38 CFG=1
M  V30 42 1 39 5
M  V30 43 1 40 6
M  V30 44 1 41 7
M  V30 45 1 42 8
M  V30 46 1 43 9
M  V30 47 1 44 2
M  V30 48 1 45 12
M  V30 49 1 46 12
M  V30 50 1 47 15
M  V30 51 1 48 15
M  V30 52 1 49 1
M  V30 53 1 17 50 CFG=3
M  V30 54 1 51 18
M  V30 55 1 52 18
M  V30 56 1 53 21
M  V30 57 1 54 21
M  V30 58 1 55 22
M  V30 59 1 56 22
M  V30 60 1 57 23
M  V30 61 1 58 24
M  V30 62 1 59 25
M  V30 63 1 60 30
M  V30 64 1 61 31
M  V30 65 1 62 32
M  V30 66 1 63 33
M  V30 END BOND
M  V30 END CTAB
M  END
>  <i_epik_Tot_Q>  (1) 
0

>  <i_epik_Tot_abs_Q>  (1) 
0

>  <i_i_glide_confnum>  (1) 
235

>  <i_i_glide_lignum>  (1) 
148

>  <i_i_glide_posenum>  (1) 
153

>  <i_i_glide_rotatable_bonds>  (1) 
9

>  <i_lp_mmshare_version>  (1) 
72125

>  <i_m_source_file_index>  (1) 
67

>  <i_f3d_flags>  (1) 
0

>  <num_sample>  (1) 
100

>  <b_lp_Chiralities_Consistent>  (1) 
1

>  <r_epik_Charging_Adjusted_Penalty>  (1) 
1.3281530491987052

>  <r_epik_Ionization_Penalty>  (1) 
1.3282883392360914

>  <r_epik_Ionization_Penalty_Charging>  (1) 
0

>  <r_epik_Ionization_Penalty_Neutral>  (1) 
1.3282883392360914

>  <r_epik_State_Penalty>  (1) 
1.3281530491987052

>  <r_glide_ring_energy>  (1) 
0

>  <r_i_docking_score>  (1) 
-6.9950270434405573

>  <r_i_glide_ecoul>  (1) 
-8.0288984204599316

>  <r_i_glide_eff_state_penalty>  (1) 
1.3281530491987052

>  <r_i_glide_einternal>  (1) 
17.681416144628155

>  <r_i_glide_emodel>  (1) 
-55.096789010649836

>  <r_i_glide_emodel_strain>  (1) 
0.83352403210508896

>  <r_i_glide_energy>  (1) 
-40.673574767714484

>  <r_i_glide_erotb>  (1) 
0.50097048188181392

>  <r_i_glide_esite>  (1) 
0

>  <r_i_glide_evdw>  (1) 
-32.644676347254553

>  <r_i_glide_gscore>  (1) 
-8.3231800926392623

>  <r_i_glide_gscore_strain>  (1) 
0

>  <r_i_glide_hbond>  (1) 
-0.53015243720047389

>  <r_i_glide_ligand_efficiency>  (1) 
-0.19985791552687307

>  <r_i_glide_ligand_efficiency_ln>  (1) 
-1.5355636822959844

>  <r_i_glide_ligand_efficiency_sa>  (1) 
-0.65374849430447168

>  <r_i_glide_lipo>  (1) 
-3.984751442960357

>  <r_i_glide_metal>  (1) 
-0

>  <r_i_glide_rewards>  (1) 
-1.4726781139285285

>  <r_lp_Energy>  (1) 
66.945476999999997

>  <r_lp_tautomer_probability>  (1) 
0.99999944244275329

>  <s_epik_cmdline>  (1) 
J2VwaWtfcHl0aG9uJywgJy1waHQnLCAnMS4wJywgJy1waCcsICc3LjQnLCAnLXRuJywgJzgnLCAnLW1hJywgJzUwMCcsICctaW1hZScsICc8aW5maWxlLm1hZT4nLCAnLW9tYWUnLCAnPG91dGZpbGUubWFlPic=

>  <s_epik_input>  (1) 
W0NIXTEvW0NIMl1DKD1bQ0gyXSlbQ0hdPUM9W0NIXVtDQEBIXShDPTFcMilbQ0gyXS9bQ0hdPVtDSF1cTihbQ0gyXVtDQEBIXTJbQ0BASF0oW09IXSlbQ0gyXVtPSF0pW0NIMl1jKFtjSF1bY0hdMylubjNDKD1PKWM0YyhDbClbY0hdYyhbT0hdKVtjSF1bY0hdNA==

>  <s_glide_docking_method>  (1) 
confgen

>  <s_i_glide_gridfile>  (1) 
gpcr_5ht2c_6bqh_protein_autoprepared_prepared

>  <s_lp_Force_Field>  (1) 
S-OPLS

>  <s_lp_Variant>  (1) 
DiffSBDD_66-4

>  <s_m_source_file>  (1) 
generated_GPCR_5HT2C_ligand_DiffSBDD_2026-06-23_prepared.sdf

>  <GenAI_Model>  (1) 
DiffSBDD

>  <Protein>  (1) 
GPCR_5HT2C

$$$$
DiffSBDD_16
     RDKit          3D

  0  0  0  0  0  0  0  0  0  0999 V3000
M  V30 BEGIN CTAB
M  V30 COUNTS 70 74 0 0 1
M  V30 BEGIN ATOM
M  V30 1 C 40.660298 31.683865 62.892379 0
M  V30 2 C 39.656658 30.583037 54.071920 0
M  V30 3 C 37.539227 32.376443 58.751575 0 CFG=1
M  V30 4 C 37.481750 30.867734 59.023140 0
M  V30 5 C 40.577232 29.355643 62.122759 0
M  V30 6 C 41.296005 28.947734 63.258763 0
M  V30 7 C 38.388827 36.047995 61.175520 0
M  V30 8 C 36.946975 35.920919 61.631693 0
M  V30 9 C 38.594800 33.118028 59.586569 0
M  V30 10 C 41.710719 29.897053 64.202215 0
M  V30 11 O 40.174999 35.924524 62.728910 0
M  V30 12 C 39.147510 29.444745 56.207287 0
M  V30 13 C 38.907761 30.472494 57.041173 0
M  V30 14 C 38.738958 31.936792 56.600781 0
M  V30 15 C 39.338767 29.506147 54.767720 0
M  V30 16 C 40.261763 30.716130 61.934398 0
M  V30 17 N 39.759061 30.392942 52.707634 0
M  V30 18 C 38.216272 27.360351 51.605780 0
M  V30 19 N 37.645171 32.628141 57.313618 0 CHG=1
M  V30 20 C 37.692347 26.937757 52.967761 0
M  V30 21 C 40.147840 28.333888 61.095724 0
M  V30 22 C 36.254014 34.682801 61.066154 0
M  V30 23 C 35.768167 32.220561 61.368439 0
M  V30 24 C 36.833595 33.348698 61.510603 0 CFG=1
M  V30 25 C 40.362898 33.150151 62.755755 0
M  V30 26 C 38.314719 33.064895 61.110313 0 CFG=2
M  V30 27 C 39.392497 35.280478 62.030105 0
M  V30 28 C 39.209581 28.324036 53.969406 0 CFG=2
M  V30 29 C 39.408159 33.772679 61.984200 0
M  V30 30 C 39.353197 29.164191 52.673750 0
M  V30 31 N 37.999272 27.540939 54.048108 0
M  V30 32 C 41.400735 31.256789 64.019955 0
M  V30 33 C 38.741804 30.212886 58.511916 0
M  V30 34 C 38.980905 28.462052 51.477860 0
M  V30 35 H 39.842410 31.564074 54.463101 0
M  V30 36 H 36.572797 32.829386 58.931885 0
M  V30 37 H 36.611446 30.434087 58.529326 0
M  V30 38 H 37.384190 30.618234 60.074599 0
M  V30 39 H 41.538268 27.904225 63.402303 0
M  V30 40 H 38.658898 37.097164 61.296214 0
M  V30 41 H 38.504297 35.873804 60.114377 0
M  V30 42 H 36.874865 35.948997 62.718586 0
M  V30 43 H 36.445106 36.820127 61.282569 0
M  V30 44 H 39.597479 32.748832 59.383772 0
M  V30 45 H 38.610330 34.137680 59.227832 0
M  V30 46 H 42.269785 29.584357 65.070827 0
M  V30 47 H 39.189658 28.459365 56.651336 0
M  V30 48 H 39.669675 32.493626 56.700707 0
M  V30 49 H 38.337347 32.036909 55.599481 0
M  V30 50 H 39.751388 31.002865 61.049009 0
M  V30 51 H 37.913046 26.772426 50.760506 0
M  V30 52 H 36.735451 32.267560 56.967691 0
M  V30 53 H 37.013784 26.082727 52.967765 0
M  V30 54 H 40.614518 28.536009 60.132429 0
M  V30 55 H 40.445102 27.337762 61.406159 0
M  V30 56 H 39.063951 28.338419 60.980193 0
M  V30 57 H 35.245131 34.653466 61.447991 0
M  V30 58 H 36.176277 34.753282 59.982555 0
M  V30 59 H 35.384289 32.044158 60.369042 0
M  V30 60 H 36.135395 31.277865 61.764446 0
M  V30 61 H 34.875619 32.461646 61.947241 0
M  V30 62 H 36.878987 33.337754 62.567758 0
M  V30 63 H 41.006092 33.784626 63.349466 0
M  V30 64 H 38.268683 32.053707 61.456880 0
M  V30 65 H 40.045138 27.653523 54.146199 0
M  V30 66 H 41.723629 31.980023 64.755454 0
M  V30 67 H 38.672906 29.139805 58.694423 0
M  V30 68 H 39.635219 30.537766 59.026613 0
M  V30 69 H 39.331560 28.844873 50.530513 0
M  V30 70 H 37.667645 33.618829 57.123285 0
M  V30 END ATOM
M  V30 BEGIN BOND
M  V30 1 1 4 3
M  V30 2 1 6 5
M  V30 3 1 8 7
M  V30 4 1 9 3
M  V30 5 2 10 6
M  V30 6 2 13 12
M  V30 7 1 14 13
M  V30 8 2 15 2
M  V30 9 1 15 12
M  V30 10 1 16 1
M  V30 11 2 16 5
M  V30 12 1 17 2
M  V30 13 1 19 3
M  V30 14 1 19 14
M  V30 15 1 20 18
M  V30 16 1 21 5
M  V30 17 1 22 8
M  V30 18 1 24 22
M  V30 19 1 24 23
M  V30 20 1 25 1
M  V30 21 1 26 9
M  V30 22 1 26 24
M  V30 23 1 27 7
M  V30 24 2 27 11
M  V30 25 1 28 15
M  V30 26 2 29 25
M  V30 27 1 29 26
M  V30 28 1 29 27
M  V30 29 2 30 17
M  V30 30 1 30 28
M  V30 31 2 31 20
M  V30 32 1 31 28
M  V30 33 2 32 1
M  V30 34 1 32 10
M  V30 35 1 33 4
M  V30 36 1 33 13
M  V30 37 2 34 18
M  V30 38 1 34 30
M  V30 39 1 35 2
M  V30 40 1 3 36 CFG=1
M  V30 41 1 37 4
M  V30 42 1 38 4
M  V30 43 1 39 6
M  V30 44 1 40 7
M  V30 45 1 41 7
M  V30 46 1 42 8
M  V30 47 1 43 8
M  V30 48 1 44 9
M  V30 49 1 45 9
M  V30 50 1 46 10
M  V30 51 1 47 12
M  V30 52 1 48 14
M  V30 53 1 49 14
M  V30 54 1 50 16
M  V30 55 1 51 18
M  V30 56 1 52 19
M  V30 57 1 53 20
M  V30 58 1 54 21
M  V30 59 1 55 21
M  V30 60 1 56 21
M  V30 61 1 57 22
M  V30 62 1 58 22
M  V30 63 1 59 23
M  V30 64 1 60 23
M  V30 65 1 61 23
M  V30 66 1 24 62 CFG=1
M  V30 67 1 63 25
M  V30 68 1 26 64 CFG=1
M  V30 69 1 28 65 CFG=1
M  V30 70 1 66 32
M  V30 71 1 67 33
M  V30 72 1 68 33
M  V30 73 1 69 34
M  V30 74 1 70 19
M  V30 END BOND
M  V30 END CTAB
M  END
>  <i_epik_Tot_Q>  (1) 
1

>  <i_epik_Tot_abs_Q>  (1) 
1

>  <i_i_glide_confnum>  (1) 
5

>  <i_i_glide_lignum>  (1) 
35

>  <i_i_glide_posenum>  (1) 
86

>  <i_i_glide_rotatable_bonds>  (1) 
4

>  <i_lp_mmshare_version>  (1) 
72125

>  <i_m_source_file_index>  (1) 
17

>  <i_f3d_flags>  (1) 
0

>  <num_sample>  (1) 
100

>  <b_lp_Chiralities_Consistent>  (1) 
1

>  <r_epik_Charging_Adjusted_Penalty>  (1) 
0.57808156404405586

>  <r_epik_Ionization_Penalty>  (1) 
0.28904078202202793

>  <r_epik_Ionization_Penalty_Charging>  (1) 
0.28904078202202793

>  <r_epik_Ionization_Penalty_Neutral>  (1) 
0

>  <r_epik_State_Penalty>  (1) 
0.28904078202202793

>  <r_glide_ring_energy>  (1) 
2.0215075708839398

>  <r_i_docking_score>  (1) 
-6.9923722741242482

>  <r_i_glide_ecoul>  (1) 
-6.6193315038324956

>  <r_i_glide_eff_state_penalty>  (1) 
0.28904078202202793

>  <r_i_glide_einternal>  (1) 
128.71149113134635

>  <r_i_glide_emodel>  (1) 
17.491890472227809

>  <r_i_glide_emodel_strain>  (1) 
0.050279065035624626

>  <r_i_glide_energy>  (1) 
-36.124034899599941

>  <r_i_glide_erotb>  (1) 
0.29147875755417113

>  <r_i_glide_esite>  (1) 
-0.10000000000000001

>  <r_i_glide_evdw>  (1) 
-29.504703395767443

>  <r_i_glide_gscore>  (1) 
-7.2814130561462758

>  <r_i_glide_gscore_strain>  (1) 
0

>  <r_i_glide_hbond>  (1) 
-0.15962809068181177

>  <r_i_glide_ligand_efficiency>  (1) 
-0.20565800806247789

>  <r_i_glide_ligand_efficiency_ln>  (1) 
-1.5448111647529901

>  <r_i_glide_ligand_efficiency_sa>  (1) 
-0.66625210994642325

>  <r_i_glide_lipo>  (1) 
-2.9862233698653928

>  <r_i_glide_metal>  (1) 
-0

>  <r_i_glide_rewards>  (1) 
-1.8589054577899951

>  <r_lp_Energy>  (1) 
58.685900999999994

>  <s_epik_Chemistry_Notes>  (1) 
This compound has an imine and may undergo hydrolysis.

>  <s_epik_cmdline>  (1) 
J2VwaWtfcHl0aG9uJywgJy1waHQnLCAnMS4wJywgJy1waCcsICc3LjQnLCAnLXRuJywgJzgnLCAnLW1hJywgJzUwMCcsICctaW1hZScsICc8aW5maWxlLm1hZT4nLCAnLW9tYWUnLCAnPG91dGZpbGUubWFlPic=

>  <s_epik_input>  (1) 
W2NIXTFbY0hdW2NIXWMoW0NIM10pW2NIXWMxL1tDSF09QyhDKD1PKVtDSDJdW0NIMl1bQ0gyXVtDQEhdMltDSDNdKVxbQ0BASF0yW0NIMl1bQ0BASF0zW0NIMl1bQ0gyXUMoXFtDSDJdW05IXTMpPVtDSF1cQzQ9W0NIXU49QyhbQ0BASF00NSlbQ0hdPVtDSF1bQ0hdPU41

>  <s_glide_docking_method>  (1) 
confgen

>  <s_i_glide_gridfile>  (1) 
gpcr_5ht2c_6bqh_protein_autoprepared_prepared

>  <s_lp_Force_Field>  (1) 
S-OPLS

>  <s_lp_Variant>  (1) 
DiffSBDD_16-3

>  <s_m_source_file>  (1) 
generated_GPCR_5HT2C_ligand_DiffSBDD_2026-06-23_prepared.sdf

>  <GenAI_Model>  (1) 
DiffSBDD

>  <Protein>  (1) 
GPCR_5HT2C

$$$$
DiffSBDD_2
     RDKit          3D

  0  0  0  0  0  0  0  0  0  0999 V3000
M  V30 BEGIN CTAB
M  V30 COUNTS 81 84 0 0 1
M  V30 BEGIN ATOM
M  V30 1 F 40.624841 31.493326 65.508670 0
M  V30 2 C 38.310379 28.571030 54.479506 0
M  V30 3 C 37.526500 32.265138 58.731991 0 CFG=2
M  V30 4 C 43.537430 30.659871 67.246975 0
M  V30 5 C 37.637395 30.765232 59.021382 0 CFG=2
M  V30 6 N 37.645173 32.355225 57.275077 0 CHG=1
M  V30 7 O 39.621887 36.538206 64.068964 0
M  V30 8 C 38.104583 35.786373 61.494273 0
M  V30 9 C 38.823772 32.805937 60.857361 0 CFG=1
M  V30 10 N 38.695509 29.026924 55.727188 0
M  V30 11 C 39.067948 27.122789 52.745728 0
M  V30 12 C 37.950303 29.962061 56.501469 0 CFG=2
M  V30 13 C 38.101126 30.425926 60.452874 0
M  V30 14 C 42.139536 31.236389 67.282331 0
M  V30 15 O 44.904706 28.934878 64.171032 0
M  V30 16 C 39.563332 35.313312 61.232578 0 CFG=2
M  V30 17 C 38.569948 31.295028 56.815762 0 CFG=2
M  V30 18 O 39.220979 27.694967 54.033336 0
M  V30 19 N 41.702238 35.656728 64.063323 0
M  V30 20 C 38.625667 33.117247 59.366466 0
M  V30 21 C 38.500268 30.239213 57.896733 0 CFG=1
M  V30 22 O 37.300269 28.900071 53.856230 0
M  V30 23 C 39.251616 31.313576 60.965595 0 CFG=2
M  V30 24 O 42.730203 30.754656 65.056030 0
M  V30 25 C 39.704099 30.861407 62.372009 0
M  V30 26 C 41.487104 34.176876 66.051389 0
M  V30 27 C 44.945666 29.810713 65.278993 0
M  V30 28 C 39.798379 33.804243 61.526850 0
M  V30 29 C 41.912418 31.634566 65.820290 0 CFG=1
M  V30 30 C 37.805120 37.200448 60.978317 0
M  V30 31 C 41.825760 35.577523 65.518529 0
M  V30 32 C 43.544461 29.941112 65.896716 0 CFG=1
M  V30 33 C 40.609075 36.137586 63.454760 0
M  V30 34 C 40.640313 36.181435 61.925390 0
M  V30 35 O 41.081811 31.128435 62.550048 0
M  V30 36 C 42.365816 33.061260 65.458739 0
M  V30 37 H 36.551478 32.640218 59.045707 0
M  V30 38 H 43.746912 29.994641 68.085723 0
M  V30 39 H 44.273342 31.465012 67.261917 0
M  V30 40 H 36.651704 30.317127 58.880187 0
M  V30 41 H 36.675960 32.137562 56.967056 0
M  V30 42 H 37.396193 35.117496 61.009177 0
M  V30 43 H 37.856182 35.736581 62.552050 0
M  V30 44 H 37.862464 32.913824 61.361763 0
M  V30 45 H 39.555488 28.653658 56.101581 0
M  V30 46 H 39.824044 26.353221 52.592764 0
M  V30 47 H 38.084345 26.663783 52.636473 0
M  V30 48 H 39.192973 27.878969 51.969654 0
M  V30 49 H 36.866796 29.928221 56.397414 0
M  V30 50 H 37.251629 30.538597 61.128614 0
M  V30 51 H 38.390520 29.374949 60.493642 0
M  V30 52 H 42.029755 32.059718 67.987171 0
M  V30 53 H 41.432203 30.457102 67.571348 0
M  V30 54 H 44.548704 28.104898 64.450391 0
M  V30 55 H 39.753828 35.459813 60.171166 0
M  V30 56 H 39.550238 31.606721 56.458953 0
M  V30 57 H 42.482450 35.348922 63.504437 0
M  V30 58 H 38.333231 34.148920 59.200278 0
M  V30 59 H 39.576682 32.990676 58.848504 0
M  V30 60 H 39.435946 29.763300 58.185390 0
M  V30 61 H 40.088251 31.133821 60.291962 0
M  V30 62 H 39.123297 31.345648 63.154860 0
M  V30 63 H 39.563573 29.786746 62.498044 0
M  V30 64 H 40.445063 33.964020 65.828713 0
M  V30 65 H 41.570990 34.179023 67.138608 0
M  V30 66 H 45.643295 29.403377 66.011177 0
M  V30 67 H 45.334404 30.782597 64.972774 0
M  V30 68 H 40.816668 33.550704 61.230805 0
M  V30 69 H 39.756394 33.641393 62.604221 0
M  V30 70 H 36.749513 37.440331 61.104674 0
M  V30 71 H 38.372354 37.953942 61.523552 0
M  V30 72 H 38.040778 37.296313 59.918211 0
M  V30 73 H 41.197603 36.319785 66.013384 0
M  V30 74 H 42.845236 35.843641 65.784814 0
M  V30 75 H 43.071133 28.963477 66.009616 0
M  V30 76 H 40.538522 37.222968 61.623153 0
M  V30 77 H 41.628280 35.881044 61.572529 0
M  V30 78 H 41.327074 30.879334 63.433489 0
M  V30 79 H 43.400171 33.212829 65.766941 0
M  V30 80 H 42.361375 33.138079 64.371442 0
M  V30 81 H 37.899341 33.276622 56.953359 0
M  V30 END ATOM
M  V30 BEGIN BOND
M  V30 1 1 5 3
M  V30 2 1 6 3
M  V30 3 1 10 2
M  V30 4 1 12 10
M  V30 5 1 13 5
M  V30 6 1 14 4
M  V30 7 1 16 8
M  V30 8 1 17 6
M  V30 9 1 17 12
M  V30 10 1 18 2
M  V30 11 1 18 11
M  V30 12 1 20 3
M  V30 13 1 20 9
M  V30 14 1 21 5
M  V30 15 1 21 12
M  V30 16 1 21 17
M  V30 17 2 22 2
M  V30 18 1 23 9
M  V30 19 1 23 13
M  V30 20 1 25 23
M  V30 21 1 27 15
M  V30 22 1 28 9
M  V30 23 1 28 16
M  V30 24 1 29 1 CFG=3
M  V30 25 1 29 14
M  V30 26 1 29 24
M  V30 27 1 30 8
M  V30 28 1 31 19
M  V30 29 1 31 26
M  V30 30 1 32 4
M  V30 31 1 32 24
M  V30 32 1 32 27
M  V30 33 2 33 7
M  V30 34 1 33 19
M  V30 35 1 34 16
M  V30 36 1 34 33
M  V30 37 1 35 25
M  V30 38 1 36 26
M  V30 39 1 36 29
M  V30 40 1 3 37 CFG=3
M  V30 41 1 38 4
M  V30 42 1 39 4
M  V30 43 1 5 40 CFG=3
M  V30 44 1 41 6
M  V30 45 1 42 8
M  V30 46 1 43 8
M  V30 47 1 9 44 CFG=1
M  V30 48 1 45 10
M  V30 49 1 46 11
M  V30 50 1 47 11
M  V30 51 1 48 11
M  V30 52 1 12 49 CFG=1
M  V30 53 1 50 13
M  V30 54 1 51 13
M  V30 55 1 52 14
M  V30 56 1 53 14
M  V30 57 1 54 15
M  V30 58 1 16 55 CFG=3
M  V30 59 1 17 56 CFG=3
M  V30 60 1 57 19
M  V30 61 1 58 20
M  V30 62 1 59 20
M  V30 63 1 21 60 CFG=1
M  V30 64 1 23 61 CFG=3
M  V30 65 1 62 25
M  V30 66 1 63 25
M  V30 67 1 64 26
M  V30 68 1 65 26
M  V30 69 1 66 27
M  V30 70 1 67 27
M  V30 71 1 68 28
M  V30 72 1 69 28
M  V30 73 1 70 30
M  V30 74 1 71 30
M  V30 75 1 72 30
M  V30 76 1 73 31
M  V30 77 1 74 31
M  V30 78 1 32 75 CFG=1
M  V30 79 1 76 34
M  V30 80 1 77 34
M  V30 81 1 78 35
M  V30 82 1 79 36
M  V30 83 1 80 36
M  V30 84 1 81 6
M  V30 END BOND
M  V30 END CTAB
M  END
>  <i_epik_Tot_Q>  (1) 
1

>  <i_epik_Tot_abs_Q>  (1) 
1

>  <i_i_glide_confnum>  (1) 
4492

>  <i_i_glide_lignum>  (1) 
4

>  <i_i_glide_posenum>  (1) 
254

>  <i_i_glide_rotatable_bonds>  (1) 
17

>  <i_lp_mmshare_version>  (1) 
72125

>  <i_m_source_file_index>  (1) 
3

>  <i_f3d_flags>  (1) 
0

>  <num_sample>  (1) 
100

>  <b_lp_Chiralities_Consistent>  (1) 
1

>  <r_epik_Charging_Adjusted_Penalty>  (1) 
0.00072413823026253119

>  <r_epik_Ionization_Penalty>  (1) 
0.00072547203534686021

>  <r_epik_Ionization_Penalty_Charging>  (1) 
0.00072413823026253119

>  <r_epik_Ionization_Penalty_Neutral>  (1) 
1.3338050843290484e-06

>  <r_epik_State_Penalty>  (1) 
-0

>  <r_glide_ring_energy>  (1) 
1.337252785472008

>  <r_i_docking_score>  (1) 
-6.9921856223787451

>  <r_i_glide_ecoul>  (1) 
-10.70403234347954

>  <r_i_glide_eff_state_penalty>  (1) 
-0

>  <r_i_glide_einternal>  (1) 
24.871600131336876

>  <r_i_glide_emodel>  (1) 
-65.337566722010195

>  <r_i_glide_emodel_strain>  (1) 
0.20869687500515965

>  <r_i_glide_energy>  (1) 
-53.569481004415771

>  <r_i_glide_erotb>  (1) 
1.0068127819832642

>  <r_i_glide_esite>  (1) 
-0.11789036052347518

>  <r_i_glide_evdw>  (1) 
-42.865448660936231

>  <r_i_glide_gscore>  (1) 
-6.9921856223787451

>  <r_i_glide_gscore_strain>  (1) 
0

>  <r_i_glide_hbond>  (1) 
-0.13574535981677269

>  <r_i_glide_ligand_efficiency>  (1) 
-0.19422737839940959

>  <r_i_glide_ligand_efficiency_ln>  (1) 
-1.5255059957784223

>  <r_i_glide_ligand_efficiency_sa>  (1) 
-0.64132467321837827

>  <r_i_glide_lipo>  (1) 
-2.7802748441139356

>  <r_i_glide_metal>  (1) 
-0

>  <r_i_glide_rewards>  (1) 
-1.2162105553390823

>  <r_lp_Energy>  (1) 
40.418917

>  <r_lp_tautomer_probability>  (1) 
1

>  <s_epik_Chemistry_Notes>  (1) 
This compound has an ester and may undergo hydrolysis at high or low pH.

>  <s_epik_cmdline>  (1) 
J2VwaWtfcHl0aG9uJywgJy1waHQnLCAnMS4wJywgJy1waCcsICc3LjQnLCAnLXRuJywgJzgnLCAnLW1hJywgJzUwMCcsICctaW1hZScsICc8aW5maWxlLm1hZT4nLCAnLW9tYWUnLCAnPG91dGZpbGUubWFlPic=

>  <s_epik_input>  (1) 
W09IXVtDSDJdW0NASF0oTzEpW0NIMl1bQ0gyXVtDQEBdMShGKVtDSDJdW0NIMl1bQ0gyXVtOSF1DKD1PKVtDSDJdW0NASF0oW0NIMl1bQ0gzXSlbQ0gyXVtDQEBIXShbQ0gyXTIpW0NAQEhdKFtDSDJdW09IXSlbQ0gyXVtDQEBIXShbQ0BASF0yMylbQ0BASF00W0NASF0oW05IXTMpW0NASF00W05IXUMoPU8pT1tDSDNd

>  <s_glide_docking_method>  (1) 
confgen

>  <s_i_glide_gridfile>  (1) 
gpcr_5ht2c_6bqh_protein_autoprepared_prepared

>  <s_lp_Force_Field>  (1) 
S-OPLS

>  <s_lp_Variant>  (1) 
DiffSBDD_2-1

>  <s_m_source_file>  (1) 
generated_GPCR_5HT2C_ligand_DiffSBDD_2026-06-23_prepared.sdf

>  <GenAI_Model>  (1) 
DiffSBDD

>  <Protein>  (1) 
GPCR_5HT2C

$$$$
DiffSBDD_16
     RDKit          3D

  0  0  0  0  0  0  0  0  0  0999 V3000
M  V30 BEGIN CTAB
M  V30 COUNTS 69 73 0 0 1
M  V30 BEGIN ATOM
M  V30 1 C 40.572064 31.166002 63.922876 0
M  V30 2 C 40.354301 26.202400 55.113194 0
M  V30 3 C 37.964954 30.189923 59.468003 0 CFG=1
M  V30 4 C 39.242112 29.450194 59.930994 0
M  V30 5 C 42.133167 29.825186 65.260732 0
M  V30 6 C 42.750326 30.997070 65.731695 0
M  V30 7 C 39.053923 34.767255 61.692710 0
M  V30 8 C 38.223779 34.874778 60.418482 0
M  V30 9 C 38.009736 31.694201 59.770834 0
M  V30 10 C 42.278090 32.253113 65.319071 0
M  V30 11 O 41.025419 33.446114 61.893492 0
M  V30 12 C 39.734772 27.173839 57.234668 0
M  V30 13 C 38.925108 27.887573 58.066481 0
M  V30 14 C 37.670219 28.650620 57.638412 0
M  V30 15 C 39.586516 27.018322 55.778777 0
M  V30 16 C 41.046745 29.909769 64.367167 0
M  V30 17 N 40.130330 26.137752 53.767859 0
M  V30 18 C 38.356652 28.864405 52.376350 0
M  V30 19 N 37.781731 30.049942 58.026769 0
M  V30 20 C 38.321513 29.683385 53.638830 0
M  V30 21 C 42.634374 28.468481 65.713823 0
M  V30 22 C 36.782198 34.397206 60.607277 0
M  V30 23 C 35.212803 32.516979 61.148474 0
M  V30 24 C 36.606748 33.100475 61.427152 0 CFG=1
M  V30 25 C 39.399655 31.187307 62.967752 0
M  V30 26 C 37.716131 32.041309 61.249954 0 CFG=2
M  V30 27 C 39.794343 33.441499 61.908631 0
M  V30 28 C 38.604397 27.726137 54.929776 0 CFG=2
M  V30 29 C 38.985713 32.188640 62.117307 0
M  V30 30 C 39.245134 27.059754 53.664481 0
M  V30 31 N 38.623539 29.195543 54.787426 0
M  V30 32 C 41.194396 32.345434 64.423715 0
M  V30 33 C 39.220657 27.975669 59.541641 0
M  V30 34 C 38.829495 27.612605 52.400207 0
M  V30 35 H 41.132124 25.598105 55.542817 0
M  V30 36 H 37.088478 29.749673 59.946059 0
M  V30 37 H 40.123323 29.925039 59.500795 0
M  V30 38 H 39.356643 29.504158 61.007226 0
M  V30 39 H 43.582061 30.933109 66.418076 0
M  V30 40 H 38.449108 34.998449 62.567731 0
M  V30 41 H 39.821181 35.541367 61.657013 0
M  V30 42 H 38.200486 35.916585 60.099491 0
M  V30 43 H 38.706333 34.334355 59.605725 0
M  V30 44 H 38.966186 32.104545 59.448324 0
M  V30 45 H 37.266760 32.182269 59.139083 0
M  V30 46 H 42.743541 33.152690 65.694443 0
M  V30 47 H 40.576620 26.671952 57.690426 0
M  V30 48 H 37.323753 28.604866 56.631265 0
M  V30 49 H 36.827209 28.213574 58.167960 0
M  V30 50 H 40.576585 29.003789 64.010709 0
M  V30 51 H 38.045137 29.337753 51.464586 0
M  V30 52 H 36.965247 30.573212 57.715823 0
M  V30 53 H 38.036831 30.729839 53.513640 0
M  V30 54 H 42.931394 27.869026 64.852747 0
M  V30 55 H 43.495811 28.559470 66.376394 0
M  V30 56 H 41.848195 27.934682 66.248320 0
M  V30 57 H 36.209766 35.186135 61.094950 0
M  V30 58 H 36.333976 34.286042 59.618416 0
M  V30 59 H 35.098386 32.216493 60.105727 0
M  V30 60 H 35.001002 31.645968 61.767766 0
M  V30 61 H 34.444922 33.260902 61.360060 0
M  V30 62 H 36.598505 33.337776 62.482756 0
M  V30 63 H 38.798286 30.290016 62.990612 0
M  V30 64 H 37.255383 31.145484 61.666218 0
M  V30 65 H 37.597942 27.322768 55.051437 0
M  V30 66 H 40.833982 33.316399 64.151578 0
M  V30 67 H 38.445130 27.451338 60.093821 0
M  V30 68 H 40.169755 27.500014 59.789487 0
M  V30 69 H 38.944896 27.001564 51.516512 0
M  V30 END ATOM
M  V30 BEGIN BOND
M  V30 1 1 4 3
M  V30 2 1 6 5
M  V30 3 1 8 7
M  V30 4 1 9 3
M  V30 5 2 10 6
M  V30 6 2 13 12
M  V30 7 1 14 13
M  V30 8 2 15 2
M  V30 9 1 15 12
M  V30 10 1 16 1
M  V30 11 2 16 5
M  V30 12 1 17 2
M  V30 13 1 19 3
M  V30 14 1 19 14
M  V30 15 1 20 18
M  V30 16 1 21 5
M  V30 17 1 22 8
M  V30 18 1 24 22
M  V30 19 1 24 23
M  V30 20 1 25 1
M  V30 21 1 26 9
M  V30 22 1 26 24
M  V30 23 1 27 7
M  V30 24 2 27 11
M  V30 25 1 28 15
M  V30 26 2 29 25
M  V30 27 1 29 26
M  V30 28 1 29 27
M  V30 29 2 30 17
M  V30 30 1 30 28
M  V30 31 2 31 20
M  V30 32 1 31 28
M  V30 33 2 32 1
M  V30 34 1 32 10
M  V30 35 1 33 4
M  V30 36 1 33 13
M  V30 37 2 34 18
M  V30 38 1 34 30
M  V30 39 1 35 2
M  V30 40 1 3 36 CFG=1
M  V30 41 1 37 4
M  V30 42 1 38 4
M  V30 43 1 39 6
M  V30 44 1 40 7
M  V30 45 1 41 7
M  V30 46 1 42 8
M  V30 47 1 43 8
M  V30 48 1 44 9
M  V30 49 1 45 9
M  V30 50 1 46 10
M  V30 51 1 47 12
M  V30 52 1 48 14
M  V30 53 1 49 14
M  V30 54 1 50 16
M  V30 55 1 51 18
M  V30 56 1 52 19
M  V30 57 1 53 20
M  V30 58 1 54 21
M  V30 59 1 55 21
M  V30 60 1 56 21
M  V30 61 1 57 22
M  V30 62 1 58 22
M  V30 63 1 59 23
M  V30 64 1 60 23
M  V30 65 1 61 23
M  V30 66 1 24 62 CFG=1
M  V30 67 1 63 25
M  V30 68 1 26 64 CFG=1
M  V30 69 1 28 65 CFG=1
M  V30 70 1 66 32
M  V30 71 1 67 33
M  V30 72 1 68 33
M  V30 73 1 69 34
M  V30 END BOND
M  V30 END CTAB
M  END
>  <i_epik_Tot_Q>  (1) 
0

>  <i_epik_Tot_abs_Q>  (1) 
0

>  <i_i_glide_confnum>  (1) 
21

>  <i_i_glide_lignum>  (1) 
37

>  <i_i_glide_posenum>  (1) 
130

>  <i_i_glide_rotatable_bonds>  (1) 
4

>  <i_lp_mmshare_version>  (1) 
72125

>  <i_m_source_file_index>  (1) 
17

>  <i_f3d_flags>  (1) 
0

>  <num_sample>  (1) 
100

>  <b_lp_Chiralities_Consistent>  (1) 
1

>  <r_epik_Charging_Adjusted_Penalty>  (1) 
0.56391873878667209

>  <r_epik_Ionization_Penalty>  (1) 
0.56391873878667209

>  <r_epik_Ionization_Penalty_Charging>  (1) 
0

>  <r_epik_Ionization_Penalty_Neutral>  (1) 
0.56391873878667209

>  <r_epik_State_Penalty>  (1) 
0.56391873878667209

>  <r_glide_ring_energy>  (1) 
0

>  <r_i_docking_score>  (1) 
-6.9913526583517607

>  <r_i_glide_ecoul>  (1) 
-2.6822354644480315

>  <r_i_glide_eff_state_penalty>  (1) 
0.56391873878667209

>  <r_i_glide_einternal>  (1) 
14.852921860061898

>  <r_i_glide_emodel>  (1) 
-50.594606236007031

>  <r_i_glide_emodel_strain>  (1) 
0.00070801834053213497

>  <r_i_glide_energy>  (1) 
-41.457947759201268

>  <r_i_glide_erotb>  (1) 
0.29265828080580603

>  <r_i_glide_esite>  (1) 
0

>  <r_i_glide_evdw>  (1) 
-38.775712294753234

>  <r_i_glide_gscore>  (1) 
-7.5552713971384327

>  <r_i_glide_gscore_strain>  (1) 
0

>  <r_i_glide_hbond>  (1) 
-0.089770622973946987

>  <r_i_glide_ligand_efficiency>  (1) 
-0.20562801936328709

>  <r_i_glide_ligand_efficiency_ln>  (1) 
-1.5445859030295941

>  <r_i_glide_ligand_efficiency_sa>  (1) 
-0.66615495820261972

>  <r_i_glide_lipo>  (1) 
-3.7731413391832556

>  <r_i_glide_metal>  (1) 
-0

>  <r_i_glide_rewards>  (1) 
-1.6438967813821694

>  <r_lp_Energy>  (1) 
61.267170999999998

>  <s_epik_Chemistry_Notes>  (1) 
This compound has an imine and may undergo hydrolysis.

>  <s_epik_cmdline>  (1) 
J2VwaWtfcHl0aG9uJywgJy1waHQnLCAnMS4wJywgJy1waCcsICc3LjQnLCAnLXRuJywgJzgnLCAnLW1hJywgJzUwMCcsICctaW1hZScsICc8aW5maWxlLm1hZT4nLCAnLW9tYWUnLCAnPG91dGZpbGUubWFlPic=

>  <s_epik_input>  (1) 
W2NIXTFbY0hdW2NIXWMoW0NIM10pW2NIXWMxL1tDSF09QyhDKD1PKVtDSDJdW0NIMl1bQ0gyXVtDQEhdMltDSDNdKS9bQ0BASF0yW0NIMl1bQ0BASF0zW0NIMl1bQ0gyXUMoXFtDSDJdW05IXTMpPVtDSF1cQzQ9W0NIXU49QyhbQ0BASF00NSlbQ0hdPVtDSF1bQ0hdPU41

>  <s_glide_docking_method>  (1) 
confgen

>  <s_i_glide_gridfile>  (1) 
gpcr_5ht2c_6bqh_protein_autoprepared_prepared

>  <s_lp_Force_Field>  (1) 
S-OPLS

>  <s_lp_Variant>  (1) 
DiffSBDD_16-5

>  <s_m_source_file>  (1) 
generated_GPCR_5HT2C_ligand_DiffSBDD_2026-06-23_prepared.sdf

>  <GenAI_Model>  (1) 
DiffSBDD

>  <Protein>  (1) 
GPCR_5HT2C

$$$$
DiffSBDD_66
     RDKit          3D

  0  0  0  0  0  0  0  0  0  0999 V3000
M  V30 BEGIN CTAB
M  V30 COUNTS 63 66 0 0 1
M  V30 BEGIN ATOM
M  V30 1 C 38.445971 27.761145 59.958794 0
M  V30 2 C 37.520326 28.938757 59.316392 0
M  V30 3 C 38.978072 26.042362 57.195515 0 CFG=1
M  V30 4 N 39.929393 31.611407 61.118243 0
M  V30 5 O 39.645090 37.587650 63.847778 0
M  V30 6 O 37.364684 25.701956 55.392759 0
M  V30 7 O 40.051317 25.337762 57.751911 0
M  V30 8 C 38.432351 36.238626 62.301525 0
M  V30 9 C 39.802744 28.241591 58.144814 0
M  V30 10 C 38.752923 28.337994 56.081707 0
M  V30 11 N 39.799286 27.803668 59.414953 0
M  V30 12 C 38.563052 28.950077 53.614409 0
M  V30 13 C 39.396666 34.118326 61.537197 0
M  V30 14 N 39.984739 30.537411 60.331605 0
M  V30 15 C 40.043107 30.434077 52.253421 0
M  V30 16 C 39.301625 27.551115 57.105638 0
M  V30 17 C 37.640113 29.324011 56.513958 0 CFG=1
M  V30 18 C 36.900459 28.850372 57.860318 0
M  V30 19 C 38.664165 31.284373 55.505901 0
M  V30 20 C 40.575603 29.597381 61.023193 0
M  V30 21 C 40.812499 28.248010 60.379714 0
M  V30 22 C 38.633925 25.306213 55.876582 0
M  V30 23 C 40.916632 30.052315 62.339851 0
M  V30 24 C 40.625104 35.545720 63.100217 0
M  V30 25 C 38.106250 30.744784 56.546695 0
M  V30 26 C 39.314912 32.868056 60.675499 0
M  V30 27 C 38.335559 35.074999 61.520921 0
M  V30 28 O 38.737234 32.859536 59.588687 0
M  V30 29 Cl 36.905647 34.812795 60.573022 0
M  V30 30 C 40.475801 31.351248 62.357758 0
M  V30 31 C 39.232562 31.354066 54.337589 0
M  V30 32 C 39.124899 28.167378 54.790397 0
M  V30 33 C 40.547406 34.376119 62.324881 0
M  V30 34 C 39.314445 30.263710 53.374020 0
M  V30 35 C 39.567799 36.469150 63.091599 0
M  V30 36 H 38.487132 27.844978 61.040759 0
M  V30 37 H 37.970683 29.914028 59.371284 0
M  V30 38 H 38.139155 25.904619 57.871020 0
M  V30 39 H 40.526630 37.730020 64.183506 0
M  V30 40 H 37.243268 25.360520 54.520252 0
M  V30 41 H 40.824318 25.550879 57.250998 0
M  V30 42 H 37.625323 36.956057 62.296922 0
M  V30 43 H 39.952352 29.311108 58.080518 0
M  V30 44 H 36.663515 29.080845 59.968024 0
M  V30 45 H 37.504242 29.167243 53.746301 0
M  V30 46 H 38.603359 28.314859 52.728656 0
M  V30 47 H 40.570170 31.356765 52.065862 0
M  V30 48 H 40.114274 29.651956 51.514839 0
M  V30 49 H 38.045137 26.773839 59.750474 0
M  V30 50 H 36.858648 29.335931 55.754093 0
M  V30 51 H 36.011010 29.474086 57.900884 0
M  V30 52 H 36.525021 27.832167 57.767805 0
M  V30 53 H 41.774626 28.245184 59.866231 0
M  V30 54 H 40.868003 27.495485 61.160857 0
M  V30 55 H 39.401760 25.441935 55.114328 0
M  V30 56 H 38.579413 24.231823 56.048835 0
M  V30 57 H 41.400702 29.511428 63.139023 0
M  V30 58 H 41.501813 35.735823 63.700533 0
M  V30 59 H 37.902870 31.314381 57.441190 0
M  V30 60 H 40.498302 32.082512 63.148502 0
M  V30 61 H 39.644856 32.284294 54.048047 0
M  V30 62 H 39.894768 27.449041 54.553431 0
M  V30 63 H 41.379456 33.690804 62.321263 0
M  V30 END ATOM
M  V30 BEGIN BOND
M  V30 1 1 2 1
M  V30 2 1 7 3
M  V30 3 1 11 1
M  V30 4 1 11 9
M  V30 5 1 14 4
M  V30 6 1 16 3
M  V30 7 2 16 9
M  V30 8 1 16 10
M  V30 9 1 17 10
M  V30 10 1 18 2
M  V30 11 1 18 17
M  V30 12 2 20 14
M  V30 13 1 21 11
M  V30 14 1 21 20
M  V30 15 1 22 3
M  V30 16 1 22 6
M  V30 17 1 23 20
M  V30 18 1 25 17
M  V30 19 2 25 19
M  V30 20 1 26 4
M  V30 21 1 26 13
M  V30 22 1 27 8
M  V30 23 2 27 13
M  V30 24 2 28 26
M  V30 25 1 29 27
M  V30 26 1 30 4
M  V30 27 2 30 23
M  V30 28 2 31 19
M  V30 29 2 32 10
M  V30 30 1 32 12
M  V30 31 1 33 13
M  V30 32 2 33 24
M  V30 33 1 34 12
M  V30 34 2 34 15
M  V30 35 1 34 31
M  V30 36 1 35 5
M  V30 37 2 35 8
M  V30 38 1 35 24
M  V30 39 1 36 1
M  V30 40 1 37 2
M  V30 41 1 3 38 CFG=1
M  V30 42 1 39 5
M  V30 43 1 40 6
M  V30 44 1 41 7
M  V30 45 1 42 8
M  V30 46 1 43 9
M  V30 47 1 44 2
M  V30 48 1 45 12
M  V30 49 1 46 12
M  V30 50 1 47 15
M  V30 51 1 48 15
M  V30 52 1 49 1
M  V30 53 1 17 50 CFG=3
M  V30 54 1 51 18
M  V30 55 1 52 18
M  V30 56 1 53 21
M  V30 57 1 54 21
M  V30 58 1 55 22
M  V30 59 1 56 22
M  V30 60 1 57 23
M  V30 61 1 58 24
M  V30 62 1 59 25
M  V30 63 1 60 30
M  V30 64 1 61 31
M  V30 65 1 62 32
M  V30 66 1 63 33
M  V30 END BOND
M  V30 END CTAB
M  END
>  <i_epik_Tot_Q>  (1) 
0

>  <i_epik_Tot_abs_Q>  (1) 
0

>  <i_i_glide_confnum>  (1) 
235

>  <i_i_glide_lignum>  (1) 
148

>  <i_i_glide_posenum>  (1) 
153

>  <i_i_glide_rotatable_bonds>  (1) 
9

>  <i_lp_mmshare_version>  (1) 
72125

>  <i_m_source_file_index>  (1) 
67

>  <i_f3d_flags>  (1) 
0

>  <num_sample>  (1) 
100

>  <b_lp_Chiralities_Consistent>  (1) 
1

>  <r_epik_Charging_Adjusted_Penalty>  (1) 
1.3281530491987052

>  <r_epik_Ionization_Penalty>  (1) 
1.3282883392360914

>  <r_epik_Ionization_Penalty_Charging>  (1) 
0

>  <r_epik_Ionization_Penalty_Neutral>  (1) 
1.3282883392360914

>  <r_epik_State_Penalty>  (1) 
1.3281530491987052

>  <r_glide_ring_energy>  (1) 
0

>  <r_i_docking_score>  (1) 
-6.9907371686991935

>  <r_i_glide_ecoul>  (1) 
-7.7457262663244766

>  <r_i_glide_eff_state_penalty>  (1) 
1.3281530491987052

>  <r_i_glide_einternal>  (1) 
18.821300736216369

>  <r_i_glide_emodel>  (1) 
-54.825828492072723

>  <r_i_glide_emodel_strain>  (1) 
0.64696695938403082

>  <r_i_glide_energy>  (1) 
-40.798419607935742

>  <r_i_glide_erotb>  (1) 
0.50097048188181392

>  <r_i_glide_esite>  (1) 
0

>  <r_i_glide_evdw>  (1) 
-33.052693341611267

>  <r_i_glide_gscore>  (1) 
-8.3188902178978985

>  <r_i_glide_gscore_strain>  (1) 
0

>  <r_i_glide_hbond>  (1) 
-0.51170497736128606

>  <r_i_glide_ligand_efficiency>  (1) 
-0.19973534767711981

>  <r_i_glide_ligand_efficiency_ln>  (1) 
-1.5346219595816148

>  <r_i_glide_ligand_efficiency_sa>  (1) 
-0.65334756674043148

>  <r_i_glide_lipo>  (1) 
-4.0320284531410833

>  <r_i_glide_metal>  (1) 
-0

>  <r_i_glide_rewards>  (1) 
-1.461633662248109

>  <r_lp_Energy>  (1) 
66.945476999999997

>  <r_lp_tautomer_probability>  (1) 
0.99999944244275329

>  <s_epik_cmdline>  (1) 
J2VwaWtfcHl0aG9uJywgJy1waHQnLCAnMS4wJywgJy1waCcsICc3LjQnLCAnLXRuJywgJzgnLCAnLW1hJywgJzUwMCcsICctaW1hZScsICc8aW5maWxlLm1hZT4nLCAnLW9tYWUnLCAnPG91dGZpbGUubWFlPic=

>  <s_epik_input>  (1) 
W0NIXTEvW0NIMl1DKD1bQ0gyXSlbQ0hdPUM9W0NIXVtDQEBIXShDPTFcMilbQ0gyXS9bQ0hdPVtDSF1cTihbQ0gyXVtDQEBIXTJbQ0BASF0oW09IXSlbQ0gyXVtPSF0pW0NIMl1jKFtjSF1bY0hdMylubjNDKD1PKWM0YyhDbClbY0hdYyhbT0hdKVtjSF1bY0hdNA==

>  <s_glide_docking_method>  (1) 
confgen

>  <s_i_glide_gridfile>  (1) 
gpcr_5ht2c_6bqh_protein_autoprepared_prepared

>  <s_lp_Force_Field>  (1) 
S-OPLS

>  <s_lp_Variant>  (1) 
DiffSBDD_66-4

>  <s_m_source_file>  (1) 
generated_GPCR_5HT2C_ligand_DiffSBDD_2026-06-23_prepared.sdf

>  <GenAI_Model>  (1) 
DiffSBDD

>  <Protein>  (1) 
GPCR_5HT2C

$$$$
DiffSBDD_25
     RDKit          3D

  0  0  0  0  0  0  0  0  0  0999 V3000
M  V30 BEGIN CTAB
M  V30 COUNTS 68 71 0 0 1
M  V30 BEGIN ATOM
M  V30 1 C 40.473683 35.284043 62.128484 0
M  V30 2 C 38.573395 25.149842 57.575404 0
M  V30 3 O 40.612384 36.452777 62.553904 0 CHG=-1
M  V30 4 C 36.661476 30.342229 59.200871 0
M  V30 5 N 39.752260 31.219746 60.969600 0
M  V30 6 C 38.494359 24.783348 56.106616 0
M  V30 7 C 41.651854 34.356092 64.223845 0
M  V30 8 C 41.667359 32.060459 64.813594 0
M  V30 9 C 37.077337 26.881410 54.504169 0
M  V30 10 C 39.281875 25.761419 55.213459 0
M  V30 11 C 38.559005 27.102484 54.886475 0 CFG=2
M  V30 12 C 40.419088 30.254985 63.563797 0
M  V30 13 O 38.702729 28.997100 53.432179 0
M  V30 14 O 38.474637 33.124373 61.448730 0
M  V30 15 N 38.316647 28.860081 58.397321 0
M  V30 16 C 40.395923 32.739832 62.824210 0
M  V30 17 O 40.093670 35.035957 60.967749 0
M  V30 18 C 39.257135 26.985816 52.432700 0
M  V30 19 C 40.832063 34.112521 63.074257 0
M  V30 20 C 38.699009 28.169682 56.030314 0
M  V30 21 C 38.731817 27.746229 57.527820 0 CFG=2
M  V30 22 C 39.442068 32.390211 61.675371 0
M  V30 23 C 39.322406 29.431012 59.296664 0
M  V30 24 N 42.024133 33.336682 65.020422 0 CHG=1
M  V30 25 C 39.759403 28.085543 51.534603 0
M  V30 26 C 37.036483 29.337518 58.424383 0
M  V30 27 N 42.112654 35.629326 64.559133 0
M  V30 28 N 39.243792 27.678897 53.713982 0
M  V30 29 C 37.925396 26.492742 57.895375 0
M  V30 30 C 38.877597 30.648183 60.190970 0
M  V30 31 C 39.813570 30.594841 51.976712 0
M  V30 32 N 37.514770 31.010561 60.056478 0
M  V30 33 C 39.007749 29.289098 52.073232 0 CFG=2
M  V30 34 C 40.846170 31.711861 63.728149 0
M  V30 35 H 39.611068 25.142140 57.911792 0
M  V30 36 H 38.060563 24.372678 58.144045 0
M  V30 37 H 35.645931 30.716382 59.210793 0
M  V30 38 H 38.889165 23.778662 56.013443 0
M  V30 39 H 37.458479 24.670846 55.791708 0
M  V30 40 H 42.036958 31.347446 65.538475 0
M  V30 41 H 36.455509 26.538036 55.335727 0
M  V30 42 H 36.612818 27.791984 54.128668 0
M  V30 43 H 36.972632 26.122178 53.730414 0
M  V30 44 H 40.264145 25.961210 55.647366 0
M  V30 45 H 39.501680 25.219376 54.299108 0
M  V30 46 H 40.613350 29.697993 64.480835 0
M  V30 47 H 39.349369 30.158275 63.378417 0
M  V30 48 H 40.976935 29.761290 62.768244 0
M  V30 49 H 39.934253 26.137881 52.419679 0
M  V30 50 H 38.263133 26.672222 52.121910 0
M  V30 51 H 37.907451 28.906781 55.886207 0
M  V30 52 H 39.619067 28.738052 55.882101 0
M  V30 53 H 39.770787 27.521536 57.774663 0
M  V30 54 H 39.669903 28.639441 59.960994 0
M  V30 55 H 40.182028 29.732451 58.698872 0
M  V30 56 H 39.558148 27.895036 50.479181 0
M  V30 57 H 40.836554 28.208316 51.658821 0
M  V30 58 H 36.358699 28.832377 57.767325 0
M  V30 59 H 41.828873 36.444843 64.018928 0
M  V30 60 H 42.666780 35.798968 65.383456 0
M  V30 61 H 37.880757 26.500418 58.967889 0
M  V30 62 H 36.894566 26.542130 57.547759 0
M  V30 63 H 39.908915 30.920042 50.940019 0
M  V30 64 H 39.337724 31.394043 52.547282 0
M  V30 65 H 40.821669 30.479256 52.376170 0
M  V30 66 H 38.054257 29.338187 51.549126 0
M  V30 67 H 37.121856 31.785537 60.571585 0
M  V30 68 H 42.612770 33.544991 65.826573 0
M  V30 END ATOM
M  V30 BEGIN BOND
M  V30 1 1 3 1
M  V30 2 1 6 2
M  V30 3 1 10 6
M  V30 4 1 11 9 CFG=3
M  V30 5 1 11 10
M  V30 6 2 17 1
M  V30 7 1 19 1
M  V30 8 2 19 7
M  V30 9 1 19 16
M  V30 10 1 20 11
M  V30 11 1 21 15
M  V30 12 1 21 20
M  V30 13 1 22 5
M  V30 14 2 22 14
M  V30 15 1 22 16
M  V30 16 1 23 15
M  V30 17 1 24 7
M  V30 18 2 24 8
M  V30 19 1 25 18
M  V30 20 2 26 4
M  V30 21 1 26 15
M  V30 22 1 27 7
M  V30 23 1 28 11
M  V30 24 1 28 13
M  V30 25 1 28 18
M  V30 26 1 29 2
M  V30 27 1 29 21
M  V30 28 2 30 5
M  V30 29 1 30 23
M  V30 30 1 32 4
M  V30 31 1 32 30
M  V30 32 1 33 13
M  V30 33 1 33 25
M  V30 34 1 33 31
M  V30 35 1 34 8
M  V30 36 1 34 12
M  V30 37 2 34 16
M  V30 38 1 35 2
M  V30 39 1 36 2
M  V30 40 1 37 4
M  V30 41 1 38 6
M  V30 42 1 39 6
M  V30 43 1 40 8
M  V30 44 1 41 9
M  V30 45 1 42 9
M  V30 46 1 43 9
M  V30 47 1 44 10
M  V30 48 1 45 10
M  V30 49 1 46 12
M  V30 50 1 47 12
M  V30 51 1 48 12
M  V30 52 1 49 18
M  V30 53 1 50 18
M  V30 54 1 51 20
M  V30 55 1 52 20
M  V30 56 1 21 53 CFG=1
M  V30 57 1 54 23
M  V30 58 1 55 23
M  V30 59 1 56 25
M  V30 60 1 57 25
M  V30 61 1 58 26
M  V30 62 1 59 27
M  V30 63 1 60 27
M  V30 64 1 61 29
M  V30 65 1 62 29
M  V30 66 1 63 31
M  V30 67 1 64 31
M  V30 68 1 65 31
M  V30 69 1 33 66 CFG=3
M  V30 70 1 67 32
M  V30 71 1 68 24
M  V30 END BOND
M  V30 END CTAB
M  END
>  <i_epik_Tot_Q>  (1) 
0

>  <i_epik_Tot_abs_Q>  (1) 
2

>  <i_i_glide_confnum>  (1) 
175

>  <i_i_glide_lignum>  (1) 
63

>  <i_i_glide_posenum>  (1) 
72

>  <i_i_glide_rotatable_bonds>  (1) 
5

>  <i_lp_mmshare_version>  (1) 
72125

>  <i_m_source_file_index>  (1) 
26

>  <i_f3d_flags>  (1) 
0

>  <num_sample>  (1) 
100

>  <b_lp_Chiralities_Consistent>  (1) 
1

>  <r_epik_Charging_Adjusted_Penalty>  (1) 
1.7343418636902355

>  <r_epik_Ionization_Penalty>  (1) 
0.81506818440052864

>  <r_epik_Ionization_Penalty_Charging>  (1) 
0.79852554791812069

>  <r_epik_Ionization_Penalty_Neutral>  (1) 
0.016542636482407981

>  <r_epik_State_Penalty>  (1) 
0.93581631577211466

>  <r_glide_ring_energy>  (1) 
0.67665862143778044

>  <r_i_docking_score>  (1) 
-6.9879583161914525

>  <r_i_glide_ecoul>  (1) 
-2.4834206540035839

>  <r_i_glide_eff_state_penalty>  (1) 
0.93581631577211466

>  <r_i_glide_einternal>  (1) 
5.635938518631896

>  <r_i_glide_emodel>  (1) 
-60.751155242984268

>  <r_i_glide_emodel_strain>  (1) 
0

>  <r_i_glide_energy>  (1) 
-42.690317872360147

>  <r_i_glide_erotb>  (1) 
0.3649910051837349

>  <r_i_glide_esite>  (1) 
-0.035420180673042374

>  <r_i_glide_evdw>  (1) 
-40.206897218356566

>  <r_i_glide_gscore>  (1) 
-7.9237746319635676

>  <r_i_glide_gscore_strain>  (1) 
0

>  <r_i_glide_hbond>  (1) 
0

>  <r_i_glide_ligand_efficiency>  (1) 
-0.20552818577033682

>  <r_i_glide_ligand_efficiency_ln>  (1) 
-1.5438359976383091

>  <r_i_glide_ligand_efficiency_sa>  (1) 
-0.66583153611673418

>  <r_i_glide_lipo>  (1) 
-4.0780456211185188

>  <r_i_glide_metal>  (1) 
-0

>  <r_i_glide_rewards>  (1) 
-1.7924418763373757

>  <r_lp_Energy>  (1) 
74.787555999999995

>  <s_epik_Chemistry_Notes>  (1) 
This compound has an imine and may undergo hydrolysis. This compound has a N-S or N-O group and may undergo hydrolysis at high or low pH.

>  <s_epik_cmdline>  (1) 
J2VwaWtfcHl0aG9uJywgJy1waHQnLCAnMS4wJywgJy1waCcsICc3LjQnLCAnLXRuJywgJzgnLCAnLW1hJywgJzUwMCcsICctaW1hZScsICc8aW5maWxlLm1hZT4nLCAnLW9tYWUnLCAnPG91dGZpbGUubWFlPic=

>  <s_epik_input>  (1) 
W09IXUMoPU8pYyhjMVtOSDJdKWMoYyhbY0hdbjEpW0NIM10pQyg9TylbTkhdQyg9TltDSF09W0NIXTIpW0NIMl1OMltDQEhdKFtDSDJdMylbQ0gyXVtDSDJdW0NIMl1bQ0gyXVtDQF0zKFtDSDNdKU40T1tDQEBIXShbQ0gzXSlbQ0gyXVtDSDJdNA==

>  <s_glide_docking_method>  (1) 
confgen

>  <s_i_glide_gridfile>  (1) 
gpcr_5ht2c_6bqh_protein_autoprepared_prepared

>  <s_lp_Force_Field>  (1) 
S-OPLS

>  <s_lp_Variant>  (1) 
DiffSBDD_25-3

>  <s_m_source_file>  (1) 
generated_GPCR_5HT2C_ligand_DiffSBDD_2026-06-23_prepared.sdf

>  <GenAI_Model>  (1) 
DiffSBDD

>  <Protein>  (1) 
GPCR_5HT2C

$$$$
DiffSBDD_93
     RDKit          3D

  0  0  0  0  0  0  0  0  0  0999 V3000
M  V30 BEGIN CTAB
M  V30 COUNTS 84 85 0 0 1
M  V30 BEGIN ATOM
M  V30 1 C 39.346594 30.082995 61.061159 0
M  V30 2 O 39.242882 30.268137 62.461133 0
M  V30 3 C 40.346474 34.750650 62.171614 0
M  V30 4 C 37.815671 24.626837 55.677401 0
M  V30 5 O 36.545286 29.660851 58.799981 0
M  V30 6 C 37.727821 28.796056 53.935208 0
M  V30 7 N 37.615623 29.965951 54.567789 0
M  V30 8 O 36.845137 28.340948 53.225178 0
M  V30 9 O 34.896519 34.227229 58.974383 0
M  V30 10 C 37.240968 24.362009 57.047448 0
M  V30 11 C 39.258117 33.709504 61.899987 0
M  V30 12 C 38.623236 28.458519 58.797489 0
M  V30 13 C 37.184319 31.372097 60.872271 0
M  V30 14 C 38.967243 26.840487 55.141995 0 CFG=1
M  V30 15 C 39.040796 28.026516 54.114625 0 CFG=1
M  V30 16 C 38.535540 35.817444 61.013744 0 CFG=1
M  V30 17 C 37.837661 33.714061 59.779967 0 CFG=1
M  V30 18 C 39.050205 33.337688 58.920473 0
M  V30 19 C 38.274511 28.058558 57.349067 0
M  V30 20 S 35.120274 32.960621 60.075357 0 CHG=1
M  V30 21 O 41.499917 27.337817 57.766934 0
M  V30 22 N 38.063707 30.307968 60.356763 0
M  V30 23 O 35.245155 33.737700 61.576222 0
M  V30 24 O 39.096702 36.471001 63.323655 0
M  V30 25 F 36.445144 36.445640 60.147028 0
M  V30 26 C 36.603684 23.740467 55.822702 0
M  V30 27 C 40.731112 27.823874 56.684294 0
M  V30 28 C 39.327228 27.193653 56.623699 0 CFG=2
M  V30 29 C 37.652017 29.527604 59.323201 0
M  V30 30 C 39.522889 27.505063 52.724721 0
M  V30 31 C 37.692045 38.245160 60.822833 0
M  V30 32 C 36.850119 32.496483 59.845391 0 CFG=2
M  V30 33 O 39.645247 28.271141 50.477840 0
M  V30 34 C 37.695369 25.971646 55.000743 0
M  V30 35 C 37.324990 36.778099 61.083459 0 CFG=2
M  V30 36 C 39.754154 28.604093 51.673740 0
M  V30 37 C 39.627102 36.085603 62.068126 0 CFG=1
M  V30 38 O 40.044936 29.746717 52.092592 0 CHG=-1
M  V30 39 N 38.184133 34.365400 61.098530 0 CFG=1 CHG=1
M  V30 40 H 39.732821 29.069446 60.958745 0
M  V30 41 H 40.111145 30.746332 60.658824 0
M  V30 42 H 39.207726 29.422297 62.894063 0
M  V30 43 H 40.857086 34.600492 63.124030 0
M  V30 44 H 41.104300 34.692480 61.388797 0
M  V30 45 H 38.758581 24.137598 55.459704 0
M  V30 46 H 38.378800 30.309549 55.128084 0
M  V30 47 H 36.768131 30.506591 54.480215 0
M  V30 48 H 34.389086 33.866587 58.261306 0
M  V30 49 H 37.807078 23.712101 57.711259 0
M  V30 50 H 36.702964 25.170647 57.537677 0
M  V30 51 H 38.845093 33.370330 62.848933 0
M  V30 52 H 39.687637 32.835726 61.418319 0
M  V30 53 H 39.628150 28.875214 58.803998 0
M  V30 54 H 38.614961 27.584652 59.449483 0
M  V30 55 H 37.506448 31.801547 61.814774 0
M  V30 56 H 36.262022 30.856694 61.144880 0
M  V30 57 H 39.769935 26.166451 54.839042 0
M  V30 58 H 39.763088 28.758890 54.467007 0
M  V30 59 H 39.024144 35.972987 60.061203 0
M  V30 60 H 37.345704 34.483711 59.190187 0
M  V30 61 H 38.826309 33.475746 57.861461 0
M  V30 62 H 39.946331 33.913009 59.150058 0
M  V30 63 H 39.245930 32.278063 59.039480 0
M  V30 64 H 37.314990 27.541874 57.351739 0
M  V30 65 H 38.128771 28.974280 56.787771 0
M  V30 66 H 41.854107 26.489157 57.528175 0
M  V30 67 H 34.434854 33.557471 62.031408 0
M  V30 68 H 38.951814 35.710290 63.865121 0
M  V30 69 H 35.645061 24.137751 55.499286 0
M  V30 70 H 36.737947 22.676091 55.649876 0
M  V30 71 H 41.245860 27.581530 55.767756 0
M  V30 72 H 40.677790 28.912317 56.720103 0
M  V30 73 H 39.383767 26.246701 57.162520 0
M  V30 74 H 40.445117 26.937717 52.829428 0
M  V30 75 H 38.800214 26.799031 52.314571 0
M  V30 76 H 38.481008 38.584562 61.490829 0
M  V30 77 H 38.044382 38.387158 59.800708 0
M  V30 78 H 36.828511 38.896196 60.967688 0
M  V30 79 H 36.830215 32.087393 58.836437 0
M  V30 80 H 36.821668 26.492628 55.382540 0
M  V30 81 H 37.494645 25.778145 53.946579 0
M  V30 82 H 36.808355 36.686787 62.040584 0
M  V30 83 H 40.306474 36.875205 61.743516 0
M  V30 84 H 37.340150 34.339068 61.657441 0
M  V30 END ATOM
M  V30 BEGIN BOND
M  V30 1 1 2 1
M  V30 2 1 7 6
M  V30 3 2 8 6
M  V30 4 1 10 4
M  V30 5 1 11 3
M  V30 6 1 15 6
M  V30 7 1 15 14
M  V30 8 1 18 17
M  V30 9 1 19 12
M  V30 10 1 20 9
M  V30 11 1 22 1
M  V30 12 1 22 13
M  V30 13 1 23 20
M  V30 14 1 26 4
M  V30 15 1 26 10
M  V30 16 1 27 21
M  V30 17 1 28 14
M  V30 18 1 28 19
M  V30 19 1 28 27
M  V30 20 2 29 5
M  V30 21 1 29 12
M  V30 22 1 29 22
M  V30 23 1 30 15
M  V30 24 1 32 13
M  V30 25 1 32 17
M  V30 26 1 32 20
M  V30 27 1 34 4
M  V30 28 1 34 14
M  V30 29 1 35 16
M  V30 30 1 35 25
M  V30 31 1 35 31
M  V30 32 1 36 30
M  V30 33 2 36 33
M  V30 34 1 37 3
M  V30 35 1 37 16
M  V30 36 1 37 24
M  V30 37 1 38 36
M  V30 38 1 39 11
M  V30 39 1 39 16
M  V30 40 1 39 17
M  V30 41 1 40 1
M  V30 42 1 41 1
M  V30 43 1 42 2
M  V30 44 1 43 3
M  V30 45 1 44 3
M  V30 46 1 45 4
M  V30 47 1 46 7
M  V30 48 1 47 7
M  V30 49 1 48 9
M  V30 50 1 49 10
M  V30 51 1 50 10
M  V30 52 1 51 11
M  V30 53 1 52 11
M  V30 54 1 53 12
M  V30 55 1 54 12
M  V30 56 1 55 13
M  V30 57 1 56 13
M  V30 58 1 14 57 CFG=3
M  V30 59 1 15 58 CFG=1
M  V30 60 1 16 59 CFG=3
M  V30 61 1 17 60 CFG=3
M  V30 62 1 61 18
M  V30 63 1 62 18
M  V30 64 1 63 18
M  V30 65 1 64 19
M  V30 66 1 65 19
M  V30 67 1 66 21
M  V30 68 1 67 23
M  V30 69 1 68 24
M  V30 70 1 69 26
M  V30 71 1 70 26
M  V30 72 1 71 27
M  V30 73 1 72 27
M  V30 74 1 28 73 CFG=1
M  V30 75 1 74 30
M  V30 76 1 75 30
M  V30 77 1 76 31
M  V30 78 1 77 31
M  V30 79 1 78 31
M  V30 80 1 32 79 CFG=3
M  V30 81 1 80 34
M  V30 82 1 81 34
M  V30 83 1 35 82 CFG=1
M  V30 84 1 37 83 CFG=3
M  V30 85 1 39 84 CFG=1
M  V30 END BOND
M  V30 END CTAB
M  END
>  <i_epik_Tot_Q>  (1) 
1

>  <i_epik_Tot_abs_Q>  (1) 
3

>  <i_i_glide_confnum>  (1) 
8347

>  <i_i_glide_lignum>  (1) 
222

>  <i_i_glide_posenum>  (1) 
361

>  <i_i_glide_rotatable_bonds>  (1) 
24

>  <i_lp_mmshare_version>  (1) 
72125

>  <i_m_source_file_index>  (1) 
94

>  <i_f3d_flags>  (1) 
0

>  <num_sample>  (1) 
100

>  <b_lp_Chiralities_Consistent>  (1) 
1

>  <r_epik_Charging_Adjusted_Penalty>  (1) 
0.90916677635763199

>  <r_epik_Ionization_Penalty>  (1) 
0.45507897092921873

>  <r_epik_Ionization_Penalty_Charging>  (1) 
0.45507471778648678

>  <r_epik_Ionization_Penalty_Neutral>  (1) 
4.2531427319391784e-06

>  <r_epik_State_Penalty>  (1) 
0.45409205857114521

>  <r_glide_ring_energy>  (1) 
0

>  <r_i_docking_score>  (1) 
-6.9868642747266492

>  <r_i_glide_ecoul>  (1) 
-1.9221692112454454

>  <r_i_glide_eff_state_penalty>  (1) 
0.45409205857114521

>  <r_i_glide_einternal>  (1) 
20.784336673150595

>  <r_i_glide_emodel>  (1) 
-58.561331108971501

>  <r_i_glide_emodel_strain>  (1) 
9.5955447588606688

>  <r_i_glide_energy>  (1) 
-53.760623798931412

>  <r_i_glide_erotb>  (1) 
0.82188833391367333

>  <r_i_glide_esite>  (1) 
-0.020929602616539495

>  <r_i_glide_evdw>  (1) 
-51.838454587685966

>  <r_i_glide_gscore>  (1) 
-7.4409563332977946

>  <r_i_glide_gscore_strain>  (1) 
1.3988861897151672

>  <r_i_glide_hbond>  (1) 
-0.49024350582537979

>  <r_i_glide_ligand_efficiency>  (1) 
-0.17915036601863202

>  <r_i_glide_ligand_efficiency_ln>  (1) 
-1.4981820344382375

>  <r_i_glide_ligand_efficiency_sa>  (1) 
-0.60753677126256134

>  <r_i_glide_lipo>  (1) 
-4.1730493183252619

>  <r_i_glide_metal>  (1) 
-0

>  <r_i_glide_rewards>  (1) 
-2.0972603190883374

>  <r_lp_Energy>  (1) 
31.842893

>  <s_epik_Chemistry_Notes>  (1) 
This compound contains an acetal/aminal-like group ( X-CH(R)-Y where X, Y are N, S, or O) that may be acid/base labile, releasing an aldehyde.

>  <s_epik_cmdline>  (1) 
J2VwaWtfcHl0aG9uJywgJy1waHQnLCAnMS4wJywgJy1waCcsICc3LjQnLCAnLXRuJywgJzgnLCAnLW1hJywgJzUwMCcsICctaW1hZScsICc8aW5maWxlLm1hZT4nLCAnLW9tYWUnLCAnPG91dGZpbGUubWFlPic=

>  <s_epik_input>  (1) 
W0NIMl0xW0NIMl1bQ0hdMVtDSDJdW0NAQEhdKFtDQEBIXShDKD1PKVtOSDJdKVtDSDJdQyg9TylbT0hdKVtDQEBIXShbQ0gyXVtPSF0pW0NIMl1bQ0gyXUMoPU8pTihbQ0gyXVtPSF0pW0NIMl1bQ0BASF0oW1MrXShbT0hdKVtPSF0pW0NASF0oW0NIM10pTjJbQ0gyXVtDSDJdW0NASF0oW09IXSlbQ0BASF0yW0NASF0oRilbQ0gzXQ==

>  <s_glide_docking_method>  (1) 
confgen

>  <s_i_glide_gridfile>  (1) 
gpcr_5ht2c_6bqh_protein_autoprepared_prepared

>  <s_lp_Force_Field>  (1) 
S-OPLS

>  <s_lp_Variant>  (1) 
DiffSBDD_93-10

>  <s_m_source_file>  (1) 
generated_GPCR_5HT2C_ligand_DiffSBDD_2026-06-23_prepared.sdf

>  <GenAI_Model>  (1) 
DiffSBDD

>  <Protein>  (1) 
GPCR_5HT2C

$$$$
DiffSBDD_86
     RDKit          3D

  0  0  0  0  0  0  0  0  0  0999 V3000
M  V30 BEGIN CTAB
M  V30 COUNTS 78 80 0 0 1
M  V30 BEGIN ATOM
M  V30 1 C 38.871828 28.990202 53.612250 0
M  V30 2 C 42.407795 35.447232 64.497133 0
M  V30 3 C 39.105332 31.372245 60.119917 0 CFG=2
M  V30 4 C 41.535601 35.738149 65.725706 0
M  V30 5 N 39.219120 30.162631 59.245164 0
M  V30 6 C 35.196923 38.593609 61.766679 0
M  V30 7 N 38.253487 28.889757 54.854673 0
M  V30 8 C 37.545959 34.463754 60.458525 0
M  V30 9 O 35.435038 31.417620 59.767748 0
M  V30 10 O 37.645166 37.579631 59.113588 0
M  V30 11 C 36.813873 36.770014 61.159610 0 CFG=2
M  V30 12 C 37.381132 33.080283 61.104615 0
M  V30 13 C 39.286085 28.891038 59.735239 0
M  V30 14 N 37.533483 35.517430 61.512353 0 CFG=2 CHG=1
M  V30 15 C 37.645123 37.744419 60.345807 0
M  V30 16 C 39.060691 27.967847 52.662522 0
M  V30 17 C 40.200438 29.516178 51.148269 0
M  V30 18 O 39.245027 28.699116 60.968696 0
M  V30 19 C 39.284230 30.409050 57.792497 0
M  V30 20 C 40.038533 30.548151 52.086084 0
M  V30 21 C 39.833885 31.323289 61.491810 0
M  V30 22 S 39.003606 31.372104 54.631879 0
M  V30 23 O 38.266589 38.635487 60.967858 0 CHG=-1
M  V30 24 C 38.802657 35.695212 62.264864 0
M  V30 25 C 37.657139 31.923712 60.116010 0 CFG=2
M  V30 26 C 35.408634 36.561516 63.367764 0
M  V30 27 O 36.697423 30.899616 60.279257 0
M  V30 28 N 41.594379 34.941483 63.375175 0 CHG=1
M  V30 29 C 38.005101 30.107850 57.003094 0
M  V30 30 C 39.374480 30.286679 53.299749 0
M  V30 31 O 38.613917 26.717243 52.944830 0
M  V30 32 C 40.103133 35.534510 61.477678 0
M  V30 33 C 38.351610 30.017301 55.555479 0
M  V30 34 C 36.417473 37.582311 63.738826 0
M  V30 35 C 36.045113 37.448481 62.301799 0
M  V30 36 O 39.393314 27.937853 58.932147 0 CHG=-1
M  V30 37 C 39.712785 28.227404 51.434689 0
M  V30 38 C 41.259573 35.970954 62.368650 0
M  V30 39 H 43.158776 34.699228 64.752059 0
M  V30 40 H 42.944036 36.339696 64.178777 0
M  V30 41 H 39.644996 32.173382 59.624318 0
M  V30 42 H 42.130116 36.183323 66.525671 0
M  V30 43 H 40.733041 36.441591 65.497976 0
M  V30 44 H 41.086791 34.827247 66.121044 0
M  V30 45 H 34.320500 38.745429 62.393002 0
M  V30 46 H 35.763294 39.525789 61.735716 0
M  V30 47 H 34.848367 38.373539 60.762429 0
M  V30 48 H 38.433473 34.521803 59.828791 0
M  V30 49 H 36.714673 34.586174 59.761962 0
M  V30 50 H 35.548855 31.331606 58.822013 0
M  V30 51 H 36.045198 36.447716 60.465574 0
M  V30 52 H 36.355238 33.019459 61.470421 0
M  V30 53 H 37.981094 32.984523 62.005569 0
M  V30 54 H 40.703785 29.708612 50.211258 0
M  V30 55 H 39.569654 31.433805 57.556159 0
M  V30 56 H 40.084971 29.788745 57.387699 0
M  V30 57 H 40.408866 31.543278 51.871596 0
M  V30 58 H 40.076438 32.321351 61.857829 0
M  V30 59 H 39.228817 30.838422 62.257753 0
M  V30 60 H 40.784481 30.792661 61.422155 0
M  V30 61 H 38.812923 36.674061 62.735217 0
M  V30 62 H 38.845385 34.972826 63.069888 0
M  V30 63 H 37.507260 32.308749 59.103914 0
M  V30 64 H 34.380119 36.777146 63.656042 0
M  V30 65 H 35.669917 35.512366 63.367537 0
M  V30 66 H 40.746806 34.549382 63.757753 0
M  V30 67 H 37.559031 29.165524 57.321366 0
M  V30 68 H 37.260695 30.886072 57.153696 0
M  V30 69 H 38.249433 26.670337 53.817990 0
M  V30 70 H 40.256610 34.508356 61.144108 0
M  V30 71 H 40.089910 36.138777 60.572539 0
M  V30 72 H 37.368285 37.262840 64.148096 0
M  V30 73 H 35.949621 38.455824 64.152257 0
M  V30 74 H 39.845759 27.430689 50.714787 0
M  V30 75 H 42.115300 36.137215 61.732715 0
M  V30 76 H 41.044359 36.926995 62.853202 0
M  V30 77 H 42.103857 34.201499 62.913345 0
M  V30 78 H 36.897787 35.135216 62.197113 0
M  V30 END ATOM
M  V30 BEGIN BOND
M  V30 1 1 4 2
M  V30 2 1 5 3
M  V30 3 1 7 1
M  V30 4 1 12 8
M  V30 5 1 13 5
M  V30 6 1 14 8
M  V30 7 1 14 11
M  V30 8 2 15 10
M  V30 9 1 15 11
M  V30 10 2 16 1
M  V30 11 2 18 13
M  V30 12 1 19 5
M  V30 13 1 20 17
M  V30 14 1 21 3
M  V30 15 1 23 15
M  V30 16 1 24 14
M  V30 17 1 25 3
M  V30 18 1 25 12
M  V30 19 1 27 9
M  V30 20 1 27 25
M  V30 21 1 28 2
M  V30 22 1 29 19
M  V30 23 1 30 1
M  V30 24 2 30 20
M  V30 25 1 30 22
M  V30 26 1 31 16
M  V30 27 1 32 24
M  V30 28 2 33 7
M  V30 29 1 33 22
M  V30 30 1 33 29
M  V30 31 1 34 26
M  V30 32 1 35 6
M  V30 33 1 35 11
M  V30 34 1 35 26
M  V30 35 1 35 34
M  V30 36 1 36 13
M  V30 37 1 37 16
M  V30 38 2 37 17
M  V30 39 1 38 28
M  V30 40 1 38 32
M  V30 41 1 39 2
M  V30 42 1 40 2
M  V30 43 1 3 41 CFG=3
M  V30 44 1 42 4
M  V30 45 1 43 4
M  V30 46 1 44 4
M  V30 47 1 45 6
M  V30 48 1 46 6
M  V30 49 1 47 6
M  V30 50 1 48 8
M  V30 51 1 49 8
M  V30 52 1 50 9
M  V30 53 1 11 51 CFG=3
M  V30 54 1 52 12
M  V30 55 1 53 12
M  V30 56 1 54 17
M  V30 57 1 55 19
M  V30 58 1 56 19
M  V30 59 1 57 20
M  V30 60 1 58 21
M  V30 61 1 59 21
M  V30 62 1 60 21
M  V30 63 1 61 24
M  V30 64 1 62 24
M  V30 65 1 25 63 CFG=3
M  V30 66 1 64 26
M  V30 67 1 65 26
M  V30 68 1 66 28
M  V30 69 1 67 29
M  V30 70 1 68 29
M  V30 71 1 69 31
M  V30 72 1 70 32
M  V30 73 1 71 32
M  V30 74 1 72 34
M  V30 75 1 73 34
M  V30 76 1 74 37
M  V30 77 1 75 38
M  V30 78 1 76 38
M  V30 79 1 77 28
M  V30 80 1 14 78 CFG=1
M  V30 END BOND
M  V30 END CTAB
M  END
>  <i_epik_Tot_Q>  (1) 
0

>  <i_epik_Tot_abs_Q>  (1) 
4

>  <i_i_glide_confnum>  (1) 
6251

>  <i_i_glide_lignum>  (1) 
204

>  <i_i_glide_posenum>  (1) 
313

>  <i_i_glide_rotatable_bonds>  (1) 
20

>  <i_lp_mmshare_version>  (1) 
72125

>  <i_m_source_file_index>  (1) 
87

>  <i_f3d_flags>  (1) 
0

>  <num_sample>  (1) 
100

>  <b_lp_Chiralities_Consistent>  (1) 
1

>  <r_epik_Charging_Adjusted_Penalty>  (1) 
0.22044164317972559

>  <r_epik_Ionization_Penalty>  (1) 
0.19516572318186753

>  <r_epik_Ionization_Penalty_Charging>  (1) 
0.026579669222116228

>  <r_epik_Ionization_Penalty_Neutral>  (1) 
0.16858605395975129

>  <r_epik_State_Penalty>  (1) 
0.19386197395760935

>  <r_glide_ring_energy>  (1) 
0

>  <r_i_docking_score>  (1) 
-6.9867270702743847

>  <r_i_glide_ecoul>  (1) 
-7.9275133570070802

>  <r_i_glide_eff_state_penalty>  (1) 
0.19386197395760935

>  <r_i_glide_einternal>  (1) 
34.736629061895002

>  <r_i_glide_emodel>  (1) 
-46.583693977912169

>  <r_i_glide_emodel_strain>  (1) 
3.00776416705272

>  <r_i_glide_energy>  (1) 
-38.664448921309344

>  <r_i_glide_erotb>  (1) 
0.94715796475939662

>  <r_i_glide_esite>  (1) 
-0.14464889973990769

>  <r_i_glide_evdw>  (1) 
-30.736935564302264

>  <r_i_glide_gscore>  (1) 
-7.1805890442319944

>  <r_i_glide_gscore_strain>  (1) 
0

>  <r_i_glide_hbond>  (1) 
-0.18443671494840083

>  <r_i_glide_ligand_efficiency>  (1) 
-0.18386123869143117

>  <r_i_glide_ligand_efficiency_ln>  (1) 
-1.5065438850383746

>  <r_i_glide_ligand_efficiency_sa>  (1) 
-0.61813696274418573

>  <r_i_glide_lipo>  (1) 
-3.499614520052575

>  <r_i_glide_metal>  (1) 
-0

>  <r_i_glide_rewards>  (1) 
-1.5730730924843321

>  <r_lp_Energy>  (1) 
44.186366999999997

>  <s_epik_cmdline>  (1) 
J2VwaWtfcHl0aG9uJywgJy1waHQnLCAnMS4wJywgJy1waCcsICc3LjQnLCAnLXRuJywgJzgnLCAnLW1hJywgJzUwMCcsICctaW1hZScsICc8aW5maWxlLm1hZT4nLCAnLW9tYWUnLCAnPG91dGZpbGUubWFlPic=

>  <s_epik_input>  (1) 
W09IXWMxW2NIXVtjSF1bY0hdYyhjMTIpc2MobjIpW0NIMl1bQ0gyXU4oQyg9TylbT0hdKVtDQEhdKFtDSDNdKVtDQEBIXShPW09IXSlbQ0gyXVtDSDJdTihbQ0BIXShDKD1PKVtPSF0pQzMoW0NIM10pW0NIMl1bQ0gyXTMpW0NIMl1bQ0gyXVtDSDJdW05IXVtDSDJdW0NIM10=

>  <s_glide_docking_method>  (1) 
confgen

>  <s_i_glide_gridfile>  (1) 
gpcr_5ht2c_6bqh_protein_autoprepared_prepared

>  <s_lp_Force_Field>  (1) 
S-OPLS

>  <s_lp_Variant>  (1) 
DiffSBDD_86-1

>  <s_m_source_file>  (1) 
generated_GPCR_5HT2C_ligand_DiffSBDD_2026-06-23_prepared.sdf

>  <GenAI_Model>  (1) 
DiffSBDD

>  <Protein>  (1) 
GPCR_5HT2C

$$$$
DiffSBDD_73
     RDKit          3D

  0  0  0  0  0  0  0  0  0  0999 V3000
M  V30 BEGIN CTAB
M  V30 COUNTS 64 65 0 0 1
M  V30 BEGIN ATOM
M  V30 1 C 39.600322 27.796032 56.898769 0 CFG=1
M  V30 2 C 38.566463 32.228031 57.291114 0
M  V30 3 N 38.059388 34.315409 61.211445 0
M  V30 4 C 37.694545 27.110731 53.617480 0
M  V30 5 C 38.124954 27.145719 54.914631 0
M  V30 6 C 38.714880 28.110977 58.093156 0
M  V30 7 C 39.169980 34.810318 62.021317 0 CFG=2
M  V30 8 N 36.845174 32.596872 58.967760 0
M  V30 9 O 37.943703 32.251863 62.167754 0
M  V30 10 C 41.781825 28.262688 58.380792 0
M  V30 11 C 36.409625 32.741455 60.374039 0 CFG=2
M  V30 12 C 39.049903 29.143832 52.638975 0
M  V30 13 C 38.009080 28.080624 52.482998 0 CFG=1
M  V30 14 C 37.545937 33.081847 61.348324 0
M  V30 15 O 38.786866 29.505104 58.367628 0
M  V30 16 C 39.931065 36.874057 63.366390 0
M  V30 17 C 38.987270 28.159887 55.583181 0
M  V30 18 C 38.673055 29.973070 53.819212 0
M  V30 19 C 37.996727 31.732929 58.632199 0 CFG=1
M  V30 20 C 41.111360 27.888665 57.070434 0 CFG=1
M  V30 21 O 38.445140 27.337761 51.367748 0
M  V30 22 C 38.904031 36.282535 62.391277 0
M  V30 23 C 37.663907 30.222185 58.534432 0
M  V30 24 O 36.531362 29.737800 58.575628 0
M  V30 25 C 35.571593 31.547600 60.837735 0
M  V30 26 C 39.233432 29.396101 55.079176 0
M  V30 27 C 40.469041 34.624289 61.227342 0
M  V30 28 C 40.452490 26.542624 56.937424 0
M  V30 29 H 39.506043 31.738440 57.041188 0
M  V30 30 H 37.866797 32.053213 56.471501 0
M  V30 31 H 38.767326 33.299577 57.325182 0
M  V30 32 H 37.680867 34.927042 60.503132 0
M  V30 33 H 37.071133 26.277398 53.328451 0
M  V30 34 H 37.807836 26.319322 55.533920 0
M  V30 35 H 37.702553 27.764952 57.880720 0
M  V30 36 H 39.059266 27.561762 58.969201 0
M  V30 37 H 39.246815 34.241732 62.950196 0
M  V30 38 H 36.073752 32.389241 58.320393 0
M  V30 39 H 41.329773 27.737838 59.222132 0
M  V30 40 H 42.838201 27.995206 58.345103 0
M  V30 41 H 41.700371 29.333999 58.565359 0
M  V30 42 H 35.731732 33.596583 60.390229 0
M  V30 43 H 40.045122 28.723716 52.721506 0
M  V30 44 H 39.067354 29.752537 51.735579 0
M  V30 45 H 37.061290 28.538300 52.198302 0
M  V30 46 H 39.646309 37.882404 63.664082 0
M  V30 47 H 40.006352 36.275779 64.274882 0
M  V30 48 H 40.924295 36.937640 62.922396 0
M  V30 49 H 37.596614 30.122247 53.915632 0
M  V30 50 H 39.105498 30.967999 53.705371 0
M  V30 51 H 38.786668 31.863764 59.370581 0
M  V30 52 H 41.645118 28.254142 56.197883 0
M  V30 53 H 37.730060 26.778620 51.090259 0
M  V30 54 H 38.867272 36.894966 61.489117 0
M  V30 55 H 37.917541 36.360678 62.850680 0
M  V30 56 H 35.047735 31.764150 61.767767 0
M  V30 57 H 34.826424 31.337763 60.076609 0
M  V30 58 H 36.170322 30.649216 60.985694 0
M  V30 59 H 39.870284 30.059692 55.643258 0
M  V30 60 H 41.341895 34.940460 61.797613 0
M  V30 61 H 40.614378 33.574806 60.968412 0
M  V30 62 H 40.445138 35.197531 60.299954 0
M  V30 63 H 40.394563 25.916115 57.825541 0
M  V30 64 H 40.620914 26.003723 56.006811 0
M  V30 END ATOM
M  V30 BEGIN BOND
M  V30 1 2 5 4
M  V30 2 1 1 6 CFG=1
M  V30 3 1 7 3
M  V30 4 1 11 8
M  V30 5 1 13 4
M  V30 6 1 13 12
M  V30 7 1 14 3
M  V30 8 2 14 9
M  V30 9 1 14 11
M  V30 10 1 15 6
M  V30 11 1 17 1
M  V30 12 1 17 5
M  V30 13 1 18 12
M  V30 14 1 19 2
M  V30 15 1 19 8
M  V30 16 1 20 1
M  V30 17 1 20 10
M  V30 18 1 21 13
M  V30 19 1 22 7
M  V30 20 1 22 16
M  V30 21 1 23 15
M  V30 22 1 23 19
M  V30 23 2 24 23
M  V30 24 1 25 11
M  V30 25 2 26 17
M  V30 26 1 26 18
M  V30 27 1 27 7
M  V30 28 1 28 1
M  V30 29 1 28 20
M  V30 30 1 29 2
M  V30 31 1 30 2
M  V30 32 1 31 2
M  V30 33 1 32 3
M  V30 34 1 33 4
M  V30 35 1 34 5
M  V30 36 1 35 6
M  V30 37 1 36 6
M  V30 38 1 7 37 CFG=1
M  V30 39 1 38 8
M  V30 40 1 39 10
M  V30 41 1 40 10
M  V30 42 1 41 10
M  V30 43 1 11 42 CFG=3
M  V30 44 1 43 12
M  V30 45 1 44 12
M  V30 46 1 13 45 CFG=3
M  V30 47 1 46 16
M  V30 48 1 47 16
M  V30 49 1 48 16
M  V30 50 1 49 18
M  V30 51 1 50 18
M  V30 52 1 19 51 CFG=1
M  V30 53 1 20 52 CFG=3
M  V30 54 1 53 21
M  V30 55 1 54 22
M  V30 56 1 55 22
M  V30 57 1 56 25
M  V30 58 1 57 25
M  V30 59 1 58 25
M  V30 60 1 59 26
M  V30 61 1 60 27
M  V30 62 1 61 27
M  V30 63 1 62 27
M  V30 64 1 63 28
M  V30 65 1 64 28
M  V30 END BOND
M  V30 END CTAB
M  END
>  <i_epik_Tot_Q>  (1) 
0

>  <i_epik_Tot_abs_Q>  (1) 
0

>  <i_i_glide_confnum>  (1) 
2058

>  <i_i_glide_lignum>  (1) 
159

>  <i_i_glide_posenum>  (1) 
393

>  <i_i_glide_rotatable_bonds>  (1) 
12

>  <i_lp_mmshare_version>  (1) 
72125

>  <i_m_source_file_index>  (1) 
74

>  <i_f3d_flags>  (1) 
0

>  <num_sample>  (1) 
100

>  <b_lp_Chiralities_Consistent>  (1) 
1

>  <r_epik_Charging_Adjusted_Penalty>  (1) 
0.088841992990236665

>  <r_epik_Ionization_Penalty>  (1) 
0.088842122646257599

>  <r_epik_Ionization_Penalty_Charging>  (1) 
0

>  <r_epik_Ionization_Penalty_Neutral>  (1) 
0.088842122646257599

>  <r_epik_State_Penalty>  (1) 
0.088841992990236665

>  <r_glide_ring_energy>  (1) 
0

>  <r_i_docking_score>  (1) 
-6.984326693871231

>  <r_i_glide_ecoul>  (1) 
-6.3992907142605588

>  <r_i_glide_eff_state_penalty>  (1) 
0.088841992990236665

>  <r_i_glide_einternal>  (1) 
7.3420341854625892

>  <r_i_glide_emodel>  (1) 
-63.548318380136514

>  <r_i_glide_emodel_strain>  (1) 
0.2252900728050804

>  <r_i_glide_energy>  (1) 
-49.050943886891282

>  <r_i_glide_erotb>  (1) 
1.2671681791471729

>  <r_i_glide_esite>  (1) 
-0.056873612316880887

>  <r_i_glide_evdw>  (1) 
-42.651653172630724

>  <r_i_glide_gscore>  (1) 
-7.073168686861468

>  <r_i_glide_gscore_strain>  (1) 
0

>  <r_i_glide_hbond>  (1) 
-0.45599999999999996

>  <r_i_glide_ligand_efficiency>  (1) 
-0.24944023906682969

>  <r_i_glide_ligand_efficiency_ln>  (1) 
-1.6121876696880058

>  <r_i_glide_ligand_efficiency_sa>  (1) 
-0.75744747909236387

>  <r_i_glide_lipo>  (1) 
-3.3806882405960805

>  <r_i_glide_metal>  (1) 
-0

>  <r_i_glide_rewards>  (1) 
-1.3542987473250596

>  <r_lp_Energy>  (1) 
22.608298999999999

>  <s_epik_Chemistry_Notes>  (1) 
This compound has an ester and may undergo hydrolysis at high or low pH.

>  <s_epik_cmdline>  (1) 
J2VwaWtfcHl0aG9uJywgJy1waHQnLCAnMS4wJywgJy1waCcsICc3LjQnLCAnLXRuJywgJzgnLCAnLW1hJywgJzUwMCcsICctaW1hZScsICc8aW5maWxlLm1hZT4nLCAnLW9tYWUnLCAnPG91dGZpbGUubWFlPic=

>  <s_epik_input>  (1) 
W09IXVtDQEhdMVtDSF09W0NIXUMoPVtDSF1bQ0gyXVtDSDJdMSlbQ0BAXTIoW0NAQEhdKFtDSDNdKVtDSDJdMilbQ0gyXU9DKD1PKVtDQEBIXShbQ0gzXSlbTkhdW0NASF0oW0NIM10pQyg9TylbTkhdW0NAQEhdKFtDSDNdKVtDSDJdW0NIM10=

>  <s_glide_docking_method>  (1) 
confgen

>  <s_i_glide_gridfile>  (1) 
gpcr_5ht2c_6bqh_protein_autoprepared_prepared

>  <s_lp_Force_Field>  (1) 
S-OPLS

>  <s_lp_Variant>  (1) 
DiffSBDD_73-2

>  <s_m_source_file>  (1) 
generated_GPCR_5HT2C_ligand_DiffSBDD_2026-06-23_prepared.sdf

>  <GenAI_Model>  (1) 
DiffSBDD

>  <Protein>  (1) 
GPCR_5HT2C

$$$$
DiffSBDD_13
     RDKit          3D

  0  0  0  0  0  0  0  0  0  0999 V3000
M  V30 BEGIN CTAB
M  V30 COUNTS 53 55 0 0 1
M  V30 BEGIN ATOM
M  V30 1 C 41.133091 35.980063 62.309270 0
M  V30 2 C 39.975386 31.804977 62.082678 0
M  V30 3 C 41.025044 32.200320 62.937084 0
M  V30 4 C 39.678828 34.124486 61.375930 0
M  V30 5 F 40.062780 36.761859 62.452011 0
M  V30 6 C 39.356612 26.658997 56.109724 0
M  V30 7 C 38.210206 28.952462 58.274156 0
M  V30 8 O 37.638519 29.876953 58.848012 0
M  V30 9 N 38.043226 28.729685 56.938217 0
M  V30 10 C 39.244472 26.693987 58.520032 0
M  V30 11 C 40.153769 26.403212 57.356154 0
M  V30 12 C 39.569939 30.344369 61.999290 0
M  V30 13 C 39.302285 32.769102 61.302393 0
M  V30 14 C 41.400631 33.556388 63.012069 0
M  V30 15 C 37.274033 30.708688 54.806927 0
M  V30 16 C 38.376302 29.897175 54.103700 0
M  V30 17 C 39.701601 30.670529 54.080354 0
M  V30 18 C 39.985336 29.727477 60.676603 0 CFG=1
M  V30 19 C 40.727988 34.520324 62.231232 0
M  V30 20 C 39.036147 28.144639 56.015073 0 CFG=2
M  V30 21 C 40.914688 28.537218 60.605685 0
M  V30 22 C 39.450910 28.358562 60.292845 0 CFG=2
M  V30 23 N 39.056452 28.096462 58.934382 0
M  V30 24 C 38.529718 28.426848 54.573311 0
M  V30 25 H 41.794162 36.177030 63.154261 0
M  V30 26 H 41.641057 36.280328 61.393086 0
M  V30 27 H 41.541976 31.464031 63.534931 0
M  V30 28 H 39.162743 34.861294 60.776566 0
M  V30 29 H 38.449179 26.053695 56.075839 0
M  V30 30 H 39.964926 26.346896 55.259638 0
M  V30 31 H 37.336371 29.294602 56.488418 0
M  V30 32 H 39.646169 26.141866 59.367743 0
M  V30 33 H 38.264827 26.235611 58.367750 0
M  V30 34 H 40.444821 25.352566 57.374873 0
M  V30 35 H 41.072349 26.990731 57.401336 0
M  V30 36 H 39.988282 29.771606 62.827980 0
M  V30 37 H 38.485277 30.280565 62.094565 0
M  V30 38 H 38.498307 32.467302 60.645617 0
M  V30 39 H 42.205231 33.856608 63.667675 0
M  V30 40 H 37.576002 31.035566 55.801667 0
M  V30 41 H 37.040284 31.614879 54.248508 0
M  V30 42 H 36.351692 30.139461 54.906973 0
M  V30 43 H 38.056500 29.808557 53.065280 0
M  V30 44 H 40.096445 30.826731 55.084109 0
M  V30 45 H 40.451229 30.142010 53.494176 0
M  V30 46 H 39.566313 31.652782 53.626272 0
M  V30 47 H 40.044153 30.441799 59.859339 0
M  V30 48 H 39.967370 28.698991 56.142854 0
M  V30 49 H 41.614389 28.492109 59.772998 0
M  V30 50 H 41.284616 28.131487 61.544394 0
M  V30 51 H 38.853274 27.866927 61.057077 0
M  V30 52 H 39.203535 27.943603 53.863848 0
M  V30 53 H 37.572075 27.921209 54.434742 0
M  V30 END ATOM
M  V30 BEGIN BOND
M  V30 1 2 3 2
M  V30 2 1 5 1
M  V30 3 2 8 7
M  V30 4 1 9 7
M  V30 5 1 11 6
M  V30 6 1 11 10
M  V30 7 1 12 2
M  V30 8 1 13 2
M  V30 9 2 13 4
M  V30 10 1 14 3
M  V30 11 1 16 15
M  V30 12 1 17 16
M  V30 13 1 18 12
M  V30 14 1 19 1
M  V30 15 1 19 4
M  V30 16 2 19 14
M  V30 17 1 20 6
M  V30 18 1 20 9
M  V30 19 1 21 18
M  V30 20 1 22 18
M  V30 21 1 22 21
M  V30 22 1 23 7
M  V30 23 1 23 10
M  V30 24 1 23 22
M  V30 25 1 24 16
M  V30 26 1 24 20
M  V30 27 1 25 1
M  V30 28 1 26 1
M  V30 29 1 27 3
M  V30 30 1 28 4
M  V30 31 1 29 6
M  V30 32 1 30 6
M  V30 33 1 31 9
M  V30 34 1 32 10
M  V30 35 1 33 10
M  V30 36 1 34 11
M  V30 37 1 35 11
M  V30 38 1 36 12
M  V30 39 1 37 12
M  V30 40 1 38 13
M  V30 41 1 39 14
M  V30 42 1 40 15
M  V30 43 1 41 15
M  V30 44 1 42 15
M  V30 45 1 43 16
M  V30 46 1 44 17
M  V30 47 1 45 17
M  V30 48 1 46 17
M  V30 49 1 18 47 CFG=3
M  V30 50 1 20 48 CFG=3
M  V30 51 1 49 21
M  V30 52 1 50 21
M  V30 53 1 22 51 CFG=1
M  V30 54 1 52 24
M  V30 55 1 53 24
M  V30 END BOND
M  V30 END CTAB
M  END
>  <i_epik_Tot_Q>  (1) 
0

>  <i_epik_Tot_abs_Q>  (1) 
0

>  <i_i_glide_confnum>  (1) 
7

>  <i_i_glide_lignum>  (1) 
22

>  <i_i_glide_posenum>  (1) 
343

>  <i_i_glide_rotatable_bonds>  (1) 
6

>  <i_lp_mmshare_version>  (1) 
72125

>  <i_m_source_file_index>  (1) 
14

>  <i_f3d_flags>  (1) 
0

>  <num_sample>  (1) 
100

>  <b_lp_Chiralities_Consistent>  (1) 
1

>  <r_epik_Charging_Adjusted_Penalty>  (1) 
0

>  <r_epik_Ionization_Penalty>  (1) 
3.0121457711640309e-05

>  <r_epik_Ionization_Penalty_Charging>  (1) 
0

>  <r_epik_Ionization_Penalty_Neutral>  (1) 
3.0121457711640309e-05

>  <r_epik_State_Penalty>  (1) 
-0

>  <r_glide_ring_energy>  (1) 
0

>  <r_i_docking_score>  (1) 
-6.9842198393400281

>  <r_i_glide_ecoul>  (1) 
-0.64742674501612618

>  <r_i_glide_eff_state_penalty>  (1) 
-0

>  <r_i_glide_einternal>  (1) 
5.197737497615492

>  <r_i_glide_emodel>  (1) 
-47.477270251020705

>  <r_i_glide_emodel_strain>  (1) 
0.041470629101127088

>  <r_i_glide_energy>  (1) 
-37.355863286628207

>  <r_i_glide_erotb>  (1) 
0.68159817047081894

>  <r_i_glide_esite>  (1) 
-0.0011571350428517088

>  <r_i_glide_evdw>  (1) 
-36.70843654161208

>  <r_i_glide_gscore>  (1) 
-6.9842198393400281

>  <r_i_glide_gscore_strain>  (1) 
0

>  <r_i_glide_hbond>  (1) 
0

>  <r_i_glide_ligand_efficiency>  (1) 
-0.29100915997250115

>  <r_i_glide_ligand_efficiency_ln>  (1) 
-1.6716442925194162

>  <r_i_glide_ligand_efficiency_sa>  (1) 
-0.83941567185171939

>  <r_i_glide_lipo>  (1) 
-3.5516791828913639

>  <r_i_glide_metal>  (1) 
-0

>  <r_i_glide_rewards>  (1) 
-2.1804458530436075

>  <r_lp_Energy>  (1) 
33.445327999999996

>  <r_lp_tautomer_probability>  (1) 
1

>  <s_epik_cmdline>  (1) 
J2VwaWtfcHl0aG9uJywgJy1waHQnLCAnMS4wJywgJy1waCcsICc3LjQnLCAnLXRuJywgJzgnLCAnLW1hJywgJzUwMCcsICctaW1hZScsICc8aW5maWxlLm1hZT4nLCAnLW9tYWUnLCAnPG91dGZpbGUubWFlPic=

>  <s_epik_input>  (1) 
RltDSDJdYyhbY0hdW2NIXTEpW2NIXVtjSF1jMVtDSDJdW0NASF0yW0NIMl1bQ0BASF0yTjNbQ0gyXVtDSDJdW0NIMl1bQ0BIXShbTkhdQzM9TylbQ0gyXVtDSF0oW0NIM10pW0NIM10=

>  <s_glide_docking_method>  (1) 
confgen

>  <s_i_glide_gridfile>  (1) 
gpcr_5ht2c_6bqh_protein_autoprepared_prepared

>  <s_lp_Force_Field>  (1) 
S-OPLS

>  <s_lp_Variant>  (1) 
DiffSBDD_13-1

>  <s_m_source_file>  (1) 
generated_GPCR_5HT2C_ligand_DiffSBDD_2026-06-23_prepared.sdf

>  <GenAI_Model>  (1) 
DiffSBDD

>  <Protein>  (1) 
GPCR_5HT2C

$$$$
DiffSBDD_89
     RDKit          3D

  0  0  0  0  0  0  0  0  0  0999 V3000
M  V30 BEGIN CTAB
M  V30 COUNTS 60 62 0 0 1
M  V30 BEGIN ATOM
M  V30 1 C 38.350258 29.016190 54.439017 0
M  V30 2 O 41.645138 31.258694 62.177751 0 CHG=-1
M  V30 3 C 41.470272 27.621224 57.029235 0
M  V30 4 C 39.488124 29.447249 61.564822 0
M  V30 5 C 37.976697 27.572776 54.749085 0 CFG=2
M  V30 6 O 41.444354 28.848409 58.967520 0
M  V30 7 C 37.911750 32.240134 59.449767 0
M  V30 8 O 40.275533 32.405796 63.507941 0
M  V30 9 C 38.276300 31.477554 60.572181 0
M  V30 10 C 40.048853 29.783932 49.621032 0
M  V30 11 C 40.044785 28.623709 51.887273 0
M  V30 12 C 40.062697 28.590637 58.750403 0 CFG=1
M  V30 13 C 39.649586 30.188746 62.916500 0
M  V30 14 C 40.605939 31.387410 62.861954 0
M  V30 15 O 37.055682 28.137770 52.567810 0
M  V30 16 C 38.358989 25.176000 55.336502 0
M  V30 17 C 37.964650 32.585951 56.934921 0
M  V30 18 N 38.849666 30.573112 57.954743 0
M  V30 19 C 39.245337 29.860698 59.037895 0
M  V30 20 C 39.455215 28.666859 50.488154 0
M  V30 21 C 40.037670 28.062840 57.295372 0 CFG=2
M  V30 22 C 38.885812 26.609142 55.498823 0 CFG=2
M  V30 23 C 39.005385 26.960357 57.004353 0
M  V30 24 C 42.208634 27.839935 58.336033 0
M  V30 25 C 38.225247 28.012666 53.325967 0 CFG=1
M  V30 26 C 38.984259 30.272928 60.370717 0
M  V30 27 C 38.245824 31.758709 58.168650 0
M  V30 28 O 39.429470 27.609744 52.682885 0
M  V30 29 H 39.356941 29.373005 54.630060 0
M  V30 30 H 37.567320 29.764165 54.547193 0
M  V30 31 H 41.555554 26.592554 56.681866 0
M  V30 32 H 41.895649 28.272824 56.268741 0
M  V30 33 H 38.845182 28.582139 61.697602 0
M  V30 34 H 40.466294 29.032566 61.320706 0
M  V30 35 H 36.929930 27.386364 54.967781 0
M  V30 36 H 37.409707 33.189003 59.568404 0
M  V30 37 H 38.050910 31.829165 61.567355 0
M  V30 38 H 39.650765 29.726860 48.608332 0
M  V30 39 H 39.786433 30.765435 50.019190 0
M  V30 40 H 41.136582 29.737751 49.556427 0
M  V30 41 H 39.985862 29.602373 52.363799 0
M  V30 42 H 41.101614 28.392715 51.767756 0
M  V30 43 H 39.756002 27.786821 59.421699 0
M  V30 44 H 38.681401 30.513125 63.298897 0
M  V30 45 H 40.045138 29.496648 63.658772 0
M  V30 46 H 36.850903 27.285280 52.202383 0
M  V30 47 H 37.434911 25.025832 55.896298 0
M  V30 48 H 38.142206 24.951168 54.293500 0
M  V30 49 H 39.089646 24.452263 55.696787 0
M  V30 50 H 37.227650 33.360318 57.134913 0
M  V30 51 H 38.882668 33.074480 56.607389 0
M  V30 52 H 37.615471 31.959611 56.114970 0
M  V30 53 H 39.591056 27.690301 50.032656 0
M  V30 54 H 38.389243 28.820195 50.567664 0
M  V30 55 H 39.879356 28.883680 56.610047 0
M  V30 56 H 39.871746 26.648421 55.035437 0
M  V30 57 H 38.028128 27.261507 57.385599 0
M  V30 58 H 39.286993 26.073757 57.574958 0
M  V30 59 H 42.216589 26.938231 58.946107 0
M  V30 60 H 43.241405 28.150901 58.175471 0
M  V30 END ATOM
M  V30 BEGIN BOND
M  V30 1 1 5 1
M  V30 2 2 9 7
M  V30 3 1 12 6
M  V30 4 1 13 4
M  V30 5 1 14 2
M  V30 6 2 14 8
M  V30 7 1 14 13
M  V30 8 1 19 12
M  V30 9 1 19 18
M  V30 10 1 20 10
M  V30 11 1 20 11
M  V30 12 1 21 3
M  V30 13 1 21 12
M  V30 14 1 22 5
M  V30 15 1 22 16
M  V30 16 1 23 21
M  V30 17 1 23 22
M  V30 18 1 24 3
M  V30 19 1 24 6
M  V30 20 1 25 1
M  V30 21 1 25 5
M  V30 22 1 25 15 CFG=3
M  V30 23 1 26 4
M  V30 24 1 26 9
M  V30 25 2 26 19
M  V30 26 1 27 7
M  V30 27 1 27 17
M  V30 28 2 27 18
M  V30 29 1 28 11
M  V30 30 1 28 25
M  V30 31 1 29 1
M  V30 32 1 30 1
M  V30 33 1 31 3
M  V30 34 1 32 3
M  V30 35 1 33 4
M  V30 36 1 34 4
M  V30 37 1 5 35 CFG=3
M  V30 38 1 36 7
M  V30 39 1 37 9
M  V30 40 1 38 10
M  V30 41 1 39 10
M  V30 42 1 40 10
M  V30 43 1 41 11
M  V30 44 1 42 11
M  V30 45 1 12 43 CFG=1
M  V30 46 1 44 13
M  V30 47 1 45 13
M  V30 48 1 46 15
M  V30 49 1 47 16
M  V30 50 1 48 16
M  V30 51 1 49 16
M  V30 52 1 50 17
M  V30 53 1 51 17
M  V30 54 1 52 17
M  V30 55 1 53 20
M  V30 56 1 54 20
M  V30 57 1 21 55 CFG=3
M  V30 58 1 22 56 CFG=3
M  V30 59 1 57 23
M  V30 60 1 58 23
M  V30 61 1 59 24
M  V30 62 1 60 24
M  V30 END BOND
M  V30 END CTAB
M  END
>  <i_epik_Tot_Q>  (1) 
-1

>  <i_epik_Tot_abs_Q>  (1) 
1

>  <i_i_glide_confnum>  (1) 
1230

>  <i_i_glide_lignum>  (1) 
209

>  <i_i_glide_posenum>  (1) 
53

>  <i_i_glide_rotatable_bonds>  (1) 
11

>  <i_lp_mmshare_version>  (1) 
72125

>  <i_m_source_file_index>  (1) 
90

>  <i_f3d_flags>  (1) 
0

>  <num_sample>  (1) 
100

>  <b_lp_Chiralities_Consistent>  (1) 
1

>  <r_epik_Charging_Adjusted_Penalty>  (1) 
0.038997202990306332

>  <r_epik_Ionization_Penalty>  (1) 
0.038997322870567536

>  <r_epik_Ionization_Penalty_Charging>  (1) 
0.00068578103088963352

>  <r_epik_Ionization_Penalty_Neutral>  (1) 
0.038311541839677901

>  <r_epik_State_Penalty>  (1) 
0.038311421959416697

>  <r_glide_ring_energy>  (1) 
0

>  <r_i_docking_score>  (1) 
-6.9794659131668517

>  <r_i_glide_ecoul>  (1) 
-7.2224654525309733

>  <r_i_glide_eff_state_penalty>  (1) 
0.038311421959416697

>  <r_i_glide_einternal>  (1) 
10.350604519807284

>  <r_i_glide_emodel>  (1) 
-52.760656743881427

>  <r_i_glide_emodel_strain>  (1) 
0.4662116104584868

>  <r_i_glide_energy>  (1) 
-40.153958743975991

>  <r_i_glide_erotb>  (1) 
1.0232646033352888

>  <r_i_glide_esite>  (1) 
0

>  <r_i_glide_evdw>  (1) 
-32.931493291445015

>  <r_i_glide_gscore>  (1) 
-7.0177773351262687

>  <r_i_glide_gscore_strain>  (1) 
0

>  <r_i_glide_hbond>  (1) 
-0.41855758463191384

>  <r_i_glide_ligand_efficiency>  (1) 
-0.249266639755959

>  <r_i_glide_ligand_efficiency_ln>  (1) 
-1.6110656587827121

>  <r_i_glide_ligand_efficiency_sa>  (1) 
-0.75692032933944875

>  <r_i_glide_lipo>  (1) 
-3.0614623693895422

>  <r_i_glide_metal>  (1) 
-0

>  <r_i_glide_rewards>  (1) 
-1.8310775019882044

>  <r_lp_Energy>  (1) 
22.324921

>  <s_epik_cmdline>  (1) 
J2VwaWtfcHl0aG9uJywgJy1waHQnLCAnMS4wJywgJy1waCcsICc3LjQnLCAnLXRuJywgJzgnLCAnLW1hJywgJzUwMCcsICctaW1hZScsICc8aW5maWxlLm1hZT4nLCAnLW9tYWUnLCAnPG91dGZpbGUubWFlPic=

>  <s_epik_input>  (1) 
W0NIM11bQ0gyXVtDSDJdT0MxKFtPSF0pW0NIMl1bQ0BASF0xW0NASF0oW0NIM10pW0NIMl1bQ0BASF0yW0NIMl1bQ0gyXU9bQ0BIXTJjM25jKFtDSDNdKVtjSF1bY0hdYzNbQ0gyXVtDSDJdQyg9TylbT0hd

>  <s_glide_docking_method>  (1) 
confgen

>  <s_i_glide_gridfile>  (1) 
gpcr_5ht2c_6bqh_protein_autoprepared_prepared

>  <s_lp_Force_Field>  (1) 
S-OPLS

>  <s_lp_Variant>  (1) 
DiffSBDD_89-1

>  <s_m_source_file>  (1) 
generated_GPCR_5HT2C_ligand_DiffSBDD_2026-06-23_prepared.sdf

>  <GenAI_Model>  (1) 
DiffSBDD

>  <Protein>  (1) 
GPCR_5HT2C

$$$$
DiffSBDD_77
     RDKit          3D

  0  0  0  0  0  0  0  0  0  0999 V3000
M  V30 BEGIN CTAB
M  V30 COUNTS 71 74 0 0 1
M  V30 BEGIN ATOM
M  V30 1 C 37.810641 29.951706 59.462028 0 CFG=1
M  V30 2 S 38.445097 32.090621 55.324243 0
M  V30 3 C 39.247457 39.151694 61.340323 0
M  V30 4 C 38.442352 30.718825 58.248462 0 CFG=2
M  V30 5 C 40.185523 28.882680 61.857406 0
M  V30 6 C 38.833742 30.364641 55.750262 0 CFG=2
M  V30 7 C 39.185225 30.004908 53.252657 0 CFG=2
M  V30 8 C 38.310702 33.122445 59.297575 0
M  V30 9 C 38.893950 32.876013 56.871059 0
M  V30 10 C 39.128637 27.983169 54.788998 0
M  V30 11 C 38.964226 35.354061 61.982559 0
M  V30 12 C 37.470876 37.408588 60.753236 0
M  V30 13 C 38.890388 27.040680 53.595563 0
M  V30 14 F 39.706390 26.002587 53.767695 0
M  V30 15 C 39.136205 27.708254 52.252114 0
M  V30 16 C 37.002256 33.199175 60.118480 0 CFG=1
M  V30 17 C 38.705211 37.710286 61.367766 0
M  V30 18 C 39.773560 34.241223 62.637489 0
M  V30 19 O 40.445137 30.583534 53.454263 0
M  V30 20 C 36.405771 31.833469 60.448110 0
M  V30 21 C 38.597761 29.414819 54.551069 0 CFG=1
M  V30 22 C 39.268999 29.029107 52.107313 0
M  V30 23 F 39.244571 26.937757 51.161794 0
M  V30 24 O 40.965507 28.937593 59.585100 0
M  V30 25 C 38.143414 32.246855 58.056200 0 CFG=1
M  V30 26 C 38.587851 28.646192 59.811404 0
M  V30 27 C 38.014616 29.966061 56.975616 0
M  V30 28 O 38.297769 40.137718 60.967754 0
M  V30 29 C 37.732531 35.062928 61.367742 0
M  V30 30 O 40.652912 36.937747 62.567767 0
M  V30 31 C 36.988495 36.090027 60.751994 0
M  V30 32 F 37.633747 26.598216 53.648991 0
M  V30 33 O 37.262967 33.780419 61.376165 0
M  V30 34 C 37.493247 30.786855 60.717065 0
M  V30 35 C 40.006907 28.835437 60.345062 0
M  V30 36 C 39.454144 36.671133 61.983195 0
M  V30 37 H 36.833345 29.600040 59.126849 0
M  V30 38 H 39.729861 39.348305 62.285880 0
M  V30 39 H 40.050388 39.337743 60.626035 0
M  V30 40 H 39.519298 30.614029 58.325689 0
M  V30 41 H 39.919208 29.863797 62.248224 0
M  V30 42 H 38.045211 28.053315 60.541980 0
M  V30 43 H 39.556204 28.136436 62.340121 0
M  V30 44 H 39.892196 30.326156 56.013370 0
M  V30 45 H 38.541370 30.818551 52.967762 0
M  V30 46 H 38.564708 34.137734 59.000563 0
M  V30 47 H 39.163911 32.788282 59.887497 0
M  V30 48 H 39.975127 32.850317 56.984507 0
M  V30 49 H 38.600083 33.918780 56.758203 0
M  V30 50 H 40.189749 28.035031 55.017879 0
M  V30 51 H 38.674450 27.521112 55.662773 0
M  V30 52 H 36.897180 38.186267 60.275573 0
M  V30 53 H 36.247090 33.772404 59.579693 0
M  V30 54 H 39.208730 33.315766 62.746762 0
M  V30 55 H 40.657878 34.023284 62.038327 0
M  V30 56 H 40.100838 34.540006 63.632686 0
M  V30 57 H 40.315120 31.431646 53.856589 0
M  V30 58 H 35.747190 31.926738 61.312701 0
M  V30 59 H 35.756345 31.509840 59.632543 0
M  V30 60 H 37.519550 29.331256 54.402400 0
M  V30 61 H 39.451582 29.445069 51.126919 0
M  V30 62 H 41.222054 28.674997 62.123028 0
M  V30 63 H 37.111526 32.362995 57.783048 0
M  V30 64 H 38.659530 28.000648 58.938472 0
M  V30 65 H 38.110273 28.899757 57.144393 0
M  V30 66 H 36.953715 30.131458 56.778082 0
M  V30 67 H 37.508528 40.015570 61.475630 0
M  V30 68 H 41.008503 36.219128 63.066758 0
M  V30 69 H 36.045195 35.865072 60.278514 0
M  V30 70 H 38.384689 31.219725 61.167894 0
M  V30 71 H 37.106724 30.137757 61.486188 0
M  V30 END ATOM
M  V30 BEGIN BOND
M  V30 1 1 4 1
M  V30 2 1 6 2
M  V30 3 1 9 2
M  V30 4 1 13 10
M  V30 5 1 14 13
M  V30 6 1 15 13
M  V30 7 1 16 8
M  V30 8 1 17 3
M  V30 9 1 17 12
M  V30 10 1 18 11
M  V30 11 1 19 7
M  V30 12 1 20 16
M  V30 13 1 21 6
M  V30 14 1 21 7
M  V30 15 1 21 10
M  V30 16 1 22 7
M  V30 17 2 22 15
M  V30 18 1 23 15
M  V30 19 1 25 4
M  V30 20 1 25 8
M  V30 21 1 25 9
M  V30 22 1 26 1
M  V30 23 1 27 4
M  V30 24 1 27 6
M  V30 25 1 28 3
M  V30 26 2 29 11
M  V30 27 2 31 12
M  V30 28 1 31 29
M  V30 29 1 32 13
M  V30 30 1 33 16
M  V30 31 1 33 29
M  V30 32 1 34 1
M  V30 33 1 34 20
M  V30 34 1 35 5
M  V30 35 2 35 24
M  V30 36 1 35 26
M  V30 37 1 36 11
M  V30 38 2 36 17
M  V30 39 1 36 30
M  V30 40 1 1 37 CFG=3
M  V30 41 1 38 3
M  V30 42 1 39 3
M  V30 43 1 4 40 CFG=1
M  V30 44 1 41 5
M  V30 45 1 42 26
M  V30 46 1 43 5
M  V30 47 1 6 44 CFG=1
M  V30 48 1 7 45 CFG=3
M  V30 49 1 46 8
M  V30 50 1 47 8
M  V30 51 1 48 9
M  V30 52 1 49 9
M  V30 53 1 50 10
M  V30 54 1 51 10
M  V30 55 1 52 12
M  V30 56 1 16 53 CFG=3
M  V30 57 1 54 18
M  V30 58 1 55 18
M  V30 59 1 56 18
M  V30 60 1 57 19
M  V30 61 1 58 20
M  V30 62 1 59 20
M  V30 63 1 21 60 CFG=3
M  V30 64 1 61 22
M  V30 65 1 62 5
M  V30 66 1 25 63 CFG=3
M  V30 67 1 64 26
M  V30 68 1 65 27
M  V30 69 1 66 27
M  V30 70 1 67 28
M  V30 71 1 68 30
M  V30 72 1 69 31
M  V30 73 1 70 34
M  V30 74 1 71 34
M  V30 END BOND
M  V30 END CTAB
M  END
>  <i_epik_Tot_Q>  (1) 
0

>  <i_epik_Tot_abs_Q>  (1) 
0

>  <i_i_glide_confnum>  (1) 
36

>  <i_i_glide_lignum>  (1) 
178

>  <i_i_glide_posenum>  (1) 
256

>  <i_i_glide_rotatable_bonds>  (1) 
9

>  <i_lp_mmshare_version>  (1) 
72125

>  <i_m_source_file_index>  (1) 
78

>  <i_f3d_flags>  (1) 
0

>  <num_sample>  (1) 
100

>  <b_lp_Chiralities_Consistent>  (1) 
1

>  <r_epik_Charging_Adjusted_Penalty>  (1) 
0

>  <r_epik_Ionization_Penalty>  (1) 
0.0013117502669173318

>  <r_epik_Ionization_Penalty_Charging>  (1) 
0

>  <r_epik_Ionization_Penalty_Neutral>  (1) 
0.0013117502669173318

>  <r_epik_State_Penalty>  (1) 
-0

>  <r_glide_ring_energy>  (1) 
0

>  <r_i_docking_score>  (1) 
-6.9771068968929999

>  <r_i_glide_ecoul>  (1) 
-1.6474053354274003

>  <r_i_glide_eff_state_penalty>  (1) 
-0

>  <r_i_glide_einternal>  (1) 
5.4397504534248959

>  <r_i_glide_emodel>  (1) 
-38.9652339701938

>  <r_i_glide_emodel_strain>  (1) 
0.20400928212458069

>  <r_i_glide_energy>  (1) 
-34.566204057752145

>  <r_i_glide_erotb>  (1) 
0.36862077086586142

>  <r_i_glide_esite>  (1) 
0

>  <r_i_glide_evdw>  (1) 
-32.918798722324745

>  <r_i_glide_gscore>  (1) 
-6.9771068968929999

>  <r_i_glide_gscore_strain>  (1) 
0

>  <r_i_glide_hbond>  (1) 
-0.22965505376504514

>  <r_i_glide_ligand_efficiency>  (1) 
-0.19380852491369444

>  <r_i_glide_ligand_efficiency_ln>  (1) 
-1.5222162252575167

>  <r_i_glide_ligand_efficiency_sa>  (1) 
-0.63994164948060095

>  <r_i_glide_lipo>  (1) 
-3.0663035006731771

>  <r_i_glide_metal>  (1) 
-0

>  <r_i_glide_rewards>  (1) 
-2.1567183768902916

>  <r_lp_Energy>  (1) 
44.297061999999997

>  <r_lp_tautomer_probability>  (1) 
1

>  <s_epik_cmdline>  (1) 
J2VwaWtfcHl0aG9uJywgJy1waHQnLCAnMS4wJywgJy1waCcsICc3LjQnLCAnLXRuJywgJzgnLCAnLW1hJywgJzUwMCcsICctaW1hZScsICc8aW5maWxlLm1hZT4nLCAnLW9tYWUnLCAnPG91dGZpbGUubWFlPic=

>  <s_epik_input>  (1) 
W09IXVtDSDJdYyhjMVtPSF0pW2NIXVtjSF1jKGMxW0NIM10pT1tDQEhdKFtDSDJdW0NIMl1bQ0BASF0yL1tDSF09QygvW0NIM10pW09IXSlbQ0gyXVtDQEhdKFtDQEBIXTIzKVtDSDJdU1tDQEBIXShbQ0gyXTMpW0NASF0oW0NIMl1DNChGKUYpW0NAQEhdKFtPSF0pW0NIXT1DNEY=

>  <s_glide_docking_method>  (1) 
confgen

>  <s_i_glide_gridfile>  (1) 
gpcr_5ht2c_6bqh_protein_autoprepared_prepared

>  <s_lp_Force_Field>  (1) 
S-OPLS

>  <s_lp_Variant>  (1) 
DiffSBDD_77-1

>  <s_m_source_file>  (1) 
generated_GPCR_5HT2C_ligand_DiffSBDD_2026-06-23_prepared.sdf

>  <GenAI_Model>  (1) 
DiffSBDD

>  <Protein>  (1) 
GPCR_5HT2C

$$$$
DiffSBDD_53
     RDKit          3D

  0  0  0  0  0  0  0  0  0  0999 V3000
M  V30 BEGIN CTAB
M  V30 COUNTS 82 86 0 0 1
M  V30 BEGIN ATOM
M  V30 1 C 39.813139 27.518279 57.927588 0
M  V30 2 C 36.882916 32.923584 61.531472 0
M  V30 3 C 41.025671 33.244451 64.989732 0
M  V30 4 C 39.286632 27.382026 59.353141 0
M  V30 5 C 40.100071 33.629582 61.977523 0
M  V30 6 C 39.516562 30.040546 53.011220 0
M  V30 7 C 38.205182 25.911503 54.382890 0
M  V30 8 N 38.726705 27.950750 57.020707 0 CHG=1
M  V30 9 N 40.445137 36.457364 66.162779 0 CHG=1
M  V30 10 C 36.862555 33.822123 58.743434 0
M  V30 11 C 39.119252 28.150547 55.607957 0 CFG=1
M  V30 12 N 38.863692 28.672547 59.855150 0
M  V30 13 C 40.075067 32.512956 62.730293 0
M  V30 14 C 39.235467 33.702291 60.734115 0
M  V30 15 C 39.287602 26.824357 54.894420 0 CFG=1
M  V30 16 C 38.705180 31.308188 61.117598 0 CFG=1
M  V30 17 C 38.063197 28.979828 54.873967 0 CFG=2
M  V30 18 C 41.481724 35.413152 66.074445 0
M  V30 19 O 40.445137 26.137745 55.264672 0
M  V30 20 C 39.935221 29.501774 60.344715 0
M  V30 21 C 36.115711 34.195350 61.141781 0
M  V30 22 C 35.677110 34.131466 59.669559 0
M  V30 23 C 38.112997 32.648015 60.637409 0
M  V30 24 O 39.643936 30.850872 60.195804 0
M  V30 25 C 37.603690 32.538613 59.175478 0
M  V30 26 C 38.345366 29.093173 53.362950 0 CFG=2
M  V30 27 O 37.937187 30.246403 55.485893 0
M  V30 28 C 41.461999 35.185795 63.507770 0
M  V30 29 N 38.375453 27.749707 52.694974 0 CFG=1 CHG=1
M  V30 30 O 39.274213 31.440322 62.391654 0
M  V30 31 C 38.720668 27.776004 51.254675 0
M  V30 32 C 39.108330 26.669510 53.407214 0 CFG=2
M  V30 33 C 40.951120 34.794644 62.295966 0
M  V30 34 C 40.923822 32.236282 63.910913 0
M  V30 35 C 41.300957 34.550206 64.830934 0
M  V30 36 H 40.192194 26.540181 57.641227 0
M  V30 37 H 40.653130 28.211318 57.869152 0
M  V30 38 H 36.185658 32.087516 61.457217 0
M  V30 39 H 37.189724 32.937755 62.567763 0
M  V30 40 H 40.929473 32.854551 65.992809 0
M  V30 41 H 38.445123 26.691510 59.367769 0
M  V30 42 H 40.045134 26.964437 60.009839 0
M  V30 43 H 39.314443 31.053243 53.361775 0
M  V30 44 H 40.445137 29.737756 53.476431 0
M  V30 45 H 39.685264 30.131587 51.938784 0
M  V30 46 H 38.361449 24.848191 54.562580 0
M  V30 47 H 37.171962 26.234819 54.486459 0
M  V30 48 H 38.397550 28.843643 57.370202 0
M  V30 49 H 40.487471 36.901703 67.068974 0
M  V30 50 H 40.638155 37.152920 65.448904 0
M  V30 51 H 37.548033 34.668022 58.736120 0
M  V30 52 H 36.506363 33.737612 57.719280 0
M  V30 53 H 40.070382 28.685462 55.579094 0
M  V30 54 H 38.179162 28.527777 60.584950 0
M  V30 55 H 38.840777 34.713175 60.644383 0
M  V30 56 H 39.912864 33.578471 59.889247 0
M  V30 57 H 37.898861 30.580729 61.213309 0
M  V30 58 H 37.095051 28.497424 54.967760 0
M  V30 59 H 41.447091 34.805701 66.979677 0
M  V30 60 H 42.461760 35.891376 66.049386 0
M  V30 61 H 40.337179 25.212696 55.097068 0
M  V30 62 H 40.164672 29.262222 61.385533 0
M  V30 63 H 40.844117 29.332185 59.767607 0
M  V30 64 H 36.728526 35.079718 61.312741 0
M  V30 65 H 35.245117 34.301938 61.788561 0
M  V30 66 H 35.218119 35.072558 59.368459 0
M  V30 67 H 34.912837 33.362155 59.546763 0
M  V30 68 H 38.429070 32.349818 58.488120 0
M  V30 69 H 36.929360 31.686597 59.072525 0
M  V30 70 H 37.457591 29.558306 52.967758 0
M  V30 71 H 38.676017 30.797111 55.270199 0
M  V30 72 H 42.009672 36.118757 63.500915 0
M  V30 73 H 39.781663 27.975645 51.099127 0
M  V30 74 H 38.493448 26.816151 50.789301 0
M  V30 75 H 38.146956 28.537757 50.732960 0
M  V30 76 H 39.856694 26.137754 52.819778 0
M  V30 77 H 41.152730 35.463073 61.471034 0
M  V30 78 H 40.560367 31.316975 64.372602 0
M  V30 79 H 41.932055 32.009907 63.562220 0
M  V30 80 H 37.412594 27.439105 52.702271 0
M  V30 81 H 37.963002 27.293806 57.073118 0
M  V30 82 H 39.529401 36.056810 66.018916 0
M  V30 END ATOM
M  V30 BEGIN BOND
M  V30 1 1 4 1
M  V30 2 1 8 1
M  V30 3 1 11 8
M  V30 4 1 12 4
M  V30 5 2 13 5
M  V30 6 1 14 5
M  V30 7 1 15 7
M  V30 8 1 15 11
M  V30 9 1 17 11
M  V30 10 1 18 9
M  V30 11 1 15 19 CFG=1
M  V30 12 1 20 12
M  V30 13 1 21 2
M  V30 14 1 22 10
M  V30 15 1 22 21
M  V30 16 1 23 2
M  V30 17 1 23 14
M  V30 18 1 23 16
M  V30 19 1 24 16
M  V30 20 1 24 20
M  V30 21 1 25 10
M  V30 22 1 25 23
M  V30 23 1 26 6
M  V30 24 1 26 17
M  V30 25 1 27 17
M  V30 26 1 29 26
M  V30 27 1 30 13
M  V30 28 1 30 16
M  V30 29 1 31 29
M  V30 30 1 32 7
M  V30 31 1 32 15
M  V30 32 1 32 29
M  V30 33 1 33 5
M  V30 34 2 33 28
M  V30 35 1 34 3
M  V30 36 1 34 13
M  V30 37 2 35 3
M  V30 38 1 35 18
M  V30 39 1 35 28
M  V30 40 1 36 1
M  V30 41 1 37 1
M  V30 42 1 38 2
M  V30 43 1 39 2
M  V30 44 1 40 3
M  V30 45 1 41 4
M  V30 46 1 42 4
M  V30 47 1 43 6
M  V30 48 1 44 6
M  V30 49 1 45 6
M  V30 50 1 46 7
M  V30 51 1 47 7
M  V30 52 1 48 8
M  V30 53 1 49 9
M  V30 54 1 50 9
M  V30 55 1 51 10
M  V30 56 1 52 10
M  V30 57 1 11 53 CFG=1
M  V30 58 1 54 12
M  V30 59 1 55 14
M  V30 60 1 56 14
M  V30 61 1 16 57 CFG=1
M  V30 62 1 17 58 CFG=3
M  V30 63 1 59 18
M  V30 64 1 60 18
M  V30 65 1 61 19
M  V30 66 1 62 20
M  V30 67 1 63 20
M  V30 68 1 64 21
M  V30 69 1 65 21
M  V30 70 1 66 22
M  V30 71 1 67 22
M  V30 72 1 68 25
M  V30 73 1 69 25
M  V30 74 1 26 70 CFG=3
M  V30 75 1 71 27
M  V30 76 1 72 28
M  V30 77 1 73 31
M  V30 78 1 74 31
M  V30 79 1 75 31
M  V30 80 1 32 76 CFG=3
M  V30 81 1 77 33
M  V30 82 1 78 34
M  V30 83 1 79 34
M  V30 84 1 29 80 CFG=3
M  V30 85 1 81 8
M  V30 86 1 82 9
M  V30 END BOND
M  V30 END CTAB
M  END
>  <i_epik_Tot_Q>  (1) 
3

>  <i_epik_Tot_abs_Q>  (1) 
3

>  <i_i_glide_confnum>  (1) 
599

>  <i_i_glide_lignum>  (1) 
110

>  <i_i_glide_posenum>  (1) 
306

>  <i_i_glide_rotatable_bonds>  (1) 
10

>  <i_lp_mmshare_version>  (1) 
72125

>  <i_m_source_file_index>  (1) 
54

>  <i_f3d_flags>  (1) 
0

>  <num_sample>  (1) 
100

>  <b_lp_Chiralities_Consistent>  (1) 
1

>  <r_epik_Charging_Adjusted_Penalty>  (1) 
0.52217566130243886

>  <r_epik_Ionization_Penalty>  (1) 
0.30399825412207077

>  <r_epik_Ionization_Penalty_Charging>  (1) 
0.29355179195135561

>  <r_epik_Ionization_Penalty_Neutral>  (1) 
0.010446462170715176

>  <r_epik_State_Penalty>  (1) 
0.22862386935108323

>  <r_glide_ring_energy>  (1) 
0.00062545301478619732

>  <r_i_docking_score>  (1) 
-6.9727516852808229

>  <r_i_glide_ecoul>  (1) 
-3.5085541085632941

>  <r_i_glide_eff_state_penalty>  (1) 
0.22862386935108323

>  <r_i_glide_einternal>  (1) 
4.646992700164633

>  <r_i_glide_emodel>  (1) 
-62.585340067104049

>  <r_i_glide_emodel_strain>  (1) 
1.0005777347171687

>  <r_i_glide_energy>  (1) 
-45.580078894065728

>  <r_i_glide_erotb>  (1) 
0.58947078011706677

>  <r_i_glide_esite>  (1) 
0

>  <r_i_glide_evdw>  (1) 
-42.071524785502433

>  <r_i_glide_gscore>  (1) 
-7.2013755546319063

>  <r_i_glide_gscore_strain>  (1) 
0

>  <r_i_glide_hbond>  (1) 
0

>  <r_i_glide_ligand_efficiency>  (1) 
-0.19922147672230922

>  <r_i_glide_ligand_efficiency_ln>  (1) 
-1.5306737468049845

>  <r_i_glide_ligand_efficiency_sa>  (1) 
-0.65166666077236612

>  <r_i_glide_lipo>  (1) 
-4.3383783896197521

>  <r_i_glide_metal>  (1) 
-0

>  <r_i_glide_rewards>  (1) 
-0.82260858956960448

>  <r_lp_Energy>  (1) 
69.168939999999992

>  <s_epik_Chemistry_Notes>  (1) 
This compound contains an acetal/aminal-like group ( X-CH(R)-Y where X, Y are N, S, or O) that may be acid/base labile, releasing an aldehyde.

>  <s_epik_cmdline>  (1) 
J2VwaWtfcHl0aG9uJywgJy1waHQnLCAnMS4wJywgJy1waCcsICc3LjQnLCAnLXRuJywgJzgnLCAnLW1hJywgJzUwMCcsICctaW1hZScsICc8aW5maWxlLm1hZT4nLCAnLW9tYWUnLCAnPG91dGZpbGUubWFlPic=

>  <s_epik_input>  (1) 
W09IXVtDQEBdMTJbQ0BASF0oW0NIMl0xKU4oW0NIM10pW0NASF0oW0NIM10pW0NASF0oW09IXSlbQ0BIXTJbTkhdW0NIMl1bQ0gyXVtOSF1bQ0gyXU9bQ0BIXTNPQyhbQ0gyXVtDSF09QyhbQ0gyXVtOSDJdKVtDSF09W0NIXTQpPUM0W0NIMl1DMzVbQ0gyXVtDSDJdW0NIMl1bQ0gyXVtDSDJdNQ==

>  <s_glide_docking_method>  (1) 
confgen

>  <s_i_glide_gridfile>  (1) 
gpcr_5ht2c_6bqh_protein_autoprepared_prepared

>  <s_lp_Force_Field>  (1) 
S-OPLS

>  <s_lp_Variant>  (1) 
DiffSBDD_53-2

>  <s_m_source_file>  (1) 
generated_GPCR_5HT2C_ligand_DiffSBDD_2026-06-23_prepared.sdf

>  <GenAI_Model>  (1) 
DiffSBDD

>  <Protein>  (1) 
GPCR_5HT2C

$$$$
DiffSBDD_69
     RDKit          3D

  0  0  0  0  0  0  0  0  0  0999 V3000
M  V30 BEGIN CTAB
M  V30 COUNTS 57 57 0 0 1
M  V30 BEGIN ATOM
M  V30 1 C 38.736278 33.320829 59.627937 0
M  V30 2 N 37.744687 27.544243 54.567815 0 CHG=1
M  V30 3 C 38.123323 31.730633 57.808549 0
M  V30 4 C 38.658734 29.079105 52.836835 0 CFG=1
M  V30 5 C 38.911753 32.884512 58.398173 0
M  V30 6 C 38.414423 28.846080 54.364325 0 CFG=1
M  V30 7 C 38.688154 33.763997 60.867520 0
M  V30 8 C 40.101754 30.418350 51.105015 0
M  V30 9 C 38.236878 31.313009 55.324387 0
M  V30 10 C 37.584677 29.926360 55.121985 0
M  V30 11 C 40.863514 34.313633 62.009261 0
M  V30 12 C 37.461592 36.294597 62.197450 0 CFG=1
M  V30 13 C 38.920197 35.833865 62.402582 0
M  V30 14 C 36.984514 37.124889 63.402637 0
M  V30 15 N 37.645144 32.070220 56.450327 0 CHG=1
M  V30 16 C 36.150837 38.529505 61.554444 0
M  V30 17 C 39.662657 30.237418 52.567490 0
M  V30 18 C 39.116257 27.780624 52.119154 0
M  V30 19 S 37.245144 37.336726 60.733883 0
M  V30 20 C 35.827926 38.019165 62.962231 0
M  V30 21 C 39.584413 34.891114 61.370217 0 CFG=2
M  V30 22 H 36.834756 27.553367 54.130012 0
M  V30 23 H 38.302611 26.816316 54.143545 0
M  V30 24 H 38.751587 30.839324 57.787788 0
M  V30 25 H 37.260050 31.497635 58.435372 0
M  V30 26 H 37.702652 29.337764 52.385122 0
M  V30 27 H 39.645145 33.337749 57.752064 0
M  V30 28 H 39.384386 28.755126 54.856073 0
M  V30 29 H 38.002212 33.336687 61.584303 0
M  V30 30 H 40.674736 31.337761 50.989176 0
M  V30 31 H 40.746481 29.606407 50.768829 0
M  V30 32 H 39.245243 30.477528 50.432237 0
M  V30 33 H 38.058984 31.924061 54.440711 0
M  V30 34 H 39.317127 31.240280 55.458956 0
M  V30 35 H 37.362779 29.527597 56.113387 0
M  V30 36 H 36.612030 30.059931 54.645685 0
M  V30 37 H 41.378410 33.606072 61.364464 0
M  V30 38 H 41.569036 35.107892 62.257341 0
M  V30 39 H 40.635377 33.778462 62.931737 0
M  V30 40 H 36.797257 35.437281 62.086067 0
M  V30 41 H 38.960566 35.338006 63.367751 0
M  V30 42 H 39.555187 36.714486 62.514129 0
M  V30 43 H 36.681002 36.504952 64.242500 0
M  V30 44 H 37.805890 37.737754 63.766566 0
M  V30 45 H 36.616776 31.935006 56.501021 0
M  V30 46 H 36.663703 39.490338 61.603176 0
M  V30 47 H 35.245115 38.666149 60.967767 0
M  V30 48 H 39.245110 31.191676 52.863712 0
M  V30 49 H 40.542472 30.130441 53.196153 0
M  V30 50 H 40.045162 27.393452 52.535622 0
M  V30 51 H 38.370578 26.987265 52.172971 0
M  V30 52 H 39.267909 27.932459 51.050837 0
M  V30 53 H 35.648812 38.842043 63.654594 0
M  V30 54 H 34.911740 37.432724 62.967764 0
M  V30 55 H 39.878848 35.489950 60.506329 0
M  V30 56 H 37.645991 27.352980 55.554568 0
M  V30 57 H 37.786815 33.058191 56.299656 0
M  V30 END ATOM
M  V30 BEGIN BOND
M  V30 1 2 5 1
M  V30 2 1 5 3
M  V30 3 1 6 2
M  V30 4 1 6 4
M  V30 5 2 7 1
M  V30 6 1 10 6
M  V30 7 1 10 9
M  V30 8 1 13 12
M  V30 9 1 14 12
M  V30 10 1 15 3
M  V30 11 1 15 9
M  V30 12 1 17 4
M  V30 13 1 17 8
M  V30 14 1 18 4
M  V30 15 1 19 12
M  V30 16 1 19 16
M  V30 17 1 20 14
M  V30 18 1 20 16
M  V30 19 1 21 7
M  V30 20 1 21 11
M  V30 21 1 21 13
M  V30 22 1 22 2
M  V30 23 1 23 2
M  V30 24 1 24 3
M  V30 25 1 25 3
M  V30 26 1 4 26 CFG=3
M  V30 27 1 27 5
M  V30 28 1 6 28 CFG=1
M  V30 29 1 29 7
M  V30 30 1 30 8
M  V30 31 1 31 8
M  V30 32 1 32 8
M  V30 33 1 33 9
M  V30 34 1 34 9
M  V30 35 1 35 10
M  V30 36 1 36 10
M  V30 37 1 37 11
M  V30 38 1 38 11
M  V30 39 1 39 11
M  V30 40 1 12 40 CFG=3
M  V30 41 1 41 13
M  V30 42 1 42 13
M  V30 43 1 43 14
M  V30 44 1 44 14
M  V30 45 1 45 15
M  V30 46 1 46 16
M  V30 47 1 47 16
M  V30 48 1 48 17
M  V30 49 1 49 17
M  V30 50 1 50 18
M  V30 51 1 51 18
M  V30 52 1 52 18
M  V30 53 1 53 20
M  V30 54 1 54 20
M  V30 55 1 21 55 CFG=3
M  V30 56 1 56 2
M  V30 57 1 57 15
M  V30 END BOND
M  V30 END CTAB
M  END
>  <i_epik_Tot_Q>  (1) 
2

>  <i_epik_Tot_abs_Q>  (1) 
2

>  <i_i_glide_confnum>  (1) 
58

>  <i_i_glide_lignum>  (1) 
154

>  <i_i_glide_posenum>  (1) 
335

>  <i_i_glide_rotatable_bonds>  (1) 
10

>  <i_lp_mmshare_version>  (1) 
72125

>  <i_m_source_file_index>  (1) 
70

>  <i_f3d_flags>  (1) 
0

>  <num_sample>  (1) 
100

>  <b_lp_Chiralities_Consistent>  (1) 
1

>  <r_epik_Charging_Adjusted_Penalty>  (1) 
0.029112061252425856

>  <r_epik_Ionization_Penalty>  (1) 
0.014593894863530521

>  <r_epik_Ionization_Penalty_Charging>  (1) 
0.014593894863530521

>  <r_epik_Ionization_Penalty_Neutral>  (1) 
0

>  <r_epik_State_Penalty>  (1) 
0.014518166388895335

>  <r_glide_ring_energy>  (1) 
0

>  <r_i_docking_score>  (1) 
-6.9689658754221098

>  <r_i_glide_ecoul>  (1) 
-7.8315053658033182

>  <r_i_glide_eff_state_penalty>  (1) 
0.014518166388895335

>  <r_i_glide_einternal>  (1) 
10.337944336783528

>  <r_i_glide_emodel>  (1) 
-56.786594497665604

>  <r_i_glide_emodel_strain>  (1) 
0.66733719097091893

>  <r_i_glide_energy>  (1) 
-36.022731326731254

>  <r_i_glide_erotb>  (1) 
1.5199289784806138

>  <r_i_glide_esite>  (1) 
-0.10000000000000001

>  <r_i_glide_evdw>  (1) 
-28.191225960927937

>  <r_i_glide_gscore>  (1) 
-6.9834840418110051

>  <r_i_glide_gscore_strain>  (1) 
0

>  <r_i_glide_hbond>  (1) 
-0.124180800252808

>  <r_i_glide_ligand_efficiency>  (1) 
-0.33185551787724332

>  <r_i_glide_ligand_efficiency_ln>  (1) 
-1.7230627305766155

>  <r_i_glide_ligand_efficiency_sa>  (1) 
-0.91556421133700394

>  <r_i_glide_lipo>  (1) 
-3.5172839851731252

>  <r_i_glide_metal>  (1) 
-0

>  <r_i_glide_rewards>  (1) 
-2.1776611319487902

>  <r_lp_Energy>  (1) 
2.2558279999999997

>  <s_epik_cmdline>  (1) 
J2VwaWtfcHl0aG9uJywgJy1waHQnLCAnMS4wJywgJy1waCcsICc3LjQnLCAnLXRuJywgJzgnLCAnLW1hJywgJzUwMCcsICctaW1hZScsICc8aW5maWxlLm1hZT4nLCAnLW9tYWUnLCAnPG91dGZpbGUubWFlPic=

>  <s_epik_input>  (1) 
UzFbQ0gyXVtDSDJdW0NIMl1bQ0BASF0xW0NIMl1bQ0BIXShbQ0gzXSlbQ0hdPUM9W0NIXVtDSDJdW05IXVtDSDJdW0NIMl1bQ0BASF0oW05IMl0pW0NASF0oW0NIM10pW0NIMl1bQ0gzXQ==

>  <s_glide_docking_method>  (1) 
confgen

>  <s_i_glide_gridfile>  (1) 
gpcr_5ht2c_6bqh_protein_autoprepared_prepared

>  <s_lp_Force_Field>  (1) 
S-OPLS

>  <s_lp_Variant>  (1) 
DiffSBDD_69-2

>  <s_m_source_file>  (1) 
generated_GPCR_5HT2C_ligand_DiffSBDD_2026-06-23_prepared.sdf

>  <GenAI_Model>  (1) 
DiffSBDD

>  <Protein>  (1) 
GPCR_5HT2C

$$$$
DiffSBDD_18
     RDKit          3D

  0  0  0  0  0  0  0  0  0  0999 V3000
M  V30 BEGIN CTAB
M  V30 COUNTS 77 79 0 0 1
M  V30 BEGIN ATOM
M  V30 1 C 35.262884 31.908983 60.907455 0
M  V30 2 C 37.862886 27.844971 54.731813 0 CFG=2
M  V30 3 C 39.337912 37.388279 62.302553 0
M  V30 4 C 39.688016 36.060580 62.570910 0
M  V30 5 C 37.670846 36.635380 60.694552 0
M  V30 6 O 36.496879 24.571354 55.782705 0
M  V30 7 C 38.048367 33.203181 57.625480 0
M  V30 8 C 40.204099 27.619672 57.494339 0
M  V30 9 C 37.707250 29.256933 58.940852 0
M  V30 10 C 41.423475 34.661163 63.754962 0
M  V30 11 C 37.438571 25.195943 56.318804 0
M  V30 12 C 38.332129 37.677097 61.367840 0
M  V30 13 C 38.529019 31.635170 59.613761 0
M  V30 14 C 39.466582 28.184897 56.586959 0
M  V30 15 C 40.443944 26.149778 57.515166 0
M  V30 16 C 39.272926 32.926644 56.750941 0
M  V30 17 C 36.281694 32.912682 61.461415 0
M  V30 18 C 37.410293 30.083059 57.713892 0 CFG=2
M  V30 19 C 38.604549 26.521352 54.389259 0
M  V30 20 C 37.784355 28.749801 53.490257 0
M  V30 21 C 40.068303 25.317561 56.249501 0
M  V30 22 C 42.394791 34.554070 64.884559 0
M  V30 23 C 38.425432 28.612554 55.932149 0
M  V30 24 C 35.689207 34.600856 59.073152 0
M  V30 25 C 38.712014 25.395289 55.472562 0 CFG=1
M  V30 26 N 41.290420 33.617842 62.922039 0 CHG=1
M  V30 27 C 39.016981 34.994239 61.904918 0
M  V30 28 P 37.100438 33.912205 60.085736 0 CFG=1 CHG=1
M  V30 29 N 37.710446 29.734923 56.318771 0
M  V30 30 O 37.435298 25.669980 57.475752 0 CHG=-1
M  V30 31 C 38.552192 30.488088 58.627129 0 CFG=2
M  V30 32 C 38.002346 35.285627 60.955628 0
M  V30 33 N 38.258272 33.011302 59.092640 0 CFG=2 CHG=1
M  V30 34 N 40.734778 35.836620 63.601082 0
M  V30 35 H 34.844657 31.313921 61.717886 0
M  V30 36 H 34.445154 32.424938 60.405921 0
M  V30 37 H 35.687128 31.219580 60.180933 0
M  V30 38 H 36.846180 27.547078 54.967759 0
M  V30 39 H 39.840885 38.192700 62.818584 0
M  V30 40 H 36.897349 36.873294 59.980101 0
M  V30 41 H 37.245185 32.597299 57.251947 0
M  V30 42 H 37.760097 34.238080 57.442353 0
M  V30 43 H 40.550920 28.171703 58.353697 0
M  V30 44 H 36.994283 29.337735 59.757524 0
M  V30 45 H 38.109559 28.257280 58.829198 0
M  V30 46 H 38.064716 38.703887 61.163908 0
M  V30 47 H 37.867426 31.339807 60.412895 0
M  V30 48 H 39.503003 31.671417 60.103147 0
M  V30 49 H 41.502073 26.137353 57.768109 0
M  V30 50 H 39.916317 25.745705 58.379005 0
M  V30 51 H 39.152676 33.382634 55.767951 0
M  V30 52 H 40.165487 33.337401 57.195262 0
M  V30 53 H 39.453194 31.867470 56.581155 0
M  V30 54 H 37.020949 32.409043 62.084275 0
M  V30 55 H 35.769481 33.602353 62.133737 0
M  V30 56 H 36.445202 30.537759 57.778556 0
M  V30 57 H 38.089903 26.098156 53.526123 0
M  V30 58 H 39.604163 26.755291 54.017857 0
M  V30 59 H 37.233889 29.663017 53.703677 0
M  V30 60 H 38.776915 29.042469 53.147251 0
M  V30 61 H 37.284349 28.244569 52.663276 0
M  V30 62 H 40.161953 24.284263 56.574959 0
M  V30 63 H 40.848221 25.477073 55.511200 0
M  V30 64 H 43.178681 35.303796 64.782705 0
M  V30 65 H 41.887422 34.719154 65.836006 0
M  V30 66 H 42.850159 33.565182 64.919046 0
M  V30 67 H 34.844775 34.825545 59.715382 0
M  V30 68 H 35.957270 35.523748 58.567761 0
M  V30 69 H 35.347130 33.889433 58.324466 0
M  V30 70 H 38.742708 24.485986 54.870159 0
M  V30 71 H 41.822748 32.772328 63.084181 0
M  V30 72 H 39.231610 33.972775 62.126649 0
M  V30 73 H 36.916448 29.933889 55.725454 0
M  V30 74 H 39.552675 30.296997 58.252441 0
M  V30 75 H 41.042282 36.616244 64.177656 0
M  V30 76 H 40.678714 33.679193 62.129434 0
M  V30 77 H 39.125053 33.505120 59.244163 0
M  V30 END ATOM
M  V30 BEGIN BOND
M  V30 1 1 4 3
M  V30 2 2 11 6
M  V30 3 2 12 3
M  V30 4 1 12 5
M  V30 5 2 14 8
M  V30 6 1 15 8
M  V30 7 1 16 7
M  V30 8 1 17 1
M  V30 9 1 18 9
M  V30 10 1 19 2
M  V30 11 1 20 2
M  V30 12 1 21 15
M  V30 13 1 22 10
M  V30 14 1 23 2
M  V30 15 2 23 14
M  V30 16 1 25 11
M  V30 17 1 25 19
M  V30 18 1 25 21
M  V30 19 2 26 10
M  V30 20 2 27 4
M  V30 21 1 28 17 CFG=1
M  V30 22 1 28 24
M  V30 23 1 29 18
M  V30 24 1 29 23
M  V30 25 1 30 11
M  V30 26 1 31 9
M  V30 27 1 31 13
M  V30 28 1 31 18
M  V30 29 2 32 5
M  V30 30 1 32 27
M  V30 31 1 32 28
M  V30 32 1 33 7
M  V30 33 1 33 13
M  V30 34 1 33 28
M  V30 35 1 34 4
M  V30 36 1 34 10
M  V30 37 1 35 1
M  V30 38 1 36 1
M  V30 39 1 37 1
M  V30 40 1 2 38 CFG=1
M  V30 41 1 39 3
M  V30 42 1 40 5
M  V30 43 1 41 7
M  V30 44 1 42 7
M  V30 45 1 43 8
M  V30 46 1 44 9
M  V30 47 1 45 9
M  V30 48 1 46 12
M  V30 49 1 47 13
M  V30 50 1 48 13
M  V30 51 1 49 15
M  V30 52 1 50 15
M  V30 53 1 51 16
M  V30 54 1 52 16
M  V30 55 1 53 16
M  V30 56 1 54 17
M  V30 57 1 55 17
M  V30 58 1 18 56 CFG=3
M  V30 59 1 57 19
M  V30 60 1 58 19
M  V30 61 1 59 20
M  V30 62 1 60 20
M  V30 63 1 61 20
M  V30 64 1 62 21
M  V30 65 1 63 21
M  V30 66 1 64 22
M  V30 67 1 65 22
M  V30 68 1 66 22
M  V30 69 1 67 24
M  V30 70 1 68 24
M  V30 71 1 69 24
M  V30 72 1 25 70 CFG=3
M  V30 73 1 71 26
M  V30 74 1 72 27
M  V30 75 1 73 29
M  V30 76 1 31 74 CFG=3
M  V30 77 1 75 34
M  V30 78 1 76 26
M  V30 79 1 33 77 CFG=1
M  V30 END BOND
M  V30 END CTAB
M  END
>  <i_epik_Tot_Q>  (1) 
2

>  <i_epik_Tot_abs_Q>  (1) 
4

>  <i_i_glide_confnum>  (1) 
704

>  <i_i_glide_lignum>  (1) 
45

>  <i_i_glide_posenum>  (1) 
260

>  <i_i_glide_rotatable_bonds>  (1) 
11

>  <i_lp_mmshare_version>  (1) 
72125

>  <i_m_source_file_index>  (1) 
19

>  <i_f3d_flags>  (1) 
0

>  <num_sample>  (1) 
100

>  <b_lp_Chiralities_Consistent>  (1) 
1

>  <r_epik_Charging_Adjusted_Penalty>  (1) 
0.035732071636325656

>  <r_epik_Ionization_Penalty>  (1) 
0.019213783482484162

>  <r_epik_Ionization_Penalty_Charging>  (1) 
0.019186760244236628

>  <r_epik_Ionization_Penalty_Neutral>  (1) 
2.7023238247534635e-05

>  <r_epik_State_Penalty>  (1) 
0.016545311392089028

>  <r_glide_ring_energy>  (1) 
0

>  <r_i_docking_score>  (1) 
-6.9613914907110983

>  <r_i_glide_ecoul>  (1) 
-5.2920870297941853

>  <r_i_glide_eff_state_penalty>  (1) 
0.016545311392089028

>  <r_i_glide_einternal>  (1) 
15.565687338592738

>  <r_i_glide_emodel>  (1) 
-52.489009619433659

>  <r_i_glide_emodel_strain>  (1) 
4.3933008403876244

>  <r_i_glide_energy>  (1) 
-43.005203172643391

>  <r_i_glide_erotb>  (1) 
0.68654883804919686

>  <r_i_glide_esite>  (1) 
-0.091550313962837443

>  <r_i_glide_evdw>  (1) 
-37.713116142849209

>  <r_i_glide_gscore>  (1) 
-6.9779368021031871

>  <r_i_glide_gscore_strain>  (1) 
0.09832521009690609

>  <r_i_glide_hbond>  (1) 
0

>  <r_i_glide_ligand_efficiency>  (1) 
-0.20474680855032643

>  <r_i_glide_ligand_efficiency_ln>  (1) 
-1.5379666407154851

>  <r_i_glide_ligand_efficiency_sa>  (1) 
-0.66330017725353907

>  <r_i_glide_lipo>  (1) 
-3.539777905375233

>  <r_i_glide_metal>  (1) 
-0

>  <r_i_glide_rewards>  (1) 
-1.4520137692996309

>  <r_lp_Energy>  (1) 
40.287763999999996

>  <s_epik_Chemistry_Notes>  (1) 
This compound has an imine and may undergo hydrolysis.

>  <s_epik_cmdline>  (1) 
J2VwaWtfcHl0aG9uJywgJy1waHQnLCAnMS4wJywgJy1waCcsICc3LjQnLCAnLXRuJywgJzgnLCAnLW1hJywgJzUwMCcsICctaW1hZScsICc8aW5maWxlLm1hZT4nLCAnLW9tYWUnLCAnPG91dGZpbGUubWFlPic=

>  <s_epik_input>  (1) 
W0hdL049QyhcW0NIM10pW05IXWMxW2NIXVtjSF1bY0hdYyhbY0hdMSlbUEBAK10oW0NIM10pKFtDSDJdW0NIM10pTihbQ0gyXVtDSDNdKVtDSDJdW0NASF0yW0NIMl1bQ0BASF0yW05IXUMzPUM9W0NIXVtDSDJdW0NIMl1bQ0BASF0oQyg9TylbT0hdKVtDSDJdW0NAQEhdM1tDSDNd

>  <s_glide_docking_method>  (1) 
confgen

>  <s_i_glide_gridfile>  (1) 
gpcr_5ht2c_6bqh_protein_autoprepared_prepared

>  <s_lp_Force_Field>  (1) 
S-OPLS

>  <s_lp_Variant>  (1) 
DiffSBDD_18-4

>  <s_m_source_file>  (1) 
generated_GPCR_5HT2C_ligand_DiffSBDD_2026-06-23_prepared.sdf

>  <GenAI_Model>  (1) 
DiffSBDD

>  <Protein>  (1) 
GPCR_5HT2C

$$$$
DiffSBDD_64
     RDKit          3D

  0  0  0  0  0  0  0  0  0  0999 V3000
M  V30 BEGIN CTAB
M  V30 COUNTS 77 80 0 0 1
M  V30 BEGIN ATOM
M  V30 1 C 40.843589 34.139407 68.393567 0
M  V30 2 C 40.596666 30.084481 65.547358 0
M  V30 3 C 40.687424 30.947123 64.268892 0 CFG=1
M  V30 4 C 43.125552 30.246568 63.946290 0
M  V30 5 N 40.693985 30.821708 66.818230 0 CHG=1
M  V30 6 C 42.523392 34.771760 65.537066 0
M  V30 7 C 38.267254 31.763056 57.590596 0
M  V30 8 N 40.845281 32.708840 68.151376 0
M  V30 9 O 37.427004 31.982590 59.785851 0
M  V30 10 C 43.691314 29.043286 64.148022 0
M  V30 11 C 39.817486 28.525966 60.512483 0
M  V30 12 C 39.596550 30.139590 53.669104 0
M  V30 13 O 39.914335 28.975651 58.138031 0
M  V30 14 C 40.818182 32.167210 66.912295 0
M  V30 15 O 40.797932 34.547221 69.555385 0
M  V30 16 O 40.683605 36.292085 67.397580 0 CHG=-1
M  V30 17 C 38.308541 31.180198 59.024241 0 CFG=1
M  V30 18 C 40.909642 32.959521 65.756716 0
M  V30 19 C 40.846797 32.416879 64.534076 0
M  V30 20 C 37.868197 29.707794 59.213597 0
M  V30 21 C 40.857308 28.122755 56.167664 0
M  V30 22 C 39.059134 31.135149 56.424218 0
M  V30 23 C 39.010345 28.658025 59.188024 0 CFG=2
M  V30 24 F 39.100678 28.358276 50.494903 0
M  V30 25 C 41.770847 30.468346 63.266336 0 CFG=1
M  V30 26 C 38.091387 28.246876 54.022277 0
M  V30 27 N 40.840311 34.954337 67.294814 0
M  V30 28 C 39.554438 28.609695 56.804726 0 CFG=2
M  V30 29 C 40.425384 29.752107 61.187606 0
M  V30 30 C 38.446982 27.238976 58.999655 0
M  V30 31 C 38.191474 27.914816 52.658951 0
M  V30 32 C 38.992631 28.689142 51.802060 0
M  V30 33 C 39.686507 29.805479 52.303338 0
M  V30 34 C 41.091966 34.415977 65.965744 0 CFG=1
M  V30 35 C 41.242058 29.295445 62.413629 0
M  V30 36 C 38.723174 29.674183 56.033870 0 CFG=2
M  V30 37 C 38.800310 29.355087 54.536526 0
M  V30 38 H 39.640496 29.562526 65.557223 0
M  V30 39 H 41.348949 29.298393 65.562503 0
M  V30 40 H 39.718320 30.875155 63.773314 0
M  V30 41 H 43.644131 31.134488 64.279254 0
M  V30 42 H 42.671494 34.621256 64.467857 0
M  V30 43 H 42.755693 35.820963 65.737437 0
M  V30 44 H 43.245054 34.138345 66.059984 0
M  V30 45 H 37.245122 31.813629 57.268592 0
M  V30 46 H 38.576186 32.807716 57.655669 0
M  V30 47 H 40.824819 32.043226 68.905538 0
M  V30 48 H 36.605799 32.038904 59.315340 0
M  V30 49 H 44.653317 28.955732 64.634862 0
M  V30 50 H 43.202740 28.134856 63.832302 0
M  V30 51 H 39.184415 28.082177 61.280496 0
M  V30 52 H 40.613632 27.798895 60.341126 0
M  V30 53 H 40.145323 30.986970 54.048933 0
M  V30 54 H 39.288464 31.343650 59.443800 0
M  V30 55 H 40.920758 33.056682 63.666104 0
M  V30 56 H 37.343642 29.597759 60.164547 0
M  V30 57 H 37.118620 29.474828 58.458129 0
M  V30 58 H 40.650386 27.418908 55.366164 0
M  V30 59 H 41.447970 28.937765 55.768056 0
M  V30 60 H 41.472619 27.585351 56.890439 0
M  V30 61 H 38.804201 31.781475 55.584530 0
M  V30 62 H 40.118624 31.261553 56.564917 0
M  V30 63 H 41.975376 31.278351 62.562868 0
M  V30 64 H 37.481844 27.643117 54.678153 0
M  V30 65 H 38.963857 27.702932 56.737420 0
M  V30 66 H 41.056833 30.294904 60.484985 0
M  V30 67 H 39.628291 30.427366 61.499594 0
M  V30 68 H 38.045154 26.937536 59.948423 0
M  V30 69 H 37.645112 27.164169 58.263419 0
M  V30 70 H 39.226325 26.517810 58.749226 0
M  V30 71 H 37.657970 27.059744 52.271926 0
M  V30 72 H 40.296404 30.401036 51.640968 0
M  V30 73 H 40.444888 34.947829 65.272169 0
M  V30 74 H 40.643015 28.634025 63.041612 0
M  V30 75 H 42.044837 28.666582 62.038585 0
M  V30 76 H 37.672420 29.532734 56.285536 0
M  V30 77 H 40.640310 30.274259 67.665740 0
M  V30 END ATOM
M  V30 BEGIN BOND
M  V30 1 1 3 2
M  V30 2 1 5 2
M  V30 3 1 8 1
M  V30 4 2 10 4
M  V30 5 2 14 5
M  V30 6 1 14 8
M  V30 7 2 15 1
M  V30 8 1 17 7
M  V30 9 1 17 9
M  V30 10 1 18 14
M  V30 11 1 19 3
M  V30 12 2 19 18
M  V30 13 1 20 17
M  V30 14 1 22 7
M  V30 15 1 23 11 CFG=1
M  V30 16 1 23 13
M  V30 17 1 23 20
M  V30 18 1 25 3
M  V30 19 1 25 4
M  V30 20 1 27 1
M  V30 21 1 27 16
M  V30 22 1 28 13
M  V30 23 1 28 21
M  V30 24 1 29 11
M  V30 25 1 30 23
M  V30 26 2 31 26
M  V30 27 1 32 24
M  V30 28 1 32 31
M  V30 29 1 33 12
M  V30 30 2 33 32
M  V30 31 1 34 6
M  V30 32 1 34 18
M  V30 33 1 34 27
M  V30 34 1 35 25
M  V30 35 1 35 29
M  V30 36 1 36 22
M  V30 37 1 36 28
M  V30 38 2 37 12
M  V30 39 1 37 26
M  V30 40 1 37 36
M  V30 41 1 38 2
M  V30 42 1 39 2
M  V30 43 1 3 40 CFG=3
M  V30 44 1 41 4
M  V30 45 1 42 6
M  V30 46 1 43 6
M  V30 47 1 44 6
M  V30 48 1 45 7
M  V30 49 1 46 7
M  V30 50 1 47 8
M  V30 51 1 48 9
M  V30 52 1 49 10
M  V30 53 1 50 10
M  V30 54 1 51 11
M  V30 55 1 52 11
M  V30 56 1 53 12
M  V30 57 1 17 54 CFG=1
M  V30 58 1 55 19
M  V30 59 1 56 20
M  V30 60 1 57 20
M  V30 61 1 58 21
M  V30 62 1 59 21
M  V30 63 1 60 21
M  V30 64 1 61 22
M  V30 65 1 62 22
M  V30 66 1 25 63 CFG=3
M  V30 67 1 64 26
M  V30 68 1 28 65 CFG=1
M  V30 69 1 66 29
M  V30 70 1 67 29
M  V30 71 1 68 30
M  V30 72 1 69 30
M  V30 73 1 70 30
M  V30 74 1 71 31
M  V30 75 1 72 33
M  V30 76 1 34 73 CFG=3
M  V30 77 1 74 35
M  V30 78 1 75 35
M  V30 79 1 36 76 CFG=1
M  V30 80 1 77 5
M  V30 END BOND
M  V30 END CTAB
M  END
>  <i_epik_Tot_Q>  (1) 
0

>  <i_epik_Tot_abs_Q>  (1) 
2

>  <i_i_glide_confnum>  (1) 
774

>  <i_i_glide_lignum>  (1) 
144

>  <i_i_glide_posenum>  (1) 
382

>  <i_i_glide_rotatable_bonds>  (1) 
8

>  <i_lp_mmshare_version>  (1) 
72125

>  <i_m_source_file_index>  (1) 
65

>  <i_f3d_flags>  (1) 
0

>  <num_sample>  (1) 
100

>  <b_lp_Chiralities_Consistent>  (1) 
1

>  <r_epik_Charging_Adjusted_Penalty>  (1) 
0.059234021973178383

>  <r_epik_Ionization_Penalty>  (1) 
0.05923416388853827

>  <r_epik_Ionization_Penalty_Charging>  (1) 
0.059234021973178383

>  <r_epik_Ionization_Penalty_Neutral>  (1) 
1.4191535988443934e-07

>  <r_epik_State_Penalty>  (1) 
-0

>  <r_glide_ring_energy>  (1) 
0.4351030857825357

>  <r_i_docking_score>  (1) 
-6.9578677527942645

>  <r_i_glide_ecoul>  (1) 
-3.1556010360685827

>  <r_i_glide_eff_state_penalty>  (1) 
-0

>  <r_i_glide_einternal>  (1) 
15.367989773483815

>  <r_i_glide_emodel>  (1) 
-44.416837609023005

>  <r_i_glide_emodel_strain>  (1) 
2.6006570336482895

>  <r_i_glide_energy>  (1) 
-39.898196056258115

>  <r_i_glide_erotb>  (1) 
0.54408064829906078

>  <r_i_glide_esite>  (1) 
0

>  <r_i_glide_evdw>  (1) 
-36.742595020189533

>  <r_i_glide_gscore>  (1) 
-6.9578677527942645

>  <r_i_glide_gscore_strain>  (1) 
0

>  <r_i_glide_hbond>  (1) 
0

>  <r_i_glide_ligand_efficiency>  (1) 
-0.18805047980525039

>  <r_i_glide_ligand_efficiency_ln>  (1) 
-1.5089984000179555

>  <r_i_glide_ligand_efficiency_sa>  (1) 
-0.62662591801956147

>  <r_i_glide_lipo>  (1) 
-3.7338512409091726

>  <r_i_glide_metal>  (1) 
-0

>  <r_i_glide_rewards>  (1) 
-1.4576272537643893

>  <r_lp_Energy>  (1) 
55.422177999999995

>  <r_lp_tautomer_probability>  (1) 
1

>  <s_epik_Chemistry_Notes>  (1) 
This compound has an imine and may undergo hydrolysis.

>  <s_epik_cmdline>  (1) 
J2VwaWtfcHl0aG9uJywgJy1waHQnLCAnMS4wJywgJy1waCcsICc3LjQnLCAnLXRuJywgJzgnLCAnLW1hJywgJzUwMCcsICctaW1hZScsICc8aW5maWxlLm1hZT4nLCAnLW9tYWUnLCAnPG91dGZpbGUubWFlPic=

>  <s_epik_input>  (1) 
W05IXTFDKD1PKU4oW09IXSlbQ0BASF0oW0NIM10pQyhDMTIpPVtDSF1bQ0BASF0oW0NIMl1OPTIpW0NAQEhdKFtDSF09W0NIMl0pW0NIMl1bQ0gyXVtDSDJdW0NAXTMoW0NIM10pT1tDQEhdKFtDSDNdKVtDQEBIXShbQ0gyXVtDSDJdW0NAQEhdKFtPSF0pW0NIMl0zKWMoW2NIXVtjSF00KVtjSF1bY0hdYzRG

>  <s_glide_docking_method>  (1) 
confgen

>  <s_i_glide_gridfile>  (1) 
gpcr_5ht2c_6bqh_protein_autoprepared_prepared

>  <s_lp_Force_Field>  (1) 
S-OPLS

>  <s_lp_Variant>  (1) 
DiffSBDD_64-2

>  <s_m_source_file>  (1) 
generated_GPCR_5HT2C_ligand_DiffSBDD_2026-06-23_prepared.sdf

>  <GenAI_Model>  (1) 
DiffSBDD

>  <Protein>  (1) 
GPCR_5HT2C

$$$$
DiffSBDD_9
     RDKit          3D

  0  0  0  0  0  0  0  0  0  0999 V3000
M  V30 BEGIN CTAB
M  V30 COUNTS 67 68 0 0 1
M  V30 BEGIN ATOM
M  V30 1 C 37.245944 32.949715 59.523516 0 CFG=1
M  V30 2 C 36.942853 25.391827 56.891321 0
M  V30 3 C 37.173738 37.842561 61.088868 0
M  V30 4 C 39.564538 29.651054 51.192052 0
M  V30 5 O 37.066453 36.857762 61.996311 0
M  V30 6 O 38.845207 27.436312 51.187130 0
M  V30 7 C 36.735051 33.215233 60.925515 0 CFG=1
M  V30 8 C 38.174223 32.775033 60.704963 0
M  V30 9 N 36.845133 31.646230 58.967760 0 CHG=1
M  V30 10 C 38.230372 28.939017 56.619647 0
M  V30 11 C 39.096717 26.905649 55.406235 0 CFG=2
M  V30 12 C 38.513962 27.149113 54.000346 0
M  V30 13 C 38.841627 28.539408 53.384400 0 CFG=1
M  V30 14 C 37.529032 29.636403 57.767768 0
M  V30 15 C 38.598432 28.653459 51.860104 0 CFG=1
M  V30 16 C 37.704543 26.560612 57.551253 0
M  V30 17 C 38.878733 29.865996 55.574659 0
M  V30 18 C 41.146272 27.317873 56.668298 0
M  V30 19 C 36.340638 34.602027 61.412541 0
M  V30 20 C 37.365433 34.041850 58.472573 0
M  V30 21 O 36.800922 29.069800 58.567747 0
M  V30 22 C 37.764819 31.136009 57.940232 0
M  V30 23 O 37.644629 37.710442 59.958865 0
M  V30 24 C 37.526106 35.550165 61.692404 0
M  V30 25 C 38.310642 27.561452 56.530929 0
M  V30 26 C 38.228104 29.702044 54.186072 0
M  V30 27 O 35.873700 32.180243 61.367770 0
M  V30 28 O 40.445111 27.335442 55.422382 0
M  V30 29 C 38.803589 26.010634 58.478304 0
M  V30 30 H 36.176693 25.739552 56.199586 0
M  V30 31 H 37.582390 24.691103 56.357892 0
M  V30 32 H 36.445108 24.808790 57.663718 0
M  V30 33 H 36.781165 38.769999 61.507173 0
M  V30 34 H 39.574081 30.628148 51.675291 0
M  V30 35 H 40.589403 29.275476 51.218433 0
M  V30 36 H 39.300308 29.796525 50.145960 0
M  V30 37 H 38.117312 26.852486 51.345676 0
M  V30 38 H 38.980685 33.497194 60.800954 0
M  V30 39 H 38.436000 31.765646 61.020138 0
M  V30 40 H 36.722647 30.969300 59.707352 0
M  V30 41 H 39.159310 25.831786 55.563323 0
M  V30 42 H 38.952131 26.369987 53.378343 0
M  V30 43 H 37.438751 26.965465 53.995347 0
M  V30 44 H 39.897946 28.711890 53.469498 0
M  V30 45 H 37.562363 28.937666 51.683235 0
M  V30 46 H 36.924549 26.946728 58.167759 0
M  V30 47 H 38.871653 30.924817 55.799391 0
M  V30 48 H 39.948314 29.668152 55.525434 0
M  V30 49 H 42.146273 27.730235 56.567783 0
M  V30 50 H 40.677328 27.936006 57.431239 0
M  V30 51 H 41.245046 26.305833 57.047107 0
M  V30 52 H 35.691754 35.026948 60.647138 0
M  V30 53 H 35.733095 34.512570 62.314980 0
M  V30 54 H 37.551941 35.012906 58.922289 0
M  V30 55 H 38.178700 33.830351 57.779226 0
M  V30 56 H 36.438577 34.112471 57.903507 0
M  V30 57 H 37.560300 31.692970 57.029162 0
M  V30 58 H 38.800396 31.305318 58.235440 0
M  V30 59 H 38.106242 35.200148 62.544309 0
M  V30 60 H 38.227364 35.566409 60.860381 0
M  V30 61 H 38.389166 30.631957 53.641605 0
M  V30 62 H 37.145598 29.594793 54.267808 0
M  V30 63 H 34.979563 32.485842 61.296887 0
M  V30 64 H 39.348128 26.816761 58.969820 0
M  V30 65 H 38.420357 25.360357 59.255774 0
M  V30 66 H 39.511365 25.396059 57.926846 0
M  V30 67 H 35.972032 31.737876 58.440534 0
M  V30 END ATOM
M  V30 BEGIN BOND
M  V30 1 1 5 3
M  V30 2 1 7 1
M  V30 3 1 8 1
M  V30 4 1 8 7
M  V30 5 1 9 1
M  V30 6 1 12 11
M  V30 7 1 13 12
M  V30 8 1 14 10
M  V30 9 1 15 4
M  V30 10 1 15 6
M  V30 11 1 15 13
M  V30 12 1 16 2
M  V30 13 1 17 10
M  V30 14 1 19 7
M  V30 15 1 1 20 CFG=3
M  V30 16 2 21 14
M  V30 17 1 22 9
M  V30 18 1 22 14
M  V30 19 2 23 3
M  V30 20 1 24 5
M  V30 21 1 24 19
M  V30 22 2 25 10
M  V30 23 1 25 11
M  V30 24 1 25 16
M  V30 25 1 26 13
M  V30 26 1 26 17
M  V30 27 1 7 27 CFG=1
M  V30 28 1 28 11
M  V30 29 1 28 18
M  V30 30 1 29 16
M  V30 31 1 30 2
M  V30 32 1 31 2
M  V30 33 1 32 2
M  V30 34 1 33 3
M  V30 35 1 34 4
M  V30 36 1 35 4
M  V30 37 1 36 4
M  V30 38 1 37 6
M  V30 39 1 38 8
M  V30 40 1 39 8
M  V30 41 1 40 9
M  V30 42 1 11 41 CFG=1
M  V30 43 1 42 12
M  V30 44 1 43 12
M  V30 45 1 13 44 CFG=3
M  V30 46 1 15 45 CFG=1
M  V30 47 1 46 16
M  V30 48 1 47 17
M  V30 49 1 48 17
M  V30 50 1 49 18
M  V30 51 1 50 18
M  V30 52 1 51 18
M  V30 53 1 52 19
M  V30 54 1 53 19
M  V30 55 1 54 20
M  V30 56 1 55 20
M  V30 57 1 56 20
M  V30 58 1 57 22
M  V30 59 1 58 22
M  V30 60 1 59 24
M  V30 61 1 60 24
M  V30 62 1 61 26
M  V30 63 1 62 26
M  V30 64 1 63 27
M  V30 65 1 64 29
M  V30 66 1 65 29
M  V30 67 1 66 29
M  V30 68 1 67 9
M  V30 END BOND
M  V30 END CTAB
M  END
>  <i_epik_Tot_Q>  (1) 
1

>  <i_epik_Tot_abs_Q>  (1) 
1

>  <i_i_glide_confnum>  (1) 
1727

>  <i_i_glide_lignum>  (1) 
13

>  <i_i_glide_posenum>  (1) 
235

>  <i_i_glide_rotatable_bonds>  (1) 
13

>  <i_lp_mmshare_version>  (1) 
72125

>  <i_m_source_file_index>  (1) 
10

>  <i_f3d_flags>  (1) 
0

>  <num_sample>  (1) 
100

>  <b_lp_Chiralities_Consistent>  (1) 
1

>  <r_epik_Charging_Adjusted_Penalty>  (1) 
0.43257487955488089

>  <r_epik_Ionization_Penalty>  (1) 
0.21628819114950359

>  <r_epik_Ionization_Penalty_Charging>  (1) 
0.21628743977744047

>  <r_epik_Ionization_Penalty_Neutral>  (1) 
7.5137206312442099e-07

>  <r_epik_State_Penalty>  (1) 
0.21628743977744042

>  <r_glide_ring_energy>  (1) 
0

>  <r_i_docking_score>  (1) 
-6.954703461755761

>  <r_i_glide_ecoul>  (1) 
-9.4734974864485544

>  <r_i_glide_eff_state_penalty>  (1) 
0.21628743977744042

>  <r_i_glide_einternal>  (1) 
19.042854958491382

>  <r_i_glide_emodel>  (1) 
-48.158618703314417

>  <r_i_glide_emodel_strain>  (1) 
2.2694352152030746

>  <r_i_glide_energy>  (1) 
-40.459432319128076

>  <r_i_glide_erotb>  (1) 
0.92691700141960698

>  <r_i_glide_esite>  (1) 
-0.16316873523492276

>  <r_i_glide_evdw>  (1) 
-30.985934832679522

>  <r_i_glide_gscore>  (1) 
-7.1709909015332016

>  <r_i_glide_gscore_strain>  (1) 
0

>  <r_i_glide_hbond>  (1) 
-0.3469202970253058

>  <r_i_glide_ligand_efficiency>  (1) 
-0.23981736075019866

>  <r_i_glide_ligand_efficiency_ln>  (1) 
-1.5924507366786966

>  <r_i_glide_ligand_efficiency_sa>  (1) 
-0.73679491252440821

>  <r_i_glide_lipo>  (1) 
-3.2103337363958389

>  <r_i_glide_metal>  (1) 
-0

>  <r_i_glide_rewards>  (1) 
-1.4071637696954804

>  <r_lp_Energy>  (1) 
43.017908999999996

>  <s_epik_Chemistry_Notes>  (1) 
This compound has an ester and may undergo hydrolysis at high or low pH.

>  <s_epik_cmdline>  (1) 
J2VwaWtfcHl0aG9uJywgJy1waHQnLCAnMS4wJywgJy1waCcsICc3LjQnLCAnLXRuJywgJzgnLCAnLW1hJywgJzUwMCcsICctaW1hZScsICc8aW5maWxlLm1hZT4nLCAnLW9tYWUnLCAnPG91dGZpbGUubWFlPic=

>  <s_epik_input>  (1) 
Tz1bQ0hdT1tDSDJdW0NIMl1bQ0BAXShbQ0gyXTEpKFtPSF0pW0NAXTEoW0NIM10pW05IXVtDSDJdQyg9TylDMj1DKFtDSF0oW0NIM10pW0NIM10pW0NASF0oT1tDSDNdKVtDSDJdW0NAQEhdKFtDQEBIXShbQ0gzXSlbT0hdKVtDSDJdW0NIMl0y

>  <s_glide_docking_method>  (1) 
confgen

>  <s_i_glide_gridfile>  (1) 
gpcr_5ht2c_6bqh_protein_autoprepared_prepared

>  <s_lp_Force_Field>  (1) 
S-OPLS

>  <s_lp_Variant>  (1) 
DiffSBDD_9-1

>  <s_m_source_file>  (1) 
generated_GPCR_5HT2C_ligand_DiffSBDD_2026-06-23_prepared.sdf

>  <GenAI_Model>  (1) 
DiffSBDD

>  <Protein>  (1) 
GPCR_5HT2C

$$$$
DiffSBDD_25
     RDKit          3D

  0  0  0  0  0  0  0  0  0  0999 V3000
M  V30 BEGIN CTAB
M  V30 COUNTS 67 70 0 0 1
M  V30 BEGIN ATOM
M  V30 1 C 40.475899 33.273481 61.767731 0
M  V30 2 C 37.840030 28.838624 52.700497 0
M  V30 3 O 40.873823 32.131607 61.456803 0 CHG=-1
M  V30 4 C 38.797383 32.477330 57.055603 0
M  V30 5 N 37.860893 30.474122 59.991619 0
M  V30 6 C 39.052406 27.954076 52.458209 0
M  V30 7 C 38.614599 35.056618 61.460337 0
M  V30 8 C 36.446521 34.557455 60.811258 0
M  V30 9 C 40.260867 25.935989 55.370919 0
M  V30 10 C 39.037328 26.702003 53.325198 0
M  V30 11 C 39.094124 26.830948 54.885018 0 CFG=2
M  V30 12 C 35.539911 32.231178 60.429636 0
M  V30 13 O 37.630623 24.948362 54.986631 0
M  V30 14 O 38.815975 30.683011 62.098301 0
M  V30 15 N 38.232411 30.326175 56.260979 0
M  V30 16 C 37.988633 32.696305 61.114299 0
M  V30 17 O 41.229664 34.123028 62.295719 0
M  V30 18 C 37.692431 26.288017 56.911758 0
M  V30 19 C 39.006293 33.674913 61.457294 0
M  V30 20 C 39.337138 28.284568 55.397541 0
M  V30 21 C 38.181848 29.300759 55.211578 0 CFG=2
M  V30 22 C 38.273658 31.191092 61.117338 0
M  V30 23 C 37.767825 29.925945 57.590330 0
M  V30 24 N 37.371130 35.472081 61.149590 0
M  V30 25 C 36.804256 25.092567 57.137858 0
M  V30 26 C 38.682867 31.606395 56.062950 0
M  V30 27 N 39.527631 36.059148 61.770430 0
M  V30 28 N 37.825351 26.319573 55.453379 0
M  V30 29 C 38.108037 29.881674 53.785382 0
M  V30 30 C 38.048636 30.895570 58.771552 0
M  V30 31 C 36.432988 22.989743 55.720993 0
M  V30 32 N 38.501524 32.180429 58.377347 0
M  V30 33 C 37.368068 24.135085 56.114748 0 CFG=1
M  V30 34 C 36.684536 33.179842 60.784257 0
M  V30 35 H 36.946214 28.252363 52.921336 0
M  V30 36 H 37.645135 29.337742 51.759466 0
M  V30 37 H 39.149353 33.482130 56.900960 0
M  V30 38 H 39.031289 27.628620 51.416885 0
M  V30 39 H 39.982081 28.511638 52.562920 0
M  V30 40 H 35.470595 34.937746 60.565453 0
M  V30 41 H 41.165303 26.137683 54.803852 0
M  V30 42 H 40.511801 26.081047 56.420929 0
M  V30 43 H 40.045104 24.880046 55.227447 0
M  V30 44 H 38.162549 26.137754 53.009788 0
M  V30 45 H 39.896924 26.137748 52.972349 0
M  V30 46 H 34.585265 32.738510 60.570375 0
M  V30 47 H 35.575478 31.934190 59.381284 0
M  V30 48 H 35.515832 31.344350 61.062379 0
M  V30 49 H 38.641905 26.134259 57.420990 0
M  V30 50 H 37.244587 27.199712 57.298045 0
M  V30 51 H 40.236706 28.712352 54.967752 0
M  V30 52 H 39.585656 28.213926 56.454735 0
M  V30 53 H 37.245103 28.780745 55.377419 0
M  V30 54 H 36.690529 29.765619 57.534175 0
M  V30 55 H 38.208724 28.971126 57.862244 0
M  V30 56 H 35.766421 25.337762 56.913884 0
M  V30 57 H 36.859209 24.706113 58.155586 0
M  V30 58 H 38.934817 31.851131 55.045594 0
M  V30 59 H 40.473166 35.822100 62.067070 0
M  V30 60 H 39.255645 37.027199 61.816444 0
M  V30 61 H 37.311737 30.624576 53.767782 0
M  V30 62 H 39.027928 30.407477 53.527422 0
M  V30 63 H 36.291776 22.296092 56.549033 0
M  V30 64 H 35.454246 23.360779 55.415240 0
M  V30 65 H 36.845166 22.426074 54.884553 0
M  V30 66 H 38.317065 23.738471 56.476591 0
M  V30 67 H 38.683919 32.907174 59.054546 0
M  V30 END ATOM
M  V30 BEGIN BOND
M  V30 1 1 3 1
M  V30 2 1 6 2
M  V30 3 1 10 6
M  V30 4 1 11 9 CFG=1
M  V30 5 1 11 10
M  V30 6 2 17 1
M  V30 7 1 19 1
M  V30 8 2 19 7
M  V30 9 1 19 16
M  V30 10 1 20 11
M  V30 11 1 21 15
M  V30 12 1 21 20
M  V30 13 1 22 5
M  V30 14 2 22 14
M  V30 15 1 22 16
M  V30 16 1 23 15
M  V30 17 1 24 7
M  V30 18 2 24 8
M  V30 19 1 25 18
M  V30 20 2 26 4
M  V30 21 1 26 15
M  V30 22 1 27 7
M  V30 23 1 28 11
M  V30 24 1 28 13
M  V30 25 1 28 18
M  V30 26 1 29 2
M  V30 27 1 29 21
M  V30 28 2 30 5
M  V30 29 1 30 23
M  V30 30 1 32 4
M  V30 31 1 32 30
M  V30 32 1 33 13
M  V30 33 1 33 25
M  V30 34 1 33 31
M  V30 35 1 34 8
M  V30 36 1 34 12
M  V30 37 2 34 16
M  V30 38 1 35 2
M  V30 39 1 36 2
M  V30 40 1 37 4
M  V30 41 1 38 6
M  V30 42 1 39 6
M  V30 43 1 40 8
M  V30 44 1 41 9
M  V30 45 1 42 9
M  V30 46 1 43 9
M  V30 47 1 44 10
M  V30 48 1 45 10
M  V30 49 1 46 12
M  V30 50 1 47 12
M  V30 51 1 48 12
M  V30 52 1 49 18
M  V30 53 1 50 18
M  V30 54 1 51 20
M  V30 55 1 52 20
M  V30 56 1 21 53 CFG=1
M  V30 57 1 54 23
M  V30 58 1 55 23
M  V30 59 1 56 25
M  V30 60 1 57 25
M  V30 61 1 58 26
M  V30 62 1 59 27
M  V30 63 1 60 27
M  V30 64 1 61 29
M  V30 65 1 62 29
M  V30 66 1 63 31
M  V30 67 1 64 31
M  V30 68 1 65 31
M  V30 69 1 33 66 CFG=1
M  V30 70 1 67 32
M  V30 END BOND
M  V30 END CTAB
M  END
>  <i_epik_Tot_Q>  (1) 
-1

>  <i_epik_Tot_abs_Q>  (1) 
1

>  <i_i_glide_confnum>  (1) 
183

>  <i_i_glide_lignum>  (1) 
62

>  <i_i_glide_posenum>  (1) 
270

>  <i_i_glide_rotatable_bonds>  (1) 
5

>  <i_lp_mmshare_version>  (1) 
72125

>  <i_m_source_file_index>  (1) 
26

>  <i_f3d_flags>  (1) 
0

>  <num_sample>  (1) 
100

>  <b_lp_Chiralities_Consistent>  (1) 
1

>  <r_epik_Charging_Adjusted_Penalty>  (1) 
0.31558791334810349

>  <r_epik_Ionization_Penalty>  (1) 
0.22690283062159758

>  <r_epik_Ionization_Penalty_Charging>  (1) 
2.1847890769935955e-05

>  <r_epik_Ionization_Penalty_Neutral>  (1) 
0.22688098273082763

>  <r_epik_State_Penalty>  (1) 
0.31556606545733357

>  <r_glide_ring_energy>  (1) 
0.46074122313067051

>  <r_i_docking_score>  (1) 
-6.9536068728588498

>  <r_i_glide_ecoul>  (1) 
0.38948732156380861

>  <r_i_glide_eff_state_penalty>  (1) 
0.31556606545733357

>  <r_i_glide_einternal>  (1) 
2.9800597382028968

>  <r_i_glide_emodel>  (1) 
-64.456592070092782

>  <r_i_glide_emodel_strain>  (1) 
0.77278025854354837

>  <r_i_glide_energy>  (1) 
-48.847953327356869

>  <r_i_glide_erotb>  (1) 
0.36642180475109298

>  <r_i_glide_esite>  (1) 
-0.16840932314440671

>  <r_i_glide_evdw>  (1) 
-49.237440648920675

>  <r_i_glide_gscore>  (1) 
-7.2691729383161832

>  <r_i_glide_gscore_strain>  (1) 
0

>  <r_i_glide_hbond>  (1) 
0

>  <r_i_glide_ligand_efficiency>  (1) 
-0.20451784920173088

>  <r_i_glide_ligand_efficiency_ln>  (1) 
-1.5362468002807885

>  <r_i_glide_ligand_efficiency_sa>  (1) 
-0.66255843784581614

>  <r_i_glide_lipo>  (1) 
-3.4391674276231825

>  <r_i_glide_metal>  (1) 
-0

>  <r_i_glide_rewards>  (1) 
-1.6245690580882248

>  <r_lp_Energy>  (1) 
74.56592599999999

>  <s_epik_Chemistry_Notes>  (1) 
This compound has an imine and may undergo hydrolysis. This compound has a N-S or N-O group and may undergo hydrolysis at high or low pH.

>  <s_epik_cmdline>  (1) 
J2VwaWtfcHl0aG9uJywgJy1waHQnLCAnMS4wJywgJy1waCcsICc3LjQnLCAnLXRuJywgJzgnLCAnLW1hJywgJzUwMCcsICctaW1hZScsICc8aW5maWxlLm1hZT4nLCAnLW9tYWUnLCAnPG91dGZpbGUubWFlPic=

>  <s_epik_input>  (1) 
W09IXUMoPU8pYyhjMVtOSDJdKWMoYyhbY0hdbjEpW0NIM10pQyg9TylbTkhdQyg9TltDSF09W0NIXTIpW0NIMl1OMltDQEhdKFtDSDJdMylbQ0gyXVtDSDJdW0NIMl1bQ0gyXVtDQF0zKFtDSDNdKU40T1tDQEBIXShbQ0gzXSlbQ0gyXVtDSDJdNA==

>  <s_glide_docking_method>  (1) 
confgen

>  <s_i_glide_gridfile>  (1) 
gpcr_5ht2c_6bqh_protein_autoprepared_prepared

>  <s_lp_Force_Field>  (1) 
S-OPLS

>  <s_lp_Variant>  (1) 
DiffSBDD_25-2

>  <s_m_source_file>  (1) 
generated_GPCR_5HT2C_ligand_DiffSBDD_2026-06-23_prepared.sdf

>  <GenAI_Model>  (1) 
DiffSBDD

>  <Protein>  (1) 
GPCR_5HT2C

$$$$
DiffSBDD_47
     RDKit          3D

  0  0  0  0  0  0  0  0  0  0999 V3000
M  V30 BEGIN CTAB
M  V30 COUNTS 51 52 0 0 1
M  V30 BEGIN ATOM
M  V30 1 O 34.922799 34.137506 58.967787 0
M  V30 2 C 36.123228 32.607324 60.394915 0
M  V30 3 C 38.057237 29.595439 59.381243 0
M  V30 4 C 39.228209 28.414261 51.349664 0
M  V30 5 C 39.601125 30.137671 53.550554 0
M  V30 6 C 37.124766 33.480315 61.068889 0
M  V30 7 C 38.782257 28.026438 52.628157 0
M  V30 8 C 38.874460 31.706149 60.560869 0
M  V30 9 C 39.152714 28.594555 59.767227 0
M  V30 10 O 36.916342 34.667558 61.316716 0
M  V30 11 C 38.501998 28.454203 55.119726 0 CFG=2
M  V30 12 C 39.603867 27.631022 55.832798 0
M  V30 13 O 40.045106 26.594392 55.333243 0
M  V30 14 C 40.125727 28.146633 57.189208 0 CFG=1
M  V30 15 C 37.755527 30.658773 60.449449 0 CFG=1
M  V30 16 C 38.462107 32.856364 61.482005 0
M  V30 17 C 39.859746 29.662868 51.169763 0
M  V30 18 C 36.423171 31.319550 60.131958 0
M  V30 19 S 39.273561 27.270660 58.534565 0
M  V30 20 C 38.968775 28.885201 53.733116 0
M  V30 21 C 40.045136 30.522986 52.270424 0
M  V30 22 C 40.335498 30.082609 49.794962 0
M  V30 23 C 41.646050 27.981611 57.339881 0
M  V30 24 O 38.041072 29.541597 55.902474 0
M  V30 25 C 34.788574 33.241278 60.050421 0
M  V30 26 H 35.212082 33.634543 58.214420 0
M  V30 27 H 37.152091 29.024064 59.175159 0
M  V30 28 H 38.305356 30.097071 58.447068 0
M  V30 29 H 39.084541 27.753750 50.506615 0
M  V30 30 H 39.748805 30.798679 54.392457 0
M  V30 31 H 38.300848 27.067921 52.762897 0
M  V30 32 H 39.789470 31.246425 60.935235 0
M  V30 33 H 39.111309 32.106298 59.573468 0
M  V30 34 H 40.120507 29.083469 59.877853 0
M  V30 35 H 38.910863 28.138033 60.727271 0
M  V30 36 H 37.650629 27.786159 54.985957 0
M  V30 37 H 39.917903 29.210307 57.273992 0
M  V30 38 H 37.645197 30.166983 61.414403 0
M  V30 39 H 38.370166 32.498205 62.507391 0
M  V30 40 H 39.231308 33.628675 61.483838 0
M  V30 41 H 35.683146 30.696808 59.648686 0
M  V30 42 H 40.526756 31.478611 52.132829 0
M  V30 43 H 39.868350 31.026521 49.511881 0
M  V30 44 H 41.417011 30.220568 49.793739 0
M  V30 45 H 40.080447 29.337756 49.040159 0
M  V30 46 H 42.181545 28.531894 56.567805 0
M  V30 47 H 41.986878 28.362650 58.302853 0
M  V30 48 H 41.948903 26.937748 57.275893 0
M  V30 49 H 37.320510 29.965532 55.458359 0
M  V30 50 H 34.382208 33.737833 60.928590 0
M  V30 51 H 34.071942 32.469758 59.767476 0
M  V30 END ATOM
M  V30 BEGIN BOND
M  V30 1 1 6 2
M  V30 2 2 7 4
M  V30 3 1 9 3
M  V30 4 2 10 6
M  V30 5 1 12 11
M  V30 6 2 13 12
M  V30 7 1 14 12
M  V30 8 1 15 3
M  V30 9 1 15 8
M  V30 10 1 16 6
M  V30 11 1 16 8
M  V30 12 1 17 4
M  V30 13 2 18 2
M  V30 14 1 18 15
M  V30 15 1 19 9
M  V30 16 1 19 14
M  V30 17 2 20 5
M  V30 18 1 20 7
M  V30 19 1 20 11
M  V30 20 1 21 5
M  V30 21 2 21 17
M  V30 22 1 22 17
M  V30 23 1 23 14
M  V30 24 1 24 11
M  V30 25 1 25 1
M  V30 26 1 25 2
M  V30 27 1 26 1
M  V30 28 1 27 3
M  V30 29 1 28 3
M  V30 30 1 29 4
M  V30 31 1 30 5
M  V30 32 1 31 7
M  V30 33 1 32 8
M  V30 34 1 33 8
M  V30 35 1 34 9
M  V30 36 1 35 9
M  V30 37 1 11 36 CFG=3
M  V30 38 1 14 37 CFG=1
M  V30 39 1 15 38 CFG=1
M  V30 40 1 39 16
M  V30 41 1 40 16
M  V30 42 1 41 18
M  V30 43 1 42 21
M  V30 44 1 43 22
M  V30 45 1 44 22
M  V30 46 1 45 22
M  V30 47 1 46 23
M  V30 48 1 47 23
M  V30 49 1 48 23
M  V30 50 1 49 24
M  V30 51 1 50 25
M  V30 52 1 51 25
M  V30 END BOND
M  V30 END CTAB
M  END
>  <i_epik_Tot_Q>  (1) 
0

>  <i_epik_Tot_abs_Q>  (1) 
0

>  <i_i_glide_confnum>  (1) 
423

>  <i_i_glide_lignum>  (1) 
99

>  <i_i_glide_posenum>  (1) 
136

>  <i_i_glide_rotatable_bonds>  (1) 
10

>  <i_lp_mmshare_version>  (1) 
72125

>  <i_m_source_file_index>  (1) 
48

>  <i_f3d_flags>  (1) 
0

>  <num_sample>  (1) 
100

>  <b_lp_Chiralities_Consistent>  (1) 
1

>  <r_epik_Charging_Adjusted_Penalty>  (1) 
0

>  <r_epik_Ionization_Penalty>  (1) 
1.6598549338111207e-05

>  <r_epik_Ionization_Penalty_Charging>  (1) 
0

>  <r_epik_Ionization_Penalty_Neutral>  (1) 
1.6598549338111207e-05

>  <r_epik_State_Penalty>  (1) 
-0

>  <r_glide_ring_energy>  (1) 
0

>  <r_i_docking_score>  (1) 
-6.9535357159286573

>  <r_i_glide_ecoul>  (1) 
-0.95299559181970173

>  <r_i_glide_eff_state_penalty>  (1) 
-0

>  <r_i_glide_einternal>  (1) 
3.6037796658982035

>  <r_i_glide_emodel>  (1) 
-66.511639836257658

>  <r_i_glide_emodel_strain>  (1) 
0.19102720793122785

>  <r_i_glide_energy>  (1) 
-45.994483511790463

>  <r_i_glide_erotb>  (1) 
1.1691057722696085

>  <r_i_glide_esite>  (1) 
0

>  <r_i_glide_evdw>  (1) 
-45.041487919970763

>  <r_i_glide_gscore>  (1) 
-6.9535357159286573

>  <r_i_glide_gscore_strain>  (1) 
0

>  <r_i_glide_hbond>  (1) 
-0.10862502739152746

>  <r_i_glide_ligand_efficiency>  (1) 
-0.2781414286371463

>  <r_i_glide_ligand_efficiency_ln>  (1) 
-1.6481963453252118

>  <r_i_glide_ligand_efficiency_sa>  (1) 
-0.81329047106688379

>  <r_i_glide_lipo>  (1) 
-3.609893968129684

>  <r_i_glide_metal>  (1) 
-0

>  <r_i_glide_rewards>  (1) 
-2.0090987579055608

>  <r_lp_Energy>  (1) 
21.981998999999998

>  <r_lp_tautomer_probability>  (1) 
1

>  <s_epik_cmdline>  (1) 
J2VwaWtfcHl0aG9uJywgJy1waHQnLCAnMS4wJywgJy1waCcsICc3LjQnLCAnLXRuJywgJzgnLCAnLW1hJywgJzUwMCcsICctaW1hZScsICc8aW5maWxlLm1hZT4nLCAnLW9tYWUnLCAnPG91dGZpbGUubWFlPic=

>  <s_epik_input>  (1) 
W09IXVtDSDJdQzE9W0NIXVtDQEhdKFtDSDJdW0NIMl1DMT1PKVtDSDJdW0NIMl1TXEMoW0NIM10pPUMoW09IXSlcW0NAQEhdKFtPSF0pYyhbY0hdW2NIXTIpW2NIXVtjSF1jMltDSDNd

>  <s_glide_docking_method>  (1) 
confgen

>  <s_i_glide_gridfile>  (1) 
gpcr_5ht2c_6bqh_protein_autoprepared_prepared

>  <s_lp_Force_Field>  (1) 
S-OPLS

>  <s_lp_Variant>  (1) 
DiffSBDD_47-1

>  <s_m_source_file>  (1) 
generated_GPCR_5HT2C_ligand_DiffSBDD_2026-06-23_prepared.sdf

>  <GenAI_Model>  (1) 
DiffSBDD

>  <Protein>  (1) 
GPCR_5HT2C

$$$$
DiffSBDD_12
     RDKit          3D

  0  0  0  0  0  0  0  0  0  0999 V3000
M  V30 BEGIN CTAB
M  V30 COUNTS 68 70 0 0 1
M  V30 BEGIN ATOM
M  V30 1 C 39.084930 29.122937 51.336486 0 CFG=1
M  V30 2 C 39.466017 29.386521 59.325840 0
M  V30 3 N 38.434964 28.907262 52.650939 0 CFG=2 CHG=1
M  V30 4 C 37.647601 25.244890 57.739212 0
M  V30 5 O 37.154618 30.514322 54.695675 0
M  V30 6 O 41.083334 30.537733 50.967735 0
M  V30 7 N 39.753597 31.650776 62.574636 0 CHG=-1
M  V30 8 C 41.032507 32.083799 62.427321 0
M  V30 9 O 38.971255 32.115500 60.166634 0
M  V30 10 C 39.163837 29.714980 53.638061 0 CFG=1
M  V30 11 C 41.105027 31.150696 65.571947 0
M  V30 12 S 39.633248 27.582409 56.148955 0
M  V30 13 C 39.296299 28.234029 58.711061 0
M  V30 14 C 38.205390 27.515251 53.102227 0
M  V30 15 C 41.060214 32.497227 64.882739 0 CFG=1
M  V30 16 C 38.091524 28.419896 55.510933 0 CFG=1
M  V30 17 O 39.804112 26.290314 55.465861 0
M  V30 18 O 41.465153 32.852442 67.131551 0
M  V30 19 C 39.639037 30.962891 52.896940 0
M  V30 20 C 41.889326 33.316718 65.856843 0 CFG=2
M  V30 21 C 39.434563 29.542182 60.842136 0
M  V30 22 N 40.947374 31.495587 66.975479 0
M  V30 23 O 41.645019 32.137730 61.367769 0
M  V30 24 O 37.414262 31.001496 61.767764 0
M  V30 25 C 38.375292 29.841869 54.955587 0 CFG=2
M  V30 26 C 37.419497 27.540544 54.421940 0
M  V30 27 C 38.970167 25.789947 58.294087 0
M  V30 28 C 39.267555 27.213975 57.874244 0
M  V30 29 O 40.746970 28.537761 56.167767 0
M  V30 30 C 39.748235 30.525654 51.419498 0 CFG=2
M  V30 31 C 40.045146 28.006402 50.946550 0
M  V30 32 C 41.695846 34.835376 65.747211 0
M  V30 33 S 38.798583 31.227407 61.326097 0
M  V30 34 N 41.666593 32.485309 63.548274 0
M  V30 35 H 38.333332 29.099209 50.567799 0
M  V30 36 H 39.645161 30.284522 58.758453 0
M  V30 37 H 37.448504 24.247931 58.132670 0
M  V30 38 H 36.810836 25.887597 58.010036 0
M  V30 39 H 37.669627 25.164460 56.653461 0
M  V30 40 H 36.786367 30.858832 55.506423 0
M  V30 41 H 41.100296 30.721691 50.039717 0
M  V30 42 H 40.045136 29.160986 53.875490 0
M  V30 43 H 40.320973 30.470148 65.236906 0
M  V30 44 H 42.072763 30.668619 65.428507 0
M  V30 45 H 37.645096 26.969730 52.344803 0
M  V30 46 H 39.151364 26.990555 53.223359 0
M  V30 47 H 40.045105 32.888963 64.862131 0
M  V30 48 H 37.445238 28.520805 56.381318 0
M  V30 49 H 38.902447 31.759277 52.995863 0
M  V30 50 H 40.575918 31.337704 53.305964 0
M  V30 51 H 42.947876 33.071611 65.749748 0
M  V30 52 H 38.845372 28.776293 61.342972 0
M  V30 53 H 40.455578 29.460459 61.206094 0
M  V30 54 H 41.530329 30.909585 67.557086 0
M  V30 55 H 38.942388 30.431041 55.676858 0
M  V30 56 H 36.445133 27.944594 54.179156 0
M  V30 57 H 37.246652 26.529243 54.786360 0
M  V30 58 H 39.796350 25.157531 57.968320 0
M  V30 59 H 38.956306 25.737800 59.367759 0
M  V30 60 H 39.245150 31.240352 50.770802 0
M  V30 61 H 40.445128 28.195003 49.953796 0
M  V30 62 H 40.845135 28.005663 51.677692 0
M  V30 63 H 39.582322 27.020168 50.908156 0
M  V30 64 H 42.041182 35.210327 64.782385 0
M  V30 65 H 40.645043 35.106621 65.856516 0
M  V30 66 H 42.255252 35.356237 66.524247 0
M  V30 67 H 42.617701 32.809701 63.468669 0
M  V30 68 H 37.523856 29.340677 52.608545 0
M  V30 END ATOM
M  V30 BEGIN BOND
M  V30 1 1 3 1
M  V30 2 1 8 7
M  V30 3 1 10 3
M  V30 4 2 13 2
M  V30 5 1 14 3
M  V30 6 1 15 11
M  V30 7 1 16 12
M  V30 8 2 17 12
M  V30 9 1 19 10
M  V30 10 1 20 15
M  V30 11 1 20 18
M  V30 12 1 21 2
M  V30 13 1 22 11
M  V30 14 1 22 18
M  V30 15 2 23 8
M  V30 16 1 25 5
M  V30 17 1 25 10
M  V30 18 1 25 16
M  V30 19 1 26 14
M  V30 20 1 26 16
M  V30 21 1 27 4
M  V30 22 1 28 12
M  V30 23 2 28 13
M  V30 24 1 28 27
M  V30 25 2 29 12
M  V30 26 1 30 1
M  V30 27 1 30 6
M  V30 28 1 30 19
M  V30 29 1 31 1
M  V30 30 1 32 20
M  V30 31 1 33 7
M  V30 32 2 33 9
M  V30 33 1 33 21
M  V30 34 2 33 24
M  V30 35 1 34 8
M  V30 36 1 34 15
M  V30 37 1 1 35 CFG=3
M  V30 38 1 36 2
M  V30 39 1 37 4
M  V30 40 1 38 4
M  V30 41 1 39 4
M  V30 42 1 40 5
M  V30 43 1 41 6
M  V30 44 1 10 42 CFG=1
M  V30 45 1 43 11
M  V30 46 1 44 11
M  V30 47 1 45 14
M  V30 48 1 46 14
M  V30 49 1 15 47 CFG=3
M  V30 50 1 16 48 CFG=1
M  V30 51 1 49 19
M  V30 52 1 50 19
M  V30 53 1 20 51 CFG=3
M  V30 54 1 52 21
M  V30 55 1 53 21
M  V30 56 1 54 22
M  V30 57 1 25 55 CFG=1
M  V30 58 1 56 26
M  V30 59 1 57 26
M  V30 60 1 58 27
M  V30 61 1 59 27
M  V30 62 1 30 60 CFG=3
M  V30 63 1 61 31
M  V30 64 1 62 31
M  V30 65 1 63 31
M  V30 66 1 64 32
M  V30 67 1 65 32
M  V30 68 1 66 32
M  V30 69 1 67 34
M  V30 70 1 3 68 CFG=3
M  V30 END BOND
M  V30 END CTAB
M  END
>  <i_epik_Tot_Q>  (1) 
0

>  <i_epik_Tot_abs_Q>  (1) 
2

>  <i_i_glide_confnum>  (1) 
968

>  <i_i_glide_lignum>  (1) 
20

>  <i_i_glide_posenum>  (1) 
210

>  <i_i_glide_rotatable_bonds>  (1) 
11

>  <i_lp_mmshare_version>  (1) 
72125

>  <i_m_source_file_index>  (1) 
13

>  <i_f3d_flags>  (1) 
0

>  <num_sample>  (1) 
100

>  <b_lp_Chiralities_Consistent>  (1) 
1

>  <r_epik_Charging_Adjusted_Penalty>  (1) 
0.60912623126161669

>  <r_epik_Ionization_Penalty>  (1) 
0.30573665464692801

>  <r_epik_Ionization_Penalty_Charging>  (1) 
0.30464155940026277

>  <r_epik_Ionization_Penalty_Neutral>  (1) 
0.0010950952466652615

>  <r_epik_State_Penalty>  (1) 
0.30448467186135392

>  <r_glide_ring_energy>  (1) 
0

>  <r_i_docking_score>  (1) 
-6.9529952339158916

>  <r_i_glide_ecoul>  (1) 
-8.9489871172265545

>  <r_i_glide_eff_state_penalty>  (1) 
0.30448467186135392

>  <r_i_glide_einternal>  (1) 
3.9823657958952987

>  <r_i_glide_emodel>  (1) 
-57.781789270804545

>  <r_i_glide_emodel_strain>  (1) 
1.9364319658001037

>  <r_i_glide_energy>  (1) 
-47.11501581419823

>  <r_i_glide_erotb>  (1) 
0.67758354065758886

>  <r_i_glide_esite>  (1) 
-0.0546735054180984

>  <r_i_glide_evdw>  (1) 
-38.166028696971672

>  <r_i_glide_gscore>  (1) 
-7.2574799057772452

>  <r_i_glide_gscore_strain>  (1) 
0

>  <r_i_glide_hbond>  (1) 
-0.11015774284151678

>  <r_i_glide_ligand_efficiency>  (1) 
-0.20449985982105565

>  <r_i_glide_ligand_efficiency_ln>  (1) 
-1.536111672082398

>  <r_i_glide_ligand_efficiency_sa>  (1) 
-0.66250015923588301

>  <r_i_glide_lipo>  (1) 
-4.1210498786163789

>  <r_i_glide_metal>  (1) 
-0

>  <r_i_glide_rewards>  (1) 
-0.39853281712627431

>  <r_lp_Energy>  (1) 
-7.8299149999999997

>  <s_epik_Chemistry_Notes>  (1) 
This compound has a N-S or N-O group and may undergo hydrolysis at high or low pH.

>  <s_epik_cmdline>  (1) 
J2VwaWtfcHl0aG9uJywgJy1waHQnLCAnMS4wJywgJy1waCcsICc3LjQnLCAnLXRuJywgJzgnLCAnLW1hJywgJzUwMCcsICctaW1hZScsICc8aW5maWxlLm1hZT4nLCAnLW9tYWUnLCAnPG91dGZpbGUubWFlPic=

>  <s_epik_input>  (1) 
W0NIM11bQ0BASF0xW0NASF0oW09IXSlbQ0gyXVtDQEhdKE4xMilbQ0BASF0oW09IXSlbQ0BASF0oW0NIMl1bQ0gyXTIpUyg9TykoPU8pQyhbQ0gyXVtDSDNdKT1DPVtDSF1bQ0gyXVMoPU8pKD1PKVtOSF1DKD1PKVtOSF1bQ0BIXTNbQ0gyXVtOSF1PW0NAQEhdM1tDSDNd

>  <s_glide_docking_method>  (1) 
confgen

>  <s_i_glide_gridfile>  (1) 
gpcr_5ht2c_6bqh_protein_autoprepared_prepared

>  <s_lp_Force_Field>  (1) 
S-OPLS

>  <s_lp_Variant>  (1) 
DiffSBDD_12-2

>  <s_m_source_file>  (1) 
generated_GPCR_5HT2C_ligand_DiffSBDD_2026-06-23_prepared.sdf

>  <GenAI_Model>  (1) 
DiffSBDD

>  <Protein>  (1) 
GPCR_5HT2C

$$$$
DiffSBDD_12
     RDKit          3D

  0  0  0  0  0  0  0  0  0  0999 V3000
M  V30 BEGIN CTAB
M  V30 COUNTS 68 70 0 0 1
M  V30 BEGIN ATOM
M  V30 1 C 39.086859 29.119551 51.332120 0 CFG=1
M  V30 2 C 39.449047 29.379562 59.324588 0
M  V30 3 N 38.435534 28.898546 52.644278 0 CFG=2 CHG=1
M  V30 4 C 37.641299 25.211518 57.614887 0
M  V30 5 O 37.155312 30.506734 54.677725 0
M  V30 6 O 41.079153 30.537987 50.954687 0
M  V30 7 N 39.645996 31.454438 62.680612 0 CHG=-1
M  V30 8 C 40.951880 31.821176 62.688876 0
M  V30 9 O 39.086807 32.114093 60.249927 0
M  V30 10 C 39.164563 29.703845 53.632752 0 CFG=1
M  V30 11 C 40.574087 30.202541 65.435864 0
M  V30 12 S 39.611221 27.570310 56.146669 0
M  V30 13 C 39.258892 28.243830 58.694405 0
M  V30 14 C 38.206636 27.503367 53.089647 0
M  V30 15 C 40.837376 31.670758 65.168440 0 CFG=1
M  V30 16 C 38.078079 28.405507 55.496060 0 CFG=1
M  V30 17 O 39.797600 26.277193 55.469377 0
M  V30 18 O 41.113324 31.273698 67.434484 0
M  V30 19 C 39.639340 30.956712 52.895309 0
M  V30 20 C 41.713129 31.992260 66.363919 0 CFG=2
M  V30 21 C 39.419517 29.503944 60.835646 0
M  V30 22 N 40.327344 30.181815 66.866866 0
M  V30 23 O 41.633575 32.052614 61.694078 0
M  V30 24 O 37.359747 30.967596 61.651322 0
M  V30 25 C 38.370227 29.829265 54.947361 0 CFG=2
M  V30 26 C 37.420024 27.519157 54.408046 0
M  V30 27 C 38.873144 25.810046 58.305490 0
M  V30 28 C 39.215020 27.220560 57.869784 0
M  V30 29 O 40.715719 28.537749 56.167790 0
M  V30 30 C 39.748542 30.522669 51.416847 0 CFG=2
M  V30 31 C 40.045011 28.003744 50.934869 0
M  V30 32 C 41.799809 33.486637 66.695160 0
M  V30 33 S 38.782591 31.172133 61.338525 0
M  V30 34 N 41.532762 31.926802 63.901027 0
M  V30 35 H 38.332788 29.102056 50.567783 0
M  V30 36 H 39.645195 30.284367 58.773506 0
M  V30 37 H 37.381908 24.255451 58.071546 0
M  V30 38 H 36.776642 25.868878 57.705258 0
M  V30 39 H 37.818131 25.019959 56.558517 0
M  V30 40 H 36.781562 30.851577 55.485308 0
M  V30 41 H 41.372383 31.438270 50.900053 0
M  V30 42 H 40.045136 29.150266 53.873849 0
M  V30 43 H 39.724165 29.807265 64.881053 0
M  V30 44 H 41.451415 29.597029 65.205863 0
M  V30 45 H 37.645113 26.962935 52.328192 0
M  V30 46 H 39.152418 26.977233 53.206092 0
M  V30 47 H 39.914779 32.248401 65.231038 0
M  V30 48 H 37.421893 28.506446 56.359749 0
M  V30 49 H 38.896604 31.747600 52.996527 0
M  V30 50 H 40.574407 31.336383 53.306452 0
M  V30 51 H 42.716263 31.589109 66.215004 0
M  V30 52 H 38.845117 28.725426 61.332193 0
M  V30 53 H 40.444936 29.422192 61.188037 0
M  V30 54 H 40.682523 29.332916 67.286057 0
M  V30 55 H 38.933717 30.413179 55.677186 0
M  V30 56 H 36.445127 27.916733 54.167904 0
M  V30 57 H 37.256137 26.504767 54.770744 0
M  V30 58 H 39.748745 25.182249 58.137876 0
M  V30 59 H 38.680839 25.815247 59.367760 0
M  V30 60 H 39.245181 31.233882 50.764955 0
M  V30 61 H 40.445147 28.197736 49.943058 0
M  V30 62 H 40.846196 27.998073 51.663265 0
M  V30 63 H 39.582297 27.018263 50.890593 0
M  V30 64 H 42.242896 34.046810 65.871921 0
M  V30 65 H 40.811656 33.904109 66.888996 0
M  V30 66 H 42.412691 33.655703 67.579506 0
M  V30 67 H 42.503629 32.194492 63.948308 0
M  V30 68 H 37.528154 29.340256 52.602540 0
M  V30 END ATOM
M  V30 BEGIN BOND
M  V30 1 1 3 1
M  V30 2 1 8 7
M  V30 3 1 10 3
M  V30 4 2 13 2
M  V30 5 1 14 3
M  V30 6 1 15 11
M  V30 7 1 16 12
M  V30 8 2 17 12
M  V30 9 1 19 10
M  V30 10 1 20 15
M  V30 11 1 20 18
M  V30 12 1 21 2
M  V30 13 1 22 11
M  V30 14 1 22 18
M  V30 15 2 23 8
M  V30 16 1 25 5
M  V30 17 1 25 10
M  V30 18 1 25 16
M  V30 19 1 26 14
M  V30 20 1 26 16
M  V30 21 1 27 4
M  V30 22 1 28 12
M  V30 23 2 28 13
M  V30 24 1 28 27
M  V30 25 2 29 12
M  V30 26 1 30 1
M  V30 27 1 30 6
M  V30 28 1 30 19
M  V30 29 1 31 1
M  V30 30 1 32 20
M  V30 31 1 33 7
M  V30 32 2 33 9
M  V30 33 1 33 21
M  V30 34 2 33 24
M  V30 35 1 34 8
M  V30 36 1 34 15
M  V30 37 1 1 35 CFG=3
M  V30 38 1 36 2
M  V30 39 1 37 4
M  V30 40 1 38 4
M  V30 41 1 39 4
M  V30 42 1 40 5
M  V30 43 1 41 6
M  V30 44 1 10 42 CFG=1
M  V30 45 1 43 11
M  V30 46 1 44 11
M  V30 47 1 45 14
M  V30 48 1 46 14
M  V30 49 1 15 47 CFG=1
M  V30 50 1 16 48 CFG=1
M  V30 51 1 49 19
M  V30 52 1 50 19
M  V30 53 1 20 51 CFG=3
M  V30 54 1 52 21
M  V30 55 1 53 21
M  V30 56 1 54 22
M  V30 57 1 25 55 CFG=1
M  V30 58 1 56 26
M  V30 59 1 57 26
M  V30 60 1 58 27
M  V30 61 1 59 27
M  V30 62 1 30 60 CFG=3
M  V30 63 1 61 31
M  V30 64 1 62 31
M  V30 65 1 63 31
M  V30 66 1 64 32
M  V30 67 1 65 32
M  V30 68 1 66 32
M  V30 69 1 67 34
M  V30 70 1 3 68 CFG=3
M  V30 END BOND
M  V30 END CTAB
M  END
>  <i_epik_Tot_Q>  (1) 
0

>  <i_epik_Tot_abs_Q>  (1) 
2

>  <i_i_glide_confnum>  (1) 
81

>  <i_i_glide_lignum>  (1) 
20

>  <i_i_glide_posenum>  (1) 
308

>  <i_i_glide_rotatable_bonds>  (1) 
11

>  <i_lp_mmshare_version>  (1) 
72125

>  <i_m_source_file_index>  (1) 
13

>  <i_f3d_flags>  (1) 
0

>  <num_sample>  (1) 
100

>  <b_lp_Chiralities_Consistent>  (1) 
1

>  <r_epik_Charging_Adjusted_Penalty>  (1) 
0.60912623126161669

>  <r_epik_Ionization_Penalty>  (1) 
0.30573665464692801

>  <r_epik_Ionization_Penalty_Charging>  (1) 
0.30464155940026277

>  <r_epik_Ionization_Penalty_Neutral>  (1) 
0.0010950952466652615

>  <r_epik_State_Penalty>  (1) 
0.30448467186135392

>  <r_glide_ring_energy>  (1) 
0

>  <r_i_docking_score>  (1) 
-6.9495905690179045

>  <r_i_glide_ecoul>  (1) 
-10.367918467966607

>  <r_i_glide_eff_state_penalty>  (1) 
0.30448467186135392

>  <r_i_glide_einternal>  (1) 
4.0885263279737307

>  <r_i_glide_emodel>  (1) 
-60.844123623065101

>  <r_i_glide_emodel_strain>  (1) 
0.76003587222848523

>  <r_i_glide_energy>  (1) 
-49.060880930617571

>  <r_i_glide_erotb>  (1) 
0.67758354065758886

>  <r_i_glide_esite>  (1) 
-0.049216679006814548

>  <r_i_glide_evdw>  (1) 
-38.692962462650968

>  <r_i_glide_gscore>  (1) 
-7.2540752408792581

>  <r_i_glide_gscore_strain>  (1) 
0

>  <r_i_glide_hbond>  (1) 
-0.1142577640298882

>  <r_i_glide_ligand_efficiency>  (1) 
-0.20439972261817366

>  <r_i_glide_ligand_efficiency_ln>  (1) 
-1.5353594861088169

>  <r_i_glide_ligand_efficiency_sa>  (1) 
-0.66217575357167957

>  <r_i_glide_lipo>  (1) 
-3.9632284224130303

>  <r_i_glide_metal>  (1) 
-0

>  <r_i_glide_rewards>  (1) 
-0.31512002275957463

>  <r_lp_Energy>  (1) 
-7.8299149999999997

>  <s_epik_Chemistry_Notes>  (1) 
This compound has a N-S or N-O group and may undergo hydrolysis at high or low pH.

>  <s_epik_cmdline>  (1) 
J2VwaWtfcHl0aG9uJywgJy1waHQnLCAnMS4wJywgJy1waCcsICc3LjQnLCAnLXRuJywgJzgnLCAnLW1hJywgJzUwMCcsICctaW1hZScsICc8aW5maWxlLm1hZT4nLCAnLW9tYWUnLCAnPG91dGZpbGUubWFlPic=

>  <s_epik_input>  (1) 
W0NIM11bQ0BASF0xW0NASF0oW09IXSlbQ0gyXVtDQEhdKE4xMilbQ0BASF0oW09IXSlbQ0BASF0oW0NIMl1bQ0gyXTIpUyg9TykoPU8pQyhbQ0gyXVtDSDNdKT1DPVtDSF1bQ0gyXVMoPU8pKD1PKVtOSF1DKD1PKVtOSF1bQ0BIXTNbQ0gyXVtOSF1PW0NAQEhdM1tDSDNd

>  <s_glide_docking_method>  (1) 
confgen

>  <s_i_glide_gridfile>  (1) 
gpcr_5ht2c_6bqh_protein_autoprepared_prepared

>  <s_lp_Force_Field>  (1) 
S-OPLS

>  <s_lp_Variant>  (1) 
DiffSBDD_12-2

>  <s_m_source_file>  (1) 
generated_GPCR_5HT2C_ligand_DiffSBDD_2026-06-23_prepared.sdf

>  <GenAI_Model>  (1) 
DiffSBDD

>  <Protein>  (1) 
GPCR_5HT2C

$$$$
DiffSBDD_75
     RDKit          3D

  0  0  0  0  0  0  0  0  0  0999 V3000
M  V30 BEGIN CTAB
M  V30 COUNTS 76 77 0 0 1
M  V30 BEGIN ATOM
M  V30 1 C 38.807535 30.378572 61.810749 0
M  V30 2 C 41.015278 28.488546 62.821780 0
M  V30 3 O 41.022600 27.040694 56.848497 0
M  V30 4 C 37.183241 32.286194 60.042524 0
M  V30 5 C 38.908242 27.260834 55.090875 0 CFG=1
M  V30 6 C 41.349555 33.710774 65.427874 0
M  V30 7 C 40.177426 28.110205 57.199857 0 CFG=2
M  V30 8 C 41.253784 32.782970 66.486776 0
M  V30 9 O 37.246501 26.946070 53.367749 0
M  V30 10 C 39.156944 29.841616 55.595712 0 CFG=1
M  V30 11 O 40.444276 35.028258 69.294002 0
M  V30 12 S 40.410305 29.212975 59.727297 0
M  V30 13 C 35.871765 33.086531 60.003131 0
M  V30 14 C 40.742838 34.598098 68.033083 0
M  V30 15 C 39.723397 27.915575 58.657966 0
M  V30 16 C 41.649849 33.229347 64.022873 0
M  V30 17 C 41.151246 35.084153 65.676136 0
M  V30 18 O 36.845185 30.138125 54.909843 0
M  V30 19 C 38.977117 30.928373 56.672577 0
M  V30 20 C 39.029622 28.389080 56.171010 0 CFG=1
M  V30 21 O 34.868795 32.320232 59.367757 0
M  V30 22 O 39.807951 28.140084 62.157293 0
M  V30 23 O 41.647573 32.143194 61.416868 0
M  V30 24 C 38.668825 34.072810 60.694598 0
M  V30 25 N 38.174388 32.730087 61.045722 0
M  V30 26 C 40.535864 32.184388 61.936735 0
M  V30 27 C 40.950972 33.228005 67.788543 0
M  V30 28 C 40.373327 32.658504 63.383992 0
M  V30 29 C 39.263379 31.730687 61.185706 0 CFG=1
M  V30 30 C 40.845416 35.526682 66.976712 0
M  V30 31 C 38.325182 29.087372 53.323901 0
M  V30 32 C 39.338668 29.058902 61.182701 0 CFG=1
M  V30 33 C 38.340370 25.948046 55.688104 0
M  V30 34 C 38.180983 30.126260 54.439679 0 CFG=2
M  V30 35 C 38.076612 27.692013 53.875267 0
M  V30 36 H 39.010217 30.362180 62.877828 0
M  V30 37 H 37.724338 30.319789 61.840966 0
M  V30 38 H 41.258368 27.705500 63.538993 0
M  V30 39 H 41.851423 28.557051 62.127943 0
M  V30 40 H 40.938651 29.425590 63.372186 0
M  V30 41 H 40.541990 26.228494 56.886822 0
M  V30 42 H 37.635564 32.292809 59.050779 0
M  V30 43 H 36.901218 31.249207 60.208002 0
M  V30 44 H 40.875308 28.937953 57.171525 0
M  V30 45 H 41.406500 31.729344 66.299340 0
M  V30 46 H 37.638811 29.289988 52.502029 0
M  V30 47 H 40.160574 29.954020 55.181178 0
M  V30 48 H 40.415865 35.971199 69.362112 0
M  V30 49 H 35.535389 33.323390 61.014294 0
M  V30 50 H 36.000359 34.025210 59.463912 0
M  V30 51 H 40.034008 26.949562 59.057849 0
M  V30 52 H 38.637887 27.933008 58.722806 0
M  V30 53 H 42.048690 34.052103 63.428087 0
M  V30 54 H 42.427456 32.464049 64.063827 0
M  V30 55 H 41.225108 35.797730 64.867005 0
M  V30 56 H 36.711761 30.843682 55.534868 0
M  V30 57 H 38.057696 30.782981 57.243277 0
M  V30 58 H 39.804513 30.917791 57.367484 0
M  V30 59 H 38.948649 31.928089 56.235031 0
M  V30 60 H 38.075224 28.383925 56.697991 0
M  V30 61 H 35.118090 32.136936 58.448618 0
M  V30 62 H 37.852682 34.783241 60.577211 0
M  V30 63 H 39.306154 34.500210 61.467739 0
M  V30 64 H 39.231621 34.056823 59.759471 0
M  V30 65 H 40.873852 32.517152 68.598558 0
M  V30 66 H 40.033781 31.821685 63.991931 0
M  V30 67 H 39.578805 33.400511 63.414122 0
M  V30 68 H 39.585887 31.556186 60.164078 0
M  V30 69 H 40.689287 36.578702 67.165059 0
M  V30 70 H 39.333870 29.119500 52.913835 0
M  V30 71 H 39.898518 27.058174 54.681545 0
M  V30 72 H 38.447165 28.589396 60.768095 0
M  V30 73 H 38.393708 25.135507 54.962124 0
M  V30 74 H 38.877765 25.616049 56.575194 0
M  V30 75 H 37.293399 26.064806 55.973559 0
M  V30 76 H 38.389406 31.111310 54.018134 0
M  V30 END ATOM
M  V30 BEGIN BOND
M  V30 1 1 7 3
M  V30 2 1 8 6
M  V30 3 1 13 4
M  V30 4 1 14 11
M  V30 5 1 15 7
M  V30 6 1 15 12
M  V30 7 1 16 6
M  V30 8 2 17 6
M  V30 9 1 19 10
M  V30 10 1 20 5
M  V30 11 1 20 7
M  V30 12 1 20 10
M  V30 13 1 21 13
M  V30 14 1 22 2
M  V30 15 1 25 4
M  V30 16 1 25 24
M  V30 17 2 26 23
M  V30 18 2 27 8
M  V30 19 1 27 14
M  V30 20 1 28 16
M  V30 21 1 28 26
M  V30 22 1 29 1
M  V30 23 1 29 25
M  V30 24 1 29 26
M  V30 25 2 30 14
M  V30 26 1 30 17
M  V30 27 1 32 1
M  V30 28 1 32 12
M  V30 29 1 32 22
M  V30 30 1 33 5
M  V30 31 1 34 10
M  V30 32 1 34 18
M  V30 33 1 34 31
M  V30 34 1 35 5
M  V30 35 2 35 9
M  V30 36 1 35 31
M  V30 37 1 36 1
M  V30 38 1 37 1
M  V30 39 1 38 2
M  V30 40 1 39 2
M  V30 41 1 40 2
M  V30 42 1 41 3
M  V30 43 1 42 4
M  V30 44 1 43 4
M  V30 45 1 7 44 CFG=1
M  V30 46 1 45 8
M  V30 47 1 46 31
M  V30 48 1 10 47 CFG=3
M  V30 49 1 48 11
M  V30 50 1 49 13
M  V30 51 1 50 13
M  V30 52 1 51 15
M  V30 53 1 52 15
M  V30 54 1 53 16
M  V30 55 1 54 16
M  V30 56 1 55 17
M  V30 57 1 56 18
M  V30 58 1 57 19
M  V30 59 1 58 19
M  V30 60 1 59 19
M  V30 61 1 20 60 CFG=1
M  V30 62 1 61 21
M  V30 63 1 62 24
M  V30 64 1 63 24
M  V30 65 1 64 24
M  V30 66 1 65 27
M  V30 67 1 66 28
M  V30 68 1 67 28
M  V30 69 1 29 68 CFG=3
M  V30 70 1 69 30
M  V30 71 1 70 31
M  V30 72 1 5 71 CFG=3
M  V30 73 1 32 72 CFG=3
M  V30 74 1 73 33
M  V30 75 1 74 33
M  V30 76 1 75 33
M  V30 77 1 34 76 CFG=3
M  V30 END BOND
M  V30 END CTAB
M  END
>  <i_epik_Tot_Q>  (1) 
0

>  <i_epik_Tot_abs_Q>  (1) 
0

>  <i_i_glide_confnum>  (1) 
5400

>  <i_i_glide_lignum>  (1) 
174

>  <i_i_glide_posenum>  (1) 
100

>  <i_i_glide_rotatable_bonds>  (1) 
18

>  <i_lp_mmshare_version>  (1) 
72125

>  <i_m_source_file_index>  (1) 
76

>  <i_f3d_flags>  (1) 
0

>  <num_sample>  (1) 
100

>  <b_lp_Chiralities_Consistent>  (1) 
1

>  <r_epik_Charging_Adjusted_Penalty>  (1) 
0.60615279515584763

>  <r_epik_Ionization_Penalty>  (1) 
0.6077244911787385

>  <r_epik_Ionization_Penalty_Charging>  (1) 
0

>  <r_epik_Ionization_Penalty_Neutral>  (1) 
0.6077244911787385

>  <r_epik_State_Penalty>  (1) 
0.60615279515584763

>  <r_glide_ring_energy>  (1) 
0

>  <r_i_docking_score>  (1) 
-6.9378682306390953

>  <r_i_glide_ecoul>  (1) 
-9.1466595666550816

>  <r_i_glide_eff_state_penalty>  (1) 
0.60615279515584763

>  <r_i_glide_einternal>  (1) 
10.063599431694875

>  <r_i_glide_emodel>  (1) 
-69.584284080574577

>  <r_i_glide_emodel_strain>  (1) 
0.035224252768941255

>  <r_i_glide_energy>  (1) 
-53.12423416947982

>  <r_i_glide_erotb>  (1) 
1.0176109525924779

>  <r_i_glide_esite>  (1) 
0

>  <r_i_glide_evdw>  (1) 
-43.977574602824738

>  <r_i_glide_gscore>  (1) 
-7.5440210257949429

>  <r_i_glide_gscore_strain>  (1) 
0

>  <r_i_glide_hbond>  (1) 
-0.27314903885824005

>  <r_i_glide_ligand_efficiency>  (1) 
-0.19822480658968844

>  <r_i_glide_ligand_efficiency_ln>  (1) 
-1.5230160543145621

>  <r_i_glide_ligand_efficiency_sa>  (1) 
-0.64840648667917911

>  <r_i_glide_lipo>  (1) 
-3.7551694924083616

>  <r_i_glide_metal>  (1) 
-0

>  <r_i_glide_rewards>  (1) 
-0.96243578198131985

>  <r_lp_Energy>  (1) 
23.807221999999999

>  <r_lp_tautomer_probability>  (1) 
0.99999993999736703

>  <s_epik_Chemistry_Notes>  (1) 
This compound contains an acetal/aminal-like group ( X-CH(R)-Y where X, Y are N, S, or O) that may be acid/base labile, releasing an aldehyde.

>  <s_epik_cmdline>  (1) 
J2VwaWtfcHl0aG9uJywgJy1waHQnLCAnMS4wJywgJy1waCcsICc3LjQnLCAnLXRuJywgJzgnLCAnLW1hJywgJzUwMCcsICctaW1hZScsICc8aW5maWxlLm1hZT4nLCAnLW9tYWUnLCAnPG91dGZpbGUubWFlPic=

>  <s_epik_input>  (1) 
W2NIXTFbY0hdYyhbT0hdKVtjSF1bY0hdYzFbQ0gyXVtDSDJdQyg9TylbQ0BIXShOKFtDSDNdKVtDSDJdW0NIMl1bT0hdKVtDSDJdW0NASF0oT1tDSDNdKVNbQ0gyXVtDQEBIXShbT0hdKVtDQEhdMltDQEBIXShbQ0gzXSlbQ0BIXShbT0hdKVtDSDJdQyhbT0hdKT1DMltDSDNd

>  <s_glide_docking_method>  (1) 
confgen

>  <s_i_glide_gridfile>  (1) 
gpcr_5ht2c_6bqh_protein_autoprepared_prepared

>  <s_lp_Force_Field>  (1) 
S-OPLS

>  <s_lp_Variant>  (1) 
DiffSBDD_75-11

>  <s_m_source_file>  (1) 
generated_GPCR_5HT2C_ligand_DiffSBDD_2026-06-23_prepared.sdf

>  <GenAI_Model>  (1) 
DiffSBDD

>  <Protein>  (1) 
GPCR_5HT2C

$$$$
DiffSBDD_53
     RDKit          3D

  0  0  0  0  0  0  0  0  0  0999 V3000
M  V30 BEGIN CTAB
M  V30 COUNTS 82 86 0 0 1
M  V30 BEGIN ATOM
M  V30 1 C 37.848621 30.756467 58.650636 0
M  V30 2 C 40.284332 29.719717 64.298027 0
M  V30 3 C 40.129485 35.688278 61.918229 0
M  V30 4 C 36.791659 31.121798 59.707312 0
M  V30 5 C 41.223973 33.359077 63.706590 0
M  V30 6 C 39.739354 30.243255 53.605641 0
M  V30 7 C 38.299810 27.173961 56.420759 0
M  V30 8 N 37.246738 30.137755 57.447811 0 CHG=1
M  V30 9 N 37.770700 36.937755 63.645767 0 CHG=1
M  V30 10 C 43.224859 29.522636 64.186044 0
M  V30 11 C 38.219787 29.883911 56.351084 0 CFG=1
M  V30 12 N 37.322080 30.937754 61.051493 0
M  V30 13 C 41.057313 33.400468 62.370328 0
M  V30 14 C 41.266341 32.025208 64.409481 0
M  V30 15 C 38.928619 28.542631 56.545429 0 CFG=1
M  V30 16 C 40.241393 31.195903 62.254615 0 CFG=1
M  V30 17 C 37.544368 29.965052 54.968013 0 CFG=2
M  V30 18 C 39.125649 37.413542 63.317221 0
M  V30 19 O 39.964797 28.593376 57.503991 0
M  V30 20 C 38.151514 32.001251 61.534642 0
M  V30 21 C 41.082174 29.111770 65.465940 0
M  V30 22 C 42.395315 28.493489 64.965905 0
M  V30 23 C 41.056097 30.787724 63.521869 0
M  V30 24 O 38.942609 31.588110 62.608729 0
M  V30 25 C 42.393162 30.170925 63.061895 0
M  V30 26 C 38.455810 29.417916 53.839016 0 CFG=2
M  V30 27 O 37.245138 31.312901 54.657680 0
M  V30 28 C 40.847422 35.797408 64.281138 0
M  V30 29 N 38.798501 27.984860 54.044853 0 CFG=2 CHG=1
M  V30 30 O 40.909739 32.247431 61.641960 0
M  V30 31 C 37.800292 27.035558 53.498081 0
M  V30 32 C 39.331149 27.631847 55.395136 0 CFG=2
M  V30 33 C 41.354925 34.560952 64.524494 0
M  V30 34 C 41.047518 34.610918 61.526689 0
M  V30 35 C 40.050313 36.249074 63.129666 0
M  V30 36 H 38.567619 30.054272 59.071578 0
M  V30 37 H 38.407325 31.652095 58.375020 0
M  V30 38 H 39.344365 30.137755 64.666262 0
M  V30 39 H 40.045138 28.917736 63.600785 0
M  V30 40 H 39.516435 36.086355 61.121591 0
M  V30 41 H 36.413865 32.135401 59.561725 0
M  V30 42 H 35.933348 30.455321 59.614813 0
M  V30 43 H 39.512788 31.290712 53.401215 0
M  V30 44 H 40.413458 30.216504 54.462073 0
M  V30 45 H 40.289598 29.872672 52.740191 0
M  V30 46 H 38.612605 26.411351 57.132342 0
M  V30 47 H 37.253436 27.110659 56.136150 0
M  V30 48 H 36.540312 30.806857 57.121271 0
M  V30 49 H 37.144425 37.720737 63.763605 0
M  V30 50 H 37.428741 36.344159 62.903738 0
M  V30 51 H 44.100952 29.035107 63.755201 0
M  V30 52 H 43.611732 30.280043 64.866979 0
M  V30 53 H 38.987528 30.660113 56.373289 0
M  V30 54 H 37.791326 30.045150 61.122653 0
M  V30 55 H 42.190227 31.962520 64.982416 0
M  V30 56 H 40.470634 32.075758 65.154163 0
M  V30 57 H 40.172206 30.368567 61.546138 0
M  V30 58 H 36.608906 29.408064 54.967762 0
M  V30 59 H 39.510527 38.045904 64.118968 0
M  V30 60 H 39.108449 38.015768 62.406939 0
M  V30 61 H 40.373685 27.742159 57.576049 0
M  V30 62 H 38.765107 32.410064 60.730437 0
M  V30 63 H 37.513356 32.811168 61.889344 0
M  V30 64 H 40.480507 28.349452 65.962102 0
M  V30 65 H 41.291452 29.872541 66.218271 0
M  V30 66 H 42.173134 27.642367 64.320251 0
M  V30 67 H 42.972495 28.102602 65.804330 0
M  V30 68 H 42.164931 29.383431 62.341798 0
M  V30 69 H 42.988310 30.937767 62.567798 0
M  V30 70 H 37.893305 29.475085 52.907443 0
M  V30 71 H 36.567532 31.660308 55.232988 0
M  V30 72 H 40.999466 36.525855 65.064606 0
M  V30 73 H 36.811739 27.216726 53.913230 0
M  V30 74 H 37.728562 27.137611 52.414610 0
M  V30 75 H 38.080873 26.005275 53.718022 0
M  V30 76 H 40.303450 27.141376 55.376632 0
M  V30 77 H 41.855247 34.436014 65.473986 0
M  V30 78 H 42.045119 35.008064 61.353753 0
M  V30 79 H 40.648342 34.302339 60.567760 0
M  V30 80 H 39.590432 27.844384 53.433455 0
M  V30 81 H 36.773352 29.283385 57.699736 0
M  V30 82 H 37.804467 36.406181 64.504712 0
M  V30 END ATOM
M  V30 BEGIN BOND
M  V30 1 1 4 1
M  V30 2 1 8 1
M  V30 3 1 11 8
M  V30 4 1 12 4
M  V30 5 2 13 5
M  V30 6 1 14 5
M  V30 7 1 15 7
M  V30 8 1 15 11
M  V30 9 1 17 11
M  V30 10 1 18 9
M  V30 11 1 15 19 CFG=1
M  V30 12 1 20 12
M  V30 13 1 21 2
M  V30 14 1 22 10
M  V30 15 1 22 21
M  V30 16 1 23 2
M  V30 17 1 23 14
M  V30 18 1 23 16
M  V30 19 1 24 16
M  V30 20 1 24 20
M  V30 21 1 25 10
M  V30 22 1 25 23
M  V30 23 1 26 6
M  V30 24 1 26 17
M  V30 25 1 27 17
M  V30 26 1 29 26
M  V30 27 1 30 13
M  V30 28 1 30 16
M  V30 29 1 31 29
M  V30 30 1 32 7
M  V30 31 1 32 15
M  V30 32 1 32 29
M  V30 33 1 33 5
M  V30 34 2 33 28
M  V30 35 1 34 3
M  V30 36 1 34 13
M  V30 37 2 35 3
M  V30 38 1 35 18
M  V30 39 1 35 28
M  V30 40 1 36 1
M  V30 41 1 37 1
M  V30 42 1 38 2
M  V30 43 1 39 2
M  V30 44 1 40 3
M  V30 45 1 41 4
M  V30 46 1 42 4
M  V30 47 1 43 6
M  V30 48 1 44 6
M  V30 49 1 45 6
M  V30 50 1 46 7
M  V30 51 1 47 7
M  V30 52 1 48 8
M  V30 53 1 49 9
M  V30 54 1 50 9
M  V30 55 1 51 10
M  V30 56 1 52 10
M  V30 57 1 11 53 CFG=3
M  V30 58 1 54 12
M  V30 59 1 55 14
M  V30 60 1 56 14
M  V30 61 1 16 57 CFG=3
M  V30 62 1 17 58 CFG=1
M  V30 63 1 59 18
M  V30 64 1 60 18
M  V30 65 1 61 19
M  V30 66 1 62 20
M  V30 67 1 63 20
M  V30 68 1 64 21
M  V30 69 1 65 21
M  V30 70 1 66 22
M  V30 71 1 67 22
M  V30 72 1 68 25
M  V30 73 1 69 25
M  V30 74 1 26 70 CFG=3
M  V30 75 1 71 27
M  V30 76 1 72 28
M  V30 77 1 73 31
M  V30 78 1 74 31
M  V30 79 1 75 31
M  V30 80 1 32 76 CFG=3
M  V30 81 1 77 33
M  V30 82 1 78 34
M  V30 83 1 79 34
M  V30 84 1 29 80 CFG=3
M  V30 85 1 81 8
M  V30 86 1 82 9
M  V30 END BOND
M  V30 END CTAB
M  END
>  <i_epik_Tot_Q>  (1) 
3

>  <i_epik_Tot_abs_Q>  (1) 
3

>  <i_i_glide_confnum>  (1) 
117

>  <i_i_glide_lignum>  (1) 
109

>  <i_i_glide_posenum>  (1) 
196

>  <i_i_glide_rotatable_bonds>  (1) 
10

>  <i_lp_mmshare_version>  (1) 
72125

>  <i_m_source_file_index>  (1) 
54

>  <i_f3d_flags>  (1) 
0

>  <num_sample>  (1) 
100

>  <b_lp_Chiralities_Consistent>  (1) 
1

>  <r_epik_Charging_Adjusted_Penalty>  (1) 
0.52217566130243886

>  <r_epik_Ionization_Penalty>  (1) 
0.30399825412207077

>  <r_epik_Ionization_Penalty_Charging>  (1) 
0.29355179195135561

>  <r_epik_Ionization_Penalty_Neutral>  (1) 
0.010446462170715176

>  <r_epik_State_Penalty>  (1) 
0.22862386935108323

>  <r_glide_ring_energy>  (1) 
0.00054235002800224672

>  <r_i_docking_score>  (1) 
-6.9367708527740408

>  <r_i_glide_ecoul>  (1) 
-10.180804843565475

>  <r_i_glide_eff_state_penalty>  (1) 
0.22862386935108323

>  <r_i_glide_einternal>  (1) 
3.1406403830784235

>  <r_i_glide_emodel>  (1) 
-64.854127420135384

>  <r_i_glide_emodel_strain>  (1) 
0.90028986892656349

>  <r_i_glide_energy>  (1) 
-43.53103792542808

>  <r_i_glide_erotb>  (1) 
0.58947078011706677

>  <r_i_glide_esite>  (1) 
-0.10000000000000001

>  <r_i_glide_evdw>  (1) 
-33.350233081862605

>  <r_i_glide_gscore>  (1) 
-7.1653947221251242

>  <r_i_glide_gscore_strain>  (1) 
0

>  <r_i_glide_hbond>  (1) 
-0.57909168712316883

>  <r_i_glide_ligand_efficiency>  (1) 
-0.19819345293640117

>  <r_i_glide_ligand_efficiency_ln>  (1) 
-1.5227751555181932

>  <r_i_glide_ligand_efficiency_sa>  (1) 
-0.64830392680020976

>  <r_i_glide_lipo>  (1) 
-3.0570503421142337

>  <r_i_glide_metal>  (1) 
-0

>  <r_i_glide_rewards>  (1) 
-0.82409109237683653

>  <r_lp_Energy>  (1) 
66.56347199999999

>  <s_epik_Chemistry_Notes>  (1) 
This compound contains an acetal/aminal-like group ( X-CH(R)-Y where X, Y are N, S, or O) that may be acid/base labile, releasing an aldehyde.

>  <s_epik_cmdline>  (1) 
J2VwaWtfcHl0aG9uJywgJy1waHQnLCAnMS4wJywgJy1waCcsICc3LjQnLCAnLXRuJywgJzgnLCAnLW1hJywgJzUwMCcsICctaW1hZScsICc8aW5maWxlLm1hZT4nLCAnLW9tYWUnLCAnPG91dGZpbGUubWFlPic=

>  <s_epik_input>  (1) 
W09IXVtDQEBdMTJbQ0BASF0oW0NIMl0xKU4oW0NIM10pW0NASF0oW0NIM10pW0NASF0oW09IXSlbQ0BIXTJbTkhdW0NIMl1bQ0gyXVtOSF1bQ0gyXU9bQ0BIXTNPQyhbQ0gyXVtDSF09QyhbQ0gyXVtOSDJdKVtDSF09W0NIXTQpPUM0W0NIMl1DMzVbQ0gyXVtDSDJdW0NIMl1bQ0gyXVtDSDJdNQ==

>  <s_glide_docking_method>  (1) 
confgen

>  <s_i_glide_gridfile>  (1) 
gpcr_5ht2c_6bqh_protein_autoprepared_prepared

>  <s_lp_Force_Field>  (1) 
S-OPLS

>  <s_lp_Variant>  (1) 
DiffSBDD_53-1

>  <s_m_source_file>  (1) 
generated_GPCR_5HT2C_ligand_DiffSBDD_2026-06-23_prepared.sdf

>  <GenAI_Model>  (1) 
DiffSBDD

>  <Protein>  (1) 
GPCR_5HT2C

$$$$
DiffSBDD_60
     RDKit          3D

  0  0  0  0  0  0  0  0  0  0999 V3000
M  V30 BEGIN CTAB
M  V30 COUNTS 34 34 0 0 1
M  V30 BEGIN ATOM
M  V30 1 C 39.975415 30.352936 50.803254 0 CFG=2
M  V30 2 C 39.339204 26.251295 57.098620 0
M  V30 3 C 39.245136 29.013725 50.738409 0
M  V30 4 C 39.245137 27.711451 54.508682 0 CFG=2
M  V30 5 S 37.245137 24.620020 56.487568 0
M  V30 6 C 39.931100 28.300989 55.756971 0
M  V30 7 C 38.672597 28.396878 51.794618 0
M  V30 8 C 38.604152 25.656401 55.884013 0 CFG=1
M  V30 9 S 38.674839 29.068201 53.436439 0
M  V30 10 O 39.566638 31.216574 49.767762 0
M  V30 11 C 38.104563 26.762092 54.922417 0
M  V30 12 C 41.458233 30.137754 50.567760 0
M  V30 13 C 40.467526 27.196955 56.676869 0
M  V30 14 C 36.785801 23.710164 54.995020 0
M  V30 15 H 39.822109 30.857200 51.756378 0
M  V30 16 H 39.747300 25.449217 57.715293 0
M  V30 17 H 38.631173 26.792801 57.727935 0
M  V30 18 H 39.200245 28.541658 49.767765 0
M  V30 19 H 39.978625 27.131442 53.946974 0
M  V30 20 H 40.743316 28.967098 55.467238 0
M  V30 21 H 39.219794 28.917875 56.308318 0
M  V30 22 H 38.178008 27.443415 51.672604 0
M  V30 23 H 39.299103 25.008949 55.346884 0
M  V30 24 H 38.782281 30.854050 49.367735 0
M  V30 25 H 37.311040 27.334806 55.399583 0
M  V30 26 H 37.665000 26.316084 54.030111 0
M  V30 27 H 41.811233 29.337747 51.212858 0
M  V30 28 H 41.645122 29.865512 49.529697 0
M  V30 29 H 42.045134 31.020681 50.782356 0
M  V30 30 H 41.245098 26.628755 56.167758 0
M  V30 31 H 40.933857 27.637491 57.558686 0
M  V30 32 H 36.044498 22.957715 55.257808 0
M  V30 33 H 36.363781 24.376046 54.243450 0
M  V30 34 H 37.645141 23.200038 54.567787 0
M  V30 END ATOM
M  V30 BEGIN BOND
M  V30 1 1 3 1
M  V30 2 1 6 4
M  V30 3 2 7 3
M  V30 4 1 8 2
M  V30 5 1 8 5
M  V30 6 1 9 4
M  V30 7 1 9 7
M  V30 8 1 10 1
M  V30 9 1 11 4
M  V30 10 1 11 8
M  V30 11 1 12 1
M  V30 12 1 13 2
M  V30 13 1 13 6
M  V30 14 1 14 5
M  V30 15 1 1 15 CFG=1
M  V30 16 1 16 2
M  V30 17 1 17 2
M  V30 18 1 18 3
M  V30 19 1 4 19 CFG=3
M  V30 20 1 20 6
M  V30 21 1 21 6
M  V30 22 1 22 7
M  V30 23 1 8 23 CFG=3
M  V30 24 1 24 10
M  V30 25 1 25 11
M  V30 26 1 26 11
M  V30 27 1 27 12
M  V30 28 1 28 12
M  V30 29 1 29 12
M  V30 30 1 30 13
M  V30 31 1 31 13
M  V30 32 1 32 14
M  V30 33 1 33 14
M  V30 34 1 34 14
M  V30 END BOND
M  V30 END CTAB
M  END
>  <i_epik_Tot_Q>  (1) 
0

>  <i_epik_Tot_abs_Q>  (1) 
0

>  <i_i_glide_confnum>  (1) 
21

>  <i_i_glide_lignum>  (1) 
133

>  <i_i_glide_posenum>  (1) 
291

>  <i_i_glide_rotatable_bonds>  (1) 
5

>  <i_lp_mmshare_version>  (1) 
72125

>  <i_m_source_file_index>  (1) 
61

>  <i_f3d_flags>  (1) 
0

>  <num_sample>  (1) 
100

>  <b_lp_Chiralities_Consistent>  (1) 
1

>  <r_epik_Charging_Adjusted_Penalty>  (1) 
0

>  <r_epik_Ionization_Penalty>  (1) 
3.7959940703639166e-07

>  <r_epik_Ionization_Penalty_Charging>  (1) 
0

>  <r_epik_Ionization_Penalty_Neutral>  (1) 
3.7959940703639166e-07

>  <r_epik_State_Penalty>  (1) 
-0

>  <r_glide_ring_energy>  (1) 
0

>  <r_i_docking_score>  (1) 
-6.9330350762873234

>  <r_i_glide_ecoul>  (1) 
-3.1968420750515794

>  <r_i_glide_eff_state_penalty>  (1) 
-0

>  <r_i_glide_einternal>  (1) 
1.7516182934319877

>  <r_i_glide_emodel>  (1) 
-38.702662060997085

>  <r_i_glide_emodel_strain>  (1) 
1.2371124423862341

>  <r_i_glide_energy>  (1) 
-28.69554599595002

>  <r_i_glide_erotb>  (1) 
0.95139353164667573

>  <r_i_glide_esite>  (1) 
0

>  <r_i_glide_evdw>  (1) 
-25.498703920898439

>  <r_i_glide_gscore>  (1) 
-6.9330350762873234

>  <r_i_glide_gscore_strain>  (1) 
0

>  <r_i_glide_hbond>  (1) 
-0.32000000000000001

>  <r_i_glide_ligand_efficiency>  (1) 
-0.49521679116338024

>  <r_i_glide_ligand_efficiency_ln>  (1) 
-1.905173359008423

>  <r_i_glide_ligand_efficiency_sa>  (1) 
-1.1935429183121014

>  <r_i_glide_lipo>  (1) 
-3.5438589323501364

>  <r_i_glide_metal>  (1) 
-0

>  <r_i_glide_rewards>  (1) 
-2.2661081682812028

>  <r_lp_Energy>  (1) 
9.9139400000000002

>  <r_lp_tautomer_probability>  (1) 
1

>  <s_epik_cmdline>  (1) 
J2VwaWtfcHl0aG9uJywgJy1waHQnLCAnMS4wJywgJy1waCcsICc3LjQnLCAnLXRuJywgJzgnLCAnLW1hJywgJzUwMCcsICctaW1hZScsICc8aW5maWxlLm1hZT4nLCAnLW9tYWUnLCAnPG91dGZpbGUubWFlPic=

>  <s_epik_input>  (1) 
W09IXVtDQEhdKFtDSDNdKS9bQ0hdPVtDSF1cU1tDQEhdMVtDSDJdW0NIMl1bQ0gyXVtDQEhdKFtDSDJdMSlTW0NIM10=

>  <s_glide_docking_method>  (1) 
confgen

>  <s_i_glide_gridfile>  (1) 
gpcr_5ht2c_6bqh_protein_autoprepared_prepared

>  <s_lp_Force_Field>  (1) 
S-OPLS

>  <s_lp_Variant>  (1) 
DiffSBDD_60-2

>  <s_m_source_file>  (1) 
generated_GPCR_5HT2C_ligand_DiffSBDD_2026-06-23_prepared.sdf

>  <GenAI_Model>  (1) 
DiffSBDD

>  <Protein>  (1) 
GPCR_5HT2C

$$$$
DiffSBDD_33
     RDKit          3D

  0  0  0  0  0  0  0  0  0  0999 V3000
M  V30 BEGIN CTAB
M  V30 COUNTS 36 39 0 0 1
M  V30 BEGIN ATOM
M  V30 1 O 39.985275 26.035377 57.742502 0
M  V30 2 C 37.645137 25.603344 54.948823 0
M  V30 3 C 41.457978 30.389334 49.963472 0
M  V30 4 C 39.785928 28.901287 51.164069 0
M  V30 5 C 38.588546 26.203004 57.629394 0 CFG=2
M  V30 6 O 40.445003 30.937615 52.085783 0
M  V30 7 C 38.957898 28.563559 55.660089 0 CFG=2
M  V30 8 C 37.911557 24.854134 57.220835 0
M  V30 9 N 38.357986 27.807211 54.574535 0
M  V30 10 C 39.726761 30.258984 53.113060 0
M  V30 11 C 39.035409 29.040024 52.475450 0 CFG=2
M  V30 12 F 39.245503 30.963528 50.167758 0
M  V30 13 C 38.019158 26.830511 55.281572 0
M  V30 14 C 38.256273 27.304777 56.594208 0 CFG=1
M  V30 15 C 38.213132 28.772611 56.959797 0
M  V30 16 C 40.206089 30.330806 50.828159 0 CFG=1
M  V30 17 C 39.037101 27.720463 53.285601 0
M  V30 18 C 37.482791 24.601373 55.959634 0
M  V30 19 H 40.165855 25.418149 58.433571 0
M  V30 20 H 37.511789 25.342013 53.909894 0
M  V30 21 H 42.344145 30.137753 50.543719 0
M  V30 22 H 41.367215 29.737773 49.096560 0
M  V30 23 H 41.616125 31.374796 49.563132 0
M  V30 24 H 40.674929 28.288051 51.315327 0
M  V30 25 H 39.190612 28.437720 50.376109 0
M  V30 26 H 38.191898 26.512616 58.595777 0
M  V30 27 H 40.046761 28.546853 55.641973 0
M  V30 28 H 37.806822 24.102102 57.989534 0
M  V30 29 H 38.999283 30.929378 53.571858 0
M  V30 30 H 40.445111 29.984653 53.882766 0
M  V30 31 H 38.005546 29.315153 52.250445 0
M  V30 32 H 38.808477 29.095062 57.811268 0
M  V30 33 H 37.244979 29.265475 56.894940 0
M  V30 34 H 40.045104 27.337761 53.441735 0
M  V30 35 H 38.532158 26.964041 52.683685 0
M  V30 36 H 37.045613 23.645040 55.713505 0
M  V30 END ATOM
M  V30 BEGIN BOND
M  V30 1 1 5 1
M  V30 2 1 8 5
M  V30 3 1 9 7
M  V30 4 1 10 6
M  V30 5 1 11 4
M  V30 6 1 11 10
M  V30 7 2 13 2
M  V30 8 1 13 9
M  V30 9 1 14 5
M  V30 10 1 14 7
M  V30 11 1 14 13
M  V30 12 1 15 7
M  V30 13 1 14 15 CFG=1
M  V30 14 1 16 3
M  V30 15 1 16 4
M  V30 16 1 16 6
M  V30 17 1 16 12 CFG=3
M  V30 18 1 17 9
M  V30 19 1 17 11
M  V30 20 1 18 2
M  V30 21 2 18 8
M  V30 22 1 19 1
M  V30 23 1 20 2
M  V30 24 1 21 3
M  V30 25 1 22 3
M  V30 26 1 23 3
M  V30 27 1 24 4
M  V30 28 1 25 4
M  V30 29 1 5 26 CFG=1
M  V30 30 1 7 27 CFG=3
M  V30 31 1 28 8
M  V30 32 1 29 10
M  V30 33 1 30 10
M  V30 34 1 11 31 CFG=3
M  V30 35 1 32 15
M  V30 36 1 33 15
M  V30 37 1 34 17
M  V30 38 1 35 17
M  V30 39 1 36 18
M  V30 END BOND
M  V30 END CTAB
M  END
>  <i_epik_Tot_Q>  (1) 
0

>  <i_epik_Tot_abs_Q>  (1) 
0

>  <i_i_glide_confnum>  (1) 
28

>  <i_i_glide_lignum>  (1) 
77

>  <i_i_glide_posenum>  (1) 
90

>  <i_i_glide_rotatable_bonds>  (1) 
3

>  <i_lp_mmshare_version>  (1) 
72125

>  <i_m_source_file_index>  (1) 
34

>  <i_f3d_flags>  (1) 
0

>  <num_sample>  (1) 
100

>  <b_lp_Chiralities_Consistent>  (1) 
1

>  <r_epik_Charging_Adjusted_Penalty>  (1) 
0

>  <r_epik_Ionization_Penalty>  (1) 
1.6271736615724652e-05

>  <r_epik_Ionization_Penalty_Charging>  (1) 
0

>  <r_epik_Ionization_Penalty_Neutral>  (1) 
1.6271736615724652e-05

>  <r_epik_State_Penalty>  (1) 
-0

>  <r_glide_ring_energy>  (1) 
0

>  <r_i_docking_score>  (1) 
-6.9255507672424343

>  <r_i_glide_ecoul>  (1) 
1.6373678316904288

>  <r_i_glide_eff_state_penalty>  (1) 
-0

>  <r_i_glide_einternal>  (1) 
3.5718562520821693

>  <r_i_glide_emodel>  (1) 
-34.708531446162695

>  <r_i_glide_emodel_strain>  (1) 
0.018674015346306305

>  <r_i_glide_energy>  (1) 
-25.177865688534698

>  <r_i_glide_erotb>  (1) 
0.55502837294367569

>  <r_i_glide_esite>  (1) 
0

>  <r_i_glide_evdw>  (1) 
-26.815233520225128

>  <r_i_glide_gscore>  (1) 
-6.9255507672424343

>  <r_i_glide_gscore_strain>  (1) 
0

>  <r_i_glide_hbond>  (1) 
0

>  <r_i_glide_ligand_efficiency>  (1) 
-0.38475282040235748

>  <r_i_glide_ligand_efficiency_ln>  (1) 
-1.7801771137130695

>  <r_i_glide_ligand_efficiency_sa>  (1) 
-1.0083376429670796

>  <r_i_glide_lipo>  (1) 
-3.4318037166878508

>  <r_i_glide_metal>  (1) 
-0

>  <r_i_glide_rewards>  (1) 
-2.9536189222405671

>  <r_lp_Energy>  (1) 
31.382234999999998

>  <r_lp_tautomer_probability>  (1) 
1

>  <s_epik_cmdline>  (1) 
J2VwaWtfcHl0aG9uJywgJy1waHQnLCAnMS4wJywgJy1waCcsICc3LjQnLCAnLXRuJywgJzgnLCAnLW1hJywgJzUwMCcsICctaW1hZScsICc8aW5maWxlLm1hZT4nLCAnLW9tYWUnLCAnPG91dGZpbGUubWFlPic=

>  <s_epik_input>  (1) 
W09IXVtDQEBIXTFbQ0hdPVtDSF1bQ0hdPUMyTihbQ0hdKEMxMjMpW0NIMl0zKVtDSDJdW0NAQEhdKFtDSDJdTzQpW0NIMl1bQ0BdNChGKVtDSDNd

>  <s_glide_docking_method>  (1) 
confgen

>  <s_i_glide_gridfile>  (1) 
gpcr_5ht2c_6bqh_protein_autoprepared_prepared

>  <s_lp_Force_Field>  (1) 
S-OPLS

>  <s_lp_Variant>  (1) 
DiffSBDD_33-1

>  <s_m_source_file>  (1) 
generated_GPCR_5HT2C_ligand_DiffSBDD_2026-06-23_prepared.sdf

>  <GenAI_Model>  (1) 
DiffSBDD

>  <Protein>  (1) 
GPCR_5HT2C

$$$$
DiffSBDD_74
     RDKit          3D

  0  0  0  0  0  0  0  0  0  0999 V3000
M  V30 BEGIN CTAB
M  V30 COUNTS 70 72 0 0 1
M  V30 BEGIN ATOM
M  V30 1 C 37.995196 32.821413 59.805784 0
M  V30 2 C 39.189579 29.359690 60.489890 0
M  V30 3 C 41.097686 31.252672 63.219558 0
M  V30 4 F 40.045566 28.103354 50.565444 0
M  V30 5 C 40.084705 29.692057 61.434593 0
M  V30 6 C 39.645141 29.740289 52.203982 0
M  V30 7 C 39.933295 30.988311 52.758064 0
M  V30 8 C 37.527975 28.241853 54.967275 0
M  V30 9 O 36.445371 24.937731 55.367698 0
M  V30 10 F 40.789498 29.197555 64.358886 0
M  V30 11 F 41.723900 30.818121 65.457543 0
M  V30 12 C 40.035871 28.730286 57.630364 0
M  V30 13 F 39.645138 30.143934 49.905098 0
M  V30 14 C 37.829458 34.234402 60.398703 0
M  V30 15 C 39.079476 31.853232 61.877267 0
M  V30 16 N 38.279246 27.104736 55.418816 0
M  V30 17 C 37.331769 25.112665 56.418743 0 CFG=1
M  V30 18 C 38.549976 24.320272 56.038713 0
M  V30 19 C 38.052135 30.290931 60.082051 0
M  V30 20 C 38.358845 29.185856 54.190866 0
M  V30 21 N 38.982211 28.020325 58.355535 0
M  V30 22 F 41.470386 29.737755 50.898261 0
M  V30 23 C 38.705031 26.661513 57.854058 0 CFG=1
M  V30 24 C 37.987467 31.656136 60.826491 0 CFG=2
M  V30 25 C 37.731117 26.567320 56.660985 0 CFG=1
M  V30 26 C 39.916248 25.740516 57.648976 0
M  V30 27 C 39.432481 31.337798 54.023511 0
M  V30 28 F 42.300602 30.863525 62.798139 0
M  V30 29 F 41.154632 32.561984 63.477824 0
M  V30 30 O 36.725958 31.736314 61.462568 0
M  V30 31 C 39.223508 28.004675 59.797193 0
M  V30 32 C 40.193372 29.394201 50.850849 0
M  V30 33 C 38.850554 28.827011 52.918406 0
M  V30 34 C 40.046783 30.953331 62.153994 0
M  V30 35 C 40.805220 30.518886 64.539007 0
M  V30 36 C 38.653645 30.440221 54.735650 0
M  V30 37 C 39.460548 24.329477 57.243803 0
M  V30 38 H 38.923021 32.789958 59.233090 0
M  V30 39 H 37.196834 32.665991 59.075752 0
M  V30 40 H 40.857333 28.980972 61.688340 0
M  V30 41 H 40.536542 31.692215 52.203000 0
M  V30 42 H 36.637791 27.951473 54.410717 0
M  V30 43 H 37.245128 28.824956 55.841426 0
M  V30 44 H 36.233321 24.018962 55.292998 0
M  V30 45 H 39.895643 28.694786 56.554646 0
M  V30 46 H 40.060565 29.781080 57.909946 0
M  V30 47 H 41.013386 28.305949 57.850115 0
M  V30 48 H 37.750560 34.973222 59.602142 0
M  V30 49 H 36.928169 34.319000 61.007551 0
M  V30 50 H 38.680841 34.516708 61.018317 0
M  V30 51 H 39.054502 32.786025 62.420713 0
M  V30 52 H 38.138016 26.369510 54.730981 0
M  V30 53 H 36.861222 24.704710 57.313507 0
M  V30 54 H 39.060054 24.699948 55.149905 0
M  V30 55 H 38.195077 23.337802 55.767776 0
M  V30 56 H 37.114221 29.739972 60.169175 0
M  V30 57 H 38.151513 30.474311 59.012938 0
M  V30 58 H 38.131072 26.171057 58.640768 0
M  V30 59 H 36.845152 27.095938 56.975220 0
M  V30 60 H 40.578106 26.140745 56.878549 0
M  V30 61 H 40.494040 25.676546 58.567138 0
M  V30 62 H 39.645131 32.305405 54.445378 0
M  V30 63 H 36.077939 31.907984 60.795900 0
M  V30 64 H 40.166552 27.501695 60.016629 0
M  V30 65 H 38.442529 27.422483 60.281484 0
M  V30 66 H 38.622720 27.857449 52.498528 0
M  V30 67 H 39.834815 30.803031 64.945709 0
M  V30 68 H 38.274992 30.714148 55.708790 0
M  V30 69 H 40.328545 23.737762 57.033045 0
M  V30 70 H 38.869120 23.848970 58.016768 0
M  V30 END ATOM
M  V30 BEGIN BOND
M  V30 1 2 5 2
M  V30 2 2 7 6
M  V30 3 1 14 1
M  V30 4 1 16 8
M  V30 5 1 17 9
M  V30 6 1 18 17
M  V30 7 1 19 2
M  V30 8 1 20 8
M  V30 9 1 21 12
M  V30 10 1 23 21
M  V30 11 1 24 1
M  V30 12 1 24 15
M  V30 13 1 24 19
M  V30 14 1 25 16
M  V30 15 1 25 17
M  V30 16 1 25 23
M  V30 17 1 26 23
M  V30 18 1 27 7
M  V30 19 1 28 3
M  V30 20 1 29 3
M  V30 21 1 24 30 CFG=1
M  V30 22 1 31 2
M  V30 23 1 31 21
M  V30 24 1 32 4
M  V30 25 1 32 6
M  V30 26 1 32 13
M  V30 27 1 32 22
M  V30 28 1 33 6
M  V30 29 2 33 20
M  V30 30 1 34 3
M  V30 31 1 34 5
M  V30 32 2 34 15
M  V30 33 1 35 3
M  V30 34 1 35 10
M  V30 35 1 35 11
M  V30 36 1 36 20
M  V30 37 2 36 27
M  V30 38 1 37 18
M  V30 39 1 37 26
M  V30 40 1 38 1
M  V30 41 1 39 1
M  V30 42 1 40 5
M  V30 43 1 41 7
M  V30 44 1 42 8
M  V30 45 1 43 8
M  V30 46 1 44 9
M  V30 47 1 45 12
M  V30 48 1 46 12
M  V30 49 1 47 12
M  V30 50 1 48 14
M  V30 51 1 49 14
M  V30 52 1 50 14
M  V30 53 1 51 15
M  V30 54 1 52 16
M  V30 55 1 17 53 CFG=1
M  V30 56 1 54 18
M  V30 57 1 55 18
M  V30 58 1 56 19
M  V30 59 1 57 19
M  V30 60 1 23 58 CFG=1
M  V30 61 1 25 59 CFG=1
M  V30 62 1 60 26
M  V30 63 1 61 26
M  V30 64 1 62 27
M  V30 65 1 63 30
M  V30 66 1 64 31
M  V30 67 1 65 31
M  V30 68 1 66 33
M  V30 69 1 67 35
M  V30 70 1 68 36
M  V30 71 1 69 37
M  V30 72 1 70 37
M  V30 END BOND
M  V30 END CTAB
M  END
>  <i_epik_Tot_Q>  (1) 
0

>  <i_epik_Tot_abs_Q>  (1) 
0

>  <i_i_glide_confnum>  (1) 
466

>  <i_i_glide_lignum>  (1) 
163

>  <i_i_glide_posenum>  (1) 
210

>  <i_i_glide_rotatable_bonds>  (1) 
12

>  <i_lp_mmshare_version>  (1) 
72125

>  <i_m_source_file_index>  (1) 
75

>  <i_f3d_flags>  (1) 
0

>  <num_sample>  (1) 
100

>  <b_lp_Chiralities_Consistent>  (1) 
1

>  <r_epik_Charging_Adjusted_Penalty>  (1) 
0.95016653891127834

>  <r_epik_Ionization_Penalty>  (1) 
0.98731077050132976

>  <r_epik_Ionization_Penalty_Charging>  (1) 
0

>  <r_epik_Ionization_Penalty_Neutral>  (1) 
0.98731077050132976

>  <r_epik_State_Penalty>  (1) 
0.95016653891127834

>  <r_glide_ring_energy>  (1) 
0

>  <r_i_docking_score>  (1) 
-6.9230676968117653

>  <r_i_glide_ecoul>  (1) 
-3.1077331243823361

>  <r_i_glide_eff_state_penalty>  (1) 
0.95016653891127834

>  <r_i_glide_einternal>  (1) 
4.1910284230946111

>  <r_i_glide_emodel>  (1) 
-39.052334710210779

>  <r_i_glide_emodel_strain>  (1) 
1.0303834925292534

>  <r_i_glide_energy>  (1) 
-25.044842193799621

>  <r_i_glide_erotb>  (1) 
0.49869770839919392

>  <r_i_glide_esite>  (1) 
-0.096695320847827282

>  <r_i_glide_evdw>  (1) 
-21.937109069417286

>  <r_i_glide_gscore>  (1) 
-7.8732342357230438

>  <r_i_glide_gscore_strain>  (1) 
0

>  <r_i_glide_hbond>  (1) 
-0.32000000000000001

>  <r_i_glide_ligand_efficiency>  (1) 
-0.18710993775166934

>  <r_i_glide_ligand_efficiency_ln>  (1) 
-1.5014510837044142

>  <r_i_glide_ligand_efficiency_sa>  (1) 
-0.62349182323622676

>  <r_i_glide_lipo>  (1) 
-4.5488347853227022

>  <r_i_glide_metal>  (1) 
-0

>  <r_i_glide_rewards>  (1) 
-1.8433864158234941

>  <r_lp_Energy>  (1) 
51.967185000000001

>  <s_epik_cmdline>  (1) 
J2VwaWtfcHl0aG9uJywgJy1waHQnLCAnMS4wJywgJy1waCcsICc3LjQnLCAnLXRuJywgJzgnLCAnLW1hJywgJzUwMCcsICctaW1hZScsICc8aW5maWxlLm1hZT4nLCAnLW9tYWUnLCAnPG91dGZpbGUubWFlPic=

>  <s_epik_input>  (1) 
W0NIM11bQ0gyXVtDQF0xKFtPSF0pW0NIXT1DKEMoRikoRilbQ0hdKEYpRilbQ0hdPUMoW0NIMl0xKVtDSDJdTihbQ0gzXSlbQ0BIXShbQ0gyXVtDSDJdW0NIMl1bQ0BASF0yW09IXSlbQ0BIXTJbTkhdW0NIMl1jKFtjSF0zKVtjSF1bY0hdW2NIXWMzQyhGKShGKUY=

>  <s_glide_docking_method>  (1) 
confgen

>  <s_i_glide_gridfile>  (1) 
gpcr_5ht2c_6bqh_protein_autoprepared_prepared

>  <s_lp_Force_Field>  (1) 
S-OPLS

>  <s_lp_Variant>  (1) 
DiffSBDD_74-2

>  <s_m_source_file>  (1) 
generated_GPCR_5HT2C_ligand_DiffSBDD_2026-06-23_prepared.sdf

>  <GenAI_Model>  (1) 
DiffSBDD

>  <Protein>  (1) 
GPCR_5HT2C

$$$$
DiffSBDD_17
     RDKit          3D

  0  0  0  0  0  0  0  0  0  0999 V3000
M  V30 BEGIN CTAB
M  V30 COUNTS 82 87 0 0 1
M  V30 BEGIN ATOM
M  V30 1 C 39.373396 35.716465 63.121616 0 CFG=1
M  V30 2 C 39.777265 34.355293 62.410366 0 CFG=1
M  V30 3 C 39.331467 31.191436 61.434367 0
M  V30 4 C 37.349921 24.216839 56.025732 0
M  V30 5 N 38.391650 26.409577 55.882742 0
M  V30 6 C 38.054995 27.572794 55.244732 0
M  V30 7 O 38.845016 33.255327 62.567794 0
M  V30 8 C 40.095952 34.656383 60.945591 0
M  V30 9 C 34.664220 33.337850 61.016247 0
M  V30 10 C 39.036497 30.095549 53.983782 0
M  V30 11 C 37.645210 28.947234 57.387612 0
M  V30 12 O 35.614598 34.127598 60.313156 0
M  V30 13 C 38.118725 28.872781 56.050823 0
M  V30 14 O 39.066842 35.228439 60.167775 0
M  V30 15 C 37.668026 30.199975 58.015143 0
M  V30 16 C 38.984091 26.334801 57.229042 0
M  V30 17 C 37.133974 30.455873 59.383547 0
M  V30 18 N 37.628897 32.842594 60.652189 0 CHG=1
M  V30 19 N 38.641892 31.272862 56.100977 0
M  V30 20 C 37.306057 32.066914 59.376684 0 CFG=1
M  V30 21 C 39.855424 31.311467 53.589231 0
M  V30 22 C 38.159471 31.279485 57.360287 0
M  V30 23 C 38.582996 30.078635 55.443759 0
M  V30 24 C 41.067150 33.829479 63.047056 0
M  V30 25 C 37.131453 35.934378 59.095882 0
M  V30 26 C 41.915950 34.580003 63.758259 0
M  V30 27 C 38.268987 25.120425 55.189481 0
M  V30 28 C 36.888531 34.130108 60.874144 0 CFG=1
M  V30 29 C 40.570335 36.671011 63.189698 0
M  V30 30 C 38.039617 36.465687 62.830420 0
M  V30 31 C 41.725993 36.047571 64.004301 0
M  V30 32 C 38.053243 25.476572 58.097765 0
M  V30 33 C 38.125224 32.559003 58.101878 0
M  V30 34 C 37.892626 24.090106 57.461077 0
M  V30 35 C 37.527923 36.611700 61.405730 0
M  V30 36 C 38.534833 32.461631 61.502805 0
M  V30 37 O 37.709323 27.599888 54.061962 0
M  V30 38 C 37.682081 35.424466 60.447008 0 CFG=1
M  V30 39 H 39.254944 35.532783 64.167745 0
M  V30 40 H 39.615550 30.948665 60.410213 0
M  V30 41 H 40.252323 31.260247 62.002355 0
M  V30 42 H 37.244275 23.243678 55.548373 0
M  V30 43 H 36.347328 24.645953 56.053847 0
M  V30 44 H 40.949440 35.324919 60.857285 0
M  V30 45 H 40.445037 33.763190 60.439277 0
M  V30 46 H 33.720836 33.338047 60.468539 0
M  V30 47 H 34.982839 32.300953 61.120216 0
M  V30 48 H 34.477039 33.735294 62.014581 0
M  V30 49 H 39.642257 29.216276 53.765173 0
M  V30 50 H 38.142421 30.047467 53.363449 0
M  V30 51 H 37.237833 28.087037 57.889198 0
M  V30 52 H 39.931683 25.802216 57.121988 0
M  V30 53 H 39.305465 27.253390 57.709486 0
M  V30 54 H 37.690721 29.868583 60.102077 0
M  V30 55 H 36.085415 30.164711 59.449509 0
M  V30 56 H 36.293360 32.361402 59.113365 0
M  V30 57 H 40.132221 31.287917 52.535260 0
M  V30 58 H 39.247041 32.193436 53.766578 0
M  V30 59 H 40.769610 31.341263 54.183764 0
M  V30 60 H 41.283050 32.784680 62.913404 0
M  V30 61 H 36.071054 36.189696 59.143684 0
M  V30 62 H 37.644071 36.839980 58.769426 0
M  V30 63 H 37.245106 35.201939 58.306736 0
M  V30 64 H 42.800961 34.129928 64.182375 0
M  V30 65 H 37.861214 25.201212 54.180789 0
M  V30 66 H 39.258091 24.670485 55.084409 0
M  V30 67 H 36.725924 34.183832 61.949856 0
M  V30 68 H 40.909745 36.961674 62.197523 0
M  V30 69 H 40.257085 37.599677 63.665005 0
M  V30 70 H 38.141739 37.480752 63.209302 0
M  V30 71 H 37.217911 36.137743 63.456845 0
M  V30 72 H 41.544672 36.138099 65.074799 0
M  V30 73 H 42.670024 36.537804 63.771616 0
M  V30 74 H 38.446917 25.385804 59.106586 0
M  V30 75 H 37.069754 25.938869 58.167499 0
M  V30 76 H 37.588750 33.293980 57.506998 0
M  V30 77 H 39.131451 32.908232 58.335139 0
M  V30 78 H 38.866208 23.599052 57.445654 0
M  V30 79 H 37.245203 23.460556 58.066987 0
M  V30 80 H 38.054632 37.462095 60.970880 0
M  V30 81 H 36.479954 36.914145 61.448073 0
M  V30 82 H 38.764219 30.378314 61.884426 0
M  V30 END ATOM
M  V30 BEGIN BOND
M  V30 1 1 2 1
M  V30 2 1 6 5
M  V30 3 1 2 7 CFG=3
M  V30 4 1 8 2
M  V30 5 1 12 9
M  V30 6 1 13 6
M  V30 7 1 13 11
M  V30 8 1 14 8
M  V30 9 2 15 11
M  V30 10 1 16 5
M  V30 11 1 17 15
M  V30 12 1 20 17
M  V30 13 1 20 18
M  V30 14 1 21 10
M  V30 15 1 22 15
M  V30 16 2 22 19
M  V30 17 1 23 10
M  V30 18 2 23 13
M  V30 19 1 23 19
M  V30 20 1 24 2
M  V30 21 2 26 24
M  V30 22 1 27 4
M  V30 23 1 27 5
M  V30 24 1 28 12
M  V30 25 1 28 18
M  V30 26 1 29 1
M  V30 27 1 30 1
M  V30 28 1 31 26
M  V30 29 1 31 29
M  V30 30 1 32 16
M  V30 31 1 33 20
M  V30 32 1 33 22
M  V30 33 1 34 4
M  V30 34 1 34 32
M  V30 35 1 35 30
M  V30 36 1 36 3
M  V30 37 1 36 7
M  V30 38 2 36 18
M  V30 39 2 37 6
M  V30 40 1 38 14
M  V30 41 1 38 25 CFG=3
M  V30 42 1 38 28
M  V30 43 1 38 35
M  V30 44 1 1 39 CFG=1
M  V30 45 1 40 3
M  V30 46 1 41 3
M  V30 47 1 42 4
M  V30 48 1 43 4
M  V30 49 1 44 8
M  V30 50 1 45 8
M  V30 51 1 46 9
M  V30 52 1 47 9
M  V30 53 1 48 9
M  V30 54 1 49 10
M  V30 55 1 50 10
M  V30 56 1 51 11
M  V30 57 1 52 16
M  V30 58 1 53 16
M  V30 59 1 54 17
M  V30 60 1 55 17
M  V30 61 1 20 56 CFG=3
M  V30 62 1 57 21
M  V30 63 1 58 21
M  V30 64 1 59 21
M  V30 65 1 60 24
M  V30 66 1 61 25
M  V30 67 1 62 25
M  V30 68 1 63 25
M  V30 69 1 64 26
M  V30 70 1 65 27
M  V30 71 1 66 27
M  V30 72 1 28 67 CFG=1
M  V30 73 1 68 29
M  V30 74 1 69 29
M  V30 75 1 70 30
M  V30 76 1 71 30
M  V30 77 1 72 31
M  V30 78 1 73 31
M  V30 79 1 74 32
M  V30 80 1 75 32
M  V30 81 1 76 33
M  V30 82 1 77 33
M  V30 83 1 78 34
M  V30 84 1 79 34
M  V30 85 1 80 35
M  V30 86 1 81 35
M  V30 87 1 82 3
M  V30 END BOND
M  V30 END CTAB
M  END
>  <i_epik_Tot_Q>  (1) 
1

>  <i_epik_Tot_abs_Q>  (1) 
1

>  <i_i_glide_confnum>  (1) 
27

>  <i_i_glide_lignum>  (1) 
41

>  <i_i_glide_posenum>  (1) 
174

>  <i_i_glide_rotatable_bonds>  (1) 
5

>  <i_lp_mmshare_version>  (1) 
72125

>  <i_m_source_file_index>  (1) 
18

>  <i_f3d_flags>  (1) 
0

>  <num_sample>  (1) 
100

>  <b_lp_Chiralities_Consistent>  (1) 
1

>  <r_epik_Charging_Adjusted_Penalty>  (1) 
0

>  <r_epik_Ionization_Penalty>  (1) 
0.00083164263378673008

>  <r_epik_Ionization_Penalty_Charging>  (1) 
0

>  <r_epik_Ionization_Penalty_Neutral>  (1) 
0.00083164263378673008

>  <r_epik_State_Penalty>  (1) 
-0

>  <r_glide_ring_energy>  (1) 
0

>  <r_i_docking_score>  (1) 
-6.922283127857753

>  <r_i_glide_ecoul>  (1) 
0.60447584825226264

>  <r_i_glide_eff_state_penalty>  (1) 
-0

>  <r_i_glide_einternal>  (1) 
49.890331269315283

>  <r_i_glide_emodel>  (1) 
-19.448493286580977

>  <r_i_glide_emodel_strain>  (1) 
6.2481032819562756

>  <r_i_glide_energy>  (1) 
-39.136858545427039

>  <r_i_glide_erotb>  (1) 
0.22580550804498301

>  <r_i_glide_esite>  (1) 
0

>  <r_i_glide_evdw>  (1) 
-39.741334393679303

>  <r_i_glide_gscore>  (1) 
-6.922283127857753

>  <r_i_glide_gscore_strain>  (1) 
0.56202582048906891

>  <r_i_glide_hbond>  (1) 
0

>  <r_i_glide_ligand_efficiency>  (1) 
-0.18216534546994087

>  <r_i_glide_ligand_efficiency_ln>  (1) 
-1.4926478753046311

>  <r_i_glide_ligand_efficiency_sa>  (1) 
-0.61243541144097824

>  <r_i_glide_lipo>  (1) 
-3.8556463699940897

>  <r_i_glide_metal>  (1) 
-0

>  <r_i_glide_rewards>  (1) 
-1.9580727439515893

>  <r_lp_Energy>  (1) 
80.436117999999993

>  <r_lp_tautomer_probability>  (1) 
1

>  <s_epik_Chemistry_Notes>  (1) 
This compound has an imine and may undergo hydrolysis. This compound contains an acetal/aminal-like group ( X-CH(R)-Y where X, Y are N, S, or O) that may be acid/base labile, releasing an aldehyde.

>  <s_epik_cmdline>  (1) 
J2VwaWtfcHl0aG9uJywgJy1waHQnLCAnMS4wJywgJy1waCcsICc3LjQnLCAnLXRuJywgJzgnLCAnLW1hJywgJzUwMCcsICctaW1hZScsICc8aW5maWxlLm1hZT4nLCAnLW9tYWUnLCAnPG91dGZpbGUubWFlPic=

>  <s_epik_input>  (1) 
W0NIXTE9W0NIXVtDSDJdW0NIMl1bQ0BIXShbQ0BAXTEyMylbQ0gyXVtDSDJdW0NAQF0oW0NIM10pKE9bQ0gyXTMpW0NAQEhdKE9bQ0gzXSlOKEMoTzIpPVtDSDJdKVtDQEhdKFtDSDJdNClbQ0gyXWMoYzQ1KW5jKFtDSDJdW0NIM10pYyhbY0hdNSlDKD1PKU42W0NIMl1bQ0gyXVtDSDJdW0NIMl1bQ0gyXTY=

>  <s_glide_docking_method>  (1) 
confgen

>  <s_i_glide_gridfile>  (1) 
gpcr_5ht2c_6bqh_protein_autoprepared_prepared

>  <s_lp_Force_Field>  (1) 
S-OPLS

>  <s_lp_Variant>  (1) 
DiffSBDD_17-1

>  <s_m_source_file>  (1) 
generated_GPCR_5HT2C_ligand_DiffSBDD_2026-06-23_prepared.sdf

>  <GenAI_Model>  (1) 
DiffSBDD

>  <Protein>  (1) 
GPCR_5HT2C

$$$$
DiffSBDD_13
     RDKit          3D

  0  0  0  0  0  0  0  0  0  0999 V3000
M  V30 BEGIN CTAB
M  V30 COUNTS 53 55 0 0 1
M  V30 BEGIN ATOM
M  V30 1 C 39.573337 34.855016 61.071135 0
M  V30 2 C 38.989680 30.621752 60.328532 0
M  V30 3 C 38.326439 31.577171 59.529276 0
M  V30 4 C 40.022214 32.420795 61.617278 0
M  V30 5 F 38.843876 35.264385 62.107326 0
M  V30 6 C 37.501401 27.156730 53.595382 0
M  V30 7 C 38.595798 29.168422 55.767063 0
M  V30 8 O 38.481627 30.198339 56.425280 0
M  V30 9 N 38.619400 29.208856 54.394279 0
M  V30 10 C 38.855867 26.639679 55.666864 0
M  V30 11 C 37.669282 26.238990 54.791253 0
M  V30 12 C 38.793588 29.140214 60.062032 0
M  V30 13 C 39.835428 31.045746 61.374736 0
M  V30 14 C 38.513665 32.952014 59.771488 0
M  V30 15 C 39.989461 29.782215 50.094169 0
M  V30 16 C 39.995037 29.462126 51.596753 0
M  V30 17 C 40.241979 30.765414 52.375645 0
M  V30 18 C 39.411399 28.693739 58.747745 0 CFG=1
M  V30 19 C 39.364103 33.375665 60.814431 0
M  V30 20 C 38.700773 28.095754 53.443719 0 CFG=2
M  V30 21 C 39.821117 27.253544 58.556212 0
M  V30 22 C 38.624138 27.790317 57.804177 0 CFG=2
M  V30 23 N 38.701337 27.923252 56.371320 0
M  V30 24 C 38.710052 28.699173 52.015781 0
M  V30 25 H 40.617632 35.065343 61.303055 0
M  V30 26 H 39.288322 35.455320 60.207354 0
M  V30 27 H 37.676225 31.255346 58.727585 0
M  V30 28 H 40.670801 32.743515 62.418327 0
M  V30 29 H 36.580528 27.735817 53.678932 0
M  V30 30 H 37.391441 26.538147 52.707641 0
M  V30 31 H 38.548412 30.124962 53.978414 0
M  V30 32 H 39.837880 26.542900 55.206349 0
M  V30 33 H 38.907724 25.853061 56.421010 0
M  V30 34 H 36.756353 26.213854 55.384128 0
M  V30 35 H 37.823102 25.217935 54.440783 0
M  V30 36 H 39.213263 28.550257 60.877712 0
M  V30 37 H 37.723674 28.938926 60.036884 0
M  V30 38 H 40.341246 30.316822 61.990233 0
M  V30 39 H 38.006500 33.680966 59.155324 0
M  V30 40 H 39.245490 30.543168 49.856972 0
M  V30 41 H 40.958847 30.162757 49.769564 0
M  V30 42 H 39.768604 28.902032 49.492923 0
M  V30 43 H 40.845090 28.801547 51.767807 0
M  V30 44 H 39.362873 31.406684 52.410266 0
M  V30 45 H 40.556765 30.580496 53.401539 0
M  V30 46 H 41.035917 31.337774 51.900024 0
M  V30 47 H 40.119230 29.402652 58.321481 0
M  V30 48 H 39.645325 27.569405 53.487262 0
M  V30 49 H 40.738009 27.071735 57.998291 0
M  V30 50 H 39.629730 26.555961 59.367717 0
M  V30 51 H 37.652192 27.460022 58.167887 0
M  V30 52 H 38.575363 27.882663 51.304093 0
M  V30 53 H 37.839389 29.337692 51.882441 0
M  V30 END ATOM
M  V30 BEGIN BOND
M  V30 1 2 3 2
M  V30 2 1 5 1
M  V30 3 2 8 7
M  V30 4 1 9 7
M  V30 5 1 11 6
M  V30 6 1 11 10
M  V30 7 1 12 2
M  V30 8 1 13 2
M  V30 9 2 13 4
M  V30 10 1 14 3
M  V30 11 1 16 15
M  V30 12 1 17 16
M  V30 13 1 18 12
M  V30 14 1 19 1
M  V30 15 1 19 4
M  V30 16 2 19 14
M  V30 17 1 20 6
M  V30 18 1 20 9
M  V30 19 1 21 18
M  V30 20 1 22 18
M  V30 21 1 22 21
M  V30 22 1 23 7
M  V30 23 1 23 10
M  V30 24 1 23 22
M  V30 25 1 24 16
M  V30 26 1 24 20
M  V30 27 1 25 1
M  V30 28 1 26 1
M  V30 29 1 27 3
M  V30 30 1 28 4
M  V30 31 1 29 6
M  V30 32 1 30 6
M  V30 33 1 31 9
M  V30 34 1 32 10
M  V30 35 1 33 10
M  V30 36 1 34 11
M  V30 37 1 35 11
M  V30 38 1 36 12
M  V30 39 1 37 12
M  V30 40 1 38 13
M  V30 41 1 39 14
M  V30 42 1 40 15
M  V30 43 1 41 15
M  V30 44 1 42 15
M  V30 45 1 43 16
M  V30 46 1 44 17
M  V30 47 1 45 17
M  V30 48 1 46 17
M  V30 49 1 18 47 CFG=3
M  V30 50 1 20 48 CFG=1
M  V30 51 1 49 21
M  V30 52 1 50 21
M  V30 53 1 22 51 CFG=1
M  V30 54 1 52 24
M  V30 55 1 53 24
M  V30 END BOND
M  V30 END CTAB
M  END
>  <i_epik_Tot_Q>  (1) 
0

>  <i_epik_Tot_abs_Q>  (1) 
0

>  <i_i_glide_confnum>  (1) 
235

>  <i_i_glide_lignum>  (1) 
22

>  <i_i_glide_posenum>  (1) 
46

>  <i_i_glide_rotatable_bonds>  (1) 
6

>  <i_lp_mmshare_version>  (1) 
72125

>  <i_m_source_file_index>  (1) 
14

>  <i_f3d_flags>  (1) 
0

>  <num_sample>  (1) 
100

>  <b_lp_Chiralities_Consistent>  (1) 
1

>  <r_epik_Charging_Adjusted_Penalty>  (1) 
0

>  <r_epik_Ionization_Penalty>  (1) 
3.0121457711640309e-05

>  <r_epik_Ionization_Penalty_Charging>  (1) 
0

>  <r_epik_Ionization_Penalty_Neutral>  (1) 
3.0121457711640309e-05

>  <r_epik_State_Penalty>  (1) 
-0

>  <r_glide_ring_energy>  (1) 
2.4280033264109

>  <r_i_docking_score>  (1) 
-6.9137496256769833

>  <r_i_glide_ecoul>  (1) 
0.11251650137194302

>  <r_i_glide_eff_state_penalty>  (1) 
-0

>  <r_i_glide_einternal>  (1) 
4.0533168497925587

>  <r_i_glide_emodel>  (1) 
-44.695537816985819

>  <r_i_glide_emodel_strain>  (1) 
0.84197548420023338

>  <r_i_glide_energy>  (1) 
-34.931190372876799

>  <r_i_glide_erotb>  (1) 
0.68159817047081894

>  <r_i_glide_esite>  (1) 
0

>  <r_i_glide_evdw>  (1) 
-35.043706874248741

>  <r_i_glide_gscore>  (1) 
-6.9137496256769833

>  <r_i_glide_gscore_strain>  (1) 
0

>  <r_i_glide_hbond>  (1) 
0

>  <r_i_glide_ligand_efficiency>  (1) 
-0.28807290106987432

>  <r_i_glide_ligand_efficiency_ln>  (1) 
-1.6547775367224531

>  <r_i_glide_ligand_efficiency_sa>  (1) 
-0.83094603557046953

>  <r_i_glide_lipo>  (1) 
-3.7147679407468899

>  <r_i_glide_metal>  (1) 
-0

>  <r_i_glide_rewards>  (1) 
-2.145271986894266

>  <r_lp_Energy>  (1) 
33.445327999999996

>  <r_lp_tautomer_probability>  (1) 
1

>  <s_epik_cmdline>  (1) 
J2VwaWtfcHl0aG9uJywgJy1waHQnLCAnMS4wJywgJy1waCcsICc3LjQnLCAnLXRuJywgJzgnLCAnLW1hJywgJzUwMCcsICctaW1hZScsICc8aW5maWxlLm1hZT4nLCAnLW9tYWUnLCAnPG91dGZpbGUubWFlPic=

>  <s_epik_input>  (1) 
RltDSDJdYyhbY0hdW2NIXTEpW2NIXVtjSF1jMVtDSDJdW0NASF0yW0NIMl1bQ0BASF0yTjNbQ0gyXVtDSDJdW0NIMl1bQ0BIXShbTkhdQzM9TylbQ0gyXVtDSF0oW0NIM10pW0NIM10=

>  <s_glide_docking_method>  (1) 
confgen

>  <s_i_glide_gridfile>  (1) 
gpcr_5ht2c_6bqh_protein_autoprepared_prepared

>  <s_lp_Force_Field>  (1) 
S-OPLS

>  <s_lp_Variant>  (1) 
DiffSBDD_13-1

>  <s_m_source_file>  (1) 
generated_GPCR_5HT2C_ligand_DiffSBDD_2026-06-23_prepared.sdf

>  <GenAI_Model>  (1) 
DiffSBDD

>  <Protein>  (1) 
GPCR_5HT2C

$$$$
DiffSBDD_73
     RDKit          3D

  0  0  0  0  0  0  0  0  0  0999 V3000
M  V30 BEGIN CTAB
M  V30 COUNTS 64 65 0 0 1
M  V30 BEGIN ATOM
M  V30 1 C 39.827240 27.827128 57.066183 0 CFG=1
M  V30 2 C 38.623154 32.362413 57.310267 0
M  V30 3 N 37.800550 34.305175 61.144362 0
M  V30 4 C 37.754382 27.136915 53.889872 0
M  V30 5 C 38.240257 27.173952 55.167611 0
M  V30 6 C 39.046579 28.148351 58.330521 0
M  V30 7 C 38.830653 34.995080 61.924320 0 CFG=2
M  V30 8 N 36.848904 32.473504 58.968697 0
M  V30 9 O 38.002990 32.281385 62.166706 0
M  V30 10 C 42.136244 28.253197 58.368047 0
M  V30 11 C 36.405467 32.463752 60.378506 0 CFG=2
M  V30 12 C 39.027369 29.213531 52.868912 0
M  V30 13 C 38.020389 28.106898 52.740283 0 CFG=1
M  V30 14 C 37.474844 33.014559 61.331194 0
M  V30 15 O 39.024344 29.555758 58.560100 0
M  V30 16 C 37.672449 37.262681 61.372248 0
M  V30 17 C 39.127471 28.192715 55.795095 0
M  V30 18 C 38.678969 30.014627 54.073806 0
M  V30 19 C 38.086737 31.751237 58.610296 0 CFG=1
M  V30 20 C 41.346827 27.895967 57.123063 0 CFG=1
M  V30 21 O 38.439894 27.353360 51.621269 0
M  V30 22 C 38.294650 36.347769 62.444446 0
M  V30 23 C 37.874431 30.236526 58.413657 0
M  V30 24 O 36.793148 29.722156 58.135044 0
M  V30 25 C 35.874638 31.089639 60.811162 0
M  V30 26 C 39.324844 29.436243 55.289961 0
M  V30 27 C 40.090040 35.147952 61.063426 0
M  V30 28 C 40.662278 26.560957 57.051601 0
M  V30 29 H 39.574783 31.920351 57.018080 0
M  V30 30 H 37.918965 32.226143 56.486902 0
M  V30 31 H 38.786955 33.432818 57.433014 0
M  V30 32 H 37.346353 34.819350 60.405101 0
M  V30 33 H 37.121139 26.302072 53.629137 0
M  V30 34 H 37.953192 26.345319 55.800696 0
M  V30 35 H 38.055025 27.697527 58.264469 0
M  V30 36 H 39.526244 27.670615 59.184114 0
M  V30 37 H 39.117403 34.407327 62.799138 0
M  V30 38 H 36.099629 32.213283 58.305729 0
M  V30 39 H 41.751335 27.748886 59.252896 0
M  V30 40 H 43.172768 27.944984 58.234134 0
M  V30 41 H 42.116201 29.326178 58.557546 0
M  V30 42 H 35.553612 33.142253 60.445305 0
M  V30 43 H 40.042752 28.839287 52.900598 0
M  V30 44 H 38.978768 29.839048 51.981271 0
M  V30 45 H 37.051207 28.535549 52.473575 0
M  V30 46 H 37.304675 38.188218 61.817978 0
M  V30 47 H 38.395810 37.537093 60.604586 0
M  V30 48 H 36.821996 36.789843 60.878329 0
M  V30 49 H 37.603221 30.125417 54.213695 0
M  V30 50 H 39.076378 31.023343 53.953636 0
M  V30 51 H 38.850122 31.910752 59.371713 0
M  V30 52 H 41.801480 28.267570 56.211725 0
M  V30 53 H 37.714795 26.799813 51.355751 0
M  V30 54 H 37.534264 36.158104 63.203332 0
M  V30 55 H 39.098294 36.884194 62.952620 0
M  V30 56 H 35.263338 31.165592 61.709338 0
M  V30 57 H 35.245142 30.676394 60.028213 0
M  V30 58 H 36.683826 30.382764 60.993181 0
M  V30 59 H 39.987961 30.103499 55.819355 0
M  V30 60 H 40.899806 35.626602 61.617373 0
M  V30 61 H 40.434289 34.163208 60.746243 0
M  V30 62 H 39.898258 35.731599 60.166719 0
M  V30 63 H 40.642339 25.938686 57.945201 0
M  V30 64 H 40.763358 26.013207 56.118110 0
M  V30 END ATOM
M  V30 BEGIN BOND
M  V30 1 2 5 4
M  V30 2 1 1 6 CFG=1
M  V30 3 1 7 3
M  V30 4 1 11 8
M  V30 5 1 13 4
M  V30 6 1 13 12
M  V30 7 1 14 3
M  V30 8 2 14 9
M  V30 9 1 14 11
M  V30 10 1 15 6
M  V30 11 1 17 1
M  V30 12 1 17 5
M  V30 13 1 18 12
M  V30 14 1 19 2
M  V30 15 1 19 8
M  V30 16 1 20 1
M  V30 17 1 20 10
M  V30 18 1 21 13
M  V30 19 1 22 7
M  V30 20 1 22 16
M  V30 21 1 23 15
M  V30 22 1 23 19
M  V30 23 2 24 23
M  V30 24 1 25 11
M  V30 25 2 26 17
M  V30 26 1 26 18
M  V30 27 1 27 7
M  V30 28 1 28 1
M  V30 29 1 28 20
M  V30 30 1 29 2
M  V30 31 1 30 2
M  V30 32 1 31 2
M  V30 33 1 32 3
M  V30 34 1 33 4
M  V30 35 1 34 5
M  V30 36 1 35 6
M  V30 37 1 36 6
M  V30 38 1 7 37 CFG=1
M  V30 39 1 38 8
M  V30 40 1 39 10
M  V30 41 1 40 10
M  V30 42 1 41 10
M  V30 43 1 11 42 CFG=3
M  V30 44 1 43 12
M  V30 45 1 44 12
M  V30 46 1 13 45 CFG=3
M  V30 47 1 46 16
M  V30 48 1 47 16
M  V30 49 1 48 16
M  V30 50 1 49 18
M  V30 51 1 50 18
M  V30 52 1 19 51 CFG=1
M  V30 53 1 20 52 CFG=3
M  V30 54 1 53 21
M  V30 55 1 54 22
M  V30 56 1 55 22
M  V30 57 1 56 25
M  V30 58 1 57 25
M  V30 59 1 58 25
M  V30 60 1 59 26
M  V30 61 1 60 27
M  V30 62 1 61 27
M  V30 63 1 62 27
M  V30 64 1 63 28
M  V30 65 1 64 28
M  V30 END BOND
M  V30 END CTAB
M  END
>  <i_epik_Tot_Q>  (1) 
0

>  <i_epik_Tot_abs_Q>  (1) 
0

>  <i_i_glide_confnum>  (1) 
2058

>  <i_i_glide_lignum>  (1) 
159

>  <i_i_glide_posenum>  (1) 
393

>  <i_i_glide_rotatable_bonds>  (1) 
12

>  <i_lp_mmshare_version>  (1) 
72125

>  <i_m_source_file_index>  (1) 
74

>  <i_f3d_flags>  (1) 
0

>  <num_sample>  (1) 
100

>  <b_lp_Chiralities_Consistent>  (1) 
1

>  <r_epik_Charging_Adjusted_Penalty>  (1) 
0.088841992990236665

>  <r_epik_Ionization_Penalty>  (1) 
0.088842122646257599

>  <r_epik_Ionization_Penalty_Charging>  (1) 
0

>  <r_epik_Ionization_Penalty_Neutral>  (1) 
0.088842122646257599

>  <r_epik_State_Penalty>  (1) 
0.088841992990236665

>  <r_glide_ring_energy>  (1) 
0

>  <r_i_docking_score>  (1) 
-6.9098639955099843

>  <r_i_glide_ecoul>  (1) 
-6.539549063499897

>  <r_i_glide_eff_state_penalty>  (1) 
0.088841992990236665

>  <r_i_glide_einternal>  (1) 
9.6634872374602274

>  <r_i_glide_emodel>  (1) 
-57.696103026178527

>  <r_i_glide_emodel_strain>  (1) 
0.37008021321747009

>  <r_i_glide_energy>  (1) 
-44.697884461992757

>  <r_i_glide_erotb>  (1) 
1.2671681791471729

>  <r_i_glide_esite>  (1) 
-0.053583249985049736

>  <r_i_glide_evdw>  (1) 
-38.158335398492859

>  <r_i_glide_gscore>  (1) 
-6.9987059885002214

>  <r_i_glide_gscore_strain>  (1) 
0

>  <r_i_glide_hbond>  (1) 
-0.45599999999999996

>  <r_i_glide_ligand_efficiency>  (1) 
-0.24678085698249944

>  <r_i_glide_ligand_efficiency_ln>  (1) 
-1.5949994925864046

>  <r_i_glide_ligand_efficiency_sa>  (1) 
-0.74937202878308296

>  <r_i_glide_lipo>  (1) 
-3.4486931731204562

>  <r_i_glide_metal>  (1) 
-0

>  <r_i_glide_rewards>  (1) 
-1.4187486150922592

>  <r_lp_Energy>  (1) 
22.608298999999999

>  <s_epik_Chemistry_Notes>  (1) 
This compound has an ester and may undergo hydrolysis at high or low pH.

>  <s_epik_cmdline>  (1) 
J2VwaWtfcHl0aG9uJywgJy1waHQnLCAnMS4wJywgJy1waCcsICc3LjQnLCAnLXRuJywgJzgnLCAnLW1hJywgJzUwMCcsICctaW1hZScsICc8aW5maWxlLm1hZT4nLCAnLW9tYWUnLCAnPG91dGZpbGUubWFlPic=

>  <s_epik_input>  (1) 
W09IXVtDQEhdMVtDSF09W0NIXUMoPVtDSF1bQ0gyXVtDSDJdMSlbQ0BAXTIoW0NAQEhdKFtDSDNdKVtDSDJdMilbQ0gyXU9DKD1PKVtDQEBIXShbQ0gzXSlbTkhdW0NASF0oW0NIM10pQyg9TylbTkhdW0NAQEhdKFtDSDNdKVtDSDJdW0NIM10=

>  <s_glide_docking_method>  (1) 
confgen

>  <s_i_glide_gridfile>  (1) 
gpcr_5ht2c_6bqh_protein_autoprepared_prepared

>  <s_lp_Force_Field>  (1) 
S-OPLS

>  <s_lp_Variant>  (1) 
DiffSBDD_73-2

>  <s_m_source_file>  (1) 
generated_GPCR_5HT2C_ligand_DiffSBDD_2026-06-23_prepared.sdf

>  <GenAI_Model>  (1) 
DiffSBDD

>  <Protein>  (1) 
GPCR_5HT2C

$$$$
DiffSBDD_88
     RDKit          3D

  0  0  0  0  0  0  0  0  0  0999 V3000
M  V30 BEGIN CTAB
M  V30 COUNTS 46 47 0 0 1
M  V30 BEGIN ATOM
M  V30 1 C 40.139480 27.474091 56.374168 0
M  V30 2 O 39.079417 30.133837 61.512352 0
M  V30 3 O 37.648421 27.502452 53.475483 0
M  V30 4 C 38.469806 25.269479 56.907139 0
M  V30 5 C 40.851321 28.389312 59.427820 0
M  V30 6 C 39.245136 27.737813 51.259148 0
M  V30 7 C 39.182407 25.337751 55.694588 0
M  V30 8 C 40.651954 28.443064 60.957763 0
M  V30 9 C 38.150589 30.619989 56.152543 0 CFG=1
M  V30 10 C 38.186938 31.683451 58.451703 0
M  V30 11 C 38.253122 28.534283 53.165767 0
M  V30 12 C 40.293618 29.842610 61.454159 0
M  V30 13 C 39.306629 31.349481 55.460305 0
M  V30 14 C 40.018891 26.437531 55.429777 0
M  V30 15 C 38.590216 26.304895 57.852802 0
M  V30 16 C 38.139386 29.787219 54.049779 0 CFG=1
M  V30 17 C 39.421563 27.411058 57.586133 0
M  V30 18 O 37.995525 29.419615 55.412195 0
M  V30 19 C 39.550107 28.530097 58.607294 0 CFG=2
M  V30 20 C 39.355987 30.725752 54.073528 0
M  V30 21 N 39.061338 28.718172 52.048732 0
M  V30 22 C 38.292518 30.369397 57.666978 0 CFG=2
M  V30 23 O 39.566219 29.805777 57.977530 0
M  V30 24 O 41.245135 30.592048 61.767746 0 CHG=-1
M  V30 25 H 40.779411 28.319993 56.168457 0
M  V30 26 H 37.830545 24.423430 57.111787 0
M  V30 27 H 41.326074 27.436290 59.194159 0
M  V30 28 H 41.578412 29.138839 59.110951 0
M  V30 29 H 39.870555 27.855280 50.370466 0
M  V30 30 H 38.786724 26.762820 51.448563 0
M  V30 31 H 39.088918 24.543472 54.967857 0
M  V30 32 H 39.883585 27.737780 61.273887 0
M  V30 33 H 41.572998 28.137718 61.454257 0
M  V30 34 H 37.245141 31.199741 55.982061 0
M  V30 35 H 37.245089 32.189562 58.244190 0
M  V30 36 H 38.235793 31.505584 59.524325 0
M  V30 37 H 38.993526 32.368908 58.191779 0
M  V30 38 H 39.130197 32.424788 55.424966 0
M  V30 39 H 40.251015 31.184961 55.969699 0
M  V30 40 H 40.565671 26.487585 54.500778 0
M  V30 41 H 38.045129 26.252409 58.781721 0
M  V30 42 H 37.245148 30.340393 53.767855 0
M  V30 43 H 38.703308 28.469663 59.293658 0
M  V30 44 H 40.290914 30.175577 53.958537 0
M  V30 45 H 39.304863 31.476663 53.285028 0
M  V30 46 H 37.472285 29.719844 57.979439 0
M  V30 END ATOM
M  V30 BEGIN BOND
M  V30 1 2 7 4
M  V30 2 1 8 5
M  V30 3 2 11 3
M  V30 4 2 12 2
M  V30 5 1 12 8
M  V30 6 1 13 9
M  V30 7 2 14 1
M  V30 8 1 14 7
M  V30 9 1 15 4
M  V30 10 1 16 11
M  V30 11 1 17 1
M  V30 12 2 17 15
M  V30 13 1 18 9
M  V30 14 1 18 16
M  V30 15 1 19 5
M  V30 16 1 19 17
M  V30 17 1 20 13
M  V30 18 1 20 16
M  V30 19 2 21 6
M  V30 20 1 21 11
M  V30 21 1 22 9
M  V30 22 1 22 10
M  V30 23 1 23 19
M  V30 24 1 23 22
M  V30 25 1 24 12
M  V30 26 1 25 1
M  V30 27 1 26 4
M  V30 28 1 27 5
M  V30 29 1 28 5
M  V30 30 1 29 6
M  V30 31 1 30 6
M  V30 32 1 31 7
M  V30 33 1 32 8
M  V30 34 1 33 8
M  V30 35 1 9 34 CFG=1
M  V30 36 1 35 10
M  V30 37 1 36 10
M  V30 38 1 37 10
M  V30 39 1 38 13
M  V30 40 1 39 13
M  V30 41 1 40 14
M  V30 42 1 41 15
M  V30 43 1 16 42 CFG=3
M  V30 44 1 19 43 CFG=1
M  V30 45 1 44 20
M  V30 46 1 45 20
M  V30 47 1 22 46 CFG=1
M  V30 END BOND
M  V30 END CTAB
M  END
>  <i_epik_Tot_Q>  (1) 
-1

>  <i_epik_Tot_abs_Q>  (1) 
1

>  <i_i_glide_confnum>  (1) 
850

>  <i_i_glide_lignum>  (1) 
208

>  <i_i_glide_posenum>  (1) 
210

>  <i_i_glide_rotatable_bonds>  (1) 
9

>  <i_lp_mmshare_version>  (1) 
72125

>  <i_m_source_file_index>  (1) 
89

>  <i_f3d_flags>  (1) 
0

>  <num_sample>  (1) 
100

>  <b_lp_Chiralities_Consistent>  (1) 
1

>  <r_epik_Charging_Adjusted_Penalty>  (1) 
0.00097316561850613933

>  <r_epik_Ionization_Penalty>  (1) 
0.00097316561914866995

>  <r_epik_Ionization_Penalty_Charging>  (1) 
0.00097316561850613933

>  <r_epik_Ionization_Penalty_Neutral>  (1) 
6.4253058124533643e-13

>  <r_epik_State_Penalty>  (1) 
-0

>  <r_glide_ring_energy>  (1) 
0

>  <r_i_docking_score>  (1) 
-6.9059769986478452

>  <r_i_glide_ecoul>  (1) 
-4.1761829550542267

>  <r_i_glide_eff_state_penalty>  (1) 
-0

>  <r_i_glide_einternal>  (1) 
8.4282016276982255

>  <r_i_glide_emodel>  (1) 
-55.668210029698621

>  <r_i_glide_emodel_strain>  (1) 
1.8341560688260188

>  <r_i_glide_energy>  (1) 
-43.463040908626908

>  <r_i_glide_erotb>  (1) 
1.1933401275703905

>  <r_i_glide_esite>  (1) 
-0.0039418355144121078

>  <r_i_glide_evdw>  (1) 
-39.286857953572685

>  <r_i_glide_gscore>  (1) 
-6.9059769986478452

>  <r_i_glide_gscore_strain>  (1) 
0

>  <r_i_glide_hbond>  (1) 
-0.16

>  <r_i_glide_ligand_efficiency>  (1) 
-0.28774904161032688

>  <r_i_glide_ligand_efficiency_ln>  (1) 
-1.6529171904117665

>  <r_i_glide_ligand_efficiency_sa>  (1) 
-0.83001186323772502

>  <r_i_glide_lipo>  (1) 
-2.8181347338440368

>  <r_i_glide_metal>  (1) 
-0

>  <r_i_glide_rewards>  (1) 
-2.5264702159230188

>  <r_lp_Energy>  (1) 
7.8123529999999999

>  <r_lp_tautomer_probability>  (1) 
1

>  <s_epik_Chemistry_Notes>  (1) 
This compound has an imine and may undergo hydrolysis.

>  <s_epik_cmdline>  (1) 
J2VwaWtfcHl0aG9uJywgJy1waHQnLCAnMS4wJywgJy1waCcsICc3LjQnLCAnLXRuJywgJzgnLCAnLW1hJywgJzUwMCcsICctaW1hZScsICc8aW5maWxlLm1hZT4nLCAnLW9tYWUnLCAnPG91dGZpbGUubWFlPic=

>  <s_epik_input>  (1) 
W2NIXTFbY0hdW2NIXVtjSF1bY0hdYzFbQ0BASF0oW0NIMl1bQ0gyXUMoPU8pW09IXSlPW0NAQEhdKFtDSDNdKVtDQEhdMltDSDJdW0NIMl1bQ0BIXShPMilDKD1PKU49W0NIMl0=

>  <s_glide_docking_method>  (1) 
confgen

>  <s_i_glide_gridfile>  (1) 
gpcr_5ht2c_6bqh_protein_autoprepared_prepared

>  <s_lp_Force_Field>  (1) 
S-OPLS

>  <s_lp_Variant>  (1) 
DiffSBDD_88-1

>  <s_m_source_file>  (1) 
generated_GPCR_5HT2C_ligand_DiffSBDD_2026-06-23_prepared.sdf

>  <GenAI_Model>  (1) 
DiffSBDD

>  <Protein>  (1) 
GPCR_5HT2C

$$$$
DiffSBDD_56
     RDKit          3D

  0  0  0  0  0  0  0  0  0  0999 V3000
M  V30 BEGIN CTAB
M  V30 COUNTS 72 77 0 0 1
M  V30 BEGIN ATOM
M  V30 1 C 37.743991 30.744958 58.044542 0 CFG=1
M  V30 2 C 38.780334 30.462602 54.679563 0
M  V30 3 C 38.334249 32.358327 56.381562 0
M  V30 4 C 41.245162 29.705287 62.988478 0
M  V30 5 C 36.273751 30.958178 60.127638 0
M  V30 6 C 39.930271 28.074340 56.715397 0
M  V30 7 C 39.113615 31.057258 56.073119 0 CFG=1
M  V30 8 C 37.465367 30.238523 59.469010 0
M  V30 9 C 39.316817 25.760896 56.155691 0
M  V30 10 C 42.136831 29.826714 64.048850 0
M  V30 11 C 41.864203 33.309809 64.977699 0
M  V30 12 C 40.507596 30.824094 62.540265 0
M  V30 13 C 39.314002 27.908106 58.005314 0
M  V30 14 C 36.660102 31.982607 61.212636 0
M  V30 15 C 42.308400 31.094511 64.689863 0
M  V30 16 C 38.818726 26.628877 58.353721 0
M  V30 17 N 38.723406 28.715636 57.026643 0
M  V30 18 N 38.706929 32.865790 60.200544 0
M  V30 19 F 38.138443 24.425396 57.734772 0
M  V30 20 C 37.869402 32.274271 57.843944 0 CFG=2
M  V30 21 C 38.720785 25.602787 57.404423 0
M  V30 22 C 44.070661 30.756535 66.546503 0
M  V30 23 F 39.314486 24.738121 55.269118 0
M  V30 24 C 39.800260 33.591730 60.848443 0
M  V30 25 C 40.665702 32.037218 63.152551 0
M  V30 26 C 38.954809 30.134551 57.319830 0 CFG=2
M  V30 27 C 40.008604 26.943634 55.861951 0
M  V30 28 S 39.765193 33.473535 62.649118 0
M  V30 29 C 43.088522 31.540113 65.729072 0
M  V30 30 C 42.794675 32.898818 65.886701 0
M  V30 31 C 37.370399 33.237900 60.676840 0
M  V30 32 O 42.864517 28.740915 64.497925 0
M  V30 33 N 41.530143 32.190796 64.194945 0
M  V30 34 C 38.815248 33.085961 58.756654 0
M  V30 35 C 37.325861 30.006946 54.463265 0
M  V30 36 C 42.574672 27.437364 64.016571 0
M  V30 37 O 45.245137 30.677498 65.767768 0
M  V30 38 H 36.867747 30.443264 57.468915 0
M  V30 39 H 39.025393 31.201351 53.915684 0
M  V30 40 H 39.445406 29.622726 54.480734 0
M  V30 41 H 38.931188 33.248934 56.182162 0
M  V30 42 H 37.457085 32.441382 55.743205 0
M  V30 43 H 41.111897 28.747231 62.499086 0
M  V30 44 H 35.645137 30.195478 60.567760 0
M  V30 45 H 35.635728 31.425586 59.376283 0
M  V30 46 H 40.164347 31.330185 56.024451 0
M  V30 47 H 37.224204 29.178506 59.402909 0
M  V30 48 H 38.357047 30.283858 60.090021 0
M  V30 49 H 41.398100 34.265968 64.790537 0
M  V30 50 H 39.812351 30.724112 61.714686 0
M  V30 51 H 35.746814 32.302467 61.714832 0
M  V30 52 H 37.273153 31.507872 61.979459 0
M  V30 53 H 38.499829 26.445298 59.367215 0
M  V30 54 H 36.897623 32.755982 57.939518 0
M  V30 55 H 44.289820 31.248634 67.494389 0
M  V30 56 H 43.701405 29.755699 66.770594 0
M  V30 57 H 40.756818 33.160413 60.567748 0
M  V30 58 H 39.790044 34.644556 60.561103 0
M  V30 59 H 39.830887 30.252036 57.956899 0
M  V30 60 H 40.606765 26.995213 54.967766 0
M  V30 61 H 43.260539 33.521213 66.637073 0
M  V30 62 H 36.766677 33.707637 59.900090 0
M  V30 63 H 37.425759 33.985170 61.468142 0
M  V30 64 H 39.831445 32.938008 58.428276 0
M  V30 65 H 38.610953 34.137685 58.569046 0
M  V30 66 H 37.245143 29.460450 53.524153 0
M  V30 67 H 36.634549 30.848706 54.427439 0
M  V30 68 H 36.974491 29.338646 55.245415 0
M  V30 69 H 43.164864 26.711937 64.576146 0
M  V30 70 H 42.848437 27.337763 62.967739 0
M  V30 71 H 41.522725 27.179839 64.150479 0
M  V30 72 H 45.884777 30.133366 66.207969 0
M  V30 END ATOM
M  V30 BEGIN BOND
M  V30 1 1 7 2
M  V30 2 1 7 3
M  V30 3 1 8 1
M  V30 4 1 8 5
M  V30 5 2 10 4
M  V30 6 1 12 4
M  V30 7 2 13 6
M  V30 8 1 14 5
M  V30 9 1 15 10
M  V30 10 1 16 13
M  V30 11 1 17 6
M  V30 12 1 17 13
M  V30 13 1 20 1
M  V30 14 1 20 3
M  V30 15 1 21 9
M  V30 16 2 21 16
M  V30 17 1 21 19
M  V30 18 1 23 9
M  V30 19 1 24 18
M  V30 20 2 25 12
M  V30 21 1 26 1
M  V30 22 1 26 7
M  V30 23 1 26 17
M  V30 24 1 27 6
M  V30 25 2 27 9
M  V30 26 1 28 24
M  V30 27 1 28 25
M  V30 28 2 29 15
M  V30 29 1 29 22
M  V30 30 2 30 11
M  V30 31 1 30 29
M  V30 32 1 31 14
M  V30 33 1 31 18
M  V30 34 1 32 10
M  V30 35 1 33 11
M  V30 36 1 33 15
M  V30 37 1 33 25
M  V30 38 1 34 18
M  V30 39 1 34 20
M  V30 40 1 35 2
M  V30 41 1 36 32
M  V30 42 1 37 22
M  V30 43 1 1 38 CFG=3
M  V30 44 1 39 2
M  V30 45 1 40 2
M  V30 46 1 41 3
M  V30 47 1 42 3
M  V30 48 1 43 4
M  V30 49 1 44 5
M  V30 50 1 45 5
M  V30 51 1 7 46 CFG=3
M  V30 52 1 47 8
M  V30 53 1 48 8
M  V30 54 1 49 11
M  V30 55 1 50 12
M  V30 56 1 51 14
M  V30 57 1 52 14
M  V30 58 1 53 16
M  V30 59 1 20 54 CFG=3
M  V30 60 1 55 22
M  V30 61 1 56 22
M  V30 62 1 57 24
M  V30 63 1 58 24
M  V30 64 1 26 59 CFG=1
M  V30 65 1 60 27
M  V30 66 1 61 30
M  V30 67 1 62 31
M  V30 68 1 63 31
M  V30 69 1 64 34
M  V30 70 1 65 34
M  V30 71 1 66 35
M  V30 72 1 67 35
M  V30 73 1 68 35
M  V30 74 1 69 36
M  V30 75 1 70 36
M  V30 76 1 71 36
M  V30 77 1 72 37
M  V30 END BOND
M  V30 END CTAB
M  END
>  <i_epik_Tot_Q>  (1) 
0

>  <i_epik_Tot_abs_Q>  (1) 
0

>  <i_i_glide_confnum>  (1) 
249

>  <i_i_glide_lignum>  (1) 
122

>  <i_i_glide_posenum>  (1) 
222

>  <i_i_glide_rotatable_bonds>  (1) 
8

>  <i_lp_mmshare_version>  (1) 
72125

>  <i_m_source_file_index>  (1) 
57

>  <i_f3d_flags>  (1) 
0

>  <num_sample>  (1) 
100

>  <b_lp_Chiralities_Consistent>  (1) 
1

>  <r_epik_Charging_Adjusted_Penalty>  (1) 
0.12519281595075751

>  <r_epik_Ionization_Penalty>  (1) 
0.12878356589467399

>  <r_epik_Ionization_Penalty_Charging>  (1) 
0

>  <r_epik_Ionization_Penalty_Neutral>  (1) 
0.12878356589467399

>  <r_epik_State_Penalty>  (1) 
0.12519281595075751

>  <r_glide_ring_energy>  (1) 
0

>  <r_i_docking_score>  (1) 
-6.8942367491035341

>  <r_i_glide_ecoul>  (1) 
-2.0633212857825365

>  <r_i_glide_eff_state_penalty>  (1) 
0.12519281595075751

>  <r_i_glide_einternal>  (1) 
6.1600850571103187

>  <r_i_glide_emodel>  (1) 
-56.775725484246081

>  <r_i_glide_emodel_strain>  (1) 
0.032815916385743549

>  <r_i_glide_energy>  (1) 
-45.43755931708106

>  <r_i_glide_erotb>  (1) 
0.36984873200181739

>  <r_i_glide_esite>  (1) 
0

>  <r_i_glide_evdw>  (1) 
-43.374238031298525

>  <r_i_glide_gscore>  (1) 
-7.0194295650542919

>  <r_i_glide_gscore_strain>  (1) 
0

>  <r_i_glide_hbond>  (1) 
-0.14193487587602549

>  <r_i_glide_ligand_efficiency>  (1) 
-0.18633072294874417

>  <r_i_glide_ligand_efficiency_ln>  (1) 
-1.4951983270398095

>  <r_i_glide_ligand_efficiency_sa>  (1) 
-0.62089530664279347

>  <r_i_glide_lipo>  (1) 
-3.2393144648685723

>  <r_i_glide_metal>  (1) 
-0

>  <r_i_glide_rewards>  (1) 
-1.5298188618792057

>  <r_lp_Energy>  (1) 
101.182165

>  <s_epik_Chemistry_Notes>  (1) 
This compound contains an acetal/aminal-like group ( X-CH(R)-Y where X, Y are N, S, or O) that may be acid/base labile, releasing an aldehyde.

>  <s_epik_cmdline>  (1) 
J2VwaWtfcHl0aG9uJywgJy1waHQnLCAnMS4wJywgJy1waCcsICc3LjQnLCAnLXRuJywgJzgnLCAnLW1hJywgJzUwMCcsICctaW1hZScsICc8aW5maWxlLm1hZT4nLCAnLW9tYWUnLCAnPG91dGZpbGUubWFlPic=

>  <s_epik_input>  (1) 
RmMoW2NIXTEpYyhGKVtjSF1jKGMxMilOMltDQEhdM1tDQEBIXShbQ0gyXVtDSDNdKVtDSDJdW0NAQEhdKFtDQEBIXTM0KVtDSDJdTihbQ0gyXVtDSDJdW0NIMl1bQ0gyXTQpW0NIMl1TYyhbY0hdW2NIXWM1T1tDSDNdKW4oYzU2KVtjSF1bY0hdYzZbQ0gyXVtPSF0=

>  <s_glide_docking_method>  (1) 
confgen

>  <s_i_glide_gridfile>  (1) 
gpcr_5ht2c_6bqh_protein_autoprepared_prepared

>  <s_lp_Force_Field>  (1) 
S-OPLS

>  <s_lp_Variant>  (1) 
DiffSBDD_56-1

>  <s_m_source_file>  (1) 
generated_GPCR_5HT2C_ligand_DiffSBDD_2026-06-23_prepared.sdf

>  <GenAI_Model>  (1) 
DiffSBDD

>  <Protein>  (1) 
GPCR_5HT2C

$$$$
DiffSBDD_56
     RDKit          3D

  0  0  0  0  0  0  0  0  0  0999 V3000
M  V30 BEGIN CTAB
M  V30 COUNTS 73 78 0 0 1
M  V30 BEGIN ATOM
M  V30 1 C 39.361525 30.008262 56.588185 0 CFG=1
M  V30 2 C 38.954793 26.484667 56.514942 0
M  V30 3 C 38.872111 28.368430 58.256853 0
M  V30 4 C 41.245987 34.334231 63.479846 0
M  V30 5 C 38.104432 32.197728 55.786729 0
M  V30 6 C 37.870402 28.357768 53.734205 0
M  V30 7 C 38.302027 27.826577 56.930362 0 CFG=1
M  V30 8 C 39.423420 31.442684 56.004961 0
M  V30 9 C 39.060588 27.537573 51.768425 0
M  V30 10 C 41.447229 33.675828 64.687332 0
M  V30 11 C 40.389120 30.297351 63.985796 0
M  V30 12 C 40.724457 33.645208 62.366774 0
M  V30 13 C 38.594273 29.581020 53.651430 0
M  V30 14 C 37.939456 33.402420 56.727184 0
M  V30 15 C 41.136813 32.286675 64.798119 0
M  V30 16 C 39.472728 29.798822 52.571654 0
M  V30 17 N 38.927601 28.619872 54.606668 0
M  V30 18 N 38.322276 32.131482 58.894332 0 CFG=2 CHG=1
M  V30 19 F 40.680620 28.937214 50.699455 0
M  V30 20 C 39.087365 29.878091 58.091888 0 CFG=2
M  V30 21 C 39.774492 28.749237 51.685622 0
M  V30 22 C 41.708807 31.601739 67.222655 0
M  V30 23 F 39.282932 26.558936 50.864297 0
M  V30 24 C 38.450110 32.429331 60.346756 0
M  V30 25 C 40.413015 32.316320 62.469593 0
M  V30 26 C 38.408291 29.003270 55.917855 0 CFG=2
M  V30 27 C 38.045210 27.386841 52.734472 0
M  V30 28 S 39.741878 31.397987 61.115967 0
M  V30 29 C 41.221802 31.371687 65.816330 0
M  V30 30 C 40.756244 30.159242 65.291675 0
M  V30 31 C 37.503656 33.152355 58.185831 0
M  V30 32 O 41.944879 34.343401 65.786589 0
M  V30 33 N 40.611619 31.637272 63.634473 0
M  V30 34 C 37.902847 30.725449 58.617979 0
M  V30 35 C 38.697945 25.349953 57.517346 0
M  V30 36 C 41.932310 35.759268 65.785656 0
M  V30 37 O 42.039619 30.349781 67.787905 0
M  V30 38 H 40.361542 29.592885 56.449547 0
M  V30 39 H 38.560748 26.164284 55.550257 0
M  V30 40 H 40.029120 26.616886 56.377784 0
M  V30 41 H 38.239875 28.120819 59.109654 0
M  V30 42 H 39.842765 27.908762 58.451704 0
M  V30 43 H 41.489508 35.386716 63.388664 0
M  V30 44 H 37.245135 31.541364 55.812334 0
M  V30 45 H 38.115670 32.587387 54.767701 0
M  V30 46 H 37.245144 27.627090 57.084900 0
M  V30 47 H 40.045173 32.060288 56.635340 0
M  V30 48 H 39.959724 31.406663 55.057262 0
M  V30 49 H 39.989255 29.600360 63.264765 0
M  V30 50 H 40.569642 34.167457 61.429672 0
M  V30 51 H 38.845118 33.980030 56.723854 0
M  V30 52 H 37.245326 34.090577 56.266426 0
M  V30 53 H 39.899569 30.778466 52.411749 0
M  V30 54 H 39.984174 30.137349 58.648967 0
M  V30 55 H 42.591950 32.241598 67.236414 0
M  V30 56 H 40.939916 32.083913 67.827229 0
M  V30 57 H 38.717703 33.475983 60.477265 0
M  V30 58 H 37.500274 32.280338 60.862147 0
M  V30 59 H 37.412596 29.442867 55.835587 0
M  V30 60 H 37.389605 26.534695 52.696815 0
M  V30 61 H 40.703094 29.245365 65.867758 0
M  V30 62 H 37.610486 34.114002 58.688867 0
M  V30 63 H 36.445388 32.937964 58.277929 0
M  V30 64 H 37.068406 30.674607 57.920824 0
M  V30 65 H 37.510141 30.284334 59.534957 0
M  V30 66 H 39.156564 24.420363 57.179023 0
M  V30 67 H 37.630179 25.166378 57.639664 0
M  V30 68 H 39.110789 25.582125 58.498651 0
M  V30 69 H 42.044996 36.128419 66.800660 0
M  V30 70 H 40.986745 36.162040 65.420067 0
M  V30 71 H 42.759216 36.138884 65.185483 0
M  V30 72 H 42.331917 30.485906 68.676080 0
M  V30 73 H 39.246199 32.232008 58.502170 0
M  V30 END ATOM
M  V30 BEGIN BOND
M  V30 1 1 7 2
M  V30 2 1 7 3
M  V30 3 1 8 1
M  V30 4 1 8 5
M  V30 5 2 10 4
M  V30 6 1 12 4
M  V30 7 2 13 6
M  V30 8 1 14 5
M  V30 9 1 15 10
M  V30 10 1 16 13
M  V30 11 1 17 6
M  V30 12 1 17 13
M  V30 13 1 20 1
M  V30 14 1 20 3
M  V30 15 1 21 9
M  V30 16 2 21 16
M  V30 17 1 21 19
M  V30 18 1 23 9
M  V30 19 1 24 18
M  V30 20 2 25 12
M  V30 21 1 26 1
M  V30 22 1 26 7
M  V30 23 1 26 17
M  V30 24 1 27 6
M  V30 25 2 27 9
M  V30 26 1 28 24
M  V30 27 1 28 25
M  V30 28 2 29 15
M  V30 29 1 29 22
M  V30 30 2 30 11
M  V30 31 1 30 29
M  V30 32 1 31 14
M  V30 33 1 31 18
M  V30 34 1 32 10
M  V30 35 1 33 11
M  V30 36 1 33 15
M  V30 37 1 33 25
M  V30 38 1 34 18
M  V30 39 1 34 20
M  V30 40 1 35 2
M  V30 41 1 36 32
M  V30 42 1 37 22
M  V30 43 1 1 38 CFG=1
M  V30 44 1 39 2
M  V30 45 1 40 2
M  V30 46 1 41 3
M  V30 47 1 42 3
M  V30 48 1 43 4
M  V30 49 1 44 5
M  V30 50 1 45 5
M  V30 51 1 7 46 CFG=1
M  V30 52 1 47 8
M  V30 53 1 48 8
M  V30 54 1 49 11
M  V30 55 1 50 12
M  V30 56 1 51 14
M  V30 57 1 52 14
M  V30 58 1 53 16
M  V30 59 1 20 54 CFG=1
M  V30 60 1 55 22
M  V30 61 1 56 22
M  V30 62 1 57 24
M  V30 63 1 58 24
M  V30 64 1 26 59 CFG=3
M  V30 65 1 60 27
M  V30 66 1 61 30
M  V30 67 1 62 31
M  V30 68 1 63 31
M  V30 69 1 64 34
M  V30 70 1 65 34
M  V30 71 1 66 35
M  V30 72 1 67 35
M  V30 73 1 68 35
M  V30 74 1 69 36
M  V30 75 1 70 36
M  V30 76 1 71 36
M  V30 77 1 72 37
M  V30 78 1 18 73 CFG=3
M  V30 END BOND
M  V30 END CTAB
M  END
>  <i_epik_Tot_Q>  (1) 
1

>  <i_epik_Tot_abs_Q>  (1) 
1

>  <i_i_glide_confnum>  (1) 
329

>  <i_i_glide_lignum>  (1) 
124

>  <i_i_glide_posenum>  (1) 
282

>  <i_i_glide_rotatable_bonds>  (1) 
8

>  <i_lp_mmshare_version>  (1) 
72125

>  <i_m_source_file_index>  (1) 
57

>  <i_f3d_flags>  (1) 
0

>  <num_sample>  (1) 
100

>  <b_lp_Chiralities_Consistent>  (1) 
1

>  <r_epik_Charging_Adjusted_Penalty>  (1) 
1.9649939919035475

>  <r_epik_Ionization_Penalty>  (1) 
0.98409533599364529

>  <r_epik_Ionization_Penalty_Charging>  (1) 
0.98249699595177398

>  <r_epik_Ionization_Penalty_Neutral>  (1) 
0.0015983400418712683

>  <r_epik_State_Penalty>  (1) 
0.98249699595177364

>  <r_glide_ring_energy>  (1) 
0

>  <r_i_docking_score>  (1) 
-6.8929290261308704

>  <r_i_glide_ecoul>  (1) 
-2.0115774572515268

>  <r_i_glide_eff_state_penalty>  (1) 
0.98249699595177364

>  <r_i_glide_einternal>  (1) 
1.3329337079178938

>  <r_i_glide_emodel>  (1) 
-72.400272782455332

>  <r_i_glide_emodel_strain>  (1) 
0.27114411544721406

>  <r_i_glide_energy>  (1) 
-47.608449946893984

>  <r_i_glide_erotb>  (1) 
0.36855175673704876

>  <r_i_glide_esite>  (1) 
-0.049724339403085349

>  <r_i_glide_evdw>  (1) 
-45.596872489642458

>  <r_i_glide_gscore>  (1) 
-7.8754260220826442

>  <r_i_glide_gscore_strain>  (1) 
0

>  <r_i_glide_hbond>  (1) 
0

>  <r_i_glide_ligand_efficiency>  (1) 
-0.18629537908461813

>  <r_i_glide_ligand_efficiency_ln>  (1) 
-1.4949147125844149

>  <r_i_glide_ligand_efficiency_sa>  (1) 
-0.62077753304643102

>  <r_i_glide_lipo>  (1) 
-4.0540405194431113

>  <r_i_glide_metal>  (1) 
-0

>  <r_i_glide_rewards>  (1) 
-1.558632676903644

>  <r_lp_Energy>  (1) 
113.81728699999999

>  <s_epik_Chemistry_Notes>  (1) 
This compound contains an acetal/aminal-like group ( X-CH(R)-Y where X, Y are N, S, or O) that may be acid/base labile, releasing an aldehyde.

>  <s_epik_cmdline>  (1) 
J2VwaWtfcHl0aG9uJywgJy1waHQnLCAnMS4wJywgJy1waCcsICc3LjQnLCAnLXRuJywgJzgnLCAnLW1hJywgJzUwMCcsICctaW1hZScsICc8aW5maWxlLm1hZT4nLCAnLW9tYWUnLCAnPG91dGZpbGUubWFlPic=

>  <s_epik_input>  (1) 
RmMoW2NIXTEpYyhGKVtjSF1jKGMxMilOMltDQEhdM1tDQEBIXShbQ0gyXVtDSDNdKVtDSDJdW0NAQEhdKFtDQEBIXTM0KVtDSDJdTihbQ0gyXVtDSDJdW0NIMl1bQ0gyXTQpW0NIMl1TYyhbY0hdW2NIXWM1T1tDSDNdKW4oYzU2KVtjSF1bY0hdYzZbQ0gyXVtPSF0=

>  <s_glide_docking_method>  (1) 
confgen

>  <s_i_glide_gridfile>  (1) 
gpcr_5ht2c_6bqh_protein_autoprepared_prepared

>  <s_lp_Force_Field>  (1) 
S-OPLS

>  <s_lp_Variant>  (1) 
DiffSBDD_56-3

>  <s_m_source_file>  (1) 
generated_GPCR_5HT2C_ligand_DiffSBDD_2026-06-23_prepared.sdf

>  <GenAI_Model>  (1) 
DiffSBDD

>  <Protein>  (1) 
GPCR_5HT2C

$$$$
DiffSBDD_74
     RDKit          3D

  0  0  0  0  0  0  0  0  0  0999 V3000
M  V30 BEGIN CTAB
M  V30 COUNTS 70 72 0 0 1
M  V30 BEGIN ATOM
M  V30 1 C 39.508833 31.059789 62.866698 0
M  V30 2 C 38.415537 30.124183 59.562064 0
M  V30 3 C 37.579143 33.860810 59.425890 0
M  V30 4 F 40.045231 29.282889 49.367758 0
M  V30 5 C 37.814041 31.293521 59.281419 0
M  V30 6 C 39.867678 29.917746 51.618147 0
M  V30 7 C 39.685395 30.937281 52.569014 0
M  V30 8 C 39.032659 26.803255 53.689646 0
M  V30 9 O 36.845143 24.850866 54.425872 0
M  V30 10 F 35.645142 35.205263 59.586476 0
M  V30 11 F 35.357343 33.056076 59.768468 0
M  V30 12 C 40.007585 28.386067 57.671607 0
M  V30 13 F 39.645143 31.346158 49.775547 0
M  V30 14 C 40.045122 32.122674 63.849836 0
M  V30 15 C 39.169213 32.555220 60.844066 0
M  V30 16 N 39.119770 26.517652 55.132254 0
M  V30 17 C 37.003204 25.314835 55.739208 0 CFG=1
M  V30 18 C 37.538854 24.146469 56.559382 0
M  V30 19 C 39.591874 30.029420 60.524643 0
M  V30 20 C 39.245128 28.256256 53.295743 0
M  V30 21 N 38.548162 28.308987 57.710712 0
M  V30 22 F 41.605785 30.537761 50.180587 0
M  V30 23 C 38.002486 26.973441 57.365938 0 CFG=1
M  V30 24 C 39.856386 31.302518 61.377169 0 CFG=2
M  V30 25 C 37.842581 26.618358 55.853971 0 CFG=1
M  V30 26 C 38.577461 25.777961 58.165058 0
M  V30 27 C 39.276380 30.626606 53.875233 0
M  V30 28 F 38.321644 34.905086 59.797906 0
M  V30 29 F 37.468957 33.876323 58.097190 0
M  V30 30 O 41.245138 31.512868 61.367748 0
M  V30 31 C 37.940073 28.809711 58.957379 0
M  V30 32 C 40.301498 30.273694 50.206688 0
M  V30 33 C 39.645135 28.573180 51.980190 0
M  V30 34 C 38.220202 32.552710 59.883087 0
M  V30 35 C 36.181133 34.070029 60.035459 0
M  V30 36 C 39.055271 29.291302 54.241087 0
M  V30 37 C 37.672431 24.543894 58.018407 0
M  V30 38 H 38.426476 30.974955 62.967756 0
M  V30 39 H 39.906536 30.094716 63.185048 0
M  V30 40 H 36.985992 31.296907 58.584469 0
M  V30 41 H 39.850529 31.959034 52.287697 0
M  V30 42 H 39.805142 26.226704 53.179777 0
M  V30 43 H 38.087189 26.487747 53.255370 0
M  V30 44 H 36.204091 24.156707 54.421988 0
M  V30 45 H 40.405616 28.002331 56.734444 0
M  V30 46 H 40.341129 29.419983 57.746053 0
M  V30 47 H 40.457690 27.817283 58.485676 0
M  V30 48 H 39.774770 31.870601 64.875157 0
M  V30 49 H 41.132757 32.189176 63.834343 0
M  V30 50 H 39.645219 33.112518 63.633831 0
M  V30 51 H 39.472314 33.491348 61.288849 0
M  V30 52 H 39.497755 25.586155 55.263485 0
M  V30 53 H 36.014940 25.544487 56.124805 0
M  V30 54 H 38.504470 23.824748 56.171348 0
M  V30 55 H 36.851610 23.301943 56.479865 0
M  V30 56 H 40.474702 29.787827 59.933885 0
M  V30 57 H 39.440284 29.165793 61.173328 0
M  V30 58 H 36.960618 27.019872 57.687934 0
M  V30 59 H 37.256358 27.414637 55.396150 0
M  V30 60 H 39.587556 25.543776 57.825562 0
M  V30 61 H 38.660349 26.032520 59.217090 0
M  V30 62 H 39.133362 31.416002 54.598986 0
M  V30 63 H 41.442123 32.185502 62.002298 0
M  V30 64 H 38.045186 28.067748 59.745100 0
M  V30 65 H 36.869828 28.937335 58.787436 0
M  V30 66 H 39.788472 27.785401 51.254895 0
M  V30 67 H 36.235820 34.153694 61.121220 0
M  V30 68 H 38.746704 29.060889 55.245214 0
M  V30 69 H 38.045139 23.684960 58.567749 0
M  V30 70 H 36.682981 24.763529 58.413158 0
M  V30 END ATOM
M  V30 BEGIN BOND
M  V30 1 2 5 2
M  V30 2 2 7 6
M  V30 3 1 14 1
M  V30 4 1 16 8
M  V30 5 1 17 9
M  V30 6 1 18 17
M  V30 7 1 19 2
M  V30 8 1 20 8
M  V30 9 1 21 12
M  V30 10 1 23 21
M  V30 11 1 24 1
M  V30 12 1 24 15
M  V30 13 1 24 19
M  V30 14 1 25 16
M  V30 15 1 25 17
M  V30 16 1 25 23
M  V30 17 1 26 23
M  V30 18 1 27 7
M  V30 19 1 28 3
M  V30 20 1 29 3
M  V30 21 1 24 30 CFG=1
M  V30 22 1 31 2
M  V30 23 1 31 21
M  V30 24 1 32 4
M  V30 25 1 32 6
M  V30 26 1 32 13
M  V30 27 1 32 22
M  V30 28 1 33 6
M  V30 29 2 33 20
M  V30 30 1 34 3
M  V30 31 1 34 5
M  V30 32 2 34 15
M  V30 33 1 35 3
M  V30 34 1 35 10
M  V30 35 1 35 11
M  V30 36 1 36 20
M  V30 37 2 36 27
M  V30 38 1 37 18
M  V30 39 1 37 26
M  V30 40 1 38 1
M  V30 41 1 39 1
M  V30 42 1 40 5
M  V30 43 1 41 7
M  V30 44 1 42 8
M  V30 45 1 43 8
M  V30 46 1 44 9
M  V30 47 1 45 12
M  V30 48 1 46 12
M  V30 49 1 47 12
M  V30 50 1 48 14
M  V30 51 1 49 14
M  V30 52 1 50 14
M  V30 53 1 51 15
M  V30 54 1 52 16
M  V30 55 1 17 53 CFG=1
M  V30 56 1 54 18
M  V30 57 1 55 18
M  V30 58 1 56 19
M  V30 59 1 57 19
M  V30 60 1 23 58 CFG=1
M  V30 61 1 25 59 CFG=3
M  V30 62 1 60 26
M  V30 63 1 61 26
M  V30 64 1 62 27
M  V30 65 1 63 30
M  V30 66 1 64 31
M  V30 67 1 65 31
M  V30 68 1 66 33
M  V30 69 1 67 35
M  V30 70 1 68 36
M  V30 71 1 69 37
M  V30 72 1 70 37
M  V30 END BOND
M  V30 END CTAB
M  END
>  <i_epik_Tot_Q>  (1) 
0

>  <i_epik_Tot_abs_Q>  (1) 
0

>  <i_i_glide_confnum>  (1) 
1859

>  <i_i_glide_lignum>  (1) 
163

>  <i_i_glide_posenum>  (1) 
351

>  <i_i_glide_rotatable_bonds>  (1) 
12

>  <i_lp_mmshare_version>  (1) 
72125

>  <i_m_source_file_index>  (1) 
75

>  <i_f3d_flags>  (1) 
0

>  <num_sample>  (1) 
100

>  <b_lp_Chiralities_Consistent>  (1) 
1

>  <r_epik_Charging_Adjusted_Penalty>  (1) 
0.95016653891127834

>  <r_epik_Ionization_Penalty>  (1) 
0.98731077050132976

>  <r_epik_Ionization_Penalty_Charging>  (1) 
0

>  <r_epik_Ionization_Penalty_Neutral>  (1) 
0.98731077050132976

>  <r_epik_State_Penalty>  (1) 
0.95016653891127834

>  <r_glide_ring_energy>  (1) 
0.44290784878137951

>  <r_i_docking_score>  (1) 
-6.892733490182029

>  <r_i_glide_ecoul>  (1) 
-1.9024414491209558

>  <r_i_glide_eff_state_penalty>  (1) 
0.95016653891127834

>  <r_i_glide_einternal>  (1) 
24.583997099878637

>  <r_i_glide_emodel>  (1) 
-42.433659478372448

>  <r_i_glide_emodel_strain>  (1) 
0

>  <r_i_glide_energy>  (1) 
-37.658279790149948

>  <r_i_glide_erotb>  (1) 
0.49869770839919392

>  <r_i_glide_esite>  (1) 
-0.10922126299580154

>  <r_i_glide_evdw>  (1) 
-35.755838341028991

>  <r_i_glide_gscore>  (1) 
-7.8429000290933075

>  <r_i_glide_gscore_strain>  (1) 
0

>  <r_i_glide_hbond>  (1) 
-0.16155225464347153

>  <r_i_glide_ligand_efficiency>  (1) 
-0.18629009432924404

>  <r_i_glide_ligand_efficiency_ln>  (1) 
-1.4948723054211241

>  <r_i_glide_ligand_efficiency_sa>  (1) 
-0.62075992306909289

>  <r_i_glide_lipo>  (1) 
-4.6203485445688317

>  <r_i_glide_metal>  (1) 
-0

>  <r_i_glide_rewards>  (1) 
-1.3773175408648024

>  <r_lp_Energy>  (1) 
51.967185000000001

>  <s_epik_cmdline>  (1) 
J2VwaWtfcHl0aG9uJywgJy1waHQnLCAnMS4wJywgJy1waCcsICc3LjQnLCAnLXRuJywgJzgnLCAnLW1hJywgJzUwMCcsICctaW1hZScsICc8aW5maWxlLm1hZT4nLCAnLW9tYWUnLCAnPG91dGZpbGUubWFlPic=

>  <s_epik_input>  (1) 
W0NIM11bQ0gyXVtDQF0xKFtPSF0pW0NIXT1DKEMoRikoRilbQ0hdKEYpRilbQ0hdPUMoW0NIMl0xKVtDSDJdTihbQ0gzXSlbQ0BIXShbQ0gyXVtDSDJdW0NIMl1bQ0BASF0yW09IXSlbQ0BIXTJbTkhdW0NIMl1jKFtjSF0zKVtjSF1bY0hdW2NIXWMzQyhGKShGKUY=

>  <s_glide_docking_method>  (1) 
confgen

>  <s_i_glide_gridfile>  (1) 
gpcr_5ht2c_6bqh_protein_autoprepared_prepared

>  <s_lp_Force_Field>  (1) 
S-OPLS

>  <s_lp_Variant>  (1) 
DiffSBDD_74-2

>  <s_m_source_file>  (1) 
generated_GPCR_5HT2C_ligand_DiffSBDD_2026-06-23_prepared.sdf

>  <GenAI_Model>  (1) 
DiffSBDD

>  <Protein>  (1) 
GPCR_5HT2C

$$$$
DiffSBDD_85
     RDKit          3D

  0  0  0  0  0  0  0  0  0  0999 V3000
M  V30 BEGIN CTAB
M  V30 COUNTS 62 65 0 0 1
M  V30 BEGIN ATOM
M  V30 1 C 37.906819 26.848831 55.525805 0
M  V30 2 C 37.951061 32.574508 56.449939 0
M  V30 3 N 37.791170 32.107409 61.329416 0
M  V30 4 C 40.040911 27.455737 58.513536 0
M  V30 5 C 39.733755 29.506429 51.541143 0
M  V30 6 C 38.689947 32.525981 60.265236 0 CFG=2
M  V30 7 O 37.255499 26.242155 54.676782 0
M  V30 8 F 39.580723 27.337449 50.567676 0
M  V30 9 C 39.645156 30.331912 52.677206 0
M  V30 10 O 38.773490 27.864209 55.278801 0
M  V30 11 O 38.045124 39.117110 60.055331 0
M  V30 12 C 38.468614 33.391145 61.478988 0 CFG=1
M  V30 13 C 40.019888 26.100875 58.046961 0
M  V30 14 C 36.438149 32.155721 59.455274 0
M  V30 15 C 38.230013 35.808517 61.257721 0
M  V30 16 C 37.833724 32.611027 59.024949 0 CFG=2
M  V30 17 C 37.820221 38.392226 61.236284 0
M  V30 18 N 37.700468 34.579579 61.314631 0
M  V30 19 O 36.418849 32.335712 60.864936 0
M  V30 20 C 38.445621 31.933291 57.763568 0 CFG=1
M  V30 21 O 39.032123 33.163854 55.767777 0
M  V30 22 C 37.802007 26.513775 57.015763 0 CFG=1
M  V30 23 C 38.863381 29.698229 58.775717 0
M  V30 24 C 37.238144 36.966092 61.048905 0 CFG=1
M  V30 25 N 38.250637 30.479033 57.705391 0
M  V30 26 Cl 41.459104 28.078086 59.281135 0
M  V30 27 C 39.305503 29.778156 53.925519 0
M  V30 28 C 38.956645 28.246405 58.347507 0
M  V30 29 C 39.067505 28.393761 54.044040 0
M  V30 30 C 38.982360 25.641038 57.362183 0
M  V30 31 C 36.458880 36.790076 59.730412 0
M  V30 32 C 39.490973 28.126309 51.654091 0
M  V30 33 O 37.797697 27.772878 57.736149 0
M  V30 34 O 39.437571 36.024302 61.364603 0
M  V30 35 C 39.162333 27.566571 52.899851 0
M  V30 36 H 37.450825 31.863997 55.788706 0
M  V30 37 H 37.244581 33.374983 56.649000 0
M  V30 38 H 39.989656 29.932653 50.582084 0
M  V30 39 H 39.651058 32.027557 60.181455 0
M  V30 40 H 39.833119 31.391613 52.589283 0
M  V30 41 H 37.183450 39.346858 59.717794 0
M  V30 42 H 39.276203 33.423174 62.209354 0
M  V30 43 H 40.852627 25.449826 58.250188 0
M  V30 44 H 36.260961 31.100592 59.246067 0
M  V30 45 H 35.645787 32.727784 58.972334 0
M  V30 46 H 37.775506 33.678002 58.806698 0
M  V30 47 H 38.763976 38.390431 61.775809 0
M  V30 48 H 37.099645 38.993946 61.783659 0
M  V30 49 H 36.700441 34.473617 61.221416 0
M  V30 50 H 39.513831 32.132284 57.784092 0
M  V30 51 H 39.643311 32.486398 55.525979 0
M  V30 52 H 36.874311 25.979226 57.220282 0
M  V30 53 H 39.855409 30.084494 58.999418 0
M  V30 54 H 38.274557 29.762538 59.691029 0
M  V30 55 H 36.520840 36.839322 61.861413 0
M  V30 56 H 38.581613 30.136174 56.810751 0
M  V30 57 H 39.239051 30.412958 54.795496 0
M  V30 58 H 38.968136 24.620063 57.009012 0
M  V30 59 H 36.011859 35.799605 59.638357 0
M  V30 60 H 35.645209 37.505758 59.681847 0
M  V30 61 H 37.098456 36.937028 58.858564 0
M  V30 62 H 38.991429 26.505849 52.979576 0
M  V30 END ATOM
M  V30 BEGIN BOND
M  V30 1 1 6 3
M  V30 2 2 7 1
M  V30 3 2 9 5
M  V30 4 1 10 1
M  V30 5 1 12 3
M  V30 6 1 12 6
M  V30 7 1 13 4
M  V30 8 1 16 6
M  V30 9 1 16 14
M  V30 10 1 17 11
M  V30 11 1 18 12
M  V30 12 1 18 15
M  V30 13 1 19 3
M  V30 14 1 19 14
M  V30 15 1 20 2
M  V30 16 1 20 16
M  V30 17 1 21 2
M  V30 18 1 22 1
M  V30 19 1 24 15
M  V30 20 1 24 17
M  V30 21 1 25 20
M  V30 22 1 25 23
M  V30 23 1 26 4
M  V30 24 1 27 9
M  V30 25 2 28 4
M  V30 26 1 28 23
M  V30 27 1 29 10
M  V30 28 2 29 27
M  V30 29 2 30 13
M  V30 30 1 30 22
M  V30 31 1 31 24
M  V30 32 1 32 5
M  V30 33 1 32 8
M  V30 34 1 33 22
M  V30 35 1 33 28
M  V30 36 2 34 15
M  V30 37 1 35 29
M  V30 38 2 35 32
M  V30 39 1 36 2
M  V30 40 1 37 2
M  V30 41 1 38 5
M  V30 42 1 6 39 CFG=3
M  V30 43 1 40 9
M  V30 44 1 41 11
M  V30 45 1 12 42 CFG=1
M  V30 46 1 43 13
M  V30 47 1 44 14
M  V30 48 1 45 14
M  V30 49 1 16 46 CFG=3
M  V30 50 1 47 17
M  V30 51 1 48 17
M  V30 52 1 49 18
M  V30 53 1 20 50 CFG=1
M  V30 54 1 51 21
M  V30 55 1 22 52 CFG=3
M  V30 56 1 53 23
M  V30 57 1 54 23
M  V30 58 1 24 55 CFG=1
M  V30 59 1 56 25
M  V30 60 1 57 27
M  V30 61 1 58 30
M  V30 62 1 59 31
M  V30 63 1 60 31
M  V30 64 1 61 31
M  V30 65 1 62 35
M  V30 END BOND
M  V30 END CTAB
M  END
>  <i_epik_Tot_Q>  (1) 
0

>  <i_epik_Tot_abs_Q>  (1) 
0

>  <i_i_glide_confnum>  (1) 
1334

>  <i_i_glide_lignum>  (1) 
202

>  <i_i_glide_posenum>  (1) 
324

>  <i_i_glide_rotatable_bonds>  (1) 
14

>  <i_lp_mmshare_version>  (1) 
72125

>  <i_m_source_file_index>  (1) 
86

>  <i_f3d_flags>  (1) 
0

>  <num_sample>  (1) 
100

>  <b_lp_Chiralities_Consistent>  (1) 
1

>  <r_epik_Charging_Adjusted_Penalty>  (1) 
0

>  <r_epik_Ionization_Penalty>  (1) 
0.002846787164494627

>  <r_epik_Ionization_Penalty_Charging>  (1) 
0

>  <r_epik_Ionization_Penalty_Neutral>  (1) 
0.002846787164494627

>  <r_epik_State_Penalty>  (1) 
-0

>  <r_glide_ring_energy>  (1) 
0

>  <r_i_docking_score>  (1) 
-6.8853360373053452

>  <r_i_glide_ecoul>  (1) 
-4.3271527888240531

>  <r_i_glide_eff_state_penalty>  (1) 
-0

>  <r_i_glide_einternal>  (1) 
13.948421747710981

>  <r_i_glide_emodel>  (1) 
-59.889664116377823

>  <r_i_glide_emodel_strain>  (1) 
7.1494835148002593

>  <r_i_glide_energy>  (1) 
-50.905679423140548

>  <r_i_glide_erotb>  (1) 
0.93847147272533338

>  <r_i_glide_esite>  (1) 
-0.028613483888626653

>  <r_i_glide_evdw>  (1) 
-46.578526634316496

>  <r_i_glide_gscore>  (1) 
-6.8853360373053452

>  <r_i_glide_gscore_strain>  (1) 
0.78737087870006484

>  <r_i_glide_hbond>  (1) 
-0.32000000000000001

>  <r_i_glide_ligand_efficiency>  (1) 
-0.19672388678015271

>  <r_i_glide_ligand_efficiency_ln>  (1) 
-1.5114840719885894

>  <r_i_glide_ligand_efficiency_sa>  (1) 
-0.64349687845591208

>  <r_i_glide_lipo>  (1) 
-3.6432170286421814

>  <r_i_glide_metal>  (1) 
-0

>  <r_i_glide_rewards>  (1) 
-1.641348626160503

>  <r_lp_Energy>  (1) 
32.790191999999998

>  <r_lp_tautomer_probability>  (1) 
1

>  <s_epik_Chemistry_Notes>  (1) 
This compound contains an acetal/aminal-like group ( X-CH(R)-Y where X, Y are N, S, or O) that may be acid/base labile, releasing an aldehyde. This compound has a N-S or N-O group and may undergo hydrolysis at high or low pH.

>  <s_epik_cmdline>  (1) 
J2VwaWtfcHl0aG9uJywgJy1waHQnLCAnMS4wJywgJy1waCcsICc3LjQnLCAnLXRuJywgJzgnLCAnLW1hJywgJzUwMCcsICctaW1hZScsICc8aW5maWxlLm1hZT4nLCAnLW9tYWUnLCAnPG91dGZpbGUubWFlPic=

>  <s_epik_input>  (1) 
RmMoW2NIXTEpW2NIXVtjSF1bY0hdYzFPQyg9TylbQ0BASF0oW0NIXT1bQ0hdMilPQyg9QzJDbClbQ0gyXVtOSF1bQ0BASF0oW0NIMl1bT0hdKVtDQEBIXShbQ0gyXU8zKVtDSF0oW05AQF0zNClbQ0BIXTRbTkhdQyg9TylbQ0BIXShbQ0gzXSlbQ0gyXVtPSF0=

>  <s_glide_docking_method>  (1) 
confgen

>  <s_i_glide_gridfile>  (1) 
gpcr_5ht2c_6bqh_protein_autoprepared_prepared

>  <s_lp_Force_Field>  (1) 
S-OPLS

>  <s_lp_Variant>  (1) 
DiffSBDD_85-1

>  <s_m_source_file>  (1) 
generated_GPCR_5HT2C_ligand_DiffSBDD_2026-06-23_prepared.sdf

>  <GenAI_Model>  (1) 
DiffSBDD

>  <Protein>  (1) 
GPCR_5HT2C

$$$$
DiffSBDD_48
     RDKit          3D

  0  0  0  0  0  0  0  0  0  0999 V3000
M  V30 BEGIN CTAB
M  V30 COUNTS 75 77 0 0 1
M  V30 BEGIN ATOM
M  V30 1 C 40.834873 32.981169 62.087080 0
M  V30 2 C 40.246476 25.656004 56.154884 0
M  V30 3 C 35.645133 34.937777 59.775952 0
M  V30 4 C 37.669483 25.816551 55.722855 0 CFG=2
M  V30 5 C 41.561685 30.326933 50.192442 0
M  V30 6 O 41.320771 34.045639 62.525857 0
M  V30 7 C 39.521099 28.959905 50.434248 0
M  V30 8 C 39.408466 31.337743 49.598168 0
M  V30 9 C 38.070661 34.531308 60.675609 0 CFG=1
M  V30 10 C 39.995038 30.934901 52.045820 0
M  V30 11 C 39.303237 32.926373 61.915758 0 CFG=1
M  V30 12 C 38.663265 29.476299 53.481497 0 CFG=1
M  V30 13 C 37.887944 27.014773 53.522728 0
M  V30 14 C 38.737955 33.554996 59.702043 0 CFG=2
M  V30 15 C 36.611147 30.036004 54.919649 0
M  V30 16 C 36.552051 34.314786 60.833062 0
M  V30 17 F 37.664525 24.516090 56.016579 0
M  V30 18 O 41.482700 31.956089 61.771921 0 CHG=-1
M  V30 19 C 37.936088 30.544917 54.350541 0 CFG=1
M  V30 20 C 38.839375 32.502958 57.419730 0
M  V30 21 C 38.001058 33.309484 58.381119 0
M  V30 22 C 38.823986 31.193233 55.403993 0
M  V30 23 O 38.743385 34.249342 61.903208 0
M  V30 24 C 39.626841 26.138633 57.446413 0
M  V30 25 O 36.087256 33.664353 61.767683 0
M  V30 26 O 39.946050 29.951503 53.073852 0
M  V30 27 C 37.360130 26.027289 54.258762 0
M  V30 28 N 38.063252 32.146361 56.230146 0 CHG=1
M  V30 29 C 38.868137 28.035738 54.066382 0 CFG=2
M  V30 30 C 39.054152 27.907945 55.603461 0
M  V30 31 C 40.090437 30.383523 50.595110 0
M  V30 32 C 38.988271 26.475966 56.116709 0
M  V30 33 C 38.904653 32.315141 60.567164 0
M  V30 34 H 40.160013 24.596364 55.931118 0
M  V30 35 H 41.161658 26.137640 55.819465 0
M  V30 36 H 35.952772 34.723590 58.758708 0
M  V30 37 H 34.635784 34.537727 59.881538 0
M  V30 38 H 35.645043 36.020711 59.888418 0
M  V30 39 H 36.860665 26.247836 56.311734 0
M  V30 40 H 42.009018 31.314393 50.167844 0
M  V30 41 H 42.125934 29.737782 50.910537 0
M  V30 42 H 41.664285 29.911903 49.190527 0
M  V30 43 H 38.445133 28.925076 50.568034 0
M  V30 44 H 39.709033 28.584694 49.431265 0
M  V30 45 H 39.977903 28.255149 51.129120 0
M  V30 46 H 40.045021 32.175504 49.367777 0
M  V30 47 H 39.245137 30.848572 48.644361 0
M  V30 48 H 38.449737 31.737754 49.916428 0
M  V30 49 H 38.249455 35.566077 60.382320 0
M  V30 50 H 39.245137 31.705889 52.169640 0
M  V30 51 H 40.901527 31.483753 52.248767 0
M  V30 52 H 38.880592 32.353461 62.741225 0
M  V30 53 H 38.045178 29.352012 52.597393 0
M  V30 54 H 37.627172 27.099787 52.477787 0
M  V30 55 H 39.725396 33.956837 59.472700 0
M  V30 56 H 36.585048 29.997263 56.007987 0
M  V30 57 H 35.780005 30.657150 54.586922 0
M  V30 58 H 36.445145 29.024768 54.567775 0
M  V30 59 H 37.661416 31.381313 53.717972 0
M  V30 60 H 39.175480 31.590733 57.912234 0
M  V30 61 H 39.724312 33.059500 57.116360 0
M  V30 62 H 37.759325 34.254916 57.898426 0
M  V30 63 H 37.062938 32.781979 58.565886 0
M  V30 64 H 39.275100 30.442307 56.044562 0
M  V30 65 H 39.651078 31.724985 54.931266 0
M  V30 66 H 40.143598 26.932106 57.982519 0
M  V30 67 H 39.135890 25.398225 58.074282 0
M  V30 68 H 36.676448 25.328171 53.801185 0
M  V30 69 H 37.835049 32.973246 55.696177 0
M  V30 70 H 39.763951 27.636680 53.605150 0
M  V30 71 H 40.012617 28.343416 55.887602 0
M  V30 72 H 38.284290 28.449468 56.145656 0
M  V30 73 H 37.962777 31.773935 60.667245 0
M  V30 74 H 39.631822 31.608608 60.167820 0
M  V30 75 H 37.171701 31.738314 56.522724 0
M  V30 END ATOM
M  V30 BEGIN BOND
M  V30 1 2 6 1
M  V30 2 1 11 1
M  V30 3 1 14 9
M  V30 4 1 16 3
M  V30 5 1 16 9
M  V30 6 1 17 4
M  V30 7 1 18 1
M  V30 8 1 19 12
M  V30 9 1 19 15
M  V30 10 1 21 14
M  V30 11 1 21 20
M  V30 12 1 22 19
M  V30 13 1 23 9
M  V30 14 1 23 11
M  V30 15 1 24 2
M  V30 16 2 25 16
M  V30 17 1 26 10
M  V30 18 1 26 12
M  V30 19 1 27 4
M  V30 20 2 27 13
M  V30 21 1 28 20
M  V30 22 1 28 22
M  V30 23 1 29 12
M  V30 24 1 29 13
M  V30 25 1 30 29
M  V30 26 1 31 5
M  V30 27 1 31 7
M  V30 28 1 31 8
M  V30 29 1 31 10
M  V30 30 1 32 2
M  V30 31 1 32 4
M  V30 32 1 32 24
M  V30 33 1 32 30
M  V30 34 1 33 11
M  V30 35 1 33 14
M  V30 36 1 34 2
M  V30 37 1 35 2
M  V30 38 1 36 3
M  V30 39 1 37 3
M  V30 40 1 38 3
M  V30 41 1 4 39 CFG=1
M  V30 42 1 40 5
M  V30 43 1 41 5
M  V30 44 1 42 5
M  V30 45 1 43 7
M  V30 46 1 44 7
M  V30 47 1 45 7
M  V30 48 1 46 8
M  V30 49 1 47 8
M  V30 50 1 48 8
M  V30 51 1 9 49 CFG=3
M  V30 52 1 50 10
M  V30 53 1 51 10
M  V30 54 1 11 52 CFG=1
M  V30 55 1 12 53 CFG=3
M  V30 56 1 54 13
M  V30 57 1 14 55 CFG=3
M  V30 58 1 56 15
M  V30 59 1 57 15
M  V30 60 1 58 15
M  V30 61 1 19 59 CFG=3
M  V30 62 1 60 20
M  V30 63 1 61 20
M  V30 64 1 62 21
M  V30 65 1 63 21
M  V30 66 1 64 22
M  V30 67 1 65 22
M  V30 68 1 66 24
M  V30 69 1 67 24
M  V30 70 1 68 27
M  V30 71 1 69 28
M  V30 72 1 29 70 CFG=3
M  V30 73 1 71 30
M  V30 74 1 72 30
M  V30 75 1 73 33
M  V30 76 1 74 33
M  V30 77 1 75 28
M  V30 END BOND
M  V30 END CTAB
M  END
>  <i_epik_Tot_Q>  (1) 
0

>  <i_epik_Tot_abs_Q>  (1) 
2

>  <i_i_glide_confnum>  (1) 
32

>  <i_i_glide_lignum>  (1) 
101

>  <i_i_glide_posenum>  (1) 
187

>  <i_i_glide_rotatable_bonds>  (1) 
12

>  <i_lp_mmshare_version>  (1) 
72125

>  <i_m_source_file_index>  (1) 
49

>  <i_f3d_flags>  (1) 
0

>  <num_sample>  (1) 
100

>  <b_lp_Chiralities_Consistent>  (1) 
1

>  <r_epik_Charging_Adjusted_Penalty>  (1) 
0.0012752337282245032

>  <r_epik_Ionization_Penalty>  (1) 
0.0012752337438600718

>  <r_epik_Ionization_Penalty_Charging>  (1) 
0.0012752337282245032

>  <r_epik_Ionization_Penalty_Neutral>  (1) 
1.5635568601569758e-11

>  <r_epik_State_Penalty>  (1) 
-0

>  <r_glide_ring_energy>  (1) 
0

>  <r_i_docking_score>  (1) 
-6.8852848840754337

>  <r_i_glide_ecoul>  (1) 
-6.674502003347107

>  <r_i_glide_eff_state_penalty>  (1) 
-0

>  <r_i_glide_einternal>  (1) 
12.683878138218486

>  <r_i_glide_emodel>  (1) 
-35.813257946301313

>  <r_i_glide_emodel_strain>  (1) 
7.5956886558502603

>  <r_i_glide_energy>  (1) 
-35.589151583756994

>  <r_i_glide_erotb>  (1) 
0.73840374044631085

>  <r_i_glide_esite>  (1) 
-0.10000000000000001

>  <r_i_glide_evdw>  (1) 
-28.91464958040989

>  <r_i_glide_gscore>  (1) 
-6.8852848840754337

>  <r_i_glide_gscore_strain>  (1) 
0.89892216396256508

>  <r_i_glide_hbond>  (1) 
-0.21500375052477896

>  <r_i_glide_ligand_efficiency>  (1) 
-0.20864499648713436

>  <r_i_glide_ligand_efficiency_ln>  (1) 
-1.5312517081211989

>  <r_i_glide_ligand_efficiency_sa>  (1) 
-0.66923598901434211

>  <r_i_glide_lipo>  (1) 
-3.7067790315544631

>  <r_i_glide_metal>  (1) 
-0

>  <r_i_glide_rewards>  (1) 
-2.0539202268825054

>  <r_lp_Energy>  (1) 
20.638030999999998

>  <r_lp_tautomer_probability>  (1) 
1

>  <s_epik_cmdline>  (1) 
J2VwaWtfcHl0aG9uJywgJy1waHQnLCAnMS4wJywgJy1waCcsICc3LjQnLCAnLXRuJywgJzgnLCAnLW1hJywgJzUwMCcsICctaW1hZScsICc8aW5maWxlLm1hZT4nLCAnLW9tYWUnLCAnPG91dGZpbGUubWFlPic=

>  <s_epik_input>  (1) 
Tz1DKFtPSF0pW0NAQEhdKE8xKVtDSDJdW0NASF0oW0NASF0xQyg9TylbQ0gzXSlbQ0gyXVtDSDJdW05IXVtDSDJdW0NASF0oW0NIM10pW0NAQEhdKE9bQ0gyXUMoW0NIM10pKFtDSDNdKVtDSDNdKVtDQEBIXShbQ0gyXTIpW0NIXT1bQ0hdW0NAQEhdKEYpQzIzW0NIMl1bQ0gyXTM=

>  <s_glide_docking_method>  (1) 
confgen

>  <s_i_glide_gridfile>  (1) 
gpcr_5ht2c_6bqh_protein_autoprepared_prepared

>  <s_lp_Force_Field>  (1) 
S-OPLS

>  <s_lp_Variant>  (1) 
DiffSBDD_48-1

>  <s_m_source_file>  (1) 
generated_GPCR_5HT2C_ligand_DiffSBDD_2026-06-23_prepared.sdf

>  <GenAI_Model>  (1) 
DiffSBDD

>  <Protein>  (1) 
GPCR_5HT2C

$$$$
DiffSBDD_75
     RDKit          3D

  0  0  0  0  0  0  0  0  0  0999 V3000
M  V30 BEGIN CTAB
M  V30 COUNTS 77 78 0 0 1
M  V30 BEGIN ATOM
M  V30 1 C 37.329215 34.324686 60.845415 0
M  V30 2 C 38.102428 33.475368 57.361552 0
M  V30 3 O 36.623717 29.454882 58.167767 0
M  V30 4 C 36.696963 36.462689 62.853934 0
M  V30 5 C 38.233728 27.655310 56.797331 0 CFG=2
M  V30 6 C 41.257141 35.328339 64.791857 0
M  V30 7 C 37.860321 29.274786 58.835694 0 CFG=2
M  V30 8 C 41.775386 34.116714 65.294129 0
M  V30 9 O 39.252342 27.213306 54.660904 0
M  V30 10 C 39.932265 27.649467 58.728308 0 CFG=1
M  V30 11 O 40.388162 34.137800 68.708212 0
M  V30 12 S 37.078769 31.735562 59.981663 0
M  V30 13 C 35.817549 37.638638 63.311496 0
M  V30 14 C 40.671220 34.526409 67.432095 0
M  V30 15 C 38.367844 30.671947 59.260384 0
M  V30 16 C 41.584654 35.761848 63.366624 0
M  V30 17 C 40.444370 36.137757 65.615669 0
M  V30 18 O 41.862925 28.137754 57.348472 0
M  V30 19 C 40.592401 28.360369 59.927139 0
M  V30 20 C 38.884760 28.503097 57.938648 0 CFG=1
M  V30 21 O 35.245137 37.337755 64.569713 0
M  V30 22 O 37.540274 34.035411 58.537890 0
M  V30 23 O 39.645134 33.985006 62.414218 0
M  V30 24 C 36.882584 37.484678 60.569034 0
M  V30 25 N 37.552940 36.728886 61.657311 0 CFG=2 CHG=1
M  V30 26 C 39.442327 35.145910 62.058661 0
M  V30 27 C 41.481896 33.716223 66.611941 0
M  V30 28 C 40.397397 36.260073 62.511962 0
M  V30 29 C 38.271397 35.530729 61.118495 0 CFG=1
M  V30 30 C 40.152769 35.736572 66.934155 0
M  V30 31 C 40.452115 26.332919 56.551063 0
M  V30 32 C 37.843694 33.371397 59.757858 0 CFG=1
M  V30 33 C 37.323028 26.499346 57.260138 0
M  V30 34 C 41.018626 27.088750 57.772490 0 CFG=2
M  V30 35 C 39.309938 27.083459 55.882403 0
M  V30 36 H 37.167550 33.766016 61.767759 0
M  V30 37 H 36.336743 34.662200 60.544695 0
M  V30 38 H 37.928430 34.141619 56.517419 0
M  V30 39 H 39.179790 33.337754 57.461166 0
M  V30 40 H 37.645139 32.520379 57.108849 0
M  V30 41 H 36.555514 30.332925 57.804251 0
M  V30 42 H 36.045140 35.606360 62.688796 0
M  V30 43 H 37.366634 36.199920 63.672423 0
M  V30 44 H 37.645170 28.687568 59.726171 0
M  V30 45 H 42.399208 33.494605 64.668976 0
M  V30 46 H 41.236078 26.137759 55.820336 0
M  V30 47 H 39.408985 26.794276 59.153977 0
M  V30 48 H 40.805022 33.324892 68.949018 0
M  V30 49 H 36.401956 38.554846 63.367761 0
M  V30 50 H 35.008537 37.836689 62.611043 0
M  V30 51 H 38.794112 31.170470 58.395559 0
M  V30 52 H 39.174645 30.608041 59.986203 0
M  V30 53 H 42.348443 36.537755 63.415474 0
M  V30 54 H 42.045135 34.918719 62.855567 0
M  V30 55 H 40.045153 37.067477 65.238009 0
M  V30 56 H 42.586994 27.764854 56.866699 0
M  V30 57 H 41.065590 29.296022 59.628025 0
M  V30 58 H 39.872852 28.569649 60.718061 0
M  V30 59 H 41.369006 27.737754 60.371378 0
M  V30 60 H 39.450568 29.274525 57.414083 0
M  V30 61 H 34.887071 36.449477 64.567758 0
M  V30 62 H 36.045130 36.928623 60.150386 0
M  V30 63 H 36.519246 38.452230 60.915436 0
M  V30 64 H 37.579087 37.690882 59.755271 0
M  V30 65 H 41.879749 32.787100 66.992755 0
M  V30 66 H 39.851320 37.040017 63.039891 0
M  V30 67 H 40.797234 36.720447 61.607540 0
M  V30 68 H 38.715697 35.827384 60.167805 0
M  V30 69 H 39.529950 36.357477 67.562636 0
M  V30 70 H 40.069402 25.361901 56.864725 0
M  V30 71 H 37.645137 28.325697 56.171350 0
M  V30 72 H 38.923697 33.253592 59.859738 0
M  V30 73 H 36.960284 25.920805 56.409318 0
M  V30 74 H 37.823399 25.805889 57.934987 0
M  V30 75 H 36.445137 26.879347 57.767761 0
M  V30 76 H 41.661932 26.403084 58.318165 0
M  V30 77 H 38.278950 37.352295 61.980704 0
M  V30 END ATOM
M  V30 BEGIN BOND
M  V30 1 1 7 3
M  V30 2 1 8 6
M  V30 3 1 13 4
M  V30 4 1 14 11
M  V30 5 1 15 7
M  V30 6 1 15 12
M  V30 7 1 16 6
M  V30 8 2 17 6
M  V30 9 1 19 10
M  V30 10 1 20 5
M  V30 11 1 20 7
M  V30 12 1 20 10
M  V30 13 1 21 13
M  V30 14 1 22 2
M  V30 15 1 25 4
M  V30 16 1 25 24
M  V30 17 2 26 23
M  V30 18 2 27 8
M  V30 19 1 27 14
M  V30 20 1 28 16
M  V30 21 1 28 26
M  V30 22 1 29 1
M  V30 23 1 29 25
M  V30 24 1 29 26
M  V30 25 2 30 14
M  V30 26 1 30 17
M  V30 27 1 32 1
M  V30 28 1 32 12
M  V30 29 1 32 22
M  V30 30 1 33 5
M  V30 31 1 34 10
M  V30 32 1 34 18
M  V30 33 1 34 31
M  V30 34 1 35 5
M  V30 35 2 35 9
M  V30 36 1 35 31
M  V30 37 1 36 1
M  V30 38 1 37 1
M  V30 39 1 38 2
M  V30 40 1 39 2
M  V30 41 1 40 2
M  V30 42 1 41 3
M  V30 43 1 42 4
M  V30 44 1 43 4
M  V30 45 1 7 44 CFG=1
M  V30 46 1 45 8
M  V30 47 1 46 31
M  V30 48 1 10 47 CFG=1
M  V30 49 1 48 11
M  V30 50 1 49 13
M  V30 51 1 50 13
M  V30 52 1 51 15
M  V30 53 1 52 15
M  V30 54 1 53 16
M  V30 55 1 54 16
M  V30 56 1 55 17
M  V30 57 1 56 18
M  V30 58 1 57 19
M  V30 59 1 58 19
M  V30 60 1 59 19
M  V30 61 1 20 60 CFG=3
M  V30 62 1 61 21
M  V30 63 1 62 24
M  V30 64 1 63 24
M  V30 65 1 64 24
M  V30 66 1 65 27
M  V30 67 1 66 28
M  V30 68 1 67 28
M  V30 69 1 29 68 CFG=3
M  V30 70 1 69 30
M  V30 71 1 70 31
M  V30 72 1 5 71 CFG=3
M  V30 73 1 32 72 CFG=1
M  V30 74 1 73 33
M  V30 75 1 74 33
M  V30 76 1 75 33
M  V30 77 1 34 76 CFG=1
M  V30 78 1 25 77 CFG=1
M  V30 END BOND
M  V30 END CTAB
M  END
>  <i_epik_Tot_Q>  (1) 
1

>  <i_epik_Tot_abs_Q>  (1) 
1

>  <i_i_glide_confnum>  (1) 
2002

>  <i_i_glide_lignum>  (1) 
169

>  <i_i_glide_posenum>  (1) 
130

>  <i_i_glide_rotatable_bonds>  (1) 
18

>  <i_lp_mmshare_version>  (1) 
72125

>  <i_m_source_file_index>  (1) 
76

>  <i_f3d_flags>  (1) 
0

>  <num_sample>  (1) 
100

>  <b_lp_Chiralities_Consistent>  (1) 
1

>  <r_epik_Charging_Adjusted_Penalty>  (1) 
0.52789471212939676

>  <r_epik_Ionization_Penalty>  (1) 
0.26592108790513191

>  <r_epik_Ionization_Penalty_Charging>  (1) 
0.26394735606469838

>  <r_epik_Ionization_Penalty_Neutral>  (1) 
0.0019737318404335234

>  <r_epik_State_Penalty>  (1) 
0.26394735606469838

>  <r_glide_ring_energy>  (1) 
0

>  <r_i_docking_score>  (1) 
-6.885054566977125

>  <r_i_glide_ecoul>  (1) 
-8.4621844046929162

>  <r_i_glide_eff_state_penalty>  (1) 
0.26394735606469838

>  <r_i_glide_einternal>  (1) 
15.799198273757947

>  <r_i_glide_emodel>  (1) 
-70.136586653911849

>  <r_i_glide_emodel_strain>  (1) 
2.4702855798779453

>  <r_i_glide_energy>  (1) 
-55.898967153392107

>  <r_i_glide_erotb>  (1) 
1.0139394581015995

>  <r_i_glide_esite>  (1) 
0

>  <r_i_glide_evdw>  (1) 
-47.436782748699194

>  <r_i_glide_gscore>  (1) 
-7.1490019230418236

>  <r_i_glide_gscore_strain>  (1) 
0

>  <r_i_glide_hbond>  (1) 
-0.42178627269646124

>  <r_i_glide_ligand_efficiency>  (1) 
-0.196715844770775

>  <r_i_glide_ligand_efficiency_ln>  (1) 
-1.5114222830046478

>  <r_i_glide_ligand_efficiency_sa>  (1) 
-0.64347057250997042

>  <r_i_glide_lipo>  (1) 
-3.2746287485762084

>  <r_i_glide_metal>  (1) 
-0

>  <r_i_glide_rewards>  (1) 
-0.82535956173185721

>  <r_lp_Energy>  (1) 
26.361654999999999

>  <r_lp_tautomer_probability>  (1) 
0.99989998499911525

>  <s_epik_Chemistry_Notes>  (1) 
This compound contains an acetal/aminal-like group ( X-CH(R)-Y where X, Y are N, S, or O) that may be acid/base labile, releasing an aldehyde.

>  <s_epik_cmdline>  (1) 
J2VwaWtfcHl0aG9uJywgJy1waHQnLCAnMS4wJywgJy1waCcsICc3LjQnLCAnLXRuJywgJzgnLCAnLW1hJywgJzUwMCcsICctaW1hZScsICc8aW5maWxlLm1hZT4nLCAnLW9tYWUnLCAnPG91dGZpbGUubWFlPic=

>  <s_epik_input>  (1) 
W2NIXTFbY0hdYyhbT0hdKVtjSF1bY0hdYzFbQ0gyXVtDSDJdQyg9TylbQ0BIXShOKFtDSDNdKVtDSDJdW0NIMl1bT0hdKVtDSDJdW0NASF0oT1tDSDNdKVNbQ0gyXVtDQEBIXShbT0hdKVtDQEhdMltDQEBIXShbQ0gzXSlbQ0BIXShbT0hdKVtDSDJdQyhbT0hdKT1DMltDSDNd

>  <s_glide_docking_method>  (1) 
confgen

>  <s_i_glide_gridfile>  (1) 
gpcr_5ht2c_6bqh_protein_autoprepared_prepared

>  <s_lp_Force_Field>  (1) 
S-OPLS

>  <s_lp_Variant>  (1) 
DiffSBDD_75-6

>  <s_m_source_file>  (1) 
generated_GPCR_5HT2C_ligand_DiffSBDD_2026-06-23_prepared.sdf

>  <GenAI_Model>  (1) 
DiffSBDD

>  <Protein>  (1) 
GPCR_5HT2C

$$$$
DiffSBDD_8
     RDKit          3D

  0  0  0  0  0  0  0  0  0  0999 V3000
M  V30 BEGIN CTAB
M  V30 COUNTS 46 50 0 0 1
M  V30 BEGIN ATOM
M  V30 1 C 37.321411 25.265818 56.200327 0
M  V30 2 O 40.845239 28.752599 51.367758 0
M  V30 3 C 36.962700 23.977996 56.170503 0
M  V30 4 C 38.637537 29.588006 55.244461 0
M  V30 5 N 37.983412 28.387451 54.699168 0
M  V30 6 C 38.591912 28.420955 52.178086 0
M  V30 7 C 38.759818 29.655078 56.788626 0
M  V30 8 C 40.550235 28.146640 59.158654 0
M  V30 9 N 37.617468 25.987745 57.325634 0
M  V30 10 C 40.038734 30.703219 52.628239 0
M  V30 11 C 37.814418 27.465624 57.049429 0 CFG=2
M  V30 12 N 41.214010 27.735869 58.150744 0
M  V30 13 C 40.484423 30.133830 51.302046 0 CFG=1
M  V30 14 C 39.884842 29.215287 52.321053 0 CFG=1
M  V30 15 C 37.438513 26.062612 55.099011 0
M  V30 16 N 40.362072 27.734807 57.090358 0
M  V30 17 C 37.739811 27.278158 55.495126 0
M  V30 18 C 39.125330 28.476581 58.995379 0
M  V30 19 C 39.829187 30.556410 50.004923 0
M  V30 20 C 37.540204 28.462279 53.308091 0
M  V30 21 C 40.617723 26.675780 56.124000 0
M  V30 22 C 39.040500 28.286716 57.473238 0 CFG=1
M  V30 23 H 36.885416 23.402313 57.080790 0
M  V30 24 H 36.740317 23.481722 55.236821 0
M  V30 25 H 38.161073 30.495336 54.870683 0
M  V30 26 H 39.661809 29.576471 54.880863 0
M  V30 27 H 38.878391 27.378074 52.032395 0
M  V30 28 H 38.104055 28.701164 51.246990 0
M  V30 29 H 37.829291 30.070292 57.182507 0
M  V30 30 H 39.531580 30.381133 57.054067 0
M  V30 31 H 41.018577 28.255560 60.135930 0
M  V30 32 H 37.387000 25.666677 58.253873 0
M  V30 33 H 39.211991 31.397203 52.608738 0
M  V30 34 H 40.814146 30.964606 53.344884 0
M  V30 35 H 37.329608 25.739236 54.075310 0
M  V30 36 H 38.505203 27.779573 59.556394 0
M  V30 37 H 38.917094 29.493485 59.329162 0
M  V30 38 H 40.464561 31.286139 49.502112 0
M  V30 39 H 39.701440 29.691987 49.353880 0
M  V30 40 H 38.851946 31.010419 50.167852 0
M  V30 41 H 36.822097 27.664634 53.116945 0
M  V30 42 H 36.924832 29.337819 53.238397 0
M  V30 43 H 40.391926 27.012122 55.114781 0
M  V30 44 H 41.644901 26.387699 56.169084 0
M  V30 45 H 40.036011 25.790481 56.360753 0
M  V30 46 H 36.914037 27.969120 57.400966 0
M  V30 END ATOM
M  V30 BEGIN BOND
M  V30 1 2 3 1
M  V30 2 1 5 4
M  V30 3 1 7 4
M  V30 4 1 9 1
M  V30 5 1 11 9
M  V30 6 2 12 8
M  V30 7 1 13 2
M  V30 8 1 13 10
M  V30 9 1 14 2
M  V30 10 1 14 6 CFG=1
M  V30 11 1 14 10
M  V30 12 1 14 13
M  V30 13 1 15 1
M  V30 14 1 16 12
M  V30 15 1 17 5
M  V30 16 1 17 11
M  V30 17 2 17 15
M  V30 18 1 18 8
M  V30 19 1 13 19 CFG=3
M  V30 20 1 20 5
M  V30 21 1 20 6
M  V30 22 1 21 16
M  V30 23 1 22 7
M  V30 24 1 22 11
M  V30 25 1 22 16 CFG=3
M  V30 26 1 22 18
M  V30 27 1 23 3
M  V30 28 1 24 3
M  V30 29 1 25 4
M  V30 30 1 26 4
M  V30 31 1 27 6
M  V30 32 1 28 6
M  V30 33 1 29 7
M  V30 34 1 30 7
M  V30 35 1 31 8
M  V30 36 1 32 9
M  V30 37 1 33 10
M  V30 38 1 34 10
M  V30 39 1 35 15
M  V30 40 1 36 18
M  V30 41 1 37 18
M  V30 42 1 38 19
M  V30 43 1 39 19
M  V30 44 1 40 19
M  V30 45 1 41 20
M  V30 46 1 42 20
M  V30 47 1 43 21
M  V30 48 1 44 21
M  V30 49 1 45 21
M  V30 50 1 11 46 CFG=1
M  V30 END BOND
M  V30 END CTAB
M  END
>  <i_epik_Tot_Q>  (1) 
0

>  <i_epik_Tot_abs_Q>  (1) 
0

>  <i_i_glide_confnum>  (1) 
11

>  <i_i_glide_lignum>  (1) 
12

>  <i_i_glide_posenum>  (1) 
13

>  <i_i_glide_rotatable_bonds>  (1) 
3

>  <i_lp_mmshare_version>  (1) 
72125

>  <i_m_source_file_index>  (1) 
9

>  <i_f3d_flags>  (1) 
0

>  <num_sample>  (1) 
100

>  <b_lp_Chiralities_Consistent>  (1) 
1

>  <r_epik_Charging_Adjusted_Penalty>  (1) 
0.0013502642422006258

>  <r_epik_Ionization_Penalty>  (1) 
0.0017789760984620326

>  <r_epik_Ionization_Penalty_Charging>  (1) 
0.0013502642422006258

>  <r_epik_Ionization_Penalty_Neutral>  (1) 
0.00042871185626140696

>  <r_epik_State_Penalty>  (1) 
-0

>  <r_glide_ring_energy>  (1) 
0

>  <r_i_docking_score>  (1) 
-6.8842021548366166

>  <r_i_glide_ecoul>  (1) 
0.18475250141690858

>  <r_i_glide_eff_state_penalty>  (1) 
-0

>  <r_i_glide_einternal>  (1) 
2.4224914350488049

>  <r_i_glide_emodel>  (1) 
-35.164002678782396

>  <r_i_glide_emodel_strain>  (1) 
3.4232109644902948

>  <r_i_glide_energy>  (1) 
-27.73577636548568

>  <r_i_glide_erotb>  (1) 
0.61104831889555555

>  <r_i_glide_esite>  (1) 
0

>  <r_i_glide_evdw>  (1) 
-27.92052886690259

>  <r_i_glide_gscore>  (1) 
-6.8842021548366166

>  <r_i_glide_gscore_strain>  (1) 
0

>  <r_i_glide_hbond>  (1) 
0

>  <r_i_glide_ligand_efficiency>  (1) 
-0.31291827976530073

>  <r_i_glide_ligand_efficiency_ln>  (1) 
-1.6827501140168835

>  <r_i_glide_ligand_efficiency_sa>  (1) 
-0.87680932718339855

>  <r_i_glide_lipo>  (1) 
-3.3721825680506154

>  <r_i_glide_metal>  (1) 
-0

>  <r_i_glide_rewards>  (1) 
-2.7547543375489632

>  <r_lp_Energy>  (1) 
31.245733999999999

>  <r_lp_tautomer_probability>  (1) 
1

>  <s_epik_Chemistry_Notes>  (1) 
This compound has an imine and may undergo hydrolysis.

>  <s_epik_cmdline>  (1) 
J2VwaWtfcHl0aG9uJywgJy1waHQnLCAnMS4wJywgJy1waCcsICc3LjQnLCAnLXRuJywgJzgnLCAnLW1hJywgJzUwMCcsICctaW1hZScsICc8aW5maWxlLm1hZT4nLCAnLW9tYWUnLCAnPG91dGZpbGUubWFlPic=

>  <s_epik_input>  (1) 
W0NIM11bQ0BAXTEyW0NAQF0oTzEpKFtDSDJdMilbQ0gyXVtDSDJdTihbQ0gyXVtDSDJdMyljKFtjSF1jKFtDSDNdKVtuSF00KWM0W0NAQF0zNU4oW0NIM10pTj1bQ0hdW0NIMl01

>  <s_glide_docking_method>  (1) 
confgen

>  <s_i_glide_gridfile>  (1) 
gpcr_5ht2c_6bqh_protein_autoprepared_prepared

>  <s_lp_Force_Field>  (1) 
S-OPLS

>  <s_lp_Variant>  (1) 
DiffSBDD_8-2

>  <s_m_source_file>  (1) 
generated_GPCR_5HT2C_ligand_DiffSBDD_2026-06-23_prepared.sdf

>  <GenAI_Model>  (1) 
DiffSBDD

>  <Protein>  (1) 
GPCR_5HT2C

$$$$
DiffSBDD_63
     RDKit          3D

  0  0  0  0  0  0  0  0  0  0999 V3000
M  V30 BEGIN CTAB
M  V30 COUNTS 83 88 0 0 1
M  V30 BEGIN ATOM
M  V30 1 F 43.770063 30.039468 66.935362 0
M  V30 2 C 38.559029 27.306690 55.161926 0
M  V30 3 C 43.779381 28.882666 66.270686 0 CFG=1
M  V30 4 C 35.385427 33.558773 59.821479 0
M  V30 5 C 41.761723 29.350719 62.546924 0
M  V30 6 C 39.242773 29.743879 62.216030 0 CFG=1
M  V30 7 N 42.468275 27.635787 67.790348 0 CHG=1
M  V30 8 C 38.445131 32.394181 55.982379 0
M  V30 9 C 38.618651 29.339634 53.714738 0
M  V30 10 C 38.485499 30.335652 57.540378 0 CFG=2
M  V30 11 C 38.618356 31.880934 57.405722 0 CFG=2
M  V30 12 C 42.560005 30.187816 63.550506 0
M  V30 13 C 38.260795 31.594724 54.921531 0
M  V30 14 C 38.817173 28.081202 56.264894 0
M  V30 15 N 38.459294 25.944259 55.462486 0
M  V30 16 N 40.445137 29.791586 64.469628 0 CHG=1
M  V30 17 C 41.856575 29.913925 64.880310 0 CFG=1
M  V30 18 C 36.919163 35.517306 60.249992 0
M  V30 19 C 38.443829 24.317411 57.337857 0
M  V30 20 O 39.764335 32.076750 62.531347 0
M  V30 21 O 39.245155 29.901203 58.669291 0
M  V30 22 S 38.953050 27.097666 57.710331 0
M  V30 23 C 41.555568 27.976888 66.677404 0 CFG=2
M  V30 24 C 40.372722 29.176156 63.128856 0 CFG=2
M  V30 25 C 40.856410 26.703543 66.169111 0
M  V30 26 C 38.966920 29.575668 56.275916 0 CFG=1
M  V30 27 C 39.391613 31.187395 61.768346 0
M  V30 28 C 38.593387 25.678034 56.758381 0
M  V30 29 O 35.285288 32.150359 59.767754 0
M  V30 30 C 36.856052 34.026516 59.889420 0 CFG=2
M  V30 31 C 37.659233 33.767189 58.597108 0
M  V30 32 C 38.665158 30.143260 59.914571 0 CFG=2
M  V30 33 O 37.645134 32.386157 58.304624 0
M  V30 34 C 38.198832 30.085988 55.018324 0 CFG=2
M  V30 35 O 39.073867 31.354956 60.481952 0
M  V30 36 C 43.851538 27.765627 67.304256 0
M  V30 37 C 39.137988 29.039474 60.862863 0
M  V30 38 C 42.426132 28.641741 65.577856 0 CFG=2
M  V30 39 C 38.374794 27.804767 53.766400 0
M  V30 40 H 44.631987 28.892710 65.589579 0
M  V30 41 H 34.875913 33.992321 58.959921 0
M  V30 42 H 34.845885 33.887111 60.710191 0
M  V30 43 H 42.221208 28.374615 62.393461 0
M  V30 44 H 41.645137 29.839192 61.585053 0
M  V30 45 H 38.283166 29.737761 62.729326 0
M  V30 46 H 42.280826 26.716835 68.165155 0
M  V30 47 H 38.475418 33.464268 55.844812 0
M  V30 48 H 38.100761 29.737732 52.846556 0
M  V30 49 H 39.678021 29.527447 53.543132 0
M  V30 50 H 37.433322 30.071344 57.672264 0
M  V30 51 H 39.606493 32.209476 57.713434 0
M  V30 52 H 43.621287 29.938390 63.553482 0
M  V30 53 H 42.475197 31.245644 63.295440 0
M  V30 54 H 38.140120 32.027544 53.938695 0
M  V30 55 H 40.079335 30.730034 64.369465 0
M  V30 56 H 41.933396 30.773244 65.546387 0
M  V30 57 H 36.411990 36.123482 59.497980 0
M  V30 58 H 36.445392 35.707897 61.212822 0
M  V30 59 H 37.951021 35.862382 60.322209 0
M  V30 60 H 38.039143 24.384337 58.346551 0
M  V30 61 H 37.748701 23.737752 56.732037 0
M  V30 62 H 39.408000 23.809783 57.367896 0
M  V30 63 H 40.812513 28.674317 67.067076 0
M  V30 64 H 40.200151 28.108316 63.265396 0
M  V30 65 H 40.151014 26.925526 65.367691 0
M  V30 66 H 41.574390 25.982494 65.776316 0
M  V30 67 H 40.317028 26.201589 66.972910 0
M  V30 68 H 40.025803 29.799975 56.139564 0
M  V30 69 H 35.462007 31.899041 58.859709 0
M  V30 70 H 37.342283 33.481047 60.699351 0
M  V30 71 H 37.253485 34.335145 57.762415 0
M  V30 72 H 38.687800 34.084977 58.759194 0
M  V30 73 H 37.575205 30.145633 59.844870 0
M  V30 74 H 37.137106 29.872777 55.159021 0
M  V30 75 H 44.153408 26.830819 66.829496 0
M  V30 76 H 44.552976 27.975205 68.112833 0
M  V30 77 H 38.446274 28.198868 60.826073 0
M  V30 78 H 40.103258 28.666960 60.518222 0
M  V30 79 H 42.606430 27.885894 64.811206 0
M  V30 80 H 37.356576 27.589226 53.439520 0
M  V30 81 H 39.039241 27.288625 53.071776 0
M  V30 82 H 39.859540 29.283786 65.120133 0
M  V30 83 H 42.333526 28.319614 68.522094 0
M  V30 END ATOM
M  V30 BEGIN BOND
M  V30 1 1 3 1
M  V30 2 1 11 8
M  V30 3 1 11 10
M  V30 4 1 12 5
M  V30 5 2 13 8
M  V30 6 2 14 2
M  V30 7 1 15 2
M  V30 8 1 17 12
M  V30 9 1 17 16
M  V30 10 1 21 10
M  V30 11 1 22 14
M  V30 12 1 23 7
M  V30 13 1 24 5
M  V30 14 1 24 6
M  V30 15 1 24 16
M  V30 16 1 25 23
M  V30 17 1 26 10
M  V30 18 1 26 14
M  V30 19 1 27 6
M  V30 20 2 27 20
M  V30 21 2 28 15
M  V30 22 1 28 19
M  V30 23 1 28 22
M  V30 24 1 29 4
M  V30 25 1 30 4
M  V30 26 1 30 18
M  V30 27 1 31 30
M  V30 28 1 32 21
M  V30 29 1 33 11
M  V30 30 1 33 31
M  V30 31 1 34 9
M  V30 32 1 34 13
M  V30 33 1 34 26
M  V30 34 1 35 27
M  V30 35 1 35 32
M  V30 36 1 36 3
M  V30 37 1 36 7
M  V30 38 1 37 6
M  V30 39 1 37 32
M  V30 40 1 38 3
M  V30 41 1 38 17
M  V30 42 1 38 23
M  V30 43 1 39 2
M  V30 44 1 39 9
M  V30 45 1 3 40 CFG=3
M  V30 46 1 41 4
M  V30 47 1 42 4
M  V30 48 1 43 5
M  V30 49 1 44 5
M  V30 50 1 6 45 CFG=1
M  V30 51 1 46 7
M  V30 52 1 47 8
M  V30 53 1 48 9
M  V30 54 1 49 9
M  V30 55 1 10 50 CFG=1
M  V30 56 1 11 51 CFG=1
M  V30 57 1 52 12
M  V30 58 1 53 12
M  V30 59 1 54 13
M  V30 60 1 55 16
M  V30 61 1 17 56 CFG=1
M  V30 62 1 57 18
M  V30 63 1 58 18
M  V30 64 1 59 18
M  V30 65 1 60 19
M  V30 66 1 61 19
M  V30 67 1 62 19
M  V30 68 1 23 63 CFG=1
M  V30 69 1 24 64 CFG=1
M  V30 70 1 65 25
M  V30 71 1 66 25
M  V30 72 1 67 25
M  V30 73 1 26 68 CFG=3
M  V30 74 1 69 29
M  V30 75 1 30 70 CFG=1
M  V30 76 1 71 31
M  V30 77 1 72 31
M  V30 78 1 32 73 CFG=3
M  V30 79 1 34 74 CFG=1
M  V30 80 1 75 36
M  V30 81 1 76 36
M  V30 82 1 77 37
M  V30 83 1 78 37
M  V30 84 1 38 79 CFG=3
M  V30 85 1 80 39
M  V30 86 1 81 39
M  V30 87 1 82 16
M  V30 88 1 83 7
M  V30 END BOND
M  V30 END CTAB
M  END
>  <i_epik_Tot_Q>  (1) 
2

>  <i_epik_Tot_abs_Q>  (1) 
2

>  <i_i_glide_confnum>  (1) 
195

>  <i_i_glide_lignum>  (1) 
141

>  <i_i_glide_posenum>  (1) 
175

>  <i_i_glide_rotatable_bonds>  (1) 
9

>  <i_lp_mmshare_version>  (1) 
72125

>  <i_m_source_file_index>  (1) 
64

>  <i_f3d_flags>  (1) 
0

>  <num_sample>  (1) 
100

>  <b_lp_Chiralities_Consistent>  (1) 
1

>  <r_epik_Charging_Adjusted_Penalty>  (1) 
0.080070908620723774

>  <r_epik_Ionization_Penalty>  (1) 
0.041568301575603359

>  <r_epik_Ionization_Penalty_Charging>  (1) 
0.040241786303222601

>  <r_epik_Ionization_Penalty_Neutral>  (1) 
0.0013265152723807572

>  <r_epik_State_Penalty>  (1) 
0.039829122317501166

>  <r_glide_ring_energy>  (1) 
0.79944395753776409

>  <r_i_docking_score>  (1) 
-6.8832804333462283

>  <r_i_glide_ecoul>  (1) 
-7.5989853802461038

>  <r_i_glide_eff_state_penalty>  (1) 
0.039829122317501166

>  <r_i_glide_einternal>  (1) 
5.765350917152924

>  <r_i_glide_emodel>  (1) 
-71.552633171093163

>  <r_i_glide_emodel_strain>  (1) 
0.82814079628671777

>  <r_i_glide_energy>  (1) 
-53.712468116112973

>  <r_i_glide_erotb>  (1) 
0.43483266289788453

>  <r_i_glide_esite>  (1) 
-0.043876732956626197

>  <r_i_glide_evdw>  (1) 
-46.113482735866867

>  <r_i_glide_gscore>  (1) 
-6.9231095556637294

>  <r_i_glide_gscore_strain>  (1) 
0

>  <r_i_glide_hbond>  (1) 
-0.16

>  <r_i_glide_ligand_efficiency>  (1) 
-0.17649437008580074

>  <r_i_glide_ligand_efficiency_ln>  (1) 
-1.4759707184440796

>  <r_i_glide_ligand_efficiency_sa>  (1) 
-0.59852972746254474

>  <r_i_glide_lipo>  (1) 
-2.6469886249454255

>  <r_i_glide_metal>  (1) 
-0

>  <r_i_glide_rewards>  (1) 
-1.0615549168293024

>  <r_lp_Energy>  (1) 
21.205790999999998

>  <s_epik_Chemistry_Notes>  (1) 
This compound has an ester and may undergo hydrolysis at high or low pH. This compound contains an acetal/aminal-like group ( X-CH(R)-Y where X, Y are N, S, or O) that may be acid/base labile, releasing an aldehyde.

>  <s_epik_cmdline>  (1) 
J2VwaWtfcHl0aG9uJywgJy1waHQnLCAnMS4wJywgJy1waCcsICc3LjQnLCAnLXRuJywgJzgnLCAnLW1hJywgJzUwMCcsICctaW1hZScsICc8aW5maWxlLm1hZT4nLCAnLW9tYWUnLCAnPG91dGZpbGUubWFlPic=

>  <s_epik_input>  (1) 
RltDQEhdMVtDSDJdW05IXVtDQEhdKFtDSDNdKVtDQEhdMVtDQEhdMltDSDJdW0NIMl1bQ0BASF0oW05IXTIpW0NASF0zQyg9TylPW0NASF0oW0NIMl0zKU9bQ0BIXTRbQ0BIXShPW0NIMl1bQ0BASF0oW0NIM10pW0NIMl1bT0hdKVtDSF09W0NIXVtDQEBIXShbQ0gyXVtDSDJdNSlbQ0BASF00YyhjNTYpc2MobjYpW0NIM10=

>  <s_glide_docking_method>  (1) 
confgen

>  <s_i_glide_gridfile>  (1) 
gpcr_5ht2c_6bqh_protein_autoprepared_prepared

>  <s_lp_Force_Field>  (1) 
S-OPLS

>  <s_lp_Variant>  (1) 
DiffSBDD_63-3

>  <s_m_source_file>  (1) 
generated_GPCR_5HT2C_ligand_DiffSBDD_2026-06-23_prepared.sdf

>  <GenAI_Model>  (1) 
DiffSBDD

>  <Protein>  (1) 
GPCR_5HT2C

$$$$
DiffSBDD_12
     RDKit          3D

  0  0  0  0  0  0  0  0  0  0999 V3000
M  V30 BEGIN CTAB
M  V30 COUNTS 67 69 0 0 1
M  V30 BEGIN ATOM
M  V30 1 C 39.092488 28.920822 51.379244 0 CFG=1
M  V30 2 C 38.984370 30.407368 59.125125 0
M  V30 3 N 38.407495 28.937918 52.668151 0
M  V30 4 C 42.101479 27.256084 58.536558 0
M  V30 5 O 37.571858 30.963316 54.727614 0
M  V30 6 O 41.069604 30.281226 50.662142 0
M  V30 7 N 38.399264 32.593252 61.014945 0 CHG=-1
M  V30 8 C 38.763193 33.868774 61.287845 0
M  V30 9 O 36.283384 33.115975 59.616266 0
M  V30 10 C 39.251893 29.680727 53.576734 0 CFG=1
M  V30 11 C 37.346607 37.074323 60.133214 0
M  V30 12 S 39.241128 27.614500 56.436681 0
M  V30 13 C 39.496309 29.482601 58.344886 0
M  V30 14 C 37.987231 27.665677 53.240150 0
M  V30 15 C 38.121024 36.240689 61.128285 0 CFG=1
M  V30 16 C 38.018235 28.737051 55.608063 0 CFG=1
M  V30 17 O 38.479880 26.638538 57.231836 0
M  V30 18 O 36.843298 37.907639 62.183881 0
M  V30 19 C 39.848206 30.827746 52.750251 0
M  V30 20 C 37.543525 36.702604 62.468776 0 CFG=2
M  V30 21 C 37.506399 30.799015 59.091678 0
M  V30 22 N 37.246346 38.319194 60.862407 0
M  V30 23 O 39.803917 34.197269 61.856086 0
M  V30 24 O 36.211726 31.337698 61.367748 0
M  V30 25 C 38.604831 30.014704 54.941486 0 CFG=2
M  V30 26 C 37.248119 27.912608 54.555703 0
M  V30 27 C 41.687204 28.469056 57.721383 0
M  V30 28 C 40.179081 28.628055 57.613586 0
M  V30 29 O 40.192418 27.115392 55.434709 0
M  V30 30 C 39.805849 30.301697 51.294512 0 CFG=2
M  V30 31 C 40.037167 27.738417 51.172868 0
M  V30 32 C 38.617867 36.973101 63.529613 0
M  V30 33 S 36.998681 32.072156 60.367004 0
M  V30 34 N 37.902748 34.820055 60.894549 0
M  V30 35 H 38.358879 28.843685 50.582988 0
M  V30 36 H 39.612045 30.930164 59.824312 0
M  V30 37 H 43.179037 27.099865 58.482900 0
M  V30 38 H 41.842498 27.413658 59.581099 0
M  V30 39 H 41.611582 26.355173 58.167893 0
M  V30 40 H 37.139066 31.187872 55.543450 0
M  V30 41 H 41.371431 31.174474 50.576558 0
M  V30 42 H 40.044999 29.017052 53.847825 0
M  V30 43 H 37.855172 37.195159 59.177484 0
M  V30 44 H 36.349671 36.668715 59.951004 0
M  V30 45 H 37.321556 27.150606 52.550048 0
M  V30 46 H 38.836551 27.004470 53.404177 0
M  V30 47 H 39.178019 36.502315 61.044944 0
M  V30 48 H 37.338062 29.043464 56.404622 0
M  V30 49 H 39.245248 31.730734 52.839069 0
M  V30 50 H 40.845117 31.081963 53.097177 0
M  V30 51 H 36.802589 35.996365 62.846497 0
M  V30 52 H 37.260322 31.238920 58.124442 0
M  V30 53 H 36.859073 29.931360 59.216477 0
M  V30 54 H 36.479011 38.873323 60.492819 0
M  V30 55 H 39.339870 30.485152 55.595092 0
M  V30 56 H 36.445136 28.550355 54.260805 0
M  V30 57 H 36.846905 26.981354 54.961417 0
M  V30 58 H 42.098514 28.392960 56.714897 0
M  V30 59 H 42.146887 29.337682 58.182736 0
M  V30 60 H 39.245147 30.990554 50.670318 0
M  V30 61 H 40.445136 27.759999 50.167392 0
M  V30 62 H 40.844873 27.794730 51.894259 0
M  V30 63 H 39.540284 26.773359 51.271312 0
M  V30 64 H 39.181340 36.069603 63.756654 0
M  V30 65 H 39.328302 37.726458 63.188000 0
M  V30 66 H 38.168073 37.331604 64.454882 0
M  V30 67 H 37.052236 34.540509 60.411325 0
M  V30 END ATOM
M  V30 BEGIN BOND
M  V30 1 1 3 1
M  V30 2 1 8 7
M  V30 3 1 10 3
M  V30 4 2 13 2
M  V30 5 1 14 3
M  V30 6 1 15 11
M  V30 7 1 16 12
M  V30 8 2 17 12
M  V30 9 1 19 10
M  V30 10 1 20 15
M  V30 11 1 20 18
M  V30 12 1 21 2
M  V30 13 1 22 11
M  V30 14 1 22 18
M  V30 15 2 23 8
M  V30 16 1 25 5
M  V30 17 1 25 10
M  V30 18 1 25 16
M  V30 19 1 26 14
M  V30 20 1 26 16
M  V30 21 1 27 4
M  V30 22 1 28 12
M  V30 23 2 28 13
M  V30 24 1 28 27
M  V30 25 2 29 12
M  V30 26 1 30 1
M  V30 27 1 30 6
M  V30 28 1 30 19
M  V30 29 1 31 1
M  V30 30 1 32 20
M  V30 31 1 33 7
M  V30 32 2 33 9
M  V30 33 1 33 21
M  V30 34 2 33 24
M  V30 35 1 34 8
M  V30 36 1 34 15
M  V30 37 1 1 35 CFG=3
M  V30 38 1 36 2
M  V30 39 1 37 4
M  V30 40 1 38 4
M  V30 41 1 39 4
M  V30 42 1 40 5
M  V30 43 1 41 6
M  V30 44 1 10 42 CFG=1
M  V30 45 1 43 11
M  V30 46 1 44 11
M  V30 47 1 45 14
M  V30 48 1 46 14
M  V30 49 1 15 47 CFG=1
M  V30 50 1 16 48 CFG=1
M  V30 51 1 49 19
M  V30 52 1 50 19
M  V30 53 1 20 51 CFG=1
M  V30 54 1 52 21
M  V30 55 1 53 21
M  V30 56 1 54 22
M  V30 57 1 25 55 CFG=1
M  V30 58 1 56 26
M  V30 59 1 57 26
M  V30 60 1 58 27
M  V30 61 1 59 27
M  V30 62 1 30 60 CFG=3
M  V30 63 1 61 31
M  V30 64 1 62 31
M  V30 65 1 63 31
M  V30 66 1 64 32
M  V30 67 1 65 32
M  V30 68 1 66 32
M  V30 69 1 67 34
M  V30 END BOND
M  V30 END CTAB
M  END
>  <i_epik_Tot_Q>  (1) 
-1

>  <i_epik_Tot_abs_Q>  (1) 
1

>  <i_i_glide_confnum>  (1) 
2232

>  <i_i_glide_lignum>  (1) 
21

>  <i_i_glide_posenum>  (1) 
277

>  <i_i_glide_rotatable_bonds>  (1) 
11

>  <i_lp_mmshare_version>  (1) 
72125

>  <i_m_source_file_index>  (1) 
13

>  <i_f3d_flags>  (1) 
0

>  <num_sample>  (1) 
100

>  <b_lp_Chiralities_Consistent>  (1) 
1

>  <r_epik_Charging_Adjusted_Penalty>  (1) 
0.54032877013992786

>  <r_epik_Ionization_Penalty>  (1) 
0.54134665641143098

>  <r_epik_Ionization_Penalty_Charging>  (1) 
0.00017066470294595392

>  <r_epik_Ionization_Penalty_Neutral>  (1) 
0.54117599170848507

>  <r_epik_State_Penalty>  (1) 
0.54015810543698195

>  <r_glide_ring_energy>  (1) 
0

>  <r_i_docking_score>  (1) 
-6.8805438185102377

>  <r_i_glide_ecoul>  (1) 
-11.673893918418482

>  <r_i_glide_eff_state_penalty>  (1) 
0.54015810543698195

>  <r_i_glide_einternal>  (1) 
6.4996791394712456

>  <r_i_glide_emodel>  (1) 
-58.759180047705883

>  <r_i_glide_emodel_strain>  (1) 
5.7969248932519974

>  <r_i_glide_energy>  (1) 
-52.375293126959505

>  <r_i_glide_erotb>  (1) 
0.6799936626702181

>  <r_i_glide_esite>  (1) 
-0.1897526528778069

>  <r_i_glide_evdw>  (1) 
-40.701399208541019

>  <r_i_glide_gscore>  (1) 
-7.4207019239472194

>  <r_i_glide_gscore_strain>  (1) 
0.44923122331299936

>  <r_i_glide_hbond>  (1) 
-0.34643798917774926

>  <r_i_glide_ligand_efficiency>  (1) 
-0.20236893583853641

>  <r_i_glide_ligand_efficiency_ln>  (1) 
-1.5201051222259219

>  <r_i_glide_ligand_efficiency_sa>  (1) 
-0.65559679275448846

>  <r_i_glide_lipo>  (1) 
-3.3717943106993991

>  <r_i_glide_metal>  (1) 
-0

>  <r_i_glide_rewards>  (1) 
-0.85578780898565832

>  <r_lp_Energy>  (1) 
-18.368317999999999

>  <s_epik_Chemistry_Notes>  (1) 
This compound has a N-S or N-O group and may undergo hydrolysis at high or low pH.

>  <s_epik_cmdline>  (1) 
J2VwaWtfcHl0aG9uJywgJy1waHQnLCAnMS4wJywgJy1waCcsICc3LjQnLCAnLXRuJywgJzgnLCAnLW1hJywgJzUwMCcsICctaW1hZScsICc8aW5maWxlLm1hZT4nLCAnLW9tYWUnLCAnPG91dGZpbGUubWFlPic=

>  <s_epik_input>  (1) 
W0NIM11bQ0BASF0xW0NASF0oW09IXSlbQ0gyXVtDQEhdKE4xMilbQ0BASF0oW09IXSlbQ0BASF0oW0NIMl1bQ0gyXTIpUyg9TykoPU8pQyhbQ0gyXVtDSDNdKT1DPVtDSF1bQ0gyXVMoPU8pKD1PKVtOSF1DKD1PKVtOSF1bQ0BIXTNbQ0gyXVtOSF1PW0NAQEhdM1tDSDNd

>  <s_glide_docking_method>  (1) 
confgen

>  <s_i_glide_gridfile>  (1) 
gpcr_5ht2c_6bqh_protein_autoprepared_prepared

>  <s_lp_Force_Field>  (1) 
S-OPLS

>  <s_lp_Variant>  (1) 
DiffSBDD_12-3

>  <s_m_source_file>  (1) 
generated_GPCR_5HT2C_ligand_DiffSBDD_2026-06-23_prepared.sdf

>  <GenAI_Model>  (1) 
DiffSBDD

>  <Protein>  (1) 
GPCR_5HT2C

$$$$
DiffSBDD_66
     RDKit          3D

  0  0  0  0  0  0  0  0  0  0999 V3000
M  V30 BEGIN CTAB
M  V30 COUNTS 62 65 0 0 1
M  V30 BEGIN ATOM
M  V30 1 C 39.340628 34.826353 60.447731 0
M  V30 2 C 40.243795 35.908424 61.311493 0
M  V30 3 C 40.633519 31.578392 62.464260 0 CFG=2
M  V30 4 N 38.694797 30.814355 57.699105 0
M  V30 5 O 39.333717 29.268038 51.302674 0 CHG=-1
M  V30 6 O 40.076057 29.252597 62.155115 0
M  V30 7 O 42.029892 31.391395 62.584509 0
M  V30 8 C 38.758221 28.236314 53.384777 0
M  V30 9 C 39.371439 33.751828 62.518714 0
M  V30 10 C 40.978441 33.532860 64.142073 0
M  V30 11 N 38.900250 33.714384 61.286886 0
M  V30 12 C 42.291850 33.365024 66.328676 0
M  V30 13 C 39.068233 29.478412 55.484415 0
M  V30 14 N 38.679907 30.918511 59.046582 0
M  V30 15 C 41.493983 33.320743 68.696855 0
M  V30 16 C 40.225680 32.922150 63.090988 0
M  V30 17 C 41.308932 35.068596 63.964605 0 CFG=1
M  V30 18 C 41.427748 35.558968 62.395267 0
M  V30 19 C 40.447722 35.736207 66.179707 0
M  V30 20 C 38.312473 32.173971 59.290572 0
M  V30 21 C 38.112858 32.618933 60.714146 0
M  V30 22 C 39.904751 30.348707 63.036157 0
M  V30 23 C 38.115719 32.918280 58.085455 0
M  V30 24 C 39.653509 30.498891 53.332847 0
M  V30 25 C 40.484198 35.950453 64.887511 0
M  V30 26 C 38.989772 29.544489 57.013074 0
M  V30 27 C 38.669661 28.290942 54.789258 0
M  V30 28 O 39.148969 28.547688 57.719673 0
M  V30 29 Cl 38.059991 26.911221 55.647251 0
M  V30 30 C 38.354838 32.010349 57.094421 0
M  V30 31 C 40.601320 35.094032 67.312154 0
M  V30 32 C 41.458196 32.801958 65.179015 0
M  V30 33 C 39.576295 30.572603 54.735875 0
M  V30 34 C 41.447318 33.913302 67.492098 0
M  V30 35 C 39.245159 29.335496 52.660567 0
M  V30 36 H 38.474810 35.317056 60.002059 0
M  V30 37 H 39.562124 36.610493 61.792969 0
M  V30 38 H 40.461030 31.635011 61.390665 0
M  V30 39 H 39.699006 29.468076 61.314769 0
M  V30 40 H 42.442135 32.241242 62.547206 0
M  V30 41 H 38.451508 27.342430 52.861530 0
M  V30 42 H 39.194249 34.711139 62.969173 0
M  V30 43 H 40.766735 36.507583 60.570275 0
M  V30 44 H 42.978994 34.137287 65.994031 0
M  V30 45 H 42.934871 32.560625 66.686943 0
M  V30 46 H 40.914529 33.698163 69.526328 0
M  V30 47 H 42.112991 32.451966 68.867438 0
M  V30 48 H 39.951412 34.420082 59.642223 0
M  V30 49 H 42.334881 35.193963 64.307198 0
M  V30 50 H 42.039908 36.459315 62.445173 0
M  V30 51 H 42.045137 34.820147 61.892207 0
M  V30 52 H 37.073566 32.931810 60.811356 0
M  V30 53 H 38.180393 31.752641 61.368146 0
M  V30 54 H 40.274036 30.080484 64.025597 0
M  V30 55 H 38.836703 30.540607 63.138053 0
M  V30 56 H 37.805543 33.946467 57.969514 0
M  V30 57 H 40.040568 31.336750 52.770354 0
M  V30 58 H 39.947631 36.771247 64.435675 0
M  V30 59 H 38.275891 32.123214 56.031108 0
M  V30 60 H 40.080698 35.460302 68.186043 0
M  V30 61 H 41.228794 31.748679 65.233874 0
M  V30 62 H 39.928253 31.459523 55.232872 0
M  V30 END ATOM
M  V30 BEGIN BOND
M  V30 1 1 2 1
M  V30 2 1 7 3
M  V30 3 1 11 1
M  V30 4 1 11 9
M  V30 5 1 14 4
M  V30 6 1 16 3
M  V30 7 2 16 9
M  V30 8 1 16 10
M  V30 9 1 17 10
M  V30 10 1 18 2
M  V30 11 1 18 17
M  V30 12 2 20 14
M  V30 13 1 21 11
M  V30 14 1 21 20
M  V30 15 1 22 3
M  V30 16 1 22 6
M  V30 17 1 23 20
M  V30 18 1 25 17
M  V30 19 2 25 19
M  V30 20 1 26 4
M  V30 21 1 26 13
M  V30 22 1 27 8
M  V30 23 2 27 13
M  V30 24 2 28 26
M  V30 25 1 29 27
M  V30 26 1 30 4
M  V30 27 2 30 23
M  V30 28 2 31 19
M  V30 29 2 32 10
M  V30 30 1 32 12
M  V30 31 1 33 13
M  V30 32 2 33 24
M  V30 33 1 34 12
M  V30 34 2 34 15
M  V30 35 1 34 31
M  V30 36 1 35 5
M  V30 37 2 35 8
M  V30 38 1 35 24
M  V30 39 1 36 1
M  V30 40 1 37 2
M  V30 41 1 3 38 CFG=3
M  V30 42 1 39 6
M  V30 43 1 40 7
M  V30 44 1 41 8
M  V30 45 1 42 9
M  V30 46 1 43 2
M  V30 47 1 44 12
M  V30 48 1 45 12
M  V30 49 1 46 15
M  V30 50 1 47 15
M  V30 51 1 48 1
M  V30 52 1 17 49 CFG=1
M  V30 53 1 50 18
M  V30 54 1 51 18
M  V30 55 1 52 21
M  V30 56 1 53 21
M  V30 57 1 54 22
M  V30 58 1 55 22
M  V30 59 1 56 23
M  V30 60 1 57 24
M  V30 61 1 58 25
M  V30 62 1 59 30
M  V30 63 1 60 31
M  V30 64 1 61 32
M  V30 65 1 62 33
M  V30 END BOND
M  V30 END CTAB
M  END
>  <i_epik_Tot_Q>  (1) 
-1

>  <i_epik_Tot_abs_Q>  (1) 
1

>  <i_i_glide_confnum>  (1) 
154

>  <i_i_glide_lignum>  (1) 
145

>  <i_i_glide_posenum>  (1) 
271

>  <i_i_glide_rotatable_bonds>  (1) 
8

>  <i_lp_mmshare_version>  (1) 
72125

>  <i_m_source_file_index>  (1) 
67

>  <i_f3d_flags>  (1) 
0

>  <num_sample>  (1) 
100

>  <b_lp_Chiralities_Consistent>  (1) 
1

>  <r_epik_Charging_Adjusted_Penalty>  (1) 
0.13314888727576835

>  <r_epik_Ionization_Penalty>  (1) 
0.066709733675270222

>  <r_epik_Ionization_Penalty_Charging>  (1) 
0.066574443637884173

>  <r_epik_Ionization_Penalty_Neutral>  (1) 
0.00013529003738605556

>  <r_epik_State_Penalty>  (1) 
0.066574443637884159

>  <r_glide_ring_energy>  (1) 
0

>  <r_i_docking_score>  (1) 
-6.8797971651165346

>  <r_i_glide_ecoul>  (1) 
-1.9034630053653183

>  <r_i_glide_eff_state_penalty>  (1) 
0.066574443637884159

>  <r_i_glide_einternal>  (1) 
20.436735075642549

>  <r_i_glide_emodel>  (1) 
-51.560143640664961

>  <r_i_glide_emodel_strain>  (1) 
0.8011656257077675

>  <r_i_glide_energy>  (1) 
-44.101718252965235

>  <r_i_glide_erotb>  (1) 
0.50284807503681039

>  <r_i_glide_esite>  (1) 
-0.042273684594624633

>  <r_i_glide_evdw>  (1) 
-42.198255247599917

>  <r_i_glide_gscore>  (1) 
-6.9463716087544185

>  <r_i_glide_gscore_strain>  (1) 
0

>  <r_i_glide_hbond>  (1) 
-0.13071447371544018

>  <r_i_glide_ligand_efficiency>  (1) 
-0.19656563328904383

>  <r_i_glide_ligand_efficiency_ln>  (1) 
-1.5102681666145004

>  <r_i_glide_ligand_efficiency_sa>  (1) 
-0.64297922079267622

>  <r_i_glide_lipo>  (1) 
-4.1216687822492331

>  <r_i_glide_metal>  (1) 
-0

>  <r_i_glide_rewards>  (1) 
-0.75913053004713749

>  <r_lp_Energy>  (1) 
64.718769999999992

>  <r_lp_tautomer_probability>  (1) 
0.99999944244275329

>  <s_epik_cmdline>  (1) 
J2VwaWtfcHl0aG9uJywgJy1waHQnLCAnMS4wJywgJy1waCcsICc3LjQnLCAnLXRuJywgJzgnLCAnLW1hJywgJzUwMCcsICctaW1hZScsICc8aW5maWxlLm1hZT4nLCAnLW9tYWUnLCAnPG91dGZpbGUubWFlPic=

>  <s_epik_input>  (1) 
W0NIXTEvW0NIMl1DKD1bQ0gyXSlbQ0hdPUM9W0NIXVtDQEBIXShDPTFcMilbQ0gyXS9bQ0hdPVtDSF1cTihbQ0gyXVtDQEBIXTJbQ0BASF0oW09IXSlbQ0gyXVtPSF0pW0NIMl1jKFtjSF1bY0hdMylubjNDKD1PKWM0YyhDbClbY0hdYyhbT0hdKVtjSF1bY0hdNA==

>  <s_glide_docking_method>  (1) 
confgen

>  <s_i_glide_gridfile>  (1) 
gpcr_5ht2c_6bqh_protein_autoprepared_prepared

>  <s_lp_Force_Field>  (1) 
S-OPLS

>  <s_lp_Variant>  (1) 
DiffSBDD_66-1

>  <s_m_source_file>  (1) 
generated_GPCR_5HT2C_ligand_DiffSBDD_2026-06-23_prepared.sdf

>  <GenAI_Model>  (1) 
DiffSBDD

>  <Protein>  (1) 
GPCR_5HT2C

$$$$
DiffSBDD_7
     RDKit          3D

  0  0  0  0  0  0  0  0  0  0999 V3000
M  V30 BEGIN CTAB
M  V30 COUNTS 75 77 0 0 1
M  V30 BEGIN ATOM
M  V30 1 C 39.374681 29.140164 59.595664 0
M  V30 2 C 39.919519 36.325942 64.692278 0
M  V30 3 O 39.645139 36.937764 65.882181 0
M  V30 4 C 37.083782 33.023274 59.357891 0 CFG=1
M  V30 5 C 38.757155 28.891600 57.054602 0 CFG=1
M  V30 6 C 38.544057 25.810146 54.889296 0
M  V30 7 O 37.245132 33.740116 58.157496 0
M  V30 8 C 37.320182 25.145866 54.695958 0
M  V30 9 C 38.561105 25.094268 57.212515 0
M  V30 10 C 39.171711 25.793730 56.150463 0
M  V30 11 C 39.351273 35.896179 62.355193 0
M  V30 12 C 37.339785 24.429339 57.015985 0
M  V30 13 C 40.472650 35.042715 62.243701 0
M  V30 14 C 36.499363 30.068351 59.064073 0
M  V30 15 N 38.106084 31.991624 59.306367 0
M  V30 16 S 40.400347 28.319628 56.444263 0 CHG=1
M  V30 17 O 37.899708 28.709755 54.747102 0
M  V30 18 C 38.910495 29.867611 58.287734 0 CFG=1
M  V30 19 C 38.616757 30.875515 55.320564 0
M  V30 20 C 41.032465 35.470518 64.580354 0
M  V30 21 C 39.080001 36.539087 63.580746 0
M  V30 22 C 40.476326 26.493722 56.354402 0 CFG=1
M  V30 23 C 39.477411 29.927924 60.913487 0
M  V30 24 C 36.719373 24.454630 55.758666 0
M  V30 25 C 35.966312 34.499735 61.057550 0
M  V30 26 O 36.045137 30.331363 60.167760 0
M  V30 27 C 37.303019 33.910702 60.606140 0 CFG=2
M  V30 28 C 42.362497 27.259117 58.063861 0
M  V30 29 O 37.645133 31.568397 54.567762 0
M  V30 30 C 38.438166 36.130961 61.160829 0
M  V30 31 C 37.994088 29.564969 55.861842 0 CFG=2
M  V30 32 N 38.281773 34.962833 60.262362 0 CHG=1
M  V30 33 C 37.700244 30.819955 58.505148 0 CFG=1
M  V30 34 C 40.909291 27.080487 57.672559 0 CFG=1
M  V30 35 C 41.308683 34.830270 63.357662 0
M  V30 36 H 40.392529 28.800839 59.448062 0
M  V30 37 H 38.759352 28.256478 59.770715 0
M  V30 38 H 38.922954 37.545317 65.848642 0
M  V30 39 H 36.067092 32.633055 59.368059 0
M  V30 40 H 38.178202 28.022326 57.365800 0
M  V30 41 H 39.004102 26.336081 54.065211 0
M  V30 42 H 36.576164 33.435874 57.550906 0
M  V30 43 H 36.845140 25.164712 53.726690 0
M  V30 44 H 39.034133 25.064674 58.177526 0
M  V30 45 H 36.880654 23.895277 57.831382 0
M  V30 46 H 40.691541 34.550691 61.308999 0
M  V30 47 H 36.092817 29.309483 58.395762 0
M  V30 48 H 38.306722 31.684257 60.247605 0
M  V30 49 H 37.472228 29.195761 54.054432 0
M  V30 50 H 39.707141 30.537733 57.995630 0
M  V30 51 H 39.488894 30.679065 54.695134 0
M  V30 52 H 38.950180 31.547812 56.109421 0
M  V30 53 H 41.674207 35.305884 65.433320 0
M  V30 54 H 38.224334 37.192887 63.669606 0
M  V30 55 H 41.244527 26.146224 55.670681 0
M  V30 56 H 39.939604 29.308589 61.682818 0
M  V30 57 H 38.501541 30.217049 61.302180 0
M  V30 58 H 40.096029 30.819138 60.804289 0
M  V30 59 H 35.780616 23.941518 55.607890 0
M  V30 60 H 35.190440 33.737023 61.137292 0
M  V30 61 H 35.645135 35.240777 60.326269 0
M  V30 62 H 36.038569 34.967177 62.039753 0
M  V30 63 H 37.692000 33.314922 61.434250 0
M  V30 64 H 42.731552 26.367823 58.567762 0
M  V30 65 H 42.470997 28.108243 58.737257 0
M  V30 66 H 42.987909 27.430014 57.187330 0
M  V30 67 H 36.970557 31.911363 55.146130 0
M  V30 68 H 38.845137 36.937753 60.567774 0
M  V30 69 H 37.478846 36.523070 61.493946 0
M  V30 70 H 36.961354 29.745295 56.161786 0
M  V30 71 H 39.177309 34.527030 60.102548 0
M  V30 72 H 37.378842 31.237210 57.557782 0
M  V30 73 H 40.208673 26.937886 58.486643 0
M  V30 74 H 42.162695 34.175530 63.274663 0
M  V30 75 H 37.959257 35.294913 59.360938 0
M  V30 END ATOM
M  V30 BEGIN BOND
M  V30 1 1 3 2
M  V30 2 1 7 4
M  V30 3 1 8 6
M  V30 4 2 10 6
M  V30 5 1 10 9
M  V30 6 2 12 9
M  V30 7 2 13 11
M  V30 8 1 15 4
M  V30 9 1 16 5
M  V30 10 1 18 1
M  V30 11 1 18 5
M  V30 12 1 20 2
M  V30 13 2 21 2
M  V30 14 1 21 11
M  V30 15 1 22 10
M  V30 16 1 16 22 CFG=3
M  V30 17 1 23 1
M  V30 18 2 24 8
M  V30 19 1 24 12
M  V30 20 2 26 14
M  V30 21 1 27 4
M  V30 22 1 27 25
M  V30 23 1 29 19
M  V30 24 1 30 11
M  V30 25 1 31 5
M  V30 26 1 31 17
M  V30 27 1 31 19
M  V30 28 1 32 27
M  V30 29 1 32 30
M  V30 30 1 33 14
M  V30 31 1 33 15
M  V30 32 1 33 18
M  V30 33 1 34 16
M  V30 34 1 34 22
M  V30 35 1 34 28
M  V30 36 1 35 13
M  V30 37 2 35 20
M  V30 38 1 36 1
M  V30 39 1 37 1
M  V30 40 1 38 3
M  V30 41 1 4 39 CFG=1
M  V30 42 1 5 40 CFG=1
M  V30 43 1 41 6
M  V30 44 1 42 7
M  V30 45 1 43 8
M  V30 46 1 44 9
M  V30 47 1 45 12
M  V30 48 1 46 13
M  V30 49 1 47 14
M  V30 50 1 48 15
M  V30 51 1 49 17
M  V30 52 1 18 50 CFG=3
M  V30 53 1 51 19
M  V30 54 1 52 19
M  V30 55 1 53 20
M  V30 56 1 54 21
M  V30 57 1 22 55 CFG=3
M  V30 58 1 56 23
M  V30 59 1 57 23
M  V30 60 1 58 23
M  V30 61 1 59 24
M  V30 62 1 60 25
M  V30 63 1 61 25
M  V30 64 1 62 25
M  V30 65 1 27 63 CFG=1
M  V30 66 1 64 28
M  V30 67 1 65 28
M  V30 68 1 66 28
M  V30 69 1 67 29
M  V30 70 1 68 30
M  V30 71 1 69 30
M  V30 72 1 31 70 CFG=1
M  V30 73 1 71 32
M  V30 74 1 33 72 CFG=3
M  V30 75 1 34 73 CFG=1
M  V30 76 1 74 35
M  V30 77 1 75 32
M  V30 END BOND
M  V30 END CTAB
M  END
>  <i_epik_Tot_Q>  (1) 
2

>  <i_epik_Tot_abs_Q>  (1) 
2

>  <i_i_glide_confnum>  (1) 
2207

>  <i_i_glide_lignum>  (1) 
10

>  <i_i_glide_posenum>  (1) 
388

>  <i_i_glide_rotatable_bonds>  (1) 
18

>  <i_lp_mmshare_version>  (1) 
72125

>  <i_m_source_file_index>  (1) 
8

>  <i_f3d_flags>  (1) 
0

>  <num_sample>  (1) 
100

>  <b_lp_Chiralities_Consistent>  (1) 
1

>  <r_epik_Charging_Adjusted_Penalty>  (1) 
0.016656697635693843

>  <r_epik_Ionization_Penalty>  (1) 
0.030146097982287068

>  <r_epik_Ionization_Penalty_Charging>  (1) 
0.016656697635693843

>  <r_epik_Ionization_Penalty_Neutral>  (1) 
0.013489400346593225

>  <r_epik_State_Penalty>  (1) 
-0

>  <r_glide_ring_energy>  (1) 
0

>  <r_i_docking_score>  (1) 
-6.8784330882834972

>  <r_i_glide_ecoul>  (1) 
-4.8792457260258981

>  <r_i_glide_eff_state_penalty>  (1) 
-0

>  <r_i_glide_einternal>  (1) 
15.014726329984056

>  <r_i_glide_emodel>  (1) 
-71.687239547179985

>  <r_i_glide_emodel_strain>  (1) 
4.3913605118946251

>  <r_i_glide_energy>  (1) 
-47.542409445045486

>  <r_i_glide_erotb>  (1) 
0.96334785482901231

>  <r_i_glide_esite>  (1) 
-0.15093149233483416

>  <r_i_glide_evdw>  (1) 
-42.663163719019586

>  <r_i_glide_gscore>  (1) 
-6.8784330882834972

>  <r_i_glide_gscore_strain>  (1) 
0.097840127973656266

>  <r_i_glide_hbond>  (1) 
-0.22528492293960767

>  <r_i_glide_ligand_efficiency>  (1) 
-0.19652665966524277

>  <r_i_glide_ligand_efficiency_ln>  (1) 
-1.5099687214755946

>  <r_i_glide_ligand_efficiency_sa>  (1) 
-0.64285173548487451

>  <r_i_glide_lipo>  (1) 
-3.9817637862859856

>  <r_i_glide_metal>  (1) 
-0

>  <r_i_glide_rewards>  (1) 
-0.71659582467087513

>  <r_lp_Energy>  (1) 
35.191997999999998

>  <r_lp_tautomer_probability>  (1) 
1

>  <s_epik_Chemistry_Notes>  (1) 
This compound contains an acetal/aminal-like group ( X-CH(R)-Y where X, Y are N, S, or O) that may be acid/base labile, releasing an aldehyde.

>  <s_epik_cmdline>  (1) 
J2VwaWtfcHl0aG9uJywgJy1waHQnLCAnMS4wJywgJy1waCcsICc3LjQnLCAnLXRuJywgJzgnLCAnLW1hJywgJzUwMCcsICctaW1hZScsICc8aW5maWxlLm1hZT4nLCAnLW9tYWUnLCAnPG91dGZpbGUubWFlPic=

>  <s_epik_input>  (1) 
W2NIXTFbY0hdW2NIXVtjSF1bY0hdYzFbQ0BIXShbQ0BIXTJbQ0gzXSlbUytdMltDQEhdKFtDQEhdKFtPSF0pW0NIMl1bT0hdKVtDQEhdKFtDSDJdW0NIM10pW0NAQEhdKFtDSF09TylbTkhdW0NASF0oW09IXSlbQ0BIXShbQ0gzXSlbTkhdW0NIMl1jKFtjSF0zKVtjSF1bY0hdW2NIXWMzW09IXQ==

>  <s_glide_docking_method>  (1) 
confgen

>  <s_i_glide_gridfile>  (1) 
gpcr_5ht2c_6bqh_protein_autoprepared_prepared

>  <s_lp_Force_Field>  (1) 
S-OPLS

>  <s_lp_Variant>  (1) 
DiffSBDD_7-1

>  <s_m_source_file>  (1) 
generated_GPCR_5HT2C_ligand_DiffSBDD_2026-06-23_prepared.sdf

>  <GenAI_Model>  (1) 
DiffSBDD

>  <Protein>  (1) 
GPCR_5HT2C

$$$$
DiffSBDD_38
     RDKit          3D

  0  0  0  0  0  0  0  0  0  0999 V3000
M  V30 BEGIN CTAB
M  V30 COUNTS 45 47 0 0 1
M  V30 BEGIN ATOM
M  V30 1 C 38.753396 31.010358 54.260508 0
M  V30 2 C 37.934866 31.864086 60.666124 0
M  V30 3 C 38.777315 36.352728 62.068819 0
M  V30 4 C 38.305198 30.815022 58.492341 0
M  V30 5 C 37.499449 24.292351 55.970169 0
M  V30 6 O 38.466105 33.330001 55.828723 0
M  V30 7 C 39.163753 25.774763 56.962437 0
M  V30 8 C 38.445522 32.223807 56.371917 0
M  V30 9 C 38.990690 35.046755 61.293336 0
M  V30 10 C 38.579379 29.583252 53.782029 0
M  V30 11 C 37.655121 27.514832 53.891892 0 CFG=2
M  V30 12 C 38.266049 32.089570 57.868345 0
M  V30 13 C 37.668943 34.376926 60.885408 0
M  V30 14 N 38.578681 31.068460 55.704170 0
M  V30 15 C 38.140034 30.708112 59.887954 0
M  V30 16 S 38.858242 27.355208 52.490786 0
M  V30 17 O 37.645124 28.857424 54.459850 0
M  V30 18 C 38.906241 26.734023 55.963173 0
M  V30 19 C 39.238955 28.991266 52.808692 0
M  V30 20 C 38.056644 33.242238 58.654675 0
M  V30 21 C 38.457920 24.556008 56.967727 0
M  V30 22 C 37.943158 26.472914 54.964816 0
M  V30 23 C 37.245144 25.245052 54.967694 0
M  V30 24 C 37.891957 33.131264 60.049683 0
M  V30 25 H 39.746773 31.373253 53.993130 0
M  V30 26 H 38.021716 31.651034 53.767770 0
M  V30 27 H 37.809949 31.778964 61.735781 0
M  V30 28 H 39.731585 36.797913 62.352543 0
M  V30 29 H 38.233993 37.083924 61.469362 0
M  V30 30 H 38.207544 36.181230 62.982137 0
M  V30 31 H 38.462434 29.922783 57.906091 0
M  V30 32 H 36.960408 23.355990 55.972667 0
M  V30 33 H 39.901373 25.975018 57.725978 0
M  V30 34 H 39.578771 34.356319 61.899562 0
M  V30 35 H 39.585111 35.255955 60.402575 0
M  V30 36 H 36.660438 27.337656 53.483639 0
M  V30 37 H 37.055389 35.074446 60.313380 0
M  V30 38 H 37.084558 34.117542 61.767700 0
M  V30 39 H 38.540418 30.198450 56.210453 0
M  V30 40 H 38.171474 29.737727 60.361416 0
M  V30 41 H 39.444894 27.670472 55.963120 0
M  V30 42 H 40.001637 29.474843 52.215671 0
M  V30 43 H 38.020093 34.212179 58.186204 0
M  V30 44 H 38.653884 23.821664 57.735510 0
M  V30 45 H 36.512850 25.034218 54.202682 0
M  V30 END ATOM
M  V30 BEGIN BOND
M  V30 1 2 8 6
M  V30 2 1 9 3
M  V30 3 1 10 1
M  V30 4 2 12 4
M  V30 5 1 12 8
M  V30 6 1 13 9
M  V30 7 1 14 1
M  V30 8 1 14 8
M  V30 9 2 15 2
M  V30 10 1 15 4
M  V30 11 1 16 11
M  V30 12 1 17 10
M  V30 13 1 17 11
M  V30 14 2 18 7
M  V30 15 2 19 10
M  V30 16 1 19 16
M  V30 17 1 20 12
M  V30 18 2 21 5
M  V30 19 1 21 7
M  V30 20 1 22 11
M  V30 21 1 22 18
M  V30 22 1 23 5
M  V30 23 2 23 22
M  V30 24 1 24 2
M  V30 25 1 24 13
M  V30 26 2 24 20
M  V30 27 1 25 1
M  V30 28 1 26 1
M  V30 29 1 27 2
M  V30 30 1 28 3
M  V30 31 1 29 3
M  V30 32 1 30 3
M  V30 33 1 31 4
M  V30 34 1 32 5
M  V30 35 1 33 7
M  V30 36 1 34 9
M  V30 37 1 35 9
M  V30 38 1 11 36 CFG=3
M  V30 39 1 37 13
M  V30 40 1 38 13
M  V30 41 1 39 14
M  V30 42 1 40 15
M  V30 43 1 41 18
M  V30 44 1 42 19
M  V30 45 1 43 20
M  V30 46 1 44 21
M  V30 47 1 45 23
M  V30 END BOND
M  V30 END CTAB
M  END
>  <i_epik_Tot_Q>  (1) 
0

>  <i_epik_Tot_abs_Q>  (1) 
0

>  <i_i_glide_confnum>  (1) 
132

>  <i_i_glide_lignum>  (1) 
85

>  <i_i_glide_posenum>  (1) 
154

>  <i_i_glide_rotatable_bonds>  (1) 
7

>  <i_lp_mmshare_version>  (1) 
72125

>  <i_m_source_file_index>  (1) 
39

>  <i_f3d_flags>  (1) 
0

>  <num_sample>  (1) 
100

>  <b_lp_Chiralities_Consistent>  (1) 
1

>  <r_epik_Charging_Adjusted_Penalty>  (1) 
0

>  <r_epik_Ionization_Penalty>  (1) 
2.537030552391147e-06

>  <r_epik_Ionization_Penalty_Charging>  (1) 
0

>  <r_epik_Ionization_Penalty_Neutral>  (1) 
2.537030552391147e-06

>  <r_epik_State_Penalty>  (1) 
-0

>  <r_glide_ring_energy>  (1) 
0

>  <r_i_docking_score>  (1) 
-6.8713322893030462

>  <r_i_glide_ecoul>  (1) 
0.31247183040293969

>  <r_i_glide_eff_state_penalty>  (1) 
-0

>  <r_i_glide_einternal>  (1) 
4.4963477726311334

>  <r_i_glide_emodel>  (1) 
-59.773549887416372

>  <r_i_glide_emodel_strain>  (1) 
0

>  <r_i_glide_energy>  (1) 
-43.477082408702337

>  <r_i_glide_erotb>  (1) 
0.98539345027443515

>  <r_i_glide_esite>  (1) 
-0.12418227275572097

>  <r_i_glide_evdw>  (1) 
-43.789554239105279

>  <r_i_glide_gscore>  (1) 
-6.8713322893030462

>  <r_i_glide_gscore_strain>  (1) 
0

>  <r_i_glide_hbond>  (1) 
0

>  <r_i_glide_ligand_efficiency>  (1) 
-0.28630551205429361

>  <r_i_glide_ligand_efficiency_ln>  (1) 
-1.6446251217234333

>  <r_i_glide_ligand_efficiency_sa>  (1) 
-0.82584800347389498

>  <r_i_glide_lipo>  (1) 
-3.8247624400263174

>  <r_i_glide_metal>  (1) 
-0

>  <r_i_glide_rewards>  (1) 
-1.7651740894006192

>  <r_lp_Energy>  (1) 
12.828882

>  <r_lp_tautomer_probability>  (1) 
1

>  <s_epik_Chemistry_Notes>  (1) 
This compound contains an acetal/aminal-like group ( X-CH(R)-Y where X, Y are N, S, or O) that may be acid/base labile, releasing an aldehyde.

>  <s_epik_cmdline>  (1) 
J2VwaWtfcHl0aG9uJywgJy1waHQnLCAnMS4wJywgJy1waCcsICc3LjQnLCAnLXRuJywgJzgnLCAnLW1hJywgJzUwMCcsICctaW1hZScsICc8aW5maWxlLm1hZT4nLCAnLW9tYWUnLCAnPG91dGZpbGUubWFlPic=

>  <s_epik_input>  (1) 
W2NIXTFbY0hdW2NIXVtjSF1bY0hdYzFbQ0BASF0oTzIpU1tDSF09QzJbQ0gyXVtOSF1DKD1PKWMzW2NIXVtjSF1bY0hdYyhbY0hdMylbQ0gyXVtDSDJdW0NIM10=

>  <s_glide_docking_method>  (1) 
confgen

>  <s_i_glide_gridfile>  (1) 
gpcr_5ht2c_6bqh_protein_autoprepared_prepared

>  <s_lp_Force_Field>  (1) 
S-OPLS

>  <s_lp_Variant>  (1) 
DiffSBDD_38-1

>  <s_m_source_file>  (1) 
generated_GPCR_5HT2C_ligand_DiffSBDD_2026-06-23_prepared.sdf

>  <GenAI_Model>  (1) 
DiffSBDD

>  <Protein>  (1) 
GPCR_5HT2C

$$$$
DiffSBDD_12
     RDKit          3D

  0  0  0  0  0  0  0  0  0  0999 V3000
M  V30 BEGIN CTAB
M  V30 COUNTS 67 69 0 0 1
M  V30 BEGIN ATOM
M  V30 1 C 39.158246 29.117727 51.156258 0 CFG=1
M  V30 2 C 39.791328 28.361573 59.328094 0
M  V30 3 N 38.468700 28.978216 52.432983 0
M  V30 4 C 37.776122 24.876774 58.167702 0
M  V30 5 O 37.307282 30.632738 54.642484 0
M  V30 6 O 41.098997 30.565986 50.636140 0
M  V30 7 N 40.878116 29.169563 62.992073 0 CHG=-1
M  V30 8 C 41.136380 29.938033 64.065541 0
M  V30 9 O 40.845131 30.578490 60.915880 0
M  V30 10 C 39.207793 29.780802 53.390631 0 CFG=1
M  V30 11 C 43.527272 29.273189 66.803854 0
M  V30 12 S 39.786979 27.559662 55.812514 0
M  V30 13 C 39.512241 27.422289 58.450637 0
M  V30 14 C 38.113866 27.637937 52.886909 0
M  V30 15 C 42.578704 30.180131 66.054599 0 CFG=1
M  V30 16 C 38.222752 28.464924 55.320573 0 CFG=1
M  V30 17 O 40.088685 26.498301 54.840379 0
M  V30 18 O 44.243283 31.480382 67.008271 0
M  V30 19 C 39.690677 31.020391 52.639936 0
M  V30 20 C 43.501044 31.368463 65.800242 0 CFG=2
M  V30 21 C 39.732290 28.137581 60.824975 0
M  V30 22 N 44.298120 30.170757 67.644163 0
M  V30 23 O 40.561488 30.987843 64.353714 0
M  V30 24 O 38.667217 30.199320 62.113092 0
M  V30 25 C 38.514829 29.896734 54.769914 0 CFG=2
M  V30 26 C 37.430116 27.650711 54.267532 0
M  V30 27 C 38.992971 25.235960 57.323952 0
M  V30 28 C 39.400531 26.705651 57.350826 0
M  V30 29 O 40.823913 28.537720 56.167746 0
M  V30 30 C 39.784776 30.542424 51.165651 0 CFG=2
M  V30 31 C 40.158182 28.028780 50.808541 0
M  V30 32 C 42.807401 32.713558 65.542437 0
M  V30 33 S 40.007645 29.711189 61.754724 0
M  V30 34 N 42.122988 29.488012 64.849946 0
M  V30 35 H 38.445039 29.043395 50.353300 0
M  V30 36 H 40.083170 29.347740 59.000139 0
M  V30 37 H 37.450154 23.854970 57.967646 0
M  V30 38 H 38.045148 24.937524 59.219172 0
M  V30 39 H 36.936616 25.546801 57.977936 0
M  V30 40 H 37.008848 30.923403 55.496740 0
M  V30 41 H 41.360743 31.469188 50.522602 0
M  V30 42 H 40.148387 29.337672 53.605980 0
M  V30 43 H 43.006270 28.511971 67.384014 0
M  V30 44 H 44.209095 28.769075 66.116873 0
M  V30 45 H 37.438181 27.188931 52.167775 0
M  V30 46 H 38.988216 26.997024 52.900298 0
M  V30 47 H 41.743895 30.459973 66.699516 0
M  V30 48 H 37.644875 28.566826 56.236659 0
M  V30 49 H 38.999410 31.854432 52.760039 0
M  V30 50 H 40.657009 31.337759 53.029904 0
M  V30 51 H 44.195761 31.145530 64.987922 0
M  V30 52 H 38.776154 27.737801 61.135788 0
M  V30 53 H 40.507452 27.427315 61.111373 0
M  V30 54 H 45.272584 29.902306 67.617790 0
M  V30 55 H 39.164531 30.445787 55.453435 0
M  V30 56 H 36.445265 28.091885 54.143979 0
M  V30 57 H 37.258604 26.632477 54.616991 0
M  V30 58 H 38.772926 24.955251 56.294661 0
M  V30 59 H 39.849840 24.630817 57.615562 0
M  V30 60 H 39.244934 31.229716 50.521457 0
M  V30 61 H 40.445047 28.157397 49.768538 0
M  V30 62 H 41.038840 28.137752 51.438804 0
M  V30 63 H 39.750753 27.021096 50.876015 0
M  V30 64 H 42.354798 32.748286 64.551986 0
M  V30 65 H 42.026301 32.903782 66.279291 0
M  V30 66 H 43.520506 33.535946 65.599397 0
M  V30 67 H 42.587972 28.631994 64.595682 0
M  V30 END ATOM
M  V30 BEGIN BOND
M  V30 1 1 3 1
M  V30 2 1 8 7
M  V30 3 1 10 3
M  V30 4 2 13 2
M  V30 5 1 14 3
M  V30 6 1 15 11
M  V30 7 1 16 12
M  V30 8 2 17 12
M  V30 9 1 19 10
M  V30 10 1 20 15
M  V30 11 1 20 18
M  V30 12 1 21 2
M  V30 13 1 22 11
M  V30 14 1 22 18
M  V30 15 2 23 8
M  V30 16 1 25 5
M  V30 17 1 25 10
M  V30 18 1 25 16
M  V30 19 1 26 14
M  V30 20 1 26 16
M  V30 21 1 27 4
M  V30 22 1 28 12
M  V30 23 2 28 13
M  V30 24 1 28 27
M  V30 25 2 29 12
M  V30 26 1 30 1
M  V30 27 1 30 6
M  V30 28 1 30 19
M  V30 29 1 31 1
M  V30 30 1 32 20
M  V30 31 1 33 7
M  V30 32 2 33 9
M  V30 33 1 33 21
M  V30 34 2 33 24
M  V30 35 1 34 8
M  V30 36 1 34 15
M  V30 37 1 1 35 CFG=3
M  V30 38 1 36 2
M  V30 39 1 37 4
M  V30 40 1 38 4
M  V30 41 1 39 4
M  V30 42 1 40 5
M  V30 43 1 41 6
M  V30 44 1 10 42 CFG=1
M  V30 45 1 43 11
M  V30 46 1 44 11
M  V30 47 1 45 14
M  V30 48 1 46 14
M  V30 49 1 15 47 CFG=1
M  V30 50 1 16 48 CFG=1
M  V30 51 1 49 19
M  V30 52 1 50 19
M  V30 53 1 20 51 CFG=3
M  V30 54 1 52 21
M  V30 55 1 53 21
M  V30 56 1 54 22
M  V30 57 1 25 55 CFG=1
M  V30 58 1 56 26
M  V30 59 1 57 26
M  V30 60 1 58 27
M  V30 61 1 59 27
M  V30 62 1 30 60 CFG=3
M  V30 63 1 61 31
M  V30 64 1 62 31
M  V30 65 1 63 31
M  V30 66 1 64 32
M  V30 67 1 65 32
M  V30 68 1 66 32
M  V30 69 1 67 34
M  V30 END BOND
M  V30 END CTAB
M  END
>  <i_epik_Tot_Q>  (1) 
-1

>  <i_epik_Tot_abs_Q>  (1) 
1

>  <i_i_glide_confnum>  (1) 
1845

>  <i_i_glide_lignum>  (1) 
21

>  <i_i_glide_posenum>  (1) 
69

>  <i_i_glide_rotatable_bonds>  (1) 
11

>  <i_lp_mmshare_version>  (1) 
72125

>  <i_m_source_file_index>  (1) 
13

>  <i_f3d_flags>  (1) 
0

>  <num_sample>  (1) 
100

>  <b_lp_Chiralities_Consistent>  (1) 
1

>  <r_epik_Charging_Adjusted_Penalty>  (1) 
0.54032877013992786

>  <r_epik_Ionization_Penalty>  (1) 
0.54134665641143098

>  <r_epik_Ionization_Penalty_Charging>  (1) 
0.00017066470294595392

>  <r_epik_Ionization_Penalty_Neutral>  (1) 
0.54117599170848507

>  <r_epik_State_Penalty>  (1) 
0.54015810543698195

>  <r_glide_ring_energy>  (1) 
0

>  <r_i_docking_score>  (1) 
-6.8678644793728196

>  <r_i_glide_ecoul>  (1) 
-10.470399250400215

>  <r_i_glide_eff_state_penalty>  (1) 
0.54015810543698195

>  <r_i_glide_einternal>  (1) 
6.6740490866348665

>  <r_i_glide_emodel>  (1) 
-57.560367483762512

>  <r_i_glide_emodel_strain>  (1) 
3.5113059464170817

>  <r_i_glide_energy>  (1) 
-49.00441208240926

>  <r_i_glide_erotb>  (1) 
0.6799936626702181

>  <r_i_glide_esite>  (1) 
-0.032007051563051038

>  <r_i_glide_evdw>  (1) 
-38.534012832009047

>  <r_i_glide_gscore>  (1) 
-7.4080225848098014

>  <r_i_glide_gscore_strain>  (1) 
0

>  <r_i_glide_hbond>  (1) 
-0.03851029010537238

>  <r_i_glide_ligand_efficiency>  (1) 
-0.20199601409920057

>  <r_i_glide_ligand_efficiency_ln>  (1) 
-1.5173039005670497

>  <r_i_glide_ligand_efficiency_sa>  (1) 
-0.65438867108678322

>  <r_i_glide_lipo>  (1) 
-4.1712395843070542

>  <r_i_glide_metal>  (1) 
-0

>  <r_i_glide_rewards>  (1) 
-0.34899879234405712

>  <r_lp_Energy>  (1) 
-18.368317999999999

>  <s_epik_Chemistry_Notes>  (1) 
This compound has a N-S or N-O group and may undergo hydrolysis at high or low pH.

>  <s_epik_cmdline>  (1) 
J2VwaWtfcHl0aG9uJywgJy1waHQnLCAnMS4wJywgJy1waCcsICc3LjQnLCAnLXRuJywgJzgnLCAnLW1hJywgJzUwMCcsICctaW1hZScsICc8aW5maWxlLm1hZT4nLCAnLW9tYWUnLCAnPG91dGZpbGUubWFlPic=

>  <s_epik_input>  (1) 
W0NIM11bQ0BASF0xW0NASF0oW09IXSlbQ0gyXVtDQEhdKE4xMilbQ0BASF0oW09IXSlbQ0BASF0oW0NIMl1bQ0gyXTIpUyg9TykoPU8pQyhbQ0gyXVtDSDNdKT1DPVtDSF1bQ0gyXVMoPU8pKD1PKVtOSF1DKD1PKVtOSF1bQ0BIXTNbQ0gyXVtOSF1PW0NAQEhdM1tDSDNd

>  <s_glide_docking_method>  (1) 
confgen

>  <s_i_glide_gridfile>  (1) 
gpcr_5ht2c_6bqh_protein_autoprepared_prepared

>  <s_lp_Force_Field>  (1) 
S-OPLS

>  <s_lp_Variant>  (1) 
DiffSBDD_12-3

>  <s_m_source_file>  (1) 
generated_GPCR_5HT2C_ligand_DiffSBDD_2026-06-23_prepared.sdf

>  <GenAI_Model>  (1) 
DiffSBDD

>  <Protein>  (1) 
GPCR_5HT2C

$$$$
DiffSBDD_3
     RDKit          3D

  0  0  0  0  0  0  0  0  0  0999 V3000
M  V30 BEGIN CTAB
M  V30 COUNTS 72 76 0 0 1
M  V30 BEGIN ATOM
M  V30 1 C 41.287759 29.667176 67.732720 0
M  V30 2 C 40.440670 33.913103 62.977657 0
M  V30 3 N 39.400289 37.268457 62.167921 0
M  V30 4 C 42.061697 31.842108 64.636645 0
M  V30 5 N 42.523616 30.601977 65.078046 0
M  V30 6 C 41.395394 30.296508 63.159158 0
M  V30 7 C 38.524623 28.952917 52.291155 0 CFG=2
M  V30 8 C 43.315043 30.301495 66.284381 0 CFG=1
M  V30 9 C 40.068512 36.720286 62.937130 0
M  V30 10 C 42.311194 32.993013 65.296613 0
M  V30 11 O 38.045121 29.043813 56.102821 0
M  V30 12 C 36.516888 29.681086 58.787828 0
M  V30 13 C 42.085462 29.689609 64.135515 0
M  V30 14 C 38.948238 28.906696 59.194593 0
M  V30 15 C 38.945502 31.107366 55.271400 0 CFG=1
M  V30 16 C 44.740465 30.888373 66.240723 0
M  V30 17 C 37.956110 31.379793 54.167754 0
M  V30 18 C 42.550595 30.533467 67.607387 0
M  V30 19 O 41.161262 28.137702 59.852569 0
M  V30 20 O 37.378852 28.138421 52.567714 0
M  V30 21 N 39.153866 29.200031 53.565339 0
M  V30 22 C 40.418041 30.239533 60.813238 0
M  V30 23 C 38.471372 27.527398 51.856918 0 CFG=1
M  V30 24 C 41.098333 34.776790 63.947779 0
M  V30 25 O 38.638094 27.721518 59.083659 0
M  V30 26 N 41.361655 31.672493 63.460951 0
M  V30 27 C 38.003756 30.075412 58.810308 0 CFG=1
M  V30 28 N 38.445109 30.715237 57.570208 0
M  V30 29 C 38.436090 30.188088 56.338023 0
M  V30 30 C 41.906681 34.349710 64.947315 0
M  V30 31 C 40.377732 29.280873 59.605087 0 CFG=2
M  V30 32 C 39.377934 28.496040 51.129969 0
M  V30 33 C 42.413379 28.212446 64.274384 0
M  V30 34 N 40.847310 29.623496 62.058405 0
M  V30 35 N 40.864371 36.137753 63.855896 0
M  V30 36 C 40.570946 32.596854 62.799844 0
M  V30 37 C 39.223662 30.624228 53.846063 0 CFG=2
M  V30 38 H 40.845458 29.758193 68.724541 0
M  V30 39 H 40.531282 29.960303 67.003370 0
M  V30 40 H 41.512452 28.612444 67.573129 0
M  V30 41 H 39.751152 34.398401 62.304206 0
M  V30 42 H 43.492388 29.228129 66.276310 0
M  V30 43 H 42.893299 32.909699 66.194328 0
M  V30 44 H 36.198703 29.337728 59.767721 0
M  V30 45 H 35.884211 30.537694 58.567711 0
M  V30 46 H 36.300986 28.894828 58.067535 0
M  V30 47 H 39.516132 31.967853 55.616620 0
M  V30 48 H 45.343328 30.497350 67.060856 0
M  V30 49 H 45.242323 30.605381 65.314660 0
M  V30 50 H 44.772437 31.973455 66.311648 0
M  V30 51 H 37.014207 30.831825 54.172250 0
M  V30 52 H 37.881816 32.414368 53.838288 0
M  V30 53 H 43.213203 30.285720 68.437184 0
M  V30 54 H 42.282180 31.578378 67.747678 0
M  V30 55 H 41.081616 27.560066 59.107504 0
M  V30 56 H 38.606587 28.760079 54.300769 0
M  V30 57 H 41.074763 31.075417 60.570894 0
M  V30 58 H 39.420775 30.617396 61.008169 0
M  V30 59 H 38.988047 26.777672 52.453253 0
M  V30 60 H 38.063956 30.863651 59.554902 0
M  V30 61 H 38.713956 31.685440 57.641099 0
M  V30 62 H 42.300568 35.124898 65.589959 0
M  V30 63 H 40.826478 29.737759 58.727597 0
M  V30 64 H 39.070726 28.807841 50.135440 0
M  V30 65 H 40.451790 28.413244 51.284229 0
M  V30 66 H 41.950262 27.801279 65.171625 0
M  V30 67 H 42.044857 27.646064 63.420129 0
M  V30 68 H 43.491724 28.058996 64.327346 0
M  V30 69 H 40.988173 28.620726 62.010490 0
M  V30 70 H 41.345072 36.735261 64.524611 0
M  V30 71 H 39.992323 32.154058 62.036213 0
M  V30 72 H 39.967305 31.201986 53.299670 0
M  V30 END ATOM
M  V30 BEGIN BOND
M  V30 1 1 5 4
M  V30 2 1 8 5
M  V30 3 3 9 3
M  V30 4 2 10 4
M  V30 5 1 13 5
M  V30 6 2 13 6
M  V30 7 1 16 8
M  V30 8 1 17 15
M  V30 9 1 18 1
M  V30 10 1 18 8
M  V30 11 1 20 7
M  V30 12 1 7 21 CFG=1
M  V30 13 1 23 7
M  V30 14 1 23 20
M  V30 15 1 24 2
M  V30 16 2 25 14
M  V30 17 1 26 4
M  V30 18 1 26 6
M  V30 19 1 27 12
M  V30 20 1 27 14
M  V30 21 1 28 27
M  V30 22 2 29 11
M  V30 23 1 29 15
M  V30 24 1 29 28
M  V30 25 1 30 10
M  V30 26 2 30 24
M  V30 27 1 31 14
M  V30 28 1 31 19
M  V30 29 1 31 22
M  V30 30 1 32 7
M  V30 31 1 32 23
M  V30 32 1 33 13
M  V30 33 1 34 6
M  V30 34 1 34 22
M  V30 35 1 35 9
M  V30 36 1 35 24
M  V30 37 2 36 2
M  V30 38 1 36 26
M  V30 39 1 37 15
M  V30 40 1 37 17
M  V30 41 1 37 21
M  V30 42 1 38 1
M  V30 43 1 39 1
M  V30 44 1 40 1
M  V30 45 1 41 2
M  V30 46 1 8 42 CFG=3
M  V30 47 1 43 10
M  V30 48 1 44 12
M  V30 49 1 45 12
M  V30 50 1 46 12
M  V30 51 1 15 47 CFG=1
M  V30 52 1 48 16
M  V30 53 1 49 16
M  V30 54 1 50 16
M  V30 55 1 51 17
M  V30 56 1 52 17
M  V30 57 1 53 18
M  V30 58 1 54 18
M  V30 59 1 55 19
M  V30 60 1 56 21
M  V30 61 1 57 22
M  V30 62 1 58 22
M  V30 63 1 23 59 CFG=1
M  V30 64 1 27 60 CFG=1
M  V30 65 1 61 28
M  V30 66 1 62 30
M  V30 67 1 31 63 CFG=3
M  V30 68 1 64 32
M  V30 69 1 65 32
M  V30 70 1 66 33
M  V30 71 1 67 33
M  V30 72 1 68 33
M  V30 73 1 69 34
M  V30 74 1 70 35
M  V30 75 1 71 36
M  V30 76 1 37 72 CFG=3
M  V30 END BOND
M  V30 END CTAB
M  END
>  <i_epik_Tot_Q>  (1) 
0

>  <i_epik_Tot_abs_Q>  (1) 
0

>  <i_i_glide_confnum>  (1) 
2798

>  <i_i_glide_lignum>  (1) 
5

>  <i_i_glide_posenum>  (1) 
145

>  <i_i_glide_rotatable_bonds>  (1) 
14

>  <i_lp_mmshare_version>  (1) 
72125

>  <i_m_source_file_index>  (1) 
4

>  <i_f3d_flags>  (1) 
0

>  <num_sample>  (1) 
100

>  <b_lp_Chiralities_Consistent>  (1) 
1

>  <r_epik_Charging_Adjusted_Penalty>  (1) 
1.1379790187908705e-13

>  <r_epik_Ionization_Penalty>  (1) 
1.2816857149940913e-05

>  <r_epik_Ionization_Penalty_Charging>  (1) 
1.1379790187908705e-13

>  <r_epik_Ionization_Penalty_Neutral>  (1) 
1.2816857036143011e-05

>  <r_epik_State_Penalty>  (1) 
-0

>  <r_glide_ring_energy>  (1) 
0

>  <r_i_docking_score>  (1) 
-6.8619988580209617

>  <r_i_glide_ecoul>  (1) 
-5.2152081212469721

>  <r_i_glide_eff_state_penalty>  (1) 
-0

>  <r_i_glide_einternal>  (1) 
23.961762737919898

>  <r_i_glide_emodel>  (1) 
-64.636272853518051

>  <r_i_glide_emodel_strain>  (1) 
3.2863504441013731

>  <r_i_glide_energy>  (1) 
-56.917776654287827

>  <r_i_glide_erotb>  (1) 
0.94635060674965676

>  <r_i_glide_esite>  (1) 
-0.20575593545525789

>  <r_i_glide_evdw>  (1) 
-51.702568533040854

>  <r_i_glide_gscore>  (1) 
-6.8619988580209617

>  <r_i_glide_gscore_strain>  (1) 
0

>  <r_i_glide_hbond>  (1) 
-0.27882397658871522

>  <r_i_glide_ligand_efficiency>  (1) 
-0.18545942859516112

>  <r_i_glide_ligand_efficiency_ln>  (1) 
-1.4882066842273949

>  <r_i_glide_ligand_efficiency_sa>  (1) 
-0.61799196055856831

>  <r_i_glide_lipo>  (1) 
-2.709963098841941

>  <r_i_glide_metal>  (1) 
-0

>  <r_i_glide_rewards>  (1) 
-1.2463968090456168

>  <r_lp_Energy>  (1) 
56.905592999999996

>  <r_lp_tautomer_probability>  (1) 
1

>  <s_epik_Chemistry_Notes>  (1) 
This compound has an imine and may undergo hydrolysis.

>  <s_epik_cmdline>  (1) 
J2VwaWtfcHl0aG9uJywgJy1waHQnLCAnMS4wJywgJy1waCcsICc3LjQnLCAnLXRuJywgJzgnLCAnLW1hJywgJzUwMCcsICctaW1hZScsICc8aW5maWxlLm1hZT4nLCAnLW9tYWUnLCAnPG91dGZpbGUubWFlPic=

>  <s_epik_input>  (1) 
TiNDW05IXUMoPVtDSF1bQ0hdMSlbQ0hdPVtDSF1OKEM9MTIpQyg9QyhbQ0gzXSlOMltDQEBIXShbQ0gzXSlbQ0gyXVtDSDNdKVtOSF1bQ0gyXVtDQEBIXShbT0hdKUMoPU8pW0NASF0oW0NIM10pW05IXUMoPU8pW0NAQEhdM1tDSDJdW0NAQEhdM1tOSF1DNDVbQ0hdKE80KVtDSDJdNQ==

>  <s_glide_docking_method>  (1) 
confgen

>  <s_i_glide_gridfile>  (1) 
gpcr_5ht2c_6bqh_protein_autoprepared_prepared

>  <s_lp_Force_Field>  (1) 
S-OPLS

>  <s_lp_Variant>  (1) 
DiffSBDD_3-1

>  <s_m_source_file>  (1) 
generated_GPCR_5HT2C_ligand_DiffSBDD_2026-06-23_prepared.sdf

>  <GenAI_Model>  (1) 
DiffSBDD

>  <Protein>  (1) 
GPCR_5HT2C

$$$$
DiffSBDD_53
     RDKit          3D

  0  0  0  0  0  0  0  0  0  0999 V3000
M  V30 BEGIN CTAB
M  V30 COUNTS 82 86 0 0 1
M  V30 BEGIN ATOM
M  V30 1 C 37.696196 29.597149 58.556208 0
M  V30 2 C 39.873979 30.721750 62.966588 0
M  V30 3 C 37.290548 36.508919 60.951037 0
M  V30 4 C 36.618890 30.031915 59.561694 0
M  V30 5 C 39.245140 34.549237 62.408634 0
M  V30 6 C 39.877307 30.305548 53.494758 0
M  V30 7 C 38.292137 26.974646 55.867929 0
M  V30 8 N 37.235015 29.754865 57.167893 0 CHG=1
M  V30 9 N 36.251843 39.335680 61.767759 0 CHG=1
M  V30 10 C 42.424751 32.071020 62.390208 0
M  V30 11 C 38.276350 29.661153 56.117258 0 CFG=1
M  V30 12 N 36.508278 31.474491 59.605677 0
M  V30 13 C 38.746792 34.480738 61.165013 0
M  V30 14 C 39.708721 33.273648 63.096508 0
M  V30 15 C 38.972681 28.295643 56.144143 0 CFG=1
M  V30 16 C 38.733368 32.076602 61.162356 0 CFG=1
M  V30 17 C 37.639026 29.932938 54.739948 0 CFG=2
M  V30 18 C 36.296052 38.098346 62.569661 0
M  V30 19 O 40.025057 28.218896 57.084770 0
M  V30 20 C 36.384516 32.008887 60.941978 0
M  V30 21 C 41.051813 30.609762 63.951042 0
M  V30 22 C 42.385874 30.768160 63.213352 0
M  V30 23 C 39.891136 32.065748 62.187171 0
M  V30 24 O 37.502123 31.768920 61.767759 0
M  V30 25 C 41.226663 32.192060 61.445442 0
M  V30 26 C 38.563790 29.504291 53.576746 0 CFG=2
M  V30 27 O 37.328192 31.306291 54.583433 0
M  V30 28 C 38.563807 36.937759 63.025044 0
M  V30 29 N 38.834613 28.042333 53.602184 0 CFG=2 CHG=1
M  V30 30 O 38.671338 33.291483 60.491316 0
M  V30 31 C 37.782731 27.221300 52.957109 0
M  V30 32 C 39.341205 27.503357 54.899070 0 CFG=2
M  V30 33 C 39.354908 35.825596 63.143461 0
M  V30 34 C 38.316616 35.618992 60.350448 0
M  V30 35 C 37.404675 37.140317 62.129608 0
M  V30 36 H 37.935917 28.548189 58.731971 0
M  V30 37 H 38.622121 30.154071 58.689594 0
M  V30 38 H 38.938001 30.586606 63.509183 0
M  V30 39 H 39.920157 29.890573 62.261458 0
M  V30 40 H 36.416616 36.690946 60.343108 0
M  V30 41 H 35.650387 29.567242 59.370593 0
M  V30 42 H 36.948004 29.737754 60.552648 0
M  V30 43 H 39.682519 31.376034 53.425074 0
M  V30 44 H 40.514988 30.145058 54.364268 0
M  V30 45 H 40.445129 30.034323 52.604462 0
M  V30 46 H 38.570842 26.126337 56.490913 0
M  V30 47 H 37.245117 26.991791 55.581217 0
M  V30 48 H 36.777398 30.664917 57.101824 0
M  V30 49 H 35.535866 39.955811 62.120789 0
M  V30 50 H 37.141797 39.807230 61.813803 0
M  V30 51 H 43.303848 32.137756 61.767760 0
M  V30 52 H 42.490939 32.928462 63.057095 0
M  V30 53 H 39.033945 30.425641 56.304437 0
M  V30 54 H 35.781565 31.805117 58.975501 0
M  V30 55 H 40.565053 33.488148 63.731973 0
M  V30 56 H 38.940260 32.937768 63.767760 0
M  V30 57 H 38.946038 31.320090 60.416523 0
M  V30 58 H 36.704609 29.382401 54.656648 0
M  V30 59 H 35.318066 37.630590 62.567762 0
M  V30 60 H 36.445133 38.362525 63.610930 0
M  V30 61 H 40.467430 27.384992 57.007954 0
M  V30 62 H 36.239387 33.088374 60.879559 0
M  V30 63 H 35.496944 31.600438 61.425676 0
M  V30 64 H 41.019129 29.642802 64.454381 0
M  V30 65 H 40.965831 31.362845 64.734675 0
M  V30 66 H 42.500139 29.899445 62.567763 0
M  V30 67 H 43.216882 30.741163 63.918922 0
M  V30 68 H 41.298580 31.437007 60.663681 0
M  V30 69 H 41.272711 33.164911 60.967767 0
M  V30 70 H 38.045167 29.703233 52.641886 0
M  V30 71 H 36.643537 31.586735 55.184853 0
M  V30 72 H 38.774938 37.737099 63.719675 0
M  V30 73 H 36.799028 27.388074 53.394050 0
M  V30 74 H 37.715201 27.459606 51.895075 0
M  V30 75 H 38.016913 26.161157 53.045632 0
M  V30 76 H 40.278697 26.954298 54.820802 0
M  V30 77 H 40.107540 35.863943 63.919082 0
M  V30 78 H 39.240414 36.148579 60.167758 0
M  V30 79 H 37.931076 35.249410 59.399467 0
M  V30 80 H 39.617991 27.936534 52.972191 0
M  V30 81 H 36.519169 29.065799 56.997850 0
M  V30 82 H 36.045176 39.134367 60.794577 0
M  V30 END ATOM
M  V30 BEGIN BOND
M  V30 1 1 4 1
M  V30 2 1 8 1
M  V30 3 1 11 8
M  V30 4 1 12 4
M  V30 5 2 13 5
M  V30 6 1 14 5
M  V30 7 1 15 7
M  V30 8 1 15 11
M  V30 9 1 17 11
M  V30 10 1 18 9
M  V30 11 1 15 19 CFG=1
M  V30 12 1 20 12
M  V30 13 1 21 2
M  V30 14 1 22 10
M  V30 15 1 22 21
M  V30 16 1 23 2
M  V30 17 1 23 14
M  V30 18 1 23 16
M  V30 19 1 24 16
M  V30 20 1 24 20
M  V30 21 1 25 10
M  V30 22 1 25 23
M  V30 23 1 26 6
M  V30 24 1 26 17
M  V30 25 1 27 17
M  V30 26 1 29 26
M  V30 27 1 30 13
M  V30 28 1 30 16
M  V30 29 1 31 29
M  V30 30 1 32 7
M  V30 31 1 32 15
M  V30 32 1 32 29
M  V30 33 1 33 5
M  V30 34 2 33 28
M  V30 35 1 34 3
M  V30 36 1 34 13
M  V30 37 2 35 3
M  V30 38 1 35 18
M  V30 39 1 35 28
M  V30 40 1 36 1
M  V30 41 1 37 1
M  V30 42 1 38 2
M  V30 43 1 39 2
M  V30 44 1 40 3
M  V30 45 1 41 4
M  V30 46 1 42 4
M  V30 47 1 43 6
M  V30 48 1 44 6
M  V30 49 1 45 6
M  V30 50 1 46 7
M  V30 51 1 47 7
M  V30 52 1 48 8
M  V30 53 1 49 9
M  V30 54 1 50 9
M  V30 55 1 51 10
M  V30 56 1 52 10
M  V30 57 1 11 53 CFG=1
M  V30 58 1 54 12
M  V30 59 1 55 14
M  V30 60 1 56 14
M  V30 61 1 16 57 CFG=3
M  V30 62 1 17 58 CFG=1
M  V30 63 1 59 18
M  V30 64 1 60 18
M  V30 65 1 61 19
M  V30 66 1 62 20
M  V30 67 1 63 20
M  V30 68 1 64 21
M  V30 69 1 65 21
M  V30 70 1 66 22
M  V30 71 1 67 22
M  V30 72 1 68 25
M  V30 73 1 69 25
M  V30 74 1 26 70 CFG=3
M  V30 75 1 71 27
M  V30 76 1 72 28
M  V30 77 1 73 31
M  V30 78 1 74 31
M  V30 79 1 75 31
M  V30 80 1 32 76 CFG=3
M  V30 81 1 77 33
M  V30 82 1 78 34
M  V30 83 1 79 34
M  V30 84 1 29 80 CFG=3
M  V30 85 1 81 8
M  V30 86 1 82 9
M  V30 END BOND
M  V30 END CTAB
M  END
>  <i_epik_Tot_Q>  (1) 
3

>  <i_epik_Tot_abs_Q>  (1) 
3

>  <i_i_glide_confnum>  (1) 
339

>  <i_i_glide_lignum>  (1) 
109

>  <i_i_glide_posenum>  (1) 
303

>  <i_i_glide_rotatable_bonds>  (1) 
10

>  <i_lp_mmshare_version>  (1) 
72125

>  <i_m_source_file_index>  (1) 
54

>  <i_f3d_flags>  (1) 
0

>  <num_sample>  (1) 
100

>  <b_lp_Chiralities_Consistent>  (1) 
1

>  <r_epik_Charging_Adjusted_Penalty>  (1) 
0.52217566130243886

>  <r_epik_Ionization_Penalty>  (1) 
0.30399825412207077

>  <r_epik_Ionization_Penalty_Charging>  (1) 
0.29355179195135561

>  <r_epik_Ionization_Penalty_Neutral>  (1) 
0.010446462170715176

>  <r_epik_State_Penalty>  (1) 
0.22862386935108323

>  <r_glide_ring_energy>  (1) 
0.00054235002800224672

>  <r_i_docking_score>  (1) 
-6.8554657558611956

>  <r_i_glide_ecoul>  (1) 
-9.3082318413371201

>  <r_i_glide_eff_state_penalty>  (1) 
0.22862386935108323

>  <r_i_glide_einternal>  (1) 
5.2910805991080139

>  <r_i_glide_emodel>  (1) 
-58.781632862335208

>  <r_i_glide_emodel_strain>  (1) 
0.15992838587270342

>  <r_i_glide_energy>  (1) 
-38.063386986196384

>  <r_i_glide_erotb>  (1) 
0.58947078011706677

>  <r_i_glide_esite>  (1) 
-0.14071354298565902

>  <r_i_glide_evdw>  (1) 
-28.755155144859263

>  <r_i_glide_gscore>  (1) 
-7.0840896252122789

>  <r_i_glide_gscore_strain>  (1) 
0

>  <r_i_glide_hbond>  (1) 
-0.67094814695105287

>  <r_i_glide_ligand_efficiency>  (1) 
-0.19587045016746274

>  <r_i_glide_ligand_efficiency_ln>  (1) 
-1.5049268822764199

>  <r_i_glide_ligand_efficiency_sa>  (1) 
-0.64070523070426044

>  <r_i_glide_lipo>  (1) 
-3.123930009343121

>  <r_i_glide_metal>  (1) 
-0

>  <r_i_glide_rewards>  (1) 
-0.90397617260598162

>  <r_lp_Energy>  (1) 
66.56347199999999

>  <s_epik_Chemistry_Notes>  (1) 
This compound contains an acetal/aminal-like group ( X-CH(R)-Y where X, Y are N, S, or O) that may be acid/base labile, releasing an aldehyde.

>  <s_epik_cmdline>  (1) 
J2VwaWtfcHl0aG9uJywgJy1waHQnLCAnMS4wJywgJy1waCcsICc3LjQnLCAnLXRuJywgJzgnLCAnLW1hJywgJzUwMCcsICctaW1hZScsICc8aW5maWxlLm1hZT4nLCAnLW9tYWUnLCAnPG91dGZpbGUubWFlPic=

>  <s_epik_input>  (1) 
W09IXVtDQEBdMTJbQ0BASF0oW0NIMl0xKU4oW0NIM10pW0NASF0oW0NIM10pW0NASF0oW09IXSlbQ0BIXTJbTkhdW0NIMl1bQ0gyXVtOSF1bQ0gyXU9bQ0BIXTNPQyhbQ0gyXVtDSF09QyhbQ0gyXVtOSDJdKVtDSF09W0NIXTQpPUM0W0NIMl1DMzVbQ0gyXVtDSDJdW0NIMl1bQ0gyXVtDSDJdNQ==

>  <s_glide_docking_method>  (1) 
confgen

>  <s_i_glide_gridfile>  (1) 
gpcr_5ht2c_6bqh_protein_autoprepared_prepared

>  <s_lp_Force_Field>  (1) 
S-OPLS

>  <s_lp_Variant>  (1) 
DiffSBDD_53-1

>  <s_m_source_file>  (1) 
generated_GPCR_5HT2C_ligand_DiffSBDD_2026-06-23_prepared.sdf

>  <GenAI_Model>  (1) 
DiffSBDD

>  <Protein>  (1) 
GPCR_5HT2C

$$$$
DiffSBDD_53
     RDKit          3D

  0  0  0  0  0  0  0  0  0  0999 V3000
M  V30 BEGIN CTAB
M  V30 COUNTS 82 86 0 0 1
M  V30 BEGIN ATOM
M  V30 1 C 38.732133 29.743966 54.953701 0
M  V30 2 C 36.766210 34.442434 61.217543 0
M  V30 3 C 39.746468 30.694001 63.085798 0
M  V30 4 C 37.648753 30.820650 55.135258 0
M  V30 5 C 39.703268 33.100699 61.081904 0
M  V30 6 C 37.185377 24.842673 54.749524 0
M  V30 7 C 38.951435 26.893954 58.433018 0
M  V30 8 N 38.763776 28.815520 56.088267 0
M  V30 9 N 41.126808 29.910690 65.533905 0 CHG=1
M  V30 10 C 37.420334 36.666379 59.365158 0
M  V30 11 C 39.636735 27.653100 55.934037 0 CFG=1
M  V30 12 N 38.045136 31.915821 56.043595 0 CHG=1
M  V30 13 C 39.020564 31.939574 61.039729 0
M  V30 14 C 39.177437 34.298849 60.312573 0
M  V30 15 C 39.948779 27.069384 57.302861 0 CFG=1
M  V30 16 C 37.461710 32.791489 59.397057 0 CFG=1
M  V30 17 C 39.010948 26.593218 55.010059 0 CFG=2
M  V30 18 C 40.890912 31.325291 65.177807 0
M  V30 19 O 41.259210 27.337953 57.754194 0
M  V30 20 C 38.131655 31.507279 57.569677 0
M  V30 21 C 36.845207 35.908473 61.718418 0
M  V30 22 C 36.602354 36.953942 60.595951 0
M  V30 23 C 37.669539 34.203703 59.980592 0
M  V30 24 O 38.234903 32.715417 58.233504 0
M  V30 25 C 37.203422 35.214366 58.915619 0
M  V30 26 C 37.933978 25.758204 55.735114 0 CFG=2
M  V30 27 O 40.041638 25.737845 54.566160 0
M  V30 28 C 41.358940 32.565610 62.962597 0
M  V30 29 N 38.538638 24.965377 56.845845 0 CFG=2 CHG=1
M  V30 30 O 37.851144 31.820178 60.321888 0
M  V30 31 C 37.552002 24.186729 57.633116 0
M  V30 32 C 39.508665 25.678397 57.725848 0 CFG=2
M  V30 33 C 40.959264 33.252590 61.844369 0
M  V30 34 C 39.449037 30.664333 61.642867 0
M  V30 35 C 40.629315 31.505043 63.687641 0
M  V30 36 H 39.710247 30.204348 54.802566 0
M  V30 37 H 38.508796 29.204717 54.034218 0
M  V30 38 H 35.730091 34.217058 60.961147 0
M  V30 39 H 37.023962 33.752148 62.019229 0
M  V30 40 H 39.245168 29.948356 63.674030 0
M  V30 41 H 37.446682 31.279134 54.167649 0
M  V30 42 H 36.705144 30.380220 55.459299 0
M  V30 43 H 36.995840 25.337170 53.795791 0
M  V30 44 H 37.757469 23.934567 54.564060 0
M  V30 45 H 36.214592 24.537220 55.140764 0
M  V30 46 H 39.308109 27.106628 59.437594 0
M  V30 47 H 37.921842 27.187816 58.241640 0
M  V30 48 H 39.049897 29.306924 56.928774 0
M  V30 49 H 41.292979 29.830991 66.526993 0
M  V30 50 H 40.312103 29.361617 65.291932 0
M  V30 51 H 38.445137 36.891307 59.597457 0
M  V30 52 H 37.127005 37.340697 58.567764 0
M  V30 53 H 40.576841 27.983782 55.493226 0
M  V30 54 H 38.907684 32.338455 55.736218 0
M  V30 55 H 39.416791 35.207897 60.862502 0
M  V30 56 H 39.760816 34.345077 59.394158 0
M  V30 57 H 36.410384 32.626328 59.145680 0
M  V30 58 H 38.586898 27.062879 54.122731 0
M  V30 59 H 41.759031 31.911760 65.480545 0
M  V30 60 H 40.040426 31.705688 65.742345 0
M  V30 61 H 41.865238 26.754550 57.314231 0
M  V30 62 H 37.245022 30.935888 57.844030 0
M  V30 63 H 39.024474 30.919181 57.775786 0
M  V30 64 H 37.825215 36.089353 62.159347 0
M  V30 65 H 36.138006 36.057005 62.537165 0
M  V30 66 H 36.784028 37.965798 60.961053 0
M  V30 67 H 35.611932 36.946595 60.167886 0
M  V30 68 H 37.645004 35.022057 57.940628 0
M  V30 69 H 36.136895 35.068979 58.735329 0
M  V30 70 H 37.202280 26.450702 56.152376 0
M  V30 71 H 39.785307 25.353769 53.740296 0
M  V30 72 H 42.290270 32.889720 63.404793 0
M  V30 73 H 36.866232 24.848366 58.162484 0
M  V30 74 H 36.959329 23.520482 57.007595 0
M  V30 75 H 38.045011 23.550193 58.363755 0
M  V30 76 H 40.223502 25.025517 58.218243 0
M  V30 77 H 41.616940 34.046210 61.519662 0
M  V30 78 H 38.670458 29.918669 61.478950 0
M  V30 79 H 40.327655 30.300756 61.109160 0
M  V30 80 H 39.115599 24.291306 56.361793 0
M  V30 81 H 41.927608 29.557960 65.029645 0
M  V30 82 H 37.301760 32.600846 55.961621 0
M  V30 END ATOM
M  V30 BEGIN BOND
M  V30 1 1 4 1
M  V30 2 1 8 1
M  V30 3 1 11 8
M  V30 4 1 12 4
M  V30 5 2 13 5
M  V30 6 1 14 5
M  V30 7 1 15 7
M  V30 8 1 15 11
M  V30 9 1 17 11
M  V30 10 1 18 9
M  V30 11 1 15 19 CFG=1
M  V30 12 1 20 12
M  V30 13 1 21 2
M  V30 14 1 22 10
M  V30 15 1 22 21
M  V30 16 1 23 2
M  V30 17 1 23 14
M  V30 18 1 23 16
M  V30 19 1 24 16
M  V30 20 1 24 20
M  V30 21 1 25 10
M  V30 22 1 25 23
M  V30 23 1 26 6
M  V30 24 1 26 17
M  V30 25 1 27 17
M  V30 26 1 29 26
M  V30 27 1 30 13
M  V30 28 1 30 16
M  V30 29 1 31 29
M  V30 30 1 32 7
M  V30 31 1 32 15
M  V30 32 1 32 29
M  V30 33 1 33 5
M  V30 34 2 33 28
M  V30 35 1 34 3
M  V30 36 1 34 13
M  V30 37 2 35 3
M  V30 38 1 35 18
M  V30 39 1 35 28
M  V30 40 1 36 1
M  V30 41 1 37 1
M  V30 42 1 38 2
M  V30 43 1 39 2
M  V30 44 1 40 3
M  V30 45 1 41 4
M  V30 46 1 42 4
M  V30 47 1 43 6
M  V30 48 1 44 6
M  V30 49 1 45 6
M  V30 50 1 46 7
M  V30 51 1 47 7
M  V30 52 1 48 8
M  V30 53 1 49 9
M  V30 54 1 50 9
M  V30 55 1 51 10
M  V30 56 1 52 10
M  V30 57 1 11 53 CFG=3
M  V30 58 1 54 12
M  V30 59 1 55 14
M  V30 60 1 56 14
M  V30 61 1 16 57 CFG=3
M  V30 62 1 17 58 CFG=3
M  V30 63 1 59 18
M  V30 64 1 60 18
M  V30 65 1 61 19
M  V30 66 1 62 20
M  V30 67 1 63 20
M  V30 68 1 64 21
M  V30 69 1 65 21
M  V30 70 1 66 22
M  V30 71 1 67 22
M  V30 72 1 68 25
M  V30 73 1 69 25
M  V30 74 1 26 70 CFG=1
M  V30 75 1 71 27
M  V30 76 1 72 28
M  V30 77 1 73 31
M  V30 78 1 74 31
M  V30 79 1 75 31
M  V30 80 1 32 76 CFG=1
M  V30 81 1 77 33
M  V30 82 1 78 34
M  V30 83 1 79 34
M  V30 84 1 29 80 CFG=3
M  V30 85 1 81 9
M  V30 86 1 82 12
M  V30 END BOND
M  V30 END CTAB
M  END
>  <i_epik_Tot_Q>  (1) 
3

>  <i_epik_Tot_abs_Q>  (1) 
3

>  <i_i_glide_confnum>  (1) 
520

>  <i_i_glide_lignum>  (1) 
113

>  <i_i_glide_posenum>  (1) 
313

>  <i_i_glide_rotatable_bonds>  (1) 
10

>  <i_lp_mmshare_version>  (1) 
72125

>  <i_m_source_file_index>  (1) 
54

>  <i_f3d_flags>  (1) 
0

>  <num_sample>  (1) 
100

>  <b_lp_Chiralities_Consistent>  (1) 
1

>  <r_epik_Charging_Adjusted_Penalty>  (1) 
1.5449594399157651

>  <r_epik_Ionization_Penalty>  (1) 
0.47240059175592303

>  <r_epik_Ionization_Penalty_Charging>  (1) 
0.40568266018177357

>  <r_epik_Ionization_Penalty_Neutral>  (1) 
0.066717931574149458

>  <r_epik_State_Penalty>  (1) 
1.1392767797339916

>  <r_glide_ring_energy>  (1) 
0.00062895299044794274

>  <r_i_docking_score>  (1) 
-6.8469832115508575

>  <r_i_glide_ecoul>  (1) 
-6.9386084264706351

>  <r_i_glide_eff_state_penalty>  (1) 
1.1392767797339916

>  <r_i_glide_einternal>  (1) 
11.510433333234712

>  <r_i_glide_emodel>  (1) 
-59.437174533567827

>  <r_i_glide_emodel_strain>  (1) 
1.4009309477848433

>  <r_i_glide_energy>  (1) 
-46.442275839574869

>  <r_i_glide_erotb>  (1) 
0.58947078011706677

>  <r_i_glide_esite>  (1) 
-0.25177759271910921

>  <r_i_glide_evdw>  (1) 
-39.503667413104232

>  <r_i_glide_gscore>  (1) 
-7.9862599912848493

>  <r_i_glide_gscore_strain>  (1) 
0

>  <r_i_glide_hbond>  (1) 
-0.2445222335508232

>  <r_i_glide_ligand_efficiency>  (1) 
-0.19562809175859594

>  <r_i_glide_ligand_efficiency_ln>  (1) 
-1.503064775540373

>  <r_i_glide_ligand_efficiency_sa>  (1) 
-0.6399124602780254

>  <r_i_glide_lipo>  (1) 
-4.3877157433115954

>  <r_i_glide_metal>  (1) 
-0

>  <r_i_glide_rewards>  (1) 
-0.67574056719458109

>  <r_lp_Energy>  (1) 
57.515115999999999

>  <s_epik_Chemistry_Notes>  (1) 
This compound contains an acetal/aminal-like group ( X-CH(R)-Y where X, Y are N, S, or O) that may be acid/base labile, releasing an aldehyde.

>  <s_epik_cmdline>  (1) 
J2VwaWtfcHl0aG9uJywgJy1waHQnLCAnMS4wJywgJy1waCcsICc3LjQnLCAnLXRuJywgJzgnLCAnLW1hJywgJzUwMCcsICctaW1hZScsICc8aW5maWxlLm1hZT4nLCAnLW9tYWUnLCAnPG91dGZpbGUubWFlPic=

>  <s_epik_input>  (1) 
W09IXVtDQEBdMTJbQ0BASF0oW0NIMl0xKU4oW0NIM10pW0NASF0oW0NIM10pW0NASF0oW09IXSlbQ0BIXTJbTkhdW0NIMl1bQ0gyXVtOSF1bQ0gyXU9bQ0BIXTNPQyhbQ0gyXVtDSF09QyhbQ0gyXVtOSDJdKVtDSF09W0NIXTQpPUM0W0NIMl1DMzVbQ0gyXVtDSDJdW0NIMl1bQ0gyXVtDSDJdNQ==

>  <s_glide_docking_method>  (1) 
confgen

>  <s_i_glide_gridfile>  (1) 
gpcr_5ht2c_6bqh_protein_autoprepared_prepared

>  <s_lp_Force_Field>  (1) 
S-OPLS

>  <s_lp_Variant>  (1) 
DiffSBDD_53-5

>  <s_m_source_file>  (1) 
generated_GPCR_5HT2C_ligand_DiffSBDD_2026-06-23_prepared.sdf

>  <GenAI_Model>  (1) 
DiffSBDD

>  <Protein>  (1) 
GPCR_5HT2C

$$$$
DiffSBDD_18
     RDKit          3D

  0  0  0  0  0  0  0  0  0  0999 V3000
M  V30 BEGIN CTAB
M  V30 COUNTS 77 79 0 0 1
M  V30 BEGIN ATOM
M  V30 1 C 37.038982 37.171716 60.339838 0
M  V30 2 C 39.999523 27.433708 56.811833 0 CFG=2
M  V30 3 C 41.245262 33.919058 62.630527 0
M  V30 4 C 40.227742 32.964652 62.838614 0
M  V30 5 C 39.784274 35.107675 61.074466 0
M  V30 6 O 37.245177 26.876677 54.168204 0
M  V30 7 C 35.541628 32.152310 59.788407 0
M  V30 8 C 36.845134 25.658608 57.275642 0
M  V30 9 C 38.635456 30.562761 57.022908 0
M  V30 10 C 41.201617 31.857124 64.860447 0
M  V30 11 C 38.491568 26.828961 54.158630 0
M  V30 12 C 41.017093 34.991999 61.749224 0
M  V30 13 C 37.974660 32.099619 59.105100 0
M  V30 14 C 37.799935 26.516068 57.531479 0
M  V30 15 C 36.904826 24.679041 56.122256 0
M  V30 16 C 35.782545 31.223355 60.986226 0
M  V30 17 C 36.907651 35.925081 59.447334 0
M  V30 18 C 38.939600 29.860095 58.322676 0 CFG=2
M  V30 19 C 40.219780 26.135091 55.983196 0
M  V30 20 C 41.275756 27.681517 57.648499 0
M  V30 21 C 38.263557 24.486883 55.415702 0
M  V30 22 C 41.863785 33.123636 65.335905 0
M  V30 23 C 38.719306 27.438101 57.666652 0
M  V30 24 C 35.888520 34.481021 61.804529 0
M  V30 25 C 39.169087 25.671870 54.930925 0 CFG=1
M  V30 26 N 41.353099 30.741442 65.595236 0 CHG=1
M  V30 27 C 39.003504 33.068795 62.157336 0
M  V30 28 P 37.108516 34.313215 60.403703 0 CFG=2 CHG=1
M  V30 29 N 38.600979 28.473105 58.573228 0
M  V30 30 O 39.245131 27.636486 53.575534 0 CHG=-1
M  V30 31 C 37.801413 30.854549 58.250744 0 CFG=2
M  V30 32 C 38.763638 34.149838 61.272835 0
M  V30 33 N 36.753049 32.913953 59.367705 0 CFG=2 CHG=1
M  V30 34 N 40.421330 31.807578 63.731938 0
M  V30 35 H 37.245458 38.056580 59.737726 0
M  V30 36 H 36.116576 37.367692 60.885616 0
M  V30 37 H 37.839496 37.088223 61.072187 0
M  V30 38 H 39.915446 28.259916 56.106365 0
M  V30 39 H 42.197960 33.829065 63.110614 0
M  V30 40 H 39.622316 35.934992 60.401557 0
M  V30 41 H 34.724964 32.843262 59.989983 0
M  V30 42 H 35.157065 31.551388 58.967760 0
M  V30 43 H 35.935463 25.658764 57.851568 0
M  V30 44 H 39.330821 31.329557 56.688194 0
M  V30 45 H 38.164084 29.988005 56.226995 0
M  V30 46 H 41.791332 35.727378 61.582471 0
M  V30 47 H 38.375258 31.746447 60.051204 0
M  V30 48 H 38.743260 32.731676 58.655891 0
M  V30 49 H 36.585339 23.709992 56.505315 0
M  V30 50 H 36.145166 24.956011 55.394193 0
M  V30 51 H 34.845008 30.828271 61.367792 0
M  V30 52 H 36.414980 30.379697 60.712198 0
M  V30 53 H 36.255732 31.733734 61.814216 0
M  V30 54 H 37.643644 35.982946 58.656604 0
M  V30 55 H 35.935411 35.947165 58.955114 0
M  V30 56 H 39.832391 30.137695 58.873238 0
M  V30 57 H 41.160749 26.237627 55.450693 0
M  V30 58 H 40.411654 25.319008 56.680043 0
M  V30 59 H 41.293582 28.660560 58.119777 0
M  V30 60 H 41.384807 26.936644 58.435972 0
M  V30 61 H 42.167937 27.630139 57.023891 0
M  V30 62 H 38.067411 23.834366 54.567776 0
M  V30 63 H 38.849551 23.881819 56.102281 0
M  V30 64 H 42.871976 33.223624 64.942645 0
M  V30 65 H 41.261300 34.014739 65.158576 0
M  V30 66 H 41.976270 33.075811 66.419885 0
M  V30 67 H 36.045132 35.432745 62.312054 0
M  V30 68 H 34.851801 34.398506 61.496346 0
M  V30 69 H 36.044994 33.737740 62.567752 0
M  V30 70 H 39.796794 25.217044 54.167874 0
M  V30 71 H 41.914357 30.762419 66.436864 0
M  V30 72 H 38.238309 32.328586 62.322608 0
M  V30 73 H 37.757393 28.393835 59.120791 0
M  V30 74 H 36.814127 30.402267 58.249273 0
M  V30 75 H 39.830115 30.993998 63.634026 0
M  V30 76 H 40.909211 29.877497 65.311862 0
M  V30 77 H 36.491665 33.278363 58.459068 0
M  V30 END ATOM
M  V30 BEGIN BOND
M  V30 1 1 4 3
M  V30 2 2 11 6
M  V30 3 2 12 3
M  V30 4 1 12 5
M  V30 5 2 14 8
M  V30 6 1 15 8
M  V30 7 1 16 7
M  V30 8 1 17 1
M  V30 9 1 18 9
M  V30 10 1 19 2
M  V30 11 1 20 2
M  V30 12 1 21 15
M  V30 13 1 22 10
M  V30 14 1 23 2
M  V30 15 2 23 14
M  V30 16 1 25 11
M  V30 17 1 25 19
M  V30 18 1 25 21
M  V30 19 2 26 10
M  V30 20 2 27 4
M  V30 21 1 28 17 CFG=3
M  V30 22 1 28 24
M  V30 23 1 29 18
M  V30 24 1 29 23
M  V30 25 1 30 11
M  V30 26 1 31 9
M  V30 27 1 31 13
M  V30 28 1 31 18
M  V30 29 2 32 5
M  V30 30 1 32 27
M  V30 31 1 32 28
M  V30 32 1 33 7
M  V30 33 1 33 13
M  V30 34 1 33 28
M  V30 35 1 34 4
M  V30 36 1 34 10
M  V30 37 1 35 1
M  V30 38 1 36 1
M  V30 39 1 37 1
M  V30 40 1 2 38 CFG=3
M  V30 41 1 39 3
M  V30 42 1 40 5
M  V30 43 1 41 7
M  V30 44 1 42 7
M  V30 45 1 43 8
M  V30 46 1 44 9
M  V30 47 1 45 9
M  V30 48 1 46 12
M  V30 49 1 47 13
M  V30 50 1 48 13
M  V30 51 1 49 15
M  V30 52 1 50 15
M  V30 53 1 51 16
M  V30 54 1 52 16
M  V30 55 1 53 16
M  V30 56 1 54 17
M  V30 57 1 55 17
M  V30 58 1 18 56 CFG=1
M  V30 59 1 57 19
M  V30 60 1 58 19
M  V30 61 1 59 20
M  V30 62 1 60 20
M  V30 63 1 61 20
M  V30 64 1 62 21
M  V30 65 1 63 21
M  V30 66 1 64 22
M  V30 67 1 65 22
M  V30 68 1 66 22
M  V30 69 1 67 24
M  V30 70 1 68 24
M  V30 71 1 69 24
M  V30 72 1 25 70 CFG=3
M  V30 73 1 71 26
M  V30 74 1 72 27
M  V30 75 1 73 29
M  V30 76 1 31 74 CFG=3
M  V30 77 1 75 34
M  V30 78 1 76 26
M  V30 79 1 33 77 CFG=3
M  V30 END BOND
M  V30 END CTAB
M  END
>  <i_epik_Tot_Q>  (1) 
2

>  <i_epik_Tot_abs_Q>  (1) 
4

>  <i_i_glide_confnum>  (1) 
462

>  <i_i_glide_lignum>  (1) 
43

>  <i_i_glide_posenum>  (1) 
130

>  <i_i_glide_rotatable_bonds>  (1) 
11

>  <i_lp_mmshare_version>  (1) 
72125

>  <i_m_source_file_index>  (1) 
19

>  <i_f3d_flags>  (1) 
0

>  <num_sample>  (1) 
100

>  <b_lp_Chiralities_Consistent>  (1) 
1

>  <r_epik_Charging_Adjusted_Penalty>  (1) 
0.035732071636325656

>  <r_epik_Ionization_Penalty>  (1) 
0.019213783482484162

>  <r_epik_Ionization_Penalty_Charging>  (1) 
0.019186760244236628

>  <r_epik_Ionization_Penalty_Neutral>  (1) 
2.7023238247534635e-05

>  <r_epik_State_Penalty>  (1) 
0.016545311392089028

>  <r_glide_ring_energy>  (1) 
0

>  <r_i_docking_score>  (1) 
-6.842966740870005

>  <r_i_glide_ecoul>  (1) 
-2.8034447427585381

>  <r_i_glide_eff_state_penalty>  (1) 
0.016545311392089028

>  <r_i_glide_einternal>  (1) 
14.575732447892236

>  <r_i_glide_emodel>  (1) 
-54.497521190685639

>  <r_i_glide_emodel_strain>  (1) 
1.1129260182255649

>  <r_i_glide_energy>  (1) 
-39.497539701816706

>  <r_i_glide_erotb>  (1) 
0.68654883804919686

>  <r_i_glide_esite>  (1) 
-0.079267587486697835

>  <r_i_glide_evdw>  (1) 
-36.69409495905817

>  <r_i_glide_gscore>  (1) 
-6.8595120522620938

>  <r_i_glide_gscore_strain>  (1) 
0

>  <r_i_glide_hbond>  (1) 
-0.0097603851142608021

>  <r_i_glide_ligand_efficiency>  (1) 
-0.20126372767264722

>  <r_i_glide_ligand_efficiency_ln>  (1) 
-1.511803291773868

>  <r_i_glide_ligand_efficiency_sa>  (1) 
-0.65201634733740554

>  <r_i_glide_lipo>  (1) 
-4.1368581518115644

>  <r_i_glide_metal>  (1) 
-0

>  <r_i_glide_rewards>  (1) 
-1.0649533065320782

>  <r_lp_Energy>  (1) 
34.203074999999998

>  <s_epik_Chemistry_Notes>  (1) 
This compound has an imine and may undergo hydrolysis.

>  <s_epik_cmdline>  (1) 
J2VwaWtfcHl0aG9uJywgJy1waHQnLCAnMS4wJywgJy1waCcsICc3LjQnLCAnLXRuJywgJzgnLCAnLW1hJywgJzUwMCcsICctaW1hZScsICc8aW5maWxlLm1hZT4nLCAnLW9tYWUnLCAnPG91dGZpbGUubWFlPic=

>  <s_epik_input>  (1) 
W0hdL049QyhcW0NIM10pW05IXWMxW2NIXVtjSF1bY0hdYyhbY0hdMSlbUEBAK10oW0NIM10pKFtDSDJdW0NIM10pTihbQ0gyXVtDSDNdKVtDSDJdW0NASF0yW0NIMl1bQ0BASF0yW05IXUMzPUM9W0NIXVtDSDJdW0NIMl1bQ0BASF0oQyg9TylbT0hdKVtDSDJdW0NAQEhdM1tDSDNd

>  <s_glide_docking_method>  (1) 
confgen

>  <s_i_glide_gridfile>  (1) 
gpcr_5ht2c_6bqh_protein_autoprepared_prepared

>  <s_lp_Force_Field>  (1) 
S-OPLS

>  <s_lp_Variant>  (1) 
DiffSBDD_18-2

>  <s_m_source_file>  (1) 
generated_GPCR_5HT2C_ligand_DiffSBDD_2026-06-23_prepared.sdf

>  <GenAI_Model>  (1) 
DiffSBDD

>  <Protein>  (1) 
GPCR_5HT2C

$$$$
DiffSBDD_78
     RDKit          3D

  0  0  0  0  0  0  0  0  0  0999 V3000
M  V30 BEGIN CTAB
M  V30 COUNTS 105 110 0 0 1
M  V30 BEGIN ATOM
M  V30 1 O 44.503284 28.880202 66.340540 0
M  V30 2 C 38.814135 26.542469 53.738524 0
M  V30 3 C 39.304124 31.735192 57.017491 0 CFG=1
M  V30 4 C 42.303238 33.048208 67.840750 0
M  V30 5 O 42.139636 35.737583 64.339882 0
M  V30 6 C 37.700728 28.465019 54.954635 0 CFG=2
M  V30 7 C 44.309831 29.667726 65.171627 0
M  V30 8 O 43.120820 31.390897 66.366178 0
M  V30 9 C 37.611688 27.442684 53.852576 0 CFG=1
M  V30 10 O 40.555506 30.982712 60.967558 0
M  V30 11 C 36.813517 32.755753 61.697235 0
M  V30 12 N 38.452908 30.767477 56.377305 0
M  V30 13 N 37.917627 28.853434 53.567264 0 CFG=2 CHG=1
M  V30 14 C 38.974900 33.495722 62.372221 0
M  V30 15 C 39.769939 26.774103 52.566980 0
M  V30 16 C 38.844910 33.021987 57.574844 0 CFG=1
M  V30 17 N 39.017252 29.536561 56.800520 0
M  V30 18 C 45.194884 27.665309 66.104372 0
M  V30 19 C 38.888391 28.398979 55.923826 0 CFG=1
M  V30 20 C 38.130647 34.504992 61.668058 0
M  V30 21 C 40.201085 27.072106 57.725535 0
M  V30 22 C 42.220131 32.504828 66.403969 0 CFG=2
M  V30 23 C 38.509317 29.440210 59.159481 0
M  V30 24 C 35.898511 34.794637 60.531487 0
M  V30 25 C 41.860908 34.925175 65.465989 0
M  V30 26 C 42.990747 30.453379 65.293797 0 CFG=2
M  V30 27 C 38.160016 30.925093 59.294885 0
M  V30 28 C 45.670317 27.098118 67.443245 0
M  V30 29 O 39.039963 25.663140 54.567697 0
M  V30 30 C 38.820392 27.568608 57.245509 0
M  V30 31 C 36.970982 34.078296 61.305873 0
M  V30 32 C 37.889957 26.353031 57.320458 0
M  V30 33 C 41.131645 29.103429 64.127868 0
M  V30 34 C 39.246815 29.231426 53.023608 0
M  V30 35 C 35.890276 34.333928 59.077948 0
M  V30 36 C 37.233281 34.660149 58.427010 0
M  V30 37 O 37.972134 32.375207 62.367065 0
M  V30 38 N 39.309254 29.079224 61.498002 0
M  V30 39 S 40.200031 30.537696 63.545749 0
M  V30 40 C 38.977623 28.647508 60.182343 0
M  V30 41 C 42.591872 33.570577 65.339577 0
M  V30 42 C 40.045091 30.227302 61.779548 0
M  V30 43 C 39.671080 28.195607 51.975361 0
M  V30 44 C 37.589791 33.737528 57.265326 0
M  V30 45 O 35.835762 32.039048 61.481769 0
M  V30 46 C 38.202861 28.874664 57.795591 0 CFG=2
M  V30 47 C 39.056839 31.902918 58.551179 0 CFG=1
M  V30 48 C 41.787878 29.486799 65.465541 0
M  V30 49 H 40.285616 31.851007 56.566780 0
M  V30 50 H 41.583169 33.846888 68.014841 0
M  V30 51 H 43.296729 33.437767 68.068133 0
M  V30 52 H 42.087601 32.258798 68.562367 0
M  V30 53 H 42.044980 36.660404 64.571549 0
M  V30 54 H 36.845465 29.055874 55.256903 0
M  V30 55 H 44.258547 29.036048 64.280915 0
M  V30 56 H 45.161052 30.339456 65.040170 0
M  V30 57 H 36.650376 27.141502 53.446518 0
M  V30 58 H 38.505310 30.876120 55.367805 0
M  V30 59 H 39.853458 33.219461 61.788301 0
M  V30 60 H 39.629876 26.046565 51.770426 0
M  V30 61 H 40.764978 26.592296 52.968410 0
M  V30 62 H 39.629299 33.737708 57.763857 0
M  V30 63 H 44.534078 26.952896 65.607485 0
M  V30 64 H 46.045147 27.825843 65.445154 0
M  V30 65 H 39.856407 28.227382 55.457110 0
M  V30 66 H 38.503562 35.498102 61.465677 0
M  V30 67 H 40.133440 26.387032 58.567902 0
M  V30 68 H 40.859795 27.891515 58.015802 0
M  V30 69 H 40.712115 26.519216 56.935011 0
M  V30 70 H 41.197792 32.166470 66.235177 0
M  V30 71 H 36.049236 35.873452 60.569639 0
M  V30 72 H 34.945038 34.536591 60.983988 0
M  V30 73 H 42.182803 35.455928 66.361959 0
M  V30 74 H 40.783634 34.779642 65.543282 0
M  V30 75 H 42.883390 31.016920 64.367962 0
M  V30 76 H 38.143928 31.169992 60.329694 0
M  V30 77 H 37.135741 31.062660 58.940953 0
M  V30 78 H 46.207670 26.159317 67.309476 0
M  V30 79 H 44.826634 26.910225 68.106769 0
M  V30 80 H 46.342419 27.795658 67.943508 0
M  V30 81 H 39.265601 33.811335 63.367704 0
M  V30 82 H 37.640347 26.128335 58.356826 0
M  V30 83 H 38.348213 25.448692 56.923678 0
M  V30 84 H 36.952460 26.513734 56.789910 0
M  V30 85 H 40.452669 28.260436 64.261178 0
M  V30 86 H 41.884186 28.807087 63.394587 0
M  V30 87 H 39.156730 30.205908 52.546442 0
M  V30 88 H 40.008065 29.381049 53.784481 0
M  V30 89 H 35.696808 33.260691 59.038847 0
M  V30 90 H 35.074952 34.809527 58.530950 0
M  V30 91 H 37.245195 35.715471 58.167893 0
M  V30 92 H 38.044179 34.576991 59.138770 0
M  V30 93 H 39.087947 28.475959 62.279652 0
M  V30 94 H 39.112980 27.589337 60.057012 0
M  V30 95 H 43.663200 33.749819 65.373924 0
M  V30 96 H 42.383104 33.166995 64.349172 0
M  V30 97 H 40.625801 28.483326 51.532503 0
M  V30 98 H 38.949525 28.195485 51.154288 0
M  V30 99 H 37.710166 34.275671 56.324802 0
M  V30 100 H 36.866544 32.973833 57.115214 0
M  V30 101 H 37.134495 28.959676 57.578829 0
M  V30 102 H 39.644855 32.427031 59.293611 0
M  V30 103 H 42.091832 28.587371 65.998300 0
M  V30 104 H 41.026606 29.936554 66.100777 0
M  V30 105 H 37.125015 29.328002 53.161116 0
M  V30 END ATOM
M  V30 BEGIN BOND
M  V30 1 1 7 1
M  V30 2 1 9 2
M  V30 3 1 9 6
M  V30 4 1 12 3
M  V30 5 1 13 6
M  V30 6 1 13 9
M  V30 7 1 15 2
M  V30 8 1 16 3
M  V30 9 1 17 12
M  V30 10 1 18 1
M  V30 11 1 19 6
M  V30 12 1 19 17
M  V30 13 1 20 14
M  V30 14 1 22 4
M  V30 15 1 22 8
M  V30 16 1 25 5
M  V30 17 1 26 7
M  V30 18 1 26 8
M  V30 19 1 27 23
M  V30 20 1 28 18
M  V30 21 2 29 2
M  V30 22 1 30 19
M  V30 23 1 30 21
M  V30 24 1 31 11
M  V30 25 2 31 20
M  V30 26 1 31 24
M  V30 27 1 32 30
M  V30 28 1 34 13
M  V30 29 1 35 24
M  V30 30 1 36 35
M  V30 31 1 37 11
M  V30 32 1 37 14
M  V30 33 1 39 33
M  V30 34 2 40 23
M  V30 35 1 40 38
M  V30 36 1 41 22
M  V30 37 1 41 25
M  V30 38 2 42 10
M  V30 39 1 42 38
M  V30 40 1 42 39
M  V30 41 1 43 15
M  V30 42 1 43 34
M  V30 43 1 44 16
M  V30 44 1 44 36
M  V30 45 2 45 11
M  V30 46 1 46 17
M  V30 47 1 46 23
M  V30 48 1 46 30
M  V30 49 1 47 3
M  V30 50 1 47 16
M  V30 51 1 47 27
M  V30 52 1 48 26
M  V30 53 1 48 33
M  V30 54 1 3 49 CFG=1
M  V30 55 1 50 4
M  V30 56 1 51 4
M  V30 57 1 52 4
M  V30 58 1 53 5
M  V30 59 1 6 54 CFG=1
M  V30 60 1 55 7
M  V30 61 1 56 7
M  V30 62 1 9 57 CFG=3
M  V30 63 1 58 12
M  V30 64 1 59 14
M  V30 65 1 60 15
M  V30 66 1 61 15
M  V30 67 1 16 62 CFG=1
M  V30 68 1 63 18
M  V30 69 1 64 18
M  V30 70 1 19 65 CFG=3
M  V30 71 1 66 20
M  V30 72 1 67 21
M  V30 73 1 68 21
M  V30 74 1 69 21
M  V30 75 1 22 70 CFG=3
M  V30 76 1 71 24
M  V30 77 1 72 24
M  V30 78 1 73 25
M  V30 79 1 74 25
M  V30 80 1 26 75 CFG=3
M  V30 81 1 76 27
M  V30 82 1 77 27
M  V30 83 1 78 28
M  V30 84 1 79 28
M  V30 85 1 80 28
M  V30 86 1 81 14
M  V30 87 1 82 32
M  V30 88 1 83 32
M  V30 89 1 84 32
M  V30 90 1 85 33
M  V30 91 1 86 33
M  V30 92 1 87 34
M  V30 93 1 88 34
M  V30 94 1 89 35
M  V30 95 1 90 35
M  V30 96 1 91 36
M  V30 97 1 92 36
M  V30 98 1 93 38
M  V30 99 1 94 40
M  V30 100 1 95 41
M  V30 101 1 96 41
M  V30 102 1 97 43
M  V30 103 1 98 43
M  V30 104 1 99 44
M  V30 105 1 100 44
M  V30 106 1 46 101 CFG=3
M  V30 107 1 47 102 CFG=1
M  V30 108 1 103 48
M  V30 109 1 104 48
M  V30 110 1 13 105 CFG=3
M  V30 END BOND
M  V30 END CTAB
M  END
>  <i_epik_Tot_Q>  (1) 
1

>  <i_epik_Tot_abs_Q>  (1) 
1

>  <i_i_glide_confnum>  (1) 
4072

>  <i_i_glide_lignum>  (1) 
179

>  <i_i_glide_posenum>  (1) 
341

>  <i_i_glide_rotatable_bonds>  (1) 
20

>  <i_lp_mmshare_version>  (1) 
72125

>  <i_m_source_file_index>  (1) 
79

>  <i_f3d_flags>  (1) 
0

>  <num_sample>  (1) 
100

>  <b_lp_Chiralities_Consistent>  (1) 
1

>  <r_epik_Charging_Adjusted_Penalty>  (1) 
0.27991857207723647

>  <r_epik_Ionization_Penalty>  (1) 
0.14008487576319317

>  <r_epik_Ionization_Penalty_Charging>  (1) 
0.13995928603861824

>  <r_epik_Ionization_Penalty_Neutral>  (1) 
0.0001255897245749389

>  <r_epik_State_Penalty>  (1) 
0.13995928603861821

>  <r_glide_ring_energy>  (1) 
0

>  <r_i_docking_score>  (1) 
-6.8404333618700299

>  <r_i_glide_ecoul>  (1) 
-9.2107823753747109

>  <r_i_glide_eff_state_penalty>  (1) 
0.13995928603861821

>  <r_i_glide_einternal>  (1) 
14.270765490229143

>  <r_i_glide_emodel>  (1) 
-43.107412102123547

>  <r_i_glide_emodel_strain>  (1) 
9.7920403419134061

>  <r_i_glide_energy>  (1) 
-40.517473445801393

>  <r_i_glide_erotb>  (1) 
0.59343049219720367

>  <r_i_glide_esite>  (1) 
-0.060463298680539485

>  <r_i_glide_evdw>  (1) 
-31.30669107042668

>  <r_i_glide_gscore>  (1) 
-6.9803926479086478

>  <r_i_glide_gscore_strain>  (1) 
1.4480100854783515

>  <r_i_glide_hbond>  (1) 
-0.7680132298037825

>  <r_i_glide_ligand_efficiency>  (1) 
-0.14250902837229229

>  <r_i_glide_ligand_efficiency_ln>  (1) 
-1.4042601293916046

>  <r_i_glide_ligand_efficiency_sa>  (1) 
-0.51791218023958396

>  <r_i_glide_lipo>  (1) 
-3.9862179104229081

>  <r_i_glide_metal>  (1) 
-0

>  <r_i_glide_rewards>  (1) 
-1.2601868768494322

>  <r_lp_Energy>  (1) 
45.973873999999995

>  <r_lp_tautomer_probability>  (1) 
0.99979120136373534

>  <s_epik_Chemistry_Notes>  (1) 
This compound has an ester and may undergo hydrolysis at high or low pH.

>  <s_epik_cmdline>  (1) 
J2VwaWtfcHl0aG9uJywgJy1waHQnLCAnMS4wJywgJy1waCcsICc3LjQnLCAnLXRuJywgJzgnLCAnLW1hJywgJzUwMCcsICctaW1hZScsICc8aW5maWxlLm1hZT4nLCAnLW9tYWUnLCAnPG91dGZpbGUubWFlPic=

>  <s_epik_input>  (1) 
W09IXVtDSDJdW0NIMl1bQ0BIXShbQ0gzXSlPW0NAQEhdKFtDSDJdT1tDSDJdW0NIM10pW0NIMl1bQ0gyXVNDKD1PKVtOSF0vW0NIXT1DKFtDQEhdMU4oW05IXTIpW0NAQEhdKEMxKFtDSDNdKVtDSDNdKVtDQEhdM04oW0NASF0zNClbQ0gyXVtDSDJdW0NIMl1DND1PKVxbQ0gyXVtDQEBIXShbQ0BASF0yNSlbQ0BASF01W0NIMl1bQ0gyXVtDSDJdW0NIMl1bQ0BASF0oQzY9TylbQ0hdPVtDSF1PNg==

>  <s_glide_docking_method>  (1) 
confgen

>  <s_i_glide_gridfile>  (1) 
gpcr_5ht2c_6bqh_protein_autoprepared_prepared

>  <s_lp_Force_Field>  (1) 
S-OPLS

>  <s_lp_Variant>  (1) 
DiffSBDD_78-1

>  <s_m_source_file>  (1) 
generated_GPCR_5HT2C_ligand_DiffSBDD_2026-06-23_prepared.sdf

>  <GenAI_Model>  (1) 
DiffSBDD

>  <Protein>  (1) 
GPCR_5HT2C

$$$$
DiffSBDD_16
     RDKit          3D

  0  0  0  0  0  0  0  0  0  0999 V3000
M  V30 BEGIN CTAB
M  V30 COUNTS 70 74 0 0 1
M  V30 BEGIN ATOM
M  V30 1 C 40.441841 33.086278 62.027108 0
M  V30 2 C 39.645137 27.673179 52.948530 0
M  V30 3 C 38.274921 32.577140 56.906727 0 CFG=1
M  V30 4 C 39.003864 31.301964 57.210773 0
M  V30 5 C 41.832878 33.848915 63.889556 0
M  V30 6 C 42.050494 32.515649 64.280202 0
M  V30 7 C 36.184096 31.572432 61.042744 0
M  V30 8 C 35.390832 32.864089 61.286166 0
M  V30 9 C 38.440457 33.637910 57.978324 0
M  V30 10 C 41.495379 31.465607 63.534923 0
M  V30 11 O 38.133601 31.299805 62.327037 0
M  V30 12 C 38.823250 29.750528 53.848570 0
M  V30 13 C 38.476421 30.589513 54.855687 0
M  V30 14 C 38.045043 32.027922 54.559913 0
M  V30 15 C 39.229281 28.344932 53.984083 0
M  V30 16 C 41.042928 34.132930 62.759294 0
M  V30 17 N 40.008379 26.386190 53.191810 0
M  V30 18 C 38.455344 24.954672 56.097795 0
M  V30 19 N 38.577673 33.003625 55.537064 0 CHG=1
M  V30 20 C 37.827142 26.188343 56.623042 0
M  V30 21 C 42.445230 34.977823 64.687515 0
M  V30 22 C 35.206256 33.699243 60.015692 0
M  V30 23 C 36.961297 35.563582 60.373441 0
M  V30 24 C 36.494490 34.375069 59.514860 0 CFG=1
M  V30 25 C 39.578809 33.428922 60.852756 0
M  V30 26 C 37.594055 33.322919 59.237622 0 CFG=2
M  V30 27 C 37.644238 31.856268 61.362810 0
M  V30 28 C 39.231885 27.546456 55.248864 0 CFG=2
M  V30 29 C 38.369992 32.871886 60.492210 0
M  V30 30 C 39.554202 26.282710 54.395164 0
M  V30 31 N 38.045125 27.345681 56.108545 0
M  V30 32 C 40.698515 31.744105 62.411548 0
M  V30 33 C 38.475711 30.198502 56.335079 0
M  V30 34 C 39.255817 25.004826 55.019607 0
M  V30 35 H 39.727692 28.060211 51.942471 0
M  V30 36 H 37.245138 32.344545 56.862792 0
M  V30 37 H 38.923692 31.019389 58.261038 0
M  V30 38 H 40.045142 31.439912 56.967757 0
M  V30 39 H 42.658725 32.298441 65.146467 0
M  V30 40 H 36.022649 31.141627 60.055551 0
M  V30 41 H 35.825508 30.822122 61.739605 0
M  V30 42 H 34.445135 32.584561 61.708736 0
M  V30 43 H 35.841924 33.480709 62.065626 0
M  V30 44 H 39.500579 33.737751 58.191369 0
M  V30 45 H 38.045140 34.537756 57.521624 0
M  V30 46 H 41.679951 30.440497 63.825030 0
M  V30 47 H 38.796831 30.150104 52.847672 0
M  V30 48 H 38.362957 32.319144 53.558664 0
M  V30 49 H 36.955327 32.066011 54.567772 0
M  V30 50 H 40.872534 35.160262 62.467756 0
M  V30 51 H 38.197532 24.027226 56.586819 0
M  V30 52 H 38.129460 33.893633 55.369442 0
M  V30 53 H 37.147181 26.047688 57.467690 0
M  V30 54 H 42.483872 35.905943 64.116201 0
M  V30 55 H 41.872497 35.158822 65.597103 0
M  V30 56 H 43.461678 34.712432 64.967789 0
M  V30 57 H 34.802214 33.058449 59.230096 0
M  V30 58 H 34.445349 34.453449 60.166344 0
M  V30 59 H 37.172255 35.275999 61.403493 0
M  V30 60 H 37.866718 36.009071 59.961251 0
M  V30 61 H 36.202879 36.344971 60.392389 0
M  V30 62 H 36.189869 34.812854 58.567762 0
M  V30 63 H 39.961781 34.224134 60.232035 0
M  V30 64 H 37.046485 32.445013 58.917045 0
M  V30 65 H 40.125137 27.761979 55.837873 0
M  V30 66 H 40.292470 30.926903 61.837968 0
M  V30 67 H 37.473099 29.902480 56.648074 0
M  V30 68 H 39.186798 29.442630 56.609049 0
M  V30 69 H 39.670892 24.137768 54.568634 0
M  V30 70 H 39.575343 33.093179 55.426542 0
M  V30 END ATOM
M  V30 BEGIN BOND
M  V30 1 1 4 3
M  V30 2 1 6 5
M  V30 3 1 8 7
M  V30 4 1 9 3
M  V30 5 2 10 6
M  V30 6 2 13 12
M  V30 7 1 14 13
M  V30 8 2 15 2
M  V30 9 1 15 12
M  V30 10 1 16 1
M  V30 11 2 16 5
M  V30 12 1 17 2
M  V30 13 1 19 3
M  V30 14 1 19 14
M  V30 15 1 20 18
M  V30 16 1 21 5
M  V30 17 1 22 8
M  V30 18 1 24 22
M  V30 19 1 24 23
M  V30 20 1 25 1
M  V30 21 1 26 9
M  V30 22 1 26 24
M  V30 23 1 27 7
M  V30 24 2 27 11
M  V30 25 1 28 15
M  V30 26 2 29 25
M  V30 27 1 29 26
M  V30 28 1 29 27
M  V30 29 2 30 17
M  V30 30 1 30 28
M  V30 31 2 31 20
M  V30 32 1 31 28
M  V30 33 2 32 1
M  V30 34 1 32 10
M  V30 35 1 33 4
M  V30 36 1 33 13
M  V30 37 2 34 18
M  V30 38 1 34 30
M  V30 39 1 35 2
M  V30 40 1 3 36 CFG=3
M  V30 41 1 37 4
M  V30 42 1 38 4
M  V30 43 1 39 6
M  V30 44 1 40 7
M  V30 45 1 41 7
M  V30 46 1 42 8
M  V30 47 1 43 8
M  V30 48 1 44 9
M  V30 49 1 45 9
M  V30 50 1 46 10
M  V30 51 1 47 12
M  V30 52 1 48 14
M  V30 53 1 49 14
M  V30 54 1 50 16
M  V30 55 1 51 18
M  V30 56 1 52 19
M  V30 57 1 53 20
M  V30 58 1 54 21
M  V30 59 1 55 21
M  V30 60 1 56 21
M  V30 61 1 57 22
M  V30 62 1 58 22
M  V30 63 1 59 23
M  V30 64 1 60 23
M  V30 65 1 61 23
M  V30 66 1 24 62 CFG=3
M  V30 67 1 63 25
M  V30 68 1 26 64 CFG=3
M  V30 69 1 28 65 CFG=1
M  V30 70 1 66 32
M  V30 71 1 67 33
M  V30 72 1 68 33
M  V30 73 1 69 34
M  V30 74 1 70 19
M  V30 END BOND
M  V30 END CTAB
M  END
>  <i_epik_Tot_Q>  (1) 
1

>  <i_epik_Tot_abs_Q>  (1) 
1

>  <i_i_glide_confnum>  (1) 
42

>  <i_i_glide_lignum>  (1) 
34

>  <i_i_glide_posenum>  (1) 
303

>  <i_i_glide_rotatable_bonds>  (1) 
4

>  <i_lp_mmshare_version>  (1) 
72125

>  <i_m_source_file_index>  (1) 
17

>  <i_f3d_flags>  (1) 
0

>  <num_sample>  (1) 
100

>  <b_lp_Chiralities_Consistent>  (1) 
1

>  <r_epik_Charging_Adjusted_Penalty>  (1) 
0.57808156404405586

>  <r_epik_Ionization_Penalty>  (1) 
0.28904078202202793

>  <r_epik_Ionization_Penalty_Charging>  (1) 
0.28904078202202793

>  <r_epik_Ionization_Penalty_Neutral>  (1) 
0

>  <r_epik_State_Penalty>  (1) 
0.28904078202202793

>  <r_glide_ring_energy>  (1) 
0

>  <r_i_docking_score>  (1) 
-6.8372527908402132

>  <r_i_glide_ecoul>  (1) 
-2.729081379460327

>  <r_i_glide_eff_state_penalty>  (1) 
0.28904078202202793

>  <r_i_glide_einternal>  (1) 
25.987208360025768

>  <r_i_glide_emodel>  (1) 
-35.283015023945381

>  <r_i_glide_emodel_strain>  (1) 
3.6558036335532051

>  <r_i_glide_energy>  (1) 
-34.922596262451975

>  <r_i_glide_erotb>  (1) 
0.29147875755417113

>  <r_i_glide_esite>  (1) 
0

>  <r_i_glide_evdw>  (1) 
-32.19351488299165

>  <r_i_glide_gscore>  (1) 
-7.1262935728622407

>  <r_i_glide_gscore_strain>  (1) 
0

>  <r_i_glide_hbond>  (1) 
-0.11829743938148692

>  <r_i_glide_ligand_efficiency>  (1) 
-0.2010956703188298

>  <r_i_glide_ligand_efficiency_ln>  (1) 
-1.5105409199414173

>  <r_i_glide_ligand_efficiency_sa>  (1) 
-0.65147190675068722

>  <r_i_glide_lipo>  (1) 
-3.1332926975667745

>  <r_i_glide_metal>  (1) 
-0

>  <r_i_glide_rewards>  (1) 
-2.1471442423995191

>  <r_lp_Energy>  (1) 
65.165018000000003

>  <s_epik_Chemistry_Notes>  (1) 
This compound has an imine and may undergo hydrolysis.

>  <s_epik_cmdline>  (1) 
J2VwaWtfcHl0aG9uJywgJy1waHQnLCAnMS4wJywgJy1waCcsICc3LjQnLCAnLXRuJywgJzgnLCAnLW1hJywgJzUwMCcsICctaW1hZScsICc8aW5maWxlLm1hZT4nLCAnLW9tYWUnLCAnPG91dGZpbGUubWFlPic=

>  <s_epik_input>  (1) 
W2NIXTFbY0hdW2NIXWMoW0NIM10pW2NIXWMxL1tDSF09QyhDKD1PKVtDSDJdW0NIMl1bQ0gyXVtDQEhdMltDSDNdKS9bQ0BASF0yW0NIMl1bQ0BASF0zW0NIMl1bQ0gyXUMoL1tDSDJdW05IXTMpPVtDSF1cQzQ9W0NIXU49QyhbQ0BASF00NSlbQ0hdPVtDSF1bQ0hdPU41

>  <s_glide_docking_method>  (1) 
confgen

>  <s_i_glide_gridfile>  (1) 
gpcr_5ht2c_6bqh_protein_autoprepared_prepared

>  <s_lp_Force_Field>  (1) 
S-OPLS

>  <s_lp_Variant>  (1) 
DiffSBDD_16-2

>  <s_m_source_file>  (1) 
generated_GPCR_5HT2C_ligand_DiffSBDD_2026-06-23_prepared.sdf

>  <GenAI_Model>  (1) 
DiffSBDD

>  <Protein>  (1) 
GPCR_5HT2C

$$$$
DiffSBDD_73
     RDKit          3D

  0  0  0  0  0  0  0  0  0  0999 V3000
M  V30 BEGIN CTAB
M  V30 COUNTS 64 65 0 0 1
M  V30 BEGIN ATOM
M  V30 1 C 37.082616 33.716628 60.332676 0 CFG=1
M  V30 2 C 38.629008 29.618891 58.254829 0
M  V30 3 N 38.845237 29.337828 52.649723 0
M  V30 4 C 40.547721 34.835003 61.661941 0
M  V30 5 C 39.481914 34.208265 61.079165 0
M  V30 6 C 37.294420 33.571483 58.826977 0
M  V30 7 C 39.513193 28.324782 51.828792 0 CFG=2
M  V30 8 N 37.598173 30.203703 56.089913 0
M  V30 9 O 39.245123 28.366611 54.666769 0
M  V30 10 C 34.476349 33.399934 59.955381 0
M  V30 11 C 37.881634 30.377451 54.641648 0 CFG=2
M  V30 12 C 39.318198 36.559852 63.080924 0
M  V30 13 C 40.578321 36.165988 62.377089 0 CFG=1
M  V30 14 C 38.739171 29.263376 53.991607 0
M  V30 15 O 37.645138 32.244628 58.447546 0
M  V30 16 C 40.688803 30.193792 50.463149 0
M  V30 17 C 38.060505 34.666008 60.961995 0
M  V30 18 C 38.374288 36.994827 62.008265 0
M  V30 19 C 38.659324 30.568403 57.043756 0 CFG=1
M  V30 20 C 35.660144 33.608300 60.879737 0 CFG=1
M  V30 21 O 41.585170 36.094589 63.367720 0
M  V30 22 C 39.871602 28.892261 50.445657 0
M  V30 23 C 38.563988 32.047670 57.484707 0
M  V30 24 O 39.245131 32.937724 56.981859 0
M  V30 25 C 38.417814 31.783560 54.293504 0
M  V30 26 C 37.596459 35.883522 61.369193 0
M  V30 27 C 38.634414 27.086935 51.684822 0
M  V30 28 C 36.649671 32.504719 61.143546 0
M  V30 29 H 39.383464 29.889963 58.994282 0
M  V30 30 H 37.657614 29.622947 58.751556 0
M  V30 31 H 38.831182 28.593741 57.943657 0
M  V30 32 H 38.442793 30.129223 52.175325 0
M  V30 33 H 41.499770 34.325973 61.628035 0
M  V30 34 H 39.696649 33.245922 60.636751 0
M  V30 35 H 36.388166 33.851499 58.291762 0
M  V30 36 H 38.045127 34.295195 58.516202 0
M  V30 37 H 40.445141 27.996330 52.258562 0
M  V30 38 H 36.727740 30.674985 56.355707 0
M  V30 39 H 34.589874 32.490159 59.364308 0
M  V30 40 H 33.558850 33.337753 60.534138 0
M  V30 41 H 34.377125 34.247098 59.276938 0
M  V30 42 H 36.905396 30.287298 54.167755 0
M  V30 43 H 38.914262 35.753595 63.692519 0
M  V30 44 H 39.508789 37.404097 63.745794 0
M  V30 45 H 40.907783 36.930896 61.671838 0
M  V30 46 H 40.907765 30.525099 49.448669 0
M  V30 47 H 40.158436 31.005391 50.961991 0
M  V30 48 H 41.643551 30.052977 50.967740 0
M  V30 49 H 38.834011 37.628140 61.250621 0
M  V30 50 H 37.622454 37.626380 62.482896 0
M  V30 51 H 39.628879 30.419403 56.566102 0
M  V30 52 H 35.414106 34.217875 61.746293 0
M  V30 53 H 41.645170 36.924002 63.831695 0
M  V30 54 H 40.440541 28.139158 49.904312 0
M  V30 55 H 38.961877 29.030616 49.870147 0
M  V30 56 H 38.445155 31.977399 53.225943 0
M  V30 57 H 37.788387 32.561664 54.727447 0
M  V30 58 H 39.438724 31.922973 54.647789 0
M  V30 59 H 36.550614 36.101716 61.215263 0
M  V30 60 H 39.077920 26.398829 50.967738 0
M  V30 61 H 38.517031 26.561451 52.633102 0
M  V30 62 H 37.645170 27.358516 51.326736 0
M  V30 63 H 36.490028 31.559409 60.628374 0
M  V30 64 H 37.033218 32.414327 62.157959 0
M  V30 END ATOM
M  V30 BEGIN BOND
M  V30 1 2 5 4
M  V30 2 1 1 6 CFG=3
M  V30 3 1 7 3
M  V30 4 1 11 8
M  V30 5 1 13 4
M  V30 6 1 13 12
M  V30 7 1 14 3
M  V30 8 2 14 9
M  V30 9 1 14 11
M  V30 10 1 15 6
M  V30 11 1 17 1
M  V30 12 1 17 5
M  V30 13 1 18 12
M  V30 14 1 19 2
M  V30 15 1 19 8
M  V30 16 1 20 1
M  V30 17 1 20 10
M  V30 18 1 21 13
M  V30 19 1 22 7
M  V30 20 1 22 16
M  V30 21 1 23 15
M  V30 22 1 23 19
M  V30 23 2 24 23
M  V30 24 1 25 11
M  V30 25 2 26 17
M  V30 26 1 26 18
M  V30 27 1 27 7
M  V30 28 1 28 1
M  V30 29 1 28 20
M  V30 30 1 29 2
M  V30 31 1 30 2
M  V30 32 1 31 2
M  V30 33 1 32 3
M  V30 34 1 33 4
M  V30 35 1 34 5
M  V30 36 1 35 6
M  V30 37 1 36 6
M  V30 38 1 7 37 CFG=1
M  V30 39 1 38 8
M  V30 40 1 39 10
M  V30 41 1 40 10
M  V30 42 1 41 10
M  V30 43 1 11 42 CFG=3
M  V30 44 1 43 12
M  V30 45 1 44 12
M  V30 46 1 13 45 CFG=3
M  V30 47 1 46 16
M  V30 48 1 47 16
M  V30 49 1 48 16
M  V30 50 1 49 18
M  V30 51 1 50 18
M  V30 52 1 19 51 CFG=3
M  V30 53 1 20 52 CFG=1
M  V30 54 1 53 21
M  V30 55 1 54 22
M  V30 56 1 55 22
M  V30 57 1 56 25
M  V30 58 1 57 25
M  V30 59 1 58 25
M  V30 60 1 59 26
M  V30 61 1 60 27
M  V30 62 1 61 27
M  V30 63 1 62 27
M  V30 64 1 63 28
M  V30 65 1 64 28
M  V30 END BOND
M  V30 END CTAB
M  END
>  <i_epik_Tot_Q>  (1) 
0

>  <i_epik_Tot_abs_Q>  (1) 
0

>  <i_i_glide_confnum>  (1) 
1744

>  <i_i_glide_lignum>  (1) 
159

>  <i_i_glide_posenum>  (1) 
287

>  <i_i_glide_rotatable_bonds>  (1) 
12

>  <i_lp_mmshare_version>  (1) 
72125

>  <i_m_source_file_index>  (1) 
74

>  <i_f3d_flags>  (1) 
0

>  <num_sample>  (1) 
100

>  <b_lp_Chiralities_Consistent>  (1) 
1

>  <r_epik_Charging_Adjusted_Penalty>  (1) 
0.088841992990236665

>  <r_epik_Ionization_Penalty>  (1) 
0.088842122646257599

>  <r_epik_Ionization_Penalty_Charging>  (1) 
0

>  <r_epik_Ionization_Penalty_Neutral>  (1) 
0.088842122646257599

>  <r_epik_State_Penalty>  (1) 
0.088841992990236665

>  <r_glide_ring_energy>  (1) 
0

>  <r_i_docking_score>  (1) 
-6.8349402797186816

>  <r_i_glide_ecoul>  (1) 
-5.5000708647215735

>  <r_i_glide_eff_state_penalty>  (1) 
0.088841992990236665

>  <r_i_glide_einternal>  (1) 
11.447495548813102

>  <r_i_glide_emodel>  (1) 
-57.95343770546414

>  <r_i_glide_emodel_strain>  (1) 
1.5246099278607943

>  <r_i_glide_energy>  (1) 
-47.196591143978331

>  <r_i_glide_erotb>  (1) 
1.2671681791471729

>  <r_i_glide_esite>  (1) 
-0.067775276846183966

>  <r_i_glide_evdw>  (1) 
-41.69652027925676

>  <r_i_glide_gscore>  (1) 
-6.9237822727089187

>  <r_i_glide_gscore_strain>  (1) 
0

>  <r_i_glide_hbond>  (1) 
-0.45599999999999996

>  <r_i_glide_ligand_efficiency>  (1) 
-0.24410500998995291

>  <r_i_glide_ligand_efficiency_ln>  (1) 
-1.5777048991258866

>  <r_i_glide_ligand_efficiency_sa>  (1) 
-0.74124658131508958

>  <r_i_glide_lipo>  (1) 
-3.4223034134570982

>  <r_i_glide_metal>  (1) 
-0

>  <r_i_glide_rewards>  (1) 
-1.3350351178817359

>  <r_lp_Energy>  (1) 
22.608298999999999

>  <s_epik_Chemistry_Notes>  (1) 
This compound has an ester and may undergo hydrolysis at high or low pH.

>  <s_epik_cmdline>  (1) 
J2VwaWtfcHl0aG9uJywgJy1waHQnLCAnMS4wJywgJy1waCcsICc3LjQnLCAnLXRuJywgJzgnLCAnLW1hJywgJzUwMCcsICctaW1hZScsICc8aW5maWxlLm1hZT4nLCAnLW9tYWUnLCAnPG91dGZpbGUubWFlPic=

>  <s_epik_input>  (1) 
W09IXVtDQEhdMVtDSF09W0NIXUMoPVtDSF1bQ0gyXVtDSDJdMSlbQ0BAXTIoW0NAQEhdKFtDSDNdKVtDSDJdMilbQ0gyXU9DKD1PKVtDQEBIXShbQ0gzXSlbTkhdW0NASF0oW0NIM10pQyg9TylbTkhdW0NAQEhdKFtDSDNdKVtDSDJdW0NIM10=

>  <s_glide_docking_method>  (1) 
confgen

>  <s_i_glide_gridfile>  (1) 
gpcr_5ht2c_6bqh_protein_autoprepared_prepared

>  <s_lp_Force_Field>  (1) 
S-OPLS

>  <s_lp_Variant>  (1) 
DiffSBDD_73-2

>  <s_m_source_file>  (1) 
generated_GPCR_5HT2C_ligand_DiffSBDD_2026-06-23_prepared.sdf

>  <GenAI_Model>  (1) 
DiffSBDD

>  <Protein>  (1) 
GPCR_5HT2C

$$$$
DiffSBDD_18
     RDKit          3D

  0  0  0  0  0  0  0  0  0  0999 V3000
M  V30 BEGIN CTAB
M  V30 COUNTS 77 79 0 0 1
M  V30 BEGIN ATOM
M  V30 1 C 35.327698 31.579300 61.258459 0
M  V30 2 C 40.560056 27.413577 56.596346 0 CFG=2
M  V30 3 C 38.717362 37.654187 61.767755 0
M  V30 4 C 39.176282 36.388567 62.146216 0
M  V30 5 C 37.044635 36.624425 60.319167 0
M  V30 6 O 39.180005 28.423919 53.997899 0
M  V30 7 C 37.716566 33.776011 57.537717 0
M  V30 8 C 37.357440 25.869361 57.367743 0
M  V30 9 C 37.350435 29.285782 59.371562 0
M  V30 10 C 41.112266 35.262281 63.294811 0
M  V30 11 C 38.458147 27.429193 54.229074 0
M  V30 12 C 37.652959 37.775180 60.856287 0
M  V30 13 C 37.245193 31.646708 58.567777 0
M  V30 14 C 38.438230 26.581299 57.567598 0
M  V30 15 C 37.137286 25.030568 56.126057 0
M  V30 16 C 38.879449 33.337776 56.632451 0
M  V30 17 C 36.301116 32.742508 61.496121 0
M  V30 18 C 38.382389 29.396062 58.317784 0 CFG=2
M  V30 19 C 40.445555 26.281898 55.527432 0
M  V30 20 C 41.905563 27.436893 57.359928 0
M  V30 21 C 38.260110 24.925627 55.065590 0
M  V30 22 C 42.152195 35.318132 64.370383 0
M  V30 23 C 39.434081 27.438548 57.610578 0
M  V30 24 C 34.968185 34.173045 59.273307 0
M  V30 25 C 39.170450 26.121245 54.644586 0 CFG=1
M  V30 26 N 41.059546 34.179694 62.504772 0 CHG=1
M  V30 27 C 38.562110 35.215508 61.619121 0
M  V30 28 P 36.655629 33.813695 60.001507 0 CFG=1 CHG=1
M  V30 29 N 39.484635 28.488192 58.496764 0
M  V30 30 O 37.215233 27.399598 54.142305 0 CHG=-1
M  V30 31 C 38.084428 30.583241 59.190291 0 CFG=2
M  V30 32 C 37.488322 35.335415 60.693091 0
M  V30 33 N 37.678261 33.027848 58.814179 0 CFG=2 CHG=1
M  V30 34 N 40.280366 36.337710 63.138913 0
M  V30 35 H 34.778784 31.344530 62.167749 0
M  V30 36 H 34.588023 31.800180 60.489460 0
M  V30 37 H 35.850680 30.673512 60.969703 0
M  V30 38 H 40.509149 28.367576 56.072217 0
M  V30 39 H 39.189299 38.537760 62.167638 0
M  V30 40 H 36.225359 36.730783 59.622706 0
M  V30 41 H 36.832263 33.584098 56.967759 0
M  V30 42 H 37.645120 34.847636 57.719438 0
M  V30 43 H 36.529476 25.920323 58.055099 0
M  V30 44 H 36.319785 29.198478 59.032197 0
M  V30 45 H 37.645206 28.621400 60.167752 0
M  V30 46 H 37.303399 38.756317 60.565381 0
M  V30 47 H 37.245150 31.428810 57.502472 0
M  V30 48 H 36.217240 31.505817 58.887061 0
M  V30 49 H 36.858230 24.026329 56.447469 0
M  V30 50 H 36.251295 25.441023 55.647789 0
M  V30 51 H 38.963473 33.997905 55.767810 0
M  V30 52 H 39.824249 33.337756 57.169305 0
M  V30 53 H 38.742091 32.334142 56.230475 0
M  V30 54 H 37.213624 32.401351 61.984948 0
M  V30 55 H 35.815876 33.440219 62.167774 0
M  V30 56 H 38.046625 29.426442 57.280409 0
M  V30 57 H 41.245118 26.385545 54.806763 0
M  V30 58 H 40.649716 25.336540 56.022621 0
M  V30 59 H 41.982300 28.282809 58.042318 0
M  V30 60 H 42.039338 26.537779 57.954865 0
M  V30 61 H 42.756882 27.540193 56.703129 0
M  V30 62 H 37.782372 24.537540 54.167903 0
M  V30 63 H 38.923524 24.137771 55.396561 0
M  V30 64 H 42.846240 36.136767 64.177481 0
M  V30 65 H 41.686468 35.487238 65.342664 0
M  V30 66 H 42.721995 34.389744 64.422596 0
M  V30 67 H 34.196730 34.137805 60.040252 0
M  V30 68 H 34.911732 35.127894 58.753213 0
M  V30 69 H 34.690493 33.396819 58.567723 0
M  V30 70 H 39.587748 25.786604 53.699195 0
M  V30 71 H 41.702014 33.412908 62.657296 0
M  V30 72 H 38.869537 34.238658 61.929552 0
M  V30 73 H 40.364581 28.976665 58.438622 0
M  V30 74 H 38.789633 30.866525 59.968340 0
M  V30 75 H 40.528578 37.173505 63.659078 0
M  V30 76 H 40.402122 34.139606 61.747214 0
M  V30 77 H 38.619783 33.002044 59.170681 0
M  V30 END ATOM
M  V30 BEGIN BOND
M  V30 1 1 4 3
M  V30 2 2 11 6
M  V30 3 2 12 3
M  V30 4 1 12 5
M  V30 5 2 14 8
M  V30 6 1 15 8
M  V30 7 1 16 7
M  V30 8 1 17 1
M  V30 9 1 18 9
M  V30 10 1 19 2
M  V30 11 1 20 2
M  V30 12 1 21 15
M  V30 13 1 22 10
M  V30 14 1 23 2
M  V30 15 2 23 14
M  V30 16 1 25 11
M  V30 17 1 25 19
M  V30 18 1 25 21
M  V30 19 2 26 10
M  V30 20 2 27 4
M  V30 21 1 28 17 CFG=1
M  V30 22 1 28 24
M  V30 23 1 29 18
M  V30 24 1 29 23
M  V30 25 1 30 11
M  V30 26 1 31 9
M  V30 27 1 31 13
M  V30 28 1 31 18
M  V30 29 2 32 5
M  V30 30 1 32 27
M  V30 31 1 32 28
M  V30 32 1 33 7
M  V30 33 1 33 13
M  V30 34 1 33 28
M  V30 35 1 34 4
M  V30 36 1 34 10
M  V30 37 1 35 1
M  V30 38 1 36 1
M  V30 39 1 37 1
M  V30 40 1 2 38 CFG=3
M  V30 41 1 39 3
M  V30 42 1 40 5
M  V30 43 1 41 7
M  V30 44 1 42 7
M  V30 45 1 43 8
M  V30 46 1 44 9
M  V30 47 1 45 9
M  V30 48 1 46 12
M  V30 49 1 47 13
M  V30 50 1 48 13
M  V30 51 1 49 15
M  V30 52 1 50 15
M  V30 53 1 51 16
M  V30 54 1 52 16
M  V30 55 1 53 16
M  V30 56 1 54 17
M  V30 57 1 55 17
M  V30 58 1 18 56 CFG=3
M  V30 59 1 57 19
M  V30 60 1 58 19
M  V30 61 1 59 20
M  V30 62 1 60 20
M  V30 63 1 61 20
M  V30 64 1 62 21
M  V30 65 1 63 21
M  V30 66 1 64 22
M  V30 67 1 65 22
M  V30 68 1 66 22
M  V30 69 1 67 24
M  V30 70 1 68 24
M  V30 71 1 69 24
M  V30 72 1 25 70 CFG=3
M  V30 73 1 71 26
M  V30 74 1 72 27
M  V30 75 1 73 29
M  V30 76 1 31 74 CFG=1
M  V30 77 1 75 34
M  V30 78 1 76 26
M  V30 79 1 33 77 CFG=1
M  V30 END BOND
M  V30 END CTAB
M  END
>  <i_epik_Tot_Q>  (1) 
2

>  <i_epik_Tot_abs_Q>  (1) 
4

>  <i_i_glide_confnum>  (1) 
144

>  <i_i_glide_lignum>  (1) 
45

>  <i_i_glide_posenum>  (1) 
257

>  <i_i_glide_rotatable_bonds>  (1) 
11

>  <i_lp_mmshare_version>  (1) 
72125

>  <i_m_source_file_index>  (1) 
19

>  <i_f3d_flags>  (1) 
0

>  <num_sample>  (1) 
100

>  <b_lp_Chiralities_Consistent>  (1) 
1

>  <r_epik_Charging_Adjusted_Penalty>  (1) 
0.035732071636325656

>  <r_epik_Ionization_Penalty>  (1) 
0.019213783482484162

>  <r_epik_Ionization_Penalty_Charging>  (1) 
0.019186760244236628

>  <r_epik_Ionization_Penalty_Neutral>  (1) 
2.7023238247534635e-05

>  <r_epik_State_Penalty>  (1) 
0.016545311392089028

>  <r_glide_ring_energy>  (1) 
0

>  <r_i_docking_score>  (1) 
-6.828150567034581

>  <r_i_glide_ecoul>  (1) 
-6.0876357105435615

>  <r_i_glide_eff_state_penalty>  (1) 
0.016545311392089028

>  <r_i_glide_einternal>  (1) 
3.9671611948303322

>  <r_i_glide_emodel>  (1) 
-54.455221607200798

>  <r_i_glide_emodel_strain>  (1) 
4.7123114269763136

>  <r_i_glide_energy>  (1) 
-39.904750810705437

>  <r_i_glide_erotb>  (1) 
0.68654883804919686

>  <r_i_glide_esite>  (1) 
-0.075807384270370745

>  <r_i_glide_evdw>  (1) 
-33.817115100161878

>  <r_i_glide_gscore>  (1) 
-6.8446958784266698

>  <r_i_glide_gscore_strain>  (1) 
0.17807785674407839

>  <r_i_glide_hbond>  (1) 
0

>  <r_i_glide_ligand_efficiency>  (1) 
-0.20082795785395827

>  <r_i_glide_ligand_efficiency_ln>  (1) 
-1.5085299833940233

>  <r_i_glide_ligand_efficiency_sa>  (1) 
-0.65060462229014038

>  <r_i_glide_lipo>  (1) 
-3.6655283758065997

>  <r_i_glide_metal>  (1) 
-0

>  <r_i_glide_rewards>  (1) 
-1.3639857015533463

>  <r_lp_Energy>  (1) 
40.287763999999996

>  <s_epik_Chemistry_Notes>  (1) 
This compound has an imine and may undergo hydrolysis.

>  <s_epik_cmdline>  (1) 
J2VwaWtfcHl0aG9uJywgJy1waHQnLCAnMS4wJywgJy1waCcsICc3LjQnLCAnLXRuJywgJzgnLCAnLW1hJywgJzUwMCcsICctaW1hZScsICc8aW5maWxlLm1hZT4nLCAnLW9tYWUnLCAnPG91dGZpbGUubWFlPic=

>  <s_epik_input>  (1) 
W0hdL049QyhcW0NIM10pW05IXWMxW2NIXVtjSF1bY0hdYyhbY0hdMSlbUEBAK10oW0NIM10pKFtDSDJdW0NIM10pTihbQ0gyXVtDSDNdKVtDSDJdW0NASF0yW0NIMl1bQ0BASF0yW05IXUMzPUM9W0NIXVtDSDJdW0NIMl1bQ0BASF0oQyg9TylbT0hdKVtDSDJdW0NAQEhdM1tDSDNd

>  <s_glide_docking_method>  (1) 
confgen

>  <s_i_glide_gridfile>  (1) 
gpcr_5ht2c_6bqh_protein_autoprepared_prepared

>  <s_lp_Force_Field>  (1) 
S-OPLS

>  <s_lp_Variant>  (1) 
DiffSBDD_18-4

>  <s_m_source_file>  (1) 
generated_GPCR_5HT2C_ligand_DiffSBDD_2026-06-23_prepared.sdf

>  <GenAI_Model>  (1) 
DiffSBDD

>  <Protein>  (1) 
GPCR_5HT2C

$$$$
DiffSBDD_75
     RDKit          3D

  0  0  0  0  0  0  0  0  0  0999 V3000
M  V30 BEGIN CTAB
M  V30 COUNTS 77 78 0 0 1
M  V30 BEGIN ATOM
M  V30 1 C 38.944280 31.932993 60.063971 0
M  V30 2 C 40.340605 28.511109 60.649127 0
M  V30 3 O 40.586206 30.138682 65.523186 0
M  V30 4 C 37.076222 33.861176 58.719363 0
M  V30 5 C 43.581989 30.661308 65.470329 0 CFG=2
M  V30 6 C 38.455383 30.800117 54.504558 0
M  V30 7 C 41.073418 31.214584 64.745406 0 CFG=2
M  V30 8 C 37.543580 29.725245 54.538287 0
M  V30 9 O 43.443323 28.765146 66.972031 0
M  V30 10 C 42.442139 32.738391 66.393572 0 CFG=2
M  V30 11 O 38.869741 27.615215 51.821967 0
M  V30 12 S 39.342010 30.924403 62.578342 0
M  V30 13 C 36.115551 34.931865 59.292890 0
M  V30 14 C 38.735548 28.652901 52.697316 0
M  V30 15 C 41.023172 30.833166 63.255156 0
M  V30 16 C 38.300150 31.964529 55.470147 0
M  V30 17 C 39.507022 30.798256 53.567046 0
M  V30 18 O 42.177142 32.935192 68.796482 0
M  V30 19 C 41.547171 33.972267 66.141152 0
M  V30 20 C 42.479926 31.734091 65.201463 0 CFG=1
M  V30 21 O 36.573997 36.224363 58.967764 0
M  V30 22 O 39.475880 29.551052 60.221595 0
M  V30 23 O 38.047202 29.689831 57.529771 0
M  V30 24 C 35.601242 32.233813 59.969832 0
M  V30 25 N 36.680807 32.433914 58.967775 0 CFG=2 CHG=1
M  V30 26 C 38.242897 30.869145 57.812667 0
M  V30 27 C 37.685911 28.650064 53.637455 0
M  V30 28 C 39.002109 31.767950 56.825973 0
M  V30 29 C 37.779564 31.441697 59.169904 0 CFG=1
M  V30 30 C 39.645136 29.729069 52.661192 0
M  V30 31 C 43.159730 30.907629 68.036826 0
M  V30 32 C 39.716905 30.821640 60.807994 0 CFG=1
M  V30 33 C 43.835349 29.647582 64.336589 0
M  V30 34 C 42.132610 32.014017 67.725402 0 CFG=2
M  V30 35 C 43.394865 29.987623 66.840506 0
M  V30 36 H 39.645138 32.537399 59.488334 0
M  V30 37 H 38.553378 32.631472 60.804780 0
M  V30 38 H 40.116706 27.604708 60.089127 0
M  V30 39 H 41.385296 28.761466 60.471174 0
M  V30 40 H 40.203424 28.280924 61.706028 0
M  V30 41 H 39.784446 29.811916 65.135629 0
M  V30 42 H 38.065497 34.087236 59.107505 0
M  V30 43 H 37.158807 33.989137 57.640094 0
M  V30 44 H 40.354421 32.021823 64.867436 0
M  V30 45 H 36.734259 29.726844 55.254311 0
M  V30 46 H 44.119294 31.354707 68.296261 0
M  V30 47 H 43.453973 33.138203 66.481886 0
M  V30 48 H 39.539268 27.752603 51.170455 0
M  V30 49 H 35.110047 34.824217 58.885665 0
M  V30 50 H 36.048988 34.866185 60.378858 0
M  V30 51 H 41.424207 29.837827 63.073401 0
M  V30 52 H 41.632563 31.534816 62.684769 0
M  V30 53 H 38.698508 32.859530 54.992360 0
M  V30 54 H 37.245137 32.168796 55.617795 0
M  V30 55 H 40.202410 31.619376 53.538642 0
M  V30 56 H 41.527157 33.603409 68.642726 0
M  V30 57 H 40.486333 33.743889 66.240389 0
M  V30 58 H 41.770939 34.770497 66.850218 0
M  V30 59 H 41.713934 34.382779 65.145405 0
M  V30 60 H 42.845112 32.332368 64.367894 0
M  V30 61 H 36.446876 36.322592 58.024031 0
M  V30 62 H 35.913234 32.560740 60.962375 0
M  V30 63 H 34.690182 32.761463 59.689272 0
M  V30 64 H 35.319148 31.183023 60.035355 0
M  V30 65 H 36.987487 27.826597 53.665168 0
M  V30 66 H 39.996761 31.357824 56.658661 0
M  V30 67 H 39.145778 32.741147 57.291454 0
M  V30 68 H 37.329093 30.599428 59.696473 0
M  V30 69 H 40.449721 29.733881 51.940705 0
M  V30 70 H 42.838935 30.317749 68.896112 0
M  V30 71 H 44.515153 31.216892 65.568228 0
M  V30 72 H 40.775347 31.046918 60.679173 0
M  V30 73 H 44.780534 29.125992 64.494271 0
M  V30 74 H 43.055805 28.887003 64.284174 0
M  V30 75 H 43.899897 30.137508 63.366679 0
M  V30 76 H 41.129622 31.586580 67.696197 0
M  V30 77 H 36.214909 32.137880 58.091444 0
M  V30 END ATOM
M  V30 BEGIN BOND
M  V30 1 1 7 3
M  V30 2 1 8 6
M  V30 3 1 13 4
M  V30 4 1 14 11
M  V30 5 1 15 7
M  V30 6 1 15 12
M  V30 7 1 16 6
M  V30 8 2 17 6
M  V30 9 1 19 10
M  V30 10 1 20 5
M  V30 11 1 20 7
M  V30 12 1 20 10
M  V30 13 1 21 13
M  V30 14 1 22 2
M  V30 15 1 25 4
M  V30 16 1 25 24
M  V30 17 2 26 23
M  V30 18 2 27 8
M  V30 19 1 27 14
M  V30 20 1 28 16
M  V30 21 1 28 26
M  V30 22 1 29 1
M  V30 23 1 29 25
M  V30 24 1 29 26
M  V30 25 2 30 14
M  V30 26 1 30 17
M  V30 27 1 32 1
M  V30 28 1 32 12
M  V30 29 1 32 22
M  V30 30 1 33 5
M  V30 31 1 34 10
M  V30 32 1 34 18
M  V30 33 1 34 31
M  V30 34 1 35 5
M  V30 35 2 35 9
M  V30 36 1 35 31
M  V30 37 1 36 1
M  V30 38 1 37 1
M  V30 39 1 38 2
M  V30 40 1 39 2
M  V30 41 1 40 2
M  V30 42 1 41 3
M  V30 43 1 42 4
M  V30 44 1 43 4
M  V30 45 1 7 44 CFG=3
M  V30 46 1 45 8
M  V30 47 1 46 31
M  V30 48 1 10 47 CFG=1
M  V30 49 1 48 11
M  V30 50 1 49 13
M  V30 51 1 50 13
M  V30 52 1 51 15
M  V30 53 1 52 15
M  V30 54 1 53 16
M  V30 55 1 54 16
M  V30 56 1 55 17
M  V30 57 1 56 18
M  V30 58 1 57 19
M  V30 59 1 58 19
M  V30 60 1 59 19
M  V30 61 1 20 60 CFG=3
M  V30 62 1 61 21
M  V30 63 1 62 24
M  V30 64 1 63 24
M  V30 65 1 64 24
M  V30 66 1 65 27
M  V30 67 1 66 28
M  V30 68 1 67 28
M  V30 69 1 29 68 CFG=1
M  V30 70 1 69 30
M  V30 71 1 70 31
M  V30 72 1 5 71 CFG=1
M  V30 73 1 32 72 CFG=1
M  V30 74 1 73 33
M  V30 75 1 74 33
M  V30 76 1 75 33
M  V30 77 1 34 76 CFG=3
M  V30 78 1 25 77 CFG=3
M  V30 END BOND
M  V30 END CTAB
M  END
>  <i_epik_Tot_Q>  (1) 
1

>  <i_epik_Tot_abs_Q>  (1) 
1

>  <i_i_glide_confnum>  (1) 
6994

>  <i_i_glide_lignum>  (1) 
165

>  <i_i_glide_posenum>  (1) 
302

>  <i_i_glide_rotatable_bonds>  (1) 
18

>  <i_lp_mmshare_version>  (1) 
72125

>  <i_m_source_file_index>  (1) 
76

>  <i_f3d_flags>  (1) 
0

>  <num_sample>  (1) 
100

>  <b_lp_Chiralities_Consistent>  (1) 
1

>  <r_epik_Charging_Adjusted_Penalty>  (1) 
0.52789471212939676

>  <r_epik_Ionization_Penalty>  (1) 
0.26592108790513191

>  <r_epik_Ionization_Penalty_Charging>  (1) 
0.26394735606469838

>  <r_epik_Ionization_Penalty_Neutral>  (1) 
0.0019737318404335234

>  <r_epik_State_Penalty>  (1) 
0.26394735606469838

>  <r_glide_ring_energy>  (1) 
0

>  <r_i_docking_score>  (1) 
-6.8277276313558311

>  <r_i_glide_ecoul>  (1) 
-11.090076190273194

>  <r_i_glide_eff_state_penalty>  (1) 
0.26394735606469838

>  <r_i_glide_einternal>  (1) 
13.586895700226741

>  <r_i_glide_emodel>  (1) 
-72.323645341412998

>  <r_i_glide_emodel_strain>  (1) 
3.1999424139750587

>  <r_i_glide_energy>  (1) 
-56.093297766737471

>  <r_i_glide_erotb>  (1) 
1.0139394581015995

>  <r_i_glide_esite>  (1) 
-0.17577906673806445

>  <r_i_glide_evdw>  (1) 
-45.003221576464277

>  <r_i_glide_gscore>  (1) 
-7.0916749874205296

>  <r_i_glide_gscore_strain>  (1) 
0

>  <r_i_glide_hbond>  (1) 
-0.55993564470037538

>  <r_i_glide_ligand_efficiency>  (1) 
-0.19507793232445231

>  <r_i_glide_ligand_efficiency_ln>  (1) 
-1.4988377483329873

>  <r_i_glide_ligand_efficiency_sa>  (1) 
-0.63811285228776571

>  <r_i_glide_lipo>  (1) 
-2.9415382668901517

>  <r_i_glide_metal>  (1) 
-0

>  <r_i_glide_rewards>  (1) 
-0.51468895982934526

>  <r_lp_Energy>  (1) 
36.415389999999995

>  <r_lp_tautomer_probability>  (1) 
0.99989998499911525

>  <s_epik_Chemistry_Notes>  (1) 
This compound contains an acetal/aminal-like group ( X-CH(R)-Y where X, Y are N, S, or O) that may be acid/base labile, releasing an aldehyde.

>  <s_epik_cmdline>  (1) 
J2VwaWtfcHl0aG9uJywgJy1waHQnLCAnMS4wJywgJy1waCcsICc3LjQnLCAnLXRuJywgJzgnLCAnLW1hJywgJzUwMCcsICctaW1hZScsICc8aW5maWxlLm1hZT4nLCAnLW9tYWUnLCAnPG91dGZpbGUubWFlPic=

>  <s_epik_input>  (1) 
W2NIXTFbY0hdYyhbT0hdKVtjSF1bY0hdYzFbQ0gyXVtDSDJdQyg9TylbQ0BIXShOKFtDSDNdKVtDSDJdW0NIMl1bT0hdKVtDSDJdW0NASF0oT1tDSDNdKVNbQ0gyXVtDQEBIXShbT0hdKVtDQEhdMltDQEBIXShbQ0gzXSlbQ0BIXShbT0hdKVtDSDJdQyhbT0hdKT1DMltDSDNd

>  <s_glide_docking_method>  (1) 
confgen

>  <s_i_glide_gridfile>  (1) 
gpcr_5ht2c_6bqh_protein_autoprepared_prepared

>  <s_lp_Force_Field>  (1) 
S-OPLS

>  <s_lp_Variant>  (1) 
DiffSBDD_75-2

>  <s_m_source_file>  (1) 
generated_GPCR_5HT2C_ligand_DiffSBDD_2026-06-23_prepared.sdf

>  <GenAI_Model>  (1) 
DiffSBDD

>  <Protein>  (1) 
GPCR_5HT2C

$$$$
DiffSBDD_50
     RDKit          3D

  0  0  0  0  0  0  0  0  0  0999 V3000
M  V30 BEGIN CTAB
M  V30 COUNTS 65 68 0 0 1
M  V30 BEGIN ATOM
M  V30 1 C 37.990801 30.263241 55.155232 0 CFG=2
M  V30 2 F 36.445201 24.537660 54.124268 0
M  V30 3 C 38.444935 31.580180 58.566688 0
M  V30 4 O 38.187088 33.610809 56.259967 0 CHG=-1
M  V30 5 O 37.251569 32.227807 61.817879 0
M  V30 6 O 38.449843 32.642669 59.448246 0
M  V30 7 S 38.307313 29.045157 57.757664 0
M  V30 8 C 37.607496 28.835832 54.714528 0
M  V30 9 C 37.821640 34.811408 60.234952 0 CFG=2
M  V30 10 O 39.881326 28.140191 51.815375 0
M  V30 11 C 36.470319 32.873796 60.831766 0 CFG=1
M  V30 12 C 36.923759 36.431160 62.040786 0
M  V30 13 C 39.471916 30.191416 52.969103 0
M  V30 14 C 38.691012 28.052106 53.953013 0 CFG=2
M  V30 15 C 37.199484 24.132589 56.340991 0
M  V30 16 C 39.244953 32.937578 56.619692 0
M  V30 17 C 38.916724 28.796807 52.624541 0 CFG=2
M  V30 18 C 39.320565 27.501718 50.683330 0
M  V30 19 F 39.826749 25.755831 58.306889 0
M  V30 20 C 39.078462 26.205938 56.087620 0
M  V30 21 C 36.597491 35.349644 60.984410 0 CFG=2
M  V30 22 C 38.534480 30.992689 53.895801 0
M  V30 23 C 38.055126 24.439264 57.407977 0
M  V30 24 C 35.817239 34.109770 61.477160 0
M  V30 25 C 38.844317 30.336413 56.466110 0 CFG=2
M  V30 26 C 38.206655 25.908192 55.003999 0
M  V30 27 C 37.336125 33.461045 59.699795 0 CFG=2
M  V30 28 C 38.803427 31.653852 57.289930 0
M  V30 29 N 38.249104 26.657256 53.799382 0
M  V30 30 C 37.274788 24.852762 55.141476 0
M  V30 31 C 38.997240 25.469450 57.280161 0
M  V30 32 O 36.540997 33.719897 58.567775 0
M  V30 33 O 37.795213 30.018786 60.167728 0
M  V30 34 O 38.914808 34.656589 61.124656 0
M  V30 35 C 38.136145 30.290797 59.021701 0
M  V30 36 H 37.052340 30.753791 55.417068 0
M  V30 37 H 37.650941 31.475006 61.394815 0
M  V30 38 H 37.245340 28.258534 55.547526 0
M  V30 39 H 36.754424 28.910271 54.048823 0
M  V30 40 H 38.045134 35.481442 59.412365 0
M  V30 41 H 35.742949 32.168329 60.426102 0
M  V30 42 H 37.597741 36.068054 62.814257 0
M  V30 43 H 37.409953 37.285112 61.568918 0
M  V30 44 H 36.044768 36.802656 62.558796 0
M  V30 45 H 39.647509 30.754024 52.050955 0
M  V30 46 H 40.445031 30.110350 53.454126 0
M  V30 47 H 39.644212 28.108857 54.464102 0
M  V30 48 H 36.481235 23.333003 56.441402 0
M  V30 49 H 39.900183 33.337746 57.385674 0
M  V30 50 H 40.004697 32.644900 55.898073 0
M  V30 51 H 37.973829 28.912697 52.085663 0
M  V30 52 H 40.094293 26.937967 50.167797 0
M  V30 53 H 38.531059 26.803725 50.959942 0
M  V30 54 H 38.911588 28.239536 49.992187 0
M  V30 55 H 39.804980 26.992937 56.012504 0
M  V30 56 H 35.990140 35.825570 60.212105 0
M  V30 57 H 37.645142 31.269147 53.367760 0
M  V30 58 H 38.991845 31.953507 54.076143 0
M  V30 59 H 37.992222 23.876511 58.325525 0
M  V30 60 H 35.766692 34.064049 62.564462 0
M  V30 61 H 34.787306 34.138313 61.128822 0
M  V30 62 H 39.881996 30.111334 56.219355 0
M  V30 63 H 37.524505 26.473586 53.116400 0
M  V30 64 H 37.101624 33.693129 57.784285 0
M  V30 65 H 38.704011 33.923777 61.687595 0
M  V30 END ATOM
M  V30 BEGIN BOND
M  V30 1 1 6 3
M  V30 2 1 8 1
M  V30 3 1 11 5
M  V30 4 1 14 8
M  V30 5 1 16 4
M  V30 6 1 17 10
M  V30 7 1 17 13
M  V30 8 1 17 14
M  V30 9 1 18 10
M  V30 10 1 21 9
M  V30 11 1 21 12
M  V30 12 1 22 1
M  V30 13 1 22 13
M  V30 14 2 23 15
M  V30 15 1 24 11
M  V30 16 1 24 21
M  V30 17 1 25 1
M  V30 18 1 25 7
M  V30 19 1 26 20
M  V30 20 1 27 6 CFG=3
M  V30 21 1 27 9
M  V30 22 1 27 11
M  V30 23 2 28 3
M  V30 24 1 28 16
M  V30 25 1 28 25
M  V30 26 1 29 14
M  V30 27 1 29 26
M  V30 28 1 30 2
M  V30 29 1 30 15
M  V30 30 2 30 26
M  V30 31 1 31 19
M  V30 32 2 31 20
M  V30 33 1 31 23
M  V30 34 1 32 27
M  V30 35 1 34 9
M  V30 36 1 35 3
M  V30 37 1 35 7
M  V30 38 2 35 33
M  V30 39 1 1 36 CFG=1
M  V30 40 1 37 5
M  V30 41 1 38 8
M  V30 42 1 39 8
M  V30 43 1 9 40 CFG=3
M  V30 44 1 11 41 CFG=3
M  V30 45 1 42 12
M  V30 46 1 43 12
M  V30 47 1 44 12
M  V30 48 1 45 13
M  V30 49 1 46 13
M  V30 50 1 14 47 CFG=1
M  V30 51 1 48 15
M  V30 52 1 49 16
M  V30 53 1 50 16
M  V30 54 1 17 51 CFG=3
M  V30 55 1 52 18
M  V30 56 1 53 18
M  V30 57 1 54 18
M  V30 58 1 55 20
M  V30 59 1 21 56 CFG=3
M  V30 60 1 57 22
M  V30 61 1 58 22
M  V30 62 1 59 23
M  V30 63 1 60 24
M  V30 64 1 61 24
M  V30 65 1 25 62 CFG=3
M  V30 66 1 63 29
M  V30 67 1 64 32
M  V30 68 1 65 34
M  V30 END BOND
M  V30 END CTAB
M  END
>  <i_epik_Tot_Q>  (1) 
-1

>  <i_epik_Tot_abs_Q>  (1) 
1

>  <i_i_glide_confnum>  (1) 
286

>  <i_i_glide_lignum>  (1) 
106

>  <i_i_glide_posenum>  (1) 
124

>  <i_i_glide_rotatable_bonds>  (1) 
10

>  <i_lp_mmshare_version>  (1) 
72125

>  <i_m_source_file_index>  (1) 
51

>  <i_f3d_flags>  (1) 
0

>  <num_sample>  (1) 
100

>  <b_lp_Chiralities_Consistent>  (1) 
1

>  <r_epik_Charging_Adjusted_Penalty>  (1) 
1.033121990919972

>  <r_epik_Ionization_Penalty>  (1) 
0.51659959183111048

>  <r_epik_Ionization_Penalty_Charging>  (1) 
0.51656099545998602

>  <r_epik_Ionization_Penalty_Neutral>  (1) 
3.8596371124435187e-05

>  <r_epik_State_Penalty>  (1) 
0.51656099545998602

>  <r_glide_ring_energy>  (1) 
0.9184556783642398

>  <r_i_docking_score>  (1) 
-6.8222086006975502

>  <r_i_glide_ecoul>  (1) 
-1.8569964938328476

>  <r_i_glide_eff_state_penalty>  (1) 
0.51656099545998602

>  <r_i_glide_einternal>  (1) 
5.8191377167597196

>  <r_i_glide_emodel>  (1) 
-56.752408097646011

>  <r_i_glide_emodel_strain>  (1) 
3.0741987383471638

>  <r_i_glide_energy>  (1) 
-42.951499425478374

>  <r_i_glide_erotb>  (1) 
0.38736490325272716

>  <r_i_glide_esite>  (1) 
-0.044080845920654171

>  <r_i_glide_evdw>  (1) 
-41.094502931645529

>  <r_i_glide_gscore>  (1) 
-7.3387695961575359

>  <r_i_glide_gscore_strain>  (1) 
0

>  <r_i_glide_hbond>  (1) 
-0.12458490971631812

>  <r_i_glide_ligand_efficiency>  (1) 
-0.19492024573421571

>  <r_i_glide_ligand_efficiency_ln>  (1) 
-1.4976261986152088

>  <r_i_glide_ligand_efficiency_sa>  (1) 
-0.63759704899487435

>  <r_i_glide_lipo>  (1) 
-4.2612188466968224

>  <r_i_glide_metal>  (1) 
-0

>  <r_i_glide_rewards>  (1) 
-0.96297527641926495

>  <r_lp_Energy>  (1) 
68.171737999999991

>  <r_lp_tautomer_probability>  (1) 
0.99999998906363929

>  <s_epik_cmdline>  (1) 
J2VwaWtfcHl0aG9uJywgJy1waHQnLCAnMS4wJywgJy1waCcsICc3LjQnLCAnLXRuJywgJzgnLCAnLW1hJywgJzUwMCcsICctaW1hZScsICc8aW5maWxlLm1hZT4nLCAnLW9tYWUnLCAnPG91dGZpbGUubWFlPic=

>  <s_epik_input>  (1) 
W09IXVtDQEhdMVtDSDJdW0NAQEhdKFtDSDNdKVtDQEBIXShbT0hdKVtDQEBdMShbT0hdKU9DMj1DKFtDSDJdW09IXSlbQ0BASF0oU0MyPU8pW0NAQEhdM1tDSDJdW0NASF0oW0NASF0oT1tDSDNdKVtDSDJdW0NIMl0zKVtOSF1jNFtjSF1jKEYpW2NIXVtjSF1jNEY=

>  <s_glide_docking_method>  (1) 
confgen

>  <s_i_glide_gridfile>  (1) 
gpcr_5ht2c_6bqh_protein_autoprepared_prepared

>  <s_lp_Force_Field>  (1) 
S-OPLS

>  <s_lp_Variant>  (1) 
DiffSBDD_50-4

>  <s_m_source_file>  (1) 
generated_GPCR_5HT2C_ligand_DiffSBDD_2026-06-23_prepared.sdf

>  <GenAI_Model>  (1) 
DiffSBDD

>  <Protein>  (1) 
GPCR_5HT2C

$$$$
DiffSBDD_42
     RDKit          3D

  0  0  0  0  0  0  0  0  0  0999 V3000
M  V30 BEGIN CTAB
M  V30 COUNTS 89 94 0 0 1
M  V30 BEGIN ATOM
M  V30 1 C 44.414305 28.303634 64.770797 0
M  V30 2 C 36.766947 30.154598 59.494531 0
M  V30 3 C 38.804717 29.388019 54.060453 0
M  V30 4 C 39.171060 26.981671 53.379705 0
M  V30 5 O 37.645208 33.233586 57.159128 0
M  V30 6 C 39.719376 31.286902 55.299231 0
M  V30 7 C 37.730061 29.333174 54.969520 0
M  V30 8 C 38.657843 31.221451 56.215702 0
M  V30 9 C 42.433059 25.506707 66.178311 0 CFG=2
M  V30 10 C 39.054676 28.838454 51.492772 0
M  V30 11 C 41.946661 28.005330 64.580308 0 CFG=1
M  V30 12 C 39.339095 34.694646 62.075849 0 CFG=1
M  V30 13 C 42.849130 30.235365 64.407808 0
M  V30 14 C 40.101955 34.822534 60.757926 0
M  V30 15 C 40.958556 33.161404 63.902824 0
M  V30 16 C 38.233027 30.404406 59.100335 0
M  V30 17 C 38.069578 35.585025 62.146246 0
M  V30 18 O 39.873089 31.224968 62.987238 0
M  V30 19 C 37.349875 31.428011 61.650294 0
M  V30 20 O 42.808405 25.920195 67.475309 0
M  V30 21 C 39.937079 32.450079 62.985781 0
M  V30 22 C 36.258314 31.049929 60.635864 0
M  V30 23 O 42.127246 33.087428 65.940588 0
M  V30 24 C 39.417910 34.040961 59.596899 0
M  V30 25 C 44.306623 29.776156 64.444656 0
M  V30 26 C 42.493447 32.416610 67.136945 0
M  V30 27 N 38.394640 31.821007 58.793334 0
M  V30 28 C 43.467173 26.015267 65.160978 0
M  V30 29 C 38.600444 32.229240 57.383694 0 CFG=2
M  V30 30 C 37.653820 30.244326 56.041061 0
M  V30 31 C 41.660974 32.248304 64.930862 0 CFG=2
M  V30 32 C 41.018855 26.015631 65.880887 0
M  V30 33 C 38.896956 28.402707 52.930819 0 CFG=2
M  V30 34 C 39.794458 30.377056 54.228981 0
M  V30 35 C 38.206747 32.639781 61.195920 0 CFG=2
M  V30 36 C 41.014149 27.541178 65.700154 0
M  V30 37 O 42.737961 31.601914 64.296878 0
M  V30 38 N 41.837304 29.457130 64.470585 0
M  V30 39 C 43.350972 27.492482 64.836432 0
M  V30 40 C 39.061159 32.554169 59.903744 0 CFG=2
M  V30 41 N 39.136224 33.232853 62.193444 0
M  V30 42 O 37.772760 28.537936 52.057359 0
M  V30 43 H 45.406128 27.914079 64.951547 0
M  V30 44 H 36.087792 30.276814 58.652903 0
M  V30 45 H 36.684174 29.111104 59.769354 0
M  V30 46 H 40.045034 26.939471 54.026002 0
M  V30 47 H 38.317766 26.582945 53.929552 0
M  V30 48 H 39.351880 26.346958 52.512982 0
M  V30 49 H 36.806292 32.804382 56.968817 0
M  V30 50 H 40.483977 32.035639 55.418675 0
M  V30 51 H 36.963834 28.585629 54.846249 0
M  V30 52 H 42.439116 24.416644 66.167979 0
M  V30 53 H 39.244329 29.888665 51.280383 0
M  V30 54 H 39.387399 28.120683 50.745701 0
M  V30 55 H 41.608531 27.563296 63.641987 0
M  V30 56 H 39.991505 35.127201 62.829222 0
M  V30 57 H 40.244009 35.869317 60.495186 0
M  V30 58 H 41.098627 34.431066 60.968907 0
M  V30 59 H 40.445252 33.914624 64.495576 0
M  V30 60 H 41.722987 33.667496 63.312787 0
M  V30 61 H 38.540115 29.748254 58.290380 0
M  V30 62 H 38.893402 30.116352 59.918911 0
M  V30 63 H 38.021948 36.278905 61.306373 0
M  V30 64 H 37.126094 35.042519 62.167601 0
M  V30 65 H 38.085473 36.193822 63.051360 0
M  V30 66 H 36.860603 31.738073 62.567556 0
M  V30 67 H 37.925173 30.536896 61.885587 0
M  V30 68 H 42.779525 26.864960 67.504317 0
M  V30 69 H 35.814170 31.955350 60.218508 0
M  V30 70 H 35.437205 30.538978 61.134146 0
M  V30 71 H 38.477982 34.537590 59.366336 0
M  V30 72 H 40.045192 34.134897 58.722940 0
M  V30 73 H 44.845598 30.351102 65.198026 0
M  V30 74 H 44.776398 29.964304 63.480149 0
M  V30 75 H 42.812865 33.149662 67.878897 0
M  V30 76 H 41.648888 31.866431 67.556440 0
M  V30 77 H 43.318250 31.722448 66.973581 0
M  V30 78 H 44.443845 25.836120 65.579206 0
M  V30 79 H 43.391954 25.451772 64.230726 0
M  V30 80 H 39.574261 32.708647 57.338038 0
M  V30 81 H 36.831199 30.187606 56.726016 0
M  V30 82 H 40.922974 31.574554 65.374853 0
M  V30 83 H 40.640728 25.538399 64.975905 0
M  V30 84 H 40.343482 25.725515 66.687335 0
M  V30 85 H 40.618691 30.434791 53.535715 0
M  V30 86 H 37.433837 33.369306 60.971542 0
M  V30 87 H 41.272642 28.032428 66.639409 0
M  V30 88 H 40.026195 27.881325 65.444380 0
M  V30 89 H 39.981793 32.027494 60.164951 0
M  V30 END ATOM
M  V30 BEGIN BOND
M  V30 1 2 7 3
M  V30 2 1 8 6
M  V30 3 1 14 12
M  V30 4 1 16 2
M  V30 5 1 17 12
M  V30 6 1 20 9
M  V30 7 1 21 15
M  V30 8 2 21 18
M  V30 9 1 22 2
M  V30 10 1 22 19
M  V30 11 1 24 14
M  V30 12 1 25 1
M  V30 13 1 25 13
M  V30 14 1 26 23
M  V30 15 1 27 16
M  V30 16 1 28 9
M  V30 17 1 29 5
M  V30 18 1 29 8
M  V30 19 1 29 27
M  V30 20 1 30 7
M  V30 21 2 30 8
M  V30 22 1 31 15
M  V30 23 1 31 23
M  V30 24 1 32 9
M  V30 25 1 33 3
M  V30 26 1 33 4 CFG=1
M  V30 27 1 33 10
M  V30 28 1 34 3
M  V30 29 2 34 6
M  V30 30 1 35 19
M  V30 31 1 36 11
M  V30 32 1 36 32
M  V30 33 1 37 13
M  V30 34 1 37 31
M  V30 35 1 38 11
M  V30 36 2 38 13
M  V30 37 2 39 1
M  V30 38 1 39 11
M  V30 39 1 39 28
M  V30 40 1 40 24
M  V30 41 1 40 27
M  V30 42 1 40 35
M  V30 43 1 41 12
M  V30 44 1 41 21
M  V30 45 1 41 35
M  V30 46 1 42 10
M  V30 47 1 42 33
M  V30 48 1 43 1
M  V30 49 1 44 2
M  V30 50 1 45 2
M  V30 51 1 46 4
M  V30 52 1 47 4
M  V30 53 1 48 4
M  V30 54 1 49 5
M  V30 55 1 50 6
M  V30 56 1 51 7
M  V30 57 1 9 52 CFG=1
M  V30 58 1 53 10
M  V30 59 1 54 10
M  V30 60 1 11 55 CFG=3
M  V30 61 1 12 56 CFG=1
M  V30 62 1 57 14
M  V30 63 1 58 14
M  V30 64 1 59 15
M  V30 65 1 60 15
M  V30 66 1 61 16
M  V30 67 1 62 16
M  V30 68 1 63 17
M  V30 69 1 64 17
M  V30 70 1 65 17
M  V30 71 1 66 19
M  V30 72 1 67 19
M  V30 73 1 68 20
M  V30 74 1 69 22
M  V30 75 1 70 22
M  V30 76 1 71 24
M  V30 77 1 72 24
M  V30 78 1 73 25
M  V30 79 1 74 25
M  V30 80 1 75 26
M  V30 81 1 76 26
M  V30 82 1 77 26
M  V30 83 1 78 28
M  V30 84 1 79 28
M  V30 85 1 29 80 CFG=1
M  V30 86 1 81 30
M  V30 87 1 31 82 CFG=1
M  V30 88 1 83 32
M  V30 89 1 84 32
M  V30 90 1 85 34
M  V30 91 1 35 86 CFG=3
M  V30 92 1 87 36
M  V30 93 1 88 36
M  V30 94 1 40 89 CFG=1
M  V30 END BOND
M  V30 END CTAB
M  END
>  <i_epik_Tot_Q>  (1) 
0

>  <i_epik_Tot_abs_Q>  (1) 
0

>  <i_i_glide_confnum>  (1) 
497

>  <i_i_glide_lignum>  (1) 
94

>  <i_i_glide_posenum>  (1) 
78

>  <i_i_glide_rotatable_bonds>  (1) 
11

>  <i_lp_mmshare_version>  (1) 
72125

>  <i_m_source_file_index>  (1) 
43

>  <i_f3d_flags>  (1) 
0

>  <num_sample>  (1) 
100

>  <b_lp_Chiralities_Consistent>  (1) 
1

>  <r_epik_Charging_Adjusted_Penalty>  (1) 
1.2329990640451991

>  <r_epik_Ionization_Penalty>  (1) 
0.090641377566339693

>  <r_epik_Ionization_Penalty_Charging>  (1) 
0

>  <r_epik_Ionization_Penalty_Neutral>  (1) 
0.090641377566339693

>  <r_epik_State_Penalty>  (1) 
1.2329990640451991

>  <r_glide_ring_energy>  (1) 
0

>  <r_i_docking_score>  (1) 
-6.8183090770554067

>  <r_i_glide_ecoul>  (1) 
-2.7014237355997097

>  <r_i_glide_eff_state_penalty>  (1) 
1.2329990640451991

>  <r_i_glide_einternal>  (1) 
9.4985634154505689

>  <r_i_glide_emodel>  (1) 
-55.419124327997707

>  <r_i_glide_emodel_strain>  (1) 
3.887462318060102

>  <r_i_glide_energy>  (1) 
-48.266165186596282

>  <r_i_glide_erotb>  (1) 
0.39316795176799535

>  <r_i_glide_esite>  (1) 
-0.064191167998359666

>  <r_i_glide_evdw>  (1) 
-45.564741450996571

>  <r_i_glide_gscore>  (1) 
-8.0513081411006056

>  <r_i_glide_gscore_strain>  (1) 
0

>  <r_i_glide_hbond>  (1) 
-0.19258172991185241

>  <r_i_glide_ligand_efficiency>  (1) 
-0.16234069231084303

>  <r_i_glide_ligand_efficiency_ln>  (1) 
-1.4391693863038788

>  <r_i_glide_ligand_efficiency_sa>  (1) 
-0.56430057202180328

>  <r_i_glide_lipo>  (1) 
-4.1258361519247115

>  <r_i_glide_metal>  (1) 
-0

>  <r_i_glide_rewards>  (1) 
-1.3784164101438923

>  <r_lp_Energy>  (1) 
72.264139999999998

>  <s_epik_Chemistry_Notes>  (1) 
This compound has an imine and may undergo hydrolysis. This compound contains an acetal/aminal-like group ( X-CH(R)-Y where X, Y are N, S, or O) that may be acid/base labile, releasing an aldehyde.

>  <s_epik_cmdline>  (1) 
J2VwaWtfcHl0aG9uJywgJy1waHQnLCAnMS4wJywgJy1waCcsICc3LjQnLCAnLXRuJywgJzgnLCAnLW1hJywgJzUwMCcsICctaW1hZScsICc8aW5maWxlLm1hZT4nLCAnLW9tYWUnLCAnPG91dGZpbGUubWFlPic=

>  <s_epik_input>  (1) 
W0NIMl0xW0NIMl1bQ0BIXShbT0hdKVtDSDJdQyhbQ0BASF0xMik9W0NIXVtDSDJdQyg9TjIpT1tDQEBIXShPW0NIM10pW0NIMl1DKD1PKU4zW0NASF0oW0NIM10pW0NIMl1bQ0gyXVtDQEBIXShbQ0BIXTM0KU4oW0NIMl1bQ0gyXVtDSDJdW0NIMl00KVtDQEhdKFtPSF0pYyhbY0hdW2NIXTUpW2NIXVtjSF1jNUM2KFtDSDNdKVtDSDJdTzY=

>  <s_glide_docking_method>  (1) 
confgen

>  <s_i_glide_gridfile>  (1) 
gpcr_5ht2c_6bqh_protein_autoprepared_prepared

>  <s_lp_Force_Field>  (1) 
S-OPLS

>  <s_lp_Variant>  (1) 
DiffSBDD_42-3

>  <s_m_source_file>  (1) 
generated_GPCR_5HT2C_ligand_DiffSBDD_2026-06-23_prepared.sdf

>  <GenAI_Model>  (1) 
DiffSBDD

>  <Protein>  (1) 
GPCR_5HT2C

$$$$
DiffSBDD_12
     RDKit          3D

  0  0  0  0  0  0  0  0  0  0999 V3000
M  V30 BEGIN CTAB
M  V30 COUNTS 67 69 0 0 1
M  V30 BEGIN ATOM
M  V30 1 C 39.137661 29.132365 51.223644 0 CFG=1
M  V30 2 C 39.766896 28.458706 59.364646 0
M  V30 3 N 38.419743 28.933326 52.483425 0
M  V30 4 C 37.895865 24.829760 58.167823 0
M  V30 5 O 37.245693 30.461429 54.743499 0
M  V30 6 O 41.090422 30.574247 50.831763 0
M  V30 7 N 40.456591 29.504680 63.144158 0 CHG=-1
M  V30 8 C 40.653968 30.366550 64.161775 0
M  V30 9 O 40.845053 30.732891 60.967730 0
M  V30 10 C 39.167460 29.662890 53.476735 0 CFG=1
M  V30 11 C 41.364334 29.644656 67.709631 0
M  V30 12 S 39.832565 27.498634 55.874092 0
M  V30 13 C 39.555728 27.465330 58.523248 0
M  V30 14 C 38.178472 27.553711 52.905759 0
M  V30 15 C 41.370613 30.566056 66.515131 0 CFG=1
M  V30 16 C 38.223902 28.306870 55.372456 0 CFG=1
M  V30 17 O 40.166858 26.421824 54.929563 0
M  V30 18 O 43.019193 31.240402 68.026499 0
M  V30 19 C 39.651455 30.945921 52.806996 0
M  V30 20 C 42.783519 31.126355 66.625135 0 CFG=2
M  V30 21 C 39.733566 28.295938 60.876588 0
M  V30 22 N 42.017200 30.446423 68.726099 0
M  V30 23 O 40.445376 31.580380 64.127477 0
M  V30 24 O 38.484391 30.478812 61.784152 0
M  V30 25 C 38.469208 29.749571 54.853072 0 CFG=2
M  V30 26 C 37.485574 27.470796 54.285776 0
M  V30 27 C 39.204662 25.203665 57.490415 0
M  V30 28 C 39.501847 26.693727 57.452592 0
M  V30 29 O 40.827844 28.537754 56.167809 0
M  V30 30 C 39.763253 30.550202 51.312641 0 CFG=2
M  V30 31 C 40.147499 28.061014 50.829863 0
M  V30 32 C 42.985582 32.496344 65.970154 0
M  V30 33 S 39.856222 29.948943 61.717328 0
M  V30 34 N 41.115467 29.807712 65.289852 0
M  V30 35 H 38.445134 29.106556 50.402674 0
M  V30 36 H 39.982994 29.450929 58.996591 0
M  V30 37 H 37.631812 23.788447 57.976374 0
M  V30 38 H 38.045126 24.937753 59.236104 0
M  V30 39 H 37.066660 25.461026 57.845651 0
M  V30 40 H 36.964635 30.771137 55.596843 0
M  V30 41 H 41.071175 30.457523 49.894540 0
M  V30 42 H 40.045135 29.081180 53.652083 0
M  V30 43 H 40.362906 29.338239 68.012362 0
M  V30 44 H 41.962951 28.752625 67.519680 0
M  V30 45 H 37.598057 27.027893 52.155020 0
M  V30 46 H 39.123157 27.019802 52.952523 0
M  V30 47 H 40.623728 31.350106 66.667421 0
M  V30 48 H 37.645046 28.361819 56.290853 0
M  V30 49 H 38.921129 31.740169 52.967643 0
M  V30 50 H 40.598717 31.285177 53.225421 0
M  V30 51 H 43.502738 30.410436 66.225076 0
M  V30 52 H 38.845082 27.782197 61.234026 0
M  V30 53 H 40.610501 27.730139 61.184159 0
M  V30 54 H 42.533262 29.853107 69.359939 0
M  V30 55 H 39.101347 30.301078 55.549164 0
M  V30 56 H 36.461540 27.825189 54.168044 0
M  V30 57 H 37.408015 26.430789 54.602715 0
M  V30 58 H 39.160304 24.821483 56.472839 0
M  V30 59 H 40.045213 24.691354 57.952806 0
M  V30 60 H 39.245152 31.268494 50.682480 0
M  V30 61 H 40.445132 28.235895 49.799091 0
M  V30 62 H 41.023674 28.137793 51.472810 0
M  V30 63 H 39.740529 27.049938 50.849043 0
M  V30 64 H 42.843551 32.441865 64.891364 0
M  V30 65 H 42.280410 33.227297 66.367893 0
M  V30 66 H 43.992755 32.869213 66.156980 0
M  V30 67 H 41.282690 28.813591 65.305251 0
M  V30 END ATOM
M  V30 BEGIN BOND
M  V30 1 1 3 1
M  V30 2 1 8 7
M  V30 3 1 10 3
M  V30 4 2 13 2
M  V30 5 1 14 3
M  V30 6 1 15 11
M  V30 7 1 16 12
M  V30 8 2 17 12
M  V30 9 1 19 10
M  V30 10 1 20 15
M  V30 11 1 20 18
M  V30 12 1 21 2
M  V30 13 1 22 11
M  V30 14 1 22 18
M  V30 15 2 23 8
M  V30 16 1 25 5
M  V30 17 1 25 10
M  V30 18 1 25 16
M  V30 19 1 26 14
M  V30 20 1 26 16
M  V30 21 1 27 4
M  V30 22 1 28 12
M  V30 23 2 28 13
M  V30 24 1 28 27
M  V30 25 2 29 12
M  V30 26 1 30 1
M  V30 27 1 30 6
M  V30 28 1 30 19
M  V30 29 1 31 1
M  V30 30 1 32 20
M  V30 31 1 33 7
M  V30 32 2 33 9
M  V30 33 1 33 21
M  V30 34 2 33 24
M  V30 35 1 34 8
M  V30 36 1 34 15
M  V30 37 1 1 35 CFG=3
M  V30 38 1 36 2
M  V30 39 1 37 4
M  V30 40 1 38 4
M  V30 41 1 39 4
M  V30 42 1 40 5
M  V30 43 1 41 6
M  V30 44 1 10 42 CFG=1
M  V30 45 1 43 11
M  V30 46 1 44 11
M  V30 47 1 45 14
M  V30 48 1 46 14
M  V30 49 1 15 47 CFG=1
M  V30 50 1 16 48 CFG=1
M  V30 51 1 49 19
M  V30 52 1 50 19
M  V30 53 1 20 51 CFG=3
M  V30 54 1 52 21
M  V30 55 1 53 21
M  V30 56 1 54 22
M  V30 57 1 25 55 CFG=1
M  V30 58 1 56 26
M  V30 59 1 57 26
M  V30 60 1 58 27
M  V30 61 1 59 27
M  V30 62 1 30 60 CFG=3
M  V30 63 1 61 31
M  V30 64 1 62 31
M  V30 65 1 63 31
M  V30 66 1 64 32
M  V30 67 1 65 32
M  V30 68 1 66 32
M  V30 69 1 67 34
M  V30 END BOND
M  V30 END CTAB
M  END
>  <i_epik_Tot_Q>  (1) 
-1

>  <i_epik_Tot_abs_Q>  (1) 
1

>  <i_i_glide_confnum>  (1) 
1845

>  <i_i_glide_lignum>  (1) 
21

>  <i_i_glide_posenum>  (1) 
51

>  <i_i_glide_rotatable_bonds>  (1) 
11

>  <i_lp_mmshare_version>  (1) 
72125

>  <i_m_source_file_index>  (1) 
13

>  <i_f3d_flags>  (1) 
0

>  <num_sample>  (1) 
100

>  <b_lp_Chiralities_Consistent>  (1) 
1

>  <r_epik_Charging_Adjusted_Penalty>  (1) 
0.54032877013992786

>  <r_epik_Ionization_Penalty>  (1) 
0.54134665641143098

>  <r_epik_Ionization_Penalty_Charging>  (1) 
0.00017066470294595392

>  <r_epik_Ionization_Penalty_Neutral>  (1) 
0.54117599170848507

>  <r_epik_State_Penalty>  (1) 
0.54015810543698195

>  <r_glide_ring_energy>  (1) 
0

>  <r_i_docking_score>  (1) 
-6.8081159163347014

>  <r_i_glide_ecoul>  (1) 
-9.5695367763824386

>  <r_i_glide_eff_state_penalty>  (1) 
0.54015810543698195

>  <r_i_glide_einternal>  (1) 
7.1146571958983618

>  <r_i_glide_emodel>  (1) 
-58.180031986522835

>  <r_i_glide_emodel_strain>  (1) 
3.5421909651682313

>  <r_i_glide_energy>  (1) 
-49.99950717321903

>  <r_i_glide_erotb>  (1) 
0.6799936626702181

>  <r_i_glide_esite>  (1) 
-0.032575827968455082

>  <r_i_glide_evdw>  (1) 
-40.429970396836595

>  <r_i_glide_gscore>  (1) 
-7.3482740217716831

>  <r_i_glide_gscore_strain>  (1) 
0

>  <r_i_glide_hbond>  (1) 
-0.045755332842645685

>  <r_i_glide_ligand_efficiency>  (1) 
-0.20023870342160888

>  <r_i_glide_ligand_efficiency_ln>  (1) 
-1.5041037671015025

>  <r_i_glide_ligand_efficiency_sa>  (1) 
-0.64869566667714618

>  <r_i_glide_lipo>  (1) 
-4.0980728618169975

>  <r_i_glide_metal>  (1) 
-0

>  <r_i_glide_rewards>  (1) 
-0.39493462551460756

>  <r_lp_Energy>  (1) 
-18.368317999999999

>  <s_epik_Chemistry_Notes>  (1) 
This compound has a N-S or N-O group and may undergo hydrolysis at high or low pH.

>  <s_epik_cmdline>  (1) 
J2VwaWtfcHl0aG9uJywgJy1waHQnLCAnMS4wJywgJy1waCcsICc3LjQnLCAnLXRuJywgJzgnLCAnLW1hJywgJzUwMCcsICctaW1hZScsICc8aW5maWxlLm1hZT4nLCAnLW9tYWUnLCAnPG91dGZpbGUubWFlPic=

>  <s_epik_input>  (1) 
W0NIM11bQ0BASF0xW0NASF0oW09IXSlbQ0gyXVtDQEhdKE4xMilbQ0BASF0oW09IXSlbQ0BASF0oW0NIMl1bQ0gyXTIpUyg9TykoPU8pQyhbQ0gyXVtDSDNdKT1DPVtDSF1bQ0gyXVMoPU8pKD1PKVtOSF1DKD1PKVtOSF1bQ0BIXTNbQ0gyXVtOSF1PW0NAQEhdM1tDSDNd

>  <s_glide_docking_method>  (1) 
confgen

>  <s_i_glide_gridfile>  (1) 
gpcr_5ht2c_6bqh_protein_autoprepared_prepared

>  <s_lp_Force_Field>  (1) 
S-OPLS

>  <s_lp_Variant>  (1) 
DiffSBDD_12-3

>  <s_m_source_file>  (1) 
generated_GPCR_5HT2C_ligand_DiffSBDD_2026-06-23_prepared.sdf

>  <GenAI_Model>  (1) 
DiffSBDD

>  <Protein>  (1) 
GPCR_5HT2C

$$$$
DiffSBDD_83
     RDKit          3D

  0  0  0  0  0  0  0  0  0  0999 V3000
M  V30 BEGIN CTAB
M  V30 COUNTS 54 55 0 0 1
M  V30 BEGIN ATOM
M  V30 1 C 40.380306 35.069796 62.707358 0
M  V30 2 C 38.543560 31.319458 56.656693 0
M  V30 3 N 38.445128 30.645688 57.840226 0
M  V30 4 O 37.245137 28.243676 53.879770 0
M  V30 5 O 40.843686 35.544718 63.915857 0
M  V30 6 C 38.564725 35.532607 61.023089 0
M  V30 7 C 37.430528 36.399148 60.491519 0
M  V30 8 C 38.829107 27.529494 52.496306 0
M  V30 9 C 37.437177 25.530933 57.320443 0
M  V30 10 C 39.237406 35.885962 62.153983 0
M  V30 11 C 38.792569 30.626141 55.352049 0
M  V30 12 C 37.763644 33.833561 59.219471 0
M  V30 13 N 38.197810 31.436030 58.898140 0
M  V30 14 O 40.045138 36.537755 64.641678 0
M  V30 15 C 38.778109 28.042425 55.809592 0 CFG=1
M  V30 16 C 40.844443 27.404206 57.311174 0
M  V30 17 C 37.755563 28.223992 52.649128 0
M  V30 18 O 40.869052 34.089699 62.149116 0
M  V30 19 C 38.194389 27.359843 54.532177 0 CFG=2
M  V30 20 C 38.351162 32.636915 56.940810 0
M  V30 21 O 39.252417 26.940015 53.620688 0
M  V30 22 C 38.631005 26.375053 57.788925 0
M  V30 23 C 39.523904 26.946171 56.656472 0 CFG=1
M  V30 24 C 38.111150 32.655327 58.354690 0
M  V30 25 Cl 39.645010 27.374239 50.985091 0
M  V30 26 C 38.876013 34.262734 60.201079 0
M  V30 27 C 39.597510 29.313302 55.407732 0
M  V30 28 H 38.535924 29.645632 57.941347 0
M  V30 29 H 37.645085 36.741815 59.478705 0
M  V30 30 H 36.483693 35.858869 60.490640 0
M  V30 31 H 37.292983 37.286719 61.109883 0
M  V30 32 H 36.949096 25.049732 58.167751 0
M  V30 33 H 36.683742 26.137746 56.820499 0
M  V30 34 H 37.753507 24.742491 56.636790 0
M  V30 35 H 38.947821 36.782559 62.674377 0
M  V30 36 H 37.839030 30.467964 54.849548 0
M  V30 37 H 39.336976 31.320856 54.711301 0
M  V30 38 H 36.855176 33.606595 59.778457 0
M  V30 39 H 37.503722 34.654286 58.552958 0
M  V30 40 H 40.612579 37.300370 64.567751 0
M  V30 41 H 37.920638 28.377413 56.393092 0
M  V30 42 H 40.691299 28.243692 57.990405 0
M  V30 43 H 41.296448 26.597669 57.889615 0
M  V30 44 H 41.587977 27.690230 56.567759 0
M  V30 45 H 37.208912 28.793740 51.915392 0
M  V30 46 H 37.635094 26.459612 54.784539 0
M  V30 47 H 38.344050 33.462909 56.245487 0
M  V30 48 H 39.237278 25.736743 58.432447 0
M  V30 49 H 38.277917 27.182255 58.432185 0
M  V30 50 H 39.803563 26.118736 56.001962 0
M  V30 51 H 39.812122 34.413979 59.664292 0
M  V30 52 H 39.010036 33.410045 60.864706 0
M  V30 53 H 40.045132 29.164702 54.431049 0
M  V30 54 H 40.439540 29.509233 56.063394 0
M  V30 END ATOM
M  V30 BEGIN BOND
M  V30 1 1 3 2
M  V30 2 1 5 1
M  V30 3 1 7 6
M  V30 4 1 10 1
M  V30 5 2 10 6
M  V30 6 1 11 2
M  V30 7 1 13 3
M  V30 8 1 14 5
M  V30 9 1 17 4
M  V30 10 2 17 8
M  V30 11 2 18 1
M  V30 12 1 19 4
M  V30 13 1 19 15
M  V30 14 2 20 2
M  V30 15 1 21 8
M  V30 16 1 21 19
M  V30 17 1 22 9
M  V30 18 1 23 15
M  V30 19 1 23 16
M  V30 20 1 23 22
M  V30 21 1 24 12
M  V30 22 2 24 13
M  V30 23 1 24 20
M  V30 24 1 25 8
M  V30 25 1 26 6
M  V30 26 1 26 12
M  V30 27 1 27 11
M  V30 28 1 27 15
M  V30 29 1 28 3
M  V30 30 1 29 7
M  V30 31 1 30 7
M  V30 32 1 31 7
M  V30 33 1 32 9
M  V30 34 1 33 9
M  V30 35 1 34 9
M  V30 36 1 35 10
M  V30 37 1 36 11
M  V30 38 1 37 11
M  V30 39 1 38 12
M  V30 40 1 39 12
M  V30 41 1 40 14
M  V30 42 1 15 41 CFG=1
M  V30 43 1 42 16
M  V30 44 1 43 16
M  V30 45 1 44 16
M  V30 46 1 45 17
M  V30 47 1 19 46 CFG=1
M  V30 48 1 47 20
M  V30 49 1 48 22
M  V30 50 1 49 22
M  V30 51 1 23 50 CFG=3
M  V30 52 1 51 26
M  V30 53 1 52 26
M  V30 54 1 53 27
M  V30 55 1 54 27
M  V30 END BOND
M  V30 END CTAB
M  END
>  <i_epik_Tot_Q>  (1) 
0

>  <i_epik_Tot_abs_Q>  (1) 
0

>  <i_i_glide_confnum>  (1) 
1822

>  <i_i_glide_lignum>  (1) 
192

>  <i_i_glide_posenum>  (1) 
238

>  <i_i_glide_rotatable_bonds>  (1) 
12

>  <i_lp_mmshare_version>  (1) 
72125

>  <i_m_source_file_index>  (1) 
84

>  <i_f3d_flags>  (1) 
0

>  <num_sample>  (1) 
100

>  <b_lp_Chiralities_Consistent>  (1) 
1

>  <r_epik_Charging_Adjusted_Penalty>  (1) 
0.41067983895260396

>  <r_epik_Ionization_Penalty>  (1) 
0.00076996626271645392

>  <r_epik_Ionization_Penalty_Charging>  (1) 
0

>  <r_epik_Ionization_Penalty_Neutral>  (1) 
0.00076996626271645392

>  <r_epik_State_Penalty>  (1) 
0.41067983895260396

>  <r_glide_ring_energy>  (1) 
0

>  <r_i_docking_score>  (1) 
-6.7854858954274961

>  <r_i_glide_ecoul>  (1) 
-4.7556852817213171

>  <r_i_glide_eff_state_penalty>  (1) 
0.41067983895260396

>  <r_i_glide_einternal>  (1) 
14.852236310205051

>  <r_i_glide_emodel>  (1) 
-56.711112178813003

>  <r_i_glide_emodel_strain>  (1) 
0.76193213880032573

>  <r_i_glide_energy>  (1) 
-45.662498956140027

>  <r_i_glide_erotb>  (1) 
1.1080255732668134

>  <r_i_glide_esite>  (1) 
-0.079619731644315558

>  <r_i_glide_evdw>  (1) 
-40.906813674418707

>  <r_i_glide_gscore>  (1) 
-7.1961657343801004

>  <r_i_glide_gscore_strain>  (1) 
0

>  <r_i_glide_hbond>  (1) 
-0.32000000000000001

>  <r_i_glide_ligand_efficiency>  (1) 
-0.2513142924232406

>  <r_i_glide_ligand_efficiency_ln>  (1) 
-1.5795492489776166

>  <r_i_glide_ligand_efficiency_sa>  (1) 
-0.75394287726972198

>  <r_i_glide_lipo>  (1) 
-3.1879006054417691

>  <r_i_glide_metal>  (1) 
-0

>  <r_i_glide_rewards>  (1) 
-1.9579774945816961

>  <r_lp_Energy>  (1) 
14.849965999999998

>  <r_lp_tautomer_probability>  (1) 
0.5

>  <s_epik_Chemistry_Notes>  (1) 
This compound contains an acetal/aminal-like group ( X-CH(R)-Y where X, Y are N, S, or O) that may be acid/base labile, releasing an aldehyde.

>  <s_epik_cmdline>  (1) 
J2VwaWtfcHl0aG9uJywgJy1waHQnLCAnMS4wJywgJy1waCcsICc3LjQnLCAnLXRuJywgJzgnLCAnLW1hJywgJzUwMCcsICctaW1hZScsICc8aW5maWxlLm1hZT4nLCAnLW9tYWUnLCAnPG91dGZpbGUubWFlPic=

>  <s_epik_input>  (1) 
W09IXU9DKD1PKVxbQ0hdPUMoXFtDSDNdKVtDSDJdW0NIMl1jKFtjSF0xKW5bbkhdYzFbQ0gyXVtDSDJdW0NASF0oW0NAQEhdKFtDSDNdKVtDSDJdW0NIM10pW0NAQEhdKE8yKU9bQ0hdPUMyQ2w=

>  <s_glide_docking_method>  (1) 
confgen

>  <s_i_glide_gridfile>  (1) 
gpcr_5ht2c_6bqh_protein_autoprepared_prepared

>  <s_lp_Force_Field>  (1) 
S-OPLS

>  <s_lp_Variant>  (1) 
DiffSBDD_83-3

>  <s_m_source_file>  (1) 
generated_GPCR_5HT2C_ligand_DiffSBDD_2026-06-23_prepared.sdf

>  <GenAI_Model>  (1) 
DiffSBDD

>  <Protein>  (1) 
GPCR_5HT2C

$$$$
DiffSBDD_75
     RDKit          3D

  0  0  0  0  0  0  0  0  0  0999 V3000
M  V30 BEGIN CTAB
M  V30 COUNTS 77 78 0 0 1
M  V30 BEGIN ATOM
M  V30 1 C 38.759148 29.092367 59.916322 0
M  V30 2 C 39.862635 29.955703 62.639711 0
M  V30 3 O 36.585836 34.421741 59.654729 0
M  V30 4 C 40.592331 26.982465 58.212944 0
M  V30 5 C 37.107831 36.295907 61.791387 0 CFG=1
M  V30 6 C 38.596509 29.299029 53.624859 0
M  V30 7 C 37.879690 34.459066 60.230071 0 CFG=2
M  V30 8 C 39.422886 30.413652 53.357526 0
M  V30 9 O 37.652661 38.324480 60.608932 0
M  V30 10 C 39.181525 34.976305 62.463500 0 CFG=2
M  V30 11 O 40.444879 29.707471 49.888426 0
M  V30 12 S 37.810644 31.656967 60.717555 0
M  V30 13 C 41.443194 27.256776 56.979125 0
M  V30 14 C 39.846255 29.568244 51.106603 0
M  V30 15 C 38.538362 33.111143 59.880908 0
M  V30 16 C 37.920825 29.146289 54.983346 0
M  V30 17 C 38.396627 28.320060 52.625458 0
M  V30 18 O 41.288174 36.135429 62.625276 0
M  V30 19 C 39.895155 33.638952 62.752854 0
M  V30 20 C 37.807255 34.902443 61.707683 0 CFG=1
M  V30 21 O 40.840118 26.538544 55.924285 0
M  V30 22 O 40.218997 30.496705 61.377101 0
M  V30 23 O 36.869233 29.736542 57.815571 0
M  V30 24 C 38.164854 26.561939 58.299336 0
M  V30 25 N 39.238567 27.509759 57.947472 0 CFG=1 CHG=1
M  V30 26 C 38.042861 29.590044 57.495267 0
M  V30 27 C 40.045476 30.543474 52.100517 0
M  V30 28 C 38.527469 30.006301 56.110659 0
M  V30 29 C 39.072211 28.915690 58.405312 0 CFG=1
M  V30 30 C 39.023977 28.453789 51.368270 0
M  V30 31 C 39.443163 37.450264 61.960597 0
M  V30 32 C 39.175575 30.497637 60.411773 0 CFG=1
M  V30 33 C 36.444793 36.590495 63.146071 0
M  V30 34 C 40.102190 36.062555 61.872056 0 CFG=2
M  V30 35 C 38.032460 37.443614 61.375230 0
M  V30 36 H 37.702197 28.924333 60.121126 0
M  V30 37 H 39.300013 28.333205 60.481850 0
M  V30 38 H 40.687275 30.092785 63.338848 0
M  V30 39 H 38.985643 30.449497 63.059515 0
M  V30 40 H 39.661856 28.888044 62.573181 0
M  V30 41 H 36.461359 35.175306 59.094068 0
M  V30 42 H 41.029426 27.442180 59.101030 0
M  V30 43 H 40.560219 25.906890 58.400871 0
M  V30 44 H 38.449991 35.245558 59.767336 0
M  V30 45 H 39.579984 31.171980 54.110517 0
M  V30 46 H 39.372885 37.753807 63.005021 0
M  V30 47 H 38.941019 35.346021 63.451315 0
M  V30 48 H 40.951560 30.501088 49.805380 0
M  V30 49 H 41.459698 28.318983 56.736724 0
M  V30 50 H 42.475305 26.938160 57.122806 0
M  V30 51 H 39.606852 33.164080 60.071173 0
M  V30 52 H 38.457098 32.934388 58.806235 0
M  V30 53 H 36.864384 29.392080 54.867986 0
M  V30 54 H 37.960791 28.089821 55.256250 0
M  V30 55 H 37.762492 27.467391 52.822536 0
M  V30 56 H 41.647385 35.266588 62.715299 0
M  V30 57 H 40.535874 33.306754 61.938766 0
M  V30 58 H 40.543598 33.735052 63.624159 0
M  V30 59 H 39.180968 32.852438 62.988576 0
M  V30 60 H 37.147761 34.170812 62.167701 0
M  V30 61 H 41.188760 25.655027 55.945745 0
M  V30 62 H 38.168896 26.391417 59.367919 0
M  V30 63 H 37.186580 26.930949 57.994247 0
M  V30 64 H 38.326530 25.601102 57.810618 0
M  V30 65 H 40.674490 31.396196 51.899270 0
M  V30 66 H 39.613373 29.923559 56.092522 0
M  V30 67 H 38.292752 31.062088 55.961493 0
M  V30 68 H 40.033438 29.394364 58.208979 0
M  V30 69 H 38.870215 27.702755 50.605363 0
M  V30 70 H 40.043992 38.205937 61.458121 0
M  V30 71 H 36.310510 36.320888 61.054464 0
M  V30 72 H 39.645035 30.950385 59.552900 0
M  V30 73 H 35.932515 37.554735 63.124736 0
M  V30 74 H 35.692856 35.832263 63.365572 0
M  V30 75 H 37.156314 36.613152 63.971861 0
M  V30 76 H 40.372511 35.825018 60.842598 0
M  V30 77 H 39.224955 27.540823 56.934046 0
M  V30 END ATOM
M  V30 BEGIN BOND
M  V30 1 1 7 3
M  V30 2 1 8 6
M  V30 3 1 13 4
M  V30 4 1 14 11
M  V30 5 1 15 7
M  V30 6 1 15 12
M  V30 7 1 16 6
M  V30 8 2 17 6
M  V30 9 1 19 10
M  V30 10 1 20 5
M  V30 11 1 20 7
M  V30 12 1 20 10
M  V30 13 1 21 13
M  V30 14 1 22 2
M  V30 15 1 25 4
M  V30 16 1 25 24
M  V30 17 2 26 23
M  V30 18 2 27 8
M  V30 19 1 27 14
M  V30 20 1 28 16
M  V30 21 1 28 26
M  V30 22 1 29 1
M  V30 23 1 29 25
M  V30 24 1 29 26
M  V30 25 2 30 14
M  V30 26 1 30 17
M  V30 27 1 32 1
M  V30 28 1 32 12
M  V30 29 1 32 22
M  V30 30 1 33 5
M  V30 31 1 34 10
M  V30 32 1 34 18
M  V30 33 1 34 31
M  V30 34 1 35 5
M  V30 35 2 35 9
M  V30 36 1 35 31
M  V30 37 1 36 1
M  V30 38 1 37 1
M  V30 39 1 38 2
M  V30 40 1 39 2
M  V30 41 1 40 2
M  V30 42 1 41 3
M  V30 43 1 42 4
M  V30 44 1 43 4
M  V30 45 1 7 44 CFG=3
M  V30 46 1 45 8
M  V30 47 1 46 31
M  V30 48 1 10 47 CFG=1
M  V30 49 1 48 11
M  V30 50 1 49 13
M  V30 51 1 50 13
M  V30 52 1 51 15
M  V30 53 1 52 15
M  V30 54 1 53 16
M  V30 55 1 54 16
M  V30 56 1 55 17
M  V30 57 1 56 18
M  V30 58 1 57 19
M  V30 59 1 58 19
M  V30 60 1 59 19
M  V30 61 1 20 60 CFG=1
M  V30 62 1 61 21
M  V30 63 1 62 24
M  V30 64 1 63 24
M  V30 65 1 64 24
M  V30 66 1 65 27
M  V30 67 1 66 28
M  V30 68 1 67 28
M  V30 69 1 29 68 CFG=1
M  V30 70 1 69 30
M  V30 71 1 70 31
M  V30 72 1 5 71 CFG=3
M  V30 73 1 32 72 CFG=3
M  V30 74 1 73 33
M  V30 75 1 74 33
M  V30 76 1 75 33
M  V30 77 1 34 76 CFG=3
M  V30 78 1 25 77 CFG=3
M  V30 END BOND
M  V30 END CTAB
M  END
>  <i_epik_Tot_Q>  (1) 
1

>  <i_epik_Tot_abs_Q>  (1) 
1

>  <i_i_glide_confnum>  (1) 
818

>  <i_i_glide_lignum>  (1) 
166

>  <i_i_glide_posenum>  (1) 
299

>  <i_i_glide_rotatable_bonds>  (1) 
18

>  <i_lp_mmshare_version>  (1) 
72125

>  <i_m_source_file_index>  (1) 
76

>  <i_f3d_flags>  (1) 
0

>  <num_sample>  (1) 
100

>  <b_lp_Chiralities_Consistent>  (1) 
1

>  <r_epik_Charging_Adjusted_Penalty>  (1) 
0.52789471212939676

>  <r_epik_Ionization_Penalty>  (1) 
0.26592108790513191

>  <r_epik_Ionization_Penalty_Charging>  (1) 
0.26394735606469838

>  <r_epik_Ionization_Penalty_Neutral>  (1) 
0.0019737318404335234

>  <r_epik_State_Penalty>  (1) 
0.26394735606469838

>  <r_glide_ring_energy>  (1) 
0

>  <r_i_docking_score>  (1) 
-6.7840250497928647

>  <r_i_glide_ecoul>  (1) 
-3.2289645517370533

>  <r_i_glide_eff_state_penalty>  (1) 
0.26394735606469838

>  <r_i_glide_einternal>  (1) 
15.526740530396086

>  <r_i_glide_emodel>  (1) 
-61.919567735181971

>  <r_i_glide_emodel_strain>  (1) 
2.2929288888827841

>  <r_i_glide_energy>  (1) 
-47.607747958652332

>  <r_i_glide_erotb>  (1) 
1.0139394581015995

>  <r_i_glide_esite>  (1) 
-0.036061240113746965

>  <r_i_glide_evdw>  (1) 
-44.378783406915282

>  <r_i_glide_gscore>  (1) 
-7.0479724058575632

>  <r_i_glide_gscore_strain>  (1) 
0

>  <r_i_glide_hbond>  (1) 
-0.24203865764215496

>  <r_i_glide_ligand_efficiency>  (1) 
-0.193829287136939

>  <r_i_glide_ligand_efficiency_ln>  (1) 
-1.4892440617533769

>  <r_i_glide_ligand_efficiency_sa>  (1) 
-0.63402845108151185

>  <r_i_glide_lipo>  (1) 
-4.2222639327998923

>  <r_i_glide_metal>  (1) 
-0

>  <r_i_glide_rewards>  (1) 
-0.85826418029704599

>  <r_lp_Energy>  (1) 
31.761440999999998

>  <r_lp_tautomer_probability>  (1) 
0.99989998499911525

>  <s_epik_Chemistry_Notes>  (1) 
This compound contains an acetal/aminal-like group ( X-CH(R)-Y where X, Y are N, S, or O) that may be acid/base labile, releasing an aldehyde.

>  <s_epik_cmdline>  (1) 
J2VwaWtfcHl0aG9uJywgJy1waHQnLCAnMS4wJywgJy1waCcsICc3LjQnLCAnLXRuJywgJzgnLCAnLW1hJywgJzUwMCcsICctaW1hZScsICc8aW5maWxlLm1hZT4nLCAnLW9tYWUnLCAnPG91dGZpbGUubWFlPic=

>  <s_epik_input>  (1) 
W2NIXTFbY0hdYyhbT0hdKVtjSF1bY0hdYzFbQ0gyXVtDSDJdQyg9TylbQ0BIXShOKFtDSDNdKVtDSDJdW0NIMl1bT0hdKVtDSDJdW0NASF0oT1tDSDNdKVNbQ0gyXVtDQEBIXShbT0hdKVtDQEhdMltDQEBIXShbQ0gzXSlbQ0BIXShbT0hdKVtDSDJdQyhbT0hdKT1DMltDSDNd

>  <s_glide_docking_method>  (1) 
confgen

>  <s_i_glide_gridfile>  (1) 
gpcr_5ht2c_6bqh_protein_autoprepared_prepared

>  <s_lp_Force_Field>  (1) 
S-OPLS

>  <s_lp_Variant>  (1) 
DiffSBDD_75-3

>  <s_m_source_file>  (1) 
generated_GPCR_5HT2C_ligand_DiffSBDD_2026-06-23_prepared.sdf

>  <GenAI_Model>  (1) 
DiffSBDD

>  <Protein>  (1) 
GPCR_5HT2C

$$$$
DiffSBDD_75
     RDKit          3D

  0  0  0  0  0  0  0  0  0  0999 V3000
M  V30 BEGIN CTAB
M  V30 COUNTS 77 78 0 0 1
M  V30 BEGIN ATOM
M  V30 1 C 39.754523 31.315192 61.922662 0
M  V30 2 C 36.607576 33.241779 61.540791 0
M  V30 3 O 36.845148 29.696573 57.673059 0
M  V30 4 C 42.283347 30.320357 63.412423 0
M  V30 5 C 38.868257 30.123698 55.755594 0 CFG=1
M  V30 6 C 40.330988 36.084282 63.202192 0
M  V30 7 C 38.119638 29.290645 58.130629 0 CFG=2
M  V30 8 C 39.362606 36.528354 64.122467 0
M  V30 9 O 37.245141 29.350865 54.157905 0
M  V30 10 C 40.193437 28.266820 56.915194 0 CFG=2
M  V30 11 O 36.600748 37.384338 61.855454 0
M  V30 12 S 38.445139 31.723329 59.457096 0
M  V30 13 C 43.229118 29.633643 64.416325 0
M  V30 14 C 37.815016 36.951858 62.291795 0
M  V30 15 C 38.329294 29.912791 59.520171 0
M  V30 16 C 41.674766 35.587124 63.697938 0
M  V30 17 C 40.042393 36.087183 61.821086 0
M  V30 18 O 40.319378 26.137746 55.771539 0
M  V30 19 C 40.792222 27.732177 58.232847 0
M  V30 20 C 39.302069 29.526062 57.123330 0 CFG=1
M  V30 21 O 44.415308 29.227651 63.767762 0
M  V30 22 O 37.506994 32.219618 61.966109 0
M  V30 23 O 41.771055 33.337744 61.769759 0
M  V30 24 C 40.270283 30.085497 64.819987 0
M  V30 25 N 41.140646 31.019897 64.070761 0 CFG=2 CHG=1
M  V30 26 C 41.282472 33.159534 62.883398 0
M  V30 27 C 38.102141 36.943593 63.667655 0
M  V30 28 C 41.647841 34.085684 64.051825 0
M  V30 29 C 40.368008 31.962389 63.198660 0 CFG=1
M  V30 30 C 38.784016 36.523171 61.367762 0
M  V30 31 C 38.869974 27.696452 54.773157 0
M  V30 32 C 38.703155 32.200263 61.198826 0 CFG=1
M  V30 33 C 39.988073 30.876005 55.010722 0
M  V30 34 C 39.437069 27.186090 56.110064 0 CFG=2
M  V30 35 C 38.225572 29.079796 54.835581 0
M  V30 36 H 40.555904 31.068998 61.225136 0
M  V30 37 H 39.281769 30.368272 62.184848 0
M  V30 38 H 35.720615 33.272273 62.167713 0
M  V30 39 H 37.070759 34.225935 61.595808 0
M  V30 40 H 36.261032 33.080542 60.519718 0
M  V30 41 H 36.769110 30.641714 57.568930 0
M  V30 42 H 41.913038 29.589929 62.691305 0
M  V30 43 H 42.875309 31.043466 62.854761 0
M  V30 44 H 38.000216 28.220320 58.287104 0
M  V30 45 H 39.581198 36.529270 65.180586 0
M  V30 46 H 39.645143 27.752406 54.014188 0
M  V30 47 H 41.049248 28.564093 56.309807 0
M  V30 48 H 36.534980 37.444003 60.914733 0
M  V30 49 H 43.502084 30.320676 65.218869 0
M  V30 50 H 42.763492 28.760116 64.874624 0
M  V30 51 H 39.231577 29.499976 59.967752 0
M  V30 52 H 37.495307 29.647766 60.167762 0
M  V30 53 H 42.445131 35.817768 62.967773 0
M  V30 54 H 41.948649 36.137733 64.596989 0
M  V30 55 H 40.784883 35.751781 61.111442 0
M  V30 56 H 40.775618 25.846806 56.548236 0
M  V30 57 H 40.034444 27.292759 58.881423 0
M  V30 58 H 41.544152 26.964999 58.045516 0
M  V30 59 H 41.288058 28.528800 58.788677 0
M  V30 60 H 39.954318 30.272114 57.570124 0
M  V30 61 H 44.222427 28.541563 63.141324 0
M  V30 62 H 40.045133 29.224740 64.195958 0
M  V30 63 H 40.770600 29.719377 65.716392 0
M  V30 64 H 39.331304 30.537750 65.139144 0
M  V30 65 H 37.356286 37.272238 64.375170 0
M  V30 66 H 42.626589 33.788679 64.428247 0
M  V30 67 H 40.940339 33.922681 64.864818 0
M  V30 68 H 39.545297 32.352909 63.792100 0
M  V30 69 H 38.562038 36.526410 60.310676 0
M  V30 70 H 38.136276 26.983741 54.394853 0
M  V30 71 H 38.103485 30.877494 55.943954 0
M  V30 72 H 39.089519 33.218845 61.152365 0
M  V30 73 H 39.630785 31.270426 54.058191 0
M  V30 74 H 40.334618 31.729627 55.592199 0
M  V30 75 H 40.845201 30.240338 54.798143 0
M  V30 76 H 38.628597 26.762532 56.706896 0
M  V30 77 H 41.555368 31.613073 64.775933 0
M  V30 END ATOM
M  V30 BEGIN BOND
M  V30 1 1 7 3
M  V30 2 1 8 6
M  V30 3 1 13 4
M  V30 4 1 14 11
M  V30 5 1 15 7
M  V30 6 1 15 12
M  V30 7 1 16 6
M  V30 8 2 17 6
M  V30 9 1 19 10
M  V30 10 1 20 5
M  V30 11 1 20 7
M  V30 12 1 20 10
M  V30 13 1 21 13
M  V30 14 1 22 2
M  V30 15 1 25 4
M  V30 16 1 25 24
M  V30 17 2 26 23
M  V30 18 2 27 8
M  V30 19 1 27 14
M  V30 20 1 28 16
M  V30 21 1 28 26
M  V30 22 1 29 1
M  V30 23 1 29 25
M  V30 24 1 29 26
M  V30 25 2 30 14
M  V30 26 1 30 17
M  V30 27 1 32 1
M  V30 28 1 32 12
M  V30 29 1 32 22
M  V30 30 1 33 5
M  V30 31 1 34 10
M  V30 32 1 34 18
M  V30 33 1 34 31
M  V30 34 1 35 5
M  V30 35 2 35 9
M  V30 36 1 35 31
M  V30 37 1 36 1
M  V30 38 1 37 1
M  V30 39 1 38 2
M  V30 40 1 39 2
M  V30 41 1 40 2
M  V30 42 1 41 3
M  V30 43 1 42 4
M  V30 44 1 43 4
M  V30 45 1 7 44 CFG=1
M  V30 46 1 45 8
M  V30 47 1 46 31
M  V30 48 1 10 47 CFG=3
M  V30 49 1 48 11
M  V30 50 1 49 13
M  V30 51 1 50 13
M  V30 52 1 51 15
M  V30 53 1 52 15
M  V30 54 1 53 16
M  V30 55 1 54 16
M  V30 56 1 55 17
M  V30 57 1 56 18
M  V30 58 1 57 19
M  V30 59 1 58 19
M  V30 60 1 59 19
M  V30 61 1 20 60 CFG=1
M  V30 62 1 61 21
M  V30 63 1 62 24
M  V30 64 1 63 24
M  V30 65 1 64 24
M  V30 66 1 65 27
M  V30 67 1 66 28
M  V30 68 1 67 28
M  V30 69 1 29 68 CFG=1
M  V30 70 1 69 30
M  V30 71 1 70 31
M  V30 72 1 5 71 CFG=1
M  V30 73 1 32 72 CFG=3
M  V30 74 1 73 33
M  V30 75 1 74 33
M  V30 76 1 75 33
M  V30 77 1 34 76 CFG=1
M  V30 78 1 25 77 CFG=1
M  V30 END BOND
M  V30 END CTAB
M  END
>  <i_epik_Tot_Q>  (1) 
1

>  <i_epik_Tot_abs_Q>  (1) 
1

>  <i_i_glide_confnum>  (1) 
6066

>  <i_i_glide_lignum>  (1) 
164

>  <i_i_glide_posenum>  (1) 
249

>  <i_i_glide_rotatable_bonds>  (1) 
18

>  <i_lp_mmshare_version>  (1) 
72125

>  <i_m_source_file_index>  (1) 
76

>  <i_f3d_flags>  (1) 
0

>  <num_sample>  (1) 
100

>  <b_lp_Chiralities_Consistent>  (1) 
1

>  <r_epik_Charging_Adjusted_Penalty>  (1) 
0.52789471212939676

>  <r_epik_Ionization_Penalty>  (1) 
0.26592108790513191

>  <r_epik_Ionization_Penalty_Charging>  (1) 
0.26394735606469838

>  <r_epik_Ionization_Penalty_Neutral>  (1) 
0.0019737318404335234

>  <r_epik_State_Penalty>  (1) 
0.26394735606469838

>  <r_glide_ring_energy>  (1) 
0

>  <r_i_docking_score>  (1) 
-6.7814577090153083

>  <r_i_glide_ecoul>  (1) 
-8.475199731082812

>  <r_i_glide_eff_state_penalty>  (1) 
0.26394735606469838

>  <r_i_glide_einternal>  (1) 
9.5822362592687167

>  <r_i_glide_emodel>  (1) 
-73.74016415635316

>  <r_i_glide_emodel_strain>  (1) 
0.15824863225876129

>  <r_i_glide_energy>  (1) 
-52.351850057886999

>  <r_i_glide_erotb>  (1) 
1.0139394581015995

>  <r_i_glide_esite>  (1) 
0

>  <r_i_glide_evdw>  (1) 
-43.876650326804189

>  <r_i_glide_gscore>  (1) 
-7.0454050650800069

>  <r_i_glide_gscore_strain>  (1) 
0

>  <r_i_glide_hbond>  (1) 
-0.40861212847037798

>  <r_i_glide_ligand_efficiency>  (1) 
-0.19375593454329451

>  <r_i_glide_ligand_efficiency_ln>  (1) 
-1.4886804734736445

>  <r_i_glide_ligand_efficiency_sa>  (1) 
-0.63378850988367641

>  <r_i_glide_lipo>  (1) 
-3.3864732509597406

>  <r_i_glide_metal>  (1) 
-0

>  <r_i_glide_rewards>  (1) 
-0.79914666774885501

>  <r_lp_Energy>  (1) 
29.106935999999997

>  <r_lp_tautomer_probability>  (1) 
0.99989998499911525

>  <s_epik_Chemistry_Notes>  (1) 
This compound contains an acetal/aminal-like group ( X-CH(R)-Y where X, Y are N, S, or O) that may be acid/base labile, releasing an aldehyde.

>  <s_epik_cmdline>  (1) 
J2VwaWtfcHl0aG9uJywgJy1waHQnLCAnMS4wJywgJy1waCcsICc3LjQnLCAnLXRuJywgJzgnLCAnLW1hJywgJzUwMCcsICctaW1hZScsICc8aW5maWxlLm1hZT4nLCAnLW9tYWUnLCAnPG91dGZpbGUubWFlPic=

>  <s_epik_input>  (1) 
W2NIXTFbY0hdYyhbT0hdKVtjSF1bY0hdYzFbQ0gyXVtDSDJdQyg9TylbQ0BIXShOKFtDSDNdKVtDSDJdW0NIMl1bT0hdKVtDSDJdW0NASF0oT1tDSDNdKVNbQ0gyXVtDQEBIXShbT0hdKVtDQEhdMltDQEBIXShbQ0gzXSlbQ0BIXShbT0hdKVtDSDJdQyhbT0hdKT1DMltDSDNd

>  <s_glide_docking_method>  (1) 
confgen

>  <s_i_glide_gridfile>  (1) 
gpcr_5ht2c_6bqh_protein_autoprepared_prepared

>  <s_lp_Force_Field>  (1) 
S-OPLS

>  <s_lp_Variant>  (1) 
DiffSBDD_75-1

>  <s_m_source_file>  (1) 
generated_GPCR_5HT2C_ligand_DiffSBDD_2026-06-23_prepared.sdf

>  <GenAI_Model>  (1) 
DiffSBDD

>  <Protein>  (1) 
GPCR_5HT2C

$$$$
DiffSBDD_75
     RDKit          3D

  0  0  0  0  0  0  0  0  0  0999 V3000
M  V30 BEGIN CTAB
M  V30 COUNTS 76 77 0 0 1
M  V30 BEGIN ATOM
M  V30 1 C 40.662425 29.967223 62.809521 0
M  V30 2 C 37.585708 31.260831 61.280349 0
M  V30 3 O 40.567960 27.776986 57.951752 0
M  V30 4 C 41.203429 29.918181 65.810381 0
M  V30 5 C 39.012120 27.869286 55.639464 0 CFG=1
M  V30 6 C 39.380956 35.372859 61.332210 0
M  V30 7 C 39.676414 28.877983 57.979473 0 CFG=2
M  V30 8 C 38.055227 35.297390 60.857595 0
M  V30 9 O 37.897298 27.340360 53.550685 0
M  V30 10 C 39.005403 30.471269 56.081504 0 CFG=1
M  V30 11 O 36.963574 38.781823 61.367165 0
M  V30 12 S 39.645047 28.536700 60.776316 0
M  V30 13 C 42.096220 29.523455 67.004063 0
M  V30 14 C 37.752201 37.666693 61.346236 0
M  V30 15 C 38.758044 28.766983 59.207710 0
M  V30 16 C 40.255008 34.149740 61.340998 0
M  V30 17 C 39.890681 36.593102 61.803958 0
M  V30 18 O 36.844789 30.537554 54.967740 0
M  V30 19 C 38.617272 31.601829 57.063026 0
M  V30 20 C 38.824895 29.038034 56.672417 0 CFG=1
M  V30 21 O 41.643793 28.318990 67.591569 0
M  V30 22 O 38.489426 30.624543 62.169043 0
M  V30 23 O 42.336148 32.396768 62.197364 0
M  V30 24 C 42.024618 32.204221 65.662224 0
M  V30 25 N 41.735272 30.967494 64.915972 0
M  V30 26 C 41.284785 32.379678 62.837541 0
M  V30 27 C 37.241559 36.446191 60.863189 0
M  V30 28 C 40.318001 33.552720 62.751249 0
M  V30 29 C 40.858056 31.199617 63.733669 0 CFG=1
M  V30 30 C 39.080277 37.736853 61.809296 0
M  V30 31 C 38.664250 29.612776 53.717712 0
M  V30 32 C 39.710998 30.148778 61.604359 0 CFG=1
M  V30 33 C 38.395467 26.537782 56.143081 0
M  V30 34 C 38.237760 30.652322 54.759842 0 CFG=2
M  V30 35 C 38.464024 28.192950 54.234565 0
M  V30 36 H 41.635098 29.615378 62.464067 0
M  V30 37 H 40.237686 29.143262 63.376973 0
M  V30 38 H 36.955267 31.947509 61.845067 0
M  V30 39 H 38.091911 31.838197 60.506521 0
M  V30 40 H 36.921816 30.535691 60.812788 0
M  V30 41 H 41.204606 27.907758 57.266249 0
M  V30 42 H 40.211042 30.196751 66.169018 0
M  V30 43 H 41.074862 28.995651 65.249762 0
M  V30 44 H 40.328886 29.737105 58.119592 0
M  V30 45 H 37.662309 34.360203 60.492013 0
M  V30 46 H 38.091361 29.736011 52.800509 0
M  V30 47 H 40.059892 30.601781 55.844486 0
M  V30 48 H 36.232453 38.763786 60.764118 0
M  V30 49 H 43.125696 29.376449 66.674944 0
M  V30 50 H 42.102706 30.295567 67.773598 0
M  V30 51 H 38.108470 27.902022 59.078139 0
M  V30 52 H 38.107200 29.633573 59.257186 0
M  V30 53 H 39.893916 33.419247 60.617100 0
M  V30 54 H 41.245134 34.462148 61.010615 0
M  V30 55 H 40.908190 36.652388 62.162989 0
M  V30 56 H 36.544473 31.162301 55.627260 0
M  V30 57 H 37.594839 31.488494 57.415205 0
M  V30 58 H 39.244943 31.636578 57.949073 0
M  V30 59 H 38.693393 32.580294 56.587512 0
M  V30 60 H 37.772600 28.985130 56.958192 0
M  V30 61 H 40.775058 28.435968 67.954405 0
M  V30 62 H 42.690034 32.025160 66.505223 0
M  V30 63 H 42.548108 32.942694 65.055271 0
M  V30 64 H 41.109830 32.659842 66.043451 0
M  V30 65 H 36.226913 36.388651 60.500660 0
M  V30 66 H 40.642552 34.309610 63.465740 0
M  V30 67 H 39.322258 33.231520 63.056811 0
M  V30 68 H 39.870700 31.444860 64.126393 0
M  V30 69 H 39.480160 38.670388 62.167487 0
M  V30 70 H 39.714965 29.743113 53.459519 0
M  V30 71 H 40.079719 27.713463 55.488516 0
M  V30 72 H 40.123636 30.869310 60.897449 0
M  V30 73 H 38.621129 25.713397 55.465100 0
M  V30 74 H 38.766407 26.242820 57.122907 0
M  V30 75 H 37.309881 26.607823 56.224114 0
M  V30 76 H 38.427156 31.648757 54.356980 0
M  V30 END ATOM
M  V30 BEGIN BOND
M  V30 1 1 7 3
M  V30 2 1 8 6
M  V30 3 1 13 4
M  V30 4 1 14 11
M  V30 5 1 15 7
M  V30 6 1 15 12
M  V30 7 1 16 6
M  V30 8 2 17 6
M  V30 9 1 19 10
M  V30 10 1 20 5
M  V30 11 1 20 7
M  V30 12 1 20 10
M  V30 13 1 21 13
M  V30 14 1 22 2
M  V30 15 1 25 4
M  V30 16 1 25 24
M  V30 17 2 26 23
M  V30 18 2 27 8
M  V30 19 1 27 14
M  V30 20 1 28 16
M  V30 21 1 28 26
M  V30 22 1 29 1
M  V30 23 1 29 25
M  V30 24 1 29 26
M  V30 25 2 30 14
M  V30 26 1 30 17
M  V30 27 1 32 1
M  V30 28 1 32 12
M  V30 29 1 32 22
M  V30 30 1 33 5
M  V30 31 1 34 10
M  V30 32 1 34 18
M  V30 33 1 34 31
M  V30 34 1 35 5
M  V30 35 2 35 9
M  V30 36 1 35 31
M  V30 37 1 36 1
M  V30 38 1 37 1
M  V30 39 1 38 2
M  V30 40 1 39 2
M  V30 41 1 40 2
M  V30 42 1 41 3
M  V30 43 1 42 4
M  V30 44 1 43 4
M  V30 45 1 7 44 CFG=1
M  V30 46 1 45 8
M  V30 47 1 46 31
M  V30 48 1 10 47 CFG=3
M  V30 49 1 48 11
M  V30 50 1 49 13
M  V30 51 1 50 13
M  V30 52 1 51 15
M  V30 53 1 52 15
M  V30 54 1 53 16
M  V30 55 1 54 16
M  V30 56 1 55 17
M  V30 57 1 56 18
M  V30 58 1 57 19
M  V30 59 1 58 19
M  V30 60 1 59 19
M  V30 61 1 20 60 CFG=1
M  V30 62 1 61 21
M  V30 63 1 62 24
M  V30 64 1 63 24
M  V30 65 1 64 24
M  V30 66 1 65 27
M  V30 67 1 66 28
M  V30 68 1 67 28
M  V30 69 1 29 68 CFG=1
M  V30 70 1 69 30
M  V30 71 1 70 31
M  V30 72 1 5 71 CFG=3
M  V30 73 1 32 72 CFG=3
M  V30 74 1 73 33
M  V30 75 1 74 33
M  V30 76 1 75 33
M  V30 77 1 34 76 CFG=3
M  V30 END BOND
M  V30 END CTAB
M  END
>  <i_epik_Tot_Q>  (1) 
0

>  <i_epik_Tot_abs_Q>  (1) 
0

>  <i_i_glide_confnum>  (1) 
1759

>  <i_i_glide_lignum>  (1) 
174

>  <i_i_glide_posenum>  (1) 
186

>  <i_i_glide_rotatable_bonds>  (1) 
18

>  <i_lp_mmshare_version>  (1) 
72125

>  <i_m_source_file_index>  (1) 
76

>  <i_f3d_flags>  (1) 
0

>  <num_sample>  (1) 
100

>  <b_lp_Chiralities_Consistent>  (1) 
1

>  <r_epik_Charging_Adjusted_Penalty>  (1) 
0.60615279515584763

>  <r_epik_Ionization_Penalty>  (1) 
0.6077244911787385

>  <r_epik_Ionization_Penalty_Charging>  (1) 
0

>  <r_epik_Ionization_Penalty_Neutral>  (1) 
0.6077244911787385

>  <r_epik_State_Penalty>  (1) 
0.60615279515584763

>  <r_glide_ring_energy>  (1) 
0

>  <r_i_docking_score>  (1) 
-6.7755227495315227

>  <r_i_glide_ecoul>  (1) 
-6.3464608777199896

>  <r_i_glide_eff_state_penalty>  (1) 
0.60615279515584763

>  <r_i_glide_einternal>  (1) 
7.7054867277558934

>  <r_i_glide_emodel>  (1) 
-68.211905131285008

>  <r_i_glide_emodel_strain>  (1) 
2.612028474081157

>  <r_i_glide_energy>  (1) 
-53.612860436495588

>  <r_i_glide_erotb>  (1) 
1.0176109525924779

>  <r_i_glide_esite>  (1) 
0

>  <r_i_glide_evdw>  (1) 
-47.266399558775596

>  <r_i_glide_gscore>  (1) 
-7.3816755446873703

>  <r_i_glide_gscore_strain>  (1) 
0

>  <r_i_glide_hbond>  (1) 
-0.49846683615380244

>  <r_i_glide_ligand_efficiency>  (1) 
-0.19358636427232923

>  <r_i_glide_ligand_efficiency_ln>  (1) 
-1.4873776181476248

>  <r_i_glide_ligand_efficiency_sa>  (1) 
-0.63323383428311231

>  <r_i_glide_lipo>  (1) 
-3.4660510151553532

>  <r_i_glide_metal>  (1) 
-0

>  <r_i_glide_rewards>  (1) 
-1.1194795363739154

>  <r_lp_Energy>  (1) 
23.807221999999999

>  <r_lp_tautomer_probability>  (1) 
0.99999993999736703

>  <s_epik_Chemistry_Notes>  (1) 
This compound contains an acetal/aminal-like group ( X-CH(R)-Y where X, Y are N, S, or O) that may be acid/base labile, releasing an aldehyde.

>  <s_epik_cmdline>  (1) 
J2VwaWtfcHl0aG9uJywgJy1waHQnLCAnMS4wJywgJy1waCcsICc3LjQnLCAnLXRuJywgJzgnLCAnLW1hJywgJzUwMCcsICctaW1hZScsICc8aW5maWxlLm1hZT4nLCAnLW9tYWUnLCAnPG91dGZpbGUubWFlPic=

>  <s_epik_input>  (1) 
W2NIXTFbY0hdYyhbT0hdKVtjSF1bY0hdYzFbQ0gyXVtDSDJdQyg9TylbQ0BIXShOKFtDSDNdKVtDSDJdW0NIMl1bT0hdKVtDSDJdW0NASF0oT1tDSDNdKVNbQ0gyXVtDQEBIXShbT0hdKVtDQEhdMltDQEBIXShbQ0gzXSlbQ0BIXShbT0hdKVtDSDJdQyhbT0hdKT1DMltDSDNd

>  <s_glide_docking_method>  (1) 
confgen

>  <s_i_glide_gridfile>  (1) 
gpcr_5ht2c_6bqh_protein_autoprepared_prepared

>  <s_lp_Force_Field>  (1) 
S-OPLS

>  <s_lp_Variant>  (1) 
DiffSBDD_75-11

>  <s_m_source_file>  (1) 
generated_GPCR_5HT2C_ligand_DiffSBDD_2026-06-23_prepared.sdf

>  <GenAI_Model>  (1) 
DiffSBDD

>  <Protein>  (1) 
GPCR_5HT2C

$$$$
DiffSBDD_86
     RDKit          3D

  0  0  0  0  0  0  0  0  0  0999 V3000
M  V30 BEGIN CTAB
M  V30 COUNTS 77 79 0 0 1
M  V30 BEGIN ATOM
M  V30 1 C 42.000485 31.672569 64.501656 0
M  V30 2 C 45.015445 25.921997 58.833980 0
M  V30 3 C 38.319332 32.284910 59.045739 0 CFG=2
M  V30 4 C 44.923807 24.554554 59.533873 0
M  V30 5 N 37.742956 31.973853 60.389653 0
M  V30 6 C 37.102633 26.064104 57.596833 0
M  V30 7 N 41.367638 32.223859 63.385933 0
M  V30 8 C 39.005163 28.833745 57.080258 0
M  V30 9 O 37.645582 31.174424 55.718287 0
M  V30 10 O 40.197152 26.138253 54.268416 0
M  V30 11 C 39.355898 26.308376 56.496760 0 CFG=2
M  V30 12 C 38.981934 29.853871 58.254939 0
M  V30 13 C 36.402574 31.979712 60.621050 0
M  V30 14 N 39.530234 27.477538 57.450156 0 CFG=1 CHG=1
M  V30 15 C 39.300956 26.635252 54.986250 0
M  V30 16 C 42.595803 32.351567 65.602084 0
M  V30 17 C 43.223867 30.219097 66.627165 0
M  V30 18 O 35.613127 32.226172 59.695640 0
M  V30 19 C 38.672063 31.678679 61.510229 0
M  V30 20 C 42.642739 29.526373 65.553416 0
M  V30 21 C 37.831314 33.657945 58.512120 0
M  V30 22 S 41.244682 29.639735 63.051879 0
M  V30 23 O 38.362155 27.356098 54.586906 0 CHG=-1
M  V30 24 C 40.846239 27.477356 58.144285 0
M  V30 25 C 38.142558 31.137415 57.997380 0 CFG=2
M  V30 26 C 37.880310 24.144412 56.054380 0
M  V30 27 O 38.537872 31.687235 56.747299 0
M  V30 28 N 43.654000 26.439003 58.568238 0 CHG=1
M  V30 29 C 40.192972 31.626938 61.281970 0
M  V30 30 C 42.040566 30.242579 64.506865 0
M  V30 31 O 42.584870 33.718560 65.647684 0 CHG=-1
M  V30 32 C 42.042277 27.681304 57.208650 0
M  V30 33 C 40.919405 31.295352 62.538209 0
M  V30 34 C 38.580896 23.949187 57.368297 0
M  V30 35 C 38.229514 25.349308 56.913376 0
M  V30 36 O 35.991944 31.737724 61.767725 0 CHG=-1
M  V30 37 C 43.201039 31.626471 66.651695 0
M  V30 38 C 43.421649 27.718929 57.875330 0
M  V30 39 H 45.574732 25.852265 57.901789 0
M  V30 40 H 45.583629 26.537783 59.516637 0
M  V30 41 H 39.376734 32.477584 59.136039 0
M  V30 42 H 45.898313 24.129390 59.767757 0
M  V30 43 H 44.445136 24.652569 60.502759 0
M  V30 44 H 44.367936 23.829621 58.941825 0
M  V30 45 H 36.222529 25.431948 57.720539 0
M  V30 46 H 37.457667 26.379760 58.567754 0
M  V30 47 H 36.845171 26.936951 57.014357 0
M  V30 48 H 37.982005 28.734680 56.725054 0
M  V30 49 H 39.582004 29.241383 56.248324 0
M  V30 50 H 36.811389 31.576393 55.984561 0
M  V30 51 H 40.244881 25.687895 56.592239 0
M  V30 52 H 40.010171 30.137609 58.456633 0
M  V30 53 H 38.602957 29.376073 59.158739 0
M  V30 54 H 43.688950 29.673255 67.435230 0
M  V30 55 H 38.483482 32.421822 62.288385 0
M  V30 56 H 38.371961 30.718524 61.934714 0
M  V30 57 H 42.657447 28.446813 65.533241 0
M  V30 58 H 38.439007 33.984958 57.669931 0
M  V30 59 H 36.807208 33.639813 58.142422 0
M  V30 60 H 37.899847 34.427121 59.282048 0
M  V30 61 H 40.876256 28.169770 58.984466 0
M  V30 62 H 40.935099 26.484057 58.568717 0
M  V30 63 H 37.089858 30.857222 57.978664 0
M  V30 64 H 36.832976 23.853488 55.999795 0
M  V30 65 H 38.441844 24.003557 55.134810 0
M  V30 66 H 43.166070 26.460382 59.455226 0
M  V30 67 H 40.449562 30.861844 60.555885 0
M  V30 68 H 40.569373 32.586279 60.921964 0
M  V30 69 H 42.045138 26.823762 56.567767 0
M  V30 70 H 41.897625 28.537818 56.564590 0
M  V30 71 H 39.627848 23.655417 57.363110 0
M  V30 72 H 37.993533 23.507618 58.168022 0
M  V30 73 H 43.651184 32.156188 67.479110 0
M  V30 74 H 44.204432 27.901330 57.140318 0
M  V30 75 H 43.413524 28.550632 58.567677 0
M  V30 76 H 43.245046 25.730646 57.957755 0
M  V30 77 H 38.895518 27.210480 58.187190 0
M  V30 END ATOM
M  V30 BEGIN BOND
M  V30 1 1 4 2
M  V30 2 1 5 3
M  V30 3 1 7 1
M  V30 4 1 12 8
M  V30 5 1 13 5
M  V30 6 1 14 8
M  V30 7 1 14 11
M  V30 8 2 15 10
M  V30 9 1 15 11
M  V30 10 2 16 1
M  V30 11 2 18 13
M  V30 12 1 19 5
M  V30 13 1 20 17
M  V30 14 1 21 3
M  V30 15 1 23 15
M  V30 16 1 24 14
M  V30 17 1 25 3
M  V30 18 1 25 12
M  V30 19 1 27 9
M  V30 20 1 27 25
M  V30 21 1 28 2
M  V30 22 1 29 19
M  V30 23 1 30 1
M  V30 24 2 30 20
M  V30 25 1 30 22
M  V30 26 1 31 16
M  V30 27 1 32 24
M  V30 28 2 33 7
M  V30 29 1 33 22
M  V30 30 1 33 29
M  V30 31 1 34 26
M  V30 32 1 35 6
M  V30 33 1 35 11
M  V30 34 1 35 26
M  V30 35 1 35 34
M  V30 36 1 36 13
M  V30 37 1 37 16
M  V30 38 2 37 17
M  V30 39 1 38 28
M  V30 40 1 38 32
M  V30 41 1 39 2
M  V30 42 1 40 2
M  V30 43 1 3 41 CFG=1
M  V30 44 1 42 4
M  V30 45 1 43 4
M  V30 46 1 44 4
M  V30 47 1 45 6
M  V30 48 1 46 6
M  V30 49 1 47 6
M  V30 50 1 48 8
M  V30 51 1 49 8
M  V30 52 1 50 9
M  V30 53 1 11 51 CFG=3
M  V30 54 1 52 12
M  V30 55 1 53 12
M  V30 56 1 54 17
M  V30 57 1 55 19
M  V30 58 1 56 19
M  V30 59 1 57 20
M  V30 60 1 58 21
M  V30 61 1 59 21
M  V30 62 1 60 21
M  V30 63 1 61 24
M  V30 64 1 62 24
M  V30 65 1 25 63 CFG=3
M  V30 66 1 64 26
M  V30 67 1 65 26
M  V30 68 1 66 28
M  V30 69 1 67 29
M  V30 70 1 68 29
M  V30 71 1 69 32
M  V30 72 1 70 32
M  V30 73 1 71 34
M  V30 74 1 72 34
M  V30 75 1 73 37
M  V30 76 1 74 38
M  V30 77 1 75 38
M  V30 78 1 76 28
M  V30 79 1 14 77 CFG=1
M  V30 END BOND
M  V30 END CTAB
M  END
>  <i_epik_Tot_Q>  (1) 
-1

>  <i_epik_Tot_abs_Q>  (1) 
5

>  <i_i_glide_confnum>  (1) 
7493

>  <i_i_glide_lignum>  (1) 
207

>  <i_i_glide_posenum>  (1) 
127

>  <i_i_glide_rotatable_bonds>  (1) 
19

>  <i_lp_mmshare_version>  (1) 
72125

>  <i_m_source_file_index>  (1) 
87

>  <i_f3d_flags>  (1) 
0

>  <num_sample>  (1) 
100

>  <b_lp_Chiralities_Consistent>  (1) 
1

>  <r_epik_Charging_Adjusted_Penalty>  (1) 
1.7068457012274814

>  <r_epik_Ionization_Penalty>  (1) 
0.85572285372979207

>  <r_epik_Ionization_Penalty_Charging>  (1) 
0.8536556191236474

>  <r_epik_Ionization_Penalty_Neutral>  (1) 
0.0020672346061446629

>  <r_epik_State_Penalty>  (1) 
0.85319008210383396

>  <r_glide_ring_energy>  (1) 
0

>  <r_i_docking_score>  (1) 
-6.7692428594696299

>  <r_i_glide_ecoul>  (1) 
-12.93668776537432

>  <r_i_glide_eff_state_penalty>  (1) 
0.85319008210383396

>  <r_i_glide_einternal>  (1) 
14.258666330844132

>  <r_i_glide_emodel>  (1) 
-68.015575694410614

>  <r_i_glide_emodel_strain>  (1) 
4.2282422207946553

>  <r_i_glide_energy>  (1) 
-49.690513989459063

>  <r_i_glide_erotb>  (1) 
0.88358493265308913

>  <r_i_glide_esite>  (1) 
-0.2352563644151543

>  <r_i_glide_evdw>  (1) 
-36.75382622408474

>  <r_i_glide_gscore>  (1) 
-7.6224329415734635

>  <r_i_glide_gscore_strain>  (1) 
0.05706055519866382

>  <r_i_glide_hbond>  (1) 
-0.32000000000000001

>  <r_i_glide_ligand_efficiency>  (1) 
-0.17813796998604289

>  <r_i_glide_ligand_efficiency_ln>  (1) 
-1.4596478914515758

>  <r_i_glide_ligand_efficiency_sa>  (1) 
-0.59889547411016819

>  <r_i_glide_lipo>  (1) 
-3.3516223125334106

>  <r_i_glide_metal>  (1) 
-0

>  <r_i_glide_rewards>  (1) 
-0.87800527646626714

>  <r_lp_Energy>  (1) 
30.418627999999998

>  <s_epik_cmdline>  (1) 
J2VwaWtfcHl0aG9uJywgJy1waHQnLCAnMS4wJywgJy1waCcsICc3LjQnLCAnLXRuJywgJzgnLCAnLW1hJywgJzUwMCcsICctaW1hZScsICc8aW5maWxlLm1hZT4nLCAnLW9tYWUnLCAnPG91dGZpbGUubWFlPic=

>  <s_epik_input>  (1) 
W09IXWMxW2NIXVtjSF1bY0hdYyhjMTIpc2MobjIpW0NIMl1bQ0gyXU4oQyg9TylbT0hdKVtDQEhdKFtDSDNdKVtDQEBIXShPW09IXSlbQ0gyXVtDSDJdTihbQ0BIXShDKD1PKVtPSF0pQzMoW0NIM10pW0NIMl1bQ0gyXTMpW0NIMl1bQ0gyXVtDSDJdW05IXVtDSDJdW0NIM10=

>  <s_glide_docking_method>  (1) 
confgen

>  <s_i_glide_gridfile>  (1) 
gpcr_5ht2c_6bqh_protein_autoprepared_prepared

>  <s_lp_Force_Field>  (1) 
S-OPLS

>  <s_lp_Variant>  (1) 
DiffSBDD_86-4

>  <s_m_source_file>  (1) 
generated_GPCR_5HT2C_ligand_DiffSBDD_2026-06-23_prepared.sdf

>  <GenAI_Model>  (1) 
DiffSBDD

>  <Protein>  (1) 
GPCR_5HT2C

$$$$
DiffSBDD_63
     RDKit          3D

  0  0  0  0  0  0  0  0  0  0999 V3000
M  V30 BEGIN CTAB
M  V30 COUNTS 83 88 0 0 1
M  V30 BEGIN ATOM
M  V30 1 F 37.645136 28.684028 55.147736 0
M  V30 2 C 40.045142 36.137761 64.423521 0
M  V30 3 C 38.620746 29.588011 55.189356 0 CFG=1
M  V30 4 C 43.031757 27.980198 63.876724 0
M  V30 5 C 38.983680 28.284051 59.313804 0
M  V30 6 C 39.111735 30.142220 61.162275 0 CFG=1
M  V30 7 N 37.645150 31.737732 54.934801 0 CHG=1
M  V30 8 C 42.958537 32.458111 66.382090 0
M  V30 9 C 40.762825 35.262298 66.633072 0
M  V30 10 C 41.343356 32.772307 64.439757 0 CFG=2
M  V30 11 C 42.420855 31.851036 65.090273 0 CFG=2
M  V30 12 C 38.210268 28.229009 57.993339 0
M  V30 13 C 42.783557 33.737752 66.740356 0
M  V30 14 C 40.828469 35.205984 63.787165 0
M  V30 15 N 39.226400 36.854027 63.544550 0
M  V30 16 N 37.984984 30.400297 58.945594 0 CHG=1
M  V30 17 C 37.816889 29.682373 57.666204 0 CFG=1
M  V30 18 C 41.129967 27.734221 65.558849 0
M  V30 19 C 38.444109 36.946586 61.190910 0
M  V30 20 O 40.428960 28.226493 61.820172 0
M  V30 21 O 41.091799 32.405915 63.081006 0
M  V30 22 S 40.570850 35.241656 62.052765 0
M  V30 23 C 38.319655 31.780197 56.236530 0 CFG=2
M  V30 24 C 39.112094 29.775400 59.660634 0 CFG=2
M  V30 25 C 39.546298 32.691927 56.167862 0
M  V30 26 C 41.796241 34.262786 64.440379 0 CFG=1
M  V30 27 C 40.118292 29.396426 62.025083 0
M  V30 28 C 39.320443 36.444615 62.284795 0
M  V30 29 O 44.435773 27.888355 63.767757 0
M  V30 30 C 42.587564 28.166782 65.339673 0 CFG=2
M  V30 31 C 42.840509 29.598009 65.852727 0
M  V30 32 C 40.101765 31.443725 62.901981 0 CFG=2
M  V30 33 O 41.899684 30.544060 65.332320 0
M  V30 34 C 42.046321 34.763068 65.899236 0 CFG=1
M  V30 35 O 40.601238 30.153439 62.998479 0
M  V30 36 C 38.281718 30.661481 54.163170 0
M  V30 37 C 39.533435 31.570666 61.481961 0
M  V30 38 C 38.697408 30.313806 56.555182 0 CFG=2
M  V30 39 C 40.001876 36.390027 65.894378 0
M  V30 40 H 39.545875 29.066001 54.940199 0
M  V30 41 H 42.698137 28.804731 63.252705 0
M  V30 42 H 42.605823 27.067060 63.463742 0
M  V30 43 H 39.961706 27.809561 59.223642 0
M  V30 44 H 38.444936 27.744117 60.091178 0
M  V30 45 H 38.129063 29.960617 61.592575 0
M  V30 46 H 37.677000 32.631186 54.464149 0
M  V30 47 H 43.507619 31.799080 67.037029 0
M  V30 48 H 40.089142 34.411946 66.744412 0
M  V30 49 H 40.990428 35.588820 67.648066 0
M  V30 50 H 40.423473 32.714689 65.024030 0
M  V30 51 H 43.245119 31.737900 64.389802 0
M  V30 52 H 38.812276 27.765367 57.211797 0
M  V30 53 H 37.318734 27.612207 58.105991 0
M  V30 54 H 43.194077 34.087947 67.676253 0
M  V30 55 H 37.144807 30.247875 59.485319 0
M  V30 56 H 36.767483 29.737909 57.368689 0
M  V30 57 H 40.445159 28.351350 64.980785 0
M  V30 58 H 40.976224 26.698598 65.255300 0
M  V30 59 H 40.845072 27.815524 66.608434 0
M  V30 60 H 37.398146 36.837746 61.479022 0
M  V30 61 H 38.640709 38.001615 61.002489 0
M  V30 62 H 38.605653 36.374673 60.277409 0
M  V30 63 H 37.644901 32.208317 56.973783 0
M  V30 64 H 40.036321 30.137058 59.211977 0
M  V30 65 H 39.890089 32.937783 57.169701 0
M  V30 66 H 40.368065 32.204121 55.641943 0
M  V30 67 H 39.314132 33.633242 55.668154 0
M  V30 68 H 42.740995 34.314065 63.898183 0
M  V30 69 H 44.640136 27.737845 62.851536 0
M  V30 70 H 43.197907 27.493389 65.943017 0
M  V30 71 H 42.767142 29.610037 66.940777 0
M  V30 72 H 43.866825 29.878594 65.609441 0
M  V30 73 H 39.305961 31.552131 63.637628 0
M  V30 74 H 42.705529 35.629408 65.820603 0
M  V30 75 H 39.191335 31.051342 53.703455 0
M  V30 76 H 37.645411 30.271741 53.370604 0
M  V30 77 H 38.713590 32.289555 61.466272 0
M  V30 78 H 40.320648 31.916714 60.810146 0
M  V30 79 H 39.734928 30.278139 56.887770 0
M  V30 80 H 38.972426 36.440653 66.250939 0
M  V30 81 H 40.445242 37.354619 66.131220 0
M  V30 82 H 38.113153 31.393251 58.812808 0
M  V30 83 H 36.673812 31.512683 55.125570 0
M  V30 END ATOM
M  V30 BEGIN BOND
M  V30 1 1 3 1
M  V30 2 1 11 8
M  V30 3 1 11 10
M  V30 4 1 12 5
M  V30 5 2 13 8
M  V30 6 2 14 2
M  V30 7 1 15 2
M  V30 8 1 17 12
M  V30 9 1 17 16
M  V30 10 1 21 10
M  V30 11 1 22 14
M  V30 12 1 23 7
M  V30 13 1 24 5
M  V30 14 1 24 6
M  V30 15 1 24 16
M  V30 16 1 25 23
M  V30 17 1 26 10
M  V30 18 1 26 14
M  V30 19 1 27 6
M  V30 20 2 27 20
M  V30 21 2 28 15
M  V30 22 1 28 19
M  V30 23 1 28 22
M  V30 24 1 29 4
M  V30 25 1 30 4
M  V30 26 1 30 18
M  V30 27 1 31 30
M  V30 28 1 32 21
M  V30 29 1 33 11
M  V30 30 1 33 31
M  V30 31 1 34 9
M  V30 32 1 34 13
M  V30 33 1 34 26
M  V30 34 1 35 27
M  V30 35 1 35 32
M  V30 36 1 36 3
M  V30 37 1 36 7
M  V30 38 1 37 6
M  V30 39 1 37 32
M  V30 40 1 38 3
M  V30 41 1 38 17
M  V30 42 1 38 23
M  V30 43 1 39 2
M  V30 44 1 39 9
M  V30 45 1 3 40 CFG=3
M  V30 46 1 41 4
M  V30 47 1 42 4
M  V30 48 1 43 5
M  V30 49 1 44 5
M  V30 50 1 6 45 CFG=1
M  V30 51 1 46 7
M  V30 52 1 47 8
M  V30 53 1 48 9
M  V30 54 1 49 9
M  V30 55 1 10 50 CFG=1
M  V30 56 1 11 51 CFG=3
M  V30 57 1 52 12
M  V30 58 1 53 12
M  V30 59 1 54 13
M  V30 60 1 55 16
M  V30 61 1 17 56 CFG=3
M  V30 62 1 57 18
M  V30 63 1 58 18
M  V30 64 1 59 18
M  V30 65 1 60 19
M  V30 66 1 61 19
M  V30 67 1 62 19
M  V30 68 1 23 63 CFG=1
M  V30 69 1 24 64 CFG=3
M  V30 70 1 65 25
M  V30 71 1 66 25
M  V30 72 1 67 25
M  V30 73 1 26 68 CFG=3
M  V30 74 1 69 29
M  V30 75 1 30 70 CFG=1
M  V30 76 1 71 31
M  V30 77 1 72 31
M  V30 78 1 32 73 CFG=1
M  V30 79 1 34 74 CFG=3
M  V30 80 1 75 36
M  V30 81 1 76 36
M  V30 82 1 77 37
M  V30 83 1 78 37
M  V30 84 1 38 79 CFG=1
M  V30 85 1 80 39
M  V30 86 1 81 39
M  V30 87 1 82 16
M  V30 88 1 83 7
M  V30 END BOND
M  V30 END CTAB
M  END
>  <i_epik_Tot_Q>  (1) 
2

>  <i_epik_Tot_abs_Q>  (1) 
2

>  <i_i_glide_confnum>  (1) 
1280

>  <i_i_glide_lignum>  (1) 
139

>  <i_i_glide_posenum>  (1) 
61

>  <i_i_glide_rotatable_bonds>  (1) 
9

>  <i_lp_mmshare_version>  (1) 
72125

>  <i_m_source_file_index>  (1) 
64

>  <i_f3d_flags>  (1) 
0

>  <num_sample>  (1) 
100

>  <b_lp_Chiralities_Consistent>  (1) 
1

>  <r_epik_Charging_Adjusted_Penalty>  (1) 
0.080070908620723774

>  <r_epik_Ionization_Penalty>  (1) 
0.041568301575603359

>  <r_epik_Ionization_Penalty_Charging>  (1) 
0.040241786303222601

>  <r_epik_Ionization_Penalty_Neutral>  (1) 
0.0013265152723807572

>  <r_epik_State_Penalty>  (1) 
0.039829122317501166

>  <r_glide_ring_energy>  (1) 
0.79944395753776076

>  <r_i_docking_score>  (1) 
-6.7651607212243938

>  <r_i_glide_ecoul>  (1) 
-4.1368562429695732

>  <r_i_glide_eff_state_penalty>  (1) 
0.039829122317501166

>  <r_i_glide_einternal>  (1) 
12.581826046698831

>  <r_i_glide_emodel>  (1) 
-61.445284248711289

>  <r_i_glide_emodel_strain>  (1) 
6.0684724299931645

>  <r_i_glide_energy>  (1) 
-49.126272845655841

>  <r_i_glide_erotb>  (1) 
0.43483266289788453

>  <r_i_glide_esite>  (1) 
-0.14164866316686006

>  <r_i_glide_evdw>  (1) 
-44.989416602686269

>  <r_i_glide_gscore>  (1) 
-6.804989843541895

>  <r_i_glide_gscore_strain>  (1) 
0.51711810749829112

>  <r_i_glide_hbond>  (1) 
-0.38729272335648574

>  <r_i_glide_ligand_efficiency>  (1) 
-0.17346565951857421

>  <r_i_glide_ligand_efficiency_ln>  (1) 
-1.4506424991377338

>  <r_i_glide_ligand_efficiency_sa>  (1) 
-0.58825872952938818

>  <r_i_glide_lipo>  (1) 
-3.354093102045534

>  <r_i_glide_metal>  (1) 
-0

>  <r_i_glide_rewards>  (1) 
-1.0039068587894413

>  <r_lp_Energy>  (1) 
26.901284999999998

>  <s_epik_Chemistry_Notes>  (1) 
This compound has an ester and may undergo hydrolysis at high or low pH. This compound contains an acetal/aminal-like group ( X-CH(R)-Y where X, Y are N, S, or O) that may be acid/base labile, releasing an aldehyde.

>  <s_epik_cmdline>  (1) 
J2VwaWtfcHl0aG9uJywgJy1waHQnLCAnMS4wJywgJy1waCcsICc3LjQnLCAnLXRuJywgJzgnLCAnLW1hJywgJzUwMCcsICctaW1hZScsICc8aW5maWxlLm1hZT4nLCAnLW9tYWUnLCAnPG91dGZpbGUubWFlPic=

>  <s_epik_input>  (1) 
RltDQEhdMVtDSDJdW05IXVtDQEhdKFtDSDNdKVtDQEhdMVtDQEhdMltDSDJdW0NIMl1bQ0BASF0oW05IXTIpW0NASF0zQyg9TylPW0NASF0oW0NIMl0zKU9bQ0BIXTRbQ0BIXShPW0NIMl1bQ0BASF0oW0NIM10pW0NIMl1bT0hdKVtDSF09W0NIXVtDQEhdKFtDSDJdW0NIMl01KVtDQEBIXTRjKGM1NilzYyhuNilbQ0gzXQ==

>  <s_glide_docking_method>  (1) 
confgen

>  <s_i_glide_gridfile>  (1) 
gpcr_5ht2c_6bqh_protein_autoprepared_prepared

>  <s_lp_Force_Field>  (1) 
S-OPLS

>  <s_lp_Variant>  (1) 
DiffSBDD_63-1

>  <s_m_source_file>  (1) 
generated_GPCR_5HT2C_ligand_DiffSBDD_2026-06-23_prepared.sdf

>  <GenAI_Model>  (1) 
DiffSBDD

>  <Protein>  (1) 
GPCR_5HT2C

$$$$
DiffSBDD_25
     RDKit          3D

  0  0  0  0  0  0  0  0  0  0999 V3000
M  V30 BEGIN CTAB
M  V30 COUNTS 67 70 0 0 1
M  V30 BEGIN ATOM
M  V30 1 C 41.511197 33.445562 62.794451 0
M  V30 2 C 38.435888 30.604065 55.311916 0
M  V30 3 O 42.045053 33.238042 63.906854 0 CHG=-1
M  V30 4 C 36.031139 31.043112 60.230751 0
M  V30 5 N 39.357138 32.164989 61.129083 0
M  V30 6 C 38.960224 29.430893 54.485442 0
M  V30 7 C 40.488055 35.673977 63.601462 0
M  V30 8 C 38.732687 36.752947 62.547293 0
M  V30 9 C 40.549240 27.358334 56.108219 0
M  V30 10 C 38.415409 28.053655 54.908355 0
M  V30 11 C 39.012420 27.384346 56.195934 0 CFG=2
M  V30 12 C 37.467938 35.857204 60.551172 0
M  V30 13 O 37.149201 25.996038 56.071123 0
M  V30 14 O 38.939669 33.737748 59.468411 0
M  V30 15 N 37.574742 29.886615 58.875314 0
M  V30 16 C 39.437480 34.596214 61.645811 0
M  V30 17 O 41.828325 32.807445 61.767964 0
M  V30 18 C 38.964406 25.075393 57.207842 0
M  V30 19 C 40.455639 34.569396 62.685945 0
M  V30 20 C 38.551046 28.009375 57.559237 0
M  V30 21 C 37.929984 29.418288 57.535583 0 CFG=2
M  V30 22 C 39.244681 33.459702 60.634051 0
M  V30 23 C 38.668967 30.206988 59.797627 0
M  V30 24 N 39.645062 36.721995 63.527116 0
M  V30 25 C 37.668228 24.409618 57.635809 0
M  V30 26 C 36.297259 30.228846 59.214421 0
M  V30 27 N 41.442470 35.737696 64.610753 0
M  V30 28 N 38.593639 25.973564 56.109407 0
M  V30 29 C 38.759888 30.498538 56.803903 0
M  V30 30 C 38.381637 31.429806 60.718030 0
M  V30 31 C 36.653433 23.739614 55.374052 0
M  V30 32 N 37.012972 31.639760 61.000693 0
M  V30 33 C 36.691727 24.751173 56.527176 0 CFG=2
M  V30 34 C 38.575312 35.737204 61.595551 0
M  V30 35 H 37.358412 30.713266 55.172982 0
M  V30 36 H 38.877170 31.522692 54.923633 0
M  V30 37 H 35.025290 31.336804 60.493967 0
M  V30 38 H 38.670535 29.605591 53.448570 0
M  V30 39 H 40.045135 29.444407 54.477031 0
M  V30 40 H 38.084847 37.616819 62.530288 0
M  V30 41 H 40.977699 28.357289 56.167272 0
M  V30 42 H 41.013356 26.780055 56.907271 0
M  V30 43 H 40.845141 26.911781 55.161009 0
M  V30 44 H 37.329163 28.125457 54.967888 0
M  V30 45 H 38.601150 27.385027 54.065212 0
M  V30 46 H 36.781962 36.662732 60.814994 0
M  V30 47 H 37.870291 36.097902 59.570282 0
M  V30 48 H 36.868656 34.948993 60.483907 0
M  V30 49 H 39.675933 24.341303 56.830097 0
M  V30 50 H 39.436401 25.580594 58.050115 0
M  V30 51 H 39.392830 28.005473 58.251893 0
M  V30 52 H 37.805064 27.373532 58.036836 0
M  V30 53 H 36.985610 29.337741 56.996453 0
M  V30 54 H 38.837688 29.337374 60.432503 0
M  V30 55 H 39.603451 30.374419 59.264696 0
M  V30 56 H 37.330585 24.856709 58.567763 0
M  V30 57 H 37.770974 23.337597 57.805033 0
M  V30 58 H 35.531494 29.809229 58.576962 0
M  V30 59 H 42.147661 35.012008 64.699753 0
M  V30 60 H 41.573927 36.584958 65.152881 0
M  V30 61 H 38.531658 31.475547 57.234535 0
M  V30 62 H 39.827890 30.349266 56.961282 0
M  V30 63 H 36.243981 22.783610 55.700848 0
M  V30 64 H 36.027787 24.118211 54.567410 0
M  V30 65 H 37.645375 23.558071 54.962445 0
M  V30 66 H 35.690209 24.937765 56.906606 0
M  V30 67 H 36.709304 32.366496 61.631333 0
M  V30 END ATOM
M  V30 BEGIN BOND
M  V30 1 1 3 1
M  V30 2 1 6 2
M  V30 3 1 10 6
M  V30 4 1 11 9 CFG=3
M  V30 5 1 11 10
M  V30 6 2 17 1
M  V30 7 1 19 1
M  V30 8 2 19 7
M  V30 9 1 19 16
M  V30 10 1 20 11
M  V30 11 1 21 15
M  V30 12 1 21 20
M  V30 13 1 22 5
M  V30 14 2 22 14
M  V30 15 1 22 16
M  V30 16 1 23 15
M  V30 17 1 24 7
M  V30 18 2 24 8
M  V30 19 1 25 18
M  V30 20 2 26 4
M  V30 21 1 26 15
M  V30 22 1 27 7
M  V30 23 1 28 11
M  V30 24 1 28 13
M  V30 25 1 28 18
M  V30 26 1 29 2
M  V30 27 1 29 21
M  V30 28 2 30 5
M  V30 29 1 30 23
M  V30 30 1 32 4
M  V30 31 1 32 30
M  V30 32 1 33 13
M  V30 33 1 33 25
M  V30 34 1 33 31
M  V30 35 1 34 8
M  V30 36 1 34 12
M  V30 37 2 34 16
M  V30 38 1 35 2
M  V30 39 1 36 2
M  V30 40 1 37 4
M  V30 41 1 38 6
M  V30 42 1 39 6
M  V30 43 1 40 8
M  V30 44 1 41 9
M  V30 45 1 42 9
M  V30 46 1 43 9
M  V30 47 1 44 10
M  V30 48 1 45 10
M  V30 49 1 46 12
M  V30 50 1 47 12
M  V30 51 1 48 12
M  V30 52 1 49 18
M  V30 53 1 50 18
M  V30 54 1 51 20
M  V30 55 1 52 20
M  V30 56 1 21 53 CFG=3
M  V30 57 1 54 23
M  V30 58 1 55 23
M  V30 59 1 56 25
M  V30 60 1 57 25
M  V30 61 1 58 26
M  V30 62 1 59 27
M  V30 63 1 60 27
M  V30 64 1 61 29
M  V30 65 1 62 29
M  V30 66 1 63 31
M  V30 67 1 64 31
M  V30 68 1 65 31
M  V30 69 1 33 66 CFG=1
M  V30 70 1 67 32
M  V30 END BOND
M  V30 END CTAB
M  END
>  <i_epik_Tot_Q>  (1) 
-1

>  <i_epik_Tot_abs_Q>  (1) 
1

>  <i_i_glide_confnum>  (1) 
421

>  <i_i_glide_lignum>  (1) 
61

>  <i_i_glide_posenum>  (1) 
387

>  <i_i_glide_rotatable_bonds>  (1) 
5

>  <i_lp_mmshare_version>  (1) 
72125

>  <i_m_source_file_index>  (1) 
26

>  <i_f3d_flags>  (1) 
0

>  <num_sample>  (1) 
100

>  <b_lp_Chiralities_Consistent>  (1) 
1

>  <r_epik_Charging_Adjusted_Penalty>  (1) 
0.31558791334810349

>  <r_epik_Ionization_Penalty>  (1) 
0.22690283062159758

>  <r_epik_Ionization_Penalty_Charging>  (1) 
2.1847890769935955e-05

>  <r_epik_Ionization_Penalty_Neutral>  (1) 
0.22688098273082763

>  <r_epik_State_Penalty>  (1) 
0.31556606545733357

>  <r_glide_ring_energy>  (1) 
1.5516210984443426

>  <r_i_docking_score>  (1) 
-6.7570828062869355

>  <r_i_glide_ecoul>  (1) 
-0.85711063252473663

>  <r_i_glide_eff_state_penalty>  (1) 
0.31556606545733357

>  <r_i_glide_einternal>  (1) 
3.9184110295456023

>  <r_i_glide_emodel>  (1) 
-58.355002491642495

>  <r_i_glide_emodel_strain>  (1) 
6.7117885180872179

>  <r_i_glide_energy>  (1) 
-49.461084245273682

>  <r_i_glide_erotb>  (1) 
0.36642180475109298

>  <r_i_glide_esite>  (1) 
-0.096040059161814448

>  <r_i_glide_evdw>  (1) 
-48.603973612748945

>  <r_i_glide_gscore>  (1) 
-7.0726488717442688

>  <r_i_glide_gscore_strain>  (1) 
0.67794712952180447

>  <r_i_glide_hbond>  (1) 
-0.23581666417840716

>  <r_i_glide_ligand_efficiency>  (1) 
-0.19873772959667457

>  <r_i_glide_ligand_efficiency_ln>  (1) 
-1.4928291216616998

>  <r_i_glide_ligand_efficiency_sa>  (1) 
-0.6438330941604804

>  <r_i_glide_lipo>  (1) 
-3.4056666820377428

>  <r_i_glide_metal>  (1) 
-0

>  <r_i_glide_rewards>  (1) 
-1.8207291251230429

>  <r_lp_Energy>  (1) 
73.741174999999998

>  <s_epik_Chemistry_Notes>  (1) 
This compound has an imine and may undergo hydrolysis. This compound has a N-S or N-O group and may undergo hydrolysis at high or low pH.

>  <s_epik_cmdline>  (1) 
J2VwaWtfcHl0aG9uJywgJy1waHQnLCAnMS4wJywgJy1waCcsICc3LjQnLCAnLXRuJywgJzgnLCAnLW1hJywgJzUwMCcsICctaW1hZScsICc8aW5maWxlLm1hZT4nLCAnLW9tYWUnLCAnPG91dGZpbGUubWFlPic=

>  <s_epik_input>  (1) 
W09IXUMoPU8pYyhjMVtOSDJdKWMoYyhbY0hdbjEpW0NIM10pQyg9TylbTkhdQyg9TltDSF09W0NIXTIpW0NIMl1OMltDQEhdKFtDSDJdMylbQ0gyXVtDSDJdW0NIMl1bQ0gyXVtDQF0zKFtDSDNdKU40T1tDQEBIXShbQ0gzXSlbQ0gyXVtDSDJdNA==

>  <s_glide_docking_method>  (1) 
confgen

>  <s_i_glide_gridfile>  (1) 
gpcr_5ht2c_6bqh_protein_autoprepared_prepared

>  <s_lp_Force_Field>  (1) 
S-OPLS

>  <s_lp_Variant>  (1) 
DiffSBDD_25-1

>  <s_m_source_file>  (1) 
generated_GPCR_5HT2C_ligand_DiffSBDD_2026-06-23_prepared.sdf

>  <GenAI_Model>  (1) 
DiffSBDD

>  <Protein>  (1) 
GPCR_5HT2C

$$$$
DiffSBDD_64
     RDKit          3D

  0  0  0  0  0  0  0  0  0  0999 V3000
M  V30 BEGIN CTAB
M  V30 COUNTS 77 80 0 0 1
M  V30 BEGIN ATOM
M  V30 1 C 42.690328 33.145338 65.777100 0
M  V30 2 C 39.847010 36.140642 63.019562 0
M  V30 3 C 39.503637 34.993469 62.049127 0 CFG=1
M  V30 4 C 37.864138 36.360281 60.663200 0
M  V30 5 N 40.855536 35.822399 64.042935 0 CHG=1
M  V30 6 C 40.081248 31.182120 64.413791 0
M  V30 7 C 38.749045 28.058504 57.347281 0
M  V30 8 N 42.144259 34.425148 65.359358 0
M  V30 9 O 38.688495 28.527945 59.669686 0
M  V30 10 C 37.181037 36.424221 59.506415 0
M  V30 11 C 37.578639 32.297181 58.711439 0
M  V30 12 C 38.647416 28.237927 52.903884 0
M  V30 13 O 37.768698 31.067392 56.642532 0
M  V30 14 C 41.262983 34.567634 64.345523 0
M  V30 15 O 43.501610 33.119770 66.703360 0
M  V30 16 O 42.791374 30.813858 65.357181 0 CHG=-1
M  V30 17 C 38.396013 29.119366 58.417819 0 CFG=1
M  V30 18 C 40.777813 33.468529 63.621828 0
M  V30 19 C 39.959278 33.639209 62.569012 0
M  V30 20 C 39.245136 30.408872 58.323067 0
M  V30 21 C 37.217883 31.142346 54.392654 0
M  V30 22 C 38.318446 28.315349 55.882611 0
M  V30 23 C 38.546234 31.636931 57.685387 0 CFG=2
M  V30 24 F 39.892207 28.937768 49.520592 0
M  V30 25 C 38.034328 35.094756 61.512721 0 CFG=1
M  V30 26 C 40.045137 30.242943 52.930191 0
M  V30 27 N 42.282503 32.035951 65.090773 0
M  V30 28 C 38.334065 30.840550 55.358776 0 CFG=2
M  V30 29 C 38.277548 33.267961 59.686010 0
M  V30 30 C 39.462220 32.761108 57.102826 0
M  V30 31 C 40.255434 30.116938 51.548951 0
M  V30 32 C 39.675308 29.055344 50.844360 0
M  V30 33 C 38.868262 28.115099 51.516706 0
M  V30 34 C 41.254450 32.119059 64.053740 0 CFG=1
M  V30 35 C 37.454944 33.789460 60.878279 0
M  V30 36 C 39.024618 29.473820 55.136267 0 CFG=2
M  V30 37 C 39.245137 29.304275 53.620314 0
M  V30 38 H 40.174509 37.022299 62.467153 0
M  V30 39 H 38.950612 36.437866 63.564412 0
M  V30 40 H 40.139249 35.133082 61.172899 0
M  V30 41 H 38.334121 37.255534 61.040970 0
M  V30 42 H 39.300803 31.175240 63.653889 0
M  V30 43 H 40.412976 30.147793 64.510621 0
M  V30 44 H 39.645145 31.465644 65.369934 0
M  V30 45 H 39.819937 27.849551 57.371608 0
M  V30 46 H 38.272943 27.123088 57.646508 0
M  V30 47 H 42.409844 35.286568 65.809383 0
M  V30 48 H 39.606049 28.301888 59.692302 0
M  V30 49 H 37.103869 37.351622 58.963178 0
M  V30 50 H 36.692861 35.556904 59.088957 0
M  V30 51 H 36.845126 32.887064 58.167721 0
M  V30 52 H 37.016997 31.538824 59.257622 0
M  V30 53 H 38.022463 27.519328 53.407841 0
M  V30 54 H 37.326606 29.336872 58.404318 0
M  V30 55 H 39.620046 32.773519 62.029922 0
M  V30 56 H 39.593544 30.680721 59.321643 0
M  V30 57 H 40.141452 30.137776 57.767750 0
M  V30 58 H 37.645142 31.176437 53.396904 0
M  V30 59 H 36.399700 30.426160 54.457834 0
M  V30 60 H 36.845135 32.139679 54.581259 0
M  V30 61 H 38.556057 27.371756 55.396224 0
M  V30 62 H 37.245255 28.447966 55.802575 0
M  V30 63 H 37.392567 35.337749 62.355805 0
M  V30 64 H 40.500208 31.061916 53.466541 0
M  V30 65 H 39.037467 31.601628 55.053026 0
M  V30 66 H 39.207786 32.822183 60.022419 0
M  V30 67 H 38.572304 34.137757 59.114041 0
M  V30 68 H 40.011783 33.337752 57.842730 0
M  V30 69 H 40.241136 32.392021 56.442995 0
M  V30 70 H 38.858618 33.475041 56.539447 0
M  V30 71 H 40.870338 30.837596 51.028889 0
M  V30 72 H 38.417459 27.300385 50.968237 0
M  V30 73 H 41.726123 31.701520 63.162291 0
M  V30 74 H 36.423748 33.962295 60.569632 0
M  V30 75 H 37.380096 33.005798 61.632309 0
M  V30 76 H 40.030817 29.537672 55.550375 0
M  V30 77 H 41.242986 36.607239 64.562634 0
M  V30 END ATOM
M  V30 BEGIN BOND
M  V30 1 1 3 2
M  V30 2 1 5 2
M  V30 3 1 8 1
M  V30 4 2 10 4
M  V30 5 2 14 5
M  V30 6 1 14 8
M  V30 7 2 15 1
M  V30 8 1 17 7
M  V30 9 1 17 9
M  V30 10 1 18 14
M  V30 11 1 19 3
M  V30 12 2 19 18
M  V30 13 1 20 17
M  V30 14 1 22 7
M  V30 15 1 23 11 CFG=1
M  V30 16 1 23 13
M  V30 17 1 23 20
M  V30 18 1 25 3
M  V30 19 1 25 4
M  V30 20 1 27 1
M  V30 21 1 27 16
M  V30 22 1 28 13
M  V30 23 1 28 21
M  V30 24 1 29 11
M  V30 25 1 30 23
M  V30 26 2 31 26
M  V30 27 1 32 24
M  V30 28 1 32 31
M  V30 29 1 33 12
M  V30 30 2 33 32
M  V30 31 1 34 6
M  V30 32 1 34 18
M  V30 33 1 34 27
M  V30 34 1 35 25
M  V30 35 1 35 29
M  V30 36 1 36 22
M  V30 37 1 36 28
M  V30 38 2 37 12
M  V30 39 1 37 26
M  V30 40 1 37 36
M  V30 41 1 38 2
M  V30 42 1 39 2
M  V30 43 1 3 40 CFG=3
M  V30 44 1 41 4
M  V30 45 1 42 6
M  V30 46 1 43 6
M  V30 47 1 44 6
M  V30 48 1 45 7
M  V30 49 1 46 7
M  V30 50 1 47 8
M  V30 51 1 48 9
M  V30 52 1 49 10
M  V30 53 1 50 10
M  V30 54 1 51 11
M  V30 55 1 52 11
M  V30 56 1 53 12
M  V30 57 1 17 54 CFG=1
M  V30 58 1 55 19
M  V30 59 1 56 20
M  V30 60 1 57 20
M  V30 61 1 58 21
M  V30 62 1 59 21
M  V30 63 1 60 21
M  V30 64 1 61 22
M  V30 65 1 62 22
M  V30 66 1 25 63 CFG=1
M  V30 67 1 64 26
M  V30 68 1 28 65 CFG=3
M  V30 69 1 66 29
M  V30 70 1 67 29
M  V30 71 1 68 30
M  V30 72 1 69 30
M  V30 73 1 70 30
M  V30 74 1 71 31
M  V30 75 1 72 33
M  V30 76 1 34 73 CFG=3
M  V30 77 1 74 35
M  V30 78 1 75 35
M  V30 79 1 36 76 CFG=1
M  V30 80 1 77 5
M  V30 END BOND
M  V30 END CTAB
M  END
>  <i_epik_Tot_Q>  (1) 
0

>  <i_epik_Tot_abs_Q>  (1) 
2

>  <i_i_glide_confnum>  (1) 
241

>  <i_i_glide_lignum>  (1) 
144

>  <i_i_glide_posenum>  (1) 
23

>  <i_i_glide_rotatable_bonds>  (1) 
8

>  <i_lp_mmshare_version>  (1) 
72125

>  <i_m_source_file_index>  (1) 
65

>  <i_f3d_flags>  (1) 
0

>  <num_sample>  (1) 
100

>  <b_lp_Chiralities_Consistent>  (1) 
1

>  <r_epik_Charging_Adjusted_Penalty>  (1) 
0.059234021973178383

>  <r_epik_Ionization_Penalty>  (1) 
0.05923416388853827

>  <r_epik_Ionization_Penalty_Charging>  (1) 
0.059234021973178383

>  <r_epik_Ionization_Penalty_Neutral>  (1) 
1.4191535988443934e-07

>  <r_epik_State_Penalty>  (1) 
-0

>  <r_glide_ring_energy>  (1) 
0.4351030857825357

>  <r_i_docking_score>  (1) 
-6.7539360086956624

>  <r_i_glide_ecoul>  (1) 
-2.0180396873635171

>  <r_i_glide_eff_state_penalty>  (1) 
-0

>  <r_i_glide_einternal>  (1) 
6.8581708399478298

>  <r_i_glide_emodel>  (1) 
-41.411024007439117

>  <r_i_glide_emodel_strain>  (1) 
1.5079254584739203

>  <r_i_glide_energy>  (1) 
-31.97861879638458

>  <r_i_glide_erotb>  (1) 
0.54408064829906078

>  <r_i_glide_esite>  (1) 
-0.026328177397553765

>  <r_i_glide_evdw>  (1) 
-29.960579109021062

>  <r_i_glide_gscore>  (1) 
-6.7539360086956624

>  <r_i_glide_gscore_strain>  (1) 
0

>  <r_i_glide_hbond>  (1) 
0

>  <r_i_glide_ligand_efficiency>  (1) 
-0.18253881104582872

>  <r_i_glide_ligand_efficiency_ln>  (1) 
-1.4647703855613603

>  <r_i_glide_ligand_efficiency_sa>  (1) 
-0.60825981494038217

>  <r_i_glide_lipo>  (1) 
-3.7535485386374883

>  <r_i_glide_metal>  (1) 
-0

>  <r_i_glide_rewards>  (1) 
-1.7174050324040995

>  <r_lp_Energy>  (1) 
55.422177999999995

>  <r_lp_tautomer_probability>  (1) 
1

>  <s_epik_Chemistry_Notes>  (1) 
This compound has an imine and may undergo hydrolysis.

>  <s_epik_cmdline>  (1) 
J2VwaWtfcHl0aG9uJywgJy1waHQnLCAnMS4wJywgJy1waCcsICc3LjQnLCAnLXRuJywgJzgnLCAnLW1hJywgJzUwMCcsICctaW1hZScsICc8aW5maWxlLm1hZT4nLCAnLW9tYWUnLCAnPG91dGZpbGUubWFlPic=

>  <s_epik_input>  (1) 
W05IXTFDKD1PKU4oW09IXSlbQ0BASF0oW0NIM10pQyhDMTIpPVtDSF1bQ0BASF0oW0NIMl1OPTIpW0NAQEhdKFtDSF09W0NIMl0pW0NIMl1bQ0gyXVtDSDJdW0NAXTMoW0NIM10pT1tDQEhdKFtDSDNdKVtDQEBIXShbQ0gyXVtDSDJdW0NAQEhdKFtPSF0pW0NIMl0zKWMoW2NIXVtjSF00KVtjSF1bY0hdYzRG

>  <s_glide_docking_method>  (1) 
confgen

>  <s_i_glide_gridfile>  (1) 
gpcr_5ht2c_6bqh_protein_autoprepared_prepared

>  <s_lp_Force_Field>  (1) 
S-OPLS

>  <s_lp_Variant>  (1) 
DiffSBDD_64-2

>  <s_m_source_file>  (1) 
generated_GPCR_5HT2C_ligand_DiffSBDD_2026-06-23_prepared.sdf

>  <GenAI_Model>  (1) 
DiffSBDD

>  <Protein>  (1) 
GPCR_5HT2C

$$$$
DiffSBDD_47
     RDKit          3D

  0  0  0  0  0  0  0  0  0  0999 V3000
M  V30 BEGIN CTAB
M  V30 COUNTS 51 52 0 0 1
M  V30 BEGIN ATOM
M  V30 1 O 35.645257 33.737792 61.694808 0
M  V30 2 C 36.565825 32.337699 59.947884 0
M  V30 3 C 38.234023 29.169677 58.802268 0
M  V30 4 C 39.285080 28.480302 50.967760 0
M  V30 5 C 39.385910 29.977345 53.353529 0
M  V30 6 C 37.187878 33.403443 59.113335 0
M  V30 7 C 38.622038 28.012447 52.117643 0
M  V30 8 C 38.458820 31.566850 57.907421 0
M  V30 9 C 39.507656 28.600411 58.150281 0
M  V30 10 O 36.748282 34.551954 59.065941 0
M  V30 11 C 37.950039 28.246902 54.558312 0 CFG=2
M  V30 12 C 38.688647 27.083551 55.257107 0
M  V30 13 O 39.663701 26.537030 54.737883 0
M  V30 14 C 38.153010 26.624359 56.624030 0 CFG=2
M  V30 15 C 38.315527 30.669648 59.149841 0 CFG=1
M  V30 16 C 38.433360 33.046664 58.297286 0
M  V30 17 C 39.995605 29.697579 51.007224 0
M  V30 18 C 37.096503 31.094628 59.957831 0
M  V30 19 S 39.421428 26.798133 57.921794 0
M  V30 20 C 38.670568 28.758085 53.314558 0
M  V30 21 C 40.045134 30.443898 52.199999 0
M  V30 22 C 40.700045 30.207387 49.767930 0
M  V30 23 C 37.677899 25.164942 56.555257 0
M  V30 24 O 37.645160 29.276877 55.480934 0
M  V30 25 C 35.335974 32.735209 60.750284 0
M  V30 26 H 35.875441 34.521854 61.214456 0
M  V30 27 H 38.045139 28.606909 59.717444 0
M  V30 28 H 37.367397 28.999812 58.164155 0
M  V30 29 H 39.244969 27.907453 50.054466 0
M  V30 30 H 39.429838 30.553768 54.266010 0
M  V30 31 H 38.075701 27.080369 52.082500 0
M  V30 32 H 39.379306 31.349154 57.367496 0
M  V30 33 H 37.645150 31.369908 57.208007 0
M  V30 34 H 39.712918 29.070287 57.190479 0
M  V30 35 H 40.368056 28.809809 58.786674 0
M  V30 36 H 36.995476 27.842466 54.220219 0
M  V30 37 H 37.295975 27.234967 56.900430 0
M  V30 38 H 39.181661 30.818559 59.795836 0
M  V30 39 H 39.315567 33.297941 58.886411 0
M  V30 40 H 38.460153 33.668633 57.402137 0
M  V30 41 H 36.637566 30.331335 60.567515 0
M  V30 42 H 40.589063 31.375249 52.230250 0
M  V30 43 H 41.737784 30.455878 49.991571 0
M  V30 44 H 40.685319 29.467745 48.967760 0
M  V30 45 H 40.205677 31.110473 49.408792 0
M  V30 46 H 36.905294 25.034019 55.796844 0
M  V30 47 H 38.499851 24.488320 56.317961 0
M  V30 48 H 37.256519 24.848999 57.509951 0
M  V30 49 H 37.123134 29.939253 55.051176 0
M  V30 50 H 34.935332 31.868524 61.275903 0
M  V30 51 H 34.552408 33.092333 60.079656 0
M  V30 END ATOM
M  V30 BEGIN BOND
M  V30 1 1 6 2
M  V30 2 2 7 4
M  V30 3 1 9 3
M  V30 4 2 10 6
M  V30 5 1 12 11
M  V30 6 2 13 12
M  V30 7 1 14 12
M  V30 8 1 15 3
M  V30 9 1 15 8
M  V30 10 1 16 6
M  V30 11 1 16 8
M  V30 12 1 17 4
M  V30 13 2 18 2
M  V30 14 1 18 15
M  V30 15 1 19 9
M  V30 16 1 19 14
M  V30 17 2 20 5
M  V30 18 1 20 7
M  V30 19 1 20 11
M  V30 20 1 21 5
M  V30 21 2 21 17
M  V30 22 1 22 17
M  V30 23 1 23 14
M  V30 24 1 24 11
M  V30 25 1 25 1
M  V30 26 1 25 2
M  V30 27 1 26 1
M  V30 28 1 27 3
M  V30 29 1 28 3
M  V30 30 1 29 4
M  V30 31 1 30 5
M  V30 32 1 31 7
M  V30 33 1 32 8
M  V30 34 1 33 8
M  V30 35 1 34 9
M  V30 36 1 35 9
M  V30 37 1 11 36 CFG=3
M  V30 38 1 14 37 CFG=1
M  V30 39 1 15 38 CFG=1
M  V30 40 1 39 16
M  V30 41 1 40 16
M  V30 42 1 41 18
M  V30 43 1 42 21
M  V30 44 1 43 22
M  V30 45 1 44 22
M  V30 46 1 45 22
M  V30 47 1 46 23
M  V30 48 1 47 23
M  V30 49 1 48 23
M  V30 50 1 49 24
M  V30 51 1 50 25
M  V30 52 1 51 25
M  V30 END BOND
M  V30 END CTAB
M  END
>  <i_epik_Tot_Q>  (1) 
0

>  <i_epik_Tot_abs_Q>  (1) 
0

>  <i_i_glide_confnum>  (1) 
189

>  <i_i_glide_lignum>  (1) 
100

>  <i_i_glide_posenum>  (1) 
57

>  <i_i_glide_rotatable_bonds>  (1) 
10

>  <i_lp_mmshare_version>  (1) 
72125

>  <i_m_source_file_index>  (1) 
48

>  <i_f3d_flags>  (1) 
0

>  <num_sample>  (1) 
100

>  <b_lp_Chiralities_Consistent>  (1) 
1

>  <r_epik_Charging_Adjusted_Penalty>  (1) 
0

>  <r_epik_Ionization_Penalty>  (1) 
1.6598549338111207e-05

>  <r_epik_Ionization_Penalty_Charging>  (1) 
0

>  <r_epik_Ionization_Penalty_Neutral>  (1) 
1.6598549338111207e-05

>  <r_epik_State_Penalty>  (1) 
-0

>  <r_glide_ring_energy>  (1) 
0

>  <r_i_docking_score>  (1) 
-6.748397813783404

>  <r_i_glide_ecoul>  (1) 
-0.32504562549187099

>  <r_i_glide_eff_state_penalty>  (1) 
-0

>  <r_i_glide_einternal>  (1) 
4.2795479689477016

>  <r_i_glide_emodel>  (1) 
-65.629466567288532

>  <r_i_glide_emodel_strain>  (1) 
0.10219129887856937

>  <r_i_glide_energy>  (1) 
-46.984370136543617

>  <r_i_glide_erotb>  (1) 
1.1691057722696085

>  <r_i_glide_esite>  (1) 
-0.056823146689094696

>  <r_i_glide_evdw>  (1) 
-46.659324511051743

>  <r_i_glide_gscore>  (1) 
-6.748397813783404

>  <r_i_glide_gscore_strain>  (1) 
0

>  <r_i_glide_hbond>  (1) 
0

>  <r_i_glide_ligand_efficiency>  (1) 
-0.26993591255133614

>  <r_i_glide_ligand_efficiency_ln>  (1) 
-1.5995725150299311

>  <r_i_glide_ligand_efficiency_sa>  (1) 
-0.78929739648078401

>  <r_i_glide_lipo>  (1) 
-3.4788398608221169

>  <r_i_glide_metal>  (1) 
-0

>  <r_i_glide_rewards>  (1) 
-2.0001175091654328

>  <r_lp_Energy>  (1) 
25.714537

>  <r_lp_tautomer_probability>  (1) 
1

>  <s_epik_cmdline>  (1) 
J2VwaWtfcHl0aG9uJywgJy1waHQnLCAnMS4wJywgJy1waCcsICc3LjQnLCAnLXRuJywgJzgnLCAnLW1hJywgJzUwMCcsICctaW1hZScsICc8aW5maWxlLm1hZT4nLCAnLW9tYWUnLCAnPG91dGZpbGUubWFlPic=

>  <s_epik_input>  (1) 
W09IXVtDSDJdQzE9W0NIXVtDQEhdKFtDSDJdW0NIMl1DMT1PKVtDSDJdW0NIMl1TXEMoW0NIM10pPUMoW09IXSlcW0NAQEhdKFtPSF0pYyhbY0hdW2NIXTIpW2NIXVtjSF1jMltDSDNd

>  <s_glide_docking_method>  (1) 
confgen

>  <s_i_glide_gridfile>  (1) 
gpcr_5ht2c_6bqh_protein_autoprepared_prepared

>  <s_lp_Force_Field>  (1) 
S-OPLS

>  <s_lp_Variant>  (1) 
DiffSBDD_47-2

>  <s_m_source_file>  (1) 
generated_GPCR_5HT2C_ligand_DiffSBDD_2026-06-23_prepared.sdf

>  <GenAI_Model>  (1) 
DiffSBDD

>  <Protein>  (1) 
GPCR_5HT2C

$$$$
DiffSBDD_75
     RDKit          3D

  0  0  0  0  0  0  0  0  0  0999 V3000
M  V30 BEGIN CTAB
M  V30 COUNTS 76 77 0 0 1
M  V30 BEGIN ATOM
M  V30 1 C 40.299171 30.280039 62.348218 0
M  V30 2 C 37.195900 31.362541 60.637775 0
M  V30 3 O 37.610842 28.531264 57.637829 0
M  V30 4 C 41.081991 30.070297 65.234939 0
M  V30 5 C 39.039638 29.780446 55.333512 0 CFG=1
M  V30 6 C 38.861005 36.029996 61.879019 0
M  V30 7 C 39.015944 28.438118 57.565502 0 CFG=2
M  V30 8 C 38.445133 36.523086 63.126713 0
M  V30 9 O 36.845135 30.424330 54.567797 0
M  V30 10 C 39.369692 27.200776 55.304465 0 CFG=2
M  V30 11 O 35.525945 38.537756 62.145726 0
M  V30 12 S 39.288745 28.933136 60.237722 0
M  V30 13 C 41.649101 28.692299 64.834810 0
M  V30 14 C 36.605744 37.705476 62.055046 0
M  V30 15 C 39.584417 29.479191 58.533817 0
M  V30 16 C 40.077399 35.125921 61.789161 0
M  V30 17 C 38.137527 36.366902 60.718315 0
M  V30 18 O 37.730370 25.822706 54.167767 0
M  V30 19 C 39.911115 25.947890 56.022979 0
M  V30 20 C 39.557505 28.524741 56.107369 0 CFG=1
M  V30 21 O 40.845134 27.663627 65.373052 0
M  V30 22 O 38.097337 30.937677 61.649382 0
M  V30 23 O 41.954966 32.937701 61.888750 0
M  V30 24 C 41.810724 32.372629 65.214522 0
M  V30 25 N 41.524740 31.192786 64.385188 0
M  V30 26 C 40.874942 32.741228 62.446167 0
M  V30 27 C 37.308126 37.337754 63.214498 0
M  V30 28 C 39.713518 33.725549 62.298490 0
M  V30 29 C 40.559463 31.483052 63.289087 0 CFG=1
M  V30 30 C 37.017597 37.215541 60.803940 0
M  V30 31 C 37.487368 28.191403 53.945840 0
M  V30 32 C 39.355025 30.491773 61.153943 0 CFG=1
M  V30 33 C 40.045127 30.369674 54.330236 0
M  V30 34 C 37.903251 27.033662 54.862297 0 CFG=2
M  V30 35 C 37.701319 29.548807 54.616154 0
M  V30 36 H 41.252623 29.910686 61.974009 0
M  V30 37 H 39.858618 29.469676 62.928235 0
M  V30 38 H 36.293254 31.759997 61.101445 0
M  V30 39 H 37.628628 32.149858 60.019286 0
M  V30 40 H 36.898565 30.535436 59.992028 0
M  V30 41 H 37.339147 29.406890 57.397385 0
M  V30 42 H 41.372825 30.226329 66.275158 0
M  V30 43 H 39.990413 30.040274 65.264235 0
M  V30 44 H 39.288385 27.470773 57.983165 0
M  V30 45 H 38.991778 36.261612 64.021835 0
M  V30 46 H 38.075028 28.174535 53.027629 0
M  V30 47 H 39.969609 27.295988 54.399581 0
M  V30 48 H 35.311988 38.779556 63.033211 0
M  V30 49 H 41.709780 28.546475 63.759483 0
M  V30 50 H 42.667762 28.589198 65.210218 0
M  V30 51 H 39.134523 30.457650 58.364267 0
M  V30 52 H 40.660721 29.587298 58.401206 0
M  V30 53 H 40.438109 35.079273 60.760657 0
M  V30 54 H 40.883641 35.556344 62.385854 0
M  V30 55 H 38.445197 35.983308 59.767760 0
M  V30 56 H 36.845406 25.776281 53.838424 0
M  V30 57 H 39.235463 25.601224 56.805069 0
M  V30 58 H 40.037488 25.119475 55.326060 0
M  V30 59 H 40.881210 26.140074 56.475085 0
M  V30 60 H 40.637340 28.639524 56.212133 0
M  V30 61 H 39.964829 27.757223 65.024151 0
M  V30 62 H 42.516331 32.128237 66.010383 0
M  V30 63 H 42.281450 33.175739 64.647004 0
M  V30 64 H 40.903290 32.763483 65.678004 0
M  V30 65 H 36.987764 37.702795 64.167758 0
M  V30 66 H 39.245578 33.812920 63.277440 0
M  V30 67 H 38.967356 33.292392 61.636225 0
M  V30 68 H 39.603921 31.687682 63.767665 0
M  V30 69 H 36.474174 37.485820 59.910837 0
M  V30 70 H 36.445196 28.089727 53.650578 0
M  V30 71 H 38.860407 30.565631 56.068208 0
M  V30 72 H 39.777230 31.248401 60.492288 0
M  V30 73 H 39.703313 31.342997 53.975903 0
M  V30 74 H 41.023799 30.526944 54.780832 0
M  V30 75 H 40.162764 29.737771 53.451224 0
M  V30 76 H 37.245137 26.965980 55.725095 0
M  V30 END ATOM
M  V30 BEGIN BOND
M  V30 1 1 7 3
M  V30 2 1 8 6
M  V30 3 1 13 4
M  V30 4 1 14 11
M  V30 5 1 15 7
M  V30 6 1 15 12
M  V30 7 1 16 6
M  V30 8 2 17 6
M  V30 9 1 19 10
M  V30 10 1 20 5
M  V30 11 1 20 7
M  V30 12 1 20 10
M  V30 13 1 21 13
M  V30 14 1 22 2
M  V30 15 1 25 4
M  V30 16 1 25 24
M  V30 17 2 26 23
M  V30 18 2 27 8
M  V30 19 1 27 14
M  V30 20 1 28 16
M  V30 21 1 28 26
M  V30 22 1 29 1
M  V30 23 1 29 25
M  V30 24 1 29 26
M  V30 25 2 30 14
M  V30 26 1 30 17
M  V30 27 1 32 1
M  V30 28 1 32 12
M  V30 29 1 32 22
M  V30 30 1 33 5
M  V30 31 1 34 10
M  V30 32 1 34 18
M  V30 33 1 34 31
M  V30 34 1 35 5
M  V30 35 2 35 9
M  V30 36 1 35 31
M  V30 37 1 36 1
M  V30 38 1 37 1
M  V30 39 1 38 2
M  V30 40 1 39 2
M  V30 41 1 40 2
M  V30 42 1 41 3
M  V30 43 1 42 4
M  V30 44 1 43 4
M  V30 45 1 7 44 CFG=1
M  V30 46 1 45 8
M  V30 47 1 46 31
M  V30 48 1 10 47 CFG=3
M  V30 49 1 48 11
M  V30 50 1 49 13
M  V30 51 1 50 13
M  V30 52 1 51 15
M  V30 53 1 52 15
M  V30 54 1 53 16
M  V30 55 1 54 16
M  V30 56 1 55 17
M  V30 57 1 56 18
M  V30 58 1 57 19
M  V30 59 1 58 19
M  V30 60 1 59 19
M  V30 61 1 20 60 CFG=1
M  V30 62 1 61 21
M  V30 63 1 62 24
M  V30 64 1 63 24
M  V30 65 1 64 24
M  V30 66 1 65 27
M  V30 67 1 66 28
M  V30 68 1 67 28
M  V30 69 1 29 68 CFG=1
M  V30 70 1 69 30
M  V30 71 1 70 31
M  V30 72 1 5 71 CFG=1
M  V30 73 1 32 72 CFG=3
M  V30 74 1 73 33
M  V30 75 1 74 33
M  V30 76 1 75 33
M  V30 77 1 34 76 CFG=1
M  V30 END BOND
M  V30 END CTAB
M  END
>  <i_epik_Tot_Q>  (1) 
0

>  <i_epik_Tot_abs_Q>  (1) 
0

>  <i_i_glide_confnum>  (1) 
7944

>  <i_i_glide_lignum>  (1) 
172

>  <i_i_glide_posenum>  (1) 
185

>  <i_i_glide_rotatable_bonds>  (1) 
18

>  <i_lp_mmshare_version>  (1) 
72125

>  <i_m_source_file_index>  (1) 
76

>  <i_f3d_flags>  (1) 
0

>  <num_sample>  (1) 
100

>  <b_lp_Chiralities_Consistent>  (1) 
1

>  <r_epik_Charging_Adjusted_Penalty>  (1) 
0.60615279515584763

>  <r_epik_Ionization_Penalty>  (1) 
0.6077244911787385

>  <r_epik_Ionization_Penalty_Charging>  (1) 
0

>  <r_epik_Ionization_Penalty_Neutral>  (1) 
0.6077244911787385

>  <r_epik_State_Penalty>  (1) 
0.60615279515584763

>  <r_glide_ring_energy>  (1) 
0

>  <r_i_docking_score>  (1) 
-6.7332556305139519

>  <r_i_glide_ecoul>  (1) 
-4.3162780143501767

>  <r_i_glide_eff_state_penalty>  (1) 
0.60615279515584763

>  <r_i_glide_einternal>  (1) 
12.13348171256942

>  <r_i_glide_emodel>  (1) 
-66.50622163149751

>  <r_i_glide_emodel_strain>  (1) 
0.60832135041832913

>  <r_i_glide_energy>  (1) 
-50.115657919912714

>  <r_i_glide_erotb>  (1) 
1.0176109525924779

>  <r_i_glide_esite>  (1) 
0

>  <r_i_glide_evdw>  (1) 
-45.799379905562539

>  <r_i_glide_gscore>  (1) 
-7.3394084256697996

>  <r_i_glide_gscore_strain>  (1) 
0

>  <r_i_glide_hbond>  (1) 
-0.37106527862187505

>  <r_i_glide_ligand_efficiency>  (1) 
-0.19237873230039862

>  <r_i_glide_ligand_efficiency_ln>  (1) 
-1.478099047455103

>  <r_i_glide_ligand_efficiency_sa>  (1) 
-0.62928359002462353

>  <r_i_glide_lipo>  (1) 
-4.3279553686100529

>  <r_i_glide_metal>  (1) 
-0

>  <r_i_glide_rewards>  (1) 
-0.72058803359969725

>  <r_lp_Energy>  (1) 
23.098794999999999

>  <r_lp_tautomer_probability>  (1) 
0.99999993999736703

>  <s_epik_Chemistry_Notes>  (1) 
This compound contains an acetal/aminal-like group ( X-CH(R)-Y where X, Y are N, S, or O) that may be acid/base labile, releasing an aldehyde.

>  <s_epik_cmdline>  (1) 
J2VwaWtfcHl0aG9uJywgJy1waHQnLCAnMS4wJywgJy1waCcsICc3LjQnLCAnLXRuJywgJzgnLCAnLW1hJywgJzUwMCcsICctaW1hZScsICc8aW5maWxlLm1hZT4nLCAnLW9tYWUnLCAnPG91dGZpbGUubWFlPic=

>  <s_epik_input>  (1) 
W2NIXTFbY0hdYyhbT0hdKVtjSF1bY0hdYzFbQ0gyXVtDSDJdQyg9TylbQ0BIXShOKFtDSDNdKVtDSDJdW0NIMl1bT0hdKVtDSDJdW0NASF0oT1tDSDNdKVNbQ0gyXVtDQEBIXShbT0hdKVtDQEhdMltDQEBIXShbQ0gzXSlbQ0BIXShbT0hdKVtDSDJdQyhbT0hdKT1DMltDSDNd

>  <s_glide_docking_method>  (1) 
confgen

>  <s_i_glide_gridfile>  (1) 
gpcr_5ht2c_6bqh_protein_autoprepared_prepared

>  <s_lp_Force_Field>  (1) 
S-OPLS

>  <s_lp_Variant>  (1) 
DiffSBDD_75-9

>  <s_m_source_file>  (1) 
generated_GPCR_5HT2C_ligand_DiffSBDD_2026-06-23_prepared.sdf

>  <GenAI_Model>  (1) 
DiffSBDD

>  <Protein>  (1) 
GPCR_5HT2C

$$$$
DiffSBDD_15
     RDKit          3D

  0  0  0  0  0  0  0  0  0  0999 V3000
M  V30 BEGIN CTAB
M  V30 COUNTS 75 76 0 0 1
M  V30 BEGIN ATOM
M  V30 1 C 37.274964 31.613705 60.283066 0
M  V30 2 C 40.385647 35.031958 61.594692 0
M  V30 3 N 37.929131 24.849302 55.454956 0
M  V30 4 C 40.761647 34.083392 62.765449 0 CFG=2
M  V30 5 C 36.903568 37.886819 61.780888 0
M  V30 6 C 38.662600 27.128485 57.232717 0
M  V30 7 O 36.333693 23.275529 55.767890 0
M  V30 8 C 38.604020 24.626539 56.729176 0
M  V30 9 C 39.358245 31.076355 63.127343 0
M  V30 10 C 38.672886 36.444609 62.888291 0
M  V30 11 C 36.845556 24.156585 55.083971 0
M  V30 12 O 34.845289 37.335899 66.344931 0
M  V30 13 C 41.522432 34.823043 63.882549 0
M  V30 14 C 37.855899 34.550639 61.331731 0
M  V30 15 C 39.473740 25.828730 57.107304 0
M  V30 16 C 41.568499 32.859870 62.269327 0
M  V30 17 C 38.949044 35.612860 61.613190 0 CFG=2
M  V30 18 C 39.499110 28.226190 57.870384 0
M  V30 19 C 35.664807 38.537836 61.801980 0
M  V30 20 C 40.213605 30.866493 61.873368 0 CFG=2
M  V30 21 C 37.323128 37.145721 62.902054 0
M  V30 22 C 40.356496 29.184273 59.971546 0
M  V30 23 C 36.842971 32.920345 59.581581 0
M  V30 24 C 36.492419 37.076780 64.046810 0
M  V30 25 C 35.245189 37.746374 64.053664 0
M  V30 26 C 37.735516 34.153036 59.848493 0
M  V30 27 O 40.045188 29.075626 57.170700 0
M  V30 28 O 40.801260 32.066321 61.367646 0
M  V30 29 C 34.837685 38.450495 62.919686 0
M  V30 30 C 38.637068 31.089830 59.791208 0
M  V30 31 C 34.368712 37.737669 65.278894 0
M  V30 32 O 33.197967 38.136738 65.173420 0 CHG=-1
M  V30 33 N 39.592755 28.202219 59.207817 0
M  V30 34 C 39.421751 30.140423 60.745490 0 CFG=2
M  V30 35 H 36.523270 30.847557 60.087347 0
M  V30 36 H 37.250777 31.751000 61.356699 0
M  V30 37 H 40.505979 34.509366 60.648031 0
M  V30 38 H 41.105514 35.850971 61.545632 0
M  V30 39 H 38.297584 25.559382 54.839336 0
M  V30 40 H 39.851998 33.712073 63.227346 0
M  V30 41 H 37.533989 37.960532 60.908156 0
M  V30 42 H 38.318312 27.467743 56.254486 0
M  V30 43 H 37.770597 26.965990 57.839023 0
M  V30 44 H 37.876108 24.440662 57.521994 0
M  V30 45 H 39.229405 23.738015 56.666667 0
M  V30 46 H 38.847907 30.156985 63.407668 0
M  V30 47 H 39.959499 31.378159 63.984284 0
M  V30 48 H 38.605181 31.837359 62.967669 0
M  V30 49 H 38.750921 35.810979 63.767529 0
M  V30 50 H 39.443261 37.208887 63.001149 0
M  V30 51 H 36.482779 24.481243 54.096469 0
M  V30 52 H 42.444947 35.262993 63.513168 0
M  V30 53 H 40.939005 35.636844 64.310479 0
M  V30 54 H 41.772436 34.149245 64.702492 0
M  V30 55 H 36.874697 34.898742 61.652413 0
M  V30 56 H 38.060198 33.679250 61.940405 0
M  V30 57 H 39.971713 25.608404 58.053053 0
M  V30 58 H 40.271265 25.958435 56.373838 0
M  V30 59 H 42.445575 33.211429 61.727634 0
M  V30 60 H 41.948957 32.261520 63.098724 0
M  V30 61 H 38.919978 36.304813 60.773378 0
M  V30 62 H 35.344302 39.106191 60.967722 0
M  V30 63 H 41.035921 30.224380 62.189035 0
M  V30 64 H 40.958554 28.603790 60.671799 0
M  V30 65 H 41.069813 29.737392 59.360944 0
M  V30 66 H 36.830992 32.744808 58.505924 0
M  V30 67 H 35.814168 33.154800 59.858309 0
M  V30 68 H 36.815965 36.537794 64.919770 0
M  V30 69 H 38.720072 33.990873 59.418941 0
M  V30 70 H 37.327323 34.999493 59.294325 0
M  V30 71 H 33.883838 38.937730 62.909691 0
M  V30 72 H 39.262944 31.928131 59.517600 0
M  V30 73 H 38.441626 30.596853 58.841507 0
M  V30 74 H 39.116051 27.475303 59.719391 0
M  V30 75 H 38.692913 29.491665 61.228944 0
M  V30 END ATOM
M  V30 BEGIN BOND
M  V30 1 1 4 2
M  V30 2 1 8 3
M  V30 3 1 11 3
M  V30 4 2 11 7
M  V30 5 1 13 4
M  V30 6 1 15 6
M  V30 7 1 15 8
M  V30 8 1 16 4
M  V30 9 1 17 2
M  V30 10 1 17 10
M  V30 11 1 17 14
M  V30 12 1 18 6
M  V30 13 2 19 5
M  V30 14 1 20 9
M  V30 15 1 21 5
M  V30 16 1 21 10
M  V30 17 1 23 1
M  V30 18 2 24 21
M  V30 19 1 25 24
M  V30 20 1 26 14
M  V30 21 1 26 23
M  V30 22 2 27 18
M  V30 23 1 28 16
M  V30 24 1 28 20
M  V30 25 1 29 19
M  V30 26 2 29 25
M  V30 27 1 30 1
M  V30 28 2 31 12
M  V30 29 1 31 25
M  V30 30 1 32 31
M  V30 31 1 33 18
M  V30 32 1 33 22
M  V30 33 1 34 20
M  V30 34 1 34 22
M  V30 35 1 34 30
M  V30 36 1 35 1
M  V30 37 1 36 1
M  V30 38 1 37 2
M  V30 39 1 38 2
M  V30 40 1 39 3
M  V30 41 1 4 40 CFG=1
M  V30 42 1 41 5
M  V30 43 1 42 6
M  V30 44 1 43 6
M  V30 45 1 44 8
M  V30 46 1 45 8
M  V30 47 1 46 9
M  V30 48 1 47 9
M  V30 49 1 48 9
M  V30 50 1 49 10
M  V30 51 1 50 10
M  V30 52 1 51 11
M  V30 53 1 52 13
M  V30 54 1 53 13
M  V30 55 1 54 13
M  V30 56 1 55 14
M  V30 57 1 56 14
M  V30 58 1 57 15
M  V30 59 1 58 15
M  V30 60 1 59 16
M  V30 61 1 60 16
M  V30 62 1 17 61 CFG=3
M  V30 63 1 62 19
M  V30 64 1 20 63 CFG=1
M  V30 65 1 64 22
M  V30 66 1 65 22
M  V30 67 1 66 23
M  V30 68 1 67 23
M  V30 69 1 68 24
M  V30 70 1 69 26
M  V30 71 1 70 26
M  V30 72 1 71 29
M  V30 73 1 72 30
M  V30 74 1 73 30
M  V30 75 1 74 33
M  V30 76 1 34 75 CFG=1
M  V30 END BOND
M  V30 END CTAB
M  END
>  <i_epik_Tot_Q>  (1) 
-1

>  <i_epik_Tot_abs_Q>  (1) 
1

>  <i_i_glide_confnum>  (1) 
2410

>  <i_i_glide_lignum>  (1) 
31

>  <i_i_glide_posenum>  (1) 
62

>  <i_i_glide_rotatable_bonds>  (1) 
11

>  <i_lp_mmshare_version>  (1) 
72125

>  <i_m_source_file_index>  (1) 
16

>  <i_f3d_flags>  (1) 
0

>  <num_sample>  (1) 
100

>  <b_lp_Chiralities_Consistent>  (1) 
1

>  <r_epik_Charging_Adjusted_Penalty>  (1) 
0.00039988353432540339

>  <r_epik_Ionization_Penalty>  (1) 
0.00039992702821499621

>  <r_epik_Ionization_Penalty_Charging>  (1) 
0.00039988353432540339

>  <r_epik_Ionization_Penalty_Neutral>  (1) 
4.349388959280561e-08

>  <r_epik_State_Penalty>  (1) 
-0

>  <r_glide_ring_energy>  (1) 
0

>  <r_i_docking_score>  (1) 
-6.7300575650097558

>  <r_i_glide_ecoul>  (1) 
-1.7811744909582379

>  <r_i_glide_eff_state_penalty>  (1) 
-0

>  <r_i_glide_einternal>  (1) 
27.980842288425304

>  <r_i_glide_emodel>  (1) 
-28.026210617171245

>  <r_i_glide_emodel_strain>  (1) 
1.0611206477560344

>  <r_i_glide_energy>  (1) 
-34.878743603539945

>  <r_i_glide_erotb>  (1) 
0.81156586864238245

>  <r_i_glide_esite>  (1) 
0

>  <r_i_glide_evdw>  (1) 
-33.097569112581709

>  <r_i_glide_gscore>  (1) 
-6.7300575650097558

>  <r_i_glide_gscore_strain>  (1) 
0

>  <r_i_glide_hbond>  (1) 
-0.025401129344152801

>  <r_i_glide_ligand_efficiency>  (1) 
-0.19794286955911047

>  <r_i_glide_ligand_efficiency_ln>  (1) 
-1.4868584878312294

>  <r_i_glide_ligand_efficiency_sa>  (1) 
-0.64125805620242382

>  <r_i_glide_lipo>  (1) 
-4.0270010231816276

>  <r_i_glide_metal>  (1) 
-0

>  <r_i_glide_rewards>  (1) 
-1.5671666518535361

>  <r_lp_Energy>  (1) 
33.049985999999997

>  <r_lp_tautomer_probability>  (1) 
1

>  <s_epik_cmdline>  (1) 
J2VwaWtfcHl0aG9uJywgJy1waHQnLCAnMS4wJywgJy1waCcsICc3LjQnLCAnLXRuJywgJzgnLCAnLW1hJywgJzUwMCcsICctaW1hZScsICc8aW5maWxlLm1hZT4nLCAnLW9tYWUnLCAnPG91dGZpbGUubWFlPic=

>  <s_epik_input>  (1) 
Tz1bQ0hdW05IXVtDSDJdW0NIMl1bQ0gyXUMoPU8pW05IXVtDSDJdW0NAQEhdKFtDQEhdKFtDSDNdKU9bQ0gyXTEpW0NIMl1bQ0gyXVtDSDJdW0NIMl1bQ0gyXVtDQEhdKFtDSDJdW0NAQEhdMVtDSDNdKVtDSDJdYzJbY0hdW2NIXVtjSF1jKFtjSF0yKUMoPU8pW09IXQ==

>  <s_glide_docking_method>  (1) 
confgen

>  <s_i_glide_gridfile>  (1) 
gpcr_5ht2c_6bqh_protein_autoprepared_prepared

>  <s_lp_Force_Field>  (1) 
S-OPLS

>  <s_lp_Variant>  (1) 
DiffSBDD_15-1

>  <s_m_source_file>  (1) 
generated_GPCR_5HT2C_ligand_DiffSBDD_2026-06-23_prepared.sdf

>  <GenAI_Model>  (1) 
DiffSBDD

>  <Protein>  (1) 
GPCR_5HT2C

$$$$
DiffSBDD_63
     RDKit          3D

  0  0  0  0  0  0  0  0  0  0999 V3000
M  V30 BEGIN CTAB
M  V30 COUNTS 83 88 0 0 1
M  V30 BEGIN ATOM
M  V30 1 F 37.929975 28.204388 55.307308 0
M  V30 2 C 40.045280 36.137738 64.537816 0
M  V30 3 C 38.681461 29.293570 55.165082 0 CFG=1
M  V30 4 C 41.115989 27.601090 65.648365 0
M  V30 5 C 39.225632 28.043945 59.481911 0
M  V30 6 C 39.422832 29.945581 61.243827 0 CFG=1
M  V30 7 N 37.412146 31.312579 54.967751 0 CHG=1
M  V30 8 C 42.980776 32.459182 66.478693 0
M  V30 9 C 40.772789 35.248520 66.735536 0
M  V30 10 C 41.357294 32.772529 64.534746 0 CFG=2
M  V30 11 C 42.417133 31.849305 65.209074 0 CFG=2
M  V30 12 C 38.771059 28.017803 58.026540 0
M  V30 13 C 42.812952 33.737795 66.832449 0
M  V30 14 C 40.825323 35.207538 63.892757 0
M  V30 15 N 39.222207 36.858508 63.667930 0
M  V30 16 N 38.454736 30.210284 58.958428 0 CHG=1
M  V30 17 C 38.200861 29.422046 57.730723 0 CFG=1
M  V30 18 C 41.851939 28.734857 67.815660 0
M  V30 19 C 38.457856 37.003443 61.311420 0
M  V30 20 O 40.832790 28.137827 61.989914 0
M  V30 21 O 41.154166 32.396999 63.170817 0
M  V30 22 S 40.551647 35.246114 62.160465 0
M  V30 23 C 38.258759 31.489245 56.156717 0 CFG=2
M  V30 24 C 39.486363 29.523688 59.758092 0 CFG=2
M  V30 25 C 39.358972 32.515435 55.862798 0
M  V30 26 C 41.802870 34.264553 64.537293 0 CFG=1
M  V30 27 C 40.449328 29.289734 62.151056 0
M  V30 28 C 39.318040 36.467229 62.403104 0
M  V30 29 O 40.845306 26.362413 66.274661 0
M  V30 30 C 42.254160 28.324424 66.388296 0 CFG=2
M  V30 31 C 42.795720 29.527946 65.599681 0
M  V30 32 C 40.262427 31.348022 62.975106 0 CFG=2
M  V30 33 O 41.843650 30.590962 65.551639 0
M  V30 34 C 42.058333 34.758805 65.997823 0 CFG=1
M  V30 35 O 40.865398 30.103770 63.107660 0
M  V30 36 C 37.995406 30.226452 54.168031 0
M  V30 37 C 39.743127 31.405298 61.533631 0
M  V30 38 C 38.840920 30.091711 56.482394 0 CFG=2
M  V30 39 C 40.019496 36.389662 66.007002 0
M  V30 40 H 39.642802 28.947237 54.784171 0
M  V30 41 H 41.394108 27.404718 64.612444 0
M  V30 42 H 40.214412 28.213382 65.632140 0
M  V30 43 H 40.104632 27.417413 59.636694 0
M  V30 44 H 38.444318 27.673839 60.141015 0
M  V30 45 H 38.445132 29.713625 61.658514 0
M  V30 46 H 37.319221 32.179148 54.455017 0
M  V30 47 H 43.540082 31.801112 67.125104 0
M  V30 48 H 40.097232 34.397911 66.833267 0
M  V30 49 H 40.997184 35.558023 67.755713 0
M  V30 50 H 40.418557 32.713850 65.088794 0
M  V30 51 H 43.245041 31.710008 64.511961 0
M  V30 52 H 39.632873 27.808636 57.391443 0
M  V30 53 H 38.039958 27.227876 57.846541 0
M  V30 54 H 43.241549 34.093536 67.757711 0
M  V30 55 H 37.598412 30.208656 59.495052 0
M  V30 56 H 37.118554 29.361383 57.597934 0
M  V30 57 H 40.973086 29.380456 67.808259 0
M  V30 58 H 41.621900 27.865701 68.432761 0
M  V30 59 H 42.655949 29.278957 68.311112 0
M  V30 60 H 37.408596 36.902280 61.588339 0
M  V30 61 H 38.674659 38.058969 61.146349 0
M  V30 62 H 38.622867 36.451332 60.386723 0
M  V30 63 H 37.645105 31.878365 56.968488 0
M  V30 64 H 40.467390 29.756411 59.342184 0
M  V30 65 H 39.943596 32.735361 56.754228 0
M  V30 66 H 40.045054 32.137839 55.102877 0
M  V30 67 H 38.939639 33.459493 55.512645 0
M  V30 68 H 42.745852 34.322437 63.992385 0
M  V30 69 H 40.558911 26.538342 67.160516 0
M  V30 70 H 43.081719 27.617934 66.469861 0
M  V30 71 H 43.726211 29.852574 66.066660 0
M  V30 72 H 43.058941 29.232294 64.583212 0
M  V30 73 H 39.434168 31.398748 63.682842 0
M  V30 74 H 42.712346 35.628701 65.917929 0
M  V30 75 H 38.731805 30.653295 53.485650 0
M  V30 76 H 37.245139 29.707581 53.575138 0
M  V30 77 H 38.881240 32.070091 61.470101 0
M  V30 78 H 40.533733 31.780066 60.880581 0
M  V30 79 H 39.908553 30.191220 56.684379 0
M  V30 80 H 38.995966 36.462846 66.376799 0
M  V30 81 H 40.492402 37.344496 66.226653 0
M  V30 82 H 38.709316 31.166168 58.758523 0
M  V30 83 H 36.491421 31.054182 55.307962 0
M  V30 END ATOM
M  V30 BEGIN BOND
M  V30 1 1 3 1
M  V30 2 1 11 8
M  V30 3 1 11 10
M  V30 4 1 12 5
M  V30 5 2 13 8
M  V30 6 2 14 2
M  V30 7 1 15 2
M  V30 8 1 17 12
M  V30 9 1 17 16
M  V30 10 1 21 10
M  V30 11 1 22 14
M  V30 12 1 23 7
M  V30 13 1 24 5
M  V30 14 1 24 6
M  V30 15 1 24 16
M  V30 16 1 25 23
M  V30 17 1 26 10
M  V30 18 1 26 14
M  V30 19 1 27 6
M  V30 20 2 27 20
M  V30 21 2 28 15
M  V30 22 1 28 19
M  V30 23 1 28 22
M  V30 24 1 29 4
M  V30 25 1 30 4
M  V30 26 1 30 18
M  V30 27 1 31 30
M  V30 28 1 32 21
M  V30 29 1 33 11
M  V30 30 1 33 31
M  V30 31 1 34 9
M  V30 32 1 34 13
M  V30 33 1 34 26
M  V30 34 1 35 27
M  V30 35 1 35 32
M  V30 36 1 36 3
M  V30 37 1 36 7
M  V30 38 1 37 6
M  V30 39 1 37 32
M  V30 40 1 38 3
M  V30 41 1 38 17
M  V30 42 1 38 23
M  V30 43 1 39 2
M  V30 44 1 39 9
M  V30 45 1 3 40 CFG=3
M  V30 46 1 41 4
M  V30 47 1 42 4
M  V30 48 1 43 5
M  V30 49 1 44 5
M  V30 50 1 6 45 CFG=1
M  V30 51 1 46 7
M  V30 52 1 47 8
M  V30 53 1 48 9
M  V30 54 1 49 9
M  V30 55 1 10 50 CFG=1
M  V30 56 1 11 51 CFG=3
M  V30 57 1 52 12
M  V30 58 1 53 12
M  V30 59 1 54 13
M  V30 60 1 55 16
M  V30 61 1 17 56 CFG=3
M  V30 62 1 57 18
M  V30 63 1 58 18
M  V30 64 1 59 18
M  V30 65 1 60 19
M  V30 66 1 61 19
M  V30 67 1 62 19
M  V30 68 1 23 63 CFG=1
M  V30 69 1 24 64 CFG=3
M  V30 70 1 65 25
M  V30 71 1 66 25
M  V30 72 1 67 25
M  V30 73 1 26 68 CFG=3
M  V30 74 1 69 29
M  V30 75 1 30 70 CFG=1
M  V30 76 1 71 31
M  V30 77 1 72 31
M  V30 78 1 32 73 CFG=1
M  V30 79 1 34 74 CFG=3
M  V30 80 1 75 36
M  V30 81 1 76 36
M  V30 82 1 77 37
M  V30 83 1 78 37
M  V30 84 1 38 79 CFG=1
M  V30 85 1 80 39
M  V30 86 1 81 39
M  V30 87 1 82 16
M  V30 88 1 83 7
M  V30 END BOND
M  V30 END CTAB
M  END
>  <i_epik_Tot_Q>  (1) 
2

>  <i_epik_Tot_abs_Q>  (1) 
2

>  <i_i_glide_confnum>  (1) 
899

>  <i_i_glide_lignum>  (1) 
139

>  <i_i_glide_posenum>  (1) 
218

>  <i_i_glide_rotatable_bonds>  (1) 
9

>  <i_lp_mmshare_version>  (1) 
72125

>  <i_m_source_file_index>  (1) 
64

>  <i_f3d_flags>  (1) 
0

>  <num_sample>  (1) 
100

>  <b_lp_Chiralities_Consistent>  (1) 
1

>  <r_epik_Charging_Adjusted_Penalty>  (1) 
0.080070908620723774

>  <r_epik_Ionization_Penalty>  (1) 
0.041568301575603359

>  <r_epik_Ionization_Penalty_Charging>  (1) 
0.040241786303222601

>  <r_epik_Ionization_Penalty_Neutral>  (1) 
0.0013265152723807572

>  <r_epik_State_Penalty>  (1) 
0.039829122317501166

>  <r_glide_ring_energy>  (1) 
0.79944395753776076

>  <r_i_docking_score>  (1) 
-6.729977353756019

>  <r_i_glide_ecoul>  (1) 
-3.03991118849755

>  <r_i_glide_eff_state_penalty>  (1) 
0.039829122317501166

>  <r_i_glide_einternal>  (1) 
11.17765519356834

>  <r_i_glide_emodel>  (1) 
-63.31693011178065

>  <r_i_glide_emodel_strain>  (1) 
4.2322919673940902

>  <r_i_glide_energy>  (1) 
-48.58724582485435

>  <r_i_glide_erotb>  (1) 
0.43483266289788453

>  <r_i_glide_esite>  (1) 
-0.13594778309272068

>  <r_i_glide_evdw>  (1) 
-45.547334636356801

>  <r_i_glide_gscore>  (1) 
-6.7698064760735202

>  <r_i_glide_gscore_strain>  (1) 
0.058072991848522548

>  <r_i_glide_hbond>  (1) 
-0.11418351051715288

>  <r_i_glide_ligand_efficiency>  (1) 
-0.17256352189117999

>  <r_i_glide_ligand_efficiency_ln>  (1) 
-1.4430981864132362

>  <r_i_glide_ligand_efficiency_sa>  (1) 
-0.5851993900841953

>  <r_i_glide_lipo>  (1) 
-3.3653386388767266

>  <r_i_glide_metal>  (1) 
-0

>  <r_i_glide_rewards>  (1) 
-0.91388878824085507

>  <r_lp_Energy>  (1) 
26.901284999999998

>  <s_epik_Chemistry_Notes>  (1) 
This compound has an ester and may undergo hydrolysis at high or low pH. This compound contains an acetal/aminal-like group ( X-CH(R)-Y where X, Y are N, S, or O) that may be acid/base labile, releasing an aldehyde.

>  <s_epik_cmdline>  (1) 
J2VwaWtfcHl0aG9uJywgJy1waHQnLCAnMS4wJywgJy1waCcsICc3LjQnLCAnLXRuJywgJzgnLCAnLW1hJywgJzUwMCcsICctaW1hZScsICc8aW5maWxlLm1hZT4nLCAnLW9tYWUnLCAnPG91dGZpbGUubWFlPic=

>  <s_epik_input>  (1) 
RltDQEhdMVtDSDJdW05IXVtDQEhdKFtDSDNdKVtDQEhdMVtDQEhdMltDSDJdW0NIMl1bQ0BASF0oW05IXTIpW0NASF0zQyg9TylPW0NASF0oW0NIMl0zKU9bQ0BIXTRbQ0BIXShPW0NIMl1bQ0BASF0oW0NIM10pW0NIMl1bT0hdKVtDSF09W0NIXVtDQEhdKFtDSDJdW0NIMl01KVtDQEBIXTRjKGM1NilzYyhuNilbQ0gzXQ==

>  <s_glide_docking_method>  (1) 
confgen

>  <s_i_glide_gridfile>  (1) 
gpcr_5ht2c_6bqh_protein_autoprepared_prepared

>  <s_lp_Force_Field>  (1) 
S-OPLS

>  <s_lp_Variant>  (1) 
DiffSBDD_63-1

>  <s_m_source_file>  (1) 
generated_GPCR_5HT2C_ligand_DiffSBDD_2026-06-23_prepared.sdf

>  <GenAI_Model>  (1) 
DiffSBDD

>  <Protein>  (1) 
GPCR_5HT2C

$$$$
DiffSBDD_32
     RDKit          3D

  0  0  0  0  0  0  0  0  0  0999 V3000
M  V30 BEGIN CTAB
M  V30 COUNTS 65 67 0 0 1
M  V30 BEGIN ATOM
M  V30 1 C 40.942319 34.616561 61.603650 0
M  V30 2 O 39.386036 29.864975 62.072890 0
M  V30 3 O 42.351029 32.892269 62.423747 0
M  V30 4 O 38.943672 39.405919 60.967632 0
M  V30 5 C 41.230878 33.167594 62.001346 0
M  V30 6 C 38.688778 25.854224 57.105349 0
M  V30 7 N 37.245283 30.361231 57.707095 0 CHG=1
M  V30 8 C 37.267637 34.185070 60.249541 0 CFG=2
M  V30 9 C 37.004711 29.068703 58.401448 0
M  V30 10 C 36.844518 33.091169 59.231155 0
M  V30 11 C 40.364427 30.626311 62.254716 0
M  V30 12 C 38.939721 32.536095 61.355174 0
M  V30 13 C 38.302757 31.243598 58.238136 0
M  V30 14 C 37.768425 39.827403 60.967652 0
M  V30 15 O 37.999360 37.015000 62.315504 0
M  V30 16 O 37.406320 40.937624 60.568234 0 CHG=-1
M  V30 17 C 39.385922 28.284546 58.332610 0
M  V30 18 O 36.045619 36.253456 59.419728 0
M  V30 19 O 41.500900 30.323339 62.673094 0 CHG=-1
M  V30 20 C 38.051959 28.024266 58.045369 0
M  V30 21 C 37.689740 26.799393 57.430548 0
M  V30 22 C 41.804554 27.699905 58.274633 0
M  V30 23 C 37.904057 32.722233 58.166766 0
M  V30 24 C 38.645245 33.880361 60.887439 0
M  V30 25 C 40.387233 27.362712 57.992448 0
M  V30 26 C 36.956214 37.397827 61.442693 0 CFG=1
M  V30 27 C 36.666583 38.904594 61.516850 0
M  V30 28 O 42.744372 26.937655 58.133677 0
M  V30 29 C 39.591073 34.834902 60.988785 0
M  V30 30 C 40.134589 32.141035 61.860527 0
M  V30 31 C 36.218986 34.153608 61.372556 0
M  V30 32 C 42.043838 29.090869 58.753674 0
M  V30 33 C 40.040601 26.139034 57.384567 0
M  V30 34 C 37.174092 36.924903 60.005307 0 CFG=1
M  V30 35 C 37.250949 35.505838 59.468927 0 CFG=1
M  V30 36 H 41.716129 34.952710 60.918091 0
M  V30 37 H 41.030181 35.259841 62.478646 0
M  V30 38 H 38.418051 24.918397 56.637428 0
M  V30 39 H 36.378275 30.909914 57.767736 0
M  V30 40 H 37.008998 29.248151 59.475217 0
M  V30 41 H 36.014477 28.698276 58.168332 0
M  V30 42 H 36.537141 32.194485 59.765719 0
M  V30 43 H 35.935982 33.422264 58.723918 0
M  V30 44 H 38.165011 31.793792 61.266035 0
M  V30 45 H 39.221678 31.088864 57.676810 0
M  V30 46 H 38.518572 30.977612 59.267790 0
M  V30 47 H 38.075654 36.074096 62.298336 0
M  V30 48 H 39.640319 29.202885 58.819668 0
M  V30 49 H 36.657623 26.580399 57.212907 0
M  V30 50 H 37.535330 32.972826 57.171240 0
M  V30 51 H 38.802355 33.325464 58.293715 0
M  V30 52 H 36.070675 36.927709 61.844511 0
M  V30 53 H 35.742125 39.106946 60.973087 0
M  V30 54 H 36.445122 39.184541 62.547873 0
M  V30 55 H 39.397586 35.830777 60.626678 0
M  V30 56 H 35.234495 34.419892 61.001523 0
M  V30 57 H 36.150812 33.160925 61.819885 0
M  V30 58 H 36.472607 34.837556 62.168924 0
M  V30 59 H 41.760171 29.160023 59.801462 0
M  V30 60 H 43.072618 29.387372 58.566025 0
M  V30 61 H 41.412741 29.737423 58.170242 0
M  V30 62 H 40.805687 25.428979 57.127026 0
M  V30 63 H 37.654584 37.644154 59.350535 0
M  V30 64 H 37.644786 35.383387 58.465815 0
M  V30 65 H 37.393205 30.220059 56.719819 0
M  V30 END ATOM
M  V30 BEGIN BOND
M  V30 1 1 5 1
M  V30 2 2 5 3
M  V30 3 1 9 7
M  V30 4 1 8 10 CFG=3
M  V30 5 2 11 2
M  V30 6 1 13 7
M  V30 7 2 14 4
M  V30 8 1 16 14
M  V30 9 1 19 11
M  V30 10 1 20 9
M  V30 11 2 20 17
M  V30 12 2 21 6
M  V30 13 1 21 20
M  V30 14 1 23 10
M  V30 15 1 23 13
M  V30 16 1 24 8
M  V30 17 1 24 12
M  V30 18 1 25 17
M  V30 19 1 25 22
M  V30 20 1 26 15
M  V30 21 1 27 14
M  V30 22 1 27 26
M  V30 23 2 28 22
M  V30 24 1 29 1
M  V30 25 2 29 24
M  V30 26 1 30 5
M  V30 27 1 30 11
M  V30 28 2 30 12
M  V30 29 1 31 8
M  V30 30 1 32 22
M  V30 31 1 33 6
M  V30 32 2 33 25
M  V30 33 1 34 18
M  V30 34 1 34 26
M  V30 35 1 35 8
M  V30 36 1 35 18
M  V30 37 1 35 34
M  V30 38 1 36 1
M  V30 39 1 37 1
M  V30 40 1 38 6
M  V30 41 1 39 7
M  V30 42 1 40 9
M  V30 43 1 41 9
M  V30 44 1 42 10
M  V30 45 1 43 10
M  V30 46 1 44 12
M  V30 47 1 45 13
M  V30 48 1 46 13
M  V30 49 1 47 15
M  V30 50 1 48 17
M  V30 51 1 49 21
M  V30 52 1 50 23
M  V30 53 1 51 23
M  V30 54 1 26 52 CFG=1
M  V30 55 1 53 27
M  V30 56 1 54 27
M  V30 57 1 55 29
M  V30 58 1 56 31
M  V30 59 1 57 31
M  V30 60 1 58 31
M  V30 61 1 59 32
M  V30 62 1 60 32
M  V30 63 1 61 32
M  V30 64 1 62 33
M  V30 65 1 34 63 CFG=3
M  V30 66 1 35 64 CFG=3
M  V30 67 1 65 7
M  V30 END BOND
M  V30 END CTAB
M  END
>  <i_epik_Tot_Q>  (1) 
-1

>  <i_epik_Tot_abs_Q>  (1) 
3

>  <i_i_glide_confnum>  (1) 
2853

>  <i_i_glide_lignum>  (1) 
76

>  <i_i_glide_posenum>  (1) 
52

>  <i_i_glide_rotatable_bonds>  (1) 
14

>  <i_lp_mmshare_version>  (1) 
72125

>  <i_m_source_file_index>  (1) 
33

>  <i_f3d_flags>  (1) 
0

>  <num_sample>  (1) 
100

>  <b_lp_Chiralities_Consistent>  (1) 
1

>  <r_epik_Charging_Adjusted_Penalty>  (1) 
0.080349275114026383

>  <r_epik_Ionization_Penalty>  (1) 
0.040587732583292166

>  <r_epik_Ionization_Penalty_Charging>  (1) 
0.040587694316789436

>  <r_epik_Ionization_Penalty_Neutral>  (1) 
3.8266502729817704e-08

>  <r_epik_State_Penalty>  (1) 
0.039761580797236948

>  <r_glide_ring_energy>  (1) 
0

>  <r_i_docking_score>  (1) 
-6.7299444869186127

>  <r_i_glide_ecoul>  (1) 
-7.2623688861395754

>  <r_i_glide_eff_state_penalty>  (1) 
0.039761580797236948

>  <r_i_glide_einternal>  (1) 
8.8916332423234579

>  <r_i_glide_emodel>  (1) 
-50.071643562572412

>  <r_i_glide_emodel_strain>  (1) 
1.9488668545919907

>  <r_i_glide_energy>  (1) 
-32.300171417352821

>  <r_i_glide_erotb>  (1) 
0.86504187564476209

>  <r_i_glide_esite>  (1) 
-0.11190835703078061

>  <r_i_glide_evdw>  (1) 
-25.037802531213245

>  <r_i_glide_gscore>  (1) 
-6.76970606771585

>  <r_i_glide_gscore_strain>  (1) 
0

>  <r_i_glide_hbond>  (1) 
-0.56992956791104077

>  <r_i_glide_ligand_efficiency>  (1) 
-0.19228412819767465

>  <r_i_glide_ligand_efficiency_ln>  (1) 
-1.4773721779490534

>  <r_i_glide_ligand_efficiency_sa>  (1) 
-0.62897413373139743

>  <r_i_glide_lipo>  (1) 
-3.2008703679364281

>  <r_i_glide_metal>  (1) 
-0

>  <r_i_glide_rewards>  (1) 
-1.4107941910007618

>  <r_lp_Energy>  (1) 
50.449213

>  <r_lp_tautomer_probability>  (1) 
0.99995000000000001

>  <s_epik_cmdline>  (1) 
J2VwaWtfcHl0aG9uJywgJy1waHQnLCAnMS4wJywgJy1waCcsICc3LjQnLCAnLXRuJywgJzgnLCAnLW1hJywgJzUwMCcsICctaW1hZScsICc8aW5maWxlLm1hZT4nLCAnLW9tYWUnLCAnPG91dGZpbGUubWFlPic=

>  <s_epik_input>  (1) 
Tz1DKFtPSF0pW0NIMl1bQ0BIXShbT0hdKVtDQEBIXTFPW0NAQEhdMVtDQF0oW0NIM10pKEMoPVtDSF1bQ0gyXUMyPU8pW0NIXT1DMkMoPU8pW09IXSlbQ0gyXVtDSDJdW0NIMl1bTkhdW0NIMl1jM1tjSF1jKEMoPU8pW0NIM10pW2NIXVtjSF1bY0hdMw==

>  <s_glide_docking_method>  (1) 
confgen

>  <s_i_glide_gridfile>  (1) 
gpcr_5ht2c_6bqh_protein_autoprepared_prepared

>  <s_lp_Force_Field>  (1) 
S-OPLS

>  <s_lp_Variant>  (1) 
DiffSBDD_32-1

>  <s_m_source_file>  (1) 
generated_GPCR_5HT2C_ligand_DiffSBDD_2026-06-23_prepared.sdf

>  <GenAI_Model>  (1) 
DiffSBDD

>  <Protein>  (1) 
GPCR_5HT2C

$$$$
DiffSBDD_25
     RDKit          3D

  0  0  0  0  0  0  0  0  0  0999 V3000
M  V30 BEGIN CTAB
M  V30 COUNTS 68 71 0 0 1
M  V30 BEGIN ATOM
M  V30 1 C 38.078527 36.745223 61.295491 0
M  V30 2 C 39.437270 26.177275 57.254798 0
M  V30 3 O 37.624399 36.477303 60.166328 0 CHG=-1
M  V30 4 C 36.222386 30.328303 59.470206 0
M  V30 5 N 38.872386 32.809769 59.758113 0
M  V30 6 C 39.559864 25.941545 55.748663 0
M  V30 7 C 40.104234 36.401569 62.824912 0
M  V30 8 C 41.286590 34.367051 63.013726 0
M  V30 9 C 37.245806 27.163797 54.318929 0
M  V30 10 C 39.737722 27.218737 54.900088 0
M  V30 11 C 38.460702 28.078503 54.639883 0 CFG=2
M  V30 12 C 40.659345 32.237812 61.824925 0
M  V30 13 O 38.844343 28.052916 52.322112 0
M  V30 14 O 37.127496 34.043116 60.678054 0
M  V30 15 N 38.007858 29.530950 58.177903 0
M  V30 16 C 39.327115 34.452810 61.533931 0
M  V30 17 O 37.705695 37.737853 61.951055 0
M  V30 18 C 39.586030 30.005312 53.381698 0
M  V30 19 C 39.176152 35.848253 61.898188 0
M  V30 20 C 38.148102 29.027523 55.823357 0
M  V30 21 C 38.575857 28.587436 57.238868 0 CFG=2
M  V30 22 C 38.328229 33.756392 60.609015 0
M  V30 23 C 38.815340 30.694065 58.508873 0
M  V30 24 N 41.095624 35.651130 63.329134 0 CHG=1
M  V30 25 C 39.964470 30.045658 51.912866 0
M  V30 26 C 36.747252 29.421439 58.667212 0
M  V30 27 N 40.045118 37.723018 63.224305 0
M  V30 28 N 38.584337 28.935033 53.439510 0
M  V30 29 C 38.304696 27.126208 57.660335 0
M  V30 30 C 38.182746 31.762534 59.441561 0
M  V30 31 C 39.686945 28.180827 50.167593 0
M  V30 32 N 36.877193 31.462745 59.876887 0
M  V30 33 C 39.932631 28.574228 51.596630 0 CFG=2
M  V30 34 C 40.426748 33.716056 62.118245 0
M  V30 35 H 40.384589 26.558717 57.639661 0
M  V30 36 H 39.288380 25.216449 57.748802 0
M  V30 37 H 35.245156 30.242819 59.860133 0
M  V30 38 H 40.444816 25.325907 55.596820 0
M  V30 39 H 38.732940 25.329171 55.392934 0
M  V30 40 H 42.124153 33.885505 63.499020 0
M  V30 41 H 36.878295 26.615551 55.183495 0
M  V30 42 H 36.413297 27.739079 53.926950 0
M  V30 43 H 37.487788 26.413770 53.562821 0
M  V30 44 H 40.512554 27.827571 55.367283 0
M  V30 45 H 40.143907 26.872865 53.952509 0
M  V30 46 H 41.377130 31.826310 62.535490 0
M  V30 47 H 39.745750 31.652896 61.935909 0
M  V30 48 H 41.089675 32.093972 60.834253 0
M  V30 49 H 39.183797 30.958115 53.728589 0
M  V30 50 H 40.445037 29.770252 54.005969 0
M  V30 51 H 37.100700 29.332344 55.796362 0
M  V30 52 H 38.659907 29.977368 55.688891 0
M  V30 53 H 39.656313 28.728317 57.302443 0
M  V30 54 H 39.689557 30.301939 59.021134 0
M  V30 55 H 39.151766 31.184579 57.595461 0
M  V30 56 H 40.923573 30.514771 51.716485 0
M  V30 57 H 39.245282 30.574205 51.301707 0
M  V30 58 H 36.213821 28.539532 58.350179 0
M  V30 59 H 39.295184 38.326600 62.905111 0
M  V30 60 H 40.698173 38.108597 63.904831 0
M  V30 61 H 38.262862 27.084029 58.749547 0
M  V30 62 H 37.333772 26.771682 57.318698 0
M  V30 63 H 40.445134 28.561995 49.489494 0
M  V30 64 H 39.680420 27.091353 50.163213 0
M  V30 65 H 38.722745 28.536843 49.821992 0
M  V30 66 H 40.845143 28.110046 51.932023 0
M  V30 67 H 36.363145 32.093636 60.474411 0
M  V30 68 H 41.742305 36.087457 63.988016 0
M  V30 END ATOM
M  V30 BEGIN BOND
M  V30 1 1 3 1
M  V30 2 1 6 2
M  V30 3 1 10 6
M  V30 4 1 11 9 CFG=3
M  V30 5 1 11 10
M  V30 6 2 17 1
M  V30 7 1 19 1
M  V30 8 2 19 7
M  V30 9 1 19 16
M  V30 10 1 20 11
M  V30 11 1 21 15
M  V30 12 1 21 20
M  V30 13 1 22 5
M  V30 14 2 22 14
M  V30 15 1 22 16
M  V30 16 1 23 15
M  V30 17 1 24 7
M  V30 18 2 24 8
M  V30 19 1 25 18
M  V30 20 2 26 4
M  V30 21 1 26 15
M  V30 22 1 27 7
M  V30 23 1 28 11
M  V30 24 1 28 13
M  V30 25 1 28 18
M  V30 26 1 29 2
M  V30 27 1 29 21
M  V30 28 2 30 5
M  V30 29 1 30 23
M  V30 30 1 32 4
M  V30 31 1 32 30
M  V30 32 1 33 13
M  V30 33 1 33 25
M  V30 34 1 33 31
M  V30 35 1 34 8
M  V30 36 1 34 12
M  V30 37 2 34 16
M  V30 38 1 35 2
M  V30 39 1 36 2
M  V30 40 1 37 4
M  V30 41 1 38 6
M  V30 42 1 39 6
M  V30 43 1 40 8
M  V30 44 1 41 9
M  V30 45 1 42 9
M  V30 46 1 43 9
M  V30 47 1 44 10
M  V30 48 1 45 10
M  V30 49 1 46 12
M  V30 50 1 47 12
M  V30 51 1 48 12
M  V30 52 1 49 18
M  V30 53 1 50 18
M  V30 54 1 51 20
M  V30 55 1 52 20
M  V30 56 1 21 53 CFG=3
M  V30 57 1 54 23
M  V30 58 1 55 23
M  V30 59 1 56 25
M  V30 60 1 57 25
M  V30 61 1 58 26
M  V30 62 1 59 27
M  V30 63 1 60 27
M  V30 64 1 61 29
M  V30 65 1 62 29
M  V30 66 1 63 31
M  V30 67 1 64 31
M  V30 68 1 65 31
M  V30 69 1 33 66 CFG=1
M  V30 70 1 67 32
M  V30 71 1 68 24
M  V30 END BOND
M  V30 END CTAB
M  END
>  <i_epik_Tot_Q>  (1) 
0

>  <i_epik_Tot_abs_Q>  (1) 
2

>  <i_i_glide_confnum>  (1) 
245

>  <i_i_glide_lignum>  (1) 
63

>  <i_i_glide_posenum>  (1) 
14

>  <i_i_glide_rotatable_bonds>  (1) 
5

>  <i_lp_mmshare_version>  (1) 
72125

>  <i_m_source_file_index>  (1) 
26

>  <i_f3d_flags>  (1) 
0

>  <num_sample>  (1) 
100

>  <b_lp_Chiralities_Consistent>  (1) 
1

>  <r_epik_Charging_Adjusted_Penalty>  (1) 
1.7343418636902355

>  <r_epik_Ionization_Penalty>  (1) 
0.81506818440052864

>  <r_epik_Ionization_Penalty_Charging>  (1) 
0.79852554791812069

>  <r_epik_Ionization_Penalty_Neutral>  (1) 
0.016542636482407981

>  <r_epik_State_Penalty>  (1) 
0.93581631577211466

>  <r_glide_ring_energy>  (1) 
0.71502142333377439

>  <r_i_docking_score>  (1) 
-6.7172055646675268

>  <r_i_glide_ecoul>  (1) 
-2.2387689064657383

>  <r_i_glide_eff_state_penalty>  (1) 
0.93581631577211466

>  <r_i_glide_einternal>  (1) 
3.9257586014576731

>  <r_i_glide_emodel>  (1) 
-59.855527042548616

>  <r_i_glide_emodel_strain>  (1) 
0

>  <r_i_glide_energy>  (1) 
-41.65302161213657

>  <r_i_glide_erotb>  (1) 
0.3649910051837349

>  <r_i_glide_esite>  (1) 
-0.11578414402867088

>  <r_i_glide_evdw>  (1) 
-39.414252705670833

>  <r_i_glide_gscore>  (1) 
-7.6530218804396419

>  <r_i_glide_gscore_strain>  (1) 
0

>  <r_i_glide_hbond>  (1) 
0

>  <r_i_glide_ligand_efficiency>  (1) 
-0.1975648695490449

>  <r_i_glide_ligand_efficiency_ln>  (1) 
-1.4840191204692319

>  <r_i_glide_ligand_efficiency_sa>  (1) 
-0.64003348290893247

>  <r_i_glide_lipo>  (1) 
-3.9506594705010976

>  <r_i_glide_metal>  (1) 
-0

>  <r_i_glide_rewards>  (1) 
-1.6450412998402046

>  <r_lp_Energy>  (1) 
74.787555999999995

>  <s_epik_Chemistry_Notes>  (1) 
This compound has an imine and may undergo hydrolysis. This compound has a N-S or N-O group and may undergo hydrolysis at high or low pH.

>  <s_epik_cmdline>  (1) 
J2VwaWtfcHl0aG9uJywgJy1waHQnLCAnMS4wJywgJy1waCcsICc3LjQnLCAnLXRuJywgJzgnLCAnLW1hJywgJzUwMCcsICctaW1hZScsICc8aW5maWxlLm1hZT4nLCAnLW9tYWUnLCAnPG91dGZpbGUubWFlPic=

>  <s_epik_input>  (1) 
W09IXUMoPU8pYyhjMVtOSDJdKWMoYyhbY0hdbjEpW0NIM10pQyg9TylbTkhdQyg9TltDSF09W0NIXTIpW0NIMl1OMltDQEhdKFtDSDJdMylbQ0gyXVtDSDJdW0NIMl1bQ0gyXVtDQF0zKFtDSDNdKU40T1tDQEBIXShbQ0gzXSlbQ0gyXVtDSDJdNA==

>  <s_glide_docking_method>  (1) 
confgen

>  <s_i_glide_gridfile>  (1) 
gpcr_5ht2c_6bqh_protein_autoprepared_prepared

>  <s_lp_Force_Field>  (1) 
S-OPLS

>  <s_lp_Variant>  (1) 
DiffSBDD_25-3

>  <s_m_source_file>  (1) 
generated_GPCR_5HT2C_ligand_DiffSBDD_2026-06-23_prepared.sdf

>  <GenAI_Model>  (1) 
DiffSBDD

>  <Protein>  (1) 
GPCR_5HT2C

$$$$
DiffSBDD_16
     RDKit          3D

  0  0  0  0  0  0  0  0  0  0999 V3000
M  V30 BEGIN CTAB
M  V30 COUNTS 69 73 0 0 1
M  V30 BEGIN ATOM
M  V30 1 C 41.332928 29.473901 63.772885 0
M  V30 2 C 39.660463 26.693473 52.730897 0
M  V30 3 C 38.901060 28.973775 58.607620 0 CFG=1
M  V30 4 C 39.871823 27.758864 58.583627 0
M  V30 5 C 42.519092 30.536733 65.646396 0
M  V30 6 C 43.186756 29.328471 65.912934 0
M  V30 7 C 39.486159 33.136308 61.941057 0
M  V30 8 C 39.034099 33.408648 60.516058 0
M  V30 9 C 39.428664 30.178575 59.410351 0
M  V30 10 C 42.921802 28.193239 65.131124 0
M  V30 11 O 41.620053 32.155919 62.304786 0
M  V30 12 C 39.512694 26.766966 55.153713 0
M  V30 13 C 39.013091 27.249149 56.327159 0
M  V30 14 C 38.062899 28.419622 56.441405 0
M  V30 15 C 39.286758 27.335882 53.804407 0
M  V30 16 C 41.594429 30.613930 64.586226 0
M  V30 17 N 39.485261 27.347911 51.541085 0
M  V30 18 C 39.645331 30.886170 51.989131 0
M  V30 19 N 38.640435 29.467447 57.257980 0
M  V30 20 C 39.563318 30.908705 53.478154 0
M  V30 21 C 42.787940 31.757740 66.503396 0
M  V30 22 C 37.708904 32.717536 60.216968 0
M  V30 23 C 36.346040 30.658080 60.044981 0
M  V30 24 C 37.534679 31.291498 60.799188 0 CFG=1
M  V30 25 C 40.345539 29.483903 62.628580 0
M  V30 26 C 38.799903 30.372678 60.799591 0 CFG=2
M  V30 27 C 40.429260 31.941548 62.076245 0
M  V30 28 C 38.731927 28.678310 53.517196 0 CFG=2
M  V30 29 C 39.867534 30.554106 61.904838 0
M  V30 30 C 39.243171 28.508475 52.033685 0
M  V30 31 N 39.300487 29.867493 54.172575 0
M  V30 32 C 41.996473 28.262367 64.072922 0
M  V30 33 C 39.371786 26.624683 57.659804 0
M  V30 34 C 39.502761 29.737069 51.308649 0
M  V30 35 H 40.130276 25.737792 52.724870 0
M  V30 36 H 37.948933 28.643250 59.019606 0
M  V30 37 H 40.853574 28.089611 58.240232 0
M  V30 38 H 40.015743 27.376752 59.594806 0
M  V30 39 H 43.896425 29.269346 66.724915 0
M  V30 40 H 38.635026 33.016701 62.610850 0
M  V30 41 H 40.027784 34.010394 62.304386 0
M  V30 42 H 38.919046 34.482226 60.361115 0
M  V30 43 H 39.798012 33.095796 59.805325 0
M  V30 44 H 40.507920 30.081189 59.508807 0
M  V30 45 H 39.245172 31.091380 58.844723 0
M  V30 46 H 43.428877 27.263271 65.342910 0
M  V30 47 H 40.153329 25.899316 55.215734 0
M  V30 48 H 37.578534 28.796754 55.557078 0
M  V30 49 H 37.244800 28.016877 57.026293 0
M  V30 50 H 41.074356 31.536263 64.423811 0
M  V30 51 H 39.858148 31.816938 51.498831 0
M  V30 52 H 37.987853 30.241308 57.296864 0
M  V30 53 H 39.751596 31.874993 53.944482 0
M  V30 54 H 41.853013 32.248494 66.778255 0
M  V30 55 H 43.311845 31.491230 67.421203 0
M  V30 56 H 43.403008 32.472719 65.955993 0
M  V30 57 H 36.899184 33.337973 60.604008 0
M  V30 58 H 37.577602 32.721100 59.133658 0
M  V30 59 H 36.419524 30.819579 58.968461 0
M  V30 60 H 36.278905 29.583032 60.167184 0
M  V30 61 H 35.402993 31.099916 60.368100 0
M  V30 62 H 37.234084 31.386354 61.842449 0
M  V30 63 H 39.947938 28.510030 62.379641 0
M  V30 64 H 38.445173 29.377627 61.049441 0
M  V30 65 H 37.640814 28.685498 53.506984 0
M  V30 66 H 41.799330 27.382655 63.478200 0
M  V30 67 H 38.480918 26.160206 58.084128 0
M  V30 68 H 40.125835 25.844057 57.549501 0
M  V30 69 H 39.606258 29.671887 50.235366 0
M  V30 END ATOM
M  V30 BEGIN BOND
M  V30 1 1 4 3
M  V30 2 1 6 5
M  V30 3 1 8 7
M  V30 4 1 9 3
M  V30 5 2 10 6
M  V30 6 2 13 12
M  V30 7 1 14 13
M  V30 8 2 15 2
M  V30 9 1 15 12
M  V30 10 1 16 1
M  V30 11 2 16 5
M  V30 12 1 17 2
M  V30 13 1 19 3
M  V30 14 1 19 14
M  V30 15 1 20 18
M  V30 16 1 21 5
M  V30 17 1 22 8
M  V30 18 1 24 22
M  V30 19 1 24 23
M  V30 20 1 25 1
M  V30 21 1 26 9
M  V30 22 1 26 24
M  V30 23 1 27 7
M  V30 24 2 27 11
M  V30 25 1 28 15
M  V30 26 2 29 25
M  V30 27 1 29 26
M  V30 28 1 29 27
M  V30 29 2 30 17
M  V30 30 1 30 28
M  V30 31 2 31 20
M  V30 32 1 31 28
M  V30 33 2 32 1
M  V30 34 1 32 10
M  V30 35 1 33 4
M  V30 36 1 33 13
M  V30 37 2 34 18
M  V30 38 1 34 30
M  V30 39 1 35 2
M  V30 40 1 3 36 CFG=1
M  V30 41 1 37 4
M  V30 42 1 38 4
M  V30 43 1 39 6
M  V30 44 1 40 7
M  V30 45 1 41 7
M  V30 46 1 42 8
M  V30 47 1 43 8
M  V30 48 1 44 9
M  V30 49 1 45 9
M  V30 50 1 46 10
M  V30 51 1 47 12
M  V30 52 1 48 14
M  V30 53 1 49 14
M  V30 54 1 50 16
M  V30 55 1 51 18
M  V30 56 1 52 19
M  V30 57 1 53 20
M  V30 58 1 54 21
M  V30 59 1 55 21
M  V30 60 1 56 21
M  V30 61 1 57 22
M  V30 62 1 58 22
M  V30 63 1 59 23
M  V30 64 1 60 23
M  V30 65 1 61 23
M  V30 66 1 24 62 CFG=1
M  V30 67 1 63 25
M  V30 68 1 26 64 CFG=1
M  V30 69 1 28 65 CFG=3
M  V30 70 1 66 32
M  V30 71 1 67 33
M  V30 72 1 68 33
M  V30 73 1 69 34
M  V30 END BOND
M  V30 END CTAB
M  END
>  <i_epik_Tot_Q>  (1) 
0

>  <i_epik_Tot_abs_Q>  (1) 
0

>  <i_i_glide_confnum>  (1) 
19

>  <i_i_glide_lignum>  (1) 
37

>  <i_i_glide_posenum>  (1) 
373

>  <i_i_glide_rotatable_bonds>  (1) 
4

>  <i_lp_mmshare_version>  (1) 
72125

>  <i_m_source_file_index>  (1) 
17

>  <i_f3d_flags>  (1) 
0

>  <num_sample>  (1) 
100

>  <b_lp_Chiralities_Consistent>  (1) 
1

>  <r_epik_Charging_Adjusted_Penalty>  (1) 
0.56391873878667209

>  <r_epik_Ionization_Penalty>  (1) 
0.56391873878667209

>  <r_epik_Ionization_Penalty_Charging>  (1) 
0

>  <r_epik_Ionization_Penalty_Neutral>  (1) 
0.56391873878667209

>  <r_epik_State_Penalty>  (1) 
0.56391873878667209

>  <r_glide_ring_energy>  (1) 
0

>  <r_i_docking_score>  (1) 
-6.7165749031189996

>  <r_i_glide_ecoul>  (1) 
-0.92611299862343333

>  <r_i_glide_eff_state_penalty>  (1) 
0.56391873878667209

>  <r_i_glide_einternal>  (1) 
27.929678643568309

>  <r_i_glide_emodel>  (1) 
-41.967630161223894

>  <r_i_glide_emodel_strain>  (1) 
0.16215122222195077

>  <r_i_glide_energy>  (1) 
-40.133203316530974

>  <r_i_glide_erotb>  (1) 
0.29265828080580603

>  <r_i_glide_esite>  (1) 
0

>  <r_i_glide_evdw>  (1) 
-39.207090317907543

>  <r_i_glide_gscore>  (1) 
-7.2804936419056716

>  <r_i_glide_gscore_strain>  (1) 
0

>  <r_i_glide_hbond>  (1) 
0

>  <r_i_glide_ligand_efficiency>  (1) 
-0.19754632067997058

>  <r_i_glide_ligand_efficiency_ln>  (1) 
-1.4838797896437048

>  <r_i_glide_ligand_efficiency_sa>  (1) 
-0.63997339177377888

>  <r_i_glide_lipo>  (1) 
-3.484183699728113

>  <r_i_glide_metal>  (1) 
-0

>  <r_i_glide_rewards>  (1) 
-1.9896967572944724

>  <r_lp_Energy>  (1) 
61.267170999999998

>  <s_epik_Chemistry_Notes>  (1) 
This compound has an imine and may undergo hydrolysis.

>  <s_epik_cmdline>  (1) 
J2VwaWtfcHl0aG9uJywgJy1waHQnLCAnMS4wJywgJy1waCcsICc3LjQnLCAnLXRuJywgJzgnLCAnLW1hJywgJzUwMCcsICctaW1hZScsICc8aW5maWxlLm1hZT4nLCAnLW9tYWUnLCAnPG91dGZpbGUubWFlPic=

>  <s_epik_input>  (1) 
W2NIXTFbY0hdW2NIXWMoW0NIM10pW2NIXWMxL1tDSF09QyhDKD1PKVtDSDJdW0NIMl1bQ0gyXVtDQEhdMltDSDNdKS9bQ0BASF0yW0NIMl1bQ0BASF0zW0NIMl1bQ0gyXUMoXFtDSDJdW05IXTMpPVtDSF1cQzQ9W0NIXU49QyhbQ0BASF00NSlbQ0hdPVtDSF1bQ0hdPU41

>  <s_glide_docking_method>  (1) 
confgen

>  <s_i_glide_gridfile>  (1) 
gpcr_5ht2c_6bqh_protein_autoprepared_prepared

>  <s_lp_Force_Field>  (1) 
S-OPLS

>  <s_lp_Variant>  (1) 
DiffSBDD_16-5

>  <s_m_source_file>  (1) 
generated_GPCR_5HT2C_ligand_DiffSBDD_2026-06-23_prepared.sdf

>  <GenAI_Model>  (1) 
DiffSBDD

>  <Protein>  (1) 
GPCR_5HT2C

$$$$
DiffSBDD_38
     RDKit          3D

  0  0  0  0  0  0  0  0  0  0999 V3000
M  V30 BEGIN CTAB
M  V30 COUNTS 45 47 0 0 1
M  V30 BEGIN ATOM
M  V30 1 C 36.467273 31.278789 59.903719 0
M  V30 2 C 40.164958 27.299735 56.273889 0
M  V30 3 C 38.097395 28.576942 52.231877 0
M  V30 4 C 40.196496 28.263137 58.514453 0
M  V30 5 C 41.245099 35.337779 63.202505 0
M  V30 6 O 38.845186 29.855533 60.456346 0
M  V30 7 C 40.932206 32.937533 63.511912 0
M  V30 8 C 38.352362 29.794496 59.328178 0
M  V30 9 C 38.574503 28.912452 53.651440 0
M  V30 10 C 37.061746 32.640714 60.233594 0
M  V30 11 C 38.788273 34.079112 60.538507 0 CFG=2
M  V30 12 C 38.981897 28.937300 58.250957 0
M  V30 13 C 38.281849 27.781617 54.646465 0
M  V30 14 N 37.238042 30.458862 58.967840 0
M  V30 15 C 40.785405 27.451244 57.526996 0
M  V30 16 S 37.306301 35.123699 60.928853 0
M  V30 17 O 38.419493 32.727948 60.128706 0
M  V30 18 C 40.040845 32.911262 62.421722 0
M  V30 19 C 36.398080 33.714793 60.606334 0
M  V30 20 C 38.360060 28.788309 56.981853 0
M  V30 21 C 41.533764 34.150187 63.902248 0
M  V30 22 C 39.750658 34.100799 61.717744 0
M  V30 23 C 40.356162 35.314242 62.110750 0
M  V30 24 C 38.952916 27.963966 55.998165 0
M  V30 25 H 36.311587 30.733394 60.835100 0
M  V30 26 H 35.477622 31.431774 59.470706 0
M  V30 27 H 40.618848 26.670001 55.522698 0
M  V30 28 H 38.427255 29.337754 51.524126 0
M  V30 29 H 38.498777 27.621537 51.891120 0
M  V30 30 H 37.009701 28.517974 52.183645 0
M  V30 31 H 40.676211 28.369003 59.477149 0
M  V30 32 H 41.706726 36.267763 63.503225 0
M  V30 33 H 41.153639 32.027108 64.049628 0
M  V30 34 H 38.118777 29.842324 53.993410 0
M  V30 35 H 39.645322 29.095562 53.617830 0
M  V30 36 H 39.312129 34.536637 59.703255 0
M  V30 37 H 38.613509 26.831566 54.225448 0
M  V30 38 H 37.209254 27.678587 54.787478 0
M  V30 39 H 36.894144 30.378794 58.020417 0
M  V30 40 H 41.714281 26.939360 57.733257 0
M  V30 41 H 39.580454 31.979610 62.126290 0
M  V30 42 H 35.324260 33.749355 60.720281 0
M  V30 43 H 37.429955 29.292725 56.765375 0
M  V30 44 H 42.216351 34.169543 64.738865 0
M  V30 45 H 40.136834 36.226524 61.575045 0
M  V30 END ATOM
M  V30 BEGIN BOND
M  V30 1 2 8 6
M  V30 2 1 9 3
M  V30 3 1 10 1
M  V30 4 2 12 4
M  V30 5 1 12 8
M  V30 6 1 13 9
M  V30 7 1 14 1
M  V30 8 1 14 8
M  V30 9 2 15 2
M  V30 10 1 15 4
M  V30 11 1 16 11
M  V30 12 1 17 10
M  V30 13 1 17 11
M  V30 14 2 18 7
M  V30 15 2 19 10
M  V30 16 1 19 16
M  V30 17 1 20 12
M  V30 18 2 21 5
M  V30 19 1 21 7
M  V30 20 1 22 11
M  V30 21 1 22 18
M  V30 22 1 23 5
M  V30 23 2 23 22
M  V30 24 1 24 2
M  V30 25 1 24 13
M  V30 26 2 24 20
M  V30 27 1 25 1
M  V30 28 1 26 1
M  V30 29 1 27 2
M  V30 30 1 28 3
M  V30 31 1 29 3
M  V30 32 1 30 3
M  V30 33 1 31 4
M  V30 34 1 32 5
M  V30 35 1 33 7
M  V30 36 1 34 9
M  V30 37 1 35 9
M  V30 38 1 11 36 CFG=3
M  V30 39 1 37 13
M  V30 40 1 38 13
M  V30 41 1 39 14
M  V30 42 1 40 15
M  V30 43 1 41 18
M  V30 44 1 42 19
M  V30 45 1 43 20
M  V30 46 1 44 21
M  V30 47 1 45 23
M  V30 END BOND
M  V30 END CTAB
M  END
>  <i_epik_Tot_Q>  (1) 
0

>  <i_epik_Tot_abs_Q>  (1) 
0

>  <i_i_glide_confnum>  (1) 
5

>  <i_i_glide_lignum>  (1) 
85

>  <i_i_glide_posenum>  (1) 
353

>  <i_i_glide_rotatable_bonds>  (1) 
7

>  <i_lp_mmshare_version>  (1) 
72125

>  <i_m_source_file_index>  (1) 
39

>  <i_f3d_flags>  (1) 
0

>  <num_sample>  (1) 
100

>  <b_lp_Chiralities_Consistent>  (1) 
1

>  <r_epik_Charging_Adjusted_Penalty>  (1) 
0

>  <r_epik_Ionization_Penalty>  (1) 
2.537030552391147e-06

>  <r_epik_Ionization_Penalty_Charging>  (1) 
0

>  <r_epik_Ionization_Penalty_Neutral>  (1) 
2.537030552391147e-06

>  <r_epik_State_Penalty>  (1) 
-0

>  <r_glide_ring_energy>  (1) 
0

>  <r_i_docking_score>  (1) 
-6.7123771316526639

>  <r_i_glide_ecoul>  (1) 
-2.2064505729171895

>  <r_i_glide_eff_state_penalty>  (1) 
-0

>  <r_i_glide_einternal>  (1) 
1.4134219286120908

>  <r_i_glide_emodel>  (1) 
-59.912295861422002

>  <r_i_glide_emodel_strain>  (1) 
0

>  <r_i_glide_energy>  (1) 
-42.503360343734009

>  <r_i_glide_erotb>  (1) 
0.98539345027443515

>  <r_i_glide_esite>  (1) 
-0.070608703711324911

>  <r_i_glide_evdw>  (1) 
-40.296909770816818

>  <r_i_glide_gscore>  (1) 
-6.7123771316526639

>  <r_i_glide_gscore_strain>  (1) 
0

>  <r_i_glide_hbond>  (1) 
0

>  <r_i_glide_ligand_efficiency>  (1) 
-0.27968238048552768

>  <r_i_glide_ligand_efficiency_ln>  (1) 
-1.6065798585207942

>  <r_i_glide_ligand_efficiency_sa>  (1) 
-0.8067435861556107

>  <r_i_glide_lipo>  (1) 
-3.4827128056108321

>  <r_i_glide_metal>  (1) 
-0

>  <r_i_glide_rewards>  (1) 
-1.7986359981265225

>  <r_lp_Energy>  (1) 
12.828882

>  <r_lp_tautomer_probability>  (1) 
1

>  <s_epik_Chemistry_Notes>  (1) 
This compound contains an acetal/aminal-like group ( X-CH(R)-Y where X, Y are N, S, or O) that may be acid/base labile, releasing an aldehyde.

>  <s_epik_cmdline>  (1) 
J2VwaWtfcHl0aG9uJywgJy1waHQnLCAnMS4wJywgJy1waCcsICc3LjQnLCAnLXRuJywgJzgnLCAnLW1hJywgJzUwMCcsICctaW1hZScsICc8aW5maWxlLm1hZT4nLCAnLW9tYWUnLCAnPG91dGZpbGUubWFlPic=

>  <s_epik_input>  (1) 
W2NIXTFbY0hdW2NIXVtjSF1bY0hdYzFbQ0BASF0oTzIpU1tDSF09QzJbQ0gyXVtOSF1DKD1PKWMzW2NIXVtjSF1bY0hdYyhbY0hdMylbQ0gyXVtDSDJdW0NIM10=

>  <s_glide_docking_method>  (1) 
confgen

>  <s_i_glide_gridfile>  (1) 
gpcr_5ht2c_6bqh_protein_autoprepared_prepared

>  <s_lp_Force_Field>  (1) 
S-OPLS

>  <s_lp_Variant>  (1) 
DiffSBDD_38-1

>  <s_m_source_file>  (1) 
generated_GPCR_5HT2C_ligand_DiffSBDD_2026-06-23_prepared.sdf

>  <GenAI_Model>  (1) 
DiffSBDD

>  <Protein>  (1) 
GPCR_5HT2C

$$$$
DiffSBDD_73
     RDKit          3D

  0  0  0  0  0  0  0  0  0  0999 V3000
M  V30 BEGIN CTAB
M  V30 COUNTS 65 66 0 0 1
M  V30 BEGIN ATOM
M  V30 1 C 38.741004 28.175083 55.395241 0 CFG=1
M  V30 2 C 38.011337 33.737745 56.984265 0
M  V30 3 N 38.852223 33.779655 60.812339 0
M  V30 4 C 40.045137 30.431698 52.537542 0
M  V30 5 C 39.547848 29.936030 53.708006 0
M  V30 6 C 37.702473 28.966170 56.179070 0
M  V30 7 C 39.810028 33.956811 61.905786 0 CFG=2
M  V30 8 N 37.245136 31.942933 58.567767 0 CHG=1
M  V30 9 O 37.831857 31.935022 61.667675 0
M  V30 10 C 40.299224 27.895680 57.562956 0
M  V30 11 C 36.888462 32.868822 59.669507 0 CFG=2
M  V30 12 C 39.747984 28.326609 51.023257 0
M  V30 13 C 40.140716 29.754946 51.185123 0 CFG=1
M  V30 14 C 37.913081 32.816449 60.810658 0
M  V30 15 O 38.236882 30.061717 56.905854 0
M  V30 16 C 41.197220 35.826367 63.030167 0
M  V30 17 C 38.878501 28.625167 53.968318 0
M  V30 18 C 38.361633 28.136699 51.533781 0
M  V30 19 C 38.252331 32.335479 57.560685 0 CFG=1
M  V30 20 C 39.977965 27.639413 56.102500 0 CFG=1
M  V30 21 O 39.645136 30.588446 50.167747 0
M  V30 22 C 40.428737 35.366304 61.783512 0
M  V30 23 C 38.057687 31.306554 56.441271 0
M  V30 24 O 37.679526 31.587657 55.302128 0
M  V30 25 C 35.479601 32.515877 60.184348 0
M  V30 26 C 38.369167 27.835927 52.990223 0
M  V30 27 C 40.881087 32.846079 61.905329 0
M  V30 28 C 38.871820 26.693394 55.733108 0
M  V30 29 H 38.711827 33.974920 56.181504 0
M  V30 30 H 37.013957 33.765954 56.567768 0
M  V30 31 H 38.045136 34.535424 57.716681 0
M  V30 32 H 38.870290 34.451366 60.059373 0
M  V30 33 H 40.490925 31.412484 52.569562 0
M  V30 34 H 39.670856 30.575625 54.559065 0
M  V30 35 H 36.904653 29.293012 55.506739 0
M  V30 36 H 37.245139 28.309403 56.919709 0
M  V30 37 H 39.259826 33.911705 62.847819 0
M  V30 38 H 36.389314 31.827101 57.998783 0
M  V30 39 H 39.400931 27.858470 58.178379 0
M  V30 40 H 40.995146 27.139209 57.927271 0
M  V30 41 H 40.763707 28.874681 57.679790 0
M  V30 42 H 36.811574 33.893283 59.311046 0
M  V30 43 H 39.830466 28.032249 49.979532 0
M  V30 44 H 40.445136 27.719369 51.587792 0
M  V30 45 H 41.213989 29.765123 50.987378 0
M  V30 46 H 41.585797 36.835289 62.894494 0
M  V30 47 H 40.548824 35.844114 63.906173 0
M  V30 48 H 42.045136 35.181074 63.254426 0
M  V30 49 H 37.927623 27.277376 51.027141 0
M  V30 50 H 37.699484 28.979090 51.367756 0
M  V30 51 H 39.245149 32.258682 57.992789 0
M  V30 52 H 40.863783 27.560340 55.485827 0
M  V30 53 H 38.829862 30.232454 49.834603 0
M  V30 54 H 41.087681 35.411161 60.915502 0
M  V30 55 H 39.637866 36.094639 61.596615 0
M  V30 56 H 35.183784 33.165084 61.010507 0
M  V30 57 H 34.735407 32.637654 59.395962 0
M  V30 58 H 35.417054 31.484552 60.534963 0
M  V30 59 H 37.889240 26.909085 53.269534 0
M  V30 60 H 41.604175 32.988511 62.707820 0
M  V30 61 H 40.439910 31.861518 62.056662 0
M  V30 62 H 41.431563 32.817427 60.967762 0
M  V30 63 H 38.260436 26.296820 56.541602 0
M  V30 64 H 39.102665 25.978153 54.945304 0
M  V30 65 H 37.482756 31.036690 58.943454 0
M  V30 END ATOM
M  V30 BEGIN BOND
M  V30 1 2 5 4
M  V30 2 1 1 6 CFG=1
M  V30 3 1 7 3
M  V30 4 1 11 8
M  V30 5 1 13 4
M  V30 6 1 13 12
M  V30 7 1 14 3
M  V30 8 2 14 9
M  V30 9 1 14 11
M  V30 10 1 15 6
M  V30 11 1 17 1
M  V30 12 1 17 5
M  V30 13 1 18 12
M  V30 14 1 19 2
M  V30 15 1 19 8
M  V30 16 1 20 1
M  V30 17 1 20 10
M  V30 18 1 21 13
M  V30 19 1 22 7
M  V30 20 1 22 16
M  V30 21 1 23 15
M  V30 22 1 23 19
M  V30 23 2 24 23
M  V30 24 1 25 11
M  V30 25 2 26 17
M  V30 26 1 26 18
M  V30 27 1 27 7
M  V30 28 1 28 1
M  V30 29 1 28 20
M  V30 30 1 29 2
M  V30 31 1 30 2
M  V30 32 1 31 2
M  V30 33 1 32 3
M  V30 34 1 33 4
M  V30 35 1 34 5
M  V30 36 1 35 6
M  V30 37 1 36 6
M  V30 38 1 7 37 CFG=1
M  V30 39 1 38 8
M  V30 40 1 39 10
M  V30 41 1 40 10
M  V30 42 1 41 10
M  V30 43 1 11 42 CFG=3
M  V30 44 1 43 12
M  V30 45 1 44 12
M  V30 46 1 13 45 CFG=3
M  V30 47 1 46 16
M  V30 48 1 47 16
M  V30 49 1 48 16
M  V30 50 1 49 18
M  V30 51 1 50 18
M  V30 52 1 19 51 CFG=1
M  V30 53 1 20 52 CFG=3
M  V30 54 1 53 21
M  V30 55 1 54 22
M  V30 56 1 55 22
M  V30 57 1 56 25
M  V30 58 1 57 25
M  V30 59 1 58 25
M  V30 60 1 59 26
M  V30 61 1 60 27
M  V30 62 1 61 27
M  V30 63 1 62 27
M  V30 64 1 63 28
M  V30 65 1 64 28
M  V30 66 1 65 8
M  V30 END BOND
M  V30 END CTAB
M  END
>  <i_epik_Tot_Q>  (1) 
1

>  <i_epik_Tot_abs_Q>  (1) 
1

>  <i_i_glide_confnum>  (1) 
518

>  <i_i_glide_lignum>  (1) 
161

>  <i_i_glide_posenum>  (1) 
163

>  <i_i_glide_rotatable_bonds>  (1) 
12

>  <i_lp_mmshare_version>  (1) 
72125

>  <i_m_source_file_index>  (1) 
74

>  <i_f3d_flags>  (1) 
0

>  <num_sample>  (1) 
100

>  <b_lp_Chiralities_Consistent>  (1) 
1

>  <r_epik_Charging_Adjusted_Penalty>  (1) 
2.336176939713237

>  <r_epik_Ionization_Penalty>  (1) 
1.168091143672223

>  <r_epik_Ionization_Penalty_Charging>  (1) 
1.1680884698566185

>  <r_epik_Ionization_Penalty_Neutral>  (1) 
2.673815604532901e-06

>  <r_epik_State_Penalty>  (1) 
1.1680884698566185

>  <r_glide_ring_energy>  (1) 
0

>  <r_i_docking_score>  (1) 
-6.7081148167557467

>  <r_i_glide_ecoul>  (1) 
-8.7709919479785174

>  <r_i_glide_eff_state_penalty>  (1) 
1.1680884698566185

>  <r_i_glide_einternal>  (1) 
11.555673418589366

>  <r_i_glide_emodel>  (1) 
-64.411117408663344

>  <r_i_glide_emodel_strain>  (1) 
2.1484981276676649

>  <r_i_glide_energy>  (1) 
-44.963233723537336

>  <r_i_glide_erotb>  (1) 
1.2613414017289797

>  <r_i_glide_esite>  (1) 
-0.20000000000000001

>  <r_i_glide_evdw>  (1) 
-36.19224177555882

>  <r_i_glide_gscore>  (1) 
-7.8762032866123652

>  <r_i_glide_gscore_strain>  (1) 
0

>  <r_i_glide_hbond>  (1) 
-0.50857265901395099

>  <r_i_glide_ligand_efficiency>  (1) 
-0.23957552916984809

>  <r_i_glide_ligand_efficiency_ln>  (1) 
-1.5484298585166412

>  <r_i_glide_ligand_efficiency_sa>  (1) 
-0.72749240980843699

>  <r_i_glide_lipo>  (1) 
-3.6569283457644888

>  <r_i_glide_metal>  (1) 
-0

>  <r_i_glide_rewards>  (1) 
-1.646782802588187

>  <r_lp_Energy>  (1) 
23.653385

>  <s_epik_Chemistry_Notes>  (1) 
This compound has an ester and may undergo hydrolysis at high or low pH.

>  <s_epik_cmdline>  (1) 
J2VwaWtfcHl0aG9uJywgJy1waHQnLCAnMS4wJywgJy1waCcsICc3LjQnLCAnLXRuJywgJzgnLCAnLW1hJywgJzUwMCcsICctaW1hZScsICc8aW5maWxlLm1hZT4nLCAnLW9tYWUnLCAnPG91dGZpbGUubWFlPic=

>  <s_epik_input>  (1) 
W09IXVtDQEhdMVtDSF09W0NIXUMoPVtDSF1bQ0gyXVtDSDJdMSlbQ0BAXTIoW0NAQEhdKFtDSDNdKVtDSDJdMilbQ0gyXU9DKD1PKVtDQEBIXShbQ0gzXSlbTkhdW0NASF0oW0NIM10pQyg9TylbTkhdW0NAQEhdKFtDSDNdKVtDSDJdW0NIM10=

>  <s_glide_docking_method>  (1) 
confgen

>  <s_i_glide_gridfile>  (1) 
gpcr_5ht2c_6bqh_protein_autoprepared_prepared

>  <s_lp_Force_Field>  (1) 
S-OPLS

>  <s_lp_Variant>  (1) 
DiffSBDD_73-4

>  <s_m_source_file>  (1) 
generated_GPCR_5HT2C_ligand_DiffSBDD_2026-06-23_prepared.sdf

>  <GenAI_Model>  (1) 
DiffSBDD

>  <Protein>  (1) 
GPCR_5HT2C

$$$$
DiffSBDD_64
     RDKit          3D

  0  0  0  0  0  0  0  0  0  0999 V3000
M  V30 BEGIN CTAB
M  V30 COUNTS 77 80 0 0 1
M  V30 BEGIN ATOM
M  V30 1 C 43.675279 31.253469 66.328281 0
M  V30 2 C 40.637597 29.984935 62.614308 0
M  V30 3 C 40.040412 31.402003 62.553297 0 CFG=2
M  V30 4 C 37.942211 32.825817 62.121958 0
M  V30 5 N 41.828393 29.846992 63.470338 0 CHG=1
M  V30 6 C 42.161205 34.259774 65.186473 0
M  V30 7 C 39.913819 26.949971 56.230313 0
M  V30 8 N 43.223235 30.422854 65.225938 0
M  V30 9 O 40.045140 26.962809 58.575528 0
M  V30 10 C 36.673905 33.103228 61.767759 0
M  V30 11 C 37.866057 30.276153 58.593078 0
M  V30 12 C 40.045137 30.212041 52.539963 0
M  V30 13 O 37.834951 29.605024 56.365847 0
M  V30 14 C 42.172252 30.734245 64.434998 0
M  V30 15 O 44.639796 30.879740 66.995793 0
M  V30 16 O 43.284688 33.205763 67.618265 0 CHG=-1
M  V30 17 C 39.442362 27.658365 57.510228 0 CFG=1
M  V30 18 C 41.449884 31.926944 64.591416 0
M  V30 19 C 40.459291 32.250996 63.739599 0
M  V30 20 C 39.874723 29.145352 57.581676 0
M  V30 21 C 36.845137 29.377036 54.279980 0
M  V30 22 C 39.165474 27.309163 54.936991 0
M  V30 23 C 38.728650 30.161865 57.324991 0 CFG=2
M  V30 24 F 40.259813 29.553108 48.967760 0
M  V30 25 C 38.503174 31.409755 62.289729 0 CFG=1
M  V30 26 C 39.108289 28.008324 52.061849 0
M  V30 27 N 42.977442 32.403810 66.575083 0
M  V30 28 C 38.126073 29.705675 54.979744 0 CFG=2
M  V30 29 C 38.540130 31.039370 59.744989 0
M  V30 30 C 39.193162 31.572485 56.868268 0
M  V30 31 C 39.375161 28.196495 50.702002 0
M  V30 32 C 39.985267 29.385040 50.263476 0
M  V30 33 C 40.308297 30.395022 51.177987 0
M  V30 34 C 41.874260 32.827667 65.709234 0 CFG=1
M  V30 35 C 38.069752 30.534504 61.101821 0
M  V30 36 C 39.248259 28.797800 54.485426 0 CFG=2
M  V30 37 C 39.460000 29.012173 52.990348 0
M  V30 38 H 39.894469 29.307324 63.034278 0
M  V30 39 H 40.852786 29.611114 61.613004 0
M  V30 40 H 40.503063 31.897379 61.698459 0
M  V30 41 H 38.625563 33.641617 62.298910 0
M  V30 42 H 41.324726 34.686534 64.635509 0
M  V30 43 H 42.362309 34.957780 66.000575 0
M  V30 44 H 43.031739 34.272115 64.533257 0
M  V30 45 H 40.982719 27.114750 56.092306 0
M  V30 46 H 39.806632 25.872096 56.368188 0
M  V30 47 H 43.676953 29.552771 65.000068 0
M  V30 48 H 40.978673 26.940352 58.427102 0
M  V30 49 H 36.338665 34.125166 61.662955 0
M  V30 50 H 35.958479 32.317732 61.579496 0
M  V30 51 H 36.921693 30.769692 58.356173 0
M  V30 52 H 37.585831 29.275580 58.923900 0
M  V30 53 H 40.312482 30.983702 53.247525 0
M  V30 54 H 38.365312 27.538110 57.631051 0
M  V30 55 H 39.934905 33.180555 63.874228 0
M  V30 56 H 40.339781 29.340721 58.545575 0
M  V30 57 H 40.689320 29.302762 56.889529 0
M  V30 58 H 36.949975 29.337669 53.204340 0
M  V30 59 H 36.474426 28.398256 54.567753 0
M  V30 60 H 36.103493 30.137754 54.540040 0
M  V30 61 H 39.658716 26.675556 54.201154 0
M  V30 62 H 38.134698 26.959446 54.979556 0
M  V30 63 H 38.045131 30.937755 63.158029 0
M  V30 64 H 38.648906 27.090122 52.393435 0
M  V30 65 H 38.340204 30.734315 54.695139 0
M  V30 66 H 39.621698 30.940574 59.730441 0
M  V30 67 H 38.333962 32.101946 59.619408 0
M  V30 68 H 39.645119 32.169627 57.651926 0
M  V30 69 H 39.918392 31.525877 56.055725 0
M  V30 70 H 38.337749 32.156044 56.523415 0
M  V30 71 H 39.120455 27.425556 49.992919 0
M  V30 72 H 40.771504 31.308589 50.833829 0
M  V30 73 H 41.005876 32.893986 66.366726 0
M  V30 74 H 36.983891 30.453073 61.082063 0
M  V30 75 H 38.445135 29.519814 61.226496 0
M  V30 76 H 40.164095 29.200577 54.903779 0
M  V30 77 H 42.374527 29.002292 63.362861 0
M  V30 END ATOM
M  V30 BEGIN BOND
M  V30 1 1 3 2
M  V30 2 1 5 2
M  V30 3 1 8 1
M  V30 4 2 10 4
M  V30 5 2 14 5
M  V30 6 1 14 8
M  V30 7 2 15 1
M  V30 8 1 17 7
M  V30 9 1 17 9
M  V30 10 1 18 14
M  V30 11 1 19 3
M  V30 12 2 19 18
M  V30 13 1 20 17
M  V30 14 1 22 7
M  V30 15 1 23 11 CFG=1
M  V30 16 1 23 13
M  V30 17 1 23 20
M  V30 18 1 25 3
M  V30 19 1 25 4
M  V30 20 1 27 1
M  V30 21 1 27 16
M  V30 22 1 28 13
M  V30 23 1 28 21
M  V30 24 1 29 11
M  V30 25 1 30 23
M  V30 26 2 31 26
M  V30 27 1 32 24
M  V30 28 1 32 31
M  V30 29 1 33 12
M  V30 30 2 33 32
M  V30 31 1 34 6
M  V30 32 1 34 18
M  V30 33 1 34 27
M  V30 34 1 35 25
M  V30 35 1 35 29
M  V30 36 1 36 22
M  V30 37 1 36 28
M  V30 38 2 37 12
M  V30 39 1 37 26
M  V30 40 1 37 36
M  V30 41 1 38 2
M  V30 42 1 39 2
M  V30 43 1 3 40 CFG=3
M  V30 44 1 41 4
M  V30 45 1 42 6
M  V30 46 1 43 6
M  V30 47 1 44 6
M  V30 48 1 45 7
M  V30 49 1 46 7
M  V30 50 1 47 8
M  V30 51 1 48 9
M  V30 52 1 49 10
M  V30 53 1 50 10
M  V30 54 1 51 11
M  V30 55 1 52 11
M  V30 56 1 53 12
M  V30 57 1 17 54 CFG=1
M  V30 58 1 55 19
M  V30 59 1 56 20
M  V30 60 1 57 20
M  V30 61 1 58 21
M  V30 62 1 59 21
M  V30 63 1 60 21
M  V30 64 1 61 22
M  V30 65 1 62 22
M  V30 66 1 25 63 CFG=1
M  V30 67 1 64 26
M  V30 68 1 28 65 CFG=1
M  V30 69 1 66 29
M  V30 70 1 67 29
M  V30 71 1 68 30
M  V30 72 1 69 30
M  V30 73 1 70 30
M  V30 74 1 71 31
M  V30 75 1 72 33
M  V30 76 1 34 73 CFG=1
M  V30 77 1 74 35
M  V30 78 1 75 35
M  V30 79 1 36 76 CFG=1
M  V30 80 1 77 5
M  V30 END BOND
M  V30 END CTAB
M  END
>  <i_epik_Tot_Q>  (1) 
0

>  <i_epik_Tot_abs_Q>  (1) 
2

>  <i_i_glide_confnum>  (1) 
197

>  <i_i_glide_lignum>  (1) 
143

>  <i_i_glide_posenum>  (1) 
279

>  <i_i_glide_rotatable_bonds>  (1) 
8

>  <i_lp_mmshare_version>  (1) 
72125

>  <i_m_source_file_index>  (1) 
65

>  <i_f3d_flags>  (1) 
0

>  <num_sample>  (1) 
100

>  <b_lp_Chiralities_Consistent>  (1) 
1

>  <r_epik_Charging_Adjusted_Penalty>  (1) 
0.059234021973178383

>  <r_epik_Ionization_Penalty>  (1) 
0.05923416388853827

>  <r_epik_Ionization_Penalty_Charging>  (1) 
0.059234021973178383

>  <r_epik_Ionization_Penalty_Neutral>  (1) 
1.4191535988443934e-07

>  <r_epik_State_Penalty>  (1) 
-0

>  <r_glide_ring_energy>  (1) 
0.4351030857825629

>  <r_i_docking_score>  (1) 
-6.7077281287578998

>  <r_i_glide_ecoul>  (1) 
-2.214213818950463

>  <r_i_glide_eff_state_penalty>  (1) 
-0

>  <r_i_glide_einternal>  (1) 
9.5378705017757461

>  <r_i_glide_emodel>  (1) 
-38.071780021413169

>  <r_i_glide_emodel_strain>  (1) 
2.9439724276259938

>  <r_i_glide_energy>  (1) 
-33.408892006052739

>  <r_i_glide_erotb>  (1) 
0.54408064829906078

>  <r_i_glide_esite>  (1) 
0

>  <r_i_glide_evdw>  (1) 
-31.194678187102276

>  <r_i_glide_gscore>  (1) 
-6.7077281287578998

>  <r_i_glide_gscore_strain>  (1) 
0

>  <r_i_glide_hbond>  (1) 
0

>  <r_i_glide_ligand_efficiency>  (1) 
-0.18128994942588919

>  <r_i_glide_ligand_efficiency_ln>  (1) 
-1.4547489796692603

>  <r_i_glide_ligand_efficiency_sa>  (1) 
-0.60409833096073773

>  <r_i_glide_lipo>  (1) 
-3.9246917289400112

>  <r_i_glide_metal>  (1) 
-0

>  <r_i_glide_rewards>  (1) 
-1.4352510659192657

>  <r_lp_Energy>  (1) 
57.935866999999995

>  <r_lp_tautomer_probability>  (1) 
1

>  <s_epik_Chemistry_Notes>  (1) 
This compound has an imine and may undergo hydrolysis.

>  <s_epik_cmdline>  (1) 
J2VwaWtfcHl0aG9uJywgJy1waHQnLCAnMS4wJywgJy1waCcsICc3LjQnLCAnLXRuJywgJzgnLCAnLW1hJywgJzUwMCcsICctaW1hZScsICc8aW5maWxlLm1hZT4nLCAnLW9tYWUnLCAnPG91dGZpbGUubWFlPic=

>  <s_epik_input>  (1) 
W05IXTFDKD1PKU4oW09IXSlbQ0BASF0oW0NIM10pQyhDMTIpPVtDSF1bQ0BASF0oW0NIMl1OPTIpW0NAQEhdKFtDSF09W0NIMl0pW0NIMl1bQ0gyXVtDSDJdW0NAXTMoW0NIM10pT1tDQEhdKFtDSDNdKVtDQEBIXShbQ0gyXVtDSDJdW0NAQEhdKFtPSF0pW0NIMl0zKWMoW2NIXVtjSF00KVtjSF1bY0hdYzRG

>  <s_glide_docking_method>  (1) 
confgen

>  <s_i_glide_gridfile>  (1) 
gpcr_5ht2c_6bqh_protein_autoprepared_prepared

>  <s_lp_Force_Field>  (1) 
S-OPLS

>  <s_lp_Variant>  (1) 
DiffSBDD_64-1

>  <s_m_source_file>  (1) 
generated_GPCR_5HT2C_ligand_DiffSBDD_2026-06-23_prepared.sdf

>  <GenAI_Model>  (1) 
DiffSBDD

>  <Protein>  (1) 
GPCR_5HT2C

$$$$
DiffSBDD_38
     RDKit          3D

  0  0  0  0  0  0  0  0  0  0999 V3000
M  V30 BEGIN CTAB
M  V30 COUNTS 45 47 0 0 1
M  V30 BEGIN ATOM
M  V30 1 C 36.514845 31.511580 59.942377 0
M  V30 2 C 40.448586 27.299259 56.874686 0
M  V30 3 C 38.521482 25.109783 55.247260 0
M  V30 4 C 40.303765 28.385885 59.052805 0
M  V30 5 C 41.364290 35.467468 63.290937 0
M  V30 6 O 38.807177 30.088431 60.783856 0
M  V30 7 C 40.916301 33.100875 63.678429 0
M  V30 8 C 38.405128 29.957387 59.626110 0
M  V30 9 C 37.798841 26.439471 54.982098 0
M  V30 10 C 37.151089 32.859254 60.266039 0
M  V30 11 C 38.921640 34.238152 60.599722 0 CFG=2
M  V30 12 C 39.111494 29.035145 58.658292 0
M  V30 13 C 38.698279 27.686633 55.079550 0
M  V30 14 N 37.332106 30.605690 59.134160 0
M  V30 15 C 40.969252 27.523979 58.161316 0
M  V30 16 S 37.469310 35.346958 60.914636 0
M  V30 17 O 38.514793 32.892213 60.210940 0
M  V30 18 C 40.055347 33.079621 62.563421 0
M  V30 19 C 36.517455 33.967183 60.588599 0
M  V30 20 C 38.588220 28.807426 57.358234 0
M  V30 21 C 41.570306 34.294312 64.041961 0
M  V30 22 C 39.849335 34.254683 61.807251 0
M  V30 23 C 40.506544 35.448760 62.174188 0
M  V30 24 C 39.258155 27.936501 56.470851 0
M  V30 25 H 36.232463 31.021653 60.875187 0
M  V30 26 H 35.587635 31.692203 59.396096 0
M  V30 27 H 40.962365 26.633982 56.195854 0
M  V30 28 H 37.849922 24.267243 55.080911 0
M  V30 29 H 39.377945 24.985745 54.583242 0
M  V30 30 H 38.878099 25.041947 56.275215 0
M  V30 31 H 40.709421 28.551996 60.040452 0
M  V30 32 H 41.867041 36.382209 63.570052 0
M  V30 33 H 41.073983 32.201632 64.255591 0
M  V30 34 H 36.958474 26.537752 55.668768 0
M  V30 35 H 37.368402 26.400047 53.980516 0
M  V30 36 H 39.485020 34.653874 59.767760 0
M  V30 37 H 38.133850 28.565767 54.766132 0
M  V30 38 H 39.526782 27.597669 54.376144 0
M  V30 39 H 37.061773 30.462250 58.171023 0
M  V30 40 H 41.881840 27.032333 58.466265 0
M  V30 41 H 39.554682 32.163128 62.288492 0
M  V30 42 H 35.442682 34.047040 60.659770 0
M  V30 43 H 37.676503 29.292541 57.042494 0
M  V30 44 H 42.229868 34.309882 64.897675 0
M  V30 45 H 40.351425 36.350111 61.599143 0
M  V30 END ATOM
M  V30 BEGIN BOND
M  V30 1 2 8 6
M  V30 2 1 9 3
M  V30 3 1 10 1
M  V30 4 2 12 4
M  V30 5 1 12 8
M  V30 6 1 13 9
M  V30 7 1 14 1
M  V30 8 1 14 8
M  V30 9 2 15 2
M  V30 10 1 15 4
M  V30 11 1 16 11
M  V30 12 1 17 10
M  V30 13 1 17 11
M  V30 14 2 18 7
M  V30 15 2 19 10
M  V30 16 1 19 16
M  V30 17 1 20 12
M  V30 18 2 21 5
M  V30 19 1 21 7
M  V30 20 1 22 11
M  V30 21 1 22 18
M  V30 22 1 23 5
M  V30 23 2 23 22
M  V30 24 1 24 2
M  V30 25 1 24 13
M  V30 26 2 24 20
M  V30 27 1 25 1
M  V30 28 1 26 1
M  V30 29 1 27 2
M  V30 30 1 28 3
M  V30 31 1 29 3
M  V30 32 1 30 3
M  V30 33 1 31 4
M  V30 34 1 32 5
M  V30 35 1 33 7
M  V30 36 1 34 9
M  V30 37 1 35 9
M  V30 38 1 11 36 CFG=3
M  V30 39 1 37 13
M  V30 40 1 38 13
M  V30 41 1 39 14
M  V30 42 1 40 15
M  V30 43 1 41 18
M  V30 44 1 42 19
M  V30 45 1 43 20
M  V30 46 1 44 21
M  V30 47 1 45 23
M  V30 END BOND
M  V30 END CTAB
M  END
>  <i_epik_Tot_Q>  (1) 
0

>  <i_epik_Tot_abs_Q>  (1) 
0

>  <i_i_glide_confnum>  (1) 
1

>  <i_i_glide_lignum>  (1) 
85

>  <i_i_glide_posenum>  (1) 
343

>  <i_i_glide_rotatable_bonds>  (1) 
7

>  <i_lp_mmshare_version>  (1) 
72125

>  <i_m_source_file_index>  (1) 
39

>  <i_f3d_flags>  (1) 
0

>  <num_sample>  (1) 
100

>  <b_lp_Chiralities_Consistent>  (1) 
1

>  <r_epik_Charging_Adjusted_Penalty>  (1) 
0

>  <r_epik_Ionization_Penalty>  (1) 
2.537030552391147e-06

>  <r_epik_Ionization_Penalty_Charging>  (1) 
0

>  <r_epik_Ionization_Penalty_Neutral>  (1) 
2.537030552391147e-06

>  <r_epik_State_Penalty>  (1) 
-0

>  <r_glide_ring_energy>  (1) 
0

>  <r_i_docking_score>  (1) 
-6.6901642109101056

>  <r_i_glide_ecoul>  (1) 
-2.2355871232366034

>  <r_i_glide_eff_state_penalty>  (1) 
-0

>  <r_i_glide_einternal>  (1) 
1.816790078203522

>  <r_i_glide_emodel>  (1) 
-59.090371039606374

>  <r_i_glide_emodel_strain>  (1) 
0.16249441988915692

>  <r_i_glide_energy>  (1) 
-42.10556318388219

>  <r_i_glide_erotb>  (1) 
0.98539345027443515

>  <r_i_glide_esite>  (1) 
-0.06062119333014452

>  <r_i_glide_evdw>  (1) 
-39.869976060645584

>  <r_i_glide_gscore>  (1) 
-6.6901642109101056

>  <r_i_glide_gscore_strain>  (1) 
0

>  <r_i_glide_hbond>  (1) 
0

>  <r_i_glide_ligand_efficiency>  (1) 
-0.2787568421212544

>  <r_i_glide_ligand_efficiency_ln>  (1) 
-1.6012632873025845

>  <r_i_glide_ligand_efficiency_sa>  (1) 
-0.80407387153925847

>  <r_i_glide_lipo>  (1) 
-3.6540930238383429

>  <r_i_glide_metal>  (1) 
-0

>  <r_i_glide_rewards>  (1) 
-1.6320065724982826

>  <r_lp_Energy>  (1) 
12.828882

>  <r_lp_tautomer_probability>  (1) 
1

>  <s_epik_Chemistry_Notes>  (1) 
This compound contains an acetal/aminal-like group ( X-CH(R)-Y where X, Y are N, S, or O) that may be acid/base labile, releasing an aldehyde.

>  <s_epik_cmdline>  (1) 
J2VwaWtfcHl0aG9uJywgJy1waHQnLCAnMS4wJywgJy1waCcsICc3LjQnLCAnLXRuJywgJzgnLCAnLW1hJywgJzUwMCcsICctaW1hZScsICc8aW5maWxlLm1hZT4nLCAnLW9tYWUnLCAnPG91dGZpbGUubWFlPic=

>  <s_epik_input>  (1) 
W2NIXTFbY0hdW2NIXVtjSF1bY0hdYzFbQ0BASF0oTzIpU1tDSF09QzJbQ0gyXVtOSF1DKD1PKWMzW2NIXVtjSF1bY0hdYyhbY0hdMylbQ0gyXVtDSDJdW0NIM10=

>  <s_glide_docking_method>  (1) 
confgen

>  <s_i_glide_gridfile>  (1) 
gpcr_5ht2c_6bqh_protein_autoprepared_prepared

>  <s_lp_Force_Field>  (1) 
S-OPLS

>  <s_lp_Variant>  (1) 
DiffSBDD_38-1

>  <s_m_source_file>  (1) 
generated_GPCR_5HT2C_ligand_DiffSBDD_2026-06-23_prepared.sdf

>  <GenAI_Model>  (1) 
DiffSBDD

>  <Protein>  (1) 
GPCR_5HT2C

$$$$
DiffSBDD_56
     RDKit          3D

  0  0  0  0  0  0  0  0  0  0999 V3000
M  V30 BEGIN CTAB
M  V30 COUNTS 73 78 0 0 1
M  V30 BEGIN ATOM
M  V30 1 C 37.275581 34.070037 60.535259 0 CFG=1
M  V30 2 C 40.345276 33.746484 61.637844 0
M  V30 3 C 39.311558 33.666679 59.367845 0
M  V30 4 C 38.163977 26.056415 56.990218 0
M  V30 5 C 34.731044 33.647801 60.323560 0
M  V30 6 C 38.830514 36.793024 62.384232 0
M  V30 7 C 39.694715 34.601839 60.499290 0 CFG=1
M  V30 8 C 35.936493 34.521768 59.904061 0
M  V30 9 C 38.459482 36.937766 64.786485 0
M  V30 10 C 38.262103 26.315017 55.630848 0
M  V30 11 C 39.284644 29.781321 55.515186 0
M  V30 12 C 38.446002 27.064403 57.931744 0
M  V30 13 C 37.400373 36.823887 62.169893 0
M  V30 14 C 34.629267 32.305618 59.619042 0
M  V30 15 C 38.667274 27.615060 55.180693 0
M  V30 16 C 36.559011 37.015940 63.280492 0
M  V30 17 N 38.142377 35.642646 62.108626 0
M  V30 18 N 36.745608 30.993798 59.053701 0 CFG=1 CHG=1
M  V30 19 F 36.228002 36.965378 65.641730 0
M  V30 20 C 38.074201 32.963368 59.816155 0 CFG=2
M  V30 21 C 37.069588 36.937755 64.579750 0
M  V30 22 C 38.755535 27.541407 52.605527 0
M  V30 23 F 38.959080 36.985693 66.045013 0
M  V30 24 C 37.593684 29.858147 59.531770 0
M  V30 25 C 38.812360 28.310971 57.509322 0
M  V30 26 C 38.301547 35.222873 60.743485 0 CFG=2
M  V30 27 C 39.320999 37.011224 63.683807 0
M  V30 28 S 39.155661 29.614219 58.636290 0
M  V30 29 C 38.877170 28.181242 53.947559 0
M  V30 30 C 39.245032 29.509865 54.181675 0
M  V30 31 C 35.699547 31.288255 60.063322 0
M  V30 32 O 37.973430 25.335459 54.708463 0
M  V30 33 N 38.927929 28.600093 56.186007 0
M  V30 34 C 37.466360 32.214802 58.628208 0
M  V30 35 C 41.183376 34.484979 62.688113 0
M  V30 36 C 37.010114 24.350239 55.065881 0
M  V30 37 O 37.645144 28.138565 52.011691 0
M  V30 38 H 37.026756 33.658173 61.514211 0
M  V30 39 H 39.601482 33.147187 62.160324 0
M  V30 40 H 41.020222 33.024937 61.181548 0
M  V30 41 H 39.084264 34.137755 58.424619 0
M  V30 42 H 40.045141 32.937757 59.158989 0
M  V30 43 H 37.870322 25.071804 57.333480 0
M  V30 44 H 33.806669 34.137759 60.042826 0
M  V30 45 H 34.692727 33.527184 61.407329 0
M  V30 46 H 40.409343 35.353344 60.166674 0
M  V30 47 H 35.735393 35.536178 60.233763 0
M  V30 48 H 36.001611 34.631834 58.823047 0
M  V30 49 H 39.527827 30.674006 56.070375 0
M  V30 50 H 38.370524 26.856154 58.992585 0
M  V30 51 H 33.645150 31.878138 59.767755 0
M  V30 52 H 34.587836 32.537695 58.567773 0
M  V30 53 H 35.507685 37.202263 63.129157 0
M  V30 54 H 38.386613 32.233421 60.562859 0
M  V30 55 H 39.640051 27.720299 51.990608 0
M  V30 56 H 38.603773 26.471139 52.658304 0
M  V30 57 H 37.856719 30.006586 60.577292 0
M  V30 58 H 37.015032 28.938794 59.480097 0
M  V30 59 H 38.125954 36.021429 60.019739 0
M  V30 60 H 40.374434 37.185060 63.834320 0
M  V30 61 H 39.471124 30.208291 53.388827 0
M  V30 62 H 36.144648 31.597691 61.009068 0
M  V30 63 H 35.245138 30.345420 60.322952 0
M  V30 64 H 36.845220 32.882110 58.043961 0
M  V30 65 H 38.229902 31.950081 57.899244 0
M  V30 66 H 41.977667 33.843209 63.070977 0
M  V30 67 H 40.575981 34.750660 63.550426 0
M  V30 68 H 41.645056 35.387956 62.290880 0
M  V30 69 H 36.607433 23.885210 54.167854 0
M  V30 70 H 36.165704 24.777535 55.606053 0
M  V30 71 H 37.454981 23.565053 55.673121 0
M  V30 72 H 37.281323 27.531621 51.379410 0
M  V30 73 H 36.251449 30.710821 58.212412 0
M  V30 END ATOM
M  V30 BEGIN BOND
M  V30 1 1 7 2
M  V30 2 1 7 3
M  V30 3 1 8 1
M  V30 4 1 8 5
M  V30 5 2 10 4
M  V30 6 1 12 4
M  V30 7 2 13 6
M  V30 8 1 14 5
M  V30 9 1 15 10
M  V30 10 1 16 13
M  V30 11 1 17 6
M  V30 12 1 17 13
M  V30 13 1 20 1
M  V30 14 1 20 3
M  V30 15 1 21 9
M  V30 16 2 21 16
M  V30 17 1 21 19
M  V30 18 1 23 9
M  V30 19 1 24 18
M  V30 20 2 25 12
M  V30 21 1 26 1
M  V30 22 1 26 7
M  V30 23 1 26 17
M  V30 24 1 27 6
M  V30 25 2 27 9
M  V30 26 1 28 24
M  V30 27 1 28 25
M  V30 28 2 29 15
M  V30 29 1 29 22
M  V30 30 2 30 11
M  V30 31 1 30 29
M  V30 32 1 31 14
M  V30 33 1 31 18
M  V30 34 1 32 10
M  V30 35 1 33 11
M  V30 36 1 33 15
M  V30 37 1 33 25
M  V30 38 1 34 18
M  V30 39 1 34 20
M  V30 40 1 35 2
M  V30 41 1 36 32
M  V30 42 1 37 22
M  V30 43 1 1 38 CFG=1
M  V30 44 1 39 2
M  V30 45 1 40 2
M  V30 46 1 41 3
M  V30 47 1 42 3
M  V30 48 1 43 4
M  V30 49 1 44 5
M  V30 50 1 45 5
M  V30 51 1 7 46 CFG=3
M  V30 52 1 47 8
M  V30 53 1 48 8
M  V30 54 1 49 11
M  V30 55 1 50 12
M  V30 56 1 51 14
M  V30 57 1 52 14
M  V30 58 1 53 16
M  V30 59 1 20 54 CFG=1
M  V30 60 1 55 22
M  V30 61 1 56 22
M  V30 62 1 57 24
M  V30 63 1 58 24
M  V30 64 1 26 59 CFG=3
M  V30 65 1 60 27
M  V30 66 1 61 30
M  V30 67 1 62 31
M  V30 68 1 63 31
M  V30 69 1 64 34
M  V30 70 1 65 34
M  V30 71 1 66 35
M  V30 72 1 67 35
M  V30 73 1 68 35
M  V30 74 1 69 36
M  V30 75 1 70 36
M  V30 76 1 71 36
M  V30 77 1 72 37
M  V30 78 1 18 73 CFG=3
M  V30 END BOND
M  V30 END CTAB
M  END
>  <i_epik_Tot_Q>  (1) 
1

>  <i_epik_Tot_abs_Q>  (1) 
1

>  <i_i_glide_confnum>  (1) 
104

>  <i_i_glide_lignum>  (1) 
123

>  <i_i_glide_posenum>  (1) 
44

>  <i_i_glide_rotatable_bonds>  (1) 
8

>  <i_lp_mmshare_version>  (1) 
72125

>  <i_m_source_file_index>  (1) 
57

>  <i_f3d_flags>  (1) 
0

>  <num_sample>  (1) 
100

>  <b_lp_Chiralities_Consistent>  (1) 
1

>  <r_epik_Charging_Adjusted_Penalty>  (1) 
1.9649939919035475

>  <r_epik_Ionization_Penalty>  (1) 
0.98409533599364529

>  <r_epik_Ionization_Penalty_Charging>  (1) 
0.98249699595177398

>  <r_epik_Ionization_Penalty_Neutral>  (1) 
0.0015983400418712683

>  <r_epik_State_Penalty>  (1) 
0.98249699595177364

>  <r_glide_ring_energy>  (1) 
0

>  <r_i_docking_score>  (1) 
-6.6873108587953851

>  <r_i_glide_ecoul>  (1) 
-4.7190702018847448

>  <r_i_glide_eff_state_penalty>  (1) 
0.98249699595177364

>  <r_i_glide_einternal>  (1) 
5.2727782115491042

>  <r_i_glide_emodel>  (1) 
-30.481001912483222

>  <r_i_glide_emodel_strain>  (1) 
2.4818208959575259

>  <r_i_glide_energy>  (1) 
-29.859086214051725

>  <r_i_glide_erotb>  (1) 
0.36855175673704876

>  <r_i_glide_esite>  (1) 
-0.10000000000000001

>  <r_i_glide_evdw>  (1) 
-25.140016012166981

>  <r_i_glide_gscore>  (1) 
-7.6698078547471589

>  <r_i_glide_gscore_strain>  (1) 
0

>  <r_i_glide_hbond>  (1) 
-0.38662658906670805

>  <r_i_glide_ligand_efficiency>  (1) 
-0.18073813131879418

>  <r_i_glide_ligand_efficiency_ln>  (1) 
-1.4503209524631098

>  <r_i_glide_ligand_efficiency_sa>  (1) 
-0.60225955060614189

>  <r_i_glide_lipo>  (1) 
-4.4857562349550264

>  <r_i_glide_metal>  (1) 
-0

>  <r_i_glide_rewards>  (1) 
-1.1011154565714123

>  <r_lp_Energy>  (1) 
108.178613

>  <s_epik_Chemistry_Notes>  (1) 
This compound contains an acetal/aminal-like group ( X-CH(R)-Y where X, Y are N, S, or O) that may be acid/base labile, releasing an aldehyde.

>  <s_epik_cmdline>  (1) 
J2VwaWtfcHl0aG9uJywgJy1waHQnLCAnMS4wJywgJy1waCcsICc3LjQnLCAnLXRuJywgJzgnLCAnLW1hJywgJzUwMCcsICctaW1hZScsICc8aW5maWxlLm1hZT4nLCAnLW9tYWUnLCAnPG91dGZpbGUubWFlPic=

>  <s_epik_input>  (1) 
RmMoW2NIXTEpYyhGKVtjSF1jKGMxMilOMltDQEhdM1tDQEBIXShbQ0gyXVtDSDNdKVtDSDJdW0NAQEhdKFtDQEBIXTM0KVtDSDJdTihbQ0gyXVtDSDJdW0NIMl1bQ0gyXTQpW0NIMl1TYyhbY0hdW2NIXWM1T1tDSDNdKW4oYzU2KVtjSF1bY0hdYzZbQ0gyXVtPSF0=

>  <s_glide_docking_method>  (1) 
confgen

>  <s_i_glide_gridfile>  (1) 
gpcr_5ht2c_6bqh_protein_autoprepared_prepared

>  <s_lp_Force_Field>  (1) 
S-OPLS

>  <s_lp_Variant>  (1) 
DiffSBDD_56-2

>  <s_m_source_file>  (1) 
generated_GPCR_5HT2C_ligand_DiffSBDD_2026-06-23_prepared.sdf

>  <GenAI_Model>  (1) 
DiffSBDD

>  <Protein>  (1) 
GPCR_5HT2C

$$$$
DiffSBDD_32
     RDKit          3D

  0  0  0  0  0  0  0  0  0  0999 V3000
M  V30 BEGIN CTAB
M  V30 COUNTS 65 67 0 0 1
M  V30 BEGIN ATOM
M  V30 1 C 40.796495 26.751188 56.661218 0
M  V30 2 O 37.640067 23.896483 57.767758 0
M  V30 3 O 40.045138 24.537763 56.967750 0
M  V30 4 O 40.248602 29.933322 51.701315 0
M  V30 5 C 39.726072 25.704601 56.962516 0
M  V30 6 C 40.037815 34.640825 61.342416 0
M  V30 7 N 36.190205 33.477914 59.117956 0 CHG=1
M  V30 8 C 38.520852 29.911044 56.514349 0 CFG=2
M  V30 9 C 37.062340 34.649916 58.920844 0
M  V30 10 C 38.110729 30.402842 57.925333 0
M  V30 11 C 37.253406 25.076589 57.631889 0
M  V30 12 C 38.047912 27.449493 57.135178 0
M  V30 13 C 36.880275 32.183249 59.254380 0
M  V30 14 C 39.662627 28.898120 51.314541 0
M  V30 15 O 38.652956 27.007418 53.860506 0
M  V30 16 O 40.045136 28.137817 50.405208 0 CHG=-1
M  V30 17 C 37.467292 35.779573 61.140905 0
M  V30 18 O 37.403965 30.437172 54.288218 0
M  V30 19 O 36.100723 25.516693 57.767695 0 CHG=-1
M  V30 20 C 37.938805 34.935219 60.128464 0
M  V30 21 C 39.227831 34.363245 60.227503 0
M  V30 22 C 37.786071 36.937751 63.343793 0
M  V30 23 C 37.752028 31.881748 58.025097 0
M  V30 24 C 39.000840 28.477885 56.724871 0
M  V30 25 C 38.279256 36.059640 62.259351 0
M  V30 26 C 38.536643 28.379673 53.534506 0 CFG=1
M  V30 27 C 38.359883 28.536637 52.012671 0
M  V30 28 O 38.419180 37.162534 64.372921 0
M  V30 29 C 40.274458 28.138928 56.504691 0
M  V30 30 C 38.346501 26.134431 57.242036 0
M  V30 31 C 39.544117 30.897504 55.895635 0
M  V30 32 C 36.405920 37.572148 63.127484 0
M  V30 33 C 39.566442 35.487315 62.358057 0
M  V30 34 C 37.367445 29.006112 54.261230 0 CFG=1
M  V30 35 C 37.324755 29.799220 55.568300 0 CFG=1
M  V30 36 H 41.245128 26.455060 55.718487 0
M  V30 37 H 41.569799 26.727478 57.428978 0
M  V30 38 H 41.021658 34.205246 61.417786 0
M  V30 39 H 35.610921 33.377450 58.291727 0
M  V30 40 H 37.647354 34.539610 58.010355 0
M  V30 41 H 36.423181 35.515071 58.749596 0
M  V30 42 H 37.267687 29.810615 58.279446 0
M  V30 43 H 38.919472 30.207384 58.631446 0
M  V30 44 H 37.035315 27.754493 57.351240 0
M  V30 45 H 36.098287 31.428581 59.353527 0
M  V30 46 H 37.466865 32.143290 60.171757 0
M  V30 47 H 38.648934 26.917544 54.802245 0
M  V30 48 H 36.481271 36.207105 61.056570 0
M  V30 49 H 39.596694 33.718772 59.446788 0
M  V30 50 H 38.671948 32.458609 58.039973 0
M  V30 51 H 37.245179 32.202868 57.119079 0
M  V30 52 H 39.452403 28.855848 53.868098 0
M  V30 53 H 37.926615 27.638338 51.569011 0
M  V30 54 H 37.662020 29.337706 51.792713 0
M  V30 55 H 40.986833 28.881257 56.187885 0
M  V30 56 H 39.073801 31.839646 55.615053 0
M  V30 57 H 40.300456 31.154214 56.611488 0
M  V30 58 H 40.042570 30.532019 55.000963 0
M  V30 59 H 35.622674 36.841656 63.330719 0
M  V30 60 H 36.243181 38.430130 63.767746 0
M  V30 61 H 36.294384 37.948416 62.110714 0
M  V30 62 H 40.190528 35.698844 63.215789 0
M  V30 63 H 36.445149 28.562701 53.942141 0
M  V30 64 H 36.351830 29.905086 56.038496 0
M  V30 65 H 35.595021 33.627815 59.918371 0
M  V30 END ATOM
M  V30 BEGIN BOND
M  V30 1 1 5 1
M  V30 2 2 5 3
M  V30 3 1 9 7
M  V30 4 1 8 10 CFG=1
M  V30 5 2 11 2
M  V30 6 1 13 7
M  V30 7 2 14 4
M  V30 8 1 16 14
M  V30 9 1 19 11
M  V30 10 1 20 9
M  V30 11 2 20 17
M  V30 12 2 21 6
M  V30 13 1 21 20
M  V30 14 1 23 10
M  V30 15 1 23 13
M  V30 16 1 24 8
M  V30 17 1 24 12
M  V30 18 1 25 17
M  V30 19 1 25 22
M  V30 20 1 26 15
M  V30 21 1 27 14
M  V30 22 1 27 26
M  V30 23 2 28 22
M  V30 24 1 29 1
M  V30 25 2 29 24
M  V30 26 1 30 5
M  V30 27 1 30 11
M  V30 28 2 30 12
M  V30 29 1 31 8
M  V30 30 1 32 22
M  V30 31 1 33 6
M  V30 32 2 33 25
M  V30 33 1 34 18
M  V30 34 1 34 26
M  V30 35 1 35 8
M  V30 36 1 35 18
M  V30 37 1 35 34
M  V30 38 1 36 1
M  V30 39 1 37 1
M  V30 40 1 38 6
M  V30 41 1 39 7
M  V30 42 1 40 9
M  V30 43 1 41 9
M  V30 44 1 42 10
M  V30 45 1 43 10
M  V30 46 1 44 12
M  V30 47 1 45 13
M  V30 48 1 46 13
M  V30 49 1 47 15
M  V30 50 1 48 17
M  V30 51 1 49 21
M  V30 52 1 50 23
M  V30 53 1 51 23
M  V30 54 1 26 52 CFG=1
M  V30 55 1 53 27
M  V30 56 1 54 27
M  V30 57 1 55 29
M  V30 58 1 56 31
M  V30 59 1 57 31
M  V30 60 1 58 31
M  V30 61 1 59 32
M  V30 62 1 60 32
M  V30 63 1 61 32
M  V30 64 1 62 33
M  V30 65 1 34 63 CFG=3
M  V30 66 1 35 64 CFG=1
M  V30 67 1 65 7
M  V30 END BOND
M  V30 END CTAB
M  END
>  <i_epik_Tot_Q>  (1) 
-1

>  <i_epik_Tot_abs_Q>  (1) 
3

>  <i_i_glide_confnum>  (1) 
2059

>  <i_i_glide_lignum>  (1) 
76

>  <i_i_glide_posenum>  (1) 
339

>  <i_i_glide_rotatable_bonds>  (1) 
14

>  <i_lp_mmshare_version>  (1) 
72125

>  <i_m_source_file_index>  (1) 
33

>  <i_f3d_flags>  (1) 
0

>  <num_sample>  (1) 
100

>  <b_lp_Chiralities_Consistent>  (1) 
1

>  <r_epik_Charging_Adjusted_Penalty>  (1) 
0.080349275114026383

>  <r_epik_Ionization_Penalty>  (1) 
0.040587732583292166

>  <r_epik_Ionization_Penalty_Charging>  (1) 
0.040587694316789436

>  <r_epik_Ionization_Penalty_Neutral>  (1) 
3.8266502729817704e-08

>  <r_epik_State_Penalty>  (1) 
0.039761580797236948

>  <r_glide_ring_energy>  (1) 
0

>  <r_i_docking_score>  (1) 
-6.686630690638304

>  <r_i_glide_ecoul>  (1) 
-2.5323956751379049

>  <r_i_glide_eff_state_penalty>  (1) 
0.039761580797236948

>  <r_i_glide_einternal>  (1) 
14.509893385398058

>  <r_i_glide_emodel>  (1) 
-44.421966659038254

>  <r_i_glide_emodel_strain>  (1) 
2.256599585932463

>  <r_i_glide_energy>  (1) 
-29.921976724241585

>  <r_i_glide_erotb>  (1) 
0.86504187564476209

>  <r_i_glide_esite>  (1) 
-0.081031878027664803

>  <r_i_glide_evdw>  (1) 
-27.389581049103679

>  <r_i_glide_gscore>  (1) 
-6.7263922714355413

>  <r_i_glide_gscore_strain>  (1) 
0

>  <r_i_glide_hbond>  (1) 
-0.16091678003811111

>  <r_i_glide_ligand_efficiency>  (1) 
-0.1910465911610944

>  <r_i_glide_ligand_efficiency_ln>  (1) 
-1.4678638383676106

>  <r_i_glide_ligand_efficiency_sa>  (1) 
-0.6249260680234292

>  <r_i_glide_lipo>  (1) 
-3.0355706326795673

>  <r_i_glide_metal>  (1) 
-0

>  <r_i_glide_rewards>  (1) 
-2.5645764526090904

>  <r_lp_Energy>  (1) 
50.449213

>  <r_lp_tautomer_probability>  (1) 
0.99995000000000001

>  <s_epik_cmdline>  (1) 
J2VwaWtfcHl0aG9uJywgJy1waHQnLCAnMS4wJywgJy1waCcsICc3LjQnLCAnLXRuJywgJzgnLCAnLW1hJywgJzUwMCcsICctaW1hZScsICc8aW5maWxlLm1hZT4nLCAnLW9tYWUnLCAnPG91dGZpbGUubWFlPic=

>  <s_epik_input>  (1) 
Tz1DKFtPSF0pW0NIMl1bQ0BIXShbT0hdKVtDQEBIXTFPW0NAQEhdMVtDQF0oW0NIM10pKEMoPVtDSF1bQ0gyXUMyPU8pW0NIXT1DMkMoPU8pW09IXSlbQ0gyXVtDSDJdW0NIMl1bTkhdW0NIMl1jM1tjSF1jKEMoPU8pW0NIM10pW2NIXVtjSF1bY0hdMw==

>  <s_glide_docking_method>  (1) 
confgen

>  <s_i_glide_gridfile>  (1) 
gpcr_5ht2c_6bqh_protein_autoprepared_prepared

>  <s_lp_Force_Field>  (1) 
S-OPLS

>  <s_lp_Variant>  (1) 
DiffSBDD_32-1

>  <s_m_source_file>  (1) 
generated_GPCR_5HT2C_ligand_DiffSBDD_2026-06-23_prepared.sdf

>  <GenAI_Model>  (1) 
DiffSBDD

>  <Protein>  (1) 
GPCR_5HT2C

$$$$
DiffSBDD_93
     RDKit          3D

  0  0  0  0  0  0  0  0  0  0999 V3000
M  V30 BEGIN CTAB
M  V30 COUNTS 84 85 0 0 1
M  V30 BEGIN ATOM
M  V30 1 C 36.338091 30.304193 59.891715 0
M  V30 2 O 35.656576 30.937739 60.967802 0
M  V30 3 C 38.391849 36.128128 63.197818 0
M  V30 4 C 37.885264 24.838139 55.191929 0
M  V30 5 O 38.845192 31.606982 57.670247 0
M  V30 6 C 38.014537 29.497913 54.164383 0
M  V30 7 N 38.398505 30.767781 54.292935 0
M  V30 8 O 36.845146 29.164359 54.167782 0
M  V30 9 O 34.485998 32.763461 59.353666 0
M  V30 10 C 37.131299 24.493012 56.461275 0
M  V30 11 C 37.937202 35.046301 62.167758 0
M  V30 12 C 37.744041 29.490633 57.517432 0
M  V30 13 C 37.795156 32.308056 60.129984 0
M  V30 14 C 38.964891 27.187435 54.953965 0 CFG=1
M  V30 15 C 39.120861 28.446624 54.014267 0 CFG=1
M  V30 16 C 38.258265 37.067874 61.070364 0 CFG=1
M  V30 17 C 38.121730 34.849147 59.767854 0 CFG=1
M  V30 18 C 39.650064 34.537798 59.767725 0
M  V30 19 C 39.083686 28.848206 57.070168 0
M  V30 20 S 35.517326 33.960897 59.940697 0 CHG=1
M  V30 21 O 39.629541 26.329104 58.567913 0
M  V30 22 N 37.411765 31.127148 59.357082 0
M  V30 23 O 35.245126 35.310715 58.967782 0
M  V30 24 O 36.739640 37.737847 62.831718 0
M  V30 25 F 37.645056 37.738014 58.967783 0
M  V30 26 C 36.713811 23.884026 55.146623 0
M  V30 27 C 39.979259 26.483736 57.208374 0
M  V30 28 C 38.948614 27.406992 56.514109 0 CFG=2
M  V30 29 C 38.039020 30.839370 58.185638 0
M  V30 30 C 39.259455 28.018509 52.517592 0
M  V30 31 C 38.108900 39.514441 60.389537 0
M  V30 32 C 37.242636 33.593813 59.497489 0 CFG=2
M  V30 33 O 39.905267 28.725629 50.344301 0
M  V30 34 C 37.805581 26.221073 54.552497 0
M  V30 35 C 37.542139 38.107832 60.219548 0 CFG=2
M  V30 36 C 39.787423 29.075906 51.535728 0
M  V30 37 C 38.087519 37.402197 62.527194 0 CFG=1
M  V30 38 O 40.067577 30.202583 51.995885 0 CHG=-1
M  V30 39 N 37.733379 35.702865 60.912575 0 CFG=1 CHG=1
M  V30 40 H 35.603845 30.138414 59.099997 0
M  V30 41 H 36.735578 29.338087 60.167751 0
M  V30 42 H 34.727613 30.783254 60.860136 0
M  V30 43 H 37.912601 36.137768 64.172238 0
M  V30 44 H 39.469472 36.044978 63.363106 0
M  V30 45 H 38.854602 24.360604 55.055051 0
M  V30 46 H 39.379753 30.998772 54.263225 0
M  V30 47 H 37.707165 31.495217 54.395462 0
M  V30 48 H 34.812221 32.504511 58.487984 0
M  V30 49 H 37.627100 23.845816 57.183817 0
M  V30 50 H 36.471412 25.248084 56.890357 0
M  V30 51 H 36.916489 34.666567 62.167755 0
M  V30 52 H 38.610706 34.193742 62.171846 0
M  V30 53 H 37.246274 28.778180 58.165639 0
M  V30 54 H 37.069145 29.664991 56.685096 0
M  V30 55 H 38.880174 32.253905 60.127366 0
M  V30 56 H 37.568436 32.265094 61.193317 0
M  V30 57 H 39.876905 26.626404 54.743567 0
M  V30 58 H 40.040239 28.946575 54.318183 0
M  V30 59 H 39.335351 37.041180 60.967738 0
M  V30 60 H 37.757700 35.471317 58.967777 0
M  V30 61 H 39.930525 33.973565 58.878847 0
M  V30 62 H 40.247868 35.441921 59.767907 0
M  V30 63 H 40.011876 33.968062 60.622464 0
M  V30 64 H 39.647180 29.496838 56.402592 0
M  V30 65 H 39.714214 28.814655 57.961364 0
M  V30 66 H 38.753706 25.974649 58.611746 0
M  V30 67 H 35.425911 35.071689 58.066264 0
M  V30 68 H 36.686900 38.055624 63.722277 0
M  V30 69 H 35.784373 24.231513 54.702713 0
M  V30 70 H 36.930932 22.830848 54.982359 0
M  V30 71 H 39.994559 25.485704 56.773604 0
M  V30 72 H 40.994003 26.879565 57.122518 0
M  V30 73 H 37.969779 27.071373 56.855870 0
M  V30 74 H 39.921485 27.156931 52.435890 0
M  V30 75 H 38.295947 27.698701 52.120329 0
M  V30 76 H 37.877984 39.930332 61.368409 0
M  V30 77 H 39.185626 39.560040 60.239593 0
M  V30 78 H 37.645335 40.149709 59.653090 0
M  V30 79 H 37.236158 33.469437 58.413728 0
M  V30 80 H 36.846810 26.667427 54.801688 0
M  V30 81 H 37.788926 26.060431 53.476622 0
M  V30 82 H 36.467665 38.120497 60.415039 0
M  V30 83 H 38.845984 38.137531 62.788421 0
M  V30 84 H 36.741122 35.877484 60.847983 0
M  V30 END ATOM
M  V30 BEGIN BOND
M  V30 1 1 2 1
M  V30 2 1 7 6
M  V30 3 2 8 6
M  V30 4 1 10 4
M  V30 5 1 11 3
M  V30 6 1 15 6
M  V30 7 1 15 14
M  V30 8 1 18 17
M  V30 9 1 19 12
M  V30 10 1 20 9
M  V30 11 1 22 1
M  V30 12 1 22 13
M  V30 13 1 23 20
M  V30 14 1 26 4
M  V30 15 1 26 10
M  V30 16 1 27 21
M  V30 17 1 28 14
M  V30 18 1 28 19
M  V30 19 1 28 27
M  V30 20 2 29 5
M  V30 21 1 29 12
M  V30 22 1 29 22
M  V30 23 1 30 15
M  V30 24 1 32 13
M  V30 25 1 32 17
M  V30 26 1 32 20
M  V30 27 1 34 4
M  V30 28 1 34 14
M  V30 29 1 35 16
M  V30 30 1 35 25
M  V30 31 1 35 31
M  V30 32 1 36 30
M  V30 33 2 36 33
M  V30 34 1 37 3
M  V30 35 1 37 16
M  V30 36 1 37 24
M  V30 37 1 38 36
M  V30 38 1 39 11
M  V30 39 1 39 16
M  V30 40 1 39 17
M  V30 41 1 40 1
M  V30 42 1 41 1
M  V30 43 1 42 2
M  V30 44 1 43 3
M  V30 45 1 44 3
M  V30 46 1 45 4
M  V30 47 1 46 7
M  V30 48 1 47 7
M  V30 49 1 48 9
M  V30 50 1 49 10
M  V30 51 1 50 10
M  V30 52 1 51 11
M  V30 53 1 52 11
M  V30 54 1 53 12
M  V30 55 1 54 12
M  V30 56 1 55 13
M  V30 57 1 56 13
M  V30 58 1 14 57 CFG=1
M  V30 59 1 15 58 CFG=1
M  V30 60 1 16 59 CFG=3
M  V30 61 1 17 60 CFG=3
M  V30 62 1 61 18
M  V30 63 1 62 18
M  V30 64 1 63 18
M  V30 65 1 64 19
M  V30 66 1 65 19
M  V30 67 1 66 21
M  V30 68 1 67 23
M  V30 69 1 68 24
M  V30 70 1 69 26
M  V30 71 1 70 26
M  V30 72 1 71 27
M  V30 73 1 72 27
M  V30 74 1 28 73 CFG=1
M  V30 75 1 74 30
M  V30 76 1 75 30
M  V30 77 1 76 31
M  V30 78 1 77 31
M  V30 79 1 78 31
M  V30 80 1 32 79 CFG=3
M  V30 81 1 80 34
M  V30 82 1 81 34
M  V30 83 1 35 82 CFG=1
M  V30 84 1 37 83 CFG=1
M  V30 85 1 39 84 CFG=3
M  V30 END BOND
M  V30 END CTAB
M  END
>  <i_epik_Tot_Q>  (1) 
1

>  <i_epik_Tot_abs_Q>  (1) 
3

>  <i_i_glide_confnum>  (1) 
8429

>  <i_i_glide_lignum>  (1) 
222

>  <i_i_glide_posenum>  (1) 
82

>  <i_i_glide_rotatable_bonds>  (1) 
24

>  <i_lp_mmshare_version>  (1) 
72125

>  <i_m_source_file_index>  (1) 
94

>  <i_f3d_flags>  (1) 
0

>  <num_sample>  (1) 
100

>  <b_lp_Chiralities_Consistent>  (1) 
1

>  <r_epik_Charging_Adjusted_Penalty>  (1) 
0.90916677635763199

>  <r_epik_Ionization_Penalty>  (1) 
0.45507897092921873

>  <r_epik_Ionization_Penalty_Charging>  (1) 
0.45507471778648678

>  <r_epik_Ionization_Penalty_Neutral>  (1) 
4.2531427319391784e-06

>  <r_epik_State_Penalty>  (1) 
0.45409205857114521

>  <r_glide_ring_energy>  (1) 
0

>  <r_i_docking_score>  (1) 
-6.6767953623554988

>  <r_i_glide_ecoul>  (1) 
-8.4286301451989605

>  <r_i_glide_eff_state_penalty>  (1) 
0.45409205857114521

>  <r_i_glide_einternal>  (1) 
21.811085230368878

>  <r_i_glide_emodel>  (1) 
-36.971816755526497

>  <r_i_glide_emodel_strain>  (1) 
2.5612678740888413

>  <r_i_glide_energy>  (1) 
-26.683154515703691

>  <r_i_glide_erotb>  (1) 
0.82188833391367333

>  <r_i_glide_esite>  (1) 
-0.19357809549865701

>  <r_i_glide_evdw>  (1) 
-18.254524370504729

>  <r_i_glide_gscore>  (1) 
-7.1308874209266442

>  <r_i_glide_gscore_strain>  (1) 
0

>  <r_i_glide_hbond>  (1) 
-0.64086973218922727

>  <r_i_glide_ligand_efficiency>  (1) 
-0.17119988108603842

>  <r_i_glide_ligand_efficiency_ln>  (1) 
-1.4316944577963631

>  <r_i_glide_ligand_efficiency_sa>  (1) 
-0.58057499578163818

>  <r_i_glide_lipo>  (1) 
-3.3277906479471291

>  <r_i_glide_metal>  (1) 
-0

>  <r_i_glide_rewards>  (1) 
-1.6135165389002231

>  <r_lp_Energy>  (1) 
31.842893

>  <s_epik_Chemistry_Notes>  (1) 
This compound contains an acetal/aminal-like group ( X-CH(R)-Y where X, Y are N, S, or O) that may be acid/base labile, releasing an aldehyde.

>  <s_epik_cmdline>  (1) 
J2VwaWtfcHl0aG9uJywgJy1waHQnLCAnMS4wJywgJy1waCcsICc3LjQnLCAnLXRuJywgJzgnLCAnLW1hJywgJzUwMCcsICctaW1hZScsICc8aW5maWxlLm1hZT4nLCAnLW9tYWUnLCAnPG91dGZpbGUubWFlPic=

>  <s_epik_input>  (1) 
W0NIMl0xW0NIMl1bQ0hdMVtDSDJdW0NAQEhdKFtDQEBIXShDKD1PKVtOSDJdKVtDSDJdQyg9TylbT0hdKVtDQEBIXShbQ0gyXVtPSF0pW0NIMl1bQ0gyXUMoPU8pTihbQ0gyXVtPSF0pW0NIMl1bQ0BASF0oW1MrXShbT0hdKVtPSF0pW0NASF0oW0NIM10pTjJbQ0gyXVtDSDJdW0NASF0oW09IXSlbQ0BASF0yW0NASF0oRilbQ0gzXQ==

>  <s_glide_docking_method>  (1) 
confgen

>  <s_i_glide_gridfile>  (1) 
gpcr_5ht2c_6bqh_protein_autoprepared_prepared

>  <s_lp_Force_Field>  (1) 
S-OPLS

>  <s_lp_Variant>  (1) 
DiffSBDD_93-10

>  <s_m_source_file>  (1) 
generated_GPCR_5HT2C_ligand_DiffSBDD_2026-06-23_prepared.sdf

>  <GenAI_Model>  (1) 
DiffSBDD

>  <Protein>  (1) 
GPCR_5HT2C

$$$$
DiffSBDD_38
     RDKit          3D

  0  0  0  0  0  0  0  0  0  0999 V3000
M  V30 BEGIN CTAB
M  V30 COUNTS 45 47 0 0 1
M  V30 BEGIN ATOM
M  V30 1 C 36.517401 31.931247 59.863787 0
M  V30 2 C 40.035987 27.625638 56.448350 0
M  V30 3 C 39.664658 30.667304 54.004647 0
M  V30 4 C 39.911704 28.452130 58.740099 0
M  V30 5 C 40.901686 33.012307 63.692754 0
M  V30 6 O 38.585639 30.159884 60.600774 0
M  V30 7 C 41.581135 35.337750 63.403330 0
M  V30 8 C 38.215014 30.200245 59.426400 0
M  V30 9 C 38.356473 29.866955 53.999533 0
M  V30 10 C 37.265977 33.211704 60.207566 0
M  V30 11 C 39.150400 34.420476 60.577600 0 CFG=2
M  V30 12 C 38.844090 29.307327 58.381607 0
M  V30 13 C 38.462719 28.474003 54.645299 0
M  V30 14 N 37.245138 31.020034 58.982331 0
M  V30 15 C 40.504668 27.616178 57.774770 0
M  V30 16 S 37.798023 35.651681 60.893018 0
M  V30 17 O 38.627190 33.126940 60.150054 0
M  V30 18 C 40.775062 35.431769 62.251720 0
M  V30 19 C 36.730627 34.364811 60.548056 0
M  V30 20 C 38.372584 29.314478 57.043828 0
M  V30 21 C 41.645129 34.128828 64.122636 0
M  V30 22 C 40.027075 34.314944 61.819158 0
M  V30 23 C 40.092329 33.103615 62.543499 0
M  V30 24 C 38.970121 28.472858 56.079759 0
M  V30 25 H 36.237929 31.423506 60.788117 0
M  V30 26 H 35.583337 32.197470 59.367759 0
M  V30 27 H 40.493689 26.980697 55.712538 0
M  V30 28 H 39.523548 31.634382 53.522054 0
M  V30 29 H 40.022466 30.854564 55.017455 0
M  V30 30 H 40.445137 30.137756 53.461175 0
M  V30 31 H 40.276441 28.438843 59.757396 0
M  V30 32 H 40.950809 32.085603 64.245722 0
M  V30 33 H 42.151929 36.193303 63.734602 0
M  V30 34 H 38.033832 29.737751 52.967765 0
M  V30 35 H 37.576491 30.449853 54.490960 0
M  V30 36 H 39.774804 34.797810 59.767883 0
M  V30 37 H 39.115510 27.849822 54.033764 0
M  V30 38 H 37.485080 27.991094 54.628819 0
M  V30 39 H 36.986503 31.006786 58.002923 0
M  V30 40 H 41.320981 26.965153 58.053252 0
M  V30 41 H 40.728273 36.360380 61.701132 0
M  V30 42 H 35.666603 34.535916 60.622186 0
M  V30 43 H 37.555098 29.959062 56.756268 0
M  V30 44 H 42.264466 34.058023 65.004769 0
M  V30 45 H 39.521977 32.245373 62.218821 0
M  V30 END ATOM
M  V30 BEGIN BOND
M  V30 1 2 8 6
M  V30 2 1 9 3
M  V30 3 1 10 1
M  V30 4 2 12 4
M  V30 5 1 12 8
M  V30 6 1 13 9
M  V30 7 1 14 1
M  V30 8 1 14 8
M  V30 9 2 15 2
M  V30 10 1 15 4
M  V30 11 1 16 11
M  V30 12 1 17 10
M  V30 13 1 17 11
M  V30 14 2 18 7
M  V30 15 2 19 10
M  V30 16 1 19 16
M  V30 17 1 20 12
M  V30 18 2 21 5
M  V30 19 1 21 7
M  V30 20 1 22 11
M  V30 21 1 22 18
M  V30 22 1 23 5
M  V30 23 2 23 22
M  V30 24 1 24 2
M  V30 25 1 24 13
M  V30 26 2 24 20
M  V30 27 1 25 1
M  V30 28 1 26 1
M  V30 29 1 27 2
M  V30 30 1 28 3
M  V30 31 1 29 3
M  V30 32 1 30 3
M  V30 33 1 31 4
M  V30 34 1 32 5
M  V30 35 1 33 7
M  V30 36 1 34 9
M  V30 37 1 35 9
M  V30 38 1 11 36 CFG=3
M  V30 39 1 37 13
M  V30 40 1 38 13
M  V30 41 1 39 14
M  V30 42 1 40 15
M  V30 43 1 41 18
M  V30 44 1 42 19
M  V30 45 1 43 20
M  V30 46 1 44 21
M  V30 47 1 45 23
M  V30 END BOND
M  V30 END CTAB
M  END
>  <i_epik_Tot_Q>  (1) 
0

>  <i_epik_Tot_abs_Q>  (1) 
0

>  <i_i_glide_confnum>  (1) 
14

>  <i_i_glide_lignum>  (1) 
85

>  <i_i_glide_posenum>  (1) 
156

>  <i_i_glide_rotatable_bonds>  (1) 
7

>  <i_lp_mmshare_version>  (1) 
72125

>  <i_m_source_file_index>  (1) 
39

>  <i_f3d_flags>  (1) 
0

>  <num_sample>  (1) 
100

>  <b_lp_Chiralities_Consistent>  (1) 
1

>  <r_epik_Charging_Adjusted_Penalty>  (1) 
0

>  <r_epik_Ionization_Penalty>  (1) 
2.537030552391147e-06

>  <r_epik_Ionization_Penalty_Charging>  (1) 
0

>  <r_epik_Ionization_Penalty_Neutral>  (1) 
2.537030552391147e-06

>  <r_epik_State_Penalty>  (1) 
-0

>  <r_glide_ring_energy>  (1) 
0

>  <r_i_docking_score>  (1) 
-6.6764609367167509

>  <r_i_glide_ecoul>  (1) 
-3.019291243955903

>  <r_i_glide_eff_state_penalty>  (1) 
-0

>  <r_i_glide_einternal>  (1) 
2.441870289786034

>  <r_i_glide_emodel>  (1) 
-58.783192567041212

>  <r_i_glide_emodel_strain>  (1) 
0.1988899350750728

>  <r_i_glide_energy>  (1) 
-42.184303306591346

>  <r_i_glide_erotb>  (1) 
0.98539345027443515

>  <r_i_glide_esite>  (1) 
-0.09434234582488904

>  <r_i_glide_evdw>  (1) 
-39.165012062635441

>  <r_i_glide_gscore>  (1) 
-6.6764609367167509

>  <r_i_glide_gscore_strain>  (1) 
0

>  <r_i_glide_hbond>  (1) 
0

>  <r_i_glide_ligand_efficiency>  (1) 
-0.27818587236319797

>  <r_i_glide_ligand_efficiency_ln>  (1) 
-1.5979834649858353

>  <r_i_glide_ligand_efficiency_sa>  (1) 
-0.8024269097628276

>  <r_i_glide_lipo>  (1) 
-3.3477541171324985

>  <r_i_glide_metal>  (1) 
-0

>  <r_i_glide_rewards>  (1) 
-1.8086136343086403

>  <r_lp_Energy>  (1) 
12.828882

>  <r_lp_tautomer_probability>  (1) 
1

>  <s_epik_Chemistry_Notes>  (1) 
This compound contains an acetal/aminal-like group ( X-CH(R)-Y where X, Y are N, S, or O) that may be acid/base labile, releasing an aldehyde.

>  <s_epik_cmdline>  (1) 
J2VwaWtfcHl0aG9uJywgJy1waHQnLCAnMS4wJywgJy1waCcsICc3LjQnLCAnLXRuJywgJzgnLCAnLW1hJywgJzUwMCcsICctaW1hZScsICc8aW5maWxlLm1hZT4nLCAnLW9tYWUnLCAnPG91dGZpbGUubWFlPic=

>  <s_epik_input>  (1) 
W2NIXTFbY0hdW2NIXVtjSF1bY0hdYzFbQ0BASF0oTzIpU1tDSF09QzJbQ0gyXVtOSF1DKD1PKWMzW2NIXVtjSF1bY0hdYyhbY0hdMylbQ0gyXVtDSDJdW0NIM10=

>  <s_glide_docking_method>  (1) 
confgen

>  <s_i_glide_gridfile>  (1) 
gpcr_5ht2c_6bqh_protein_autoprepared_prepared

>  <s_lp_Force_Field>  (1) 
S-OPLS

>  <s_lp_Variant>  (1) 
DiffSBDD_38-1

>  <s_m_source_file>  (1) 
generated_GPCR_5HT2C_ligand_DiffSBDD_2026-06-23_prepared.sdf

>  <GenAI_Model>  (1) 
DiffSBDD

>  <Protein>  (1) 
GPCR_5HT2C

$$$$
DiffSBDD_74
     RDKit          3D

  0  0  0  0  0  0  0  0  0  0999 V3000
M  V30 BEGIN CTAB
M  V30 COUNTS 70 72 0 0 1
M  V30 BEGIN ATOM
M  V30 1 C 38.396841 32.765287 59.683166 0
M  V30 2 C 39.311712 29.127290 60.283942 0
M  V30 3 C 41.391539 30.722172 63.082011 0
M  V30 4 F 38.045563 32.848710 54.723581 0
M  V30 5 C 40.182108 29.300838 61.295102 0
M  V30 6 C 39.010786 30.781364 54.191343 0
M  V30 7 C 39.644137 31.125094 52.977007 0
M  V30 8 C 38.589705 27.065905 53.748095 0
M  V30 9 O 36.845208 25.030168 54.587899 0
M  V30 10 F 41.845469 30.376741 65.371904 0
M  V30 11 F 39.895899 31.173056 64.852018 0
M  V30 12 C 40.533306 28.179556 57.639246 0
M  V30 13 F 38.038864 31.345113 56.279586 0
M  V30 14 C 38.381589 34.137563 60.374138 0
M  V30 15 C 39.514601 31.597849 61.683163 0
M  V30 16 N 39.087915 26.758830 55.088704 0
M  V30 17 C 37.307324 25.278813 55.886805 0 CFG=1
M  V30 18 C 38.255245 24.136419 56.046493 0
M  V30 19 C 38.413685 30.242612 59.783503 0
M  V30 20 C 38.933144 28.472659 53.461654 0
M  V30 21 N 39.189494 27.841878 58.117803 0
M  V30 22 F 39.865854 32.291641 55.762056 0
M  V30 23 C 38.671155 26.579654 57.560338 0 CFG=1
M  V30 24 C 38.407089 31.538358 60.630839 0 CFG=2
M  V30 25 C 38.057983 26.602462 56.120997 0 CFG=1
M  V30 26 C 39.611323 25.372111 57.723753 0
M  V30 27 C 39.916893 30.141057 52.007779 0
M  V30 28 F 42.403518 29.893536 62.841272 0
M  V30 29 F 41.872740 31.967403 63.114611 0
M  V30 30 O 37.164725 31.574743 61.311994 0
M  V30 31 C 39.149417 27.797248 59.586977 0
M  V30 32 C 38.726748 31.840268 55.253813 0
M  V30 33 C 38.650633 29.459938 54.420943 0
M  V30 34 C 40.327736 30.565869 61.996442 0
M  V30 35 C 40.861374 30.340700 64.473939 0
M  V30 36 C 39.561654 28.812853 52.251117 0
M  V30 37 C 38.866705 24.078566 57.429601 0
M  V30 38 H 39.246011 32.720970 59.002373 0
M  V30 39 H 37.519818 32.696528 59.035180 0
M  V30 40 H 40.791787 28.460111 61.604646 0
M  V30 41 H 39.906379 32.137663 52.784504 0
M  V30 42 H 39.006326 26.392328 52.997648 0
M  V30 43 H 37.502364 27.050353 53.675136 0
M  V30 44 H 37.586990 25.108465 54.012087 0
M  V30 45 H 40.621499 28.127377 56.557996 0
M  V30 46 H 40.820801 29.186593 57.936285 0
M  V30 47 H 41.267743 27.488000 58.047740 0
M  V30 48 H 38.115276 34.920106 59.669641 0
M  V30 49 H 37.651085 34.185426 61.177587 0
M  V30 50 H 39.357596 34.379089 60.788030 0
M  V30 51 H 39.619516 32.531501 62.210119 0
M  V30 52 H 39.691091 25.944821 55.080444 0
M  V30 53 H 36.468929 25.194987 56.576818 0
M  V30 54 H 39.038076 24.174683 55.291653 0
M  V30 55 H 37.633189 23.302172 55.815286 0
M  V30 56 H 37.402428 29.849302 59.675548 0
M  V30 57 H 38.740222 30.455558 58.763933 0
M  V30 58 H 37.797794 26.348112 58.168325 0
M  V30 59 H 37.330577 27.410284 56.063633 0
M  V30 60 H 40.453569 25.464118 57.047244 0
M  V30 61 H 40.044364 25.339723 58.713721 0
M  V30 62 H 40.400578 30.411057 51.081368 0
M  V30 63 H 36.495927 31.750376 60.665258 0
M  V30 64 H 39.896141 27.100441 59.958275 0
M  V30 65 H 38.186487 27.431305 59.933184 0
M  V30 66 H 38.166684 29.192459 55.346182 0
M  V30 67 H 40.448240 29.331055 64.492145 0
M  V30 68 H 39.780695 28.049339 51.519714 0
M  V30 69 H 39.558881 23.245166 57.499840 0
M  V30 70 H 38.080867 23.912148 58.166783 0
M  V30 END ATOM
M  V30 BEGIN BOND
M  V30 1 2 5 2
M  V30 2 2 7 6
M  V30 3 1 14 1
M  V30 4 1 16 8
M  V30 5 1 17 9
M  V30 6 1 18 17
M  V30 7 1 19 2
M  V30 8 1 20 8
M  V30 9 1 21 12
M  V30 10 1 23 21
M  V30 11 1 24 1
M  V30 12 1 24 15
M  V30 13 1 24 19
M  V30 14 1 25 16
M  V30 15 1 25 17
M  V30 16 1 25 23
M  V30 17 1 26 23
M  V30 18 1 27 7
M  V30 19 1 28 3
M  V30 20 1 29 3
M  V30 21 1 24 30 CFG=1
M  V30 22 1 31 2
M  V30 23 1 31 21
M  V30 24 1 32 4
M  V30 25 1 32 6
M  V30 26 1 32 13
M  V30 27 1 32 22
M  V30 28 1 33 6
M  V30 29 2 33 20
M  V30 30 1 34 3
M  V30 31 1 34 5
M  V30 32 2 34 15
M  V30 33 1 35 3
M  V30 34 1 35 10
M  V30 35 1 35 11
M  V30 36 1 36 20
M  V30 37 2 36 27
M  V30 38 1 37 18
M  V30 39 1 37 26
M  V30 40 1 38 1
M  V30 41 1 39 1
M  V30 42 1 40 5
M  V30 43 1 41 7
M  V30 44 1 42 8
M  V30 45 1 43 8
M  V30 46 1 44 9
M  V30 47 1 45 12
M  V30 48 1 46 12
M  V30 49 1 47 12
M  V30 50 1 48 14
M  V30 51 1 49 14
M  V30 52 1 50 14
M  V30 53 1 51 15
M  V30 54 1 52 16
M  V30 55 1 17 53 CFG=1
M  V30 56 1 54 18
M  V30 57 1 55 18
M  V30 58 1 56 19
M  V30 59 1 57 19
M  V30 60 1 23 58 CFG=1
M  V30 61 1 25 59 CFG=1
M  V30 62 1 60 26
M  V30 63 1 61 26
M  V30 64 1 62 27
M  V30 65 1 63 30
M  V30 66 1 64 31
M  V30 67 1 65 31
M  V30 68 1 66 33
M  V30 69 1 67 35
M  V30 70 1 68 36
M  V30 71 1 69 37
M  V30 72 1 70 37
M  V30 END BOND
M  V30 END CTAB
M  END
>  <i_epik_Tot_Q>  (1) 
0

>  <i_epik_Tot_abs_Q>  (1) 
0

>  <i_i_glide_confnum>  (1) 
341

>  <i_i_glide_lignum>  (1) 
163

>  <i_i_glide_posenum>  (1) 
176

>  <i_i_glide_rotatable_bonds>  (1) 
12

>  <i_lp_mmshare_version>  (1) 
72125

>  <i_m_source_file_index>  (1) 
75

>  <i_f3d_flags>  (1) 
0

>  <num_sample>  (1) 
100

>  <b_lp_Chiralities_Consistent>  (1) 
1

>  <r_epik_Charging_Adjusted_Penalty>  (1) 
0.95016653891127834

>  <r_epik_Ionization_Penalty>  (1) 
0.98731077050132976

>  <r_epik_Ionization_Penalty_Charging>  (1) 
0

>  <r_epik_Ionization_Penalty_Neutral>  (1) 
0.98731077050132976

>  <r_epik_State_Penalty>  (1) 
0.95016653891127834

>  <r_glide_ring_energy>  (1) 
0

>  <r_i_docking_score>  (1) 
-6.6731327154336446

>  <r_i_glide_ecoul>  (1) 
-3.9715371882759998

>  <r_i_glide_eff_state_penalty>  (1) 
0.95016653891127834

>  <r_i_glide_einternal>  (1) 
18.082756209324462

>  <r_i_glide_emodel>  (1) 
-39.977535704284037

>  <r_i_glide_emodel_strain>  (1) 
0.35230477437946206

>  <r_i_glide_energy>  (1) 
-32.78172600864562

>  <r_i_glide_erotb>  (1) 
0.49869770839919392

>  <r_i_glide_esite>  (1) 
-0.20911355902511472

>  <r_i_glide_evdw>  (1) 
-28.810188820369618

>  <r_i_glide_gscore>  (1) 
-7.6232992543449232

>  <r_i_glide_gscore_strain>  (1) 
0

>  <r_i_glide_hbond>  (1) 
-0.22328619859932289

>  <r_i_glide_ligand_efficiency>  (1) 
-0.18035493825496338

>  <r_i_glide_ligand_efficiency_ln>  (1) 
-1.4472460455507876

>  <r_i_glide_ligand_efficiency_sa>  (1) 
-0.60098266630544572

>  <r_i_glide_lipo>  (1) 
-4.5448768700186584

>  <r_i_glide_metal>  (1) 
-0

>  <r_i_glide_rewards>  (1) 
-1.1084803158411407

>  <r_lp_Energy>  (1) 
51.967185000000001

>  <s_epik_cmdline>  (1) 
J2VwaWtfcHl0aG9uJywgJy1waHQnLCAnMS4wJywgJy1waCcsICc3LjQnLCAnLXRuJywgJzgnLCAnLW1hJywgJzUwMCcsICctaW1hZScsICc8aW5maWxlLm1hZT4nLCAnLW9tYWUnLCAnPG91dGZpbGUubWFlPic=

>  <s_epik_input>  (1) 
W0NIM11bQ0gyXVtDQF0xKFtPSF0pW0NIXT1DKEMoRikoRilbQ0hdKEYpRilbQ0hdPUMoW0NIMl0xKVtDSDJdTihbQ0gzXSlbQ0BIXShbQ0gyXVtDSDJdW0NIMl1bQ0BASF0yW09IXSlbQ0BIXTJbTkhdW0NIMl1jKFtjSF0zKVtjSF1bY0hdW2NIXWMzQyhGKShGKUY=

>  <s_glide_docking_method>  (1) 
confgen

>  <s_i_glide_gridfile>  (1) 
gpcr_5ht2c_6bqh_protein_autoprepared_prepared

>  <s_lp_Force_Field>  (1) 
S-OPLS

>  <s_lp_Variant>  (1) 
DiffSBDD_74-2

>  <s_m_source_file>  (1) 
generated_GPCR_5HT2C_ligand_DiffSBDD_2026-06-23_prepared.sdf

>  <GenAI_Model>  (1) 
DiffSBDD

>  <Protein>  (1) 
GPCR_5HT2C

$$$$
DiffSBDD_64
     RDKit          3D

  0  0  0  0  0  0  0  0  0  0999 V3000
M  V30 BEGIN CTAB
M  V30 COUNTS 77 80 0 0 1
M  V30 BEGIN ATOM
M  V30 1 C 42.449215 33.151356 65.627730 0
M  V30 2 C 39.374171 35.438798 62.460626 0
M  V30 3 C 39.077986 34.116258 61.721458 0 CFG=1
M  V30 4 C 37.106486 35.145825 60.436608 0
M  V30 5 N 40.409353 35.366398 63.509179 0 CHG=1
M  V30 6 C 40.059905 30.761411 64.583221 0
M  V30 7 C 39.791251 27.392109 56.695601 0
M  V30 8 N 41.801531 34.300620 65.019335 0
M  V30 9 O 39.764428 27.523574 59.061173 0
M  V30 10 C 36.254983 35.051742 59.398970 0
M  V30 11 C 37.597874 30.910726 58.782036 0
M  V30 12 C 39.091808 28.147891 52.381164 0
M  V30 13 O 37.690849 29.970925 56.561064 0
M  V30 14 C 40.916987 34.210318 64.000812 0
M  V30 15 O 43.245495 33.336087 66.548223 0
M  V30 16 O 42.768085 30.803427 65.564962 0 CHG=-1
M  V30 17 C 39.212249 28.142417 57.918169 0 CFG=1
M  V30 18 C 40.531198 32.974092 63.459298 0
M  V30 19 C 39.686290 32.906415 62.414815 0
M  V30 20 C 39.606544 29.636686 57.954367 0
M  V30 21 C 36.845115 29.685454 54.395608 0
M  V30 22 C 39.152926 27.655482 55.315596 0
M  V30 23 C 38.502205 30.625111 57.538573 0 CFG=2
M  V30 24 F 40.182770 29.485610 49.145597 0
M  V30 25 C 37.571141 33.963766 61.300550 0 CFG=1
M  V30 26 C 40.045228 30.374898 52.695333 0
M  V30 27 N 42.152962 31.920888 65.116511 0
M  V30 28 C 38.073515 30.009487 55.187742 0 CFG=2
M  V30 29 C 38.013020 32.181793 59.537241 0
M  V30 30 C 39.101583 31.937577 56.939061 0
M  V30 31 C 40.285816 30.463182 51.313556 0
M  V30 32 C 39.937084 29.399107 50.468824 0
M  V30 33 C 39.331785 28.243999 50.998867 0
M  V30 34 C 41.134786 31.753085 64.080558 0 CFG=1
M  V30 35 C 37.189729 32.554414 60.768354 0
M  V30 36 C 39.250761 29.107210 54.762943 0 CFG=2
M  V30 37 C 39.462698 29.213038 53.238879 0
M  V30 38 H 39.654351 36.211172 61.743538 0
M  V30 39 H 38.469096 35.800230 62.952686 0
M  V30 40 H 39.637907 34.174477 60.786235 0
M  V30 41 H 37.501548 36.115882 60.699483 0
M  V30 42 H 39.265605 30.569107 63.860801 0
M  V30 43 H 40.502602 29.788569 64.799424 0
M  V30 44 H 39.617090 31.113748 65.512778 0
M  V30 45 H 40.867835 27.565596 56.628508 0
M  V30 46 H 39.690939 26.321393 56.882041 0
M  V30 47 H 41.985998 35.239401 65.334847 0
M  V30 48 H 40.708144 27.565423 59.010934 0
M  V30 49 H 35.970516 35.930204 58.838782 0
M  V30 50 H 35.833094 34.104789 59.096979 0
M  V30 51 H 36.550868 31.012885 58.508855 0
M  V30 52 H 37.603845 30.057752 59.461419 0
M  V30 53 H 38.632193 27.257953 52.782290 0
M  V30 54 H 38.131299 28.013143 57.981319 0
M  V30 55 H 39.427958 31.938865 62.014135 0
M  V30 56 H 39.976262 29.910696 58.942858 0
M  V30 57 H 40.445231 29.763995 57.293683 0
M  V30 58 H 37.151810 29.736399 53.367780 0
M  V30 59 H 36.460953 28.683783 54.567636 0
M  V30 60 H 36.054641 30.419159 54.571975 0
M  V30 61 H 39.708511 26.987792 54.656933 0
M  V30 62 H 38.123953 27.298294 55.293017 0
M  V30 63 H 36.941609 34.077549 62.167758 0
M  V30 64 H 40.326867 31.191523 53.343323 0
M  V30 65 H 38.284642 31.023809 54.855658 0
M  V30 66 H 39.066620 32.095684 59.803718 0
M  V30 67 H 37.924492 33.025757 58.859556 0
M  V30 68 H 39.642266 32.544748 57.657098 0
M  V30 69 H 39.825809 31.752425 56.145918 0
M  V30 70 H 38.306446 32.568677 56.538067 0
M  V30 71 H 40.747376 31.345071 50.902144 0
M  V30 72 H 39.056281 27.429111 50.343990 0
M  V30 73 H 41.658559 31.263012 63.256907 0
M  V30 74 H 36.124661 32.511878 60.537432 0
M  V30 75 H 37.325859 31.802086 61.545495 0
M  V30 76 H 40.166302 29.531642 55.166867 0
M  V30 77 H 40.725803 36.244691 63.900142 0
M  V30 END ATOM
M  V30 BEGIN BOND
M  V30 1 1 3 2
M  V30 2 1 5 2
M  V30 3 1 8 1
M  V30 4 2 10 4
M  V30 5 2 14 5
M  V30 6 1 14 8
M  V30 7 2 15 1
M  V30 8 1 17 7
M  V30 9 1 17 9
M  V30 10 1 18 14
M  V30 11 1 19 3
M  V30 12 2 19 18
M  V30 13 1 20 17
M  V30 14 1 22 7
M  V30 15 1 23 11 CFG=1
M  V30 16 1 23 13
M  V30 17 1 23 20
M  V30 18 1 25 3
M  V30 19 1 25 4
M  V30 20 1 27 1
M  V30 21 1 27 16
M  V30 22 1 28 13
M  V30 23 1 28 21
M  V30 24 1 29 11
M  V30 25 1 30 23
M  V30 26 2 31 26
M  V30 27 1 32 24
M  V30 28 1 32 31
M  V30 29 1 33 12
M  V30 30 2 33 32
M  V30 31 1 34 6
M  V30 32 1 34 18
M  V30 33 1 34 27
M  V30 34 1 35 25
M  V30 35 1 35 29
M  V30 36 1 36 22
M  V30 37 1 36 28
M  V30 38 2 37 12
M  V30 39 1 37 26
M  V30 40 1 37 36
M  V30 41 1 38 2
M  V30 42 1 39 2
M  V30 43 1 3 40 CFG=3
M  V30 44 1 41 4
M  V30 45 1 42 6
M  V30 46 1 43 6
M  V30 47 1 44 6
M  V30 48 1 45 7
M  V30 49 1 46 7
M  V30 50 1 47 8
M  V30 51 1 48 9
M  V30 52 1 49 10
M  V30 53 1 50 10
M  V30 54 1 51 11
M  V30 55 1 52 11
M  V30 56 1 53 12
M  V30 57 1 17 54 CFG=1
M  V30 58 1 55 19
M  V30 59 1 56 20
M  V30 60 1 57 20
M  V30 61 1 58 21
M  V30 62 1 59 21
M  V30 63 1 60 21
M  V30 64 1 61 22
M  V30 65 1 62 22
M  V30 66 1 25 63 CFG=1
M  V30 67 1 64 26
M  V30 68 1 28 65 CFG=3
M  V30 69 1 66 29
M  V30 70 1 67 29
M  V30 71 1 68 30
M  V30 72 1 69 30
M  V30 73 1 70 30
M  V30 74 1 71 31
M  V30 75 1 72 33
M  V30 76 1 34 73 CFG=3
M  V30 77 1 74 35
M  V30 78 1 75 35
M  V30 79 1 36 76 CFG=1
M  V30 80 1 77 5
M  V30 END BOND
M  V30 END CTAB
M  END
>  <i_epik_Tot_Q>  (1) 
0

>  <i_epik_Tot_abs_Q>  (1) 
2

>  <i_i_glide_confnum>  (1) 
241

>  <i_i_glide_lignum>  (1) 
144

>  <i_i_glide_posenum>  (1) 
29

>  <i_i_glide_rotatable_bonds>  (1) 
8

>  <i_lp_mmshare_version>  (1) 
72125

>  <i_m_source_file_index>  (1) 
65

>  <i_f3d_flags>  (1) 
0

>  <num_sample>  (1) 
100

>  <b_lp_Chiralities_Consistent>  (1) 
1

>  <r_epik_Charging_Adjusted_Penalty>  (1) 
0.059234021973178383

>  <r_epik_Ionization_Penalty>  (1) 
0.05923416388853827

>  <r_epik_Ionization_Penalty_Charging>  (1) 
0.059234021973178383

>  <r_epik_Ionization_Penalty_Neutral>  (1) 
1.4191535988443934e-07

>  <r_epik_State_Penalty>  (1) 
-0

>  <r_glide_ring_energy>  (1) 
0.4351030857825357

>  <r_i_docking_score>  (1) 
-6.6688988919887002

>  <r_i_glide_ecoul>  (1) 
-2.1908594499266889

>  <r_i_glide_eff_state_penalty>  (1) 
-0

>  <r_i_glide_einternal>  (1) 
6.5521790335665013

>  <r_i_glide_emodel>  (1) 
-47.227785229624516

>  <r_i_glide_emodel_strain>  (1) 
1.0201810875238948

>  <r_i_glide_energy>  (1) 
-37.335561463474406

>  <r_i_glide_erotb>  (1) 
0.54408064829906078

>  <r_i_glide_esite>  (1) 
0

>  <r_i_glide_evdw>  (1) 
-35.144702013547715

>  <r_i_glide_gscore>  (1) 
-6.6688988919887002

>  <r_i_glide_gscore_strain>  (1) 
0

>  <r_i_glide_hbond>  (1) 
0

>  <r_i_glide_ligand_efficiency>  (1) 
-0.18024051059428919

>  <r_i_glide_ligand_efficiency_ln>  (1) 
-1.446327828500483

>  <r_i_glide_ligand_efficiency_sa>  (1) 
-0.60060136795411445

>  <r_i_glide_lipo>  (1) 
-3.5162323571888479

>  <r_i_glide_metal>  (1) 
-0

>  <r_i_glide_rewards>  (1) 
-1.6108831649325237

>  <r_lp_Energy>  (1) 
55.422177999999995

>  <r_lp_tautomer_probability>  (1) 
1

>  <s_epik_Chemistry_Notes>  (1) 
This compound has an imine and may undergo hydrolysis.

>  <s_epik_cmdline>  (1) 
J2VwaWtfcHl0aG9uJywgJy1waHQnLCAnMS4wJywgJy1waCcsICc3LjQnLCAnLXRuJywgJzgnLCAnLW1hJywgJzUwMCcsICctaW1hZScsICc8aW5maWxlLm1hZT4nLCAnLW9tYWUnLCAnPG91dGZpbGUubWFlPic=

>  <s_epik_input>  (1) 
W05IXTFDKD1PKU4oW09IXSlbQ0BASF0oW0NIM10pQyhDMTIpPVtDSF1bQ0BASF0oW0NIMl1OPTIpW0NAQEhdKFtDSF09W0NIMl0pW0NIMl1bQ0gyXVtDSDJdW0NAXTMoW0NIM10pT1tDQEhdKFtDSDNdKVtDQEBIXShbQ0gyXVtDSDJdW0NAQEhdKFtPSF0pW0NIMl0zKWMoW2NIXVtjSF00KVtjSF1bY0hdYzRG

>  <s_glide_docking_method>  (1) 
confgen

>  <s_i_glide_gridfile>  (1) 
gpcr_5ht2c_6bqh_protein_autoprepared_prepared

>  <s_lp_Force_Field>  (1) 
S-OPLS

>  <s_lp_Variant>  (1) 
DiffSBDD_64-2

>  <s_m_source_file>  (1) 
generated_GPCR_5HT2C_ligand_DiffSBDD_2026-06-23_prepared.sdf

>  <GenAI_Model>  (1) 
DiffSBDD

>  <Protein>  (1) 
GPCR_5HT2C

$$$$
DiffSBDD_30
     RDKit          3D

  0  0  0  0  0  0  0  0  0  0999 V3000
M  V30 BEGIN CTAB
M  V30 COUNTS 35 36 0 0 1
M  V30 BEGIN ATOM
M  V30 1 C 39.303274 29.123644 53.294411 0
M  V30 2 N 39.539151 29.199734 51.884168 0
M  V30 3 C 38.480965 27.861772 55.320761 0
M  V30 4 C 39.795911 30.278094 54.115903 0
M  V30 5 C 39.823633 30.444492 51.280188 0
M  V30 6 C 38.863548 28.206407 58.524847 0
M  V30 7 C 38.098309 28.885141 56.212219 0
M  V30 8 C 38.501562 26.447253 55.792556 0
M  V30 9 C 38.757974 28.033184 53.872442 0
M  V30 10 C 40.119898 30.635362 49.981650 0
M  V30 11 N 39.072346 26.265492 57.016101 0
M  V30 12 C 37.675510 28.536709 57.643670 0
M  V30 13 C 37.973814 30.304319 55.805653 0
M  V30 14 O 38.072457 25.496655 55.140959 0
M  V30 15 C 38.695467 30.913253 54.858733 0
M  V30 16 C 39.804444 27.294594 57.760619 0
M  V30 17 C 39.419971 27.997948 51.050676 0
M  V30 18 H 40.431607 29.820210 54.876426 0
M  V30 19 H 40.499677 30.997341 53.707572 0
M  V30 20 H 39.778350 31.281792 51.947107 0
M  V30 21 H 39.388864 29.117563 58.817726 0
M  V30 22 H 38.519351 27.724458 59.441797 0
M  V30 23 H 38.503358 27.203969 53.233944 0
M  V30 24 H 40.166282 29.814984 49.285059 0
M  V30 25 H 40.319391 31.626671 49.602837 0
M  V30 26 H 39.095335 25.328918 57.389833 0
M  V30 27 H 37.141068 29.382982 58.076542 0
M  V30 28 H 36.947936 27.723747 57.659477 0
M  V30 29 H 37.245142 30.906964 56.330844 0
M  V30 30 H 38.515051 31.958172 54.646584 0
M  V30 31 H 40.478788 26.802491 58.461112 0
M  V30 32 H 40.457422 27.863637 57.094159 0
M  V30 33 H 38.403623 27.898212 50.675411 0
M  V30 34 H 39.673758 27.086746 51.588725 0
M  V30 35 H 40.098703 28.004293 50.200836 0
M  V30 END ATOM
M  V30 BEGIN BOND
M  V30 1 1 2 1
M  V30 2 1 4 1
M  V30 3 1 5 2
M  V30 4 2 7 3
M  V30 5 1 8 3
M  V30 6 2 9 1
M  V30 7 1 9 3
M  V30 8 2 10 5
M  V30 9 1 11 8
M  V30 10 1 12 6
M  V30 11 1 12 7
M  V30 12 1 13 7
M  V30 13 2 14 8
M  V30 14 1 15 4
M  V30 15 2 15 13
M  V30 16 1 16 6
M  V30 17 1 16 11
M  V30 18 1 17 2
M  V30 19 1 18 4
M  V30 20 1 19 4
M  V30 21 1 20 5
M  V30 22 1 21 6
M  V30 23 1 22 6
M  V30 24 1 23 9
M  V30 25 1 24 10
M  V30 26 1 25 10
M  V30 27 1 26 11
M  V30 28 1 27 12
M  V30 29 1 28 12
M  V30 30 1 29 13
M  V30 31 1 30 15
M  V30 32 1 31 16
M  V30 33 1 32 16
M  V30 34 1 33 17
M  V30 35 1 34 17
M  V30 36 1 35 17
M  V30 END BOND
M  V30 END CTAB
M  END
>  <i_epik_Tot_Q>  (1) 
0

>  <i_epik_Tot_abs_Q>  (1) 
0

>  <i_i_glide_confnum>  (1) 
1

>  <i_i_glide_lignum>  (1) 
72

>  <i_i_glide_posenum>  (1) 
271

>  <i_i_glide_rotatable_bonds>  (1) 
2

>  <i_lp_mmshare_version>  (1) 
72125

>  <i_m_source_file_index>  (1) 
31

>  <i_f3d_flags>  (1) 
0

>  <num_sample>  (1) 
100

>  <b_lp_Chiralities_Consistent>  (1) 
1

>  <r_epik_Charging_Adjusted_Penalty>  (1) 
0.00013572112653438843

>  <r_epik_Ionization_Penalty>  (1) 
0.00014669493665376082

>  <r_epik_Ionization_Penalty_Charging>  (1) 
0.00013572112653438843

>  <r_epik_Ionization_Penalty_Neutral>  (1) 
1.0973810119372391e-05

>  <r_epik_State_Penalty>  (1) 
-0

>  <r_glide_ring_energy>  (1) 
0

>  <r_i_docking_score>  (1) 
-6.6673598204094837

>  <r_i_glide_ecoul>  (1) 
-1.3681377042351401

>  <r_i_glide_eff_state_penalty>  (1) 
-0

>  <r_i_glide_einternal>  (1) 
6.8862086137189458

>  <r_i_glide_emodel>  (1) 
-37.051578500404027

>  <r_i_glide_emodel_strain>  (1) 
0

>  <r_i_glide_energy>  (1) 
-28.948688562448158

>  <r_i_glide_erotb>  (1) 
0.32205052680496415

>  <r_i_glide_esite>  (1) 
0

>  <r_i_glide_evdw>  (1) 
-27.580550858213019

>  <r_i_glide_gscore>  (1) 
-6.6673598204094837

>  <r_i_glide_gscore_strain>  (1) 
0

>  <r_i_glide_hbond>  (1) 
0

>  <r_i_glide_ligand_efficiency>  (1) 
-0.39219763649467554

>  <r_i_glide_ligand_efficiency_ln>  (1) 
-1.7393657023415869

>  <r_i_glide_ligand_efficiency_sa>  (1) 
-1.0084505626184297

>  <r_i_glide_lipo>  (1) 
-2.3848531229540186

>  <r_i_glide_metal>  (1) 
-0

>  <r_i_glide_rewards>  (1) 
-3.020309025714508

>  <r_lp_Energy>  (1) 
36.162458999999998

>  <r_lp_tautomer_probability>  (1) 
1

>  <s_epik_Chemistry_Notes>  (1) 
This compound has an imine and may undergo hydrolysis.

>  <s_epik_cmdline>  (1) 
J2VwaWtfcHl0aG9uJywgJy1waHQnLCAnMS4wJywgJy1waCcsICc3LjQnLCAnLXRuJywgJzgnLCAnLW1hJywgJzUwMCcsICctaW1hZScsICc8aW5maWxlLm1hZT4nLCAnLW9tYWUnLCAnPG91dGZpbGUubWFlPic=

>  <s_epik_input>  (1) 
W0NIMl09W0NIXU4oW0NIM10pQyg9W0NIXTEpW0NIMl1bQ0hdPVtDSF1DKD1DMTIpW0NIMl1bQ0gyXVtDSDJdW05IXUMyPU8=

>  <s_glide_docking_method>  (1) 
confgen

>  <s_i_glide_gridfile>  (1) 
gpcr_5ht2c_6bqh_protein_autoprepared_prepared

>  <s_lp_Force_Field>  (1) 
S-OPLS

>  <s_lp_Variant>  (1) 
DiffSBDD_30-1

>  <s_m_source_file>  (1) 
generated_GPCR_5HT2C_ligand_DiffSBDD_2026-06-23_prepared.sdf

>  <GenAI_Model>  (1) 
DiffSBDD

>  <Protein>  (1) 
GPCR_5HT2C

$$$$
DiffSBDD_78
     RDKit          3D

  0  0  0  0  0  0  0  0  0  0999 V3000
M  V30 BEGIN CTAB
M  V30 COUNTS 104 109 0 0 1
M  V30 BEGIN ATOM
M  V30 1 O 39.644665 27.116365 52.183757 0
M  V30 2 C 42.371355 30.483997 63.686009 0
M  V30 3 C 36.904030 32.045261 61.553548 0 CFG=1
M  V30 4 C 39.644887 30.392963 56.271883 0
M  V30 5 O 38.045119 32.823660 55.105242 0
M  V30 6 C 41.062004 31.545204 61.651412 0 CFG=2
M  V30 7 C 38.511619 27.195082 53.034493 0
M  V30 8 O 39.563999 28.666433 54.662834 0
M  V30 9 C 42.257207 31.535256 62.598957 0 CFG=1
M  V30 10 O 37.102981 26.155671 57.271869 0
M  V30 11 C 36.470989 37.726382 62.892692 0
M  V30 12 N 38.312119 32.059404 61.250856 0
M  V30 13 N 41.167356 32.504791 62.748070 0
M  V30 14 C 36.045318 39.773440 61.767601 0
M  V30 15 C 41.876996 30.845942 65.071169 0
M  V30 16 C 35.932796 32.895396 60.774093 0 CFG=1
M  V30 17 N 38.678767 30.703576 61.226724 0
M  V30 18 C 39.358774 27.296571 50.810953 0
M  V30 19 C 40.035967 30.395660 61.646400 0 CFG=1
M  V30 20 C 37.210336 38.987661 61.250308 0
M  V30 21 C 39.640403 27.940935 61.004889 0
M  V30 22 C 38.759196 29.658235 55.270405 0 CFG=2
M  V30 23 C 37.599320 29.860680 59.156180 0
M  V30 24 C 38.512594 36.854975 61.611353 0
M  V30 25 C 37.315668 31.651408 54.808140 0
M  V30 26 C 38.978790 27.381554 54.486054 0 CFG=2
M  V30 27 C 36.487972 30.895519 59.174943 0
M  V30 28 C 39.558017 28.769709 50.441040 0
M  V30 29 O 42.844193 29.373567 63.461164 0
M  V30 30 C 39.985237 29.336717 60.497115 0
M  V30 31 C 37.425378 37.883806 61.864983 0
M  V30 32 C 41.230144 29.130567 59.640773 0
M  V30 33 C 39.458925 25.210965 55.793378 0
M  V30 34 C 40.273341 32.446223 63.915206 0
M  V30 35 C 38.146315 35.908583 60.459098 0
M  V30 36 C 36.816492 35.213363 60.733456 0
M  V30 37 O 35.631885 38.839172 62.864266 0
M  V30 38 N 38.423210 27.741209 58.358924 0
M  V30 39 S 39.645042 25.557775 57.563379 0
M  V30 40 C 37.435927 28.700093 58.499266 0
M  V30 41 C 38.223726 30.596453 54.189468 0
M  V30 42 C 38.182570 26.541731 57.717867 0
M  V30 43 C 40.428185 31.286552 64.920278 0
M  V30 44 C 36.502422 33.986956 59.881477 0
M  V30 45 O 36.392529 36.789591 63.678255 0
M  V30 46 C 38.908222 30.274204 59.865632 0 CFG=2
M  V30 47 C 36.009656 31.401908 60.519099 0 CFG=1
M  V30 48 C 40.027635 26.340781 54.931669 0
M  V30 49 H 36.629201 31.808911 62.567707 0
M  V30 50 H 39.081390 31.111950 56.864674 0
M  V30 51 H 40.440319 30.929284 55.751277 0
M  V30 52 H 40.094287 29.691867 56.967321 0
M  V30 53 H 37.405537 33.441096 55.435470 0
M  V30 54 H 41.233140 31.980986 60.671534 0
M  V30 55 H 37.935902 26.271357 52.968316 0
M  V30 56 H 37.842186 27.999367 52.732869 0
M  V30 57 H 43.193154 31.912514 62.194993 0
M  V30 58 H 38.835307 32.567980 61.962032 0
M  V30 59 H 35.256090 39.864528 61.028869 0
M  V30 60 H 42.489509 31.647987 65.482407 0
M  V30 61 H 41.955434 29.985981 65.735934 0
M  V30 62 H 35.035546 33.208162 61.305965 0
M  V30 63 H 40.044996 26.677257 50.239033 0
M  V30 64 H 38.363116 26.937039 50.568223 0
M  V30 65 H 39.971206 29.890045 62.604896 0
M  V30 66 H 37.804080 39.346716 60.422222 0
M  V30 67 H 40.045202 27.182274 60.338578 0
M  V30 68 H 38.569680 27.762373 61.069620 0
M  V30 69 H 40.069502 27.748415 61.988525 0
M  V30 70 H 37.926004 29.223244 55.821449 0
M  V30 71 H 38.720191 36.289807 62.521896 0
M  V30 72 H 39.434123 37.384116 61.374070 0
M  V30 73 H 36.856016 31.246265 55.704430 0
M  V30 74 H 36.479916 31.894593 54.167820 0
M  V30 75 H 38.091787 27.280754 55.106225 0
M  V30 76 H 36.845393 31.723247 58.568332 0
M  V30 77 H 35.619918 30.498249 58.647902 0
M  V30 78 H 39.429931 28.937939 49.370680 0
M  V30 79 H 40.559339 29.105359 50.707849 0
M  V30 80 H 38.845543 29.403797 50.966468 0
M  V30 81 H 36.342476 40.748624 62.146308 0
M  V30 82 H 41.011072 28.606300 58.711340 0
M  V30 83 H 41.984857 28.537141 60.155035 0
M  V30 84 H 41.663221 30.081233 59.367729 0
M  V30 85 H 40.045211 24.331892 55.606369 0
M  V30 86 H 38.437821 24.948697 55.515350 0
M  V30 87 H 40.482880 33.365447 64.462961 0
M  V30 88 H 39.245144 32.548048 63.587294 0
M  V30 89 H 38.045251 36.475913 59.533321 0
M  V30 90 H 38.946777 35.180078 60.319331 0
M  V30 91 H 36.773086 34.945839 61.789385 0
M  V30 92 H 36.044815 35.950504 60.566487 0
M  V30 93 H 39.353171 27.922704 58.705613 0
M  V30 94 H 36.512981 28.444940 58.000424 0
M  V30 95 H 39.033719 31.058649 53.622470 0
M  V30 96 H 37.645663 30.014483 53.478066 0
M  V30 97 H 39.805080 30.437952 64.636434 0
M  V30 98 H 40.047294 31.600340 65.890629 0
M  V30 99 H 37.407502 33.643851 59.382498 0
M  V30 100 H 35.785165 34.229310 59.095275 0
M  V30 101 H 39.353897 31.086021 59.295762 0
M  V30 102 H 35.244241 30.774908 60.961167 0
M  V30 103 H 40.530252 25.909176 54.068066 0
M  V30 104 H 40.823511 26.834542 55.491473 0
M  V30 END ATOM
M  V30 BEGIN BOND
M  V30 1 1 7 1
M  V30 2 1 9 2
M  V30 3 1 9 6
M  V30 4 1 12 3
M  V30 5 1 13 6
M  V30 6 1 13 9
M  V30 7 1 15 2
M  V30 8 1 16 3
M  V30 9 1 17 12
M  V30 10 1 18 1
M  V30 11 1 19 6
M  V30 12 1 19 17
M  V30 13 1 20 14
M  V30 14 1 22 4
M  V30 15 1 22 8
M  V30 16 1 25 5
M  V30 17 1 26 7
M  V30 18 1 26 8
M  V30 19 1 27 23
M  V30 20 1 28 18
M  V30 21 2 29 2
M  V30 22 1 30 19
M  V30 23 1 30 21
M  V30 24 1 31 11
M  V30 25 2 31 20
M  V30 26 1 31 24
M  V30 27 1 32 30
M  V30 28 1 34 13
M  V30 29 1 35 24
M  V30 30 1 36 35
M  V30 31 1 37 11
M  V30 32 1 37 14
M  V30 33 1 39 33
M  V30 34 2 40 23
M  V30 35 1 40 38
M  V30 36 1 41 22
M  V30 37 1 41 25
M  V30 38 2 42 10
M  V30 39 1 42 38
M  V30 40 1 42 39
M  V30 41 1 43 15
M  V30 42 1 43 34
M  V30 43 1 44 16
M  V30 44 1 44 36
M  V30 45 2 45 11
M  V30 46 1 46 17
M  V30 47 1 46 23
M  V30 48 1 46 30
M  V30 49 1 47 3
M  V30 50 1 47 16
M  V30 51 1 47 27
M  V30 52 1 48 26
M  V30 53 1 48 33
M  V30 54 1 3 49 CFG=1
M  V30 55 1 50 4
M  V30 56 1 51 4
M  V30 57 1 52 4
M  V30 58 1 53 5
M  V30 59 1 6 54 CFG=3
M  V30 60 1 55 7
M  V30 61 1 56 7
M  V30 62 1 9 57 CFG=3
M  V30 63 1 58 12
M  V30 64 1 59 14
M  V30 65 1 60 15
M  V30 66 1 61 15
M  V30 67 1 16 62 CFG=1
M  V30 68 1 63 18
M  V30 69 1 64 18
M  V30 70 1 19 65 CFG=1
M  V30 71 1 66 20
M  V30 72 1 67 21
M  V30 73 1 68 21
M  V30 74 1 69 21
M  V30 75 1 22 70 CFG=1
M  V30 76 1 71 24
M  V30 77 1 72 24
M  V30 78 1 73 25
M  V30 79 1 74 25
M  V30 80 1 26 75 CFG=1
M  V30 81 1 76 27
M  V30 82 1 77 27
M  V30 83 1 78 28
M  V30 84 1 79 28
M  V30 85 1 80 28
M  V30 86 1 81 14
M  V30 87 1 82 32
M  V30 88 1 83 32
M  V30 89 1 84 32
M  V30 90 1 85 33
M  V30 91 1 86 33
M  V30 92 1 87 34
M  V30 93 1 88 34
M  V30 94 1 89 35
M  V30 95 1 90 35
M  V30 96 1 91 36
M  V30 97 1 92 36
M  V30 98 1 93 38
M  V30 99 1 94 40
M  V30 100 1 95 41
M  V30 101 1 96 41
M  V30 102 1 97 43
M  V30 103 1 98 43
M  V30 104 1 99 44
M  V30 105 1 100 44
M  V30 106 1 46 101 CFG=3
M  V30 107 1 47 102 CFG=1
M  V30 108 1 103 48
M  V30 109 1 104 48
M  V30 END BOND
M  V30 END CTAB
M  END
>  <i_epik_Tot_Q>  (1) 
0

>  <i_epik_Tot_abs_Q>  (1) 
0

>  <i_i_glide_confnum>  (1) 
1625

>  <i_i_glide_lignum>  (1) 
184

>  <i_i_glide_posenum>  (1) 
213

>  <i_i_glide_rotatable_bonds>  (1) 
20

>  <i_lp_mmshare_version>  (1) 
72125

>  <i_m_source_file_index>  (1) 
79

>  <i_f3d_flags>  (1) 
0

>  <num_sample>  (1) 
100

>  <b_lp_Chiralities_Consistent>  (1) 
1

>  <r_epik_Charging_Adjusted_Penalty>  (1) 
0.92354502945683503

>  <r_epik_Ionization_Penalty>  (1) 
0.93156090309964268

>  <r_epik_Ionization_Penalty_Charging>  (1) 
0

>  <r_epik_Ionization_Penalty_Neutral>  (1) 
0.93156090309964268

>  <r_epik_State_Penalty>  (1) 
0.92354502945683503

>  <r_glide_ring_energy>  (1) 
0

>  <r_i_docking_score>  (1) 
-6.6661579224475558

>  <r_i_glide_ecoul>  (1) 
-0.26098659066745089

>  <r_i_glide_eff_state_penalty>  (1) 
0.92354502945683503

>  <r_i_glide_einternal>  (1) 
20.769137926516166

>  <r_i_glide_emodel>  (1) 
-125.42844534079796

>  <r_i_glide_emodel_strain>  (1) 
3.7274309654383728

>  <r_i_glide_energy>  (1) 
-47.045706217334306

>  <r_i_glide_erotb>  (1) 
0.59596673808410561

>  <r_i_glide_esite>  (1) 
0

>  <r_i_glide_evdw>  (1) 
-46.784719626666856

>  <r_i_glide_gscore>  (1) 
-7.5897029519043908

>  <r_i_glide_gscore_strain>  (1) 
0

>  <r_i_glide_hbond>  (1) 
-0.093558357814393256

>  <r_i_glide_ligand_efficiency>  (1) 
-0.13887829005099075

>  <r_i_glide_ligand_efficiency_ln>  (1) 
-1.3684834412540743

>  <r_i_glide_ligand_efficiency_sa>  (1) 
-0.5047172014979403

>  <r_i_glide_lipo>  (1) 
-4.2455047738960321

>  <r_i_glide_metal>  (1) 
-0

>  <r_i_glide_rewards>  (1) 
-1.4682225883446109

>  <r_lp_Energy>  (1) 
40.470562000000001

>  <r_lp_tautomer_probability>  (1) 
0.99984117342658263

>  <s_epik_Chemistry_Notes>  (1) 
This compound has an ester and may undergo hydrolysis at high or low pH.

>  <s_epik_cmdline>  (1) 
J2VwaWtfcHl0aG9uJywgJy1waHQnLCAnMS4wJywgJy1waCcsICc3LjQnLCAnLXRuJywgJzgnLCAnLW1hJywgJzUwMCcsICctaW1hZScsICc8aW5maWxlLm1hZT4nLCAnLW9tYWUnLCAnPG91dGZpbGUubWFlPic=

>  <s_epik_input>  (1) 
W09IXVtDSDJdW0NIMl1bQ0BIXShbQ0gzXSlPW0NAQEhdKFtDSDJdT1tDSDJdW0NIM10pW0NIMl1bQ0gyXVNDKD1PKVtOSF1cW0NIXT1DKFtDQEhdMU4oW05IXTIpW0NAQEhdKEMxKFtDSDNdKVtDSDNdKVtDQEhdM04oW0NASF0zNClbQ0gyXVtDSDJdW0NIMl1DND1PKVxbQ0gyXVtDQEBIXShbQ0BASF0yNSlbQ0BASF01W0NIMl1bQ0gyXVtDSDJdW0NIMl1bQ0BASF0oQzY9TylbQ0hdPVtDSF1PNg==

>  <s_glide_docking_method>  (1) 
confgen

>  <s_i_glide_gridfile>  (1) 
gpcr_5ht2c_6bqh_protein_autoprepared_prepared

>  <s_lp_Force_Field>  (1) 
S-OPLS

>  <s_lp_Variant>  (1) 
DiffSBDD_78-6

>  <s_m_source_file>  (1) 
generated_GPCR_5HT2C_ligand_DiffSBDD_2026-06-23_prepared.sdf

>  <GenAI_Model>  (1) 
DiffSBDD

>  <Protein>  (1) 
GPCR_5HT2C

$$$$
DiffSBDD_23
     RDKit          3D

  0  0  0  0  0  0  0  0  0  0999 V3000
M  V30 BEGIN CTAB
M  V30 COUNTS 68 70 0 0 1
M  V30 BEGIN ATOM
M  V30 1 C 42.007559 28.778061 64.625800 0
M  V30 2 C 41.922165 29.041961 66.016529 0
M  V30 3 C 40.535126 30.107415 51.367770 0
M  V30 4 O 37.645107 28.513502 57.650361 0 CHG=-1
M  V30 5 C 40.571239 29.097818 66.711081 0
M  V30 6 N 40.845139 28.562699 63.867962 0
M  V30 7 C 40.668036 29.278801 62.603022 0 CFG=1
M  V30 8 C 38.146777 30.842650 59.048953 0 CFG=2
M  V30 9 C 43.280212 28.739819 64.015938 0
M  V30 10 C 37.400132 30.362287 55.339748 0
M  V30 11 C 37.587781 28.256338 53.936747 0
M  V30 12 C 39.290565 28.892524 62.001013 0
M  V30 13 C 40.790186 30.797155 62.843576 0
M  V30 14 C 38.129354 27.540694 52.854486 0
M  V30 15 C 37.152427 34.133238 59.966797 0
M  V30 16 C 44.352655 29.206832 66.078392 0
M  V30 17 C 38.981806 30.172296 53.367759 0
M  V30 18 O 40.053330 31.308667 63.715628 0
M  V30 19 P 38.613201 29.633610 57.665162 0
M  V30 20 N 44.390077 28.952949 64.753584 0 CHG=1
M  V30 21 C 39.543680 34.633833 61.380482 0
M  V30 22 C 37.194435 35.128757 60.966306 0
M  V30 23 O 40.059914 29.337744 57.715138 0
M  V30 24 C 38.387980 35.378751 61.668990 0
M  V30 25 C 43.112760 29.258482 66.750464 0
M  V30 26 C 39.090661 28.139578 52.021433 0
M  V30 27 C 38.007692 29.575740 54.190899 0
M  V30 28 C 39.516980 29.456822 52.274838 0
M  V30 29 C 39.512129 33.642249 60.383918 0
M  V30 30 C 38.306399 32.311732 58.572426 0
M  V30 31 C 38.979941 30.543746 60.305310 0
M  V30 32 O 41.645140 31.407047 62.167759 0 CHG=-1
M  V30 33 C 38.320897 33.386231 59.668668 0
M  V30 34 O 38.345220 30.654973 56.338656 0
M  V30 35 C 35.856739 33.871284 59.218901 0
M  V30 36 O 39.053475 29.167815 60.626655 0
M  V30 37 H 40.106271 30.263770 50.378367 0
M  V30 38 H 40.845193 31.077386 51.757477 0
M  V30 39 H 41.407706 29.464063 51.263776 0
M  V30 40 H 40.675759 29.321062 67.773064 0
M  V30 41 H 39.947963 29.873611 66.263462 0
M  V30 42 H 40.052099 28.143021 66.618515 0
M  V30 43 H 39.964632 28.537767 64.380383 0
M  V30 44 H 41.442913 28.953502 61.909192 0
M  V30 45 H 37.099239 30.678692 59.301736 0
M  V30 46 H 43.440039 28.546140 62.967790 0
M  V30 47 H 36.525318 29.847213 55.732984 0
M  V30 48 H 37.040019 31.305529 54.927282 0
M  V30 49 H 36.845135 27.794742 54.567698 0
M  V30 50 H 38.492172 29.368247 62.567756 0
M  V30 51 H 39.148119 27.817402 62.113598 0
M  V30 52 H 37.800234 26.536896 52.658344 0
M  V30 53 H 45.309683 29.361204 66.559311 0
M  V30 54 H 39.303457 31.186075 53.562117 0
M  V30 55 H 40.457726 34.822077 61.924204 0
M  V30 56 H 36.311529 35.700619 61.193297 0
M  V30 57 H 38.414102 36.140817 62.433923 0
M  V30 58 H 43.073793 29.462501 67.810445 0
M  V30 59 H 39.497514 27.590165 51.185277 0
M  V30 60 H 40.403010 33.074556 60.167947 0
M  V30 61 H 37.551099 32.534042 57.819624 0
M  V30 62 H 39.245146 32.405590 58.031731 0
M  V30 63 H 40.002044 30.886393 60.167762 0
M  V30 64 H 38.546967 31.102105 61.136606 0
M  V30 65 H 35.035054 34.457680 59.630585 0
M  V30 66 H 35.960509 34.137806 58.167755 0
M  V30 67 H 35.579480 32.818989 59.286784 0
M  V30 68 H 45.297839 28.920897 64.288203 0
M  V30 END ATOM
M  V30 BEGIN BOND
M  V30 1 2 2 1
M  V30 2 1 5 2
M  V30 3 1 6 1
M  V30 4 1 7 6
M  V30 5 1 9 1
M  V30 6 1 12 7
M  V30 7 1 13 7
M  V30 8 1 14 11
M  V30 9 2 18 13
M  V30 10 1 19 4
M  V30 11 1 19 8
M  V30 12 2 20 9
M  V30 13 1 20 16
M  V30 14 2 22 15
M  V30 15 2 23 19
M  V30 16 2 24 21
M  V30 17 1 24 22
M  V30 18 1 25 2
M  V30 19 2 25 16
M  V30 20 2 26 14
M  V30 21 1 27 10
M  V30 22 2 27 11
M  V30 23 1 27 17
M  V30 24 1 28 3
M  V30 25 2 28 17
M  V30 26 1 28 26
M  V30 27 1 29 21
M  V30 28 1 30 8
M  V30 29 1 31 8
M  V30 30 1 32 13
M  V30 31 1 33 15
M  V30 32 2 33 29
M  V30 33 1 33 30
M  V30 34 1 34 10
M  V30 35 1 34 19
M  V30 36 1 35 15
M  V30 37 1 36 12
M  V30 38 1 36 31
M  V30 39 1 37 3
M  V30 40 1 38 3
M  V30 41 1 39 3
M  V30 42 1 40 5
M  V30 43 1 41 5
M  V30 44 1 42 5
M  V30 45 1 43 6
M  V30 46 1 7 44 CFG=3
M  V30 47 1 8 45 CFG=1
M  V30 48 1 46 9
M  V30 49 1 47 10
M  V30 50 1 48 10
M  V30 51 1 49 11
M  V30 52 1 50 12
M  V30 53 1 51 12
M  V30 54 1 52 14
M  V30 55 1 53 16
M  V30 56 1 54 17
M  V30 57 1 55 21
M  V30 58 1 56 22
M  V30 59 1 57 24
M  V30 60 1 58 25
M  V30 61 1 59 26
M  V30 62 1 60 29
M  V30 63 1 61 30
M  V30 64 1 62 30
M  V30 65 1 63 31
M  V30 66 1 64 31
M  V30 67 1 65 35
M  V30 68 1 66 35
M  V30 69 1 67 35
M  V30 70 1 68 20
M  V30 END BOND
M  V30 END CTAB
M  END
>  <i_epik_Tot_Q>  (1) 
-1

>  <i_epik_Tot_abs_Q>  (1) 
3

>  <i_i_glide_confnum>  (1) 
2149

>  <i_i_glide_lignum>  (1) 
58

>  <i_i_glide_posenum>  (1) 
174

>  <i_i_glide_rotatable_bonds>  (1) 
13

>  <i_lp_mmshare_version>  (1) 
72125

>  <i_m_source_file_index>  (1) 
24

>  <i_f3d_flags>  (1) 
0

>  <num_sample>  (1) 
100

>  <b_lp_Chiralities_Consistent>  (1) 
1

>  <r_epik_Charging_Adjusted_Penalty>  (1) 
1.2797278025130083

>  <r_epik_Ionization_Penalty>  (1) 
0.64011743969219936

>  <r_epik_Ionization_Penalty_Charging>  (1) 
0.64011720958933516

>  <r_epik_Ionization_Penalty_Neutral>  (1) 
2.3010286421690967e-07

>  <r_epik_State_Penalty>  (1) 
0.63961059292367306

>  <r_glide_ring_energy>  (1) 
0

>  <r_i_docking_score>  (1) 
-6.6654985588450559

>  <r_i_glide_ecoul>  (1) 
-10.880449230713229

>  <r_i_glide_eff_state_penalty>  (1) 
0.63961059292367306

>  <r_i_glide_einternal>  (1) 
10.817479833287877

>  <r_i_glide_emodel>  (1) 
-74.903004362178393

>  <r_i_glide_emodel_strain>  (1) 
1.4204440813234314

>  <r_i_glide_energy>  (1) 
-54.734403908275183

>  <r_i_glide_erotb>  (1) 
0.93981710635313198

>  <r_i_glide_esite>  (1) 
-0.048578350312012547

>  <r_i_glide_evdw>  (1) 
-43.853954677561951

>  <r_i_glide_gscore>  (1) 
-7.305109151768729

>  <r_i_glide_gscore_strain>  (1) 
0

>  <r_i_glide_hbond>  (1) 
-0.40329029243867437

>  <r_i_glide_ligand_efficiency>  (1) 
-0.18515273774569599

>  <r_i_glide_ligand_efficiency_ln>  (1) 
-1.4542317045798505

>  <r_i_glide_ligand_efficiency_sa>  (1) 
-0.61136086996995442

>  <r_i_glide_lipo>  (1) 
-3.3493989571854903

>  <r_i_glide_metal>  (1) 
-0

>  <r_i_glide_rewards>  (1) 
-0.61889353970060068

>  <r_lp_Energy>  (1) 
41.185898999999999

>  <r_lp_tautomer_probability>  (1) 
0.99984579293731657

>  <s_epik_cmdline>  (1) 
J2VwaWtfcHl0aG9uJywgJy1waHQnLCAnMS4wJywgJy1waCcsICc3LjQnLCAnLXRuJywgJzgnLCAnLW1hJywgJzUwMCcsICctaW1hZScsICc8aW5maWxlLm1hZT4nLCAnLW9tYWUnLCAnPG91dGZpbGUubWFlPic=

>  <s_epik_input>  (1) 
W2NIXTFuW2NIXVtjSF1jKFtDSDNdKWMxW05IXVtDQEhdKEMoPU8pW09IXSlbQ0gyXU9bQ0gyXVtDQEBIXShbQ0gyXWMyW2NIXVtjSF1bY0hdW2NIXWMyW0NIM10pW1BAQF0oPU8pKFtPSF0pT1tDSDJdYzNbY0hdW2NIXVtjSF1jKFtDSDNdKVtjSF0z

>  <s_glide_docking_method>  (1) 
confgen

>  <s_i_glide_gridfile>  (1) 
gpcr_5ht2c_6bqh_protein_autoprepared_prepared

>  <s_lp_Force_Field>  (1) 
S-OPLS

>  <s_lp_Variant>  (1) 
DiffSBDD_23-2

>  <s_m_source_file>  (1) 
generated_GPCR_5HT2C_ligand_DiffSBDD_2026-06-23_prepared.sdf

>  <GenAI_Model>  (1) 
DiffSBDD

>  <Protein>  (1) 
GPCR_5HT2C

$$$$
DiffSBDD_25
     RDKit          3D

  0  0  0  0  0  0  0  0  0  0999 V3000
M  V30 BEGIN CTAB
M  V30 COUNTS 68 71 0 0 1
M  V30 BEGIN ATOM
M  V30 1 C 40.516255 32.424690 62.673494 0
M  V30 2 C 39.889335 26.319875 57.433509 0
M  V30 3 O 39.539755 31.684434 62.444439 0 CHG=-1
M  V30 4 C 36.266311 30.403367 59.367759 0
M  V30 5 N 38.966521 32.773742 60.085795 0
M  V30 6 C 39.885987 25.910572 55.955422 0
M  V30 7 C 41.183942 34.806464 63.354626 0
M  V30 8 C 40.031481 36.747015 62.642030 0
M  V30 9 C 37.343147 26.836348 54.731248 0
M  V30 10 C 39.901493 27.096484 54.975686 0
M  V30 11 C 38.542722 27.822307 54.748742 0 CFG=2
M  V30 12 C 38.078189 36.733541 61.036479 0
M  V30 13 O 39.645134 29.357208 53.225590 0
M  V30 14 O 37.162991 34.082978 60.796775 0
M  V30 15 N 38.151782 29.610744 58.204572 0
M  V30 16 C 39.290951 34.576801 61.770688 0
M  V30 17 O 41.635513 31.980255 63.020111 0
M  V30 18 C 38.382383 27.657903 52.242501 0
M  V30 19 C 40.337045 33.951330 62.579888 0
M  V30 20 C 38.305409 28.912761 55.837776 0
M  V30 21 C 38.799270 28.665405 57.296647 0 CFG=2
M  V30 22 C 38.358040 33.773555 60.852879 0
M  V30 23 C 38.955443 30.725438 58.686408 0
M  V30 24 N 40.995251 36.137750 63.344820 0 CHG=1
M  V30 25 C 38.859908 28.594993 51.170290 0
M  V30 26 C 36.846125 29.514431 58.573354 0
M  V30 27 N 42.201837 34.310838 64.167807 0
M  V30 28 N 38.474757 28.501401 53.428350 0
M  V30 29 C 38.727987 27.229816 57.871823 0
M  V30 30 C 38.269668 31.772149 59.625556 0
M  V30 31 C 40.424609 30.601798 51.237928 0
M  V30 32 N 36.910827 31.504870 59.896339 0
M  V30 33 C 40.041175 29.246271 51.850915 0 CFG=1
M  V30 34 C 39.150928 36.003498 61.839394 0
M  V30 35 H 40.836601 26.809853 57.664232 0
M  V30 36 H 39.876258 25.413542 58.040842 0
M  V30 37 H 35.245137 30.329502 59.651121 0
M  V30 38 H 40.793285 25.337798 55.770187 0
M  V30 39 H 39.075959 25.213279 55.748145 0
M  V30 40 H 39.993608 37.822694 62.737829 0
M  V30 41 H 37.104463 26.429988 55.709491 0
M  V30 42 H 36.445179 27.337760 54.374343 0
M  V30 43 H 37.516099 25.981660 54.075982 0
M  V30 44 H 40.633607 27.806837 55.367749 0
M  V30 45 H 40.292014 26.719031 54.032534 0
M  V30 46 H 38.247537 37.810423 61.058047 0
M  V30 47 H 38.076996 36.433699 59.987567 0
M  V30 48 H 37.090209 36.557909 61.462243 0
M  V30 49 H 39.024401 26.779733 52.301401 0
M  V30 50 H 37.356461 27.337774 52.082768 0
M  V30 51 H 37.245115 29.157561 55.845716 0
M  V30 52 H 38.779374 29.844915 55.526975 0
M  V30 53 H 39.858938 28.925170 57.301794 0
M  V30 54 H 39.794953 30.288441 59.227862 0
M  V30 55 H 39.327201 31.249378 57.805138 0
M  V30 56 H 38.092914 29.334946 50.969945 0
M  V30 57 H 39.117332 28.094017 50.236901 0
M  V30 58 H 36.324089 28.661930 58.167444 0
M  V30 59 H 42.414153 33.316577 64.183333 0
M  V30 60 H 42.807747 34.920541 64.695081 0
M  V30 61 H 38.806417 27.304564 58.958139 0
M  V30 62 H 37.759212 26.767307 57.700444 0
M  V30 63 H 40.724064 30.490608 50.195836 0
M  V30 64 H 39.611997 31.319676 51.271392 0
M  V30 65 H 41.245129 31.070931 51.767693 0
M  V30 66 H 40.892478 28.569596 51.767737 0
M  V30 67 H 36.360302 32.115503 60.480209 0
M  V30 68 H 41.612714 36.722842 63.919418 0
M  V30 END ATOM
M  V30 BEGIN BOND
M  V30 1 1 3 1
M  V30 2 1 6 2
M  V30 3 1 10 6
M  V30 4 1 11 9 CFG=3
M  V30 5 1 11 10
M  V30 6 2 17 1
M  V30 7 1 19 1
M  V30 8 2 19 7
M  V30 9 1 19 16
M  V30 10 1 20 11
M  V30 11 1 21 15
M  V30 12 1 21 20
M  V30 13 1 22 5
M  V30 14 2 22 14
M  V30 15 1 22 16
M  V30 16 1 23 15
M  V30 17 1 24 7
M  V30 18 2 24 8
M  V30 19 1 25 18
M  V30 20 2 26 4
M  V30 21 1 26 15
M  V30 22 1 27 7
M  V30 23 1 28 11
M  V30 24 1 28 13
M  V30 25 1 28 18
M  V30 26 1 29 2
M  V30 27 1 29 21
M  V30 28 2 30 5
M  V30 29 1 30 23
M  V30 30 1 32 4
M  V30 31 1 32 30
M  V30 32 1 33 13
M  V30 33 1 33 25
M  V30 34 1 33 31
M  V30 35 1 34 8
M  V30 36 1 34 12
M  V30 37 2 34 16
M  V30 38 1 35 2
M  V30 39 1 36 2
M  V30 40 1 37 4
M  V30 41 1 38 6
M  V30 42 1 39 6
M  V30 43 1 40 8
M  V30 44 1 41 9
M  V30 45 1 42 9
M  V30 46 1 43 9
M  V30 47 1 44 10
M  V30 48 1 45 10
M  V30 49 1 46 12
M  V30 50 1 47 12
M  V30 51 1 48 12
M  V30 52 1 49 18
M  V30 53 1 50 18
M  V30 54 1 51 20
M  V30 55 1 52 20
M  V30 56 1 21 53 CFG=3
M  V30 57 1 54 23
M  V30 58 1 55 23
M  V30 59 1 56 25
M  V30 60 1 57 25
M  V30 61 1 58 26
M  V30 62 1 59 27
M  V30 63 1 60 27
M  V30 64 1 61 29
M  V30 65 1 62 29
M  V30 66 1 63 31
M  V30 67 1 64 31
M  V30 68 1 65 31
M  V30 69 1 33 66 CFG=1
M  V30 70 1 67 32
M  V30 71 1 68 24
M  V30 END BOND
M  V30 END CTAB
M  END
>  <i_epik_Tot_Q>  (1) 
0

>  <i_epik_Tot_abs_Q>  (1) 
2

>  <i_i_glide_confnum>  (1) 
296

>  <i_i_glide_lignum>  (1) 
64

>  <i_i_glide_posenum>  (1) 
212

>  <i_i_glide_rotatable_bonds>  (1) 
5

>  <i_lp_mmshare_version>  (1) 
72125

>  <i_m_source_file_index>  (1) 
26

>  <i_f3d_flags>  (1) 
0

>  <num_sample>  (1) 
100

>  <b_lp_Chiralities_Consistent>  (1) 
1

>  <r_epik_Charging_Adjusted_Penalty>  (1) 
1.7343418636902355

>  <r_epik_Ionization_Penalty>  (1) 
0.81506818440052864

>  <r_epik_Ionization_Penalty_Charging>  (1) 
0.79852554791812069

>  <r_epik_Ionization_Penalty_Neutral>  (1) 
0.016542636482407981

>  <r_epik_State_Penalty>  (1) 
0.93581631577211466

>  <r_glide_ring_energy>  (1) 
0.67481548263312563

>  <r_i_docking_score>  (1) 
-6.6566950086106367

>  <r_i_glide_ecoul>  (1) 
-1.7838888222216251

>  <r_i_glide_eff_state_penalty>  (1) 
0.93581631577211466

>  <r_i_glide_einternal>  (1) 
10.859920800875337

>  <r_i_glide_emodel>  (1) 
-60.412112919113909

>  <r_i_glide_emodel_strain>  (1) 
0

>  <r_i_glide_energy>  (1) 
-43.321415714621374

>  <r_i_glide_erotb>  (1) 
0.3649910051837349

>  <r_i_glide_esite>  (1) 
-0.10377631398864165

>  <r_i_glide_evdw>  (1) 
-41.537526892399747

>  <r_i_glide_gscore>  (1) 
-7.5925113243827509

>  <r_i_glide_gscore_strain>  (1) 
0

>  <r_i_glide_hbond>  (1) 
0

>  <r_i_glide_ligand_efficiency>  (1) 
-0.19578514731207755

>  <r_i_glide_ligand_efficiency_ln>  (1) 
-1.4706506413726574

>  <r_i_glide_ligand_efficiency_sa>  (1) 
-0.63426787374705706

>  <r_i_glide_lipo>  (1) 
-4.0099617045291795

>  <r_i_glide_metal>  (1) 
-0

>  <r_i_glide_rewards>  (1) 
-1.4993046430954324

>  <r_lp_Energy>  (1) 
71.293013999999999

>  <s_epik_Chemistry_Notes>  (1) 
This compound has an imine and may undergo hydrolysis. This compound has a N-S or N-O group and may undergo hydrolysis at high or low pH.

>  <s_epik_cmdline>  (1) 
J2VwaWtfcHl0aG9uJywgJy1waHQnLCAnMS4wJywgJy1waCcsICc3LjQnLCAnLXRuJywgJzgnLCAnLW1hJywgJzUwMCcsICctaW1hZScsICc8aW5maWxlLm1hZT4nLCAnLW9tYWUnLCAnPG91dGZpbGUubWFlPic=

>  <s_epik_input>  (1) 
W09IXUMoPU8pYyhjMVtOSDJdKWMoYyhbY0hdbjEpW0NIM10pQyg9TylbTkhdQyg9TltDSF09W0NIXTIpW0NIMl1OMltDQEhdKFtDSDJdMylbQ0gyXVtDSDJdW0NIMl1bQ0gyXVtDQF0zKFtDSDNdKU40T1tDQEBIXShbQ0gzXSlbQ0gyXVtDSDJdNA==

>  <s_glide_docking_method>  (1) 
confgen

>  <s_i_glide_gridfile>  (1) 
gpcr_5ht2c_6bqh_protein_autoprepared_prepared

>  <s_lp_Force_Field>  (1) 
S-OPLS

>  <s_lp_Variant>  (1) 
DiffSBDD_25-4

>  <s_m_source_file>  (1) 
generated_GPCR_5HT2C_ligand_DiffSBDD_2026-06-23_prepared.sdf

>  <GenAI_Model>  (1) 
DiffSBDD

>  <Protein>  (1) 
GPCR_5HT2C

$$$$
DiffSBDD_25
     RDKit          3D

  0  0  0  0  0  0  0  0  0  0999 V3000
M  V30 BEGIN CTAB
M  V30 COUNTS 68 71 0 0 1
M  V30 BEGIN ATOM
M  V30 1 C 40.295915 35.565958 62.383333 0
M  V30 2 C 39.276142 25.992626 57.296735 0
M  V30 3 O 40.445167 36.699251 62.889400 0 CHG=-1
M  V30 4 C 36.354472 30.632049 59.436558 0
M  V30 5 N 39.534230 31.631228 60.967786 0
M  V30 6 C 39.516789 25.834563 55.787901 0
M  V30 7 C 41.628226 34.493011 64.309805 0
M  V30 8 C 41.689033 32.160154 64.719194 0
M  V30 9 C 37.245137 27.133507 54.390895 0
M  V30 10 C 39.727765 27.132718 54.967417 0
M  V30 11 C 38.466694 28.022762 54.734921 0 CFG=2
M  V30 12 C 40.358114 30.448131 63.423391 0
M  V30 13 O 38.833629 28.009223 52.395668 0
M  V30 14 O 38.254414 33.440410 61.691856 0
M  V30 15 N 38.040304 29.344719 58.405456 0
M  V30 16 C 40.276272 32.982751 62.888999 0
M  V30 17 O 39.845926 35.401072 61.232480 0
M  V30 18 C 39.585563 29.956795 53.468525 0
M  V30 19 C 40.726416 34.332024 63.209544 0
M  V30 20 C 38.163637 28.948433 55.952743 0
M  V30 21 C 38.500406 28.420201 57.373507 0 CFG=2
M  V30 22 C 39.249318 32.715225 61.787444 0
M  V30 23 C 39.069269 30.011553 59.179794 0
M  V30 24 N 42.057873 33.418679 64.997183 0 CHG=1
M  V30 25 C 39.961070 29.992840 51.995018 0
M  V30 26 C 36.734814 29.702374 58.567659 0
M  V30 27 N 42.112553 35.737754 64.705583 0
M  V30 28 N 38.591298 28.882476 53.532968 0
M  V30 29 C 38.156146 26.960728 57.714523 0
M  V30 30 C 38.628761 31.070052 60.227203 0
M  V30 31 C 39.675930 28.164740 50.213807 0
M  V30 32 N 37.234186 31.319321 60.259132 0
M  V30 33 C 39.922515 28.524323 51.660801 0 CFG=2
M  V30 34 C 40.792780 31.891303 63.673093 0
M  V30 35 H 40.208163 26.303878 57.771447 0
M  V30 36 H 39.057685 25.007649 57.711340 0
M  V30 37 H 35.321575 30.923987 59.555985 0
M  V30 38 H 40.420301 25.234726 55.682864 0
M  V30 39 H 38.731737 25.218627 55.351462 0
M  V30 40 H 42.111185 31.395928 65.357363 0
M  V30 41 H 36.868473 26.556408 55.230537 0
M  V30 42 H 36.421072 27.737760 54.024243 0
M  V30 43 H 37.468448 26.407867 53.607770 0
M  V30 44 H 40.529524 27.723054 55.409193 0
M  V30 45 H 40.109812 26.793887 54.006539 0
M  V30 46 H 40.643308 29.815425 64.264787 0
M  V30 47 H 39.275524 30.356841 63.329005 0
M  V30 48 H 40.839963 30.031967 62.539214 0
M  V30 49 H 39.167016 30.904665 53.807369 0
M  V30 50 H 40.445141 29.737760 54.095673 0
M  V30 51 H 37.139851 29.313912 55.888856 0
M  V30 52 H 38.747414 29.864028 55.872251 0
M  V30 53 H 39.588609 28.468842 57.431339 0
M  V30 54 H 39.719313 29.274321 59.652025 0
M  V30 55 H 39.645132 30.537743 58.426326 0
M  V30 56 H 40.916023 30.454708 51.767766 0
M  V30 57 H 39.245140 30.537754 51.397693 0
M  V30 58 H 36.045149 29.180055 57.927767 0
M  V30 59 H 41.786477 36.595956 64.255693 0
M  V30 60 H 42.727612 35.844733 65.495579 0
M  V30 61 H 38.075180 26.870813 58.797723 0
M  V30 62 H 37.178925 26.669132 57.336724 0
M  V30 63 H 40.445137 28.562090 49.556815 0
M  V30 64 H 39.658647 27.075567 50.167752 0
M  V30 65 H 38.716894 28.537766 49.871048 0
M  V30 66 H 40.842541 28.052132 51.983340 0
M  V30 67 H 36.833120 32.009745 60.877259 0
M  V30 68 H 42.704219 33.568795 65.771197 0
M  V30 END ATOM
M  V30 BEGIN BOND
M  V30 1 1 3 1
M  V30 2 1 6 2
M  V30 3 1 10 6
M  V30 4 1 11 9 CFG=3
M  V30 5 1 11 10
M  V30 6 2 17 1
M  V30 7 1 19 1
M  V30 8 2 19 7
M  V30 9 1 19 16
M  V30 10 1 20 11
M  V30 11 1 21 15
M  V30 12 1 21 20
M  V30 13 1 22 5
M  V30 14 2 22 14
M  V30 15 1 22 16
M  V30 16 1 23 15
M  V30 17 1 24 7
M  V30 18 2 24 8
M  V30 19 1 25 18
M  V30 20 2 26 4
M  V30 21 1 26 15
M  V30 22 1 27 7
M  V30 23 1 28 11
M  V30 24 1 28 13
M  V30 25 1 28 18
M  V30 26 1 29 2
M  V30 27 1 29 21
M  V30 28 2 30 5
M  V30 29 1 30 23
M  V30 30 1 32 4
M  V30 31 1 32 30
M  V30 32 1 33 13
M  V30 33 1 33 25
M  V30 34 1 33 31
M  V30 35 1 34 8
M  V30 36 1 34 12
M  V30 37 2 34 16
M  V30 38 1 35 2
M  V30 39 1 36 2
M  V30 40 1 37 4
M  V30 41 1 38 6
M  V30 42 1 39 6
M  V30 43 1 40 8
M  V30 44 1 41 9
M  V30 45 1 42 9
M  V30 46 1 43 9
M  V30 47 1 44 10
M  V30 48 1 45 10
M  V30 49 1 46 12
M  V30 50 1 47 12
M  V30 51 1 48 12
M  V30 52 1 49 18
M  V30 53 1 50 18
M  V30 54 1 51 20
M  V30 55 1 52 20
M  V30 56 1 21 53 CFG=3
M  V30 57 1 54 23
M  V30 58 1 55 23
M  V30 59 1 56 25
M  V30 60 1 57 25
M  V30 61 1 58 26
M  V30 62 1 59 27
M  V30 63 1 60 27
M  V30 64 1 61 29
M  V30 65 1 62 29
M  V30 66 1 63 31
M  V30 67 1 64 31
M  V30 68 1 65 31
M  V30 69 1 33 66 CFG=1
M  V30 70 1 67 32
M  V30 71 1 68 24
M  V30 END BOND
M  V30 END CTAB
M  END
>  <i_epik_Tot_Q>  (1) 
0

>  <i_epik_Tot_abs_Q>  (1) 
2

>  <i_i_glide_confnum>  (1) 
220

>  <i_i_glide_lignum>  (1) 
63

>  <i_i_glide_posenum>  (1) 
40

>  <i_i_glide_rotatable_bonds>  (1) 
5

>  <i_lp_mmshare_version>  (1) 
72125

>  <i_m_source_file_index>  (1) 
26

>  <i_f3d_flags>  (1) 
0

>  <num_sample>  (1) 
100

>  <b_lp_Chiralities_Consistent>  (1) 
1

>  <r_epik_Charging_Adjusted_Penalty>  (1) 
1.7343418636902355

>  <r_epik_Ionization_Penalty>  (1) 
0.81506818440052864

>  <r_epik_Ionization_Penalty_Charging>  (1) 
0.79852554791812069

>  <r_epik_Ionization_Penalty_Neutral>  (1) 
0.016542636482407981

>  <r_epik_State_Penalty>  (1) 
0.93581631577211466

>  <r_glide_ring_energy>  (1) 
0.71502142333377439

>  <r_i_docking_score>  (1) 
-6.6547748149163048

>  <r_i_glide_ecoul>  (1) 
-1.7698707874925439

>  <r_i_glide_eff_state_penalty>  (1) 
0.93581631577211466

>  <r_i_glide_einternal>  (1) 
7.8096385952730145

>  <r_i_glide_emodel>  (1) 
-60.644275598961556

>  <r_i_glide_emodel_strain>  (1) 
0.20233615987766029

>  <r_i_glide_energy>  (1) 
-44.750548675838338

>  <r_i_glide_erotb>  (1) 
0.3649910051837349

>  <r_i_glide_esite>  (1) 
-0.063155473388436772

>  <r_i_glide_evdw>  (1) 
-42.980677888345795

>  <r_i_glide_gscore>  (1) 
-7.59059113068842

>  <r_i_glide_gscore_strain>  (1) 
0

>  <r_i_glide_hbond>  (1) 
0

>  <r_i_glide_ligand_efficiency>  (1) 
-0.19572867102695013

>  <r_i_glide_ligand_efficiency_ln>  (1) 
-1.4702264167259709

>  <r_i_glide_ligand_efficiency_sa>  (1) 
-0.63408491250726595

>  <r_i_glide_lipo>  (1) 
-3.7121276793273834

>  <r_i_glide_metal>  (1) 
-0

>  <r_i_glide_rewards>  (1) 
-1.7657844706151629

>  <r_lp_Energy>  (1) 
74.787555999999995

>  <s_epik_Chemistry_Notes>  (1) 
This compound has an imine and may undergo hydrolysis. This compound has a N-S or N-O group and may undergo hydrolysis at high or low pH.

>  <s_epik_cmdline>  (1) 
J2VwaWtfcHl0aG9uJywgJy1waHQnLCAnMS4wJywgJy1waCcsICc3LjQnLCAnLXRuJywgJzgnLCAnLW1hJywgJzUwMCcsICctaW1hZScsICc8aW5maWxlLm1hZT4nLCAnLW9tYWUnLCAnPG91dGZpbGUubWFlPic=

>  <s_epik_input>  (1) 
W09IXUMoPU8pYyhjMVtOSDJdKWMoYyhbY0hdbjEpW0NIM10pQyg9TylbTkhdQyg9TltDSF09W0NIXTIpW0NIMl1OMltDQEhdKFtDSDJdMylbQ0gyXVtDSDJdW0NIMl1bQ0gyXVtDQF0zKFtDSDNdKU40T1tDQEBIXShbQ0gzXSlbQ0gyXVtDSDJdNA==

>  <s_glide_docking_method>  (1) 
confgen

>  <s_i_glide_gridfile>  (1) 
gpcr_5ht2c_6bqh_protein_autoprepared_prepared

>  <s_lp_Force_Field>  (1) 
S-OPLS

>  <s_lp_Variant>  (1) 
DiffSBDD_25-3

>  <s_m_source_file>  (1) 
generated_GPCR_5HT2C_ligand_DiffSBDD_2026-06-23_prepared.sdf

>  <GenAI_Model>  (1) 
DiffSBDD

>  <Protein>  (1) 
GPCR_5HT2C

$$$$
DiffSBDD_42
     RDKit          3D

  0  0  0  0  0  0  0  0  0  0999 V3000
M  V30 BEGIN CTAB
M  V30 COUNTS 89 94 0 0 1
M  V30 BEGIN ATOM
M  V30 1 C 44.360074 28.702991 65.069602 0
M  V30 2 C 36.979045 30.150810 59.694415 0
M  V30 3 C 38.785847 29.437881 54.164517 0
M  V30 4 C 39.156486 27.022937 53.535939 0
M  V30 5 O 37.645142 33.297238 57.257661 0
M  V30 6 C 39.701269 31.356315 55.369086 0
M  V30 7 C 37.720349 29.389263 55.082682 0
M  V30 8 C 38.654900 31.289746 56.305010 0
M  V30 9 C 42.485632 25.649452 65.740868 0 CFG=2
M  V30 10 C 39.047930 28.848902 51.616825 0
M  V30 11 C 41.879828 28.469194 64.916607 0 CFG=1
M  V30 12 C 39.520079 34.830587 62.112965 0 CFG=1
M  V30 13 C 42.813021 30.683575 65.124112 0
M  V30 14 C 40.214053 34.902075 60.762574 0
M  V30 15 C 40.990547 33.473419 64.195697 0
M  V30 16 C 38.391624 30.475738 59.194313 0
M  V30 17 C 38.283534 35.753135 62.222597 0
M  V30 18 O 39.982738 31.453529 63.368731 0
M  V30 19 C 37.646604 31.429729 61.819304 0
M  V30 20 O 43.044029 25.695265 67.036470 0
M  V30 21 C 40.047102 32.672226 63.261326 0
M  V30 22 C 36.507535 31.045547 60.852539 0
M  V30 23 O 41.859439 33.658092 66.402551 0
M  V30 24 C 39.460147 34.108991 59.658106 0
M  V30 25 C 44.258893 30.197704 65.231946 0
M  V30 26 C 40.861802 33.870917 67.390411 0
M  V30 27 N 38.444865 31.902265 58.899082 0
M  V30 28 C 43.406161 26.411936 64.767522 0
M  V30 29 C 38.613000 32.301458 57.473677 0 CFG=2
M  V30 30 C 37.654045 30.307816 56.151488 0
M  V30 31 C 41.541542 32.708753 65.429954 0 CFG=2
M  V30 32 C 41.053294 26.227174 65.774787 0
M  V30 33 C 38.876453 28.432623 53.054548 0 CFG=2
M  V30 34 C 39.770133 30.436055 54.308721 0
M  V30 35 C 38.402485 32.698968 61.355111 0 CFG=2
M  V30 36 C 41.039537 27.756497 65.986335 0
M  V30 37 O 42.731516 32.057776 65.070069 0
M  V30 38 N 41.787425 29.918173 65.076720 0
M  V30 39 C 43.291946 27.911083 64.925603 0
M  V30 40 C 39.155030 32.635175 59.992887 0 CFG=2
M  V30 41 N 39.311472 33.376369 62.338051 0
M  V30 42 O 37.758631 28.537843 52.167527 0
M  V30 43 H 45.353386 28.276906 65.074920 0
M  V30 44 H 36.244820 30.220537 58.893088 0
M  V30 45 H 36.981233 29.111888 59.998407 0
M  V30 46 H 40.045172 26.987490 54.163968 0
M  V30 47 H 38.313775 26.645171 54.114480 0
M  V30 48 H 39.312710 26.365557 52.683714 0
M  V30 49 H 36.822307 32.860119 57.027106 0
M  V30 50 H 40.461936 32.112218 55.470581 0
M  V30 51 H 36.956885 28.638845 54.967688 0
M  V30 52 H 42.443548 24.599492 65.447927 0
M  V30 53 H 39.244854 29.898689 51.404885 0
M  V30 54 H 39.416986 28.123752 50.894146 0
M  V30 55 H 41.456391 28.222456 63.941498 0
M  V30 56 H 40.236435 35.297748 62.783409 0
M  V30 57 H 40.363825 35.939008 60.465441 0
M  V30 58 H 41.208584 34.496322 60.967700 0
M  V30 59 H 40.445118 34.319384 64.604537 0
M  V30 60 H 41.834815 33.874512 63.633219 0
M  V30 61 H 38.657773 29.839095 58.357263 0
M  V30 62 H 39.126802 30.208503 59.952277 0
M  V30 63 H 38.498601 36.716448 61.758826 0
M  V30 64 H 37.382942 35.380308 61.741607 0
M  V30 65 H 38.045682 35.983461 63.260731 0
M  V30 66 H 37.244986 31.677163 62.795749 0
M  V30 67 H 38.290364 30.563480 61.964798 0
M  V30 68 H 43.137810 26.601833 67.286753 0
M  V30 69 H 36.046936 31.946408 60.445473 0
M  V30 70 H 35.698725 30.540248 61.367910 0
M  V30 71 H 38.506668 34.592487 59.439172 0
M  V30 72 H 40.045190 34.137764 58.756825 0
M  V30 73 H 44.663014 30.479459 66.204341 0
M  V30 74 H 44.871186 30.676427 64.472118 0
M  V30 75 H 41.209373 34.617225 68.102913 0
M  V30 76 H 39.935825 34.238623 66.949242 0
M  V30 77 H 40.650960 32.955538 67.944381 0
M  V30 78 H 44.444938 26.137615 64.912682 0
M  V30 79 H 43.146355 26.158058 63.741169 0
M  V30 80 H 39.580668 32.782033 57.385413 0
M  V30 81 H 36.845085 30.253272 56.851645 0
M  V30 82 H 40.787920 32.030441 65.839999 0
M  V30 83 H 40.557457 25.997935 64.830961 0
M  V30 84 H 40.464179 25.733059 66.548420 0
M  V30 85 H 40.585608 30.492215 53.605312 0
M  V30 86 H 37.577339 33.385684 61.196491 0
M  V30 87 H 41.415397 27.996072 66.982228 0
M  V30 88 H 40.020980 28.137228 65.952233 0
M  V30 89 H 40.102873 32.129371 60.167765 0
M  V30 END ATOM
M  V30 BEGIN BOND
M  V30 1 2 7 3
M  V30 2 1 8 6
M  V30 3 1 14 12
M  V30 4 1 16 2
M  V30 5 1 17 12
M  V30 6 1 20 9
M  V30 7 1 21 15
M  V30 8 2 21 18
M  V30 9 1 22 2
M  V30 10 1 22 19
M  V30 11 1 24 14
M  V30 12 1 25 1
M  V30 13 1 25 13
M  V30 14 1 26 23
M  V30 15 1 27 16
M  V30 16 1 28 9
M  V30 17 1 29 5
M  V30 18 1 29 8
M  V30 19 1 29 27
M  V30 20 1 30 7
M  V30 21 2 30 8
M  V30 22 1 31 15
M  V30 23 1 31 23
M  V30 24 1 32 9
M  V30 25 1 33 3
M  V30 26 1 33 4 CFG=1
M  V30 27 1 33 10
M  V30 28 1 34 3
M  V30 29 2 34 6
M  V30 30 1 35 19
M  V30 31 1 36 11
M  V30 32 1 36 32
M  V30 33 1 37 13
M  V30 34 1 37 31
M  V30 35 1 38 11
M  V30 36 2 38 13
M  V30 37 2 39 1
M  V30 38 1 39 11
M  V30 39 1 39 28
M  V30 40 1 40 24
M  V30 41 1 40 27
M  V30 42 1 40 35
M  V30 43 1 41 12
M  V30 44 1 41 21
M  V30 45 1 41 35
M  V30 46 1 42 10
M  V30 47 1 42 33
M  V30 48 1 43 1
M  V30 49 1 44 2
M  V30 50 1 45 2
M  V30 51 1 46 4
M  V30 52 1 47 4
M  V30 53 1 48 4
M  V30 54 1 49 5
M  V30 55 1 50 6
M  V30 56 1 51 7
M  V30 57 1 9 52 CFG=3
M  V30 58 1 53 10
M  V30 59 1 54 10
M  V30 60 1 11 55 CFG=3
M  V30 61 1 12 56 CFG=1
M  V30 62 1 57 14
M  V30 63 1 58 14
M  V30 64 1 59 15
M  V30 65 1 60 15
M  V30 66 1 61 16
M  V30 67 1 62 16
M  V30 68 1 63 17
M  V30 69 1 64 17
M  V30 70 1 65 17
M  V30 71 1 66 19
M  V30 72 1 67 19
M  V30 73 1 68 20
M  V30 74 1 69 22
M  V30 75 1 70 22
M  V30 76 1 71 24
M  V30 77 1 72 24
M  V30 78 1 73 25
M  V30 79 1 74 25
M  V30 80 1 75 26
M  V30 81 1 76 26
M  V30 82 1 77 26
M  V30 83 1 78 28
M  V30 84 1 79 28
M  V30 85 1 29 80 CFG=1
M  V30 86 1 81 30
M  V30 87 1 31 82 CFG=1
M  V30 88 1 83 32
M  V30 89 1 84 32
M  V30 90 1 85 34
M  V30 91 1 35 86 CFG=3
M  V30 92 1 87 36
M  V30 93 1 88 36
M  V30 94 1 40 89 CFG=1
M  V30 END BOND
M  V30 END CTAB
M  END
>  <i_epik_Tot_Q>  (1) 
0

>  <i_epik_Tot_abs_Q>  (1) 
0

>  <i_i_glide_confnum>  (1) 
497

>  <i_i_glide_lignum>  (1) 
94

>  <i_i_glide_posenum>  (1) 
327

>  <i_i_glide_rotatable_bonds>  (1) 
11

>  <i_lp_mmshare_version>  (1) 
72125

>  <i_m_source_file_index>  (1) 
43

>  <i_f3d_flags>  (1) 
0

>  <num_sample>  (1) 
100

>  <b_lp_Chiralities_Consistent>  (1) 
1

>  <r_epik_Charging_Adjusted_Penalty>  (1) 
1.2329990640451991

>  <r_epik_Ionization_Penalty>  (1) 
0.090641377566339693

>  <r_epik_Ionization_Penalty_Charging>  (1) 
0

>  <r_epik_Ionization_Penalty_Neutral>  (1) 
0.090641377566339693

>  <r_epik_State_Penalty>  (1) 
1.2329990640451991

>  <r_glide_ring_energy>  (1) 
0

>  <r_i_docking_score>  (1) 
-6.653135576122378

>  <r_i_glide_ecoul>  (1) 
-2.6011344352107355

>  <r_i_glide_eff_state_penalty>  (1) 
1.2329990640451991

>  <r_i_glide_einternal>  (1) 
10.353843176767761

>  <r_i_glide_emodel>  (1) 
-53.877576941686442

>  <r_i_glide_emodel_strain>  (1) 
3.5804840680430488

>  <r_i_glide_energy>  (1) 
-47.169206984699343

>  <r_i_glide_erotb>  (1) 
0.39316795176799535

>  <r_i_glide_esite>  (1) 
-0.060966525490101314

>  <r_i_glide_evdw>  (1) 
-44.568072549488605

>  <r_i_glide_gscore>  (1) 
-7.8861346401675769

>  <r_i_glide_gscore_strain>  (1) 
0

>  <r_i_glide_hbond>  (1) 
-0.18673989588466328

>  <r_i_glide_ligand_efficiency>  (1) 
-0.15840798990767566

>  <r_i_glide_ligand_efficiency_ln>  (1) 
-1.4043055156161468

>  <r_i_glide_ligand_efficiency_sa>  (1) 
-0.55063039368198452

>  <r_i_glide_lipo>  (1) 
-4.0464811267497049

>  <r_i_glide_metal>  (1) 
-0

>  <r_i_glide_rewards>  (1) 
-1.3665412510550605

>  <r_lp_Energy>  (1) 
72.264139999999998

>  <s_epik_Chemistry_Notes>  (1) 
This compound has an imine and may undergo hydrolysis. This compound contains an acetal/aminal-like group ( X-CH(R)-Y where X, Y are N, S, or O) that may be acid/base labile, releasing an aldehyde.

>  <s_epik_cmdline>  (1) 
J2VwaWtfcHl0aG9uJywgJy1waHQnLCAnMS4wJywgJy1waCcsICc3LjQnLCAnLXRuJywgJzgnLCAnLW1hJywgJzUwMCcsICctaW1hZScsICc8aW5maWxlLm1hZT4nLCAnLW9tYWUnLCAnPG91dGZpbGUubWFlPic=

>  <s_epik_input>  (1) 
W0NIMl0xW0NIMl1bQ0BIXShbT0hdKVtDSDJdQyhbQ0BASF0xMik9W0NIXVtDSDJdQyg9TjIpT1tDQEBIXShPW0NIM10pW0NIMl1DKD1PKU4zW0NASF0oW0NIM10pW0NIMl1bQ0gyXVtDQEBIXShbQ0BIXTM0KU4oW0NIMl1bQ0gyXVtDSDJdW0NIMl00KVtDQEhdKFtPSF0pYyhbY0hdW2NIXTUpW2NIXVtjSF1jNUM2KFtDSDNdKVtDSDJdTzY=

>  <s_glide_docking_method>  (1) 
confgen

>  <s_i_glide_gridfile>  (1) 
gpcr_5ht2c_6bqh_protein_autoprepared_prepared

>  <s_lp_Force_Field>  (1) 
S-OPLS

>  <s_lp_Variant>  (1) 
DiffSBDD_42-3

>  <s_m_source_file>  (1) 
generated_GPCR_5HT2C_ligand_DiffSBDD_2026-06-23_prepared.sdf

>  <GenAI_Model>  (1) 
DiffSBDD

>  <Protein>  (1) 
GPCR_5HT2C

$$$$
DiffSBDD_56
     RDKit          3D

  0  0  0  0  0  0  0  0  0  0999 V3000
M  V30 BEGIN CTAB
M  V30 COUNTS 73 78 0 0 1
M  V30 BEGIN ATOM
M  V30 1 C 38.770295 30.326352 56.229075 0 CFG=1
M  V30 2 C 39.877940 27.008243 56.453483 0
M  V30 3 C 38.184597 28.449940 57.760501 0
M  V30 4 C 41.492576 28.478164 63.305922 0
M  V30 5 C 38.197646 32.971106 56.057035 0
M  V30 6 C 38.276673 28.518052 53.163875 0
M  V30 7 C 38.557668 27.825704 56.421473 0 CFG=1
M  V30 8 C 37.888409 31.503051 55.693220 0
M  V30 9 C 39.670026 28.105123 51.187435 0
M  V30 10 C 42.210366 29.154509 64.278584 0
M  V30 11 C 40.718750 32.444943 64.288452 0
M  V30 12 C 40.445923 29.120084 62.605734 0
M  V30 13 C 38.881611 29.820298 53.294595 0
M  V30 14 C 37.837154 33.448621 57.474081 0
M  V30 15 C 41.898192 30.517397 64.573414 0
M  V30 16 C 39.835221 30.222834 52.329795 0
M  V30 17 N 39.163265 28.787235 54.197355 0
M  V30 18 N 38.386123 31.890500 59.414613 0 CFG=1 CHG=1
M  V30 19 F 41.245319 29.738025 50.474845 0
M  V30 20 C 38.654769 29.918114 57.743025 0 CFG=2
M  V30 21 C 40.285449 29.344257 51.342394 0
M  V30 22 C 43.525155 31.263254 66.441346 0
M  V30 23 F 40.031406 27.294523 50.167954 0
M  V30 24 C 39.456853 31.521166 60.391026 0
M  V30 25 C 40.133064 30.422124 62.886834 0
M  V30 26 C 38.429620 29.013247 55.449066 0 CFG=2
M  V30 27 C 38.613563 27.741677 52.030964 0
M  V30 28 S 38.813191 31.272519 62.058000 0
M  V30 29 C 42.406176 31.442646 65.451640 0
M  V30 30 C 41.667775 32.615349 65.255363 0
M  V30 31 C 38.848559 32.950889 58.494412 0
M  V30 32 O 43.219331 28.524425 64.975559 0
M  V30 33 N 40.828587 31.121810 63.831306 0
M  V30 34 C 37.755303 30.727778 58.723723 0
M  V30 35 C 41.140168 27.738006 56.930435 0
M  V30 36 C 44.032273 27.584735 64.288569 0
M  V30 37 O 44.699425 30.973985 65.712007 0
M  V30 38 H 39.815450 30.577357 56.039758 0
M  V30 39 H 39.728010 26.149928 57.109285 0
M  V30 40 H 40.067054 26.579981 55.468390 0
M  V30 41 H 37.096915 28.421718 57.846734 0
M  V30 42 H 38.578813 27.896029 58.613799 0
M  V30 43 H 41.728546 27.445358 63.087289 0
M  V30 44 H 37.644997 33.601149 55.360125 0
M  V30 45 H 39.243505 33.190550 55.832793 0
M  V30 46 H 37.782301 27.104446 56.155948 0
M  V30 47 H 37.987976 31.561973 54.618657 0
M  V30 48 H 36.845149 31.241061 55.767765 0
M  V30 49 H 39.976160 33.106046 63.871176 0
M  V30 50 H 39.881698 28.579635 61.851942 0
M  V30 51 H 37.868107 34.537592 57.462705 0
M  V30 52 H 36.823232 33.218089 57.767866 0
M  V30 53 H 40.196506 31.241009 52.334539 0
M  V30 54 H 39.671474 29.910837 58.124036 0
M  V30 55 H 43.682757 32.160486 67.040415 0
M  V30 56 H 43.310855 30.441364 67.125202 0
M  V30 57 H 39.998543 30.622715 60.100130 0
M  V30 58 H 40.196775 32.316976 60.489865 0
M  V30 59 H 37.359526 29.071563 55.232338 0
M  V30 60 H 38.041956 26.857689 51.809118 0
M  V30 61 H 41.844301 33.525528 65.811189 0
M  V30 62 H 39.645142 32.537600 57.910148 0
M  V30 63 H 39.244515 33.789107 59.068531 0
M  V30 64 H 36.845135 31.022300 58.215218 0
M  V30 65 H 37.411732 30.069024 59.522853 0
M  V30 66 H 41.986542 27.052298 56.967874 0
M  V30 67 H 41.030275 28.148341 57.933333 0
M  V30 68 H 41.403629 28.537866 56.243797 0
M  V30 69 H 44.884887 27.337031 64.919915 0
M  V30 70 H 44.426389 28.010451 63.367627 0
M  V30 71 H 43.508713 26.654117 64.071138 0
M  V30 72 H 45.378930 30.706041 66.313036 0
M  V30 73 H 37.649604 32.318945 59.957889 0
M  V30 END ATOM
M  V30 BEGIN BOND
M  V30 1 1 7 2
M  V30 2 1 7 3
M  V30 3 1 8 1
M  V30 4 1 8 5
M  V30 5 2 10 4
M  V30 6 1 12 4
M  V30 7 2 13 6
M  V30 8 1 14 5
M  V30 9 1 15 10
M  V30 10 1 16 13
M  V30 11 1 17 6
M  V30 12 1 17 13
M  V30 13 1 20 1
M  V30 14 1 20 3
M  V30 15 1 21 9
M  V30 16 2 21 16
M  V30 17 1 21 19
M  V30 18 1 23 9
M  V30 19 1 24 18
M  V30 20 2 25 12
M  V30 21 1 26 1
M  V30 22 1 26 7
M  V30 23 1 26 17
M  V30 24 1 27 6
M  V30 25 2 27 9
M  V30 26 1 28 24
M  V30 27 1 28 25
M  V30 28 2 29 15
M  V30 29 1 29 22
M  V30 30 2 30 11
M  V30 31 1 30 29
M  V30 32 1 31 14
M  V30 33 1 31 18
M  V30 34 1 32 10
M  V30 35 1 33 11
M  V30 36 1 33 15
M  V30 37 1 33 25
M  V30 38 1 34 18
M  V30 39 1 34 20
M  V30 40 1 35 2
M  V30 41 1 36 32
M  V30 42 1 37 22
M  V30 43 1 1 38 CFG=1
M  V30 44 1 39 2
M  V30 45 1 40 2
M  V30 46 1 41 3
M  V30 47 1 42 3
M  V30 48 1 43 4
M  V30 49 1 44 5
M  V30 50 1 45 5
M  V30 51 1 7 46 CFG=3
M  V30 52 1 47 8
M  V30 53 1 48 8
M  V30 54 1 49 11
M  V30 55 1 50 12
M  V30 56 1 51 14
M  V30 57 1 52 14
M  V30 58 1 53 16
M  V30 59 1 20 54 CFG=1
M  V30 60 1 55 22
M  V30 61 1 56 22
M  V30 62 1 57 24
M  V30 63 1 58 24
M  V30 64 1 26 59 CFG=3
M  V30 65 1 60 27
M  V30 66 1 61 30
M  V30 67 1 62 31
M  V30 68 1 63 31
M  V30 69 1 64 34
M  V30 70 1 65 34
M  V30 71 1 66 35
M  V30 72 1 67 35
M  V30 73 1 68 35
M  V30 74 1 69 36
M  V30 75 1 70 36
M  V30 76 1 71 36
M  V30 77 1 72 37
M  V30 78 1 18 73 CFG=1
M  V30 END BOND
M  V30 END CTAB
M  END
>  <i_epik_Tot_Q>  (1) 
1

>  <i_epik_Tot_abs_Q>  (1) 
1

>  <i_i_glide_confnum>  (1) 
5

>  <i_i_glide_lignum>  (1) 
123

>  <i_i_glide_posenum>  (1) 
90

>  <i_i_glide_rotatable_bonds>  (1) 
8

>  <i_lp_mmshare_version>  (1) 
72125

>  <i_m_source_file_index>  (1) 
57

>  <i_f3d_flags>  (1) 
0

>  <num_sample>  (1) 
100

>  <b_lp_Chiralities_Consistent>  (1) 
1

>  <r_epik_Charging_Adjusted_Penalty>  (1) 
1.9649939919035475

>  <r_epik_Ionization_Penalty>  (1) 
0.98409533599364529

>  <r_epik_Ionization_Penalty_Charging>  (1) 
0.98249699595177398

>  <r_epik_Ionization_Penalty_Neutral>  (1) 
0.0015983400418712683

>  <r_epik_State_Penalty>  (1) 
0.98249699595177364

>  <r_glide_ring_energy>  (1) 
0

>  <r_i_docking_score>  (1) 
-6.6491549756598749

>  <r_i_glide_ecoul>  (1) 
-2.6074789372046516

>  <r_i_glide_eff_state_penalty>  (1) 
0.98249699595177364

>  <r_i_glide_einternal>  (1) 
28.370010369086852

>  <r_i_glide_emodel>  (1) 
-37.182309633170995

>  <r_i_glide_emodel_strain>  (1) 
2.0814336429832565

>  <r_i_glide_energy>  (1) 
-47.7371788299359

>  <r_i_glide_erotb>  (1) 
0.36855175673704876

>  <r_i_glide_esite>  (1) 
-0.031280268739548672

>  <r_i_glide_evdw>  (1) 
-45.129699892731246

>  <r_i_glide_gscore>  (1) 
-7.6316519716116487

>  <r_i_glide_gscore_strain>  (1) 
0

>  <r_i_glide_hbond>  (1) 
0

>  <r_i_glide_ligand_efficiency>  (1) 
-0.17970689123405068

>  <r_i_glide_ligand_efficiency_ln>  (1) 
-1.4420458359118311

>  <r_i_glide_ligand_efficiency_sa>  (1) 
-0.5988232298614663

>  <r_i_glide_lipo>  (1) 
-3.6624255937642785

>  <r_i_glide_metal>  (1) 
-0

>  <r_i_glide_rewards>  (1) 
-1.6588910306276108

>  <r_lp_Energy>  (1) 
108.178613

>  <s_epik_Chemistry_Notes>  (1) 
This compound contains an acetal/aminal-like group ( X-CH(R)-Y where X, Y are N, S, or O) that may be acid/base labile, releasing an aldehyde.

>  <s_epik_cmdline>  (1) 
J2VwaWtfcHl0aG9uJywgJy1waHQnLCAnMS4wJywgJy1waCcsICc3LjQnLCAnLXRuJywgJzgnLCAnLW1hJywgJzUwMCcsICctaW1hZScsICc8aW5maWxlLm1hZT4nLCAnLW9tYWUnLCAnPG91dGZpbGUubWFlPic=

>  <s_epik_input>  (1) 
RmMoW2NIXTEpYyhGKVtjSF1jKGMxMilOMltDQEhdM1tDQEBIXShbQ0gyXVtDSDNdKVtDSDJdW0NAQEhdKFtDQEBIXTM0KVtDSDJdTihbQ0gyXVtDSDJdW0NIMl1bQ0gyXTQpW0NIMl1TYyhbY0hdW2NIXWM1T1tDSDNdKW4oYzU2KVtjSF1bY0hdYzZbQ0gyXVtPSF0=

>  <s_glide_docking_method>  (1) 
confgen

>  <s_i_glide_gridfile>  (1) 
gpcr_5ht2c_6bqh_protein_autoprepared_prepared

>  <s_lp_Force_Field>  (1) 
S-OPLS

>  <s_lp_Variant>  (1) 
DiffSBDD_56-2

>  <s_m_source_file>  (1) 
generated_GPCR_5HT2C_ligand_DiffSBDD_2026-06-23_prepared.sdf

>  <GenAI_Model>  (1) 
DiffSBDD

>  <Protein>  (1) 
GPCR_5HT2C

$$$$
DiffSBDD_93
     RDKit          3D

  0  0  0  0  0  0  0  0  0  0999 V3000
M  V30 BEGIN CTAB
M  V30 COUNTS 84 85 0 0 1
M  V30 BEGIN ATOM
M  V30 1 C 38.919519 30.677844 62.174402 0
M  V30 2 O 40.281137 30.383116 62.397636 0
M  V30 3 C 40.744301 36.384527 61.543380 0
M  V30 4 C 39.230790 27.620755 53.606351 0
M  V30 5 O 38.466652 28.836068 60.166675 0
M  V30 6 C 40.257342 26.919270 57.924584 0
M  V30 7 N 41.529458 27.328652 57.920773 0
M  V30 8 O 39.638111 26.707909 58.956918 0
M  V30 9 O 34.739525 33.180776 59.367936 0
M  V30 10 C 40.092227 26.411921 53.299329 0
M  V30 11 C 39.866049 35.155399 61.323971 0
M  V30 12 C 38.275838 30.389325 58.365630 0
M  V30 13 C 38.786027 32.444943 60.401414 0
M  V30 14 C 38.597726 27.859697 56.084351 0 CFG=1
M  V30 15 C 39.589897 26.710293 56.558429 0 CFG=2
M  V30 16 C 38.423238 37.038505 61.242264 0 CFG=1
M  V30 17 C 37.413218 34.795887 60.385635 0 CFG=1
M  V30 18 C 36.665232 35.550843 59.249224 0
M  V30 19 C 39.457009 30.001296 57.470097 0
M  V30 20 S 36.014366 32.255147 59.970171 0 CHG=1
M  V30 21 O 38.550515 31.700115 55.380204 0
M  V30 22 N 38.678154 31.009654 60.757903 0
M  V30 23 O 35.673179 32.187321 61.613495 0
M  V30 24 O 39.644115 37.335943 63.396850 0
M  V30 25 F 36.842593 38.716331 61.767945 0
M  V30 26 C 39.142700 26.978190 52.258367 0
M  V30 27 C 38.147219 30.344511 55.333677 0
M  V30 28 C 39.107953 29.367830 56.095961 0 CFG=2
M  V30 29 C 38.487471 30.012108 59.844461 0
M  V30 30 C 39.054383 25.227828 56.501598 0
M  V30 31 C 36.791013 37.006448 63.346040 0
M  V30 32 C 37.565179 33.279767 59.883580 0 CFG=2
M  V30 33 O 36.676063 25.365646 56.486514 0
M  V30 34 C 38.123740 27.502206 54.640323 0
M  V30 35 C 37.046607 37.407074 61.890555 0 CFG=2
M  V30 36 C 37.673364 24.940250 57.106997 0
M  V30 37 C 39.728736 37.436923 61.990380 0 CFG=1
M  V30 38 O 37.645972 24.284165 58.165795 0 CHG=-1
M  V30 39 N 38.633945 35.659244 60.669721 0 CFG=2 CHG=1
M  V30 40 H 38.606183 31.478406 62.845618 0
M  V30 41 H 38.348843 29.803641 62.483162 0
M  V30 42 H 40.325813 29.584848 62.905276 0
M  V30 43 H 41.544241 36.219357 62.266855 0
M  V30 44 H 41.236436 36.650835 60.602991 0
M  V30 45 H 39.645366 28.619063 53.531616 0
M  V30 46 H 42.009744 27.473057 57.045472 0
M  V30 47 H 42.012678 27.470476 58.796600 0
M  V30 48 H 34.561618 32.797178 58.513318 0
M  V30 49 H 41.162435 26.537761 53.224378 0
M  V30 50 H 39.860590 25.472928 53.767699 0
M  V30 51 H 39.628886 34.715576 62.294114 0
M  V30 52 H 40.415718 34.446154 60.709716 0
M  V30 53 H 37.407102 29.806987 58.057325 0
M  V30 54 H 37.995825 31.406427 58.145719 0
M  V30 55 H 39.643282 32.563101 59.735617 0
M  V30 56 H 39.076368 32.883456 61.342734 0
M  V30 57 H 37.722885 27.823916 56.736842 0
M  V30 58 H 40.428337 26.728980 55.865617 0
M  V30 59 H 38.425061 37.643972 60.340787 0
M  V30 60 H 36.823341 34.778545 61.301442 0
M  V30 61 H 35.595812 35.370185 59.228333 0
M  V30 62 H 36.746301 36.634251 59.272034 0
M  V30 63 H 37.092755 35.287953 58.283305 0
M  V30 64 H 40.007471 30.910921 57.256720 0
M  V30 65 H 40.186730 29.442521 58.029460 0
M  V30 66 H 37.848806 32.216675 55.011086 0
M  V30 67 H 35.263463 33.013084 61.826201 0
M  V30 68 H 40.463830 37.620555 63.792658 0
M  V30 69 H 38.168518 26.540405 52.063186 0
M  V30 70 H 39.581811 27.528622 51.429916 0
M  V30 71 H 38.088012 30.110083 54.273169 0
M  V30 72 H 37.131084 30.271474 55.730486 0
M  V30 73 H 40.053321 29.370578 55.552626 0
M  V30 74 H 39.011523 24.841015 55.492686 0
M  V30 75 H 39.764679 24.562910 56.998782 0
M  V30 76 H 37.359262 36.137605 63.602398 0
M  V30 77 H 37.159654 37.736979 64.044072 0
M  V30 78 H 35.736478 36.837165 63.567010 0
M  V30 79 H 37.759776 33.359218 58.816304 0
M  V30 80 H 37.720227 26.496595 54.581048 0
M  V30 81 H 37.279934 28.116212 54.332577 0
M  V30 82 H 36.237856 37.008624 61.299066 0
M  V30 83 H 40.038122 38.452468 61.741289 0
M  V30 84 H 38.980949 35.858708 59.743514 0
M  V30 END ATOM
M  V30 BEGIN BOND
M  V30 1 1 2 1
M  V30 2 1 7 6
M  V30 3 2 8 6
M  V30 4 1 10 4
M  V30 5 1 11 3
M  V30 6 1 15 6
M  V30 7 1 15 14
M  V30 8 1 18 17
M  V30 9 1 19 12
M  V30 10 1 20 9
M  V30 11 1 22 1
M  V30 12 1 22 13
M  V30 13 1 23 20
M  V30 14 1 26 4
M  V30 15 1 26 10
M  V30 16 1 27 21
M  V30 17 1 28 14
M  V30 18 1 28 19
M  V30 19 1 28 27
M  V30 20 2 29 5
M  V30 21 1 29 12
M  V30 22 1 29 22
M  V30 23 1 30 15
M  V30 24 1 32 13
M  V30 25 1 32 17
M  V30 26 1 32 20
M  V30 27 1 34 4
M  V30 28 1 34 14
M  V30 29 1 35 16
M  V30 30 1 35 25
M  V30 31 1 35 31
M  V30 32 1 36 30
M  V30 33 2 36 33
M  V30 34 1 37 3
M  V30 35 1 37 16
M  V30 36 1 37 24
M  V30 37 1 38 36
M  V30 38 1 39 11
M  V30 39 1 39 16
M  V30 40 1 39 17
M  V30 41 1 40 1
M  V30 42 1 41 1
M  V30 43 1 42 2
M  V30 44 1 43 3
M  V30 45 1 44 3
M  V30 46 1 45 4
M  V30 47 1 46 7
M  V30 48 1 47 7
M  V30 49 1 48 9
M  V30 50 1 49 10
M  V30 51 1 50 10
M  V30 52 1 51 11
M  V30 53 1 52 11
M  V30 54 1 53 12
M  V30 55 1 54 12
M  V30 56 1 55 13
M  V30 57 1 56 13
M  V30 58 1 14 57 CFG=1
M  V30 59 1 15 58 CFG=3
M  V30 60 1 16 59 CFG=3
M  V30 61 1 17 60 CFG=1
M  V30 62 1 61 18
M  V30 63 1 62 18
M  V30 64 1 63 18
M  V30 65 1 64 19
M  V30 66 1 65 19
M  V30 67 1 66 21
M  V30 68 1 67 23
M  V30 69 1 68 24
M  V30 70 1 69 26
M  V30 71 1 70 26
M  V30 72 1 71 27
M  V30 73 1 72 27
M  V30 74 1 28 73 CFG=3
M  V30 75 1 74 30
M  V30 76 1 75 30
M  V30 77 1 76 31
M  V30 78 1 77 31
M  V30 79 1 78 31
M  V30 80 1 32 79 CFG=3
M  V30 81 1 80 34
M  V30 82 1 81 34
M  V30 83 1 35 82 CFG=3
M  V30 84 1 37 83 CFG=1
M  V30 85 1 39 84 CFG=3
M  V30 END BOND
M  V30 END CTAB
M  END
>  <i_epik_Tot_Q>  (1) 
1

>  <i_epik_Tot_abs_Q>  (1) 
3

>  <i_i_glide_confnum>  (1) 
5528

>  <i_i_glide_lignum>  (1) 
217

>  <i_i_glide_posenum>  (1) 
30

>  <i_i_glide_rotatable_bonds>  (1) 
24

>  <i_lp_mmshare_version>  (1) 
72125

>  <i_m_source_file_index>  (1) 
94

>  <i_f3d_flags>  (1) 
0

>  <num_sample>  (1) 
100

>  <b_lp_Chiralities_Consistent>  (1) 
1

>  <r_epik_Charging_Adjusted_Penalty>  (1) 
0.90916677635763199

>  <r_epik_Ionization_Penalty>  (1) 
0.45507897092921873

>  <r_epik_Ionization_Penalty_Charging>  (1) 
0.45507471778648678

>  <r_epik_Ionization_Penalty_Neutral>  (1) 
4.2531427319391784e-06

>  <r_epik_State_Penalty>  (1) 
0.45409205857114521

>  <r_glide_ring_energy>  (1) 
0

>  <r_i_docking_score>  (1) 
-6.6464317112668123

>  <r_i_glide_ecoul>  (1) 
-11.284749559988926

>  <r_i_glide_eff_state_penalty>  (1) 
0.45409205857114521

>  <r_i_glide_einternal>  (1) 
42.282962793210963

>  <r_i_glide_emodel>  (1) 
-45.142691039860779

>  <r_i_glide_emodel_strain>  (1) 
11.638648971501595

>  <r_i_glide_energy>  (1) 
-51.764318676206479

>  <r_i_glide_erotb>  (1) 
0.82188833391367333

>  <r_i_glide_esite>  (1) 
-0.081261066396308645

>  <r_i_glide_evdw>  (1) 
-40.479569116217554

>  <r_i_glide_gscore>  (1) 
-7.1005237698379577

>  <r_i_glide_gscore_strain>  (1) 
1.9096622428753989

>  <r_i_glide_hbond>  (1) 
-0.65222219205845333

>  <r_i_glide_ligand_efficiency>  (1) 
-0.17042132592991827

>  <r_i_glide_ligand_efficiency_ln>  (1) 
-1.4251836290794562

>  <r_i_glide_ligand_efficiency_sa>  (1) 
-0.5779347506271858

>  <r_i_glide_lipo>  (1) 
-3.3174471017156786

>  <r_i_glide_metal>  (1) 
-0

>  <r_i_glide_rewards>  (1) 
-2.0644530966473713

>  <r_lp_Energy>  (1) 
20.226026999999998

>  <s_epik_Chemistry_Notes>  (1) 
This compound contains an acetal/aminal-like group ( X-CH(R)-Y where X, Y are N, S, or O) that may be acid/base labile, releasing an aldehyde.

>  <s_epik_cmdline>  (1) 
J2VwaWtfcHl0aG9uJywgJy1waHQnLCAnMS4wJywgJy1waCcsICc3LjQnLCAnLXRuJywgJzgnLCAnLW1hJywgJzUwMCcsICctaW1hZScsICc8aW5maWxlLm1hZT4nLCAnLW9tYWUnLCAnPG91dGZpbGUubWFlPic=

>  <s_epik_input>  (1) 
W0NIMl0xW0NIMl1bQ0hdMVtDSDJdW0NAQEhdKFtDQEBIXShDKD1PKVtOSDJdKVtDSDJdQyg9TylbT0hdKVtDQEBIXShbQ0gyXVtPSF0pW0NIMl1bQ0gyXUMoPU8pTihbQ0gyXVtPSF0pW0NIMl1bQ0BASF0oW1MrXShbT0hdKVtPSF0pW0NASF0oW0NIM10pTjJbQ0gyXVtDSDJdW0NASF0oW09IXSlbQ0BASF0yW0NASF0oRilbQ0gzXQ==

>  <s_glide_docking_method>  (1) 
confgen

>  <s_i_glide_gridfile>  (1) 
gpcr_5ht2c_6bqh_protein_autoprepared_prepared

>  <s_lp_Force_Field>  (1) 
S-OPLS

>  <s_lp_Variant>  (1) 
DiffSBDD_93-5

>  <s_m_source_file>  (1) 
generated_GPCR_5HT2C_ligand_DiffSBDD_2026-06-23_prepared.sdf

>  <GenAI_Model>  (1) 
DiffSBDD

>  <Protein>  (1) 
GPCR_5HT2C

$$$$
DiffSBDD_12
     RDKit          3D

  0  0  0  0  0  0  0  0  0  0999 V3000
M  V30 BEGIN CTAB
M  V30 COUNTS 67 69 0 0 1
M  V30 BEGIN ATOM
M  V30 1 C 39.161595 29.082216 51.114898 0 CFG=1
M  V30 2 C 38.575557 28.312007 59.588499 0
M  V30 3 N 38.453456 28.937770 52.375418 0
M  V30 4 C 37.159726 24.983997 56.882288 0
M  V30 5 O 37.345022 30.655461 54.567736 0
M  V30 6 O 41.104933 30.537760 50.567738 0
M  V30 7 N 40.540138 31.021134 61.710561 0 CHG=-1
M  V30 8 C 41.163778 31.275809 62.893110 0
M  V30 9 O 38.046789 30.573065 62.051640 0
M  V30 10 C 39.218583 29.671909 53.354574 0 CFG=1
M  V30 11 C 40.329605 30.181882 66.316658 0
M  V30 12 S 39.567202 27.517173 55.947630 0
M  V30 13 C 38.755432 27.620304 58.490746 0
M  V30 14 C 38.172729 27.585711 52.824582 0
M  V30 15 C 41.334209 30.639906 65.282897 0 CFG=1
M  V30 16 C 38.105173 28.441693 55.247782 0 CFG=1
M  V30 17 O 39.916225 26.384723 55.075389 0
M  V30 18 O 42.460059 29.494524 66.957655 0
M  V30 19 C 39.797535 30.900818 52.645747 0
M  V30 20 C 42.437071 29.623204 65.540603 0 CFG=2
M  V30 21 C 39.083566 29.733886 59.767256 0
M  V30 22 N 41.146563 29.866249 67.474248 0
M  V30 23 O 42.047484 32.114797 63.055765 0
M  V30 24 O 39.678219 28.655757 62.105178 0
M  V30 25 C 38.500371 29.843367 54.711584 0 CFG=2
M  V30 26 C 37.393046 27.618627 54.143354 0
M  V30 27 C 38.500571 25.335636 57.532690 0
M  V30 28 C 38.885341 26.807311 57.468417 0
M  V30 29 O 40.599877 28.487676 56.339197 0
M  V30 30 C 39.811822 30.495533 51.150199 0 CFG=2
M  V30 31 C 40.173991 27.998144 50.805699 0
M  V30 32 C 43.824549 30.033181 65.034082 0
M  V30 33 S 39.306634 29.978619 61.580008 0
M  V30 34 N 40.763483 30.527271 63.943134 0
M  V30 35 H 38.445123 29.007726 50.307362 0
M  V30 36 H 38.050469 27.879916 60.427674 0
M  V30 37 H 36.845258 23.982032 57.175201 0
M  V30 38 H 36.377963 25.682593 57.178490 0
M  V30 39 H 37.232535 24.977182 55.799292 0
M  V30 40 H 37.012589 30.912739 55.419928 0
M  V30 41 H 41.388056 31.441486 50.531495 0
M  V30 42 H 40.045135 29.039855 53.588760 0
M  V30 43 H 39.587845 30.937904 66.555425 0
M  V30 44 H 39.801554 29.284534 65.991825 0
M  V30 45 H 37.645028 27.040620 52.049122 0
M  V30 46 H 39.099356 27.035791 52.966707 0
M  V30 47 H 41.665718 31.653684 65.516780 0
M  V30 48 H 37.437788 28.602205 56.090913 0
M  V30 49 H 39.166543 31.770342 52.806916 0
M  V30 50 H 40.786340 31.148668 53.028936 0
M  V30 51 H 42.157350 28.653317 65.120711 0
M  V30 52 H 40.044714 29.860991 59.272424 0
M  V30 53 H 38.376618 30.477392 59.400930 0
M  V30 54 H 40.786420 29.039293 67.936371 0
M  V30 55 H 39.159137 30.352416 55.416092 0
M  V30 56 H 36.445128 28.090081 53.933474 0
M  V30 57 H 37.176861 26.607481 54.469653 0
M  V30 58 H 39.300021 24.736252 57.095577 0
M  V30 59 H 38.445036 25.044763 58.578319 0
M  V30 60 H 39.238399 31.209607 50.566624 0
M  V30 61 H 40.445113 28.117287 49.767756 0
M  V30 62 H 41.056481 28.137734 51.430343 0
M  V30 63 H 39.784451 26.984284 50.891690 0
M  V30 64 H 43.836765 30.121941 63.948386 0
M  V30 65 H 44.128239 30.991197 65.457109 0
M  V30 66 H 44.572193 29.291123 65.316737 0
M  V30 67 H 40.043448 29.828656 63.798586 0
M  V30 END ATOM
M  V30 BEGIN BOND
M  V30 1 1 3 1
M  V30 2 1 8 7
M  V30 3 1 10 3
M  V30 4 2 13 2
M  V30 5 1 14 3
M  V30 6 1 15 11
M  V30 7 1 16 12
M  V30 8 2 17 12
M  V30 9 1 19 10
M  V30 10 1 20 15
M  V30 11 1 20 18
M  V30 12 1 21 2
M  V30 13 1 22 11
M  V30 14 1 22 18
M  V30 15 2 23 8
M  V30 16 1 25 5
M  V30 17 1 25 10
M  V30 18 1 25 16
M  V30 19 1 26 14
M  V30 20 1 26 16
M  V30 21 1 27 4
M  V30 22 1 28 12
M  V30 23 2 28 13
M  V30 24 1 28 27
M  V30 25 2 29 12
M  V30 26 1 30 1
M  V30 27 1 30 6
M  V30 28 1 30 19
M  V30 29 1 31 1
M  V30 30 1 32 20
M  V30 31 1 33 7
M  V30 32 2 33 9
M  V30 33 1 33 21
M  V30 34 2 33 24
M  V30 35 1 34 8
M  V30 36 1 34 15
M  V30 37 1 1 35 CFG=3
M  V30 38 1 36 2
M  V30 39 1 37 4
M  V30 40 1 38 4
M  V30 41 1 39 4
M  V30 42 1 40 5
M  V30 43 1 41 6
M  V30 44 1 10 42 CFG=1
M  V30 45 1 43 11
M  V30 46 1 44 11
M  V30 47 1 45 14
M  V30 48 1 46 14
M  V30 49 1 15 47 CFG=1
M  V30 50 1 16 48 CFG=1
M  V30 51 1 49 19
M  V30 52 1 50 19
M  V30 53 1 20 51 CFG=3
M  V30 54 1 52 21
M  V30 55 1 53 21
M  V30 56 1 54 22
M  V30 57 1 25 55 CFG=1
M  V30 58 1 56 26
M  V30 59 1 57 26
M  V30 60 1 58 27
M  V30 61 1 59 27
M  V30 62 1 30 60 CFG=3
M  V30 63 1 61 31
M  V30 64 1 62 31
M  V30 65 1 63 31
M  V30 66 1 64 32
M  V30 67 1 65 32
M  V30 68 1 66 32
M  V30 69 1 67 34
M  V30 END BOND
M  V30 END CTAB
M  END
>  <i_epik_Tot_Q>  (1) 
-1

>  <i_epik_Tot_abs_Q>  (1) 
1

>  <i_i_glide_confnum>  (1) 
138

>  <i_i_glide_lignum>  (1) 
21

>  <i_i_glide_posenum>  (1) 
99

>  <i_i_glide_rotatable_bonds>  (1) 
11

>  <i_lp_mmshare_version>  (1) 
72125

>  <i_m_source_file_index>  (1) 
13

>  <i_f3d_flags>  (1) 
0

>  <num_sample>  (1) 
100

>  <b_lp_Chiralities_Consistent>  (1) 
1

>  <r_epik_Charging_Adjusted_Penalty>  (1) 
0.54032877013992786

>  <r_epik_Ionization_Penalty>  (1) 
0.54134665641143098

>  <r_epik_Ionization_Penalty_Charging>  (1) 
0.00017066470294595392

>  <r_epik_Ionization_Penalty_Neutral>  (1) 
0.54117599170848507

>  <r_epik_State_Penalty>  (1) 
0.54015810543698195

>  <r_glide_ring_energy>  (1) 
0

>  <r_i_docking_score>  (1) 
-6.643923324895777

>  <r_i_glide_ecoul>  (1) 
-7.0672721839428227

>  <r_i_glide_eff_state_penalty>  (1) 
0.54015810543698195

>  <r_i_glide_einternal>  (1) 
3.9431947287917914

>  <r_i_glide_emodel>  (1) 
-59.786682307472553

>  <r_i_glide_emodel_strain>  (1) 
2.7484196807164096

>  <r_i_glide_energy>  (1) 
-49.568078020001295

>  <r_i_glide_erotb>  (1) 
0.6799936626702181

>  <r_i_glide_esite>  (1) 
-0.00012802387404221047

>  <r_i_glide_evdw>  (1) 
-42.500805836058468

>  <r_i_glide_gscore>  (1) 
-7.1840814303327587

>  <r_i_glide_gscore_strain>  (1) 
0

>  <r_i_glide_hbond>  (1) 
-0.020639525980779606

>  <r_i_glide_ligand_efficiency>  (1) 
-0.19540950955575814

>  <r_i_glide_ligand_efficiency_ln>  (1) 
-1.4678290182064511

>  <r_i_glide_ligand_efficiency_sa>  (1) 
-0.63305095323867933

>  <r_i_glide_lipo>  (1) 
-4.0534131498624912

>  <r_i_glide_metal>  (1) 
-0

>  <r_i_glide_rewards>  (1) 
-0.60476327389131546

>  <r_lp_Energy>  (1) 
-18.368317999999999

>  <s_epik_Chemistry_Notes>  (1) 
This compound has a N-S or N-O group and may undergo hydrolysis at high or low pH.

>  <s_epik_cmdline>  (1) 
J2VwaWtfcHl0aG9uJywgJy1waHQnLCAnMS4wJywgJy1waCcsICc3LjQnLCAnLXRuJywgJzgnLCAnLW1hJywgJzUwMCcsICctaW1hZScsICc8aW5maWxlLm1hZT4nLCAnLW9tYWUnLCAnPG91dGZpbGUubWFlPic=

>  <s_epik_input>  (1) 
W0NIM11bQ0BASF0xW0NASF0oW09IXSlbQ0gyXVtDQEhdKE4xMilbQ0BASF0oW09IXSlbQ0BASF0oW0NIMl1bQ0gyXTIpUyg9TykoPU8pQyhbQ0gyXVtDSDNdKT1DPVtDSF1bQ0gyXVMoPU8pKD1PKVtOSF1DKD1PKVtOSF1bQ0BIXTNbQ0gyXVtOSF1PW0NAQEhdM1tDSDNd

>  <s_glide_docking_method>  (1) 
confgen

>  <s_i_glide_gridfile>  (1) 
gpcr_5ht2c_6bqh_protein_autoprepared_prepared

>  <s_lp_Force_Field>  (1) 
S-OPLS

>  <s_lp_Variant>  (1) 
DiffSBDD_12-3

>  <s_m_source_file>  (1) 
generated_GPCR_5HT2C_ligand_DiffSBDD_2026-06-23_prepared.sdf

>  <GenAI_Model>  (1) 
DiffSBDD

>  <Protein>  (1) 
GPCR_5HT2C

$$$$
DiffSBDD_50
     RDKit          3D

  0  0  0  0  0  0  0  0  0  0999 V3000
M  V30 BEGIN CTAB
M  V30 COUNTS 65 68 0 0 1
M  V30 BEGIN ATOM
M  V30 1 C 38.670568 29.789362 59.668469 0 CFG=2
M  V30 2 F 40.006453 31.737750 54.967700 0
M  V30 3 C 38.263434 32.775434 61.739767 0
M  V30 4 O 41.130934 31.838939 61.159455 0 CHG=-1
M  V30 5 O 37.385285 36.153135 61.531765 0
M  V30 6 O 38.845139 33.927452 62.249283 0
M  V30 7 S 36.371774 31.211117 60.673919 0
M  V30 8 C 37.614439 29.509245 58.558437 0
M  V30 9 C 40.905750 35.171883 61.867308 0 CFG=2
M  V30 10 O 38.148000 26.486238 58.167757 0
M  V30 11 C 38.764304 36.156618 61.256104 0 CFG=1
M  V30 12 C 40.687550 36.086765 64.273590 0
M  V30 13 C 40.036174 27.847117 58.720418 0
M  V30 14 C 38.156376 28.790593 57.303603 0 CFG=2
M  V30 15 C 39.682966 30.470066 52.967752 0
M  V30 16 C 40.323234 31.324039 62.045857 0
M  V30 17 C 38.977130 27.525179 57.661364 0 CFG=2
M  V30 18 C 37.504982 25.695070 57.181616 0
M  V30 19 F 38.279008 27.111653 52.505708 0
M  V30 20 C 38.585784 28.382223 54.505424 0
M  V30 21 C 40.718584 36.391802 62.767136 0 CFG=2
M  V30 22 C 39.416474 28.468872 59.979209 0
M  V30 23 C 39.245122 29.289002 52.340025 0
M  V30 24 C 39.457199 37.096329 62.258562 0
M  V30 25 C 38.085836 30.450822 60.973783 0 CFG=2
M  V30 26 C 39.032577 29.571175 55.140634 0
M  V30 27 C 39.499575 34.780736 61.338197 0 CFG=2
M  V30 28 C 38.884335 31.605434 61.597803 0
M  V30 29 N 38.950121 29.743919 56.537538 0
M  V30 30 C 39.578599 30.606868 54.364897 0
M  V30 31 C 38.696722 28.246615 53.108506 0
M  V30 32 O 39.645064 34.214129 60.054057 0
M  V30 33 O 36.149800 33.744011 61.367791 0
M  V30 34 O 41.644980 34.153169 62.501928 0
M  V30 35 C 36.906209 32.782298 61.307419 0
M  V30 36 H 39.386795 30.487776 59.235359 0
M  V30 37 H 37.012689 36.963322 61.221731 0
M  V30 38 H 36.788409 28.937686 58.971955 0
M  V30 39 H 37.166844 30.444994 58.218616 0
M  V30 40 H 41.486068 35.498147 61.001105 0
M  V30 41 H 38.845234 36.536984 60.240758 0
M  V30 42 H 40.045146 35.242172 64.486188 0
M  V30 43 H 41.682600 35.834680 64.641703 0
M  V30 44 H 40.326352 36.937350 64.851839 0
M  V30 45 H 40.775882 28.533045 58.305082 0
M  V30 46 H 40.578297 26.937776 58.967841 0
M  V30 47 H 37.276856 28.525339 56.723516 0
M  V30 48 H 40.103781 31.271229 52.377702 0
M  V30 49 H 40.347322 31.709170 63.066251 0
M  V30 50 H 40.360140 30.260139 62.276037 0
M  V30 51 H 39.510562 27.143034 56.790523 0
M  V30 52 H 36.896874 24.934813 57.671835 0
M  V30 53 H 36.846292 26.286409 56.548482 0
M  V30 54 H 38.231679 25.183345 56.549297 0
M  V30 55 H 38.167079 27.576162 55.080420 0
M  V30 56 H 41.591109 37.017245 62.615008 0
M  V30 57 H 40.213662 28.627630 60.702279 0
M  V30 58 H 38.731009 27.755471 60.437361 0
M  V30 59 H 39.329448 29.182701 51.267764 0
M  V30 60 H 38.798700 37.337940 63.094609 0
M  V30 61 H 39.709037 38.041332 61.775400 0
M  V30 62 H 38.045146 29.737760 61.789775 0
M  V30 63 H 39.132555 30.656475 56.933209 0
M  V30 64 H 40.105573 33.386990 60.183246 0
M  V30 65 H 41.472815 33.319930 62.043146 0
M  V30 END ATOM
M  V30 BEGIN BOND
M  V30 1 1 6 3
M  V30 2 1 8 1
M  V30 3 1 11 5
M  V30 4 1 14 8
M  V30 5 1 16 4
M  V30 6 1 17 10
M  V30 7 1 17 13
M  V30 8 1 17 14
M  V30 9 1 18 10
M  V30 10 1 21 9
M  V30 11 1 21 12
M  V30 12 1 22 1
M  V30 13 1 22 13
M  V30 14 2 23 15
M  V30 15 1 24 11
M  V30 16 1 24 21
M  V30 17 1 25 1
M  V30 18 1 25 7
M  V30 19 1 26 20
M  V30 20 1 27 6 CFG=1
M  V30 21 1 27 9
M  V30 22 1 27 11
M  V30 23 2 28 3
M  V30 24 1 28 16
M  V30 25 1 28 25
M  V30 26 1 29 14
M  V30 27 1 29 26
M  V30 28 1 30 2
M  V30 29 1 30 15
M  V30 30 2 30 26
M  V30 31 1 31 19
M  V30 32 2 31 20
M  V30 33 1 31 23
M  V30 34 1 32 27
M  V30 35 1 34 9
M  V30 36 1 35 3
M  V30 37 1 35 7
M  V30 38 2 35 33
M  V30 39 1 1 36 CFG=3
M  V30 40 1 37 5
M  V30 41 1 38 8
M  V30 42 1 39 8
M  V30 43 1 9 40 CFG=3
M  V30 44 1 11 41 CFG=3
M  V30 45 1 42 12
M  V30 46 1 43 12
M  V30 47 1 44 12
M  V30 48 1 45 13
M  V30 49 1 46 13
M  V30 50 1 14 47 CFG=3
M  V30 51 1 48 15
M  V30 52 1 49 16
M  V30 53 1 50 16
M  V30 54 1 17 51 CFG=3
M  V30 55 1 52 18
M  V30 56 1 53 18
M  V30 57 1 54 18
M  V30 58 1 55 20
M  V30 59 1 21 56 CFG=1
M  V30 60 1 57 22
M  V30 61 1 58 22
M  V30 62 1 59 23
M  V30 63 1 60 24
M  V30 64 1 61 24
M  V30 65 1 25 62 CFG=1
M  V30 66 1 63 29
M  V30 67 1 64 32
M  V30 68 1 65 34
M  V30 END BOND
M  V30 END CTAB
M  END
>  <i_epik_Tot_Q>  (1) 
-1

>  <i_epik_Tot_abs_Q>  (1) 
1

>  <i_i_glide_confnum>  (1) 
260

>  <i_i_glide_lignum>  (1) 
106

>  <i_i_glide_posenum>  (1) 
215

>  <i_i_glide_rotatable_bonds>  (1) 
10

>  <i_lp_mmshare_version>  (1) 
72125

>  <i_m_source_file_index>  (1) 
51

>  <i_f3d_flags>  (1) 
0

>  <num_sample>  (1) 
100

>  <b_lp_Chiralities_Consistent>  (1) 
1

>  <r_epik_Charging_Adjusted_Penalty>  (1) 
1.033121990919972

>  <r_epik_Ionization_Penalty>  (1) 
0.51659959183111048

>  <r_epik_Ionization_Penalty_Charging>  (1) 
0.51656099545998602

>  <r_epik_Ionization_Penalty_Neutral>  (1) 
3.8596371124435187e-05

>  <r_epik_State_Penalty>  (1) 
0.51656099545998602

>  <r_glide_ring_energy>  (1) 
0.86549639998844574

>  <r_i_docking_score>  (1) 
-6.6384540749260781

>  <r_i_glide_ecoul>  (1) 
-0.56505936314854621

>  <r_i_glide_eff_state_penalty>  (1) 
0.51656099545998602

>  <r_i_glide_einternal>  (1) 
5.4248361416594619

>  <r_i_glide_emodel>  (1) 
-54.782187887541397

>  <r_i_glide_emodel_strain>  (1) 
3.7991123131415492

>  <r_i_glide_energy>  (1) 
-42.004428014904924

>  <r_i_glide_erotb>  (1) 
0.38736490325272716

>  <r_i_glide_esite>  (1) 
0

>  <r_i_glide_evdw>  (1) 
-41.439368651756375

>  <r_i_glide_gscore>  (1) 
-7.1550150703860638

>  <r_i_glide_gscore_strain>  (1) 
0

>  <r_i_glide_hbond>  (1) 
-0.01183830386458967

>  <r_i_glide_ligand_efficiency>  (1) 
-0.18967011642645937

>  <r_i_glide_ligand_efficiency_ln>  (1) 
-1.4572880019963994

>  <r_i_glide_ligand_efficiency_sa>  (1) 
-0.62042352789213873

>  <r_i_glide_lipo>  (1) 
-4.2252039690763112

>  <r_i_glide_metal>  (1) 
-0

>  <r_i_glide_rewards>  (1) 
-1.1486103636377896

>  <r_lp_Energy>  (1) 
68.171737999999991

>  <r_lp_tautomer_probability>  (1) 
0.99999998906363929

>  <s_epik_cmdline>  (1) 
J2VwaWtfcHl0aG9uJywgJy1waHQnLCAnMS4wJywgJy1waCcsICc3LjQnLCAnLXRuJywgJzgnLCAnLW1hJywgJzUwMCcsICctaW1hZScsICc8aW5maWxlLm1hZT4nLCAnLW9tYWUnLCAnPG91dGZpbGUubWFlPic=

>  <s_epik_input>  (1) 
W09IXVtDQEhdMVtDSDJdW0NAQEhdKFtDSDNdKVtDQEBIXShbT0hdKVtDQEBdMShbT0hdKU9DMj1DKFtDSDJdW09IXSlbQ0BASF0oU0MyPU8pW0NAQEhdM1tDSDJdW0NASF0oW0NASF0oT1tDSDNdKVtDSDJdW0NIMl0zKVtOSF1jNFtjSF1jKEYpW2NIXVtjSF1jNEY=

>  <s_glide_docking_method>  (1) 
confgen

>  <s_i_glide_gridfile>  (1) 
gpcr_5ht2c_6bqh_protein_autoprepared_prepared

>  <s_lp_Force_Field>  (1) 
S-OPLS

>  <s_lp_Variant>  (1) 
DiffSBDD_50-4

>  <s_m_source_file>  (1) 
generated_GPCR_5HT2C_ligand_DiffSBDD_2026-06-23_prepared.sdf

>  <GenAI_Model>  (1) 
DiffSBDD

>  <Protein>  (1) 
GPCR_5HT2C

$$$$
DiffSBDD_62
     RDKit          3D

  0  0  0  0  0  0  0  0  0  0999 V3000
M  V30 BEGIN CTAB
M  V30 COUNTS 79 83 0 0 1
M  V30 BEGIN ATOM
M  V30 1 C 38.152024 27.849828 57.013058 0
M  V30 2 C 42.454773 33.369033 66.027235 0
M  V30 3 C 37.364873 34.823916 61.744713 0
M  V30 4 C 40.568679 27.655531 57.922552 0
M  V30 5 C 38.685936 27.565086 51.400683 0
M  V30 6 C 41.743929 30.843510 66.261573 0
M  V30 7 C 38.017424 33.903218 60.691883 0 CFG=2
M  V30 8 C 41.201829 32.374154 64.364949 0
M  V30 9 C 39.928950 31.918639 62.434974 0
M  V30 10 O 37.589334 28.273046 54.088036 0
M  V30 11 C 39.300183 27.270353 52.750744 0
M  V30 12 C 41.074159 35.470313 62.347986 0
M  V30 13 C 39.342327 28.528597 57.716895 0
M  V30 14 C 38.404543 27.360003 53.941919 0
M  V30 15 C 40.846471 34.082049 62.770439 0
M  V30 16 N 41.385539 33.619771 63.944120 0
M  V30 17 C 37.004094 36.296561 61.418294 0
M  V30 18 O 38.045090 33.404641 57.037837 0
M  V30 19 C 39.650196 28.548142 52.007841 0
M  V30 20 N 37.411096 25.983532 55.594789 0
M  V30 21 N 42.171218 34.445214 64.867430 0
M  V30 22 N 39.318007 29.737926 58.114766 0
M  V30 23 C 38.210869 30.632192 57.860362 0
M  V30 24 C 41.749459 32.146945 65.486078 0
M  V30 25 C 40.143792 33.322854 62.018161 0
M  V30 26 C 40.327107 35.295842 60.933266 0
M  V30 27 N 38.589320 26.370929 54.846579 0
M  V30 28 C 37.565676 32.932046 58.278736 0 CFG=2
M  V30 29 C 38.475135 26.513376 56.312025 0 CFG=1
M  V30 30 C 38.290976 37.252741 63.441849 0
M  V30 31 C 36.945977 37.198393 62.690507 0
M  V30 32 C 39.583475 33.873586 60.757864 0 CFG=2
M  V30 33 C 35.875391 36.778492 63.700968 0
M  V30 34 C 37.398454 34.090156 59.293265 0
M  V30 35 N 38.445136 31.831176 58.657091 0
M  V30 36 N 40.436520 31.468511 63.543651 0
M  V30 37 H 37.419227 27.626220 57.789320 0
M  V30 38 H 37.654217 28.562910 56.367333 0
M  V30 39 H 42.016876 33.696074 66.970539 0
M  V30 40 H 43.525370 33.202091 66.147703 0
M  V30 41 H 36.465074 34.338522 62.127199 0
M  V30 42 H 38.088677 34.834864 62.538858 0
M  V30 43 H 40.327700 26.783835 58.530088 0
M  V30 44 H 40.978999 27.330475 56.966309 0
M  V30 45 H 41.349579 28.215461 58.440673 0
M  V30 46 H 39.022576 26.956322 50.564123 0
M  V30 47 H 37.642599 27.862565 51.367569 0
M  V30 48 H 42.766656 30.497540 66.416169 0
M  V30 49 H 41.279929 30.988410 67.237718 0
M  V30 50 H 41.195175 30.061310 65.734488 0
M  V30 51 H 37.698394 32.905361 60.995440 0
M  V30 52 H 39.329147 31.298273 61.763713 0
M  V30 53 H 40.047115 26.480340 52.771775 0
M  V30 54 H 40.622442 36.177423 63.031330 0
M  V30 55 H 42.109797 35.738950 62.231377 0
M  V30 56 H 37.714336 36.733785 60.722909 0
M  V30 57 H 36.057815 36.324240 60.870299 0
M  V30 58 H 39.240894 29.491556 52.363024 0
M  V30 59 H 40.645462 28.617104 51.572990 0
M  V30 60 H 36.605979 26.577158 55.443974 0
M  V30 61 H 43.041021 34.705355 64.407599 0
M  V30 62 H 37.251836 30.189209 58.134576 0
M  V30 63 H 38.175020 30.885613 56.799919 0
M  V30 64 H 41.094565 35.338033 60.167842 0
M  V30 65 H 39.686411 36.137762 60.722454 0
M  V30 66 H 36.571163 32.537684 58.176107 0
M  V30 67 H 39.009199 25.782258 56.914627 0
M  V30 68 H 38.647014 36.283242 63.766175 0
M  V30 69 H 39.067296 37.737526 62.850554 0
M  V30 70 H 38.209716 37.737690 64.403881 0
M  V30 71 H 36.705424 38.212288 62.369744 0
M  V30 72 H 40.022587 33.336165 59.921325 0
M  V30 73 H 36.045237 35.737797 63.943189 0
M  V30 74 H 35.946189 37.337755 64.632136 0
M  V30 75 H 34.846707 36.890551 63.367595 0
M  V30 76 H 37.645134 35.054782 58.860012 0
M  V30 77 H 36.321291 34.184503 59.444145 0
M  V30 78 H 38.288334 31.595725 59.623412 0
M  V30 79 H 37.331239 33.330909 56.415880 0
M  V30 END ATOM
M  V30 BEGIN BOND
M  V30 1 1 7 3
M  V30 2 1 11 5
M  V30 3 1 13 1
M  V30 4 1 13 4
M  V30 5 2 14 10
M  V30 6 1 14 11
M  V30 7 1 15 12
M  V30 8 1 16 8
M  V30 9 1 16 15
M  V30 10 1 17 3
M  V30 11 1 19 5
M  V30 12 1 19 11
M  V30 13 1 21 2
M  V30 14 1 21 16
M  V30 15 2 22 13
M  V30 16 1 23 22
M  V30 17 1 24 2
M  V30 18 1 24 6
M  V30 19 2 24 8
M  V30 20 1 25 9
M  V30 21 2 25 15
M  V30 22 1 26 12
M  V30 23 1 27 14
M  V30 24 1 27 20
M  V30 25 1 28 18
M  V30 26 1 29 1
M  V30 27 1 29 20
M  V30 28 1 29 27
M  V30 29 1 31 17
M  V30 30 1 31 30
M  V30 31 1 32 7
M  V30 32 1 32 25
M  V30 33 1 32 26
M  V30 34 1 33 31
M  V30 35 1 34 7
M  V30 36 1 34 28
M  V30 37 1 35 23
M  V30 38 1 35 28
M  V30 39 1 36 8
M  V30 40 2 36 9
M  V30 41 1 37 1
M  V30 42 1 38 1
M  V30 43 1 39 2
M  V30 44 1 40 2
M  V30 45 1 41 3
M  V30 46 1 42 3
M  V30 47 1 43 4
M  V30 48 1 44 4
M  V30 49 1 45 4
M  V30 50 1 46 5
M  V30 51 1 47 5
M  V30 52 1 48 6
M  V30 53 1 49 6
M  V30 54 1 50 6
M  V30 55 1 7 51 CFG=1
M  V30 56 1 52 9
M  V30 57 1 53 11
M  V30 58 1 54 12
M  V30 59 1 55 12
M  V30 60 1 56 17
M  V30 61 1 57 17
M  V30 62 1 58 19
M  V30 63 1 59 19
M  V30 64 1 60 20
M  V30 65 1 61 21
M  V30 66 1 62 23
M  V30 67 1 63 23
M  V30 68 1 64 26
M  V30 69 1 65 26
M  V30 70 1 28 66 CFG=3
M  V30 71 1 29 67 CFG=1
M  V30 72 1 68 30
M  V30 73 1 69 30
M  V30 74 1 70 30
M  V30 75 1 71 31
M  V30 76 1 32 72 CFG=3
M  V30 77 1 73 33
M  V30 78 1 74 33
M  V30 79 1 75 33
M  V30 80 1 76 34
M  V30 81 1 77 34
M  V30 82 1 78 35
M  V30 83 1 79 18
M  V30 END BOND
M  V30 END CTAB
M  END
>  <i_epik_Tot_Q>  (1) 
0

>  <i_epik_Tot_abs_Q>  (1) 
0

>  <i_i_glide_confnum>  (1) 
3258

>  <i_i_glide_lignum>  (1) 
135

>  <i_i_glide_posenum>  (1) 
261

>  <i_i_glide_rotatable_bonds>  (1) 
14

>  <i_lp_mmshare_version>  (1) 
72125

>  <i_m_source_file_index>  (1) 
63

>  <i_f3d_flags>  (1) 
0

>  <num_sample>  (1) 
100

>  <b_lp_Chiralities_Consistent>  (1) 
1

>  <r_epik_Charging_Adjusted_Penalty>  (1) 
0.66759273229091232

>  <r_epik_Ionization_Penalty>  (1) 
2.307606927441598

>  <r_epik_Ionization_Penalty_Charging>  (1) 
0

>  <r_epik_Ionization_Penalty_Neutral>  (1) 
2.307606927441598

>  <r_epik_State_Penalty>  (1) 
0.66759273229091232

>  <r_glide_ring_energy>  (1) 
0

>  <r_i_docking_score>  (1) 
-6.6339716170860248

>  <r_i_glide_ecoul>  (1) 
-2.6090344755083903

>  <r_i_glide_eff_state_penalty>  (1) 
0.66759273229091232

>  <r_i_glide_einternal>  (1) 
13.884512382442161

>  <r_i_glide_emodel>  (1) 
-57.373990547325221

>  <r_i_glide_emodel_strain>  (1) 
6.1221887798799912

>  <r_i_glide_energy>  (1) 
-45.332127633354162

>  <r_i_glide_erotb>  (1) 
0.98835574197518972

>  <r_i_glide_esite>  (1) 
-0.15869417195208593

>  <r_i_glide_evdw>  (1) 
-42.723093157845774

>  <r_i_glide_gscore>  (1) 
-7.3015643493769371

>  <r_i_glide_gscore_strain>  (1) 
0.5305471949699978

>  <r_i_glide_hbond>  (1) 
-0.058394384220474875

>  <r_i_glide_ligand_efficiency>  (1) 
-0.18427698936350068

>  <r_i_glide_ligand_efficiency_ln>  (1) 
-1.4473533776475633

>  <r_i_glide_ligand_efficiency_sa>  (1) 
-0.6084692125236083

>  <r_i_glide_lipo>  (1) 
-3.9770136152854914

>  <r_i_glide_metal>  (1) 
-0

>  <r_i_glide_rewards>  (1) 
-2.0988552856455254

>  <r_lp_Energy>  (1) 
30.718252999999997

>  <r_lp_tautomer_probability>  (1) 
0.49999399997599986

>  <s_epik_Chemistry_Notes>  (1) 
This compound has an imine and may undergo hydrolysis. This compound contains an acetal/aminal-like group ( X-CH(R)-Y where X, Y are N, S, or O) that may be acid/base labile, releasing an aldehyde.

>  <s_epik_cmdline>  (1) 
J2VwaWtfcHl0aG9uJywgJy1waHQnLCAnMS4wJywgJy1waCcsICc3LjQnLCAnLXRuJywgJzgnLCAnLW1hJywgJzUwMCcsICctaW1hZScsICc8aW5maWxlLm1hZT4nLCAnLW9tYWUnLCAnPG91dGZpbGUubWFlPic=

>  <s_epik_input>  (1) 
W0NIMl0xW0NIMl1bQ0hdMUMoPU8pTjJbTkhdW0NAQEhdMltDSDJdL0MoW0NIM10pPU5cW0NIMl1bTkhdW0NASF0oW09IXSlbQ0gyXVtDQEhdKFtDSDJdW0NIMl1bQ0hdKFtDSDNdKVtDSDNdKVtDQEBIXShbQ0gyXVtDSDJdMylDKFtDSF09TjQpPUMzTihDND01KVtOSF1bQ0gyXUM1W0NIM10=

>  <s_glide_docking_method>  (1) 
confgen

>  <s_i_glide_gridfile>  (1) 
gpcr_5ht2c_6bqh_protein_autoprepared_prepared

>  <s_lp_Force_Field>  (1) 
S-OPLS

>  <s_lp_Variant>  (1) 
DiffSBDD_62-1

>  <s_m_source_file>  (1) 
generated_GPCR_5HT2C_ligand_DiffSBDD_2026-06-23_prepared.sdf

>  <GenAI_Model>  (1) 
DiffSBDD

>  <Protein>  (1) 
GPCR_5HT2C

$$$$
DiffSBDD_66
     RDKit          3D

  0  0  0  0  0  0  0  0  0  0999 V3000
M  V30 BEGIN CTAB
M  V30 COUNTS 62 65 0 0 1
M  V30 BEGIN ATOM
M  V30 1 C 39.135150 34.089735 60.011295 0
M  V30 2 C 39.976564 35.327584 60.662291 0
M  V30 3 C 40.610744 31.342184 62.496093 0 CFG=2
M  V30 4 N 38.393612 29.671975 57.883530 0
M  V30 5 O 38.978221 27.338253 51.738078 0 CHG=-1
M  V30 6 O 40.445156 28.973156 62.653421 0
M  V30 7 O 42.021849 31.281533 62.606043 0
M  V30 8 C 39.425205 26.678419 53.997846 0
M  V30 9 C 39.194012 33.400883 62.237867 0
M  V30 10 C 40.845144 33.552494 63.832946 0
M  V30 11 N 38.720911 33.134382 61.026591 0
M  V30 12 C 42.156878 33.825592 66.006751 0
M  V30 13 C 38.583282 28.046615 55.854357 0
M  V30 14 N 38.199092 29.937496 59.194094 0
M  V30 15 C 41.245143 34.103110 68.318166 0
M  V30 16 C 40.113096 32.733032 62.915014 0
M  V30 17 C 41.132879 35.038497 63.371644 0 CFG=1
M  V30 18 C 41.206304 35.227372 61.740961 0
M  V30 19 C 40.331047 36.137738 65.440602 0
M  V30 20 C 38.216771 31.264805 59.283198 0
M  V30 21 C 37.991277 31.917120 60.634264 0
M  V30 22 C 40.006875 30.164832 63.275731 0
M  V30 23 C 38.445101 31.879066 58.007387 0
M  V30 24 C 38.106542 28.669942 53.530038 0
M  V30 25 C 40.347445 36.101815 64.128890 0
M  V30 26 C 38.446558 28.301205 57.358207 0
M  V30 27 C 39.300249 26.905828 55.380029 0
M  V30 28 O 38.399841 27.381650 58.175949 0
M  V30 29 Cl 40.045125 25.799540 56.482887 0
M  V30 30 C 38.571628 30.827600 57.151675 0
M  V30 31 C 40.455178 35.684977 66.664975 0
M  V30 32 C 41.345593 33.038455 64.984367 0
M  V30 33 C 37.970313 28.913483 54.909693 0
M  V30 34 C 41.268167 34.531491 67.043794 0
M  V30 35 C 38.839045 27.561136 53.075963 0
M  V30 36 H 38.270280 34.452363 59.455323 0
M  V30 37 H 39.275516 36.087749 61.010372 0
M  V30 38 H 40.411975 31.197790 61.435306 0
M  V30 39 H 41.390564 28.970182 62.663307 0
M  V30 40 H 42.268202 31.592707 63.464422 0
M  V30 41 H 39.981884 25.823703 53.644644 0
M  V30 42 H 38.961442 34.411260 62.533943 0
M  V30 43 H 40.441414 35.737706 59.782292 0
M  V30 44 H 42.810943 34.556602 65.537498 0
M  V30 45 H 42.833606 33.128615 66.502701 0
M  V30 46 H 40.632027 34.593213 69.061228 0
M  V30 47 H 41.839705 33.257952 68.632803 0
M  V30 48 H 39.806221 33.584744 59.320780 0
M  V30 49 H 42.165260 35.231569 63.655174 0
M  V30 50 H 41.756249 36.156562 61.602041 0
M  V30 51 H 41.877738 34.454850 61.367990 0
M  V30 52 H 36.936976 32.188633 60.689421 0
M  V30 53 H 38.106366 31.168055 61.414845 0
M  V30 54 H 40.300855 30.159301 64.324408 0
M  V30 55 H 38.918541 30.195958 63.248106 0
M  V30 56 H 38.509886 32.926084 57.761141 0
M  V30 57 H 37.645063 29.336167 52.818556 0
M  V30 58 H 39.820077 36.836211 63.539379 0
M  V30 59 H 38.776971 30.823363 56.099749 0
M  V30 60 H 39.928317 36.194401 67.458592 0
M  V30 61 H 41.145601 32.008213 65.235434 0
M  V30 62 H 37.380826 29.753252 55.238014 0
M  V30 END ATOM
M  V30 BEGIN BOND
M  V30 1 1 2 1
M  V30 2 1 7 3
M  V30 3 1 11 1
M  V30 4 1 11 9
M  V30 5 1 14 4
M  V30 6 1 16 3
M  V30 7 2 16 9
M  V30 8 1 16 10
M  V30 9 1 17 10
M  V30 10 1 18 2
M  V30 11 1 18 17
M  V30 12 2 20 14
M  V30 13 1 21 11
M  V30 14 1 21 20
M  V30 15 1 22 3
M  V30 16 1 22 6
M  V30 17 1 23 20
M  V30 18 1 25 17
M  V30 19 2 25 19
M  V30 20 1 26 4
M  V30 21 1 26 13
M  V30 22 1 27 8
M  V30 23 2 27 13
M  V30 24 2 28 26
M  V30 25 1 29 27
M  V30 26 1 30 4
M  V30 27 2 30 23
M  V30 28 2 31 19
M  V30 29 2 32 10
M  V30 30 1 32 12
M  V30 31 1 33 13
M  V30 32 2 33 24
M  V30 33 1 34 12
M  V30 34 2 34 15
M  V30 35 1 34 31
M  V30 36 1 35 5
M  V30 37 2 35 8
M  V30 38 1 35 24
M  V30 39 1 36 1
M  V30 40 1 37 2
M  V30 41 1 3 38 CFG=3
M  V30 42 1 39 6
M  V30 43 1 40 7
M  V30 44 1 41 8
M  V30 45 1 42 9
M  V30 46 1 43 2
M  V30 47 1 44 12
M  V30 48 1 45 12
M  V30 49 1 46 15
M  V30 50 1 47 15
M  V30 51 1 48 1
M  V30 52 1 17 49 CFG=1
M  V30 53 1 50 18
M  V30 54 1 51 18
M  V30 55 1 52 21
M  V30 56 1 53 21
M  V30 57 1 54 22
M  V30 58 1 55 22
M  V30 59 1 56 23
M  V30 60 1 57 24
M  V30 61 1 58 25
M  V30 62 1 59 30
M  V30 63 1 60 31
M  V30 64 1 61 32
M  V30 65 1 62 33
M  V30 END BOND
M  V30 END CTAB
M  END
>  <i_epik_Tot_Q>  (1) 
-1

>  <i_epik_Tot_abs_Q>  (1) 
1

>  <i_i_glide_confnum>  (1) 
154

>  <i_i_glide_lignum>  (1) 
145

>  <i_i_glide_posenum>  (1) 
271

>  <i_i_glide_rotatable_bonds>  (1) 
8

>  <i_lp_mmshare_version>  (1) 
72125

>  <i_m_source_file_index>  (1) 
67

>  <i_f3d_flags>  (1) 
0

>  <num_sample>  (1) 
100

>  <b_lp_Chiralities_Consistent>  (1) 
1

>  <r_epik_Charging_Adjusted_Penalty>  (1) 
0.13314888727576835

>  <r_epik_Ionization_Penalty>  (1) 
0.066709733675270222

>  <r_epik_Ionization_Penalty_Charging>  (1) 
0.066574443637884173

>  <r_epik_Ionization_Penalty_Neutral>  (1) 
0.00013529003738605556

>  <r_epik_State_Penalty>  (1) 
0.066574443637884159

>  <r_glide_ring_energy>  (1) 
0

>  <r_i_docking_score>  (1) 
-6.633326019094735

>  <r_i_glide_ecoul>  (1) 
-0.55718062536729773

>  <r_i_glide_eff_state_penalty>  (1) 
0.066574443637884159

>  <r_i_glide_einternal>  (1) 
17.032714980516257

>  <r_i_glide_emodel>  (1) 
-51.740045497518722

>  <r_i_glide_emodel_strain>  (1) 
0.51329127915340678

>  <r_i_glide_energy>  (1) 
-42.947370610691124

>  <r_i_glide_erotb>  (1) 
0.50284807503681039

>  <r_i_glide_esite>  (1) 
-0.017901796594727497

>  <r_i_glide_evdw>  (1) 
-42.390189985323829

>  <r_i_glide_gscore>  (1) 
-6.6999004627326189

>  <r_i_glide_gscore_strain>  (1) 
0

>  <r_i_glide_hbond>  (1) 
-0.16132665935919208

>  <r_i_glide_ligand_efficiency>  (1) 
-0.18952360054556386

>  <r_i_glide_ligand_efficiency_ln>  (1) 
-1.4561622799303524

>  <r_i_glide_ligand_efficiency_sa>  (1) 
-0.6199442647302339

>  <r_i_glide_lipo>  (1) 
-3.9252742460731413

>  <r_i_glide_metal>  (1) 
-0

>  <r_i_glide_rewards>  (1) 
-0.89515924267108182

>  <r_lp_Energy>  (1) 
64.718769999999992

>  <r_lp_tautomer_probability>  (1) 
0.99999944244275329

>  <s_epik_cmdline>  (1) 
J2VwaWtfcHl0aG9uJywgJy1waHQnLCAnMS4wJywgJy1waCcsICc3LjQnLCAnLXRuJywgJzgnLCAnLW1hJywgJzUwMCcsICctaW1hZScsICc8aW5maWxlLm1hZT4nLCAnLW9tYWUnLCAnPG91dGZpbGUubWFlPic=

>  <s_epik_input>  (1) 
W0NIXTEvW0NIMl1DKD1bQ0gyXSlbQ0hdPUM9W0NIXVtDQEBIXShDPTFcMilbQ0gyXS9bQ0hdPVtDSF1cTihbQ0gyXVtDQEBIXTJbQ0BASF0oW09IXSlbQ0gyXVtPSF0pW0NIMl1jKFtjSF1bY0hdMylubjNDKD1PKWM0YyhDbClbY0hdYyhbT0hdKVtjSF1bY0hdNA==

>  <s_glide_docking_method>  (1) 
confgen

>  <s_i_glide_gridfile>  (1) 
gpcr_5ht2c_6bqh_protein_autoprepared_prepared

>  <s_lp_Force_Field>  (1) 
S-OPLS

>  <s_lp_Variant>  (1) 
DiffSBDD_66-1

>  <s_m_source_file>  (1) 
generated_GPCR_5HT2C_ligand_DiffSBDD_2026-06-23_prepared.sdf

>  <GenAI_Model>  (1) 
DiffSBDD

>  <Protein>  (1) 
GPCR_5HT2C

$$$$
DiffSBDD_75
     RDKit          3D

  0  0  0  0  0  0  0  0  0  0999 V3000
M  V30 BEGIN CTAB
M  V30 COUNTS 77 78 0 0 1
M  V30 BEGIN ATOM
M  V30 1 C 39.652481 30.723840 61.666885 0
M  V30 2 C 36.312522 32.075276 60.895066 0
M  V30 3 O 39.655039 27.284082 58.921184 0
M  V30 4 C 42.041794 30.542511 63.381134 0
M  V30 5 C 38.697394 26.339239 56.496142 0 CFG=2
M  V30 6 C 40.972152 35.486880 64.444360 0
M  V30 7 C 39.806489 28.221877 57.866579 0 CFG=2
M  V30 8 C 41.527885 34.727206 65.496552 0
M  V30 9 O 36.882737 25.190961 55.405038 0
M  V30 10 C 39.359045 28.506145 55.294433 0 CFG=1
M  V30 11 O 39.645236 36.054225 68.370274 0
M  V30 12 S 38.123251 29.737764 59.537783 0
M  V30 13 C 43.155896 30.333467 64.426050 0
M  V30 14 C 40.079287 35.872873 67.091061 0
M  V30 15 C 39.635770 29.604781 58.536069 0
M  V30 16 C 41.452593 35.281265 63.017381 0
M  V30 17 C 39.973367 36.445346 64.721447 0
M  V30 18 O 37.245137 28.820603 54.167773 0
M  V30 19 C 39.560823 30.034347 55.270334 0
M  V30 20 C 38.876164 27.887013 56.652105 0 CFG=1
M  V30 21 O 44.277558 29.737755 63.809827 0
M  V30 22 O 37.345641 31.354364 61.555102 0
M  V30 23 O 39.140726 33.862149 62.121274 0
M  V30 24 C 40.197130 30.422455 65.008773 0
M  V30 25 N 40.825813 31.216824 63.922384 0 CFG=2 CHG=1
M  V30 26 C 40.075082 33.162380 62.501726 0
M  V30 27 C 41.078652 34.919425 66.816953 0
M  V30 28 C 41.476900 33.797457 62.563687 0
M  V30 29 C 39.840375 31.673691 62.883360 0 CFG=1
M  V30 30 C 39.528796 36.637745 66.044683 0
M  V30 31 C 38.182783 26.616036 53.961038 0
M  V30 32 C 38.470169 31.078785 60.725462 0 CFG=1
M  V30 33 C 40.013489 25.532283 56.412245 0
M  V30 34 C 38.462265 28.119125 54.092946 0 CFG=2
M  V30 35 C 37.823241 25.976543 55.298455 0
M  V30 36 H 40.575837 30.692296 61.094133 0
M  V30 37 H 39.482476 29.715079 62.048581 0
M  V30 38 H 35.476171 32.223762 61.578618 0
M  V30 39 H 36.659976 33.058117 60.573713 0
M  V30 40 H 35.935472 31.539972 60.022687 0
M  V30 41 H 40.309194 27.458839 59.579962 0
M  V30 42 H 41.766614 29.575768 62.956024 0
M  V30 43 H 42.446342 31.143042 62.567754 0
M  V30 44 H 40.838074 28.132775 57.525591 0
M  V30 45 H 42.297439 33.997936 65.291712 0
M  V30 46 H 37.394196 26.428523 53.231447 0
M  V30 47 H 40.334001 28.067063 55.106537 0
M  V30 48 H 38.909473 36.647121 68.432150 0
M  V30 49 H 43.456109 31.284097 64.869400 0
M  V30 50 H 42.838098 29.677449 65.237640 0
M  V30 51 H 39.645057 30.432342 57.835286 0
M  V30 52 H 40.499372 29.737735 59.181624 0
M  V30 53 H 40.839773 35.871000 62.333621 0
M  V30 54 H 42.445137 35.729556 62.967791 0
M  V30 55 H 39.549894 37.033039 63.920689 0
M  V30 56 H 37.425244 29.724804 54.380349 0
M  V30 57 H 38.700683 30.567439 55.677651 0
M  V30 58 H 40.445131 30.329771 55.819874 0
M  V30 59 H 39.718147 30.396879 54.253731 0
M  V30 60 H 37.889463 28.295536 56.875406 0
M  V30 61 H 44.057715 28.864153 63.516814 0
M  V30 62 H 40.045129 29.387936 64.701023 0
M  V30 63 H 40.829300 30.412365 65.895264 0
M  V30 64 H 39.245192 30.832349 65.335040 0
M  V30 65 H 41.501771 34.335716 67.621350 0
M  V30 66 H 41.901761 33.736712 61.561631 0
M  V30 67 H 42.144964 33.237077 63.211388 0
M  V30 68 H 38.870025 31.666356 63.367752 0
M  V30 69 H 38.764483 37.371195 66.254907 0
M  V30 70 H 39.085198 26.134218 53.590575 0
M  V30 71 H 38.152071 25.975505 57.368314 0
M  V30 72 H 38.729466 31.971423 60.153153 0
M  V30 73 H 39.845585 24.537768 56.001030 0
M  V30 74 H 40.768765 26.012061 55.790925 0
M  V30 75 H 40.445138 25.380782 57.399571 0
M  V30 76 H 38.952202 28.440583 53.172906 0
M  V30 77 H 41.134873 32.066816 64.373860 0
M  V30 END ATOM
M  V30 BEGIN BOND
M  V30 1 1 7 3
M  V30 2 1 8 6
M  V30 3 1 13 4
M  V30 4 1 14 11
M  V30 5 1 15 7
M  V30 6 1 15 12
M  V30 7 1 16 6
M  V30 8 2 17 6
M  V30 9 1 19 10
M  V30 10 1 20 5
M  V30 11 1 20 7
M  V30 12 1 20 10
M  V30 13 1 21 13
M  V30 14 1 22 2
M  V30 15 1 25 4
M  V30 16 1 25 24
M  V30 17 2 26 23
M  V30 18 2 27 8
M  V30 19 1 27 14
M  V30 20 1 28 16
M  V30 21 1 28 26
M  V30 22 1 29 1
M  V30 23 1 29 25
M  V30 24 1 29 26
M  V30 25 2 30 14
M  V30 26 1 30 17
M  V30 27 1 32 1
M  V30 28 1 32 12
M  V30 29 1 32 22
M  V30 30 1 33 5
M  V30 31 1 34 10
M  V30 32 1 34 18
M  V30 33 1 34 31
M  V30 34 1 35 5
M  V30 35 2 35 9
M  V30 36 1 35 31
M  V30 37 1 36 1
M  V30 38 1 37 1
M  V30 39 1 38 2
M  V30 40 1 39 2
M  V30 41 1 40 2
M  V30 42 1 41 3
M  V30 43 1 42 4
M  V30 44 1 43 4
M  V30 45 1 7 44 CFG=3
M  V30 46 1 45 8
M  V30 47 1 46 31
M  V30 48 1 10 47 CFG=3
M  V30 49 1 48 11
M  V30 50 1 49 13
M  V30 51 1 50 13
M  V30 52 1 51 15
M  V30 53 1 52 15
M  V30 54 1 53 16
M  V30 55 1 54 16
M  V30 56 1 55 17
M  V30 57 1 56 18
M  V30 58 1 57 19
M  V30 59 1 58 19
M  V30 60 1 59 19
M  V30 61 1 20 60 CFG=1
M  V30 62 1 61 21
M  V30 63 1 62 24
M  V30 64 1 63 24
M  V30 65 1 64 24
M  V30 66 1 65 27
M  V30 67 1 66 28
M  V30 68 1 67 28
M  V30 69 1 29 68 CFG=1
M  V30 70 1 69 30
M  V30 71 1 70 31
M  V30 72 1 5 71 CFG=1
M  V30 73 1 32 72 CFG=3
M  V30 74 1 73 33
M  V30 75 1 74 33
M  V30 76 1 75 33
M  V30 77 1 34 76 CFG=3
M  V30 78 1 25 77 CFG=1
M  V30 END BOND
M  V30 END CTAB
M  END
>  <i_epik_Tot_Q>  (1) 
1

>  <i_epik_Tot_abs_Q>  (1) 
1

>  <i_i_glide_confnum>  (1) 
8098

>  <i_i_glide_lignum>  (1) 
169

>  <i_i_glide_posenum>  (1) 
214

>  <i_i_glide_rotatable_bonds>  (1) 
18

>  <i_lp_mmshare_version>  (1) 
72125

>  <i_m_source_file_index>  (1) 
76

>  <i_f3d_flags>  (1) 
0

>  <num_sample>  (1) 
100

>  <b_lp_Chiralities_Consistent>  (1) 
1

>  <r_epik_Charging_Adjusted_Penalty>  (1) 
0.52789471212939676

>  <r_epik_Ionization_Penalty>  (1) 
0.26592108790513191

>  <r_epik_Ionization_Penalty_Charging>  (1) 
0.26394735606469838

>  <r_epik_Ionization_Penalty_Neutral>  (1) 
0.0019737318404335234

>  <r_epik_State_Penalty>  (1) 
0.26394735606469838

>  <r_glide_ring_energy>  (1) 
0

>  <r_i_docking_score>  (1) 
-6.6306103500760694

>  <r_i_glide_ecoul>  (1) 
-4.6271899636292391

>  <r_i_glide_eff_state_penalty>  (1) 
0.26394735606469838

>  <r_i_glide_einternal>  (1) 
12.498970357809798

>  <r_i_glide_emodel>  (1) 
-65.655641276767739

>  <r_i_glide_emodel_strain>  (1) 
1.2584959122175619

>  <r_i_glide_energy>  (1) 
-49.431937909491189

>  <r_i_glide_erotb>  (1) 
1.0139394581015995

>  <r_i_glide_esite>  (1) 
0

>  <r_i_glide_evdw>  (1) 
-44.804747945861948

>  <r_i_glide_gscore>  (1) 
-6.8945577061407679

>  <r_i_glide_gscore_strain>  (1) 
0

>  <r_i_glide_hbond>  (1) 
-0.40088565986152036

>  <r_i_glide_ligand_efficiency>  (1) 
-0.1894460100021734

>  <r_i_glide_ligand_efficiency_ln>  (1) 
-1.4555661303097287

>  <r_i_glide_ligand_efficiency_sa>  (1) 
-0.61969046091776014

>  <r_i_glide_lipo>  (1) 
-3.5421061931781637

>  <r_i_glide_metal>  (1) 
-0

>  <r_i_glide_rewards>  (1) 
-1.0311894193651996

>  <r_lp_Energy>  (1) 
26.361654999999999

>  <r_lp_tautomer_probability>  (1) 
0.99989998499911525

>  <s_epik_Chemistry_Notes>  (1) 
This compound contains an acetal/aminal-like group ( X-CH(R)-Y where X, Y are N, S, or O) that may be acid/base labile, releasing an aldehyde.

>  <s_epik_cmdline>  (1) 
J2VwaWtfcHl0aG9uJywgJy1waHQnLCAnMS4wJywgJy1waCcsICc3LjQnLCAnLXRuJywgJzgnLCAnLW1hJywgJzUwMCcsICctaW1hZScsICc8aW5maWxlLm1hZT4nLCAnLW9tYWUnLCAnPG91dGZpbGUubWFlPic=

>  <s_epik_input>  (1) 
W2NIXTFbY0hdYyhbT0hdKVtjSF1bY0hdYzFbQ0gyXVtDSDJdQyg9TylbQ0BIXShOKFtDSDNdKVtDSDJdW0NIMl1bT0hdKVtDSDJdW0NASF0oT1tDSDNdKVNbQ0gyXVtDQEBIXShbT0hdKVtDQEhdMltDQEBIXShbQ0gzXSlbQ0BIXShbT0hdKVtDSDJdQyhbT0hdKT1DMltDSDNd

>  <s_glide_docking_method>  (1) 
confgen

>  <s_i_glide_gridfile>  (1) 
gpcr_5ht2c_6bqh_protein_autoprepared_prepared

>  <s_lp_Force_Field>  (1) 
S-OPLS

>  <s_lp_Variant>  (1) 
DiffSBDD_75-6

>  <s_m_source_file>  (1) 
generated_GPCR_5HT2C_ligand_DiffSBDD_2026-06-23_prepared.sdf

>  <GenAI_Model>  (1) 
DiffSBDD

>  <Protein>  (1) 
GPCR_5HT2C

$$$$
DiffSBDD_93
     RDKit          3D

  0  0  0  0  0  0  0  0  0  0999 V3000
M  V30 BEGIN CTAB
M  V30 COUNTS 84 85 0 0 1
M  V30 BEGIN ATOM
M  V30 1 C 38.819860 32.358834 57.464344 0
M  V30 2 O 37.645136 33.103392 57.306497 0
M  V30 3 C 39.015685 28.232340 53.576631 0
M  V30 4 C 40.558370 34.377754 63.134018 0
M  V30 5 O 38.429193 30.417575 60.543609 0
M  V30 6 C 38.182734 36.937755 63.483405 0
M  V30 7 N 39.007603 36.938643 64.531287 0
M  V30 8 O 36.972506 36.768560 63.598704 0
M  V30 9 O 36.939584 27.168919 57.767754 0
M  V30 10 C 40.527801 32.865151 63.046082 0
M  V30 11 C 39.386587 28.708671 54.982282 0
M  V30 12 C 37.586912 32.590408 60.124002 0
M  V30 13 C 39.645490 30.095288 58.075501 0
M  V30 14 C 39.249969 35.873723 61.374664 0 CFG=2
M  V30 15 C 38.814426 37.196134 62.096205 0 CFG=1
M  V30 16 C 39.311851 26.336499 55.118904 0 CFG=1
M  V30 17 C 39.697825 27.661430 57.277910 0 CFG=1
M  V30 18 C 41.242424 27.670808 57.290678 0
M  V30 19 C 38.596010 33.725308 60.253259 0
M  V30 20 S 37.245119 28.791765 58.149327 0 CHG=1
M  V30 21 O 36.627764 35.611081 59.402414 0
M  V30 22 N 38.845136 31.256212 58.464588 0
M  V30 23 O 36.930213 29.737750 56.757987 0
M  V30 24 O 37.397911 26.536776 53.607141 0
M  V30 25 F 37.385067 25.126480 55.928123 0
M  V30 26 C 41.748457 33.562740 63.583714 0
M  V30 27 C 36.729194 35.295486 60.776214 0
M  V30 28 C 38.133059 34.803282 61.208576 0 CFG=2
M  V30 29 C 38.319256 31.333811 59.727624 0
M  V30 30 C 37.920388 38.151669 61.198381 0
M  V30 31 C 39.343459 24.429205 56.958648 0
M  V30 32 C 39.037336 28.721827 58.211174 0 CFG=2
M  V30 33 O 37.646075 40.428465 60.567773 0
M  V30 34 C 40.614015 35.300008 61.913825 0
M  V30 35 C 38.691464 25.018393 55.692089 0 CFG=2
M  V30 36 C 38.454563 39.565756 60.967758 0
M  V30 37 C 38.792145 26.724902 53.713788 0 CFG=1
M  V30 38 O 39.653065 39.760389 61.213698 0 CHG=-1
M  V30 39 N 39.096806 27.578412 55.903400 0 CFG=1 CHG=1
M  V30 40 H 39.645117 33.038631 57.665774 0
M  V30 41 H 39.020120 31.966044 56.467507 0
M  V30 42 H 36.928635 32.567537 56.967745 0
M  V30 43 H 38.119444 28.748722 53.228756 0
M  V30 44 H 39.781634 28.457886 52.838178 0
M  V30 45 H 40.045127 34.807157 63.976779 0
M  V30 46 H 39.996309 37.104832 64.397500 0
M  V30 47 H 38.638802 36.790280 65.458197 0
M  V30 48 H 36.231056 26.889803 58.330264 0
M  V30 49 H 39.892698 32.339022 63.754697 0
M  V30 50 H 40.665948 32.365733 62.091572 0
M  V30 51 H 38.836301 29.611863 55.230651 0
M  V30 52 H 40.439264 28.979907 55.013483 0
M  V30 53 H 36.730151 32.808405 59.487752 0
M  V30 54 H 37.146777 32.392705 61.103597 0
M  V30 55 H 40.489619 30.036953 58.752199 0
M  V30 56 H 40.045152 30.232293 57.075788 0
M  V30 57 H 39.492451 36.137771 60.350144 0
M  V30 58 H 39.747352 37.709848 62.323193 0
M  V30 59 H 40.387253 26.184307 55.020295 0
M  V30 60 H 39.443240 26.747797 57.786563 0
M  V30 61 H 41.621396 27.659306 58.313900 0
M  V30 62 H 41.645111 26.788871 56.799259 0
M  V30 63 H 41.674424 28.537729 56.796415 0
M  V30 64 H 39.563228 33.333755 60.549634 0
M  V30 65 H 38.775491 34.185560 59.292148 0
M  V30 66 H 37.276564 36.261580 59.184798 0
M  V30 67 H 36.254133 30.387557 56.969363 0
M  V30 68 H 37.142616 26.533673 52.691751 0
M  V30 69 H 42.636200 33.525697 62.962847 0
M  V30 70 H 41.931356 33.493854 64.653834 0
M  V30 71 H 35.971625 34.543580 61.002744 0
M  V30 72 H 36.445035 36.159233 61.347503 0
M  V30 73 H 38.002809 34.323602 62.167761 0
M  V30 74 H 37.801630 37.744213 60.198309 0
M  V30 75 H 36.914789 38.278630 61.598241 0
M  V30 76 H 40.408933 24.650968 57.010464 0
M  V30 77 H 38.854928 24.785188 57.863427 0
M  V30 78 H 39.245012 23.349338 57.008430 0
M  V30 79 H 39.239950 28.374516 59.227089 0
M  V30 80 H 41.125953 34.765812 61.115182 0
M  V30 81 H 41.288642 36.123785 62.148590 0
M  V30 82 H 38.764736 24.264976 54.909880 0
M  V30 83 H 39.303457 26.162996 52.931899 0
M  V30 84 H 38.090640 27.575549 56.030433 0
M  V30 END ATOM
M  V30 BEGIN BOND
M  V30 1 1 2 1
M  V30 2 1 7 6
M  V30 3 2 8 6
M  V30 4 1 10 4
M  V30 5 1 11 3
M  V30 6 1 15 6
M  V30 7 1 15 14
M  V30 8 1 18 17
M  V30 9 1 19 12
M  V30 10 1 20 9
M  V30 11 1 22 1
M  V30 12 1 22 13
M  V30 13 1 23 20
M  V30 14 1 26 4
M  V30 15 1 26 10
M  V30 16 1 27 21
M  V30 17 1 28 14
M  V30 18 1 28 19
M  V30 19 1 28 27
M  V30 20 2 29 5
M  V30 21 1 29 12
M  V30 22 1 29 22
M  V30 23 1 30 15
M  V30 24 1 32 13
M  V30 25 1 32 17
M  V30 26 1 32 20
M  V30 27 1 34 4
M  V30 28 1 34 14
M  V30 29 1 35 16
M  V30 30 1 35 25
M  V30 31 1 35 31
M  V30 32 1 36 30
M  V30 33 2 36 33
M  V30 34 1 37 3
M  V30 35 1 37 16
M  V30 36 1 37 24
M  V30 37 1 38 36
M  V30 38 1 39 11
M  V30 39 1 39 16
M  V30 40 1 39 17
M  V30 41 1 40 1
M  V30 42 1 41 1
M  V30 43 1 42 2
M  V30 44 1 43 3
M  V30 45 1 44 3
M  V30 46 1 45 4
M  V30 47 1 46 7
M  V30 48 1 47 7
M  V30 49 1 48 9
M  V30 50 1 49 10
M  V30 51 1 50 10
M  V30 52 1 51 11
M  V30 53 1 52 11
M  V30 54 1 53 12
M  V30 55 1 54 12
M  V30 56 1 55 13
M  V30 57 1 56 13
M  V30 58 1 14 57 CFG=3
M  V30 59 1 15 58 CFG=1
M  V30 60 1 16 59 CFG=3
M  V30 61 1 17 60 CFG=1
M  V30 62 1 61 18
M  V30 63 1 62 18
M  V30 64 1 63 18
M  V30 65 1 64 19
M  V30 66 1 65 19
M  V30 67 1 66 21
M  V30 68 1 67 23
M  V30 69 1 68 24
M  V30 70 1 69 26
M  V30 71 1 70 26
M  V30 72 1 71 27
M  V30 73 1 72 27
M  V30 74 1 28 73 CFG=1
M  V30 75 1 74 30
M  V30 76 1 75 30
M  V30 77 1 76 31
M  V30 78 1 77 31
M  V30 79 1 78 31
M  V30 80 1 32 79 CFG=1
M  V30 81 1 80 34
M  V30 82 1 81 34
M  V30 83 1 35 82 CFG=3
M  V30 84 1 37 83 CFG=3
M  V30 85 1 39 84 CFG=1
M  V30 END BOND
M  V30 END CTAB
M  END
>  <i_epik_Tot_Q>  (1) 
1

>  <i_epik_Tot_abs_Q>  (1) 
3

>  <i_i_glide_confnum>  (1) 
1275

>  <i_i_glide_lignum>  (1) 
224

>  <i_i_glide_posenum>  (1) 
337

>  <i_i_glide_rotatable_bonds>  (1) 
24

>  <i_lp_mmshare_version>  (1) 
72125

>  <i_m_source_file_index>  (1) 
94

>  <i_f3d_flags>  (1) 
0

>  <num_sample>  (1) 
100

>  <b_lp_Chiralities_Consistent>  (1) 
1

>  <r_epik_Charging_Adjusted_Penalty>  (1) 
0.90916677635763199

>  <r_epik_Ionization_Penalty>  (1) 
0.45507897092921873

>  <r_epik_Ionization_Penalty_Charging>  (1) 
0.45507471778648678

>  <r_epik_Ionization_Penalty_Neutral>  (1) 
4.2531427319391784e-06

>  <r_epik_State_Penalty>  (1) 
0.45409205857114521

>  <r_glide_ring_energy>  (1) 
0

>  <r_i_docking_score>  (1) 
-6.6299149193901226

>  <r_i_glide_ecoul>  (1) 
-14.730685550466712

>  <r_i_glide_eff_state_penalty>  (1) 
0.45409205857114521

>  <r_i_glide_einternal>  (1) 
33.665451387970869

>  <r_i_glide_emodel>  (1) 
-37.134746729408533

>  <r_i_glide_emodel_strain>  (1) 
10.095970458316884

>  <r_i_glide_energy>  (1) 
-32.175654273985444

>  <r_i_glide_erotb>  (1) 
0.82188833391367333

>  <r_i_glide_esite>  (1) 
-0.11466047757303828

>  <r_i_glide_evdw>  (1) 
-17.444968723518734

>  <r_i_glide_gscore>  (1) 
-7.084006977961268

>  <r_i_glide_gscore_strain>  (1) 
1.5239926145792211

>  <r_i_glide_hbond>  (1) 
-0.86047959591159262

>  <r_i_glide_ligand_efficiency>  (1) 
-0.16999781844590059

>  <r_i_glide_ligand_efficiency_ln>  (1) 
-1.4216419600440748

>  <r_i_glide_ligand_efficiency_sa>  (1) 
-0.57649854720118288

>  <r_i_glide_lipo>  (1) 
-3.7720170480827027

>  <r_i_glide_metal>  (1) 
-0

>  <r_i_glide_rewards>  (1) 
-1.6008795361408847

>  <r_lp_Energy>  (1) 
27.571353999999999

>  <s_epik_Chemistry_Notes>  (1) 
This compound contains an acetal/aminal-like group ( X-CH(R)-Y where X, Y are N, S, or O) that may be acid/base labile, releasing an aldehyde.

>  <s_epik_cmdline>  (1) 
J2VwaWtfcHl0aG9uJywgJy1waHQnLCAnMS4wJywgJy1waCcsICc3LjQnLCAnLXRuJywgJzgnLCAnLW1hJywgJzUwMCcsICctaW1hZScsICc8aW5maWxlLm1hZT4nLCAnLW9tYWUnLCAnPG91dGZpbGUubWFlPic=

>  <s_epik_input>  (1) 
W0NIMl0xW0NIMl1bQ0hdMVtDSDJdW0NAQEhdKFtDQEBIXShDKD1PKVtOSDJdKVtDSDJdQyg9TylbT0hdKVtDQEBIXShbQ0gyXVtPSF0pW0NIMl1bQ0gyXUMoPU8pTihbQ0gyXVtPSF0pW0NIMl1bQ0BASF0oW1MrXShbT0hdKVtPSF0pW0NASF0oW0NIM10pTjJbQ0gyXVtDSDJdW0NASF0oW09IXSlbQ0BASF0yW0NASF0oRilbQ0gzXQ==

>  <s_glide_docking_method>  (1) 
confgen

>  <s_i_glide_gridfile>  (1) 
gpcr_5ht2c_6bqh_protein_autoprepared_prepared

>  <s_lp_Force_Field>  (1) 
S-OPLS

>  <s_lp_Variant>  (1) 
DiffSBDD_93-12

>  <s_m_source_file>  (1) 
generated_GPCR_5HT2C_ligand_DiffSBDD_2026-06-23_prepared.sdf

>  <GenAI_Model>  (1) 
DiffSBDD

>  <Protein>  (1) 
GPCR_5HT2C

$$$$
DiffSBDD_20
     RDKit          3D

  0  0  0  0  0  0  0  0  0  0999 V3000
M  V30 BEGIN CTAB
M  V30 COUNTS 52 53 0 0 1
M  V30 BEGIN ATOM
M  V30 1 C 38.318206 31.767189 57.885902 0 CFG=2
M  V30 2 O 37.231314 29.737762 57.240147 0
M  V30 3 O 35.645445 31.660933 61.372350 0
M  V30 4 P 35.638354 33.041612 60.746348 0
M  V30 5 C 38.900441 30.755584 55.728040 0 CFG=1
M  V30 6 N 39.245690 37.435671 62.167988 0
M  V30 7 C 38.569261 28.430225 54.603922 0
M  V30 8 C 38.739245 27.938638 52.070992 0
M  V30 9 C 37.348083 31.797697 59.070968 0
M  V30 10 C 38.482850 33.393396 60.737596 0 CFG=2
M  V30 11 N 38.037255 32.734493 56.822525 0 CHG=1
M  V30 12 C 38.471641 30.404097 57.182921 0
M  V30 13 F 37.366512 38.200851 61.026775 0
M  V30 14 C 38.032525 27.631007 53.398577 0
M  V30 15 C 38.180676 37.175814 61.370265 0
M  V30 16 O 35.652865 34.137725 61.781564 0 CHG=-1
M  V30 17 O 34.535142 33.217605 59.727408 0 CHG=-1
M  V30 18 C 38.738678 34.817087 61.241185 0
M  V30 19 C 37.895778 35.886422 60.880991 0
M  V30 20 C 37.236318 33.134080 59.833144 0 CFG=2
M  V30 21 C 40.047995 36.403182 62.509417 0
M  V30 22 O 36.866276 30.148106 54.567749 0
M  V30 23 C 39.838090 35.085030 62.072866 0
M  V30 24 C 38.263485 29.944632 54.566814 0 CFG=1
M  V30 25 C 38.685690 32.276678 55.586780 0
M  V30 26 O 38.568675 32.430926 61.770978 0
M  V30 27 O 39.481201 29.655213 57.820217 0
M  V30 28 H 39.249029 32.091591 58.283654 0
M  V30 29 H 36.543124 30.390181 57.368967 0
M  V30 30 H 39.979221 30.606994 55.648858 0
M  V30 31 H 39.645140 28.278694 54.677242 0
M  V30 32 H 38.150577 27.994755 55.511138 0
M  V30 33 H 38.363256 27.290156 51.278692 0
M  V30 34 H 38.571942 28.967410 51.754286 0
M  V30 35 H 39.814870 27.779469 52.147274 0
M  V30 36 H 36.357505 31.508887 58.743320 0
M  V30 37 H 37.635423 31.009709 59.768922 0
M  V30 38 H 39.367233 33.210362 60.131555 0
M  V30 39 H 38.277597 33.679749 57.079969 0
M  V30 40 H 38.151492 26.567349 53.607818 0
M  V30 41 H 36.958758 27.790894 53.288516 0
M  V30 42 H 37.038117 35.726374 60.248177 0
M  V30 43 H 37.158220 33.926076 59.090929 0
M  V30 44 H 40.885507 36.639007 63.149440 0
M  V30 45 H 36.534918 29.896763 55.421936 0
M  V30 46 H 40.508560 34.292887 62.371807 0
M  V30 47 H 38.647564 30.349841 53.630722 0
M  V30 48 H 39.643902 32.784482 55.489778 0
M  V30 49 H 38.079730 32.552327 54.722392 0
M  V30 50 H 37.703911 32.352107 62.156401 0
M  V30 51 H 39.483535 28.787723 57.446060 0
M  V30 52 H 37.028505 32.678550 56.672896 0
M  V30 END ATOM
M  V30 BEGIN BOND
M  V30 1 2 4 3
M  V30 2 1 9 1
M  V30 3 1 11 1
M  V30 4 1 12 1
M  V30 5 1 12 2
M  V30 6 1 12 5
M  V30 7 1 14 7
M  V30 8 1 14 8
M  V30 9 2 15 6
M  V30 10 1 15 13
M  V30 11 1 16 4
M  V30 12 1 17 4
M  V30 13 1 18 10
M  V30 14 1 19 15
M  V30 15 2 19 18
M  V30 16 1 20 4
M  V30 17 1 20 9
M  V30 18 1 20 10
M  V30 19 1 21 6
M  V30 20 1 23 18
M  V30 21 2 23 21
M  V30 22 1 24 5
M  V30 23 1 24 7
M  V30 24 1 24 22
M  V30 25 1 25 5
M  V30 26 1 25 11
M  V30 27 1 26 10
M  V30 28 1 27 12
M  V30 29 1 1 28 CFG=1
M  V30 30 1 29 2
M  V30 31 1 5 30 CFG=1
M  V30 32 1 31 7
M  V30 33 1 32 7
M  V30 34 1 33 8
M  V30 35 1 34 8
M  V30 36 1 35 8
M  V30 37 1 36 9
M  V30 38 1 37 9
M  V30 39 1 10 38 CFG=3
M  V30 40 1 39 11
M  V30 41 1 40 14
M  V30 42 1 41 14
M  V30 43 1 42 19
M  V30 44 1 20 43 CFG=3
M  V30 45 1 44 21
M  V30 46 1 45 22
M  V30 47 1 46 23
M  V30 48 1 24 47 CFG=3
M  V30 49 1 48 25
M  V30 50 1 49 25
M  V30 51 1 50 26
M  V30 52 1 51 27
M  V30 53 1 52 11
M  V30 END BOND
M  V30 END CTAB
M  END
>  <i_epik_Tot_Q>  (1) 
-1

>  <i_epik_Tot_abs_Q>  (1) 
3

>  <i_i_glide_confnum>  (1) 
396

>  <i_i_glide_lignum>  (1) 
47

>  <i_i_glide_posenum>  (1) 
381

>  <i_i_glide_rotatable_bonds>  (1) 
12

>  <i_lp_mmshare_version>  (1) 
72125

>  <i_m_source_file_index>  (1) 
21

>  <i_f3d_flags>  (1) 
0

>  <num_sample>  (1) 
100

>  <b_lp_Chiralities_Consistent>  (1) 
1

>  <r_epik_Charging_Adjusted_Penalty>  (1) 
0.6119073465235404

>  <r_epik_Ionization_Penalty>  (1) 
0.30667552727884728

>  <r_epik_Ionization_Penalty_Charging>  (1) 
0.30666936404430589

>  <r_epik_Ionization_Penalty_Neutral>  (1) 
6.1632345413695363e-06

>  <r_epik_State_Penalty>  (1) 
0.3052379824792345

>  <r_glide_ring_energy>  (1) 
1.9592154643148372

>  <r_i_docking_score>  (1) 
-6.6268211581166119

>  <r_i_glide_ecoul>  (1) 
-10.155907418719707

>  <r_i_glide_eff_state_penalty>  (1) 
0.3052379824792345

>  <r_i_glide_einternal>  (1) 
18.693760146461603

>  <r_i_glide_emodel>  (1) 
-57.848804102396031

>  <r_i_glide_emodel_strain>  (1) 
3.2789972044415876

>  <r_i_glide_energy>  (1) 
-45.765572940121196

>  <r_i_glide_erotb>  (1) 
0.59271143775516177

>  <r_i_glide_esite>  (1) 
-0.14975894220830441

>  <r_i_glide_evdw>  (1) 
-35.609665521401489

>  <r_i_glide_gscore>  (1) 
-6.9320591405958467

>  <r_i_glide_gscore_strain>  (1) 
0

>  <r_i_glide_hbond>  (1) 
-0.42282656625174209

>  <r_i_glide_ligand_efficiency>  (1) 
-0.24543782067098563

>  <r_i_glide_ligand_efficiency_ln>  (1) 
-1.5426147139242725

>  <r_i_glide_ligand_efficiency_sa>  (1) 
-0.736313462012957

>  <r_i_glide_lipo>  (1) 
-2.1279717271791889

>  <r_i_glide_metal>  (1) 
-0

>  <r_i_glide_rewards>  (1) 
-1.5203439538337424

>  <r_lp_Energy>  (1) 
8.2369690000000002

>  <s_epik_cmdline>  (1) 
J2VwaWtfcHl0aG9uJywgJy1waHQnLCAnMS4wJywgJy1waCcsICc3LjQnLCAnLXRuJywgJzgnLCAnLW1hJywgJzUwMCcsICctaW1hZScsICc8aW5maWxlLm1hZT4nLCAnLW9tYWUnLCAnPG91dGZpbGUubWFlPic=

>  <s_epik_input>  (1) 
W0NIM11bQ0gyXVtDSDJdW0NAQEhdKFtPSF0pW0NASF0xW0NIMl1bTkhdW0NASF0oQzEoW09IXSlbT0hdKVtDSDJdW0NAQEhdKFAoPU8pKFtPSF0pW09IXSlbQ0BIXShbT0hdKWMoW2NIXTIpW2NIXVtjSF1uYzJG

>  <s_glide_docking_method>  (1) 
confgen

>  <s_i_glide_gridfile>  (1) 
gpcr_5ht2c_6bqh_protein_autoprepared_prepared

>  <s_lp_Force_Field>  (1) 
S-OPLS

>  <s_lp_Variant>  (1) 
DiffSBDD_20-1

>  <s_m_source_file>  (1) 
generated_GPCR_5HT2C_ligand_DiffSBDD_2026-06-23_prepared.sdf

>  <GenAI_Model>  (1) 
DiffSBDD

>  <Protein>  (1) 
GPCR_5HT2C

$$$$
DiffSBDD_4
     RDKit          3D

  0  0  0  0  0  0  0  0  0  0999 V3000
M  V30 BEGIN CTAB
M  V30 COUNTS 71 74 0 0 1
M  V30 BEGIN ATOM
M  V30 1 C 40.991228 26.938556 57.638156 0
M  V30 2 C 44.052848 27.862793 68.452543 0
M  V30 3 C 41.726815 31.064072 65.909259 0
M  V30 4 N 40.437064 28.283627 57.602423 0
M  V30 5 C 40.923021 28.906578 59.963507 0
M  V30 6 O 41.304596 33.326890 65.263669 0
M  V30 7 C 37.433140 25.553372 56.076858 0
M  V30 8 C 37.918302 30.361916 56.751635 0
M  V30 9 C 41.220404 32.142583 64.938712 0
M  V30 10 O 38.439014 27.708621 56.396282 0
M  V30 11 C 38.403050 26.354493 56.644264 0
M  V30 12 C 38.887058 30.004486 54.543672 0
M  V30 13 C 42.884005 29.256623 63.701581 0
M  V30 14 O 39.411416 28.407728 61.767759 0
M  V30 15 O 37.145355 24.337607 56.120575 0 CHG=-1
M  V30 16 C 40.190650 32.751865 62.779236 0
M  V30 17 C 43.505059 28.576635 66.056765 0 CFG=1
M  V30 18 C 39.614567 28.469575 56.425911 0 CFG=1
M  V30 19 C 39.857596 28.710804 58.878137 0
M  V30 20 C 39.212521 29.916849 56.048940 0 CFG=2
M  V30 21 O 40.845114 30.190038 61.996252 0
M  V30 22 N 40.697287 31.754328 63.733864 0
M  V30 23 C 43.646014 28.244785 64.558633 0
M  V30 24 N 36.845147 30.137754 55.785574 0 CHG=1
M  V30 25 C 40.557851 30.330148 63.372752 0 CFG=2
M  V30 26 C 37.402535 30.374298 54.458241 0
M  V30 27 C 40.302150 29.131501 61.336486 0
M  V30 28 C 41.418454 29.303768 64.161011 0 CFG=2
M  V30 29 O 42.112020 28.686224 66.394312 0
M  V30 30 C 44.141651 27.502165 66.963335 0 CFG=1
M  V30 31 S 39.645137 25.737764 57.749885 0
M  V30 32 C 41.327535 33.417579 61.990420 0
M  V30 33 C 41.319554 29.616844 65.639689 0 CFG=1
M  V30 34 O 45.512412 27.337821 66.646225 0
M  V30 35 H 41.538286 26.754140 56.713831 0
M  V30 36 H 41.706283 26.794939 58.445389 0
M  V30 37 H 43.014723 27.962180 68.770310 0
M  V30 38 H 44.511743 27.091739 69.072102 0
M  V30 39 H 44.555991 28.806524 68.665338 0
M  V30 40 H 41.410251 31.334262 66.917439 0
M  V30 41 H 42.806476 31.187327 65.903837 0
M  V30 42 H 41.555585 29.748819 59.693230 0
M  V30 43 H 41.572211 28.038456 60.057360 0
M  V30 44 H 36.845046 26.271093 55.466465 0
M  V30 45 H 37.670823 29.834752 57.670665 0
M  V30 46 H 37.961819 31.428643 56.976447 0
M  V30 47 H 39.497942 30.763043 54.050958 0
M  V30 48 H 39.068795 29.063807 54.021257 0
M  V30 49 H 42.926947 28.937763 62.664994 0
M  V30 50 H 43.355597 30.238337 63.755300 0
M  V30 51 H 39.472272 32.302288 62.092767 0
M  V30 52 H 39.626823 33.516498 63.314241 0
M  V30 53 H 44.018752 29.514616 66.261410 0
M  V30 54 H 40.209189 28.083504 55.596438 0
M  V30 55 H 39.074415 28.021195 59.195876 0
M  V30 56 H 39.395352 29.685736 58.762895 0
M  V30 57 H 40.043454 30.578414 56.296824 0
M  V30 58 H 44.696150 28.231724 64.263768 0
M  V30 59 H 43.260686 27.242573 64.366827 0
M  V30 60 H 36.075400 30.772424 56.038330 0
M  V30 61 H 39.497829 30.136536 63.556309 0
M  V30 62 H 37.266600 31.421064 54.182260 0
M  V30 63 H 36.860877 29.737389 53.767763 0
M  V30 64 H 40.981707 28.316915 63.997734 0
M  V30 65 H 43.642450 26.546297 66.797847 0
M  V30 66 H 40.930911 34.185732 61.327272 0
M  V30 67 H 42.044890 33.899578 62.655433 0
M  V30 68 H 41.870253 32.692541 61.383658 0
M  V30 69 H 40.284344 29.485890 65.958164 0
M  V30 70 H 45.962057 28.166105 66.745354 0
M  V30 71 H 36.558941 29.172978 55.865702 0
M  V30 END ATOM
M  V30 BEGIN BOND
M  V30 1 1 4 1
M  V30 2 1 9 3
M  V30 3 2 9 6
M  V30 4 2 11 7
M  V30 5 1 11 10
M  V30 6 1 15 7
M  V30 7 1 18 4
M  V30 8 1 18 10
M  V30 9 1 19 4
M  V30 10 1 19 5
M  V30 11 1 20 8
M  V30 12 1 20 12
M  V30 13 1 20 18
M  V30 14 1 22 9
M  V30 15 1 22 16
M  V30 16 1 23 13
M  V30 17 1 23 17
M  V30 18 1 24 8
M  V30 19 1 25 21
M  V30 20 1 25 22
M  V30 21 1 26 12
M  V30 22 1 26 24
M  V30 23 1 27 5
M  V30 24 2 27 14
M  V30 25 1 27 21
M  V30 26 1 28 13
M  V30 27 1 28 25
M  V30 28 1 29 17
M  V30 29 1 30 2
M  V30 30 1 30 17
M  V30 31 1 31 1
M  V30 32 1 31 11
M  V30 33 1 32 16
M  V30 34 1 33 3
M  V30 35 1 33 28
M  V30 36 1 33 29
M  V30 37 1 34 30
M  V30 38 1 35 1
M  V30 39 1 36 1
M  V30 40 1 37 2
M  V30 41 1 38 2
M  V30 42 1 39 2
M  V30 43 1 40 3
M  V30 44 1 41 3
M  V30 45 1 42 5
M  V30 46 1 43 5
M  V30 47 1 44 7
M  V30 48 1 45 8
M  V30 49 1 46 8
M  V30 50 1 47 12
M  V30 51 1 48 12
M  V30 52 1 49 13
M  V30 53 1 50 13
M  V30 54 1 51 16
M  V30 55 1 52 16
M  V30 56 1 17 53 CFG=3
M  V30 57 1 18 54 CFG=3
M  V30 58 1 55 19
M  V30 59 1 56 19
M  V30 60 1 20 57 CFG=3
M  V30 61 1 58 23
M  V30 62 1 59 23
M  V30 63 1 60 24
M  V30 64 1 25 61 CFG=3
M  V30 65 1 62 26
M  V30 66 1 63 26
M  V30 67 1 28 64 CFG=1
M  V30 68 1 30 65 CFG=1
M  V30 69 1 66 32
M  V30 70 1 67 32
M  V30 71 1 68 32
M  V30 72 1 33 69 CFG=1
M  V30 73 1 70 34
M  V30 74 1 71 24
M  V30 END BOND
M  V30 END CTAB
M  END
>  <i_epik_Tot_Q>  (1) 
0

>  <i_epik_Tot_abs_Q>  (1) 
2

>  <i_i_glide_confnum>  (1) 
875

>  <i_i_glide_lignum>  (1) 
6

>  <i_i_glide_posenum>  (1) 
266

>  <i_i_glide_rotatable_bonds>  (1) 
9

>  <i_lp_mmshare_version>  (1) 
72125

>  <i_m_source_file_index>  (1) 
5

>  <i_f3d_flags>  (1) 
0

>  <num_sample>  (1) 
100

>  <b_lp_Chiralities_Consistent>  (1) 
1

>  <r_epik_Charging_Adjusted_Penalty>  (1) 
0.4511966576135748

>  <r_epik_Ionization_Penalty>  (1) 
0.22596636941758144

>  <r_epik_Ionization_Penalty_Charging>  (1) 
0.2259645209400469

>  <r_epik_Ionization_Penalty_Neutral>  (1) 
1.8484775345295036e-06

>  <r_epik_State_Penalty>  (1) 
0.2252321366735279

>  <r_glide_ring_energy>  (1) 
1.7395171629556041

>  <r_i_docking_score>  (1) 
-6.620300835722202

>  <r_i_glide_ecoul>  (1) 
-7.1048762789565663

>  <r_i_glide_eff_state_penalty>  (1) 
0.2252321366735279

>  <r_i_glide_einternal>  (1) 
8.3276773672321251

>  <r_i_glide_emodel>  (1) 
-62.241681747089814

>  <r_i_glide_emodel_strain>  (1) 
2.7221880237611913

>  <r_i_glide_energy>  (1) 
-47.918291566493004

>  <r_i_glide_erotb>  (1) 
0.57244041532536438

>  <r_i_glide_esite>  (1) 
-0.11915888191935664

>  <r_i_glide_evdw>  (1) 
-40.813415287536436

>  <r_i_glide_gscore>  (1) 
-6.8455329723957297

>  <r_i_glide_gscore_strain>  (1) 
0

>  <r_i_glide_hbond>  (1) 
-0.57642493088328139

>  <r_i_glide_ligand_efficiency>  (1) 
-0.19471473046241772

>  <r_i_glide_ligand_efficiency_ln>  (1) 
-1.4626101477596303

>  <r_i_glide_ligand_efficiency_sa>  (1) 
-0.63080013868861273

>  <r_i_glide_lipo>  (1) 
-2.6628323237439417

>  <r_i_glide_metal>  (1) 
-0

>  <r_i_glide_rewards>  (1) 
-0.95315504495420755

>  <r_lp_Energy>  (1) 
57.065157999999997

>  <s_epik_Chemistry_Notes>  (1) 
This compound has an ester and may undergo hydrolysis at high or low pH. This compound contains an acetal/aminal-like group ( X-CH(R)-Y where X, Y are N, S, or O) that may be acid/base labile, releasing an aldehyde.

>  <s_epik_cmdline>  (1) 
J2VwaWtfcHl0aG9uJywgJy1waHQnLCAnMS4wJywgJy1waCcsICc3LjQnLCAnLXRuJywgJzgnLCAnLW1hJywgJzUwMCcsICctaW1hZScsICc8aW5maWxlLm1hZT4nLCAnLW9tYWUnLCAnPG91dGZpbGUubWFlPic=

>  <s_epik_input>  (1) 
W0NIMl0xW0NIMl1bTkhdW0NIMl1bQ0BIXTFbQ0BASF0yT1tDQEBIXShbQ0hdPU8pU1tDSDJdTjJbQ0gyXVtDSDJdQyg9TylPW0NAQEhdM04oW0NIMl1bQ0gzXSlDKD1PKVtDSDJdW0NAQEhdKFtDQEBIXTM0KU9bQ0BIXShbQ0gyXVtDSDJdNClbQ0BIXShbQ0gzXSlbT0hd

>  <s_glide_docking_method>  (1) 
confgen

>  <s_i_glide_gridfile>  (1) 
gpcr_5ht2c_6bqh_protein_autoprepared_prepared

>  <s_lp_Force_Field>  (1) 
S-OPLS

>  <s_lp_Variant>  (1) 
DiffSBDD_4-1

>  <s_m_source_file>  (1) 
generated_GPCR_5HT2C_ligand_DiffSBDD_2026-06-23_prepared.sdf

>  <GenAI_Model>  (1) 
DiffSBDD

>  <Protein>  (1) 
GPCR_5HT2C

$$$$
DiffSBDD_85
     RDKit          3D

  0  0  0  0  0  0  0  0  0  0999 V3000
M  V30 BEGIN CTAB
M  V30 COUNTS 62 65 0 0 1
M  V30 BEGIN ATOM
M  V30 1 C 39.326082 28.290082 56.231712 0
M  V30 2 C 38.107345 32.430647 57.017085 0
M  V30 3 N 37.123424 33.768377 61.367762 0
M  V30 4 C 39.475261 28.954976 60.072989 0
M  V30 5 C 39.505638 29.130339 51.306320 0
M  V30 6 C 38.365833 33.392901 60.725800 0 CFG=2
M  V30 7 O 40.445139 28.779996 56.095041 0
M  V30 8 F 38.845138 26.937762 50.639693 0
M  V30 9 C 39.645136 30.098123 52.316889 0
M  V30 10 O 38.387281 28.206589 55.251038 0
M  V30 11 O 37.245140 40.537755 60.967764 0
M  V30 12 C 38.318305 34.548210 61.686258 0 CFG=1
M  V30 13 C 40.373544 27.985569 59.532178 0
M  V30 14 C 36.755587 34.250663 59.120057 0
M  V30 15 C 38.003621 36.954910 61.835595 0
M  V30 16 C 38.097801 33.519200 59.264079 0 CFG=2
M  V30 17 C 36.942177 39.230311 61.414400 0
M  V30 18 N 38.419363 35.871714 61.171257 0
M  V30 19 O 36.299491 34.537676 60.428787 0
M  V30 20 C 38.142341 32.166342 58.533811 0 CFG=1
M  V30 21 O 38.045137 31.219075 56.315463 0
M  V30 22 C 38.864154 27.696973 57.570194 0 CFG=1
M  V30 23 C 37.284296 30.250919 59.916751 0
M  V30 24 C 38.128365 38.290762 61.102022 0 CFG=1
M  V30 25 N 37.017817 31.321839 58.967760 0
M  V30 26 Cl 39.861005 29.729318 61.570515 0
M  V30 27 C 39.259475 29.799165 53.635317 0
M  V30 28 C 38.325239 29.258236 59.424677 0
M  V30 29 C 38.742022 28.519084 53.952581 0
M  V30 30 C 40.103685 27.379461 58.384057 0
M  V30 31 C 39.534525 38.887516 61.367761 0
M  V30 32 C 38.979771 27.862058 51.613235 0
M  V30 33 O 37.980075 28.647430 58.219324 0
M  V30 34 O 37.534275 36.907903 62.971870 0
M  V30 35 C 38.598065 27.554620 52.934824 0
M  V30 36 H 37.260281 33.049166 56.719281 0
M  V30 37 H 39.009975 32.959204 56.709273 0
M  V30 38 H 39.799801 29.361766 50.292974 0
M  V30 39 H 38.882316 32.497137 61.062320 0
M  V30 40 H 40.047534 31.073022 52.080487 0
M  V30 41 H 36.434748 41.032950 60.968931 0
M  V30 42 H 38.845137 34.360145 62.619951 0
M  V30 43 H 41.278413 27.737787 60.068738 0
M  V30 44 H 35.989482 33.667606 58.607543 0
M  V30 45 H 36.872289 35.182449 58.567774 0
M  V30 46 H 38.897800 34.137740 58.868482 0
M  V30 47 H 36.662907 39.257127 62.464363 0
M  V30 48 H 36.024714 38.859368 60.967760 0
M  V30 49 H 38.795383 35.983983 60.242751 0
M  V30 50 H 39.087367 31.672564 58.756266 0
M  V30 51 H 37.123165 30.985660 56.289242 0
M  V30 52 H 38.317634 26.771726 57.387245 0
M  V30 53 H 37.567519 30.672509 60.878130 0
M  V30 54 H 36.359906 29.705304 60.098634 0
M  V30 55 H 38.045136 38.072668 60.035746 0
M  V30 56 H 36.473047 31.017088 58.157608 0
M  V30 57 H 39.373746 30.543949 54.405802 0
M  V30 58 H 40.785335 26.643506 57.982386 0
M  V30 59 H 40.302723 38.112749 61.367760 0
M  V30 60 H 39.798577 39.645905 60.628383 0
M  V30 61 H 39.645144 39.337736 62.335303 0
M  V30 62 H 38.201405 26.577237 53.167665 0
M  V30 END ATOM
M  V30 BEGIN BOND
M  V30 1 1 6 3
M  V30 2 2 7 1
M  V30 3 2 9 5
M  V30 4 1 10 1
M  V30 5 1 12 3
M  V30 6 1 12 6
M  V30 7 1 13 4
M  V30 8 1 16 6
M  V30 9 1 16 14
M  V30 10 1 17 11
M  V30 11 1 18 12
M  V30 12 1 18 15
M  V30 13 1 19 3
M  V30 14 1 19 14
M  V30 15 1 20 2
M  V30 16 1 20 16
M  V30 17 1 21 2
M  V30 18 1 22 1
M  V30 19 1 24 15
M  V30 20 1 24 17
M  V30 21 1 25 20
M  V30 22 1 25 23
M  V30 23 1 26 4
M  V30 24 1 27 9
M  V30 25 2 28 4
M  V30 26 1 28 23
M  V30 27 1 29 10
M  V30 28 2 29 27
M  V30 29 2 30 13
M  V30 30 1 30 22
M  V30 31 1 31 24
M  V30 32 1 32 5
M  V30 33 1 32 8
M  V30 34 1 33 22
M  V30 35 1 33 28
M  V30 36 2 34 15
M  V30 37 1 35 29
M  V30 38 2 35 32
M  V30 39 1 36 2
M  V30 40 1 37 2
M  V30 41 1 38 5
M  V30 42 1 6 39 CFG=3
M  V30 43 1 40 9
M  V30 44 1 41 11
M  V30 45 1 12 42 CFG=1
M  V30 46 1 43 13
M  V30 47 1 44 14
M  V30 48 1 45 14
M  V30 49 1 16 46 CFG=3
M  V30 50 1 47 17
M  V30 51 1 48 17
M  V30 52 1 49 18
M  V30 53 1 20 50 CFG=3
M  V30 54 1 51 21
M  V30 55 1 22 52 CFG=3
M  V30 56 1 53 23
M  V30 57 1 54 23
M  V30 58 1 24 55 CFG=3
M  V30 59 1 56 25
M  V30 60 1 57 27
M  V30 61 1 58 30
M  V30 62 1 59 31
M  V30 63 1 60 31
M  V30 64 1 61 31
M  V30 65 1 62 35
M  V30 END BOND
M  V30 END CTAB
M  END
>  <i_epik_Tot_Q>  (1) 
0

>  <i_epik_Tot_abs_Q>  (1) 
0

>  <i_i_glide_confnum>  (1) 
1629

>  <i_i_glide_lignum>  (1) 
202

>  <i_i_glide_posenum>  (1) 
395

>  <i_i_glide_rotatable_bonds>  (1) 
14

>  <i_lp_mmshare_version>  (1) 
72125

>  <i_m_source_file_index>  (1) 
86

>  <i_f3d_flags>  (1) 
0

>  <num_sample>  (1) 
100

>  <b_lp_Chiralities_Consistent>  (1) 
1

>  <r_epik_Charging_Adjusted_Penalty>  (1) 
0

>  <r_epik_Ionization_Penalty>  (1) 
0.002846787164494627

>  <r_epik_Ionization_Penalty_Charging>  (1) 
0

>  <r_epik_Ionization_Penalty_Neutral>  (1) 
0.002846787164494627

>  <r_epik_State_Penalty>  (1) 
-0

>  <r_glide_ring_energy>  (1) 
0

>  <r_i_docking_score>  (1) 
-6.6199498140596198

>  <r_i_glide_ecoul>  (1) 
-8.0954841183245172

>  <r_i_glide_eff_state_penalty>  (1) 
-0

>  <r_i_glide_einternal>  (1) 
19.601885008801631

>  <r_i_glide_emodel>  (1) 
-57.393526098857059

>  <r_i_glide_emodel_strain>  (1) 
4.8827430671852738

>  <r_i_glide_energy>  (1) 
-49.860187691843805

>  <r_i_glide_erotb>  (1) 
0.93847147272533338

>  <r_i_glide_esite>  (1) 
0

>  <r_i_glide_evdw>  (1) 
-41.764703573519292

>  <r_i_glide_gscore>  (1) 
-6.6199498140596198

>  <r_i_glide_gscore_strain>  (1) 
0.22068576679631846

>  <r_i_glide_hbond>  (1) 
-0.5558380455465658

>  <r_i_glide_ligand_efficiency>  (1) 
-0.18914142325884628

>  <r_i_glide_ligand_efficiency_ln>  (1) 
-1.4532259060562687

>  <r_i_glide_ligand_efficiency_sa>  (1) 
-0.61869413748313273

>  <r_i_glide_lipo>  (1) 
-3.1078866007674928

>  <r_i_glide_metal>  (1) 
-0

>  <r_i_glide_rewards>  (1) 
-0.81282461084256985

>  <r_lp_Energy>  (1) 
32.790191999999998

>  <r_lp_tautomer_probability>  (1) 
1

>  <s_epik_Chemistry_Notes>  (1) 
This compound contains an acetal/aminal-like group ( X-CH(R)-Y where X, Y are N, S, or O) that may be acid/base labile, releasing an aldehyde. This compound has a N-S or N-O group and may undergo hydrolysis at high or low pH.

>  <s_epik_cmdline>  (1) 
J2VwaWtfcHl0aG9uJywgJy1waHQnLCAnMS4wJywgJy1waCcsICc3LjQnLCAnLXRuJywgJzgnLCAnLW1hJywgJzUwMCcsICctaW1hZScsICc8aW5maWxlLm1hZT4nLCAnLW9tYWUnLCAnPG91dGZpbGUubWFlPic=

>  <s_epik_input>  (1) 
RmMoW2NIXTEpW2NIXVtjSF1bY0hdYzFPQyg9TylbQ0BASF0oW0NIXT1bQ0hdMilPQyg9QzJDbClbQ0gyXVtOSF1bQ0BASF0oW0NIMl1bT0hdKVtDQEBIXShbQ0gyXU8zKVtDSF0oW05AQF0zNClbQ0BIXTRbTkhdQyg9TylbQ0BIXShbQ0gzXSlbQ0gyXVtPSF0=

>  <s_glide_docking_method>  (1) 
confgen

>  <s_i_glide_gridfile>  (1) 
gpcr_5ht2c_6bqh_protein_autoprepared_prepared

>  <s_lp_Force_Field>  (1) 
S-OPLS

>  <s_lp_Variant>  (1) 
DiffSBDD_85-1

>  <s_m_source_file>  (1) 
generated_GPCR_5HT2C_ligand_DiffSBDD_2026-06-23_prepared.sdf

>  <GenAI_Model>  (1) 
DiffSBDD

>  <Protein>  (1) 
GPCR_5HT2C

$$$$
DiffSBDD_66
     RDKit          3D

  0  0  0  0  0  0  0  0  0  0999 V3000
M  V30 BEGIN CTAB
M  V30 COUNTS 63 66 0 0 1
M  V30 BEGIN ATOM
M  V30 1 C 40.952276 29.455423 59.015525 0
M  V30 2 C 41.630347 28.078999 58.613834 0
M  V30 3 C 38.937540 30.048540 56.366161 0 CFG=1
M  V30 4 N 40.176723 32.326205 62.242948 0
M  V30 5 O 39.644746 37.582399 66.093423 0
M  V30 6 O 38.836872 29.659353 53.937216 0
M  V30 7 O 38.445060 31.077289 57.212602 0
M  V30 8 C 39.704616 36.499093 63.943300 0
M  V30 9 C 38.995433 28.462024 58.359108 0
M  V30 10 C 39.008268 27.453056 56.288653 0
M  V30 11 N 39.512595 29.351578 59.194588 0
M  V30 12 C 38.246190 25.839292 54.502340 0
M  V30 13 C 40.845145 34.328804 63.731378 0
M  V30 14 N 40.420984 31.146533 61.642678 0
M  V30 15 C 36.445138 24.137758 54.567830 0
M  V30 16 C 38.859141 28.640122 57.037389 0
M  V30 17 C 40.246422 26.582044 56.635499 0 CFG=1
M  V30 18 C 41.472773 27.489079 57.142797 0
M  V30 19 C 38.831771 24.675326 57.229629 0
M  V30 20 C 39.223881 30.722829 61.232142 0
M  V30 21 C 39.092709 29.380041 60.575025 0
M  V30 22 C 38.185729 30.275428 55.031894 0
M  V30 23 C 38.195892 31.670204 61.511990 0
M  V30 24 C 40.833751 35.513157 65.872842 0
M  V30 25 C 39.834401 25.449123 57.539746 0
M  V30 26 C 41.215139 33.082185 62.950788 0
M  V30 27 C 40.107693 35.406627 63.140126 0
M  V30 28 O 42.352942 32.614514 62.968670 0
M  V30 29 Cl 39.731362 35.416837 61.443820 0
M  V30 30 C 38.844176 32.669484 62.167786 0
M  V30 31 C 37.836527 24.221102 56.518241 0
M  V30 32 C 38.152053 27.119440 55.304439 0
M  V30 33 C 41.237211 34.419481 65.086707 0
M  V30 34 C 37.469849 24.703748 55.190025 0
M  V30 35 C 40.047307 36.537769 65.312760 0
M  V30 36 H 41.465161 29.901580 59.856686 0
M  V30 37 H 41.386404 27.337760 59.366597 0
M  V30 38 H 39.992194 30.265860 56.198571 0
M  V30 39 H 39.214605 38.273180 65.612094 0
M  V30 40 H 38.894807 28.731145 54.108324 0
M  V30 41 H 37.496483 31.112873 57.151603 0
M  V30 42 H 39.135221 37.306153 63.506535 0
M  V30 43 H 38.996522 27.470982 58.785169 0
M  V30 44 H 42.700228 28.239406 58.728246 0
M  V30 45 H 39.268266 25.519803 54.316588 0
M  V30 46 H 37.827468 26.047997 53.517009 0
M  V30 47 H 35.883833 23.337777 55.026311 0
M  V30 48 H 36.141908 24.475005 53.588067 0
M  V30 49 H 41.051814 30.099602 58.167760 0
M  V30 50 H 40.637071 26.130962 55.726830 0
M  V30 51 H 42.390305 26.937756 56.967912 0
M  V30 52 H 41.574294 28.322991 56.448342 0
M  V30 53 H 39.625461 28.617483 61.144289 0
M  V30 54 H 38.045133 29.096475 60.567757 0
M  V30 55 H 37.144798 29.958445 55.099873 0
M  V30 56 H 38.160649 31.341339 54.797390 0
M  V30 57 H 37.141279 31.606908 61.290772 0
M  V30 58 H 41.113287 35.558469 66.915553 0
M  V30 59 H 40.371075 25.337734 58.468979 0
M  V30 60 H 38.458836 33.572119 62.594687 0
M  V30 61 H 37.245129 23.411791 56.922414 0
M  V30 62 H 37.308622 27.754975 55.088213 0
M  V30 63 H 41.815752 33.623439 65.534119 0
M  V30 END ATOM
M  V30 BEGIN BOND
M  V30 1 1 2 1
M  V30 2 1 7 3
M  V30 3 1 11 1
M  V30 4 1 11 9
M  V30 5 1 14 4
M  V30 6 1 16 3
M  V30 7 2 16 9
M  V30 8 1 16 10
M  V30 9 1 17 10
M  V30 10 1 18 2
M  V30 11 1 18 17
M  V30 12 2 20 14
M  V30 13 1 21 11
M  V30 14 1 21 20
M  V30 15 1 22 3
M  V30 16 1 22 6
M  V30 17 1 23 20
M  V30 18 1 25 17
M  V30 19 2 25 19
M  V30 20 1 26 4
M  V30 21 1 26 13
M  V30 22 1 27 8
M  V30 23 2 27 13
M  V30 24 2 28 26
M  V30 25 1 29 27
M  V30 26 1 30 4
M  V30 27 2 30 23
M  V30 28 2 31 19
M  V30 29 2 32 10
M  V30 30 1 32 12
M  V30 31 1 33 13
M  V30 32 2 33 24
M  V30 33 1 34 12
M  V30 34 2 34 15
M  V30 35 1 34 31
M  V30 36 1 35 5
M  V30 37 2 35 8
M  V30 38 1 35 24
M  V30 39 1 36 1
M  V30 40 1 37 2
M  V30 41 1 3 38 CFG=3
M  V30 42 1 39 5
M  V30 43 1 40 6
M  V30 44 1 41 7
M  V30 45 1 42 8
M  V30 46 1 43 9
M  V30 47 1 44 2
M  V30 48 1 45 12
M  V30 49 1 46 12
M  V30 50 1 47 15
M  V30 51 1 48 15
M  V30 52 1 49 1
M  V30 53 1 17 50 CFG=3
M  V30 54 1 51 18
M  V30 55 1 52 18
M  V30 56 1 53 21
M  V30 57 1 54 21
M  V30 58 1 55 22
M  V30 59 1 56 22
M  V30 60 1 57 23
M  V30 61 1 58 24
M  V30 62 1 59 25
M  V30 63 1 60 30
M  V30 64 1 61 31
M  V30 65 1 62 32
M  V30 66 1 63 33
M  V30 END BOND
M  V30 END CTAB
M  END
>  <i_epik_Tot_Q>  (1) 
0

>  <i_epik_Tot_abs_Q>  (1) 
0

>  <i_i_glide_confnum>  (1) 
136

>  <i_i_glide_lignum>  (1) 
148

>  <i_i_glide_posenum>  (1) 
93

>  <i_i_glide_rotatable_bonds>  (1) 
9

>  <i_lp_mmshare_version>  (1) 
72125

>  <i_m_source_file_index>  (1) 
67

>  <i_f3d_flags>  (1) 
0

>  <num_sample>  (1) 
100

>  <b_lp_Chiralities_Consistent>  (1) 
1

>  <r_epik_Charging_Adjusted_Penalty>  (1) 
1.3281530491987052

>  <r_epik_Ionization_Penalty>  (1) 
1.3282883392360914

>  <r_epik_Ionization_Penalty_Charging>  (1) 
0

>  <r_epik_Ionization_Penalty_Neutral>  (1) 
1.3282883392360914

>  <r_epik_State_Penalty>  (1) 
1.3281530491987052

>  <r_glide_ring_energy>  (1) 
0

>  <r_i_docking_score>  (1) 
-6.6188362693022125

>  <r_i_glide_ecoul>  (1) 
-2.8724988460083996

>  <r_i_glide_eff_state_penalty>  (1) 
1.3281530491987052

>  <r_i_glide_einternal>  (1) 
5.9165399471505964

>  <r_i_glide_emodel>  (1) 
-57.785019960555793

>  <r_i_glide_emodel_strain>  (1) 
0.26498535355364083

>  <r_i_glide_energy>  (1) 
-37.999984394768298

>  <r_i_glide_erotb>  (1) 
0.50097048188181392

>  <r_i_glide_esite>  (1) 
0

>  <r_i_glide_evdw>  (1) 
-35.1274855487599

>  <r_i_glide_gscore>  (1) 
-7.9469893185009175

>  <r_i_glide_gscore_strain>  (1) 
0

>  <r_i_glide_hbond>  (1) 
-0.058281820990526478

>  <r_i_glide_ligand_efficiency>  (1) 
-0.18910960769434892

>  <r_i_glide_ligand_efficiency_ln>  (1) 
-1.4529814582682234

>  <r_i_glide_ligand_efficiency_sa>  (1) 
-0.61859006666196581

>  <r_i_glide_lipo>  (1) 
-4.5731789647397907

>  <r_i_glide_metal>  (1) 
-0

>  <r_i_glide_rewards>  (1) 
-1.6292499103131595

>  <r_lp_Energy>  (1) 
66.945476999999997

>  <r_lp_tautomer_probability>  (1) 
0.99999944244275329

>  <s_epik_cmdline>  (1) 
J2VwaWtfcHl0aG9uJywgJy1waHQnLCAnMS4wJywgJy1waCcsICc3LjQnLCAnLXRuJywgJzgnLCAnLW1hJywgJzUwMCcsICctaW1hZScsICc8aW5maWxlLm1hZT4nLCAnLW9tYWUnLCAnPG91dGZpbGUubWFlPic=

>  <s_epik_input>  (1) 
W0NIXTEvW0NIMl1DKD1bQ0gyXSlbQ0hdPUM9W0NIXVtDQEBIXShDPTFcMilbQ0gyXS9bQ0hdPVtDSF1cTihbQ0gyXVtDQEBIXTJbQ0BASF0oW09IXSlbQ0gyXVtPSF0pW0NIMl1jKFtjSF1bY0hdMylubjNDKD1PKWM0YyhDbClbY0hdYyhbT0hdKVtjSF1bY0hdNA==

>  <s_glide_docking_method>  (1) 
confgen

>  <s_i_glide_gridfile>  (1) 
gpcr_5ht2c_6bqh_protein_autoprepared_prepared

>  <s_lp_Force_Field>  (1) 
S-OPLS

>  <s_lp_Variant>  (1) 
DiffSBDD_66-4

>  <s_m_source_file>  (1) 
generated_GPCR_5HT2C_ligand_DiffSBDD_2026-06-23_prepared.sdf

>  <GenAI_Model>  (1) 
DiffSBDD

>  <Protein>  (1) 
GPCR_5HT2C

$$$$
DiffSBDD_13
     RDKit          3D

  0  0  0  0  0  0  0  0  0  0999 V3000
M  V30 BEGIN CTAB
M  V30 COUNTS 53 55 0 0 1
M  V30 BEGIN ATOM
M  V30 1 C 36.306482 34.441780 61.011542 0
M  V30 2 C 38.618973 30.779756 60.821018 0
M  V30 3 C 37.284566 30.798739 60.363153 0
M  V30 4 C 38.446134 33.143325 61.407745 0
M  V30 5 F 35.645932 34.514912 62.165619 0
M  V30 6 C 39.033586 27.033501 54.081402 0
M  V30 7 C 38.269916 28.816519 56.738953 0
M  V30 8 O 37.514423 29.382705 57.521899 0
M  V30 9 N 38.119583 28.952778 55.381596 0
M  V30 10 C 40.091098 27.088035 56.338459 0
M  V30 11 C 39.241155 26.260495 55.368357 0
M  V30 12 C 39.433997 29.498592 60.741748 0
M  V30 13 C 39.198190 31.954088 61.344631 0
M  V30 14 C 36.532577 31.987241 60.426896 0
M  V30 15 C 39.071601 28.165156 50.829625 0
M  V30 16 C 39.659747 29.151514 51.840538 0
M  V30 17 C 40.058492 30.467326 51.146223 0
M  V30 18 C 39.918353 29.240691 59.326038 0 CFG=1
M  V30 19 C 37.113027 33.161608 60.947847 0
M  V30 20 C 39.063181 28.547269 54.336220 0 CFG=2
M  V30 21 C 41.028600 28.255206 59.071819 0
M  V30 22 C 39.626734 27.944365 58.586308 0 CFG=2
M  V30 23 N 39.321012 28.029156 57.181287 0
M  V30 24 C 38.718019 29.354005 53.060669 0
M  V30 25 H 36.949366 35.319442 60.941025 0
M  V30 26 H 35.574572 34.490683 60.204177 0
M  V30 27 H 36.838846 29.900948 59.959864 0
M  V30 28 H 38.892136 34.042520 61.807690 0
M  V30 29 H 38.097077 26.728044 53.613105 0
M  V30 30 H 39.829627 26.768559 53.385891 0
M  V30 31 H 37.333739 29.504972 55.071166 0
M  V30 32 H 40.962445 27.554421 55.882884 0
M  V30 33 H 40.541400 26.356363 57.011324 0
M  V30 34 H 38.284232 26.006192 55.827377 0
M  V30 35 H 39.730925 25.312451 55.143951 0
M  V30 36 H 40.297101 29.575662 61.403602 0
M  V30 37 H 38.845365 28.651610 61.092412 0
M  V30 38 H 40.220084 31.943825 61.694615 0
M  V30 39 H 35.511320 31.998930 60.071792 0
M  V30 40 H 38.063119 28.467130 50.567580 0
M  V30 41 H 39.666740 28.139380 49.918218 0
M  V30 42 H 39.016499 27.151569 51.224395 0
M  V30 43 H 40.596193 28.721012 52.166357 0
M  V30 44 H 39.245131 30.906229 50.571707 0
M  V30 45 H 40.411941 31.209888 51.862426 0
M  V30 46 H 40.873172 30.294074 50.441694 0
M  V30 47 H 39.988371 30.135063 58.718047 0
M  V30 48 H 40.045062 28.921005 54.614670 0
M  V30 49 H 41.778648 28.532012 58.332896 0
M  V30 50 H 41.412312 27.737356 59.946845 0
M  V30 51 H 39.088194 27.177373 59.139486 0
M  V30 52 H 37.687914 29.141498 52.769962 0
M  V30 53 H 38.726064 30.410514 53.336584 0
M  V30 END ATOM
M  V30 BEGIN BOND
M  V30 1 2 3 2
M  V30 2 1 5 1
M  V30 3 2 8 7
M  V30 4 1 9 7
M  V30 5 1 11 6
M  V30 6 1 11 10
M  V30 7 1 12 2
M  V30 8 1 13 2
M  V30 9 2 13 4
M  V30 10 1 14 3
M  V30 11 1 16 15
M  V30 12 1 17 16
M  V30 13 1 18 12
M  V30 14 1 19 1
M  V30 15 1 19 4
M  V30 16 2 19 14
M  V30 17 1 20 6
M  V30 18 1 20 9
M  V30 19 1 21 18
M  V30 20 1 22 18
M  V30 21 1 22 21
M  V30 22 1 23 7
M  V30 23 1 23 10
M  V30 24 1 23 22
M  V30 25 1 24 16
M  V30 26 1 24 20
M  V30 27 1 25 1
M  V30 28 1 26 1
M  V30 29 1 27 3
M  V30 30 1 28 4
M  V30 31 1 29 6
M  V30 32 1 30 6
M  V30 33 1 31 9
M  V30 34 1 32 10
M  V30 35 1 33 10
M  V30 36 1 34 11
M  V30 37 1 35 11
M  V30 38 1 36 12
M  V30 39 1 37 12
M  V30 40 1 38 13
M  V30 41 1 39 14
M  V30 42 1 40 15
M  V30 43 1 41 15
M  V30 44 1 42 15
M  V30 45 1 43 16
M  V30 46 1 44 17
M  V30 47 1 45 17
M  V30 48 1 46 17
M  V30 49 1 18 47 CFG=3
M  V30 50 1 20 48 CFG=1
M  V30 51 1 49 21
M  V30 52 1 50 21
M  V30 53 1 22 51 CFG=1
M  V30 54 1 52 24
M  V30 55 1 53 24
M  V30 END BOND
M  V30 END CTAB
M  END
>  <i_epik_Tot_Q>  (1) 
0

>  <i_epik_Tot_abs_Q>  (1) 
0

>  <i_i_glide_confnum>  (1) 
196

>  <i_i_glide_lignum>  (1) 
22

>  <i_i_glide_posenum>  (1) 
52

>  <i_i_glide_rotatable_bonds>  (1) 
6

>  <i_lp_mmshare_version>  (1) 
72125

>  <i_m_source_file_index>  (1) 
14

>  <i_f3d_flags>  (1) 
0

>  <num_sample>  (1) 
100

>  <b_lp_Chiralities_Consistent>  (1) 
1

>  <r_epik_Charging_Adjusted_Penalty>  (1) 
0

>  <r_epik_Ionization_Penalty>  (1) 
3.0121457711640309e-05

>  <r_epik_Ionization_Penalty_Charging>  (1) 
0

>  <r_epik_Ionization_Penalty_Neutral>  (1) 
3.0121457711640309e-05

>  <r_epik_State_Penalty>  (1) 
-0

>  <r_glide_ring_energy>  (1) 
2.4280033264109

>  <r_i_docking_score>  (1) 
-6.6140771890501888

>  <r_i_glide_ecoul>  (1) 
0.54205138854680845

>  <r_i_glide_eff_state_penalty>  (1) 
-0

>  <r_i_glide_einternal>  (1) 
2.3898718570223565

>  <r_i_glide_emodel>  (1) 
-43.937207084473876

>  <r_i_glide_emodel_strain>  (1) 
0.18707690048071868

>  <r_i_glide_energy>  (1) 
-33.233807753381733

>  <r_i_glide_erotb>  (1) 
0.68159817047081894

>  <r_i_glide_esite>  (1) 
0

>  <r_i_glide_evdw>  (1) 
-33.775859141928542

>  <r_i_glide_gscore>  (1) 
-6.6140771890501888

>  <r_i_glide_gscore_strain>  (1) 
0

>  <r_i_glide_hbond>  (1) 
0

>  <r_i_glide_ligand_efficiency>  (1) 
-0.27558654954375789

>  <r_i_glide_ligand_efficiency_ln>  (1) 
-1.5830521715655763

>  <r_i_glide_ligand_efficiency_sa>  (1) 
-0.79492916532397218

>  <r_i_glide_lipo>  (1) 
-3.7020274518465097

>  <r_i_glide_metal>  (1) 
-0

>  <r_i_glide_rewards>  (1) 
-1.9861626588600914

>  <r_lp_Energy>  (1) 
33.445327999999996

>  <r_lp_tautomer_probability>  (1) 
1

>  <s_epik_cmdline>  (1) 
J2VwaWtfcHl0aG9uJywgJy1waHQnLCAnMS4wJywgJy1waCcsICc3LjQnLCAnLXRuJywgJzgnLCAnLW1hJywgJzUwMCcsICctaW1hZScsICc8aW5maWxlLm1hZT4nLCAnLW9tYWUnLCAnPG91dGZpbGUubWFlPic=

>  <s_epik_input>  (1) 
RltDSDJdYyhbY0hdW2NIXTEpW2NIXVtjSF1jMVtDSDJdW0NASF0yW0NIMl1bQ0BASF0yTjNbQ0gyXVtDSDJdW0NIMl1bQ0BIXShbTkhdQzM9TylbQ0gyXVtDSF0oW0NIM10pW0NIM10=

>  <s_glide_docking_method>  (1) 
confgen

>  <s_i_glide_gridfile>  (1) 
gpcr_5ht2c_6bqh_protein_autoprepared_prepared

>  <s_lp_Force_Field>  (1) 
S-OPLS

>  <s_lp_Variant>  (1) 
DiffSBDD_13-1

>  <s_m_source_file>  (1) 
generated_GPCR_5HT2C_ligand_DiffSBDD_2026-06-23_prepared.sdf

>  <GenAI_Model>  (1) 
DiffSBDD

>  <Protein>  (1) 
GPCR_5HT2C

$$$$
DiffSBDD_25
     RDKit          3D

  0  0  0  0  0  0  0  0  0  0999 V3000
M  V30 BEGIN CTAB
M  V30 COUNTS 68 71 0 0 1
M  V30 BEGIN ATOM
M  V30 1 C 41.882880 33.020434 64.396924 0
M  V30 2 C 38.690882 25.314260 57.724796 0
M  V30 3 O 41.338614 33.296299 63.310149 0 CHG=-1
M  V30 4 C 37.876986 30.810310 59.598629 0
M  V30 5 N 40.610353 29.774678 61.830799 0
M  V30 6 C 38.721592 24.970452 56.239781 0
M  V30 7 C 43.250257 31.271354 65.701870 0
M  V30 8 C 43.150430 28.943637 65.281799 0
M  V30 9 C 37.173085 26.894435 54.557264 0
M  V30 10 C 39.433605 25.991004 55.327586 0
M  V30 11 C 38.609019 27.268438 54.972551 0 CFG=2
M  V30 12 C 41.593443 27.851585 63.625780 0
M  V30 13 O 39.171010 26.938047 52.679338 0
M  V30 14 O 39.645209 31.422509 63.174516 0
M  V30 15 N 38.893500 28.930586 58.582020 0
M  V30 16 C 41.672359 30.419226 63.983987 0
M  V30 17 O 42.178460 33.896042 65.242203 0
M  V30 18 C 38.761110 29.178339 53.319693 0
M  V30 19 C 42.258741 31.551609 64.704209 0
M  V30 20 C 38.606593 28.327994 56.129037 0
M  V30 21 C 38.921695 27.859425 57.576144 0 CFG=2
M  V30 22 C 40.538718 30.602281 62.954814 0
M  V30 23 C 39.868849 28.829093 59.669951 0
M  V30 24 N 43.640553 30.006096 65.934193 0 CHG=1
M  V30 25 C 38.194905 28.929188 51.947112 0
M  V30 26 C 37.942469 29.917858 58.616322 0
M  V30 27 N 43.864472 32.276672 66.451762 0
M  V30 28 N 39.245138 27.883513 53.795110 0
M  V30 29 C 38.077683 26.671053 58.063419 0
M  V30 30 C 39.773039 29.864564 60.836880 0
M  V30 31 C 40.038771 27.876129 50.597709 0
M  V30 32 N 38.745449 30.830112 60.682440 0
M  V30 33 C 38.820991 27.636327 51.495851 0 CFG=1
M  V30 34 C 42.157520 29.097558 64.300299 0
M  V30 35 H 39.702334 25.267667 58.132544 0
M  V30 36 H 38.116387 24.538606 58.232448 0
M  V30 37 H 37.125806 31.587377 59.622768 0
M  V30 38 H 39.251100 24.031910 56.167793 0
M  V30 39 H 37.722092 24.732613 55.882195 0
M  V30 40 H 43.556543 27.985849 65.576725 0
M  V30 41 H 36.596738 26.535461 55.403333 0
M  V30 42 H 36.618921 27.738096 54.149511 0
M  V30 43 H 37.160016 26.102426 53.807446 0
M  V30 44 H 40.403326 26.264655 55.744997 0
M  V30 45 H 39.681162 25.437747 54.422770 0
M  V30 46 H 41.902289 26.957568 64.167905 0
M  V30 47 H 40.502464 27.843437 63.617777 0
M  V30 48 H 41.979034 27.749809 62.612083 0
M  V30 49 H 38.032350 29.653079 53.976206 0
M  V30 50 H 39.618906 29.848169 53.251412 0
M  V30 51 H 37.645129 28.834823 56.092326 0
M  V30 52 H 39.344459 29.105605 55.922013 0
M  V30 53 H 39.960371 27.528166 57.569026 0
M  V30 54 H 39.806098 27.830079 60.103160 0
M  V30 55 H 40.865633 28.907031 59.235052 0
M  V30 56 H 38.445147 29.737238 51.256915 0
M  V30 57 H 37.113875 28.814725 52.006875 0
M  V30 58 H 37.250130 29.912160 57.790003 0
M  V30 59 H 43.584096 33.248575 66.341706 0
M  V30 60 H 44.546264 32.070663 67.165010 0
M  V30 61 H 38.045141 26.696448 59.148698 0
M  V30 62 H 37.043908 26.750570 57.727679 0
M  V30 63 H 39.787588 28.537358 49.767733 0
M  V30 64 H 40.845000 28.347898 51.158751 0
M  V30 65 H 40.404240 26.944130 50.167767 0
M  V30 66 H 38.085275 27.034244 50.966135 0
M  V30 67 H 38.596677 31.556075 61.370987 0
M  V30 68 H 44.354514 29.844685 66.644373 0
M  V30 END ATOM
M  V30 BEGIN BOND
M  V30 1 1 3 1
M  V30 2 1 6 2
M  V30 3 1 10 6
M  V30 4 1 11 9 CFG=3
M  V30 5 1 11 10
M  V30 6 2 17 1
M  V30 7 1 19 1
M  V30 8 2 19 7
M  V30 9 1 19 16
M  V30 10 1 20 11
M  V30 11 1 21 15
M  V30 12 1 21 20
M  V30 13 1 22 5
M  V30 14 2 22 14
M  V30 15 1 22 16
M  V30 16 1 23 15
M  V30 17 1 24 7
M  V30 18 2 24 8
M  V30 19 1 25 18
M  V30 20 2 26 4
M  V30 21 1 26 15
M  V30 22 1 27 7
M  V30 23 1 28 11
M  V30 24 1 28 13
M  V30 25 1 28 18
M  V30 26 1 29 2
M  V30 27 1 29 21
M  V30 28 2 30 5
M  V30 29 1 30 23
M  V30 30 1 32 4
M  V30 31 1 32 30
M  V30 32 1 33 13
M  V30 33 1 33 25
M  V30 34 1 33 31
M  V30 35 1 34 8
M  V30 36 1 34 12
M  V30 37 2 34 16
M  V30 38 1 35 2
M  V30 39 1 36 2
M  V30 40 1 37 4
M  V30 41 1 38 6
M  V30 42 1 39 6
M  V30 43 1 40 8
M  V30 44 1 41 9
M  V30 45 1 42 9
M  V30 46 1 43 9
M  V30 47 1 44 10
M  V30 48 1 45 10
M  V30 49 1 46 12
M  V30 50 1 47 12
M  V30 51 1 48 12
M  V30 52 1 49 18
M  V30 53 1 50 18
M  V30 54 1 51 20
M  V30 55 1 52 20
M  V30 56 1 21 53 CFG=3
M  V30 57 1 54 23
M  V30 58 1 55 23
M  V30 59 1 56 25
M  V30 60 1 57 25
M  V30 61 1 58 26
M  V30 62 1 59 27
M  V30 63 1 60 27
M  V30 64 1 61 29
M  V30 65 1 62 29
M  V30 66 1 63 31
M  V30 67 1 64 31
M  V30 68 1 65 31
M  V30 69 1 33 66 CFG=3
M  V30 70 1 67 32
M  V30 71 1 68 24
M  V30 END BOND
M  V30 END CTAB
M  END
>  <i_epik_Tot_Q>  (1) 
0

>  <i_epik_Tot_abs_Q>  (1) 
2

>  <i_i_glide_confnum>  (1) 
555

>  <i_i_glide_lignum>  (1) 
64

>  <i_i_glide_posenum>  (1) 
294

>  <i_i_glide_rotatable_bonds>  (1) 
5

>  <i_lp_mmshare_version>  (1) 
72125

>  <i_m_source_file_index>  (1) 
26

>  <i_f3d_flags>  (1) 
0

>  <num_sample>  (1) 
100

>  <b_lp_Chiralities_Consistent>  (1) 
1

>  <r_epik_Charging_Adjusted_Penalty>  (1) 
1.7343418636902355

>  <r_epik_Ionization_Penalty>  (1) 
0.81506818440052864

>  <r_epik_Ionization_Penalty_Charging>  (1) 
0.79852554791812069

>  <r_epik_Ionization_Penalty_Neutral>  (1) 
0.016542636482407981

>  <r_epik_State_Penalty>  (1) 
0.93581631577211466

>  <r_glide_ring_energy>  (1) 
2.0909771570092528

>  <r_i_docking_score>  (1) 
-6.6126788139468715

>  <r_i_glide_ecoul>  (1) 
-2.1149965333557654

>  <r_i_glide_eff_state_penalty>  (1) 
0.93581631577211466

>  <r_i_glide_einternal>  (1) 
11.062510851736398

>  <r_i_glide_emodel>  (1) 
-60.012708050092485

>  <r_i_glide_emodel_strain>  (1) 
0.11276244391527257

>  <r_i_glide_energy>  (1) 
-43.26662770521115

>  <r_i_glide_erotb>  (1) 
0.3649910051837349

>  <r_i_glide_esite>  (1) 
-0.0032786359154271458

>  <r_i_glide_evdw>  (1) 
-41.151631171855385

>  <r_i_glide_gscore>  (1) 
-7.5484951297189857

>  <r_i_glide_gscore_strain>  (1) 
0

>  <r_i_glide_hbond>  (1) 
-0.18965951172044029

>  <r_i_glide_ligand_efficiency>  (1) 
-0.19449055335137858

>  <r_i_glide_ligand_efficiency_ln>  (1) 
-1.4609262293589906

>  <r_i_glide_ligand_efficiency_sa>  (1) 
-0.63007389187411411

>  <r_i_glide_lipo>  (1) 
-3.8858886956609973

>  <r_i_glide_metal>  (1) 
-0

>  <r_i_glide_rewards>  (1) 
-1.4598282530097224

>  <r_lp_Energy>  (1) 
71.293013999999999

>  <s_epik_Chemistry_Notes>  (1) 
This compound has an imine and may undergo hydrolysis. This compound has a N-S or N-O group and may undergo hydrolysis at high or low pH.

>  <s_epik_cmdline>  (1) 
J2VwaWtfcHl0aG9uJywgJy1waHQnLCAnMS4wJywgJy1waCcsICc3LjQnLCAnLXRuJywgJzgnLCAnLW1hJywgJzUwMCcsICctaW1hZScsICc8aW5maWxlLm1hZT4nLCAnLW9tYWUnLCAnPG91dGZpbGUubWFlPic=

>  <s_epik_input>  (1) 
W09IXUMoPU8pYyhjMVtOSDJdKWMoYyhbY0hdbjEpW0NIM10pQyg9TylbTkhdQyg9TltDSF09W0NIXTIpW0NIMl1OMltDQEhdKFtDSDJdMylbQ0gyXVtDSDJdW0NIMl1bQ0gyXVtDQF0zKFtDSDNdKU40T1tDQEBIXShbQ0gzXSlbQ0gyXVtDSDJdNA==

>  <s_glide_docking_method>  (1) 
confgen

>  <s_i_glide_gridfile>  (1) 
gpcr_5ht2c_6bqh_protein_autoprepared_prepared

>  <s_lp_Force_Field>  (1) 
S-OPLS

>  <s_lp_Variant>  (1) 
DiffSBDD_25-4

>  <s_m_source_file>  (1) 
generated_GPCR_5HT2C_ligand_DiffSBDD_2026-06-23_prepared.sdf

>  <GenAI_Model>  (1) 
DiffSBDD

>  <Protein>  (1) 
GPCR_5HT2C

$$$$
DiffSBDD_18
     RDKit          3D

  0  0  0  0  0  0  0  0  0  0999 V3000
M  V30 BEGIN CTAB
M  V30 COUNTS 77 79 0 0 1
M  V30 BEGIN ATOM
M  V30 1 C 33.925121 32.559976 59.678094 0
M  V30 2 C 38.196858 28.645339 54.615961 0 CFG=2
M  V30 3 C 40.315266 31.916938 62.664541 0
M  V30 4 C 39.785463 33.144265 62.198327 0
M  V30 5 C 38.577962 30.734482 61.425845 0
M  V30 6 O 37.626740 24.164100 54.969844 0
M  V30 7 C 36.313666 34.609771 59.012430 0
M  V30 8 C 40.619792 28.480716 57.200283 0
M  V30 9 C 38.367948 33.274953 55.365261 0
M  V30 10 C 41.137327 34.647832 63.664200 0
M  V30 11 C 37.579925 24.999275 55.894022 0
M  V30 12 C 39.698045 30.714211 62.281202 0
M  V30 13 C 38.170591 33.162199 57.928354 0
M  V30 14 C 39.881281 29.135549 56.340266 0
M  V30 15 C 40.604285 26.972356 57.306628 0
M  V30 16 C 37.234307 35.838518 59.129023 0
M  V30 17 C 35.024603 32.234880 60.696974 0
M  V30 18 C 39.232188 32.095514 55.741528 0 CFG=2
M  V30 19 C 37.667275 27.436510 55.438281 0
M  V30 20 C 38.743949 28.293215 53.225574 0
M  V30 21 C 39.233921 26.292208 57.199566 0
M  V30 22 C 41.707797 35.998047 63.883658 0
M  V30 23 C 39.132377 29.577221 55.360892 0
M  V30 24 C 36.528111 30.276726 58.957604 0
M  V30 25 C 38.542340 26.206714 55.808515 0 CFG=1
M  V30 26 N 41.342775 33.699780 64.591741 0 CHG=1
M  V30 27 C 38.673597 33.160852 61.343770 0
M  V30 28 P 36.616281 31.978708 59.767744 0 CFG=2 CHG=1
M  V30 29 N 39.118356 30.897593 54.924131 0
M  V30 30 O 36.818604 24.951563 56.885243 0 CHG=-1
M  V30 31 C 38.045542 32.474699 56.590161 0 CFG=2
M  V30 32 C 38.062128 31.957251 60.943059 0
M  V30 33 N 36.845994 33.267364 58.582260 0 CFG=1 CHG=1
M  V30 34 N 40.389511 34.442344 62.541739 0
M  V30 35 H 33.027334 32.952708 60.151325 0
M  V30 36 H 34.181861 33.302948 58.939951 0
M  V30 37 H 33.682830 31.676125 59.098873 0
M  V30 38 H 37.305398 29.252238 54.437063 0
M  V30 39 H 41.189806 31.877872 63.279174 0
M  V30 40 H 38.122914 29.807228 61.125589 0
M  V30 41 H 35.492404 34.861747 58.342864 0
M  V30 42 H 35.849766 34.523740 59.990647 0
M  V30 43 H 41.334808 28.992323 57.823471 0
M  V30 44 H 38.769118 34.271546 55.537586 0
M  V30 45 H 37.667496 33.182492 54.537507 0
M  V30 46 H 40.091765 29.769719 62.630873 0
M  V30 47 H 38.864216 32.581656 58.534201 0
M  V30 48 H 38.615240 34.132560 57.797524 0
M  V30 49 H 41.289856 26.547037 56.577702 0
M  V30 50 H 41.014124 26.727005 58.285443 0
M  V30 51 H 36.662928 36.657253 59.564886 0
M  V30 52 H 38.081051 35.691190 59.789060 0
M  V30 53 H 37.580533 36.219124 58.173862 0
M  V30 54 H 34.807552 31.326919 61.255399 0
M  V30 55 H 35.111806 33.029564 61.436029 0
M  V30 56 H 40.235393 32.291214 56.114511 0
M  V30 57 H 37.245138 27.811615 56.371113 0
M  V30 58 H 36.837771 27.067598 54.840488 0
M  V30 59 H 39.019842 29.197594 52.675508 0
M  V30 60 H 39.638262 27.668830 53.288258 0
M  V30 61 H 37.984417 27.762352 52.647536 0
M  V30 62 H 38.547354 26.716077 57.933900 0
M  V30 63 H 39.428288 25.268248 57.529497 0
M  V30 64 H 40.864380 36.680983 64.005377 0
M  V30 65 H 42.340533 36.042045 64.770037 0
M  V30 66 H 42.297645 36.309901 63.022172 0
M  V30 67 H 36.447895 29.483491 59.699211 0
M  V30 68 H 35.673778 30.136945 58.297018 0
M  V30 69 H 37.430004 30.088766 58.373430 0
M  V30 70 H 39.276186 25.999761 55.029532 0
M  V30 71 H 41.896865 33.908913 65.410935 0
M  V30 72 H 38.289234 34.097506 60.993928 0
M  V30 73 H 38.471735 31.041863 54.161100 0
M  V30 74 H 37.266277 31.725552 56.528327 0
M  V30 75 H 40.140365 35.269648 62.014753 0
M  V30 76 H 40.926900 32.785036 64.486192 0
M  V30 77 H 36.210663 32.986109 57.831311 0
M  V30 END ATOM
M  V30 BEGIN BOND
M  V30 1 1 4 3
M  V30 2 2 11 6
M  V30 3 2 12 3
M  V30 4 1 12 5
M  V30 5 2 14 8
M  V30 6 1 15 8
M  V30 7 1 16 7
M  V30 8 1 17 1
M  V30 9 1 18 9
M  V30 10 1 19 2
M  V30 11 1 20 2
M  V30 12 1 21 15
M  V30 13 1 22 10
M  V30 14 1 23 2
M  V30 15 2 23 14
M  V30 16 1 25 11
M  V30 17 1 25 19
M  V30 18 1 25 21
M  V30 19 2 26 10
M  V30 20 2 27 4
M  V30 21 1 28 17 CFG=1
M  V30 22 1 28 24
M  V30 23 1 29 18
M  V30 24 1 29 23
M  V30 25 1 30 11
M  V30 26 1 31 9
M  V30 27 1 31 13
M  V30 28 1 31 18
M  V30 29 2 32 5
M  V30 30 1 32 27
M  V30 31 1 32 28
M  V30 32 1 33 7
M  V30 33 1 33 13
M  V30 34 1 33 28
M  V30 35 1 34 4
M  V30 36 1 34 10
M  V30 37 1 35 1
M  V30 38 1 36 1
M  V30 39 1 37 1
M  V30 40 1 2 38 CFG=3
M  V30 41 1 39 3
M  V30 42 1 40 5
M  V30 43 1 41 7
M  V30 44 1 42 7
M  V30 45 1 43 8
M  V30 46 1 44 9
M  V30 47 1 45 9
M  V30 48 1 46 12
M  V30 49 1 47 13
M  V30 50 1 48 13
M  V30 51 1 49 15
M  V30 52 1 50 15
M  V30 53 1 51 16
M  V30 54 1 52 16
M  V30 55 1 53 16
M  V30 56 1 54 17
M  V30 57 1 55 17
M  V30 58 1 18 56 CFG=1
M  V30 59 1 57 19
M  V30 60 1 58 19
M  V30 61 1 59 20
M  V30 62 1 60 20
M  V30 63 1 61 20
M  V30 64 1 62 21
M  V30 65 1 63 21
M  V30 66 1 64 22
M  V30 67 1 65 22
M  V30 68 1 66 22
M  V30 69 1 67 24
M  V30 70 1 68 24
M  V30 71 1 69 24
M  V30 72 1 25 70 CFG=3
M  V30 73 1 71 26
M  V30 74 1 72 27
M  V30 75 1 73 29
M  V30 76 1 31 74 CFG=3
M  V30 77 1 75 34
M  V30 78 1 76 26
M  V30 79 1 33 77 CFG=3
M  V30 END BOND
M  V30 END CTAB
M  END
>  <i_epik_Tot_Q>  (1) 
2

>  <i_epik_Tot_abs_Q>  (1) 
4

>  <i_i_glide_confnum>  (1) 
959

>  <i_i_glide_lignum>  (1) 
42

>  <i_i_glide_posenum>  (1) 
177

>  <i_i_glide_rotatable_bonds>  (1) 
11

>  <i_lp_mmshare_version>  (1) 
72125

>  <i_m_source_file_index>  (1) 
19

>  <i_f3d_flags>  (1) 
0

>  <num_sample>  (1) 
100

>  <b_lp_Chiralities_Consistent>  (1) 
1

>  <r_epik_Charging_Adjusted_Penalty>  (1) 
0.035732071636325656

>  <r_epik_Ionization_Penalty>  (1) 
0.019213783482484162

>  <r_epik_Ionization_Penalty_Charging>  (1) 
0.019186760244236628

>  <r_epik_Ionization_Penalty_Neutral>  (1) 
2.7023238247534635e-05

>  <r_epik_State_Penalty>  (1) 
0.016545311392089028

>  <r_glide_ring_energy>  (1) 
0

>  <r_i_docking_score>  (1) 
-6.6063442555396179

>  <r_i_glide_ecoul>  (1) 
-7.4499699550564529

>  <r_i_glide_eff_state_penalty>  (1) 
0.016545311392089028

>  <r_i_glide_einternal>  (1) 
6.4164912390681188

>  <r_i_glide_emodel>  (1) 
-59.787157485411264

>  <r_i_glide_emodel_strain>  (1) 
3.4086750582575007

>  <r_i_glide_energy>  (1) 
-37.045940809395951

>  <r_i_glide_erotb>  (1) 
0.68654883804919686

>  <r_i_glide_esite>  (1) 
-0.16657961982757727

>  <r_i_glide_evdw>  (1) 
-29.595970854339498

>  <r_i_glide_gscore>  (1) 
-6.6228895669317067

>  <r_i_glide_gscore_strain>  (1) 
0

>  <r_i_glide_hbond>  (1) 
-0.20000000000000001

>  <r_i_glide_ligand_efficiency>  (1) 
-0.19430424280998876

>  <r_i_glide_ligand_efficiency_ln>  (1) 
-1.4595267477284832

>  <r_i_glide_ligand_efficiency_sa>  (1) 
-0.62947031804552522

>  <r_i_glide_lipo>  (1) 
-2.8279439968735227

>  <r_i_glide_metal>  (1) 
-0

>  <r_i_glide_rewards>  (1) 
-1.5176207523043608

>  <r_lp_Energy>  (1) 
36.417943999999999

>  <s_epik_Chemistry_Notes>  (1) 
This compound has an imine and may undergo hydrolysis.

>  <s_epik_cmdline>  (1) 
J2VwaWtfcHl0aG9uJywgJy1waHQnLCAnMS4wJywgJy1waCcsICc3LjQnLCAnLXRuJywgJzgnLCAnLW1hJywgJzUwMCcsICctaW1hZScsICc8aW5maWxlLm1hZT4nLCAnLW9tYWUnLCAnPG91dGZpbGUubWFlPic=

>  <s_epik_input>  (1) 
W0hdL049QyhcW0NIM10pW05IXWMxW2NIXVtjSF1bY0hdYyhbY0hdMSlbUEBAK10oW0NIM10pKFtDSDJdW0NIM10pTihbQ0gyXVtDSDNdKVtDSDJdW0NASF0yW0NIMl1bQ0BASF0yW05IXUMzPUM9W0NIXVtDSDJdW0NIMl1bQ0BASF0oQyg9TylbT0hdKVtDSDJdW0NAQEhdM1tDSDNd

>  <s_glide_docking_method>  (1) 
confgen

>  <s_i_glide_gridfile>  (1) 
gpcr_5ht2c_6bqh_protein_autoprepared_prepared

>  <s_lp_Force_Field>  (1) 
S-OPLS

>  <s_lp_Variant>  (1) 
DiffSBDD_18-1

>  <s_m_source_file>  (1) 
generated_GPCR_5HT2C_ligand_DiffSBDD_2026-06-23_prepared.sdf

>  <GenAI_Model>  (1) 
DiffSBDD

>  <Protein>  (1) 
GPCR_5HT2C

$$$$
DiffSBDD_41
     RDKit          3D

  0  0  0  0  0  0  0  0  0  0999 V3000
M  V30 BEGIN CTAB
M  V30 COUNTS 51 52 0 0 1
M  V30 BEGIN ATOM
M  V30 1 C 38.993113 29.630883 60.490185 0
M  V30 2 C 39.651496 29.324761 57.199816 0 CFG=1
M  V30 3 C 40.480989 30.154932 50.431565 0
M  V30 4 C 39.408955 30.152025 54.115569 0
M  V30 5 C 38.666277 28.054071 53.095951 0
M  V30 6 C 39.216444 28.448299 51.860412 0
M  V30 7 C 38.764088 28.899291 54.218813 0
M  V30 8 O 37.125865 32.537869 61.767638 0 CHG=-1
M  V30 9 C 39.599695 30.737304 56.597312 0
M  V30 10 S 38.127913 28.736370 57.981988 0
M  V30 11 N 39.645138 31.163135 49.767759 0 CHG=1
M  V30 12 C 39.431200 31.919571 62.076758 0
M  V30 13 C 40.484375 31.018019 61.835457 0
M  V30 14 C 39.110222 27.524115 50.663080 0
M  V30 15 C 40.512943 28.232700 56.507734 0
M  V30 16 C 38.155054 31.676532 61.523956 0
M  V30 17 C 39.535250 31.073555 55.278091 0
M  V30 18 C 40.265926 29.872324 61.045432 0
M  V30 19 C 42.649205 28.091920 57.938465 0
M  V30 20 C 39.937925 30.551002 52.870870 0
M  V30 21 C 41.413463 27.366765 57.393867 0
M  V30 22 F 39.645053 33.017202 62.842814 0
M  V30 23 C 37.940033 30.537899 60.725592 0
M  V30 24 C 39.860478 29.705348 51.748867 0
M  V30 25 C 38.751522 28.381965 59.663117 0
M  V30 26 H 40.264348 29.582613 58.060127 0
M  V30 27 H 41.447993 30.611289 50.647522 0
M  V30 28 H 40.688072 29.337831 49.743987 0
M  V30 29 H 38.166732 27.099818 53.184842 0
M  V30 30 H 38.323521 28.593024 55.150844 0
M  V30 31 H 39.645134 31.540162 57.317979 0
M  V30 32 H 40.163876 31.584064 49.011135 0
M  V30 33 H 38.798474 30.727581 49.407418 0
M  V30 34 H 41.457712 31.202619 62.263118 0
M  V30 35 H 38.845213 28.080194 49.767682 0
M  V30 36 H 40.045128 26.998066 50.487321 0
M  V30 37 H 38.339918 26.771716 50.825180 0
M  V30 38 H 39.882754 27.514614 55.989758 0
M  V30 39 H 41.153586 28.703627 55.768326 0
M  V30 40 H 39.576762 32.124365 55.029668 0
M  V30 41 H 41.072033 29.175090 60.870471 0
M  V30 42 H 43.253391 27.411031 58.539068 0
M  V30 43 H 43.275610 28.469654 57.130223 0
M  V30 44 H 42.379113 28.937615 58.568316 0
M  V30 45 H 40.429126 31.506443 52.783005 0
M  V30 46 H 40.855760 26.889615 58.192234 0
M  V30 47 H 41.737884 26.537745 56.772372 0
M  V30 48 H 36.962205 30.351851 60.304662 0
M  V30 49 H 38.046250 27.759297 60.197725 0
M  V30 50 H 39.662258 27.795224 59.623534 0
M  V30 51 H 39.402677 31.881011 50.435742 0
M  V30 END ATOM
M  V30 BEGIN BOND
M  V30 1 1 6 5
M  V30 2 1 7 4
M  V30 3 2 7 5
M  V30 4 1 9 2
M  V30 5 1 10 2
M  V30 6 1 11 3
M  V30 7 1 13 12
M  V30 8 1 14 6
M  V30 9 1 15 2
M  V30 10 1 16 8
M  V30 11 2 16 12
M  V30 12 1 17 4
M  V30 13 2 17 9
M  V30 14 1 18 1
M  V30 15 2 18 13
M  V30 16 2 20 4
M  V30 17 1 21 15
M  V30 18 1 21 19
M  V30 19 1 22 12
M  V30 20 2 23 1
M  V30 21 1 23 16
M  V30 22 1 24 3
M  V30 23 2 24 6
M  V30 24 1 24 20
M  V30 25 1 25 1
M  V30 26 1 25 10
M  V30 27 1 2 26 CFG=1
M  V30 28 1 27 3
M  V30 29 1 28 3
M  V30 30 1 29 5
M  V30 31 1 30 7
M  V30 32 1 31 9
M  V30 33 1 32 11
M  V30 34 1 33 11
M  V30 35 1 34 13
M  V30 36 1 35 14
M  V30 37 1 36 14
M  V30 38 1 37 14
M  V30 39 1 38 15
M  V30 40 1 39 15
M  V30 41 1 40 17
M  V30 42 1 41 18
M  V30 43 1 42 19
M  V30 44 1 43 19
M  V30 45 1 44 19
M  V30 46 1 45 20
M  V30 47 1 46 21
M  V30 48 1 47 21
M  V30 49 1 48 23
M  V30 50 1 49 25
M  V30 51 1 50 25
M  V30 52 1 51 11
M  V30 END BOND
M  V30 END CTAB
M  END
>  <i_epik_Tot_Q>  (1) 
0

>  <i_epik_Tot_abs_Q>  (1) 
2

>  <i_i_glide_confnum>  (1) 
88

>  <i_i_glide_lignum>  (1) 
91

>  <i_i_glide_posenum>  (1) 
44

>  <i_i_glide_rotatable_bonds>  (1) 
8

>  <i_lp_mmshare_version>  (1) 
72125

>  <i_m_source_file_index>  (1) 
42

>  <i_f3d_flags>  (1) 
0

>  <num_sample>  (1) 
100

>  <b_lp_Chiralities_Consistent>  (1) 
1

>  <r_epik_Charging_Adjusted_Penalty>  (1) 
2.7167828853708742

>  <r_epik_Ionization_Penalty>  (1) 
1.3565026725465308

>  <r_epik_Ionization_Penalty_Charging>  (1) 
1.3565026725465308

>  <r_epik_Ionization_Penalty_Neutral>  (1) 
0

>  <r_epik_State_Penalty>  (1) 
1.3602802128243434

>  <r_glide_ring_energy>  (1) 
0

>  <r_i_docking_score>  (1) 
-6.6058930031488963

>  <r_i_glide_ecoul>  (1) 
-4.4875146170268936

>  <r_i_glide_eff_state_penalty>  (1) 
1.3602802128243434

>  <r_i_glide_einternal>  (1) 
6.2649533833652606

>  <r_i_glide_emodel>  (1) 
-57.989572559943291

>  <r_i_glide_emodel_strain>  (1) 
2.9416483710288617

>  <r_i_glide_energy>  (1) 
-39.897556135887363

>  <r_i_glide_erotb>  (1) 
0.74153290357203427

>  <r_i_glide_esite>  (1) 
0

>  <r_i_glide_evdw>  (1) 
-35.410041518860467

>  <r_i_glide_gscore>  (1) 
-7.9661732159732397

>  <r_i_glide_gscore_strain>  (1) 
0

>  <r_i_glide_hbond>  (1) 
0

>  <r_i_glide_ligand_efficiency>  (1) 
-0.26423572012595586

>  <r_i_glide_ligand_efficiency_ln>  (1) 
-1.5657946043849884

>  <r_i_glide_ligand_efficiency_sa>  (1) 
-0.77262993271774538

>  <r_i_glide_lipo>  (1) 
-4.2771525573607727

>  <r_i_glide_metal>  (1) 
-0

>  <r_i_glide_rewards>  (1) 
-1.9869242936874432

>  <r_lp_Energy>  (1) 
21.037921999999998

>  <s_epik_cmdline>  (1) 
J2VwaWtfcHl0aG9uJywgJy1waHQnLCAnMS4wJywgJy1waCcsICc3LjQnLCAnLXRuJywgJzgnLCAnLW1hJywgJzUwMCcsICctaW1hZScsICc8aW5maWxlLm1hZT4nLCAnLW9tYWUnLCAnPG91dGZpbGUubWFlPic=

>  <s_epik_input>  (1) 
W09IXWMoW2NIXTEpYyhGKVtjSF1bY0hdYzFbQ0gyXVNbQ0BASF0oW0NIMl1bQ0gyXVtDSDNdKS9bQ0hdPVtDSF1cYzJbY0hdW2NIXWMoW0NIM10pYyhbY0hdMilbQ0gyXVtOSDJd

>  <s_glide_docking_method>  (1) 
confgen

>  <s_i_glide_gridfile>  (1) 
gpcr_5ht2c_6bqh_protein_autoprepared_prepared

>  <s_lp_Force_Field>  (1) 
S-OPLS

>  <s_lp_Variant>  (1) 
DiffSBDD_41-4

>  <s_m_source_file>  (1) 
generated_GPCR_5HT2C_ligand_DiffSBDD_2026-06-23_prepared.sdf

>  <GenAI_Model>  (1) 
DiffSBDD

>  <Protein>  (1) 
GPCR_5HT2C

$$$$
DiffSBDD_25
     RDKit          3D

  0  0  0  0  0  0  0  0  0  0999 V3000
M  V30 BEGIN CTAB
M  V30 COUNTS 68 71 0 0 1
M  V30 BEGIN ATOM
M  V30 1 C 40.436960 32.511494 62.662496 0
M  V30 2 C 39.569721 26.547677 57.702494 0
M  V30 3 O 39.426767 31.817539 62.431449 0 CHG=-1
M  V30 4 C 36.075707 30.889643 59.367760 0
M  V30 5 N 38.909873 33.063469 60.151047 0
M  V30 6 C 39.736678 26.182872 56.225532 0
M  V30 7 C 41.167892 34.808715 63.521163 0
M  V30 8 C 40.067308 36.828963 62.967749 0
M  V30 9 C 37.429239 27.196792 54.580646 0
M  V30 10 C 39.899762 27.378924 55.263316 0
M  V30 11 C 38.599224 28.168093 54.892280 0 CFG=2
M  V30 12 C 38.131925 37.008924 61.359225 0
M  V30 13 O 39.212262 27.942463 52.612567 0
M  V30 14 O 37.167577 34.458411 60.842488 0
M  V30 15 N 37.969880 29.882903 58.375634 0
M  V30 16 C 39.278018 34.763177 61.921365 0
M  V30 17 O 41.555847 32.012716 62.926289 0
M  V30 18 C 39.645128 30.049295 53.524946 0
M  V30 19 C 40.301948 34.044044 62.683426 0
M  V30 20 C 38.170060 29.176773 56.012072 0
M  V30 21 C 38.580674 28.895801 57.485658 0 CFG=2
M  V30 22 C 38.337253 34.067458 60.932951 0
M  V30 23 C 38.823062 30.980036 58.821644 0
M  V30 24 N 41.013195 36.137754 63.618065 0 CHG=1
M  V30 25 C 39.999550 30.080756 52.049440 0
M  V30 26 C 36.633098 29.908425 58.661023 0
M  V30 27 N 42.171403 34.222734 64.290823 0
M  V30 28 N 38.746714 28.900991 53.609284 0
M  V30 29 C 38.378438 27.463684 58.012203 0
M  V30 30 C 38.166644 32.104397 59.683811 0
M  V30 31 C 39.525610 28.273955 50.298801 0
M  V30 32 N 36.776994 31.954384 59.884632 0
M  V30 33 C 40.047760 28.613682 51.684324 0 CFG=2
M  V30 34 C 39.175812 36.182073 62.105483 0
M  V30 35 H 40.488873 27.009056 58.066422 0
M  V30 36 H 39.461854 25.626402 58.275018 0
M  V30 37 H 35.021589 30.937749 59.570702 0
M  V30 38 H 40.636892 25.575668 56.145857 0
M  V30 39 H 38.936891 25.515911 55.908811 0
M  V30 40 H 40.057754 37.894162 63.150466 0
M  V30 41 H 37.081008 26.666009 55.463471 0
M  V30 42 H 36.570440 27.728962 54.167751 0
M  V30 43 H 37.709773 26.432815 53.854001 0
M  V30 44 H 40.655791 28.058823 55.656416 0
M  V30 45 H 40.340837 26.937748 54.372500 0
M  V30 46 H 38.338605 38.074246 61.464893 0
M  V30 47 H 38.129136 36.795081 60.289834 0
M  V30 48 H 37.134928 36.834126 61.766104 0
M  V30 49 H 39.153021 30.971305 53.835627 0
M  V30 50 H 40.519364 29.909057 54.154645 0
M  V30 51 H 37.095185 29.337764 55.949914 0
M  V30 52 H 38.575588 30.165464 55.810112 0
M  V30 53 H 39.653673 29.084531 57.540582 0
M  V30 54 H 39.645112 30.545070 59.392735 0
M  V30 55 H 39.245135 31.448822 57.932882 0
M  V30 56 H 40.906050 30.623853 51.808608 0
M  V30 57 H 39.245137 30.577812 51.463190 0
M  V30 58 H 36.067593 29.086302 58.248161 0
M  V30 59 H 42.355624 33.224948 64.229343 0
M  V30 60 H 42.790305 34.771798 64.866801 0
M  V30 61 H 38.318472 27.507974 59.099731 0
M  V30 62 H 37.433279 27.038143 57.676195 0
M  V30 63 H 40.089610 28.784211 49.518467 0
M  V30 64 H 39.604159 27.195234 50.167757 0
M  V30 65 H 38.474798 28.537757 50.199201 0
M  V30 66 H 41.067095 28.244693 51.767763 0
M  V30 67 H 36.245372 32.632977 60.408553 0
M  V30 68 H 41.645137 36.660270 64.235838 0
M  V30 END ATOM
M  V30 BEGIN BOND
M  V30 1 1 3 1
M  V30 2 1 6 2
M  V30 3 1 10 6
M  V30 4 1 11 9 CFG=3
M  V30 5 1 11 10
M  V30 6 2 17 1
M  V30 7 1 19 1
M  V30 8 2 19 7
M  V30 9 1 19 16
M  V30 10 1 20 11
M  V30 11 1 21 15
M  V30 12 1 21 20
M  V30 13 1 22 5
M  V30 14 2 22 14
M  V30 15 1 22 16
M  V30 16 1 23 15
M  V30 17 1 24 7
M  V30 18 2 24 8
M  V30 19 1 25 18
M  V30 20 2 26 4
M  V30 21 1 26 15
M  V30 22 1 27 7
M  V30 23 1 28 11
M  V30 24 1 28 13
M  V30 25 1 28 18
M  V30 26 1 29 2
M  V30 27 1 29 21
M  V30 28 2 30 5
M  V30 29 1 30 23
M  V30 30 1 32 4
M  V30 31 1 32 30
M  V30 32 1 33 13
M  V30 33 1 33 25
M  V30 34 1 33 31
M  V30 35 1 34 8
M  V30 36 1 34 12
M  V30 37 2 34 16
M  V30 38 1 35 2
M  V30 39 1 36 2
M  V30 40 1 37 4
M  V30 41 1 38 6
M  V30 42 1 39 6
M  V30 43 1 40 8
M  V30 44 1 41 9
M  V30 45 1 42 9
M  V30 46 1 43 9
M  V30 47 1 44 10
M  V30 48 1 45 10
M  V30 49 1 46 12
M  V30 50 1 47 12
M  V30 51 1 48 12
M  V30 52 1 49 18
M  V30 53 1 50 18
M  V30 54 1 51 20
M  V30 55 1 52 20
M  V30 56 1 21 53 CFG=3
M  V30 57 1 54 23
M  V30 58 1 55 23
M  V30 59 1 56 25
M  V30 60 1 57 25
M  V30 61 1 58 26
M  V30 62 1 59 27
M  V30 63 1 60 27
M  V30 64 1 61 29
M  V30 65 1 62 29
M  V30 66 1 63 31
M  V30 67 1 64 31
M  V30 68 1 65 31
M  V30 69 1 33 66 CFG=3
M  V30 70 1 67 32
M  V30 71 1 68 24
M  V30 END BOND
M  V30 END CTAB
M  END
>  <i_epik_Tot_Q>  (1) 
0

>  <i_epik_Tot_abs_Q>  (1) 
2

>  <i_i_glide_confnum>  (1) 
190

>  <i_i_glide_lignum>  (1) 
63

>  <i_i_glide_posenum>  (1) 
3

>  <i_i_glide_rotatable_bonds>  (1) 
5

>  <i_lp_mmshare_version>  (1) 
72125

>  <i_m_source_file_index>  (1) 
26

>  <i_f3d_flags>  (1) 
0

>  <num_sample>  (1) 
100

>  <b_lp_Chiralities_Consistent>  (1) 
1

>  <r_epik_Charging_Adjusted_Penalty>  (1) 
1.7343418636902355

>  <r_epik_Ionization_Penalty>  (1) 
0.81506818440052864

>  <r_epik_Ionization_Penalty_Charging>  (1) 
0.79852554791812069

>  <r_epik_Ionization_Penalty_Neutral>  (1) 
0.016542636482407981

>  <r_epik_State_Penalty>  (1) 
0.93581631577211466

>  <r_glide_ring_energy>  (1) 
0.67665862143778044

>  <r_i_docking_score>  (1) 
-6.5933731645380558

>  <r_i_glide_ecoul>  (1) 
-1.7801091463323595

>  <r_i_glide_eff_state_penalty>  (1) 
0.93581631577211466

>  <r_i_glide_einternal>  (1) 
3.8781395824512899

>  <r_i_glide_emodel>  (1) 
-61.337740992635489

>  <r_i_glide_emodel_strain>  (1) 
0.070407712664831479

>  <r_i_glide_energy>  (1) 
-43.508126833640098

>  <r_i_glide_erotb>  (1) 
0.3649910051837349

>  <r_i_glide_esite>  (1) 
-0.16302507108399966

>  <r_i_glide_evdw>  (1) 
-41.728017687307741

>  <r_i_glide_gscore>  (1) 
-7.5291894803101709

>  <r_i_glide_gscore_strain>  (1) 
0

>  <r_i_glide_hbond>  (1) 
0

>  <r_i_glide_ligand_efficiency>  (1) 
-0.19392274013347222

>  <r_i_glide_ligand_efficiency_ln>  (1) 
-1.4566610698994593

>  <r_i_glide_ligand_efficiency_sa>  (1) 
-0.62823439747246335

>  <r_i_glide_lipo>  (1) 
-3.8378366850362062

>  <r_i_glide_metal>  (1) 
-0

>  <r_i_glide_rewards>  (1) 
-1.5399014730584595

>  <r_lp_Energy>  (1) 
74.787555999999995

>  <s_epik_Chemistry_Notes>  (1) 
This compound has an imine and may undergo hydrolysis. This compound has a N-S or N-O group and may undergo hydrolysis at high or low pH.

>  <s_epik_cmdline>  (1) 
J2VwaWtfcHl0aG9uJywgJy1waHQnLCAnMS4wJywgJy1waCcsICc3LjQnLCAnLXRuJywgJzgnLCAnLW1hJywgJzUwMCcsICctaW1hZScsICc8aW5maWxlLm1hZT4nLCAnLW9tYWUnLCAnPG91dGZpbGUubWFlPic=

>  <s_epik_input>  (1) 
W09IXUMoPU8pYyhjMVtOSDJdKWMoYyhbY0hdbjEpW0NIM10pQyg9TylbTkhdQyg9TltDSF09W0NIXTIpW0NIMl1OMltDQEhdKFtDSDJdMylbQ0gyXVtDSDJdW0NIMl1bQ0gyXVtDQF0zKFtDSDNdKU40T1tDQEBIXShbQ0gzXSlbQ0gyXVtDSDJdNA==

>  <s_glide_docking_method>  (1) 
confgen

>  <s_i_glide_gridfile>  (1) 
gpcr_5ht2c_6bqh_protein_autoprepared_prepared

>  <s_lp_Force_Field>  (1) 
S-OPLS

>  <s_lp_Variant>  (1) 
DiffSBDD_25-3

>  <s_m_source_file>  (1) 
generated_GPCR_5HT2C_ligand_DiffSBDD_2026-06-23_prepared.sdf

>  <GenAI_Model>  (1) 
DiffSBDD

>  <Protein>  (1) 
GPCR_5HT2C

$$$$
DiffSBDD_25
     RDKit          3D

  0  0  0  0  0  0  0  0  0  0999 V3000
M  V30 BEGIN CTAB
M  V30 COUNTS 68 71 0 0 1
M  V30 BEGIN ATOM
M  V30 1 C 41.497016 33.347249 63.999321 0
M  V30 2 C 38.525556 25.285994 57.402284 0
M  V30 3 O 41.073887 33.649534 62.866642 0 CHG=-1
M  V30 4 C 37.436059 30.729543 59.137568 0
M  V30 5 N 40.321507 30.128526 61.332547 0
M  V30 6 C 38.441330 24.946426 55.925795 0
M  V30 7 C 42.695253 31.550407 65.396774 0
M  V30 8 C 42.566529 29.230175 64.949434 0
M  V30 9 C 37.080861 26.938186 54.124055 0
M  V30 10 C 39.247289 25.905509 55.032543 0
M  V30 11 C 38.519363 27.209696 54.598077 0 CFG=2
M  V30 12 C 41.129215 28.191410 63.158948 0
M  V30 13 O 38.761927 29.084685 53.137670 0
M  V30 14 O 39.330741 31.842710 62.566026 0
M  V30 15 N 38.660463 28.956628 58.165375 0
M  V30 16 C 41.241133 30.757188 63.548094 0
M  V30 17 O 41.728746 34.204879 64.882209 0
M  V30 18 C 39.220859 27.046147 52.164087 0
M  V30 19 C 41.799527 31.866561 64.323628 0
M  V30 20 C 38.537832 28.288784 55.732996 0
M  V30 21 C 38.781139 27.850498 57.212671 0 CFG=2
M  V30 22 C 40.200859 30.978569 62.429926 0
M  V30 23 C 39.640520 28.993301 59.250890 0
M  V30 24 N 43.029211 30.272722 65.649253 0 CHG=1
M  V30 25 C 39.808812 28.102809 51.274598 0
M  V30 26 C 37.596284 29.817435 58.186545 0
M  V30 27 N 43.273698 32.533023 66.202976 0
M  V30 28 N 39.245461 27.751446 53.439342 0
M  V30 29 C 37.961945 26.660679 57.749192 0
M  V30 30 C 39.453948 30.071157 60.366204 0
M  V30 31 C 39.843538 30.631222 51.603284 0
M  V30 32 N 38.313912 30.897653 60.201077 0
M  V30 33 C 39.056875 29.322695 51.766560 0 CFG=2
M  V30 34 C 41.663190 29.418662 63.891258 0
M  V30 35 H 39.563603 25.228495 57.730447 0
M  V30 36 H 37.988925 24.525607 57.970499 0
M  V30 37 H 36.594578 31.408475 59.148062 0
M  V30 38 H 38.845562 23.949328 55.811573 0
M  V30 39 H 37.404037 24.847030 55.613966 0
M  V30 40 H 42.923713 28.258892 65.266171 0
M  V30 41 H 36.445357 26.711200 54.969881 0
M  V30 42 H 36.631933 27.791032 53.614759 0
M  V30 43 H 37.017403 26.078345 53.455811 0
M  V30 44 H 40.209408 26.139417 55.491489 0
M  V30 45 H 39.521626 25.325265 54.167748 0
M  V30 46 H 41.345047 27.292687 63.735832 0
M  V30 47 H 40.047453 28.211227 63.025762 0
M  V30 48 H 41.618819 28.076541 62.192083 0
M  V30 49 H 39.812607 26.137453 52.163624 0
M  V30 50 H 38.206293 26.834395 51.829440 0
M  V30 51 H 37.624483 28.867502 55.630718 0
M  V30 52 H 39.328246 29.014490 55.531781 0
M  V30 53 H 39.827088 27.546982 57.261294 0
M  V30 54 H 39.645070 28.018894 59.741006 0
M  V30 55 H 40.634084 29.118131 58.817366 0
M  V30 56 H 39.650081 27.897046 50.215980 0
M  V30 57 H 40.878461 28.201738 51.453013 0
M  V30 58 H 36.897003 29.694951 57.374865 0
M  V30 59 H 43.025953 33.513358 66.081315 0
M  V30 60 H 43.887331 32.302343 66.970352 0
M  V30 61 H 38.033105 26.692674 58.835265 0
M  V30 62 H 36.905473 26.749342 57.490086 0
M  V30 63 H 39.939400 30.901588 50.551875 0
M  V30 64 H 39.365038 31.455785 52.132891 0
M  V30 65 H 40.844909 30.547262 52.016077 0
M  V30 66 H 38.098113 29.337865 51.253967 0
M  V30 67 H 38.094602 31.633137 60.858172 0
M  V30 68 H 43.677641 30.085543 66.413517 0
M  V30 END ATOM
M  V30 BEGIN BOND
M  V30 1 1 3 1
M  V30 2 1 6 2
M  V30 3 1 10 6
M  V30 4 1 11 9 CFG=3
M  V30 5 1 11 10
M  V30 6 2 17 1
M  V30 7 1 19 1
M  V30 8 2 19 7
M  V30 9 1 19 16
M  V30 10 1 20 11
M  V30 11 1 21 15
M  V30 12 1 21 20
M  V30 13 1 22 5
M  V30 14 2 22 14
M  V30 15 1 22 16
M  V30 16 1 23 15
M  V30 17 1 24 7
M  V30 18 2 24 8
M  V30 19 1 25 18
M  V30 20 2 26 4
M  V30 21 1 26 15
M  V30 22 1 27 7
M  V30 23 1 28 11
M  V30 24 1 28 13
M  V30 25 1 28 18
M  V30 26 1 29 2
M  V30 27 1 29 21
M  V30 28 2 30 5
M  V30 29 1 30 23
M  V30 30 1 32 4
M  V30 31 1 32 30
M  V30 32 1 33 13
M  V30 33 1 33 25
M  V30 34 1 33 31
M  V30 35 1 34 8
M  V30 36 1 34 12
M  V30 37 2 34 16
M  V30 38 1 35 2
M  V30 39 1 36 2
M  V30 40 1 37 4
M  V30 41 1 38 6
M  V30 42 1 39 6
M  V30 43 1 40 8
M  V30 44 1 41 9
M  V30 45 1 42 9
M  V30 46 1 43 9
M  V30 47 1 44 10
M  V30 48 1 45 10
M  V30 49 1 46 12
M  V30 50 1 47 12
M  V30 51 1 48 12
M  V30 52 1 49 18
M  V30 53 1 50 18
M  V30 54 1 51 20
M  V30 55 1 52 20
M  V30 56 1 21 53 CFG=3
M  V30 57 1 54 23
M  V30 58 1 55 23
M  V30 59 1 56 25
M  V30 60 1 57 25
M  V30 61 1 58 26
M  V30 62 1 59 27
M  V30 63 1 60 27
M  V30 64 1 61 29
M  V30 65 1 62 29
M  V30 66 1 63 31
M  V30 67 1 64 31
M  V30 68 1 65 31
M  V30 69 1 33 66 CFG=3
M  V30 70 1 67 32
M  V30 71 1 68 24
M  V30 END BOND
M  V30 END CTAB
M  END
>  <i_epik_Tot_Q>  (1) 
0

>  <i_epik_Tot_abs_Q>  (1) 
2

>  <i_i_glide_confnum>  (1) 
176

>  <i_i_glide_lignum>  (1) 
63

>  <i_i_glide_posenum>  (1) 
250

>  <i_i_glide_rotatable_bonds>  (1) 
5

>  <i_lp_mmshare_version>  (1) 
72125

>  <i_m_source_file_index>  (1) 
26

>  <i_f3d_flags>  (1) 
0

>  <num_sample>  (1) 
100

>  <b_lp_Chiralities_Consistent>  (1) 
1

>  <r_epik_Charging_Adjusted_Penalty>  (1) 
1.7343418636902355

>  <r_epik_Ionization_Penalty>  (1) 
0.81506818440052864

>  <r_epik_Ionization_Penalty_Charging>  (1) 
0.79852554791812069

>  <r_epik_Ionization_Penalty_Neutral>  (1) 
0.016542636482407981

>  <r_epik_State_Penalty>  (1) 
0.93581631577211466

>  <r_glide_ring_energy>  (1) 
0.67665862143778044

>  <r_i_docking_score>  (1) 
-6.5905850530888461

>  <r_i_glide_ecoul>  (1) 
-1.7909932702184819

>  <r_i_glide_eff_state_penalty>  (1) 
0.93581631577211466

>  <r_i_glide_einternal>  (1) 
4.3850025534360881

>  <r_i_glide_emodel>  (1) 
-60.768122979093604

>  <r_i_glide_emodel_strain>  (1) 
0

>  <r_i_glide_energy>  (1) 
-43.128879147126845

>  <r_i_glide_erotb>  (1) 
0.3649910051837349

>  <r_i_glide_esite>  (1) 
0

>  <r_i_glide_evdw>  (1) 
-41.337885876908366

>  <r_i_glide_gscore>  (1) 
-7.5264013688609603

>  <r_i_glide_gscore_strain>  (1) 
0

>  <r_i_glide_hbond>  (1) 
-0.057291538852142401

>  <r_i_glide_ligand_efficiency>  (1) 
-0.19384073685555431

>  <r_i_glide_ligand_efficiency_ln>  (1) 
-1.4560450978764516

>  <r_i_glide_ligand_efficiency_sa>  (1) 
-0.62796873868557701

>  <r_i_glide_lipo>  (1) 
-3.845008689332118

>  <r_i_glide_metal>  (1) 
-0

>  <r_i_glide_rewards>  (1) 
-1.6535488614822436

>  <r_lp_Energy>  (1) 
74.787555999999995

>  <s_epik_Chemistry_Notes>  (1) 
This compound has an imine and may undergo hydrolysis. This compound has a N-S or N-O group and may undergo hydrolysis at high or low pH.

>  <s_epik_cmdline>  (1) 
J2VwaWtfcHl0aG9uJywgJy1waHQnLCAnMS4wJywgJy1waCcsICc3LjQnLCAnLXRuJywgJzgnLCAnLW1hJywgJzUwMCcsICctaW1hZScsICc8aW5maWxlLm1hZT4nLCAnLW9tYWUnLCAnPG91dGZpbGUubWFlPic=

>  <s_epik_input>  (1) 
W09IXUMoPU8pYyhjMVtOSDJdKWMoYyhbY0hdbjEpW0NIM10pQyg9TylbTkhdQyg9TltDSF09W0NIXTIpW0NIMl1OMltDQEhdKFtDSDJdMylbQ0gyXVtDSDJdW0NIMl1bQ0gyXVtDQF0zKFtDSDNdKU40T1tDQEBIXShbQ0gzXSlbQ0gyXVtDSDJdNA==

>  <s_glide_docking_method>  (1) 
confgen

>  <s_i_glide_gridfile>  (1) 
gpcr_5ht2c_6bqh_protein_autoprepared_prepared

>  <s_lp_Force_Field>  (1) 
S-OPLS

>  <s_lp_Variant>  (1) 
DiffSBDD_25-3

>  <s_m_source_file>  (1) 
generated_GPCR_5HT2C_ligand_DiffSBDD_2026-06-23_prepared.sdf

>  <GenAI_Model>  (1) 
DiffSBDD

>  <Protein>  (1) 
GPCR_5HT2C

$$$$
DiffSBDD_74
     RDKit          3D

  0  0  0  0  0  0  0  0  0  0999 V3000
M  V30 BEGIN CTAB
M  V30 COUNTS 70 72 0 0 1
M  V30 BEGIN ATOM
M  V30 1 C 37.901030 33.293744 57.696959 0
M  V30 2 C 38.242684 30.056742 59.307213 0
M  V30 3 C 40.442196 32.198283 61.596273 0
M  V30 4 F 40.149919 31.462240 54.936687 0
M  V30 5 C 39.192092 30.446228 60.172437 0
M  V30 6 C 39.211180 29.990738 53.513020 0
M  V30 7 C 39.645145 30.176816 52.183082 0
M  V30 8 C 39.094367 26.208760 53.767925 0
M  V30 9 O 36.636041 24.537797 54.567642 0
M  V30 10 F 40.735083 32.586796 63.912208 0
M  V30 11 F 38.845157 33.119371 62.967826 0
M  V30 12 C 39.922637 28.262877 57.477404 0
M  V30 13 F 38.445137 32.185889 53.767909 0
M  V30 14 C 39.290671 32.937590 57.207799 0
M  V30 15 C 38.588404 32.789249 60.033235 0
M  V30 16 N 39.073480 26.120083 55.227746 0
M  V30 17 C 36.867656 25.083803 55.838352 0 CFG=1
M  V30 18 C 37.465785 23.965556 56.655938 0
M  V30 19 C 37.263036 31.031286 58.684670 0
M  V30 20 C 39.245114 27.591865 53.200198 0
M  V30 21 N 38.474615 28.141648 57.625131 0
M  V30 22 F 38.119607 30.835527 55.379603 0
M  V30 23 C 37.936839 26.784501 57.357900 0 CFG=1
M  V30 24 C 37.518796 32.531735 58.978106 0 CFG=2
M  V30 25 C 37.770069 26.347638 55.872320 0 CFG=1
M  V30 26 C 38.544579 25.626832 58.187636 0
M  V30 27 C 39.850267 29.061509 51.351593 0
M  V30 28 F 41.423235 31.295997 61.592133 0
M  V30 29 F 40.971841 33.398664 61.348992 0
M  V30 30 O 36.283228 33.082467 59.375875 0
M  V30 31 C 38.035988 28.603966 58.944443 0
M  V30 32 C 38.969827 31.163578 54.412369 0
M  V30 33 C 39.018350 28.708015 54.011496 0
M  V30 34 C 39.370856 31.831013 60.573869 0
M  V30 35 C 39.834932 32.234765 62.993918 0
M  V30 36 C 39.645118 27.765823 51.858574 0
M  V30 37 C 37.645615 24.383639 58.093926 0
M  V30 38 H 37.235265 33.060376 56.877391 0
M  V30 39 H 37.823210 34.370208 57.851289 0
M  V30 40 H 39.839449 29.694559 60.600796 0
M  V30 41 H 39.805558 31.174712 51.800027 0
M  V30 42 H 40.006126 25.737708 53.409041 0
M  V30 43 H 38.222992 25.741243 53.333040 0
M  V30 44 H 37.470084 24.346046 54.168118 0
M  V30 45 H 40.267703 27.918460 56.506098 0
M  V30 46 H 40.232605 29.303998 57.568151 0
M  V30 47 H 40.443827 27.686709 58.242635 0
M  V30 48 H 39.464590 33.337579 56.212537 0
M  V30 49 H 40.044941 33.337761 57.872213 0
M  V30 50 H 39.428301 31.856772 57.186989 0
M  V30 51 H 38.725099 33.818313 60.333277 0
M  V30 52 H 39.483947 25.250747 55.550770 0
M  V30 53 H 35.898078 25.336604 56.263104 0
M  V30 54 H 38.444053 23.737719 56.239994 0
M  V30 55 H 36.844793 23.072122 56.600999 0
M  V30 56 H 36.271035 30.741621 59.036203 0
M  V30 57 H 37.245176 30.846584 57.612973 0
M  V30 58 H 36.899665 26.835423 57.692354 0
M  V30 59 H 37.244978 27.140142 55.345810 0
M  V30 60 H 39.549354 25.389593 57.833740 0
M  V30 61 H 38.644285 25.905620 59.230975 0
M  V30 62 H 40.169038 29.199315 50.329248 0
M  V30 63 H 35.658325 32.844602 58.698082 0
M  V30 64 H 38.445423 27.978512 59.737883 0
M  V30 65 H 36.954503 28.537740 58.967640 0
M  V30 66 H 38.710911 28.582912 55.031566 0
M  V30 67 H 39.417099 31.268359 63.280342 0
M  V30 68 H 39.811832 26.906759 51.227175 0
M  V30 69 H 38.045132 23.510062 58.590789 0
M  V30 70 H 36.676540 24.589854 58.538136 0
M  V30 END ATOM
M  V30 BEGIN BOND
M  V30 1 2 5 2
M  V30 2 2 7 6
M  V30 3 1 14 1
M  V30 4 1 16 8
M  V30 5 1 17 9
M  V30 6 1 18 17
M  V30 7 1 19 2
M  V30 8 1 20 8
M  V30 9 1 21 12
M  V30 10 1 23 21
M  V30 11 1 24 1
M  V30 12 1 24 15
M  V30 13 1 24 19
M  V30 14 1 25 16
M  V30 15 1 25 17
M  V30 16 1 25 23
M  V30 17 1 26 23
M  V30 18 1 27 7
M  V30 19 1 28 3
M  V30 20 1 29 3
M  V30 21 1 24 30 CFG=1
M  V30 22 1 31 2
M  V30 23 1 31 21
M  V30 24 1 32 4
M  V30 25 1 32 6
M  V30 26 1 32 13
M  V30 27 1 32 22
M  V30 28 1 33 6
M  V30 29 2 33 20
M  V30 30 1 34 3
M  V30 31 1 34 5
M  V30 32 2 34 15
M  V30 33 1 35 3
M  V30 34 1 35 10
M  V30 35 1 35 11
M  V30 36 1 36 20
M  V30 37 2 36 27
M  V30 38 1 37 18
M  V30 39 1 37 26
M  V30 40 1 38 1
M  V30 41 1 39 1
M  V30 42 1 40 5
M  V30 43 1 41 7
M  V30 44 1 42 8
M  V30 45 1 43 8
M  V30 46 1 44 9
M  V30 47 1 45 12
M  V30 48 1 46 12
M  V30 49 1 47 12
M  V30 50 1 48 14
M  V30 51 1 49 14
M  V30 52 1 50 14
M  V30 53 1 51 15
M  V30 54 1 52 16
M  V30 55 1 17 53 CFG=1
M  V30 56 1 54 18
M  V30 57 1 55 18
M  V30 58 1 56 19
M  V30 59 1 57 19
M  V30 60 1 23 58 CFG=1
M  V30 61 1 25 59 CFG=3
M  V30 62 1 60 26
M  V30 63 1 61 26
M  V30 64 1 62 27
M  V30 65 1 63 30
M  V30 66 1 64 31
M  V30 67 1 65 31
M  V30 68 1 66 33
M  V30 69 1 67 35
M  V30 70 1 68 36
M  V30 71 1 69 37
M  V30 72 1 70 37
M  V30 END BOND
M  V30 END CTAB
M  END
>  <i_epik_Tot_Q>  (1) 
0

>  <i_epik_Tot_abs_Q>  (1) 
0

>  <i_i_glide_confnum>  (1) 
341

>  <i_i_glide_lignum>  (1) 
163

>  <i_i_glide_posenum>  (1) 
182

>  <i_i_glide_rotatable_bonds>  (1) 
12

>  <i_lp_mmshare_version>  (1) 
72125

>  <i_m_source_file_index>  (1) 
75

>  <i_f3d_flags>  (1) 
0

>  <num_sample>  (1) 
100

>  <b_lp_Chiralities_Consistent>  (1) 
1

>  <r_epik_Charging_Adjusted_Penalty>  (1) 
0.95016653891127834

>  <r_epik_Ionization_Penalty>  (1) 
0.98731077050132976

>  <r_epik_Ionization_Penalty_Charging>  (1) 
0

>  <r_epik_Ionization_Penalty_Neutral>  (1) 
0.98731077050132976

>  <r_epik_State_Penalty>  (1) 
0.95016653891127834

>  <r_glide_ring_energy>  (1) 
0

>  <r_i_docking_score>  (1) 
-6.5867046411120143

>  <r_i_glide_ecoul>  (1) 
-2.2144267456816005

>  <r_i_glide_eff_state_penalty>  (1) 
0.95016653891127834

>  <r_i_glide_einternal>  (1) 
20.491921228858136

>  <r_i_glide_emodel>  (1) 
-38.191174138010098

>  <r_i_glide_emodel_strain>  (1) 
0.27298735212990266

>  <r_i_glide_energy>  (1) 
-32.308710549584646

>  <r_i_glide_erotb>  (1) 
0.49869770839919392

>  <r_i_glide_esite>  (1) 
-0.081275875236027029

>  <r_i_glide_evdw>  (1) 
-30.094283803903046

>  <r_i_glide_gscore>  (1) 
-7.5368711800232928

>  <r_i_glide_gscore_strain>  (1) 
0

>  <r_i_glide_hbond>  (1) 
-0.15218590298121051

>  <r_i_glide_ligand_efficiency>  (1) 
-0.17801904435437876

>  <r_i_glide_ligand_efficiency_ln>  (1) 
-1.4285018223919619

>  <r_i_glide_ligand_efficiency_sa>  (1) 
-0.5931989496067912

>  <r_i_glide_lipo>  (1) 
-4.5531780512405069

>  <r_i_glide_metal>  (1) 
-0

>  <r_i_glide_rewards>  (1) 
-1.4120508569173487

>  <r_lp_Energy>  (1) 
51.967185000000001

>  <s_epik_cmdline>  (1) 
J2VwaWtfcHl0aG9uJywgJy1waHQnLCAnMS4wJywgJy1waCcsICc3LjQnLCAnLXRuJywgJzgnLCAnLW1hJywgJzUwMCcsICctaW1hZScsICc8aW5maWxlLm1hZT4nLCAnLW9tYWUnLCAnPG91dGZpbGUubWFlPic=

>  <s_epik_input>  (1) 
W0NIM11bQ0gyXVtDQF0xKFtPSF0pW0NIXT1DKEMoRikoRilbQ0hdKEYpRilbQ0hdPUMoW0NIMl0xKVtDSDJdTihbQ0gzXSlbQ0BIXShbQ0gyXVtDSDJdW0NIMl1bQ0BASF0yW09IXSlbQ0BIXTJbTkhdW0NIMl1jKFtjSF0zKVtjSF1bY0hdW2NIXWMzQyhGKShGKUY=

>  <s_glide_docking_method>  (1) 
confgen

>  <s_i_glide_gridfile>  (1) 
gpcr_5ht2c_6bqh_protein_autoprepared_prepared

>  <s_lp_Force_Field>  (1) 
S-OPLS

>  <s_lp_Variant>  (1) 
DiffSBDD_74-2

>  <s_m_source_file>  (1) 
generated_GPCR_5HT2C_ligand_DiffSBDD_2026-06-23_prepared.sdf

>  <GenAI_Model>  (1) 
DiffSBDD

>  <Protein>  (1) 
GPCR_5HT2C

$$$$
DiffSBDD_89
     RDKit          3D

  0  0  0  0  0  0  0  0  0  0999 V3000
M  V30 BEGIN CTAB
M  V30 COUNTS 60 62 0 0 1
M  V30 BEGIN ATOM
M  V30 1 C 38.030930 29.156483 54.754380 0
M  V30 2 O 40.445149 32.606233 63.667450 0 CHG=-1
M  V30 3 C 41.707888 27.727061 57.191304 0
M  V30 4 C 40.732722 29.662148 61.643188 0
M  V30 5 C 38.111507 27.640654 54.865198 0 CFG=2
M  V30 6 O 41.602594 28.382107 59.367761 0
M  V30 7 C 37.226305 30.723500 60.542140 0
M  V30 8 O 42.045137 32.215370 62.167730 0
M  V30 9 C 38.422656 30.673289 61.273556 0
M  V30 10 C 40.726439 30.380694 50.005838 0
M  V30 11 C 39.314391 29.319546 51.823402 0
M  V30 12 C 40.251013 28.021461 59.130118 0 CFG=1
M  V30 13 C 40.837371 30.350117 63.026353 0
M  V30 14 C 41.133623 31.853655 62.945750 0
M  V30 15 O 36.845141 28.137761 52.856273 0
M  V30 16 C 39.601942 25.619178 54.819200 0
M  V30 17 C 35.795273 29.833045 58.658826 0
M  V30 18 N 38.045081 29.047872 58.992382 0
M  V30 19 C 39.200759 29.001342 59.683113 0
M  V30 20 C 40.502569 29.144515 50.883251 0
M  V30 21 C 40.258789 27.983173 57.582826 0 CFG=2
M  V30 22 C 39.354314 26.993366 55.424817 0 CFG=2
M  V30 23 C 39.324868 26.930807 56.964741 0
M  V30 24 C 42.445153 27.649472 58.501845 0
M  V30 25 C 38.066362 28.297201 53.513769 0 CFG=1
M  V30 26 C 39.432764 29.783725 60.855225 0
M  V30 27 C 37.083046 29.878770 59.424748 0
M  V30 28 O 39.245136 28.240823 52.737040 0
M  V30 29 H 38.923322 29.732548 54.990856 0
M  V30 30 H 37.088601 29.630797 55.023978 0
M  V30 31 H 41.831497 26.810840 56.622291 0
M  V30 32 H 42.091965 28.537684 56.576423 0
M  V30 33 H 40.971049 28.605352 61.770759 0
M  V30 34 H 41.471588 30.089083 60.989240 0
M  V30 35 H 37.207441 27.113247 55.151800 0
M  V30 36 H 36.423018 31.377978 60.845505 0
M  V30 37 H 38.553282 31.292408 62.146866 0
M  V30 38 H 41.601354 30.259300 49.367206 0
M  V30 39 H 39.862339 30.567677 49.368189 0
M  V30 40 H 40.885575 31.269732 50.615828 0
M  V30 41 H 38.413514 29.337751 51.213073 0
M  V30 42 H 39.385193 30.260014 52.371784 0
M  V30 43 H 40.054826 27.030206 59.540438 0
M  V30 44 H 39.957043 30.148979 63.638237 0
M  V30 45 H 41.677845 29.913021 63.565529 0
M  V30 46 H 36.845629 27.293919 52.420610 0
M  V30 47 H 38.733700 24.965718 54.908010 0
M  V30 48 H 39.859679 25.737734 53.767755 0
M  V30 49 H 40.440090 25.145644 55.328111 0
M  V30 50 H 35.187608 30.712123 58.865904 0
M  V30 51 H 36.010046 29.737967 57.593378 0
M  V30 52 H 35.241382 28.947967 58.967734 0
M  V30 53 H 41.403568 28.940732 51.456127 0
M  V30 54 H 40.335807 28.268849 50.255220 0
M  V30 55 H 40.000332 28.973147 57.202272 0
M  V30 56 H 40.190033 27.611779 55.104837 0
M  V30 57 H 38.304154 27.057344 57.325153 0
M  V30 58 H 39.627075 25.944687 57.320127 0
M  V30 59 H 42.551871 26.618786 58.835771 0
M  V30 60 H 43.438507 28.082681 58.418265 0
M  V30 END ATOM
M  V30 BEGIN BOND
M  V30 1 1 5 1
M  V30 2 2 9 7
M  V30 3 1 12 6
M  V30 4 1 13 4
M  V30 5 1 14 2
M  V30 6 2 14 8
M  V30 7 1 14 13
M  V30 8 1 19 12
M  V30 9 1 19 18
M  V30 10 1 20 10
M  V30 11 1 20 11
M  V30 12 1 21 3
M  V30 13 1 21 12
M  V30 14 1 22 5
M  V30 15 1 22 16
M  V30 16 1 23 21
M  V30 17 1 23 22
M  V30 18 1 24 3
M  V30 19 1 24 6
M  V30 20 1 25 1
M  V30 21 1 25 5
M  V30 22 1 25 15 CFG=3
M  V30 23 1 26 4
M  V30 24 1 26 9
M  V30 25 2 26 19
M  V30 26 1 27 7
M  V30 27 1 27 17
M  V30 28 2 27 18
M  V30 29 1 28 11
M  V30 30 1 28 25
M  V30 31 1 29 1
M  V30 32 1 30 1
M  V30 33 1 31 3
M  V30 34 1 32 3
M  V30 35 1 33 4
M  V30 36 1 34 4
M  V30 37 1 5 35 CFG=1
M  V30 38 1 36 7
M  V30 39 1 37 9
M  V30 40 1 38 10
M  V30 41 1 39 10
M  V30 42 1 40 10
M  V30 43 1 41 11
M  V30 44 1 42 11
M  V30 45 1 12 43 CFG=1
M  V30 46 1 44 13
M  V30 47 1 45 13
M  V30 48 1 46 15
M  V30 49 1 47 16
M  V30 50 1 48 16
M  V30 51 1 49 16
M  V30 52 1 50 17
M  V30 53 1 51 17
M  V30 54 1 52 17
M  V30 55 1 53 20
M  V30 56 1 54 20
M  V30 57 1 21 55 CFG=3
M  V30 58 1 22 56 CFG=1
M  V30 59 1 57 23
M  V30 60 1 58 23
M  V30 61 1 59 24
M  V30 62 1 60 24
M  V30 END BOND
M  V30 END CTAB
M  END
>  <i_epik_Tot_Q>  (1) 
-1

>  <i_epik_Tot_abs_Q>  (1) 
1

>  <i_i_glide_confnum>  (1) 
88

>  <i_i_glide_lignum>  (1) 
209

>  <i_i_glide_posenum>  (1) 
325

>  <i_i_glide_rotatable_bonds>  (1) 
11

>  <i_lp_mmshare_version>  (1) 
72125

>  <i_m_source_file_index>  (1) 
90

>  <i_f3d_flags>  (1) 
0

>  <num_sample>  (1) 
100

>  <b_lp_Chiralities_Consistent>  (1) 
1

>  <r_epik_Charging_Adjusted_Penalty>  (1) 
0.038997202990306332

>  <r_epik_Ionization_Penalty>  (1) 
0.038997322870567536

>  <r_epik_Ionization_Penalty_Charging>  (1) 
0.00068578103088963352

>  <r_epik_Ionization_Penalty_Neutral>  (1) 
0.038311541839677901

>  <r_epik_State_Penalty>  (1) 
0.038311421959416697

>  <r_glide_ring_energy>  (1) 
0

>  <r_i_docking_score>  (1) 
-6.5841244665269301

>  <r_i_glide_ecoul>  (1) 
-3.6523543921143529

>  <r_i_glide_eff_state_penalty>  (1) 
0.038311421959416697

>  <r_i_glide_einternal>  (1) 
8.1332060056541096

>  <r_i_glide_emodel>  (1) 
-47.733041468987778

>  <r_i_glide_emodel_strain>  (1) 
1.1049981770885324

>  <r_i_glide_energy>  (1) 
-35.684430690128224

>  <r_i_glide_erotb>  (1) 
1.0232646033352888

>  <r_i_glide_esite>  (1) 
0

>  <r_i_glide_evdw>  (1) 
-32.03207629801387

>  <r_i_glide_gscore>  (1) 
-6.622435888486347

>  <r_i_glide_gscore_strain>  (1) 
0

>  <r_i_glide_hbond>  (1) 
-0.25828405458268638

>  <r_i_glide_ligand_efficiency>  (1) 
-0.23514730237596179

>  <r_i_glide_ligand_efficiency_ln>  (1) 
-1.5198092451689573

>  <r_i_glide_ligand_efficiency_sa>  (1) 
-0.71404570516115751

>  <r_i_glide_lipo>  (1) 
-3.3643013617204316

>  <r_i_glide_metal>  (1) 
-0

>  <r_i_glide_rewards>  (1) 
-1.8736581018006708

>  <r_lp_Energy>  (1) 
22.324921

>  <s_epik_cmdline>  (1) 
J2VwaWtfcHl0aG9uJywgJy1waHQnLCAnMS4wJywgJy1waCcsICc3LjQnLCAnLXRuJywgJzgnLCAnLW1hJywgJzUwMCcsICctaW1hZScsICc8aW5maWxlLm1hZT4nLCAnLW9tYWUnLCAnPG91dGZpbGUubWFlPic=

>  <s_epik_input>  (1) 
W0NIM11bQ0gyXVtDSDJdT0MxKFtPSF0pW0NIMl1bQ0BASF0xW0NASF0oW0NIM10pW0NIMl1bQ0BASF0yW0NIMl1bQ0gyXU9bQ0BIXTJjM25jKFtDSDNdKVtjSF1bY0hdYzNbQ0gyXVtDSDJdQyg9TylbT0hd

>  <s_glide_docking_method>  (1) 
confgen

>  <s_i_glide_gridfile>  (1) 
gpcr_5ht2c_6bqh_protein_autoprepared_prepared

>  <s_lp_Force_Field>  (1) 
S-OPLS

>  <s_lp_Variant>  (1) 
DiffSBDD_89-1

>  <s_m_source_file>  (1) 
generated_GPCR_5HT2C_ligand_DiffSBDD_2026-06-23_prepared.sdf

>  <GenAI_Model>  (1) 
DiffSBDD

>  <Protein>  (1) 
GPCR_5HT2C

$$$$
DiffSBDD_30
     RDKit          3D

  0  0  0  0  0  0  0  0  0  0999 V3000
M  V30 BEGIN CTAB
M  V30 COUNTS 35 36 0 0 1
M  V30 BEGIN ATOM
M  V30 1 C 39.936862 28.123247 56.489765 0
M  V30 2 N 40.290010 28.311945 57.861620 0
M  V30 3 C 39.119740 29.031559 54.274185 0
M  V30 4 C 40.107724 26.727598 55.975506 0
M  V30 5 C 39.787239 29.431612 58.558276 0
M  V30 6 C 38.915248 28.011584 51.169231 0
M  V30 7 C 38.471394 27.936431 53.685290 0
M  V30 8 C 39.282307 30.294279 53.500123 0
M  V30 9 C 39.534681 29.134811 55.692337 0
M  V30 10 C 40.042383 29.737671 59.845021 0
M  V30 11 N 39.656691 30.137754 52.194079 0
M  V30 12 C 37.901430 28.061704 52.281881 0
M  V30 13 C 38.173208 26.680114 54.407963 0
M  V30 14 O 39.123490 31.410390 53.981446 0
M  V30 15 C 38.863607 26.167355 55.428367 0
M  V30 16 C 40.074590 28.881991 51.563315 0
M  V30 17 C 41.101012 27.324254 58.567760 0
M  V30 18 H 40.845120 26.737163 55.175779 0
M  V30 19 H 40.445214 25.977821 56.684271 0
M  V30 20 H 39.143030 30.060375 57.974587 0
M  V30 21 H 39.254467 26.989486 50.990250 0
M  V30 22 H 38.467830 28.368685 50.242671 0
M  V30 23 H 39.525461 30.124073 56.110685 0
M  V30 24 H 40.678802 29.123261 60.458955 0
M  V30 25 H 39.608199 30.616978 60.297492 0
M  V30 26 H 39.758083 30.974642 51.638109 0
M  V30 27 H 37.245145 27.218688 52.167739 0
M  V30 28 H 37.257951 28.937711 52.203598 0
M  V30 29 H 37.318440 26.112292 54.069066 0
M  V30 30 H 38.533424 25.235903 55.865110 0
M  V30 31 H 40.644024 29.135479 50.669077 0
M  V30 32 H 40.759817 28.308400 52.167735 0
M  V30 33 H 41.666424 27.737795 59.399388 0
M  V30 34 H 41.862094 26.892375 57.918003 0
M  V30 35 H 40.445233 26.537698 58.941672 0
M  V30 END ATOM
M  V30 BEGIN BOND
M  V30 1 1 2 1
M  V30 2 1 4 1
M  V30 3 1 5 2
M  V30 4 2 7 3
M  V30 5 1 8 3
M  V30 6 2 9 1
M  V30 7 1 9 3
M  V30 8 2 10 5
M  V30 9 1 11 8
M  V30 10 1 12 6
M  V30 11 1 12 7
M  V30 12 1 13 7
M  V30 13 2 14 8
M  V30 14 1 15 4
M  V30 15 2 15 13
M  V30 16 1 16 6
M  V30 17 1 16 11
M  V30 18 1 17 2
M  V30 19 1 18 4
M  V30 20 1 19 4
M  V30 21 1 20 5
M  V30 22 1 21 6
M  V30 23 1 22 6
M  V30 24 1 23 9
M  V30 25 1 24 10
M  V30 26 1 25 10
M  V30 27 1 26 11
M  V30 28 1 27 12
M  V30 29 1 28 12
M  V30 30 1 29 13
M  V30 31 1 30 15
M  V30 32 1 31 16
M  V30 33 1 32 16
M  V30 34 1 33 17
M  V30 35 1 34 17
M  V30 36 1 35 17
M  V30 END BOND
M  V30 END CTAB
M  END
>  <i_epik_Tot_Q>  (1) 
0

>  <i_epik_Tot_abs_Q>  (1) 
0

>  <i_i_glide_confnum>  (1) 
1

>  <i_i_glide_lignum>  (1) 
72

>  <i_i_glide_posenum>  (1) 
318

>  <i_i_glide_rotatable_bonds>  (1) 
2

>  <i_lp_mmshare_version>  (1) 
72125

>  <i_m_source_file_index>  (1) 
31

>  <i_f3d_flags>  (1) 
0

>  <num_sample>  (1) 
100

>  <b_lp_Chiralities_Consistent>  (1) 
1

>  <r_epik_Charging_Adjusted_Penalty>  (1) 
0.00013572112653438843

>  <r_epik_Ionization_Penalty>  (1) 
0.00014669493665376082

>  <r_epik_Ionization_Penalty_Charging>  (1) 
0.00013572112653438843

>  <r_epik_Ionization_Penalty_Neutral>  (1) 
1.0973810119372391e-05

>  <r_epik_State_Penalty>  (1) 
-0

>  <r_glide_ring_energy>  (1) 
0

>  <r_i_docking_score>  (1) 
-6.580624074081503

>  <r_i_glide_ecoul>  (1) 
-0.58030209062614835

>  <r_i_glide_eff_state_penalty>  (1) 
-0

>  <r_i_glide_einternal>  (1) 
2.3889126249473769

>  <r_i_glide_emodel>  (1) 
-32.223384877500536

>  <r_i_glide_emodel_strain>  (1) 
2.7970230789264861e-05

>  <r_i_glide_energy>  (1) 
-22.022076862621784

>  <r_i_glide_erotb>  (1) 
0.32205052680496415

>  <r_i_glide_esite>  (1) 
0

>  <r_i_glide_evdw>  (1) 
-21.441774771995636

>  <r_i_glide_gscore>  (1) 
-6.580624074081503

>  <r_i_glide_gscore_strain>  (1) 
0

>  <r_i_glide_hbond>  (1) 
0

>  <r_i_glide_ligand_efficiency>  (1) 
-0.38709553376950018

>  <r_i_glide_ligand_efficiency_ln>  (1) 
-1.7167382776347224

>  <r_i_glide_ligand_efficiency_sa>  (1) 
-0.99533161980753915

>  <r_i_glide_lipo>  (1) 
-2.9163125671082515

>  <r_i_glide_metal>  (1) 
-0

>  <r_i_glide_rewards>  (1) 
-2.8272279815845112

>  <r_lp_Energy>  (1) 
36.162458999999998

>  <r_lp_tautomer_probability>  (1) 
1

>  <s_epik_Chemistry_Notes>  (1) 
This compound has an imine and may undergo hydrolysis.

>  <s_epik_cmdline>  (1) 
J2VwaWtfcHl0aG9uJywgJy1waHQnLCAnMS4wJywgJy1waCcsICc3LjQnLCAnLXRuJywgJzgnLCAnLW1hJywgJzUwMCcsICctaW1hZScsICc8aW5maWxlLm1hZT4nLCAnLW9tYWUnLCAnPG91dGZpbGUubWFlPic=

>  <s_epik_input>  (1) 
W0NIMl09W0NIXU4oW0NIM10pQyg9W0NIXTEpW0NIMl1bQ0hdPVtDSF1DKD1DMTIpW0NIMl1bQ0gyXVtDSDJdW05IXUMyPU8=

>  <s_glide_docking_method>  (1) 
confgen

>  <s_i_glide_gridfile>  (1) 
gpcr_5ht2c_6bqh_protein_autoprepared_prepared

>  <s_lp_Force_Field>  (1) 
S-OPLS

>  <s_lp_Variant>  (1) 
DiffSBDD_30-1

>  <s_m_source_file>  (1) 
generated_GPCR_5HT2C_ligand_DiffSBDD_2026-06-23_prepared.sdf

>  <GenAI_Model>  (1) 
DiffSBDD

>  <Protein>  (1) 
GPCR_5HT2C

$$$$
DiffSBDD_43
     RDKit          3D

  0  0  0  0  0  0  0  0  0  0999 V3000
M  V30 BEGIN CTAB
M  V30 COUNTS 83 85 0 0 1
M  V30 BEGIN ATOM
M  V30 1 C 40.055153 26.077675 54.359812 0
M  V30 2 C 36.853795 36.160243 61.838157 0
M  V30 3 C 40.163721 30.257373 62.843303 0
M  V30 4 C 38.208734 31.220863 55.971714 0 CFG=2
M  V30 5 C 37.795226 31.421055 58.592840 0 CFG=2
M  V30 6 O 41.645167 34.081976 63.367731 0
M  V30 7 O 36.178640 34.310174 60.414451 0
M  V30 8 N 37.571180 27.654551 54.060944 0 CHG=1
M  V30 9 C 40.755303 31.525174 62.963394 0
M  V30 10 C 37.999793 36.825869 62.606744 0
M  V30 11 C 38.550287 32.467579 55.140921 0
M  V30 12 C 39.007522 26.570352 58.186592 0
M  V30 13 N 40.760195 34.946740 61.367832 0
M  V30 14 C 40.494071 32.525195 61.996273 0
M  V30 15 C 37.294900 34.911012 61.070190 0
M  V30 16 N 41.074297 33.808129 62.117433 0
M  V30 17 C 38.805017 31.260567 57.419047 0 CFG=1
M  V30 18 O 35.126613 32.353502 59.767770 0
M  V30 19 C 38.265153 27.235120 52.820117 0 CFG=1
M  V30 20 C 37.284677 32.872861 58.824751 0
M  V30 21 C 37.795328 26.763925 55.218660 0
M  V30 22 C 39.468203 27.987323 58.549430 0 CFG=1
M  V30 23 C 39.303989 29.976597 61.767871 0
M  V30 24 O 39.645138 30.137736 57.610173 0
M  V30 25 C 41.007328 28.123493 58.610570 0
M  V30 26 C 39.295644 26.682977 55.557915 0 CFG=1
M  V30 27 O 38.731926 30.151465 55.205707 0
M  V30 28 C 36.357606 32.971583 60.059125 0 CFG=1
M  V30 29 C 39.641700 32.233626 60.903165 0
M  V30 30 N 39.220543 24.537784 56.862560 0 CHG=1
M  V30 31 C 39.481800 28.085042 52.585147 0
M  V30 32 C 39.610789 25.955498 56.902526 0 CFG=2
M  V30 33 O 38.855273 28.872389 57.628598 0
M  V30 34 C 39.645410 26.633973 52.997904 0 CFG=1
M  V30 35 O 38.159682 30.646197 59.757375 0
M  V30 36 O 38.045135 33.631059 55.739451 0
M  V30 37 C 39.033823 30.957288 60.793047 0
M  V30 38 H 41.131197 26.174054 54.474624 0
M  V30 39 H 39.873376 25.005538 54.330952 0
M  V30 40 H 36.445102 36.884692 61.134576 0
M  V30 41 H 36.063111 35.895109 62.543934 0
M  V30 42 H 40.362786 29.497197 63.585160 0
M  V30 43 H 37.142575 31.044384 55.988783 0
M  V30 44 H 36.914040 30.863159 58.275964 0
M  V30 45 H 40.934403 34.363524 63.923771 0
M  V30 46 H 37.897221 28.582599 54.319642 0
M  V30 47 H 41.408621 31.730582 63.798703 0
M  V30 48 H 37.627945 37.682567 63.167540 0
M  V30 49 H 38.457331 36.137709 63.318143 0
M  V30 50 H 38.776956 37.182526 61.930445 0
M  V30 51 H 39.631053 32.562012 55.034992 0
M  V30 52 H 38.130312 32.390757 54.136314 0
M  V30 53 H 39.289445 25.922542 59.014253 0
M  V30 54 H 37.917739 26.540715 58.159280 0
M  V30 55 H 40.535421 34.674249 60.413905 0
M  V30 56 H 39.949172 35.407098 61.775887 0
M  V30 57 H 37.754948 34.213020 61.767776 0
M  V30 58 H 38.055128 35.189963 60.341300 0
M  V30 59 H 39.485732 32.109140 57.466036 0
M  V30 60 H 35.019121 32.357491 58.820280 0
M  V30 61 H 37.645140 26.939976 51.982563 0
M  V30 62 H 38.101940 33.579784 58.887088 0
M  V30 63 H 36.738436 33.250937 57.964981 0
M  V30 64 H 37.383146 25.777275 55.002270 0
M  V30 65 H 37.245260 27.160266 56.067162 0
M  V30 66 H 39.072428 28.223633 59.535100 0
M  V30 67 H 38.845199 29.002836 61.691902 0
M  V30 68 H 41.453558 27.337751 59.213813 0
M  V30 69 H 41.459922 28.078851 57.620257 0
M  V30 70 H 41.308689 29.066416 59.067843 0
M  V30 71 H 39.672130 27.699448 55.656470 0
M  V30 72 H 39.673087 30.182161 55.307826 0
M  V30 73 H 36.754766 32.439662 60.922826 0
M  V30 74 H 39.455670 32.985825 60.170770 0
M  V30 75 H 38.218147 24.441894 56.780248 0
M  V30 76 H 39.680226 24.094943 56.079222 0
M  V30 77 H 39.645194 28.885044 53.295532 0
M  V30 78 H 39.720069 28.335833 51.553245 0
M  V30 79 H 40.694717 25.952097 57.017367 0
M  V30 80 H 40.045141 26.037652 52.181451 0
M  V30 81 H 37.091490 33.568675 55.718194 0
M  V30 82 H 39.530606 24.085500 57.712358 0
M  V30 83 H 36.580852 27.709057 53.871299 0
M  V30 END ATOM
M  V30 BEGIN BOND
M  V30 1 1 9 3
M  V30 2 1 10 2
M  V30 3 1 11 4
M  V30 4 2 14 9
M  V30 5 1 15 2
M  V30 6 1 15 7
M  V30 7 1 16 6
M  V30 8 1 16 13
M  V30 9 1 16 14
M  V30 10 1 17 4
M  V30 11 1 17 5
M  V30 12 1 19 8
M  V30 13 1 20 5
M  V30 14 1 21 8
M  V30 15 1 22 12
M  V30 16 2 23 3
M  V30 17 1 24 17
M  V30 18 1 25 22
M  V30 19 1 26 1
M  V30 20 1 26 21
M  V30 21 1 27 4
M  V30 22 1 28 7
M  V30 23 1 28 18
M  V30 24 1 28 20
M  V30 25 1 29 14
M  V30 26 1 31 19
M  V30 27 1 32 12
M  V30 28 1 32 26
M  V30 29 1 32 30
M  V30 30 1 33 22
M  V30 31 1 33 24
M  V30 32 1 34 1
M  V30 33 1 34 19
M  V30 34 1 34 31
M  V30 35 1 35 5
M  V30 36 1 36 11
M  V30 37 1 37 23
M  V30 38 2 37 29
M  V30 39 1 37 35
M  V30 40 1 38 1
M  V30 41 1 39 1
M  V30 42 1 40 2
M  V30 43 1 41 2
M  V30 44 1 42 3
M  V30 45 1 4 43 CFG=1
M  V30 46 1 5 44 CFG=3
M  V30 47 1 45 6
M  V30 48 1 46 8
M  V30 49 1 47 9
M  V30 50 1 48 10
M  V30 51 1 49 10
M  V30 52 1 50 10
M  V30 53 1 51 11
M  V30 54 1 52 11
M  V30 55 1 53 12
M  V30 56 1 54 12
M  V30 57 1 55 13
M  V30 58 1 56 13
M  V30 59 1 57 15
M  V30 60 1 58 15
M  V30 61 1 17 59 CFG=3
M  V30 62 1 60 18
M  V30 63 1 19 61 CFG=3
M  V30 64 1 62 20
M  V30 65 1 63 20
M  V30 66 1 64 21
M  V30 67 1 65 21
M  V30 68 1 22 66 CFG=1
M  V30 69 1 67 23
M  V30 70 1 68 25
M  V30 71 1 69 25
M  V30 72 1 70 25
M  V30 73 1 26 71 CFG=1
M  V30 74 1 72 27
M  V30 75 1 28 73 CFG=1
M  V30 76 1 74 29
M  V30 77 1 75 30
M  V30 78 1 76 30
M  V30 79 1 77 31
M  V30 80 1 78 31
M  V30 81 1 32 79 CFG=1
M  V30 82 1 34 80 CFG=3
M  V30 83 1 81 36
M  V30 84 1 82 30
M  V30 85 1 83 8
M  V30 END BOND
M  V30 END CTAB
M  END
>  <i_epik_Tot_Q>  (1) 
2

>  <i_epik_Tot_abs_Q>  (1) 
2

>  <i_i_glide_confnum>  (1) 
2774

>  <i_i_glide_lignum>  (1) 
95

>  <i_i_glide_posenum>  (1) 
40

>  <i_i_glide_rotatable_bonds>  (1) 
21

>  <i_lp_mmshare_version>  (1) 
72125

>  <i_m_source_file_index>  (1) 
44

>  <i_f3d_flags>  (1) 
0

>  <num_sample>  (1) 
100

>  <b_lp_Chiralities_Consistent>  (1) 
1

>  <r_epik_Charging_Adjusted_Penalty>  (1) 
0.054628322637716921

>  <r_epik_Ionization_Penalty>  (1) 
0.057286365922034427

>  <r_epik_Ionization_Penalty_Charging>  (1) 
0.054628322637716921

>  <r_epik_Ionization_Penalty_Neutral>  (1) 
0.0026580432843175059

>  <r_epik_State_Penalty>  (1) 
-0

>  <r_glide_ring_energy>  (1) 
0

>  <r_i_docking_score>  (1) 
-6.5762979806360846

>  <r_i_glide_ecoul>  (1) 
-6.3668684711986714

>  <r_i_glide_eff_state_penalty>  (1) 
-0

>  <r_i_glide_einternal>  (1) 
12.136934489317005

>  <r_i_glide_emodel>  (1) 
-70.449604992703954

>  <r_i_glide_emodel_strain>  (1) 
2.3284477274514614

>  <r_i_glide_energy>  (1) 
-50.46418000014107

>  <r_i_glide_erotb>  (1) 
1.0980815572756908

>  <r_i_glide_esite>  (1) 
-0.038695102177751774

>  <r_i_glide_evdw>  (1) 
-44.097311528942399

>  <r_i_glide_gscore>  (1) 
-6.5762979806360846

>  <r_i_glide_gscore_strain>  (1) 
0

>  <r_i_glide_hbond>  (1) 
-0.30399999999999999

>  <r_i_glide_ligand_efficiency>  (1) 
-0.17773778326043471

>  <r_i_glide_ligand_efficiency_ln>  (1) 
-1.4262448617014685

>  <r_i_glide_ligand_efficiency_sa>  (1) 
-0.59226172524353293

>  <r_i_glide_lipo>  (1) 
-3.6228764390997457

>  <r_i_glide_metal>  (1) 
-0

>  <r_i_glide_rewards>  (1) 
-0.54891214950735678

>  <r_lp_Energy>  (1) 
48.925089999999997

>  <r_lp_tautomer_probability>  (1) 
1

>  <s_epik_Chemistry_Notes>  (1) 
This compound contains an acetal/aminal-like group ( X-CH(R)-Y where X, Y are N, S, or O) that may be acid/base labile, releasing an aldehyde. This compound has a N-S or N-O group and may undergo hydrolysis at high or low pH.

>  <s_epik_cmdline>  (1) 
J2VwaWtfcHl0aG9uJywgJy1waHQnLCAnMS4wJywgJy1waCcsICc3LjQnLCAnLXRuJywgJzgnLCAnLW1hJywgJzUwMCcsICctaW1hZScsICc8aW5maWxlLm1hZT4nLCAnLW9tYWUnLCAnPG91dGZpbGUubWFlPic=

>  <s_epik_input>  (1) 
W0NASF0xMltDQEBIXShbQ0gyXTIpW0NIMl1bQ0BASF0oW0NIMl1bTkhdMSlbQ0BIXShbTkgyXSlbQ0gyXVtDQEBIXShbQ0gzXSlPT1tDQEBIXShbQ0BIXShbT0hdKVtDSDJdW09IXSlbQ0BIXShbQ0gyXVtDQEhdKFtPSF0pT1tDSDJdW0NIMl1bQ0gzXSlPYyhbY0hdMylbY0hdW2NIXVtjSF1jM04oW09IXSlbTkgyXQ==

>  <s_glide_docking_method>  (1) 
confgen

>  <s_i_glide_gridfile>  (1) 
gpcr_5ht2c_6bqh_protein_autoprepared_prepared

>  <s_lp_Force_Field>  (1) 
S-OPLS

>  <s_lp_Variant>  (1) 
DiffSBDD_43-1

>  <s_m_source_file>  (1) 
generated_GPCR_5HT2C_ligand_DiffSBDD_2026-06-23_prepared.sdf

>  <GenAI_Model>  (1) 
DiffSBDD

>  <Protein>  (1) 
GPCR_5HT2C

$$$$
DiffSBDD_89
     RDKit          3D

  0  0  0  0  0  0  0  0  0  0999 V3000
M  V30 BEGIN CTAB
M  V30 COUNTS 60 62 0 0 1
M  V30 BEGIN ATOM
M  V30 1 C 37.615152 28.589466 52.828061 0
M  V30 2 O 40.845125 30.608413 61.458817 0 CHG=-1
M  V30 3 C 40.114929 27.209322 57.864914 0
M  V30 4 C 37.869195 30.842804 60.661763 0
M  V30 5 C 38.241564 27.389200 53.501285 0 CFG=2
M  V30 6 O 39.641175 28.881599 59.343721 0
M  V30 7 C 38.045129 33.309067 57.746554 0
M  V30 8 O 40.627231 32.823401 61.367769 0
M  V30 9 C 37.859177 32.800044 59.036787 0
M  V30 10 C 39.874972 31.263462 51.935623 0
M  V30 11 C 40.502748 29.012265 50.991674 0
M  V30 12 C 38.688657 29.109528 58.322422 0 CFG=1
M  V30 13 C 38.672685 31.533476 61.792858 0
M  V30 14 C 40.177100 31.665647 61.513475 0
M  V30 15 O 38.445138 26.937754 51.109819 0
M  V30 16 C 40.029412 26.236294 54.792998 0
M  V30 17 C 38.642763 32.946598 55.319760 0
M  V30 18 N 38.638689 31.104960 56.899942 0
M  V30 19 C 38.456286 30.614611 58.151810 0
M  V30 20 C 39.755999 30.313309 50.746995 0
M  V30 21 C 39.363822 28.341707 57.154834 0 CFG=2
M  V30 22 C 39.156067 27.503694 54.718479 0 CFG=2
M  V30 23 C 38.412740 27.842178 56.033094 0
M  V30 24 C 39.953140 27.517427 59.342163 0
M  V30 25 C 38.737373 27.843606 52.136292 0 CFG=1
M  V30 26 C 38.067168 31.429584 59.257990 0
M  V30 27 C 38.434086 32.430085 56.718640 0
M  V30 28 O 40.045135 28.367733 52.167758 0
M  V30 29 H 37.819314 29.553042 53.286180 0
M  V30 30 H 36.608944 28.473969 52.431222 0
M  V30 31 H 39.718415 26.218358 57.641995 0
M  V30 32 H 41.170888 27.219199 57.590269 0
M  V30 33 H 36.808154 30.951311 60.888700 0
M  V30 34 H 38.045078 29.774754 60.717947 0
M  V30 35 H 37.604828 26.506367 53.526944 0
M  V30 36 H 37.888863 34.357081 57.542901 0
M  V30 37 H 37.560503 33.449780 59.845562 0
M  V30 38 H 39.245135 32.137751 51.796604 0
M  V30 39 H 39.591123 30.794422 52.875057 0
M  V30 40 H 40.895191 31.594933 52.048216 0
M  V30 41 H 41.558131 29.240958 51.128913 0
M  V30 42 H 40.427581 28.347216 50.132419 0
M  V30 43 H 37.742988 28.632651 58.589103 0
M  V30 44 H 38.269494 32.530718 61.967901 0
M  V30 45 H 38.540750 30.986992 62.726798 0
M  V30 46 H 37.531396 26.672111 51.179303 0
M  V30 47 H 39.440673 25.363054 55.074651 0
M  V30 48 H 40.489850 26.025252 53.827069 0
M  V30 49 H 40.845137 26.336144 55.503339 0
M  V30 50 H 39.151830 33.908740 55.367768 0
M  V30 51 H 39.250618 32.261378 54.729480 0
M  V30 52 H 37.682571 33.080725 54.820862 0
M  V30 53 H 40.126891 30.796351 49.842172 0
M  V30 54 H 38.718961 30.070926 50.567756 0
M  V30 55 H 40.125233 28.994748 56.725756 0
M  V30 56 H 39.804740 28.360730 54.557071 0
M  V30 57 H 37.700312 28.640705 55.820540 0
M  V30 58 H 37.815765 26.996183 56.374069 0
M  V30 59 H 39.114965 26.969738 59.767745 0
M  V30 60 H 40.847184 27.337757 59.930578 0
M  V30 END ATOM
M  V30 BEGIN BOND
M  V30 1 1 5 1
M  V30 2 2 9 7
M  V30 3 1 12 6
M  V30 4 1 13 4
M  V30 5 1 14 2
M  V30 6 2 14 8
M  V30 7 1 14 13
M  V30 8 1 19 12
M  V30 9 1 19 18
M  V30 10 1 20 10
M  V30 11 1 20 11
M  V30 12 1 21 3
M  V30 13 1 21 12
M  V30 14 1 22 5
M  V30 15 1 22 16
M  V30 16 1 23 21
M  V30 17 1 23 22
M  V30 18 1 24 3
M  V30 19 1 24 6
M  V30 20 1 25 1
M  V30 21 1 25 5
M  V30 22 1 25 15 CFG=3
M  V30 23 1 26 4
M  V30 24 1 26 9
M  V30 25 2 26 19
M  V30 26 1 27 7
M  V30 27 1 27 17
M  V30 28 2 27 18
M  V30 29 1 28 11
M  V30 30 1 28 25
M  V30 31 1 29 1
M  V30 32 1 30 1
M  V30 33 1 31 3
M  V30 34 1 32 3
M  V30 35 1 33 4
M  V30 36 1 34 4
M  V30 37 1 5 35 CFG=3
M  V30 38 1 36 7
M  V30 39 1 37 9
M  V30 40 1 38 10
M  V30 41 1 39 10
M  V30 42 1 40 10
M  V30 43 1 41 11
M  V30 44 1 42 11
M  V30 45 1 12 43 CFG=1
M  V30 46 1 44 13
M  V30 47 1 45 13
M  V30 48 1 46 15
M  V30 49 1 47 16
M  V30 50 1 48 16
M  V30 51 1 49 16
M  V30 52 1 50 17
M  V30 53 1 51 17
M  V30 54 1 52 17
M  V30 55 1 53 20
M  V30 56 1 54 20
M  V30 57 1 21 55 CFG=3
M  V30 58 1 22 56 CFG=3
M  V30 59 1 57 23
M  V30 60 1 58 23
M  V30 61 1 59 24
M  V30 62 1 60 24
M  V30 END BOND
M  V30 END CTAB
M  END
>  <i_epik_Tot_Q>  (1) 
-1

>  <i_epik_Tot_abs_Q>  (1) 
1

>  <i_i_glide_confnum>  (1) 
1504

>  <i_i_glide_lignum>  (1) 
209

>  <i_i_glide_posenum>  (1) 
393

>  <i_i_glide_rotatable_bonds>  (1) 
11

>  <i_lp_mmshare_version>  (1) 
72125

>  <i_m_source_file_index>  (1) 
90

>  <i_f3d_flags>  (1) 
0

>  <num_sample>  (1) 
100

>  <b_lp_Chiralities_Consistent>  (1) 
1

>  <r_epik_Charging_Adjusted_Penalty>  (1) 
0.038997202990306332

>  <r_epik_Ionization_Penalty>  (1) 
0.038997322870567536

>  <r_epik_Ionization_Penalty_Charging>  (1) 
0.00068578103088963352

>  <r_epik_Ionization_Penalty_Neutral>  (1) 
0.038311541839677901

>  <r_epik_State_Penalty>  (1) 
0.038311421959416697

>  <r_glide_ring_energy>  (1) 
0

>  <r_i_docking_score>  (1) 
-6.5695740504452838

>  <r_i_glide_ecoul>  (1) 
-6.2925662436336722

>  <r_i_glide_eff_state_penalty>  (1) 
0.038311421959416697

>  <r_i_glide_einternal>  (1) 
11.832487472994714

>  <r_i_glide_emodel>  (1) 
-45.644999030717848

>  <r_i_glide_emodel_strain>  (1) 
0.59532876673904411

>  <r_i_glide_energy>  (1) 
-34.974194784644851

>  <r_i_glide_erotb>  (1) 
1.0232646033352888

>  <r_i_glide_esite>  (1) 
0

>  <r_i_glide_evdw>  (1) 
-28.681628541011175

>  <r_i_glide_gscore>  (1) 
-6.6078854724047007

>  <r_i_glide_gscore_strain>  (1) 
0

>  <r_i_glide_hbond>  (1) 
-0.47999999999999998

>  <r_i_glide_ligand_efficiency>  (1) 
-0.23462764465876013

>  <r_i_glide_ligand_efficiency_ln>  (1) 
-1.5164505819185334

>  <r_i_glide_ligand_efficiency_sa>  (1) 
-0.71246771826795285

>  <r_i_glide_lipo>  (1) 
-2.8970717560151331

>  <r_i_glide_metal>  (1) 
-0

>  <r_i_glide_rewards>  (1) 
-1.8761119561292463

>  <r_lp_Energy>  (1) 
22.324921

>  <s_epik_cmdline>  (1) 
J2VwaWtfcHl0aG9uJywgJy1waHQnLCAnMS4wJywgJy1waCcsICc3LjQnLCAnLXRuJywgJzgnLCAnLW1hJywgJzUwMCcsICctaW1hZScsICc8aW5maWxlLm1hZT4nLCAnLW9tYWUnLCAnPG91dGZpbGUubWFlPic=

>  <s_epik_input>  (1) 
W0NIM11bQ0gyXVtDSDJdT0MxKFtPSF0pW0NIMl1bQ0BASF0xW0NASF0oW0NIM10pW0NIMl1bQ0BASF0yW0NIMl1bQ0gyXU9bQ0BIXTJjM25jKFtDSDNdKVtjSF1bY0hdYzNbQ0gyXVtDSDJdQyg9TylbT0hd

>  <s_glide_docking_method>  (1) 
confgen

>  <s_i_glide_gridfile>  (1) 
gpcr_5ht2c_6bqh_protein_autoprepared_prepared

>  <s_lp_Force_Field>  (1) 
S-OPLS

>  <s_lp_Variant>  (1) 
DiffSBDD_89-1

>  <s_m_source_file>  (1) 
generated_GPCR_5HT2C_ligand_DiffSBDD_2026-06-23_prepared.sdf

>  <GenAI_Model>  (1) 
DiffSBDD

>  <Protein>  (1) 
GPCR_5HT2C

$$$$
DiffSBDD_20
     RDKit          3D

  0  0  0  0  0  0  0  0  0  0999 V3000
M  V30 BEGIN CTAB
M  V30 COUNTS 52 53 0 0 1
M  V30 BEGIN ATOM
M  V30 1 C 38.101030 31.856304 57.954686 0 CFG=2
M  V30 2 O 36.845140 29.737732 57.613911 0
M  V30 3 O 39.446756 32.576502 62.131517 0
M  V30 4 P 38.395095 31.832388 61.339468 0
M  V30 5 C 38.597672 30.434292 56.000967 0 CFG=1
M  V30 6 N 37.733414 37.337753 63.061714 0
M  V30 7 C 38.458032 29.278619 53.677440 0
M  V30 8 C 37.689601 26.837452 53.549748 0
M  V30 9 C 37.025243 32.329392 58.976341 0
M  V30 10 C 38.295570 34.355766 59.971576 0 CFG=2
M  V30 11 N 38.045149 32.650511 56.721826 0 CHG=1
M  V30 12 C 38.110658 30.366608 57.485723 0
M  V30 13 F 35.842534 38.137755 61.969528 0
M  V30 14 C 37.694590 28.213352 52.867059 0
M  V30 15 C 36.874464 37.258227 62.023092 0
M  V30 16 O 37.245450 31.337754 62.167739 0 CHG=-1
M  V30 17 O 39.005241 30.742167 60.482958 0 CHG=-1
M  V30 18 C 38.108052 35.414971 61.047115 0
M  V30 19 C 37.016271 36.298653 60.998790 0
M  V30 20 C 37.549176 33.033386 60.242687 0 CFG=2
M  V30 21 C 38.801688 36.520149 63.075659 0
M  V30 22 O 36.622438 30.537824 54.567765 0
M  V30 23 C 39.029682 35.543287 62.101454 0
M  V30 24 C 37.706488 29.716690 54.951932 0 CFG=2
M  V30 25 C 38.828743 31.929161 55.710181 0
M  V30 26 O 39.645137 34.070164 59.767759 0
M  V30 27 O 39.090800 29.662644 58.215351 0
M  V30 28 H 39.092193 32.075985 58.346365 0
M  V30 29 H 36.172251 30.402366 57.464656 0
M  V30 30 H 39.575499 29.952696 55.943134 0
M  V30 31 H 38.664211 30.143298 53.047364 0
M  V30 32 H 39.433907 28.869155 53.939260 0
M  V30 33 H 37.122875 26.119459 52.967765 0
M  V30 34 H 38.700803 26.449129 53.663086 0
M  V30 35 H 37.232889 26.852909 54.537512 0
M  V30 36 H 36.313720 33.012995 58.521229 0
M  V30 37 H 36.426222 31.484468 59.313151 0
M  V30 38 H 37.891788 34.777338 59.052815 0
M  V30 39 H 38.372554 33.592271 56.877607 0
M  V30 40 H 36.670148 28.537693 52.680741 0
M  V30 41 H 38.157209 28.105890 51.884861 0
M  V30 42 H 36.301543 36.246701 60.190666 0
M  V30 43 H 36.644368 33.327667 60.776085 0
M  V30 44 H 39.489543 36.642898 63.899225 0
M  V30 45 H 36.079698 30.734688 55.323868 0
M  V30 46 H 39.893375 34.900853 62.166036 0
M  V30 47 H 37.298481 28.818611 55.403946 0
M  V30 48 H 39.882564 32.174626 55.851629 0
M  V30 49 H 38.558873 32.236929 54.699063 0
M  V30 50 H 39.941792 33.646837 60.573539 0
M  V30 51 H 39.062702 29.996170 59.135756 0
M  V30 52 H 37.067368 32.661340 56.435833 0
M  V30 END ATOM
M  V30 BEGIN BOND
M  V30 1 2 4 3
M  V30 2 1 9 1
M  V30 3 1 11 1
M  V30 4 1 12 1
M  V30 5 1 12 2
M  V30 6 1 12 5
M  V30 7 1 14 7
M  V30 8 1 14 8
M  V30 9 2 15 6
M  V30 10 1 15 13
M  V30 11 1 16 4
M  V30 12 1 17 4
M  V30 13 1 18 10
M  V30 14 1 19 15
M  V30 15 2 19 18
M  V30 16 1 20 4
M  V30 17 1 20 9
M  V30 18 1 20 10
M  V30 19 1 21 6
M  V30 20 1 23 18
M  V30 21 2 23 21
M  V30 22 1 24 5
M  V30 23 1 24 7
M  V30 24 1 24 22
M  V30 25 1 25 5
M  V30 26 1 25 11
M  V30 27 1 26 10
M  V30 28 1 27 12
M  V30 29 1 1 28 CFG=1
M  V30 30 1 29 2
M  V30 31 1 5 30 CFG=1
M  V30 32 1 31 7
M  V30 33 1 32 7
M  V30 34 1 33 8
M  V30 35 1 34 8
M  V30 36 1 35 8
M  V30 37 1 36 9
M  V30 38 1 37 9
M  V30 39 1 10 38 CFG=3
M  V30 40 1 39 11
M  V30 41 1 40 14
M  V30 42 1 41 14
M  V30 43 1 42 19
M  V30 44 1 20 43 CFG=1
M  V30 45 1 44 21
M  V30 46 1 45 22
M  V30 47 1 46 23
M  V30 48 1 24 47 CFG=1
M  V30 49 1 48 25
M  V30 50 1 49 25
M  V30 51 1 50 26
M  V30 52 1 51 27
M  V30 53 1 52 11
M  V30 END BOND
M  V30 END CTAB
M  END
>  <i_epik_Tot_Q>  (1) 
-1

>  <i_epik_Tot_abs_Q>  (1) 
3

>  <i_i_glide_confnum>  (1) 
300

>  <i_i_glide_lignum>  (1) 
48

>  <i_i_glide_posenum>  (1) 
19

>  <i_i_glide_rotatable_bonds>  (1) 
12

>  <i_lp_mmshare_version>  (1) 
72125

>  <i_m_source_file_index>  (1) 
21

>  <i_f3d_flags>  (1) 
0

>  <num_sample>  (1) 
100

>  <b_lp_Chiralities_Consistent>  (1) 
1

>  <r_epik_Charging_Adjusted_Penalty>  (1) 
0.6119073465235404

>  <r_epik_Ionization_Penalty>  (1) 
0.30667552727884728

>  <r_epik_Ionization_Penalty_Charging>  (1) 
0.30666936404430589

>  <r_epik_Ionization_Penalty_Neutral>  (1) 
6.1632345413695363e-06

>  <r_epik_State_Penalty>  (1) 
0.3052379824792345

>  <r_glide_ring_energy>  (1) 
1.9592154643148372

>  <r_i_docking_score>  (1) 
-6.5690769117785406

>  <r_i_glide_ecoul>  (1) 
-17.37411913329273

>  <r_i_glide_eff_state_penalty>  (1) 
0.3052379824792345

>  <r_i_glide_einternal>  (1) 
19.588158792596435

>  <r_i_glide_emodel>  (1) 
-47.237672690295966

>  <r_i_glide_emodel_strain>  (1) 
6.2479175483117899

>  <r_i_glide_energy>  (1) 
-40.249036670558169

>  <r_i_glide_erotb>  (1) 
0.59271143775516177

>  <r_i_glide_esite>  (1) 
-0.16980346166570601

>  <r_i_glide_evdw>  (1) 
-22.874917537265439

>  <r_i_glide_gscore>  (1) 
-6.8743148942577754

>  <r_i_glide_gscore_strain>  (1) 
0.56197938707794748

>  <r_i_glide_hbond>  (1) 
-0.73337444790555317

>  <r_i_glide_ligand_efficiency>  (1) 
-0.24329914488068669

>  <r_i_glide_ligand_efficiency_ln>  (1) 
-1.5291728053650724

>  <r_i_glide_ligand_efficiency_sa>  (1) 
-0.72989743464206025

>  <r_i_glide_lipo>  (1) 
-1.9448796662134897

>  <r_i_glide_metal>  (1) 
-0

>  <r_i_glide_rewards>  (1) 
-1.4310843964489539

>  <r_lp_Energy>  (1) 
8.755507999999999

>  <s_epik_cmdline>  (1) 
J2VwaWtfcHl0aG9uJywgJy1waHQnLCAnMS4wJywgJy1waCcsICc3LjQnLCAnLXRuJywgJzgnLCAnLW1hJywgJzUwMCcsICctaW1hZScsICc8aW5maWxlLm1hZT4nLCAnLW9tYWUnLCAnPG91dGZpbGUubWFlPic=

>  <s_epik_input>  (1) 
W0NIM11bQ0gyXVtDSDJdW0NAQEhdKFtPSF0pW0NASF0xW0NIMl1bTkhdW0NASF0oQzEoW09IXSlbT0hdKVtDSDJdW0NAQEhdKFAoPU8pKFtPSF0pW09IXSlbQ0BIXShbT0hdKWMoW2NIXTIpW2NIXVtjSF1uYzJG

>  <s_glide_docking_method>  (1) 
confgen

>  <s_i_glide_gridfile>  (1) 
gpcr_5ht2c_6bqh_protein_autoprepared_prepared

>  <s_lp_Force_Field>  (1) 
S-OPLS

>  <s_lp_Variant>  (1) 
DiffSBDD_20-2

>  <s_m_source_file>  (1) 
generated_GPCR_5HT2C_ligand_DiffSBDD_2026-06-23_prepared.sdf

>  <GenAI_Model>  (1) 
DiffSBDD

>  <Protein>  (1) 
GPCR_5HT2C

$$$$
DiffSBDD_64
     RDKit          3D

  0  0  0  0  0  0  0  0  0  0999 V3000
M  V30 BEGIN CTAB
M  V30 COUNTS 77 80 0 0 1
M  V30 BEGIN ATOM
M  V30 1 C 43.834050 30.274916 68.778304 0
M  V30 2 C 39.984249 30.025262 65.658128 0
M  V30 3 C 40.503408 31.271514 64.924120 0 CFG=1
M  V30 4 C 40.104039 32.814093 62.974901 0
M  V30 5 N 40.705782 29.736288 66.911136 0 CHG=1
M  V30 6 C 44.960862 30.690933 65.600550 0
M  V30 7 C 38.261035 33.016065 56.741838 0
M  V30 8 N 42.537720 29.790782 68.331934 0
M  V30 9 O 37.528740 34.075930 58.721495 0
M  V30 10 C 41.070611 33.403399 62.247086 0
M  V30 11 C 39.318904 30.965708 60.494466 0
M  V30 12 C 39.645134 30.283131 53.625945 0
M  V30 13 O 39.334814 30.137752 58.223642 0
M  V30 14 C 41.955933 30.188684 67.178892 0
M  V30 15 O 44.256969 29.916675 69.878250 0
M  V30 16 O 45.645139 31.737758 68.317455 0 CHG=-1
M  V30 17 C 38.265714 32.955199 58.277368 0 CFG=1
M  V30 18 C 42.607707 31.043673 66.276556 0
M  V30 19 C 41.954188 31.554644 65.221121 0
M  V30 20 C 37.570624 31.714547 58.865650 0
M  V30 21 C 39.911179 28.489616 56.640781 0
M  V30 22 C 39.079535 31.955866 55.992213 0
M  V30 23 C 38.455039 30.531704 59.281678 0 CFG=2
M  V30 24 F 38.971439 28.127317 50.730390 0
M  V30 25 C 40.118522 31.349369 63.426670 0 CFG=1
M  V30 26 C 37.660325 28.929224 54.066887 0
M  V30 27 N 44.494090 31.141250 67.949589 0
M  V30 28 C 38.842461 29.536909 57.020044 0 CFG=2
M  V30 29 C 40.056140 29.862297 61.286926 0
M  V30 30 C 37.508955 29.397609 59.704664 0
M  V30 31 C 37.794297 28.327623 52.801913 0
M  V30 32 C 38.845130 28.707265 51.946165 0
M  V30 33 C 39.764003 29.689041 52.354280 0
M  V30 34 C 44.016888 31.397260 66.594913 0 CFG=1
M  V30 35 C 40.884633 30.370526 62.493612 0
M  V30 36 C 38.442291 30.541461 55.883489 0 CFG=2
M  V30 37 C 38.586262 29.905909 54.488948 0
M  V30 38 H 38.916576 30.117799 65.859162 0
M  V30 39 H 40.104566 29.148429 65.023960 0
M  V30 40 H 39.993394 32.107824 65.402577 0
M  V30 41 H 39.245105 33.395045 63.274619 0
M  V30 42 H 44.680066 30.889677 64.567773 0
M  V30 43 H 45.992238 31.023618 65.727061 0
M  V30 44 H 44.949835 29.609857 65.743708 0
M  V30 45 H 37.245145 32.993737 56.366444 0
M  V30 46 H 38.634693 33.993433 56.439133 0
M  V30 47 H 41.986371 29.157144 68.887998 0
M  V30 48 H 36.669318 34.033709 58.325200 0
M  V30 49 H 40.992231 34.442600 61.963034 0
M  V30 50 H 41.945901 32.862016 61.928396 0
M  V30 51 H 40.045095 31.710707 60.185681 0
M  V30 52 H 38.649925 31.482175 61.180261 0
M  V30 53 H 40.366562 31.022706 53.936778 0
M  V30 54 H 39.280356 33.069389 58.651532 0
M  V30 55 H 42.464370 32.232670 64.552242 0
M  V30 56 H 36.974783 32.008312 59.732112 0
M  V30 57 H 36.845136 31.338543 58.167759 0
M  V30 58 H 39.563053 27.817161 55.856945 0
M  V30 59 H 40.842882 28.937767 56.301309 0
M  V30 60 H 40.149045 27.864329 57.502061 0
M  V30 61 H 39.149659 32.392236 54.997111 0
M  V30 62 H 40.092938 31.901964 56.367016 0
M  V30 63 H 39.075533 31.036678 63.368342 0
M  V30 64 H 36.852006 28.636861 54.716321 0
M  V30 65 H 37.963343 28.929778 57.218961 0
M  V30 66 H 39.327812 29.151800 61.677452 0
M  V30 67 H 40.700777 29.295771 60.613799 0
M  V30 68 H 36.940922 29.737763 60.567757 0
M  V30 69 H 36.765758 29.154354 58.946199 0
M  V30 70 H 38.045149 28.482767 59.953608 0
M  V30 71 H 37.090145 27.575392 52.488432 0
M  V30 72 H 40.570031 29.978744 51.696631 0
M  V30 73 H 44.108222 32.473836 66.435788 0
M  V30 74 H 41.177419 29.488183 63.062783 0
M  V30 75 H 41.828298 30.795040 62.167770 0
M  V30 76 H 37.367533 30.702383 55.983893 0
M  V30 77 H 40.246444 29.128352 67.577938 0
M  V30 END ATOM
M  V30 BEGIN BOND
M  V30 1 1 3 2
M  V30 2 1 5 2
M  V30 3 1 8 1
M  V30 4 2 10 4
M  V30 5 2 14 5
M  V30 6 1 14 8
M  V30 7 2 15 1
M  V30 8 1 17 7
M  V30 9 1 17 9
M  V30 10 1 18 14
M  V30 11 1 19 3
M  V30 12 2 19 18
M  V30 13 1 20 17
M  V30 14 1 22 7
M  V30 15 1 23 11 CFG=1
M  V30 16 1 23 13
M  V30 17 1 23 20
M  V30 18 1 25 3
M  V30 19 1 25 4
M  V30 20 1 27 1
M  V30 21 1 27 16
M  V30 22 1 28 13
M  V30 23 1 28 21
M  V30 24 1 29 11
M  V30 25 1 30 23
M  V30 26 2 31 26
M  V30 27 1 32 24
M  V30 28 1 32 31
M  V30 29 1 33 12
M  V30 30 2 33 32
M  V30 31 1 34 6
M  V30 32 1 34 18
M  V30 33 1 34 27
M  V30 34 1 35 25
M  V30 35 1 35 29
M  V30 36 1 36 22
M  V30 37 1 36 28
M  V30 38 2 37 12
M  V30 39 1 37 26
M  V30 40 1 37 36
M  V30 41 1 38 2
M  V30 42 1 39 2
M  V30 43 1 3 40 CFG=1
M  V30 44 1 41 4
M  V30 45 1 42 6
M  V30 46 1 43 6
M  V30 47 1 44 6
M  V30 48 1 45 7
M  V30 49 1 46 7
M  V30 50 1 47 8
M  V30 51 1 48 9
M  V30 52 1 49 10
M  V30 53 1 50 10
M  V30 54 1 51 11
M  V30 55 1 52 11
M  V30 56 1 53 12
M  V30 57 1 17 54 CFG=1
M  V30 58 1 55 19
M  V30 59 1 56 20
M  V30 60 1 57 20
M  V30 61 1 58 21
M  V30 62 1 59 21
M  V30 63 1 60 21
M  V30 64 1 61 22
M  V30 65 1 62 22
M  V30 66 1 25 63 CFG=1
M  V30 67 1 64 26
M  V30 68 1 28 65 CFG=1
M  V30 69 1 66 29
M  V30 70 1 67 29
M  V30 71 1 68 30
M  V30 72 1 69 30
M  V30 73 1 70 30
M  V30 74 1 71 31
M  V30 75 1 72 33
M  V30 76 1 34 73 CFG=3
M  V30 77 1 74 35
M  V30 78 1 75 35
M  V30 79 1 36 76 CFG=1
M  V30 80 1 77 5
M  V30 END BOND
M  V30 END CTAB
M  END
>  <i_epik_Tot_Q>  (1) 
0

>  <i_epik_Tot_abs_Q>  (1) 
2

>  <i_i_glide_confnum>  (1) 
457

>  <i_i_glide_lignum>  (1) 
144

>  <i_i_glide_posenum>  (1) 
369

>  <i_i_glide_rotatable_bonds>  (1) 
8

>  <i_lp_mmshare_version>  (1) 
72125

>  <i_m_source_file_index>  (1) 
65

>  <i_f3d_flags>  (1) 
0

>  <num_sample>  (1) 
100

>  <b_lp_Chiralities_Consistent>  (1) 
1

>  <r_epik_Charging_Adjusted_Penalty>  (1) 
0.059234021973178383

>  <r_epik_Ionization_Penalty>  (1) 
0.05923416388853827

>  <r_epik_Ionization_Penalty_Charging>  (1) 
0.059234021973178383

>  <r_epik_Ionization_Penalty_Neutral>  (1) 
1.4191535988443934e-07

>  <r_epik_State_Penalty>  (1) 
-0

>  <r_glide_ring_energy>  (1) 
0.4351030857825357

>  <r_i_docking_score>  (1) 
-6.5688487295981002

>  <r_i_glide_ecoul>  (1) 
-4.5449786747826977

>  <r_i_glide_eff_state_penalty>  (1) 
-0

>  <r_i_glide_einternal>  (1) 
8.7572841135320285

>  <r_i_glide_emodel>  (1) 
-51.481205241155557

>  <r_i_glide_emodel_strain>  (1) 
1.0065733414463978

>  <r_i_glide_energy>  (1) 
-42.890789170093342

>  <r_i_glide_erotb>  (1) 
0.54408064829906078

>  <r_i_glide_esite>  (1) 
0

>  <r_i_glide_evdw>  (1) 
-38.345810495310644

>  <r_i_glide_gscore>  (1) 
-6.5688487295981002

>  <r_i_glide_gscore_strain>  (1) 
0

>  <r_i_glide_hbond>  (1) 
0

>  <r_i_glide_ligand_efficiency>  (1) 
-0.17753645215130001

>  <r_i_glide_ligand_efficiency_ln>  (1) 
-1.4246292937865515

>  <r_i_glide_ligand_efficiency_sa>  (1) 
-0.59159084532225814

>  <r_i_glide_lipo>  (1) 
-3.1907134014285137

>  <r_i_glide_metal>  (1) 
-0

>  <r_i_glide_rewards>  (1) 
-1.3231786504857108

>  <r_lp_Energy>  (1) 
55.422177999999995

>  <r_lp_tautomer_probability>  (1) 
1

>  <s_epik_Chemistry_Notes>  (1) 
This compound has an imine and may undergo hydrolysis.

>  <s_epik_cmdline>  (1) 
J2VwaWtfcHl0aG9uJywgJy1waHQnLCAnMS4wJywgJy1waCcsICc3LjQnLCAnLXRuJywgJzgnLCAnLW1hJywgJzUwMCcsICctaW1hZScsICc8aW5maWxlLm1hZT4nLCAnLW9tYWUnLCAnPG91dGZpbGUubWFlPic=

>  <s_epik_input>  (1) 
W05IXTFDKD1PKU4oW09IXSlbQ0BASF0oW0NIM10pQyhDMTIpPVtDSF1bQ0BASF0oW0NIMl1OPTIpW0NAQEhdKFtDSF09W0NIMl0pW0NIMl1bQ0gyXVtDSDJdW0NAXTMoW0NIM10pT1tDQEhdKFtDSDNdKVtDQEBIXShbQ0gyXVtDSDJdW0NAQEhdKFtPSF0pW0NIMl0zKWMoW2NIXVtjSF00KVtjSF1bY0hdYzRG

>  <s_glide_docking_method>  (1) 
confgen

>  <s_i_glide_gridfile>  (1) 
gpcr_5ht2c_6bqh_protein_autoprepared_prepared

>  <s_lp_Force_Field>  (1) 
S-OPLS

>  <s_lp_Variant>  (1) 
DiffSBDD_64-2

>  <s_m_source_file>  (1) 
generated_GPCR_5HT2C_ligand_DiffSBDD_2026-06-23_prepared.sdf

>  <GenAI_Model>  (1) 
DiffSBDD

>  <Protein>  (1) 
GPCR_5HT2C

$$$$
DiffSBDD_79
     RDKit          3D

  0  0  0  0  0  0  0  0  0  0999 V3000
M  V30 BEGIN CTAB
M  V30 COUNTS 42 42 0 0 1
M  V30 BEGIN ATOM
M  V30 1 C 38.651172 28.011274 53.949642 0
M  V30 2 O 38.045133 27.826070 56.873478 0
M  V30 3 C 39.551854 30.228800 54.535021 0
M  V30 4 C 38.332068 32.445740 58.281333 0
M  V30 5 O 39.004113 31.242788 61.040840 0
M  V30 6 C 37.979499 26.688119 54.318885 0
M  V30 7 C 39.645134 29.445601 52.231043 0
M  V30 8 O 36.712400 31.337752 61.039445 0
M  V30 9 C 38.541791 24.833442 55.936443 0
M  V30 10 C 39.585404 32.808848 62.773662 0
M  V30 11 C 38.592739 28.820798 56.403895 0
M  V30 12 C 40.045138 29.662803 50.856926 0
M  V30 13 C 39.013962 28.241608 52.602533 0
M  V30 14 C 38.790518 29.929012 58.551430 0
M  V30 15 C 38.914093 25.683575 54.967760 0
M  V30 16 C 38.930823 29.017961 54.938442 0
M  V30 17 C 37.871626 31.112841 58.920677 0 CFG=1
M  V30 18 O 38.978806 29.871793 57.146343 0
M  V30 19 C 39.139168 31.380586 62.445797 0
M  V30 20 C 37.790090 31.242918 60.448544 0
M  V30 21 O 37.245137 33.337756 58.188401 0
M  V30 22 N 40.378391 29.839965 49.767675 0
M  V30 23 C 39.902291 30.435354 53.192484 0
M  V30 24 H 39.768814 30.999180 55.259879 0
M  V30 25 H 38.706887 32.305859 57.268156 0
M  V30 26 H 39.139296 32.912833 58.847487 0
M  V30 27 H 37.067820 26.837957 54.895467 0
M  V30 28 H 37.630650 26.225297 53.394717 0
M  V30 29 H 39.245510 24.137764 56.366458 0
M  V30 30 H 37.528514 24.825346 56.310898 0
M  V30 31 H 39.733670 32.932609 63.845451 0
M  V30 32 H 40.526524 33.048065 62.277850 0
M  V30 33 H 38.845068 33.540009 62.449708 0
M  V30 34 H 38.816076 27.485254 51.855258 0
M  V30 35 H 39.775951 30.053765 58.999081 0
M  V30 36 H 38.385664 28.999409 58.954081 0
M  V30 37 H 39.933313 25.670136 54.609629 0
M  V30 38 H 36.873547 30.877550 58.548230 0
M  V30 39 H 38.216176 31.126548 62.967759 0
M  V30 40 H 39.893596 30.672140 62.788307 0
M  V30 41 H 36.552898 32.901453 57.688792 0
M  V30 42 H 40.385119 31.354150 52.900309 0
M  V30 END ATOM
M  V30 BEGIN BOND
M  V30 1 1 6 1
M  V30 2 2 11 2
M  V30 3 1 12 7
M  V30 4 1 13 1
M  V30 5 2 13 7
M  V30 6 1 15 6
M  V30 7 2 15 9
M  V30 8 2 16 1
M  V30 9 1 16 3
M  V30 10 1 16 11
M  V30 11 1 17 4
M  V30 12 1 17 14
M  V30 13 1 18 11
M  V30 14 1 18 14
M  V30 15 1 19 5
M  V30 16 1 19 10
M  V30 17 1 20 5
M  V30 18 2 20 8
M  V30 19 1 20 17
M  V30 20 1 21 4
M  V30 21 3 22 12
M  V30 22 2 23 3
M  V30 23 1 23 7
M  V30 24 1 24 3
M  V30 25 1 25 4
M  V30 26 1 26 4
M  V30 27 1 27 6
M  V30 28 1 28 6
M  V30 29 1 29 9
M  V30 30 1 30 9
M  V30 31 1 31 10
M  V30 32 1 32 10
M  V30 33 1 33 10
M  V30 34 1 34 13
M  V30 35 1 35 14
M  V30 36 1 36 14
M  V30 37 1 37 15
M  V30 38 1 17 38 CFG=3
M  V30 39 1 39 19
M  V30 40 1 40 19
M  V30 41 1 41 21
M  V30 42 1 42 23
M  V30 END BOND
M  V30 END CTAB
M  END
>  <i_epik_Tot_Q>  (1) 
0

>  <i_epik_Tot_abs_Q>  (1) 
0

>  <i_i_glide_confnum>  (1) 
262

>  <i_i_glide_lignum>  (1) 
185

>  <i_i_glide_posenum>  (1) 
327

>  <i_i_glide_rotatable_bonds>  (1) 
11

>  <i_lp_mmshare_version>  (1) 
72125

>  <i_m_source_file_index>  (1) 
80

>  <i_f3d_flags>  (1) 
0

>  <num_sample>  (1) 
100

>  <b_lp_Chiralities_Consistent>  (1) 
1

>  <r_epik_Charging_Adjusted_Penalty>  (1) 
0

>  <r_epik_Ionization_Penalty>  (1) 
1.2942401493755896e-07

>  <r_epik_Ionization_Penalty_Charging>  (1) 
0

>  <r_epik_Ionization_Penalty_Neutral>  (1) 
1.2942401493755896e-07

>  <r_epik_State_Penalty>  (1) 
-0

>  <r_glide_ring_energy>  (1) 
0

>  <r_i_docking_score>  (1) 
-6.5654757376907842

>  <r_i_glide_ecoul>  (1) 
-4.9276976098138174

>  <r_i_glide_eff_state_penalty>  (1) 
-0

>  <r_i_glide_einternal>  (1) 
5.1428551884829252

>  <r_i_glide_emodel>  (1) 
-57.646290312928414

>  <r_i_glide_emodel_strain>  (1) 
0.75960131484886872

>  <r_i_glide_energy>  (1) 
-42.981308244058674

>  <r_i_glide_erotb>  (1) 
1.6648782888351312

>  <r_i_glide_esite>  (1) 
0

>  <r_i_glide_evdw>  (1) 
-38.053610634244855

>  <r_i_glide_gscore>  (1) 
-6.5654757376907842

>  <r_i_glide_gscore_strain>  (1) 
0

>  <r_i_glide_hbond>  (1) 
-0.40479500703731069

>  <r_i_glide_ligand_efficiency>  (1) 
-0.28545546685612105

>  <r_i_glide_ligand_efficiency_ln>  (1) 
-1.587591565816197

>  <r_i_glide_ligand_efficiency_sa>  (1) 
-0.81179737641023564

>  <r_i_glide_lipo>  (1) 
-2.8197642691191769

>  <r_i_glide_metal>  (1) 
-0

>  <r_i_glide_rewards>  (1) 
-2.363959577185113

>  <r_lp_Energy>  (1) 
10.946185999999999

>  <r_lp_tautomer_probability>  (1) 
1

>  <s_epik_Chemistry_Notes>  (1) 
This compound has an ester and may undergo hydrolysis at high or low pH.

>  <s_epik_cmdline>  (1) 
J2VwaWtfcHl0aG9uJywgJy1waHQnLCAnMS4wJywgJy1waCcsICc3LjQnLCAnLXRuJywgJzgnLCAnLW1hJywgJzUwMCcsICctaW1hZScsICc8aW5maWxlLm1hZT4nLCAnLW9tYWUnLCAnPG91dGZpbGUubWFlPic=

>  <s_epik_input>  (1) 
W0NIMl09W0NIXVtDSDJdYzFbY0hdYyhDI04pW2NIXVtjSF1jMUMoPU8pT1tDSDJdW0NASF0oW0NIMl1bT0hdKUMoPU8pT1tDSDJdW0NIM10=

>  <s_glide_docking_method>  (1) 
confgen

>  <s_i_glide_gridfile>  (1) 
gpcr_5ht2c_6bqh_protein_autoprepared_prepared

>  <s_lp_Force_Field>  (1) 
S-OPLS

>  <s_lp_Variant>  (1) 
DiffSBDD_79-1

>  <s_m_source_file>  (1) 
generated_GPCR_5HT2C_ligand_DiffSBDD_2026-06-23_prepared.sdf

>  <GenAI_Model>  (1) 
DiffSBDD

>  <Protein>  (1) 
GPCR_5HT2C

$$$$
DiffSBDD_8
     RDKit          3D

  0  0  0  0  0  0  0  0  0  0999 V3000
M  V30 BEGIN CTAB
M  V30 COUNTS 46 50 0 0 1
M  V30 BEGIN ATOM
M  V30 1 C 38.207154 25.380893 56.884593 0
M  V30 2 O 39.445144 27.253870 53.043146 0
M  V30 3 C 37.756093 24.137756 57.073245 0
M  V30 4 C 38.380448 29.877190 56.153852 0
M  V30 5 N 38.053543 28.613086 55.500038 0
M  V30 6 C 38.041330 29.312680 53.139142 0
M  V30 7 C 39.605835 29.791054 57.066668 0
M  V30 8 C 39.590508 28.565182 60.240705 0
M  V30 9 N 39.277229 25.944639 57.514305 0
M  V30 10 C 40.175791 29.195381 51.683246 0
M  V30 11 C 39.591616 27.343146 57.027688 0 CFG=1
M  V30 12 N 40.845137 28.535513 60.019036 0
M  V30 13 C 39.708837 27.761534 51.734220 0 CFG=1
M  V30 14 C 39.391966 28.682894 52.872374 0 CFG=1
M  V30 15 C 37.645138 26.290603 56.040070 0
M  V30 16 N 41.009454 28.530730 58.669617 0
M  V30 17 C 38.337755 27.406433 56.113043 0
M  V30 18 C 38.657432 28.557796 59.099682 0
M  V30 19 C 38.731339 27.284619 50.710798 0
M  V30 20 C 37.245140 28.716413 54.305190 0
M  V30 21 C 42.250374 27.920518 58.175689 0
M  V30 22 C 39.702972 28.539296 57.979198 0 CFG=1
M  V30 23 H 38.242858 23.468047 57.767761 0
M  V30 24 H 36.892169 23.771057 56.538051 0
M  V30 25 H 37.511762 30.163069 56.749687 0
M  V30 26 H 38.525716 30.682986 55.436759 0
M  V30 27 H 37.445074 29.263767 52.234844 0
M  V30 28 H 38.214515 30.366036 53.358307 0
M  V30 29 H 39.645140 30.705795 57.655056 0
M  V30 30 H 40.445136 29.780383 56.381939 0
M  V30 31 H 39.198306 28.592911 61.257021 0
M  V30 32 H 39.955426 25.410154 58.036335 0
M  V30 33 H 39.674080 29.873830 50.995050 0
M  V30 34 H 41.245137 29.337759 51.767721 0
M  V30 35 H 36.745086 26.140588 55.465034 0
M  V30 36 H 38.045139 27.661622 59.105460 0
M  V30 37 H 38.020232 29.442487 59.094203 0
M  V30 38 H 38.891705 27.802113 49.767773 0
M  V30 39 H 38.845137 26.215447 50.567762 0
M  V30 40 H 37.711390 27.463627 51.039507 0
M  V30 41 H 36.806965 27.762418 54.014792 0
M  V30 42 H 36.445137 29.406891 54.545395 0
M  V30 43 H 42.684278 28.537754 57.389795 0
M  V30 44 H 42.976971 27.794609 58.967760 0
M  V30 45 H 42.056720 26.928640 57.771997 0
M  V30 46 H 40.449669 27.296412 56.356326 0
M  V30 END ATOM
M  V30 BEGIN BOND
M  V30 1 2 3 1
M  V30 2 1 5 4
M  V30 3 1 7 4
M  V30 4 1 9 1
M  V30 5 1 11 9
M  V30 6 2 12 8
M  V30 7 1 13 2
M  V30 8 1 13 10
M  V30 9 1 14 2
M  V30 10 1 14 6 CFG=1
M  V30 11 1 14 10
M  V30 12 1 14 13
M  V30 13 1 15 1
M  V30 14 1 16 12
M  V30 15 1 17 5
M  V30 16 1 17 11
M  V30 17 2 17 15
M  V30 18 1 18 8
M  V30 19 1 13 19 CFG=3
M  V30 20 1 20 5
M  V30 21 1 20 6
M  V30 22 1 21 16
M  V30 23 1 22 7
M  V30 24 1 22 11
M  V30 25 1 22 16 CFG=1
M  V30 26 1 22 18
M  V30 27 1 23 3
M  V30 28 1 24 3
M  V30 29 1 25 4
M  V30 30 1 26 4
M  V30 31 1 27 6
M  V30 32 1 28 6
M  V30 33 1 29 7
M  V30 34 1 30 7
M  V30 35 1 31 8
M  V30 36 1 32 9
M  V30 37 1 33 10
M  V30 38 1 34 10
M  V30 39 1 35 15
M  V30 40 1 36 18
M  V30 41 1 37 18
M  V30 42 1 38 19
M  V30 43 1 39 19
M  V30 44 1 40 19
M  V30 45 1 41 20
M  V30 46 1 42 20
M  V30 47 1 43 21
M  V30 48 1 44 21
M  V30 49 1 45 21
M  V30 50 1 11 46 CFG=3
M  V30 END BOND
M  V30 END CTAB
M  END
>  <i_epik_Tot_Q>  (1) 
0

>  <i_epik_Tot_abs_Q>  (1) 
0

>  <i_i_glide_confnum>  (1) 
14

>  <i_i_glide_lignum>  (1) 
11

>  <i_i_glide_posenum>  (1) 
284

>  <i_i_glide_rotatable_bonds>  (1) 
3

>  <i_lp_mmshare_version>  (1) 
72125

>  <i_m_source_file_index>  (1) 
9

>  <i_f3d_flags>  (1) 
0

>  <num_sample>  (1) 
100

>  <b_lp_Chiralities_Consistent>  (1) 
1

>  <r_epik_Charging_Adjusted_Penalty>  (1) 
0.0013502642422006258

>  <r_epik_Ionization_Penalty>  (1) 
0.0017789760984620326

>  <r_epik_Ionization_Penalty_Charging>  (1) 
0.0013502642422006258

>  <r_epik_Ionization_Penalty_Neutral>  (1) 
0.00042871185626140696

>  <r_epik_State_Penalty>  (1) 
-0

>  <r_glide_ring_energy>  (1) 
0

>  <r_i_docking_score>  (1) 
-6.5654518201549674

>  <r_i_glide_ecoul>  (1) 
-1.0139691027724025

>  <r_i_glide_eff_state_penalty>  (1) 
-0

>  <r_i_glide_einternal>  (1) 
3.8134251970902486

>  <r_i_glide_emodel>  (1) 
-36.965646159686408

>  <r_i_glide_emodel_strain>  (1) 
2.3495351935526685

>  <r_i_glide_energy>  (1) 
-28.713767596152174

>  <r_i_glide_erotb>  (1) 
0.61104831889555555

>  <r_i_glide_esite>  (1) 
0

>  <r_i_glide_evdw>  (1) 
-27.69979849337977

>  <r_i_glide_gscore>  (1) 
-6.5654518201549674

>  <r_i_glide_gscore_strain>  (1) 
0

>  <r_i_glide_hbond>  (1) 
0

>  <r_i_glide_ligand_efficiency>  (1) 
-0.29842962818886215

>  <r_i_glide_ligand_efficiency_ln>  (1) 
-1.6048359055197341

>  <r_i_glide_ligand_efficiency_sa>  (1) 
-0.83621155561805549

>  <r_i_glide_lipo>  (1) 
-3.3797220360616014

>  <r_i_glide_metal>  (1) 
-0

>  <r_i_glide_rewards>  (1) 
-2.2596928129040736

>  <r_lp_Energy>  (1) 
30.330791999999999

>  <r_lp_tautomer_probability>  (1) 
1

>  <s_epik_Chemistry_Notes>  (1) 
This compound has an imine and may undergo hydrolysis.

>  <s_epik_cmdline>  (1) 
J2VwaWtfcHl0aG9uJywgJy1waHQnLCAnMS4wJywgJy1waCcsICc3LjQnLCAnLXRuJywgJzgnLCAnLW1hJywgJzUwMCcsICctaW1hZScsICc8aW5maWxlLm1hZT4nLCAnLW9tYWUnLCAnPG91dGZpbGUubWFlPic=

>  <s_epik_input>  (1) 
W0NIM11bQ0BAXTEyW0NAQF0oTzEpKFtDSDJdMilbQ0gyXVtDSDJdTihbQ0gyXVtDSDJdMyljKFtjSF1jKFtDSDNdKVtuSF00KWM0W0NAQF0zNU4oW0NIM10pTj1bQ0hdW0NIMl01

>  <s_glide_docking_method>  (1) 
confgen

>  <s_i_glide_gridfile>  (1) 
gpcr_5ht2c_6bqh_protein_autoprepared_prepared

>  <s_lp_Force_Field>  (1) 
S-OPLS

>  <s_lp_Variant>  (1) 
DiffSBDD_8-1

>  <s_m_source_file>  (1) 
generated_GPCR_5HT2C_ligand_DiffSBDD_2026-06-23_prepared.sdf

>  <GenAI_Model>  (1) 
DiffSBDD

>  <Protein>  (1) 
GPCR_5HT2C

$$$$
DiffSBDD_64
     RDKit          3D

  0  0  0  0  0  0  0  0  0  0999 V3000
M  V30 BEGIN CTAB
M  V30 COUNTS 77 80 0 0 1
M  V30 BEGIN ATOM
M  V30 1 C 42.174424 33.048456 65.505251 0
M  V30 2 C 38.942474 31.076851 62.315125 0
M  V30 3 C 38.656312 32.449073 61.658922 0 CFG=2
M  V30 4 C 36.796104 34.127879 60.853852 0
M  V30 5 N 39.972744 31.053342 63.355286 0 CHG=1
M  V30 6 C 41.519856 35.549313 62.953287 0
M  V30 7 C 40.179724 27.603383 56.882641 0
M  V30 8 N 41.471409 31.969284 64.848208 0
M  V30 9 O 40.287732 27.737665 59.274553 0
M  V30 10 C 37.587783 34.779285 59.983917 0
M  V30 11 C 37.443432 30.343444 59.118463 0
M  V30 12 C 40.044759 30.480962 52.883897 0
M  V30 13 O 37.710007 29.846792 56.839224 0
M  V30 14 C 40.567104 32.153875 63.863606 0
M  V30 15 O 42.982693 32.775698 66.393136 0
M  V30 16 O 42.445123 35.385260 65.703514 0 CHG=-1
M  V30 17 C 39.564129 28.208229 58.159291 0 CFG=1
M  V30 18 C 40.243841 33.429829 63.374943 0
M  V30 19 C 39.371896 33.586359 62.364839 0
M  V30 20 C 39.678099 29.738680 58.199992 0
M  V30 21 C 36.845580 29.738645 54.723653 0
M  V30 22 C 39.386552 27.813192 55.572654 0
M  V30 23 C 38.384015 30.506698 57.901071 0 CFG=2
M  V30 24 F 40.045211 29.491112 49.352362 0
M  V30 25 C 37.133527 32.780463 61.497425 0 CFG=1
M  V30 26 C 39.038291 28.263018 52.659947 0
M  V30 27 N 41.883751 34.321696 65.105773 0
M  V30 28 C 38.095006 30.076303 55.495569 0 CFG=2
M  V30 29 C 36.367134 31.409901 59.378042 0
M  V30 30 C 38.730736 31.986454 57.587249 0
M  V30 31 C 39.235497 28.317737 51.267264 0
M  V30 32 C 39.840490 29.446889 50.685575 0
M  V30 33 C 40.234479 30.528789 51.489230 0
M  V30 34 C 40.935175 34.588770 64.019654 0 CFG=1
M  V30 35 C 36.197215 31.695651 60.883666 0
M  V30 36 C 39.314677 29.266701 55.007736 0 CFG=2
M  V30 37 C 39.457651 29.342129 53.478282 0
M  V30 38 H 38.046127 30.658669 62.763744 0
M  V30 39 H 39.286226 30.355844 61.577472 0
M  V30 40 H 39.093199 32.402252 60.664349 0
M  V30 41 H 35.849695 34.564499 61.132446 0
M  V30 42 H 40.729577 36.119136 62.466631 0
M  V30 43 H 42.199307 36.290309 63.371674 0
M  V30 44 H 42.044581 35.011578 62.170450 0
M  V30 45 H 41.200742 27.966461 56.752368 0
M  V30 46 H 40.276384 26.526456 57.028736 0
M  V30 47 H 41.626511 31.007158 65.101235 0
M  V30 48 H 40.176734 26.801641 59.333565 0
M  V30 49 H 37.289350 35.728090 59.564070 0
M  V30 50 H 38.540219 34.373596 59.682560 0
M  V30 51 H 36.955790 29.369093 59.084917 0
M  V30 52 H 38.053228 30.280820 60.002589 0
M  V30 53 H 40.364237 31.309748 53.500646 0
M  V30 54 H 38.534324 27.869630 58.278815 0
M  V30 55 H 39.155576 34.581238 62.012608 0
M  V30 56 H 40.046321 30.066943 59.172498 0
M  V30 57 H 40.445140 30.043356 57.504352 0
M  V30 58 H 36.907637 30.216453 53.767771 0
M  V30 59 H 36.738415 28.665966 54.567065 0
M  V30 60 H 35.964705 30.137677 55.226340 0
M  V30 61 H 39.922049 27.185378 54.859706 0
M  V30 62 H 38.391492 27.376560 55.652782 0
M  V30 63 H 36.824616 32.917789 62.528293 0
M  V30 64 H 38.582680 27.390271 53.100546 0
M  V30 65 H 38.262937 31.132775 55.299162 0
M  V30 66 H 36.537784 32.345446 58.855664 0
M  V30 67 H 35.426405 31.033222 58.970643 0
M  V30 68 H 39.073431 32.520969 58.468426 0
M  V30 69 H 39.531733 32.070663 56.852088 0
M  V30 70 H 37.876669 32.525690 57.176841 0
M  V30 71 H 38.928235 27.488930 50.644138 0
M  V30 72 H 40.694254 31.390727 51.037576 0
M  V30 73 H 40.151738 35.175206 64.502954 0
M  V30 74 H 35.170094 32.031038 61.028871 0
M  V30 75 H 36.259586 30.753964 61.417454 0
M  V30 76 H 40.209746 29.773187 55.366120 0
M  V30 77 H 40.217575 30.147000 63.729829 0
M  V30 END ATOM
M  V30 BEGIN BOND
M  V30 1 1 3 2
M  V30 2 1 5 2
M  V30 3 1 8 1
M  V30 4 2 10 4
M  V30 5 2 14 5
M  V30 6 1 14 8
M  V30 7 2 15 1
M  V30 8 1 17 7
M  V30 9 1 17 9
M  V30 10 1 18 14
M  V30 11 1 19 3
M  V30 12 2 19 18
M  V30 13 1 20 17
M  V30 14 1 22 7
M  V30 15 1 23 11 CFG=1
M  V30 16 1 23 13
M  V30 17 1 23 20
M  V30 18 1 25 3
M  V30 19 1 25 4
M  V30 20 1 27 1
M  V30 21 1 27 16
M  V30 22 1 28 13
M  V30 23 1 28 21
M  V30 24 1 29 11
M  V30 25 1 30 23
M  V30 26 2 31 26
M  V30 27 1 32 24
M  V30 28 1 32 31
M  V30 29 1 33 12
M  V30 30 2 33 32
M  V30 31 1 34 6
M  V30 32 1 34 18
M  V30 33 1 34 27
M  V30 34 1 35 25
M  V30 35 1 35 29
M  V30 36 1 36 22
M  V30 37 1 36 28
M  V30 38 2 37 12
M  V30 39 1 37 26
M  V30 40 1 37 36
M  V30 41 1 38 2
M  V30 42 1 39 2
M  V30 43 1 3 40 CFG=3
M  V30 44 1 41 4
M  V30 45 1 42 6
M  V30 46 1 43 6
M  V30 47 1 44 6
M  V30 48 1 45 7
M  V30 49 1 46 7
M  V30 50 1 47 8
M  V30 51 1 48 9
M  V30 52 1 49 10
M  V30 53 1 50 10
M  V30 54 1 51 11
M  V30 55 1 52 11
M  V30 56 1 53 12
M  V30 57 1 17 54 CFG=1
M  V30 58 1 55 19
M  V30 59 1 56 20
M  V30 60 1 57 20
M  V30 61 1 58 21
M  V30 62 1 59 21
M  V30 63 1 60 21
M  V30 64 1 61 22
M  V30 65 1 62 22
M  V30 66 1 25 63 CFG=1
M  V30 67 1 64 26
M  V30 68 1 28 65 CFG=1
M  V30 69 1 66 29
M  V30 70 1 67 29
M  V30 71 1 68 30
M  V30 72 1 69 30
M  V30 73 1 70 30
M  V30 74 1 71 31
M  V30 75 1 72 33
M  V30 76 1 34 73 CFG=1
M  V30 77 1 74 35
M  V30 78 1 75 35
M  V30 79 1 36 76 CFG=1
M  V30 80 1 77 5
M  V30 END BOND
M  V30 END CTAB
M  END
>  <i_epik_Tot_Q>  (1) 
0

>  <i_epik_Tot_abs_Q>  (1) 
2

>  <i_i_glide_confnum>  (1) 
13

>  <i_i_glide_lignum>  (1) 
143

>  <i_i_glide_posenum>  (1) 
112

>  <i_i_glide_rotatable_bonds>  (1) 
8

>  <i_lp_mmshare_version>  (1) 
72125

>  <i_m_source_file_index>  (1) 
65

>  <i_f3d_flags>  (1) 
0

>  <num_sample>  (1) 
100

>  <b_lp_Chiralities_Consistent>  (1) 
1

>  <r_epik_Charging_Adjusted_Penalty>  (1) 
0.059234021973178383

>  <r_epik_Ionization_Penalty>  (1) 
0.05923416388853827

>  <r_epik_Ionization_Penalty_Charging>  (1) 
0.059234021973178383

>  <r_epik_Ionization_Penalty_Neutral>  (1) 
1.4191535988443934e-07

>  <r_epik_State_Penalty>  (1) 
-0

>  <r_glide_ring_energy>  (1) 
0.4351030857825629

>  <r_i_docking_score>  (1) 
-6.5644566302628009

>  <r_i_glide_ecoul>  (1) 
1.2159745215038877

>  <r_i_glide_eff_state_penalty>  (1) 
-0

>  <r_i_glide_einternal>  (1) 
9.4409641293068312

>  <r_i_glide_emodel>  (1) 
-43.218068410589609

>  <r_i_glide_emodel_strain>  (1) 
1.6829086494184651

>  <r_i_glide_energy>  (1) 
-37.510000142128966

>  <r_i_glide_erotb>  (1) 
0.54408064829906078

>  <r_i_glide_esite>  (1) 
0

>  <r_i_glide_evdw>  (1) 
-38.725974663632854

>  <r_i_glide_gscore>  (1) 
-6.5644566302628009

>  <r_i_glide_gscore_strain>  (1) 
0

>  <r_i_glide_hbond>  (1) 
0

>  <r_i_glide_ligand_efficiency>  (1) 
-0.17741774676385949

>  <r_i_glide_ligand_efficiency_ln>  (1) 
-1.4236767504061423

>  <r_i_glide_ligand_efficiency_sa>  (1) 
-0.59119529263632076

>  <r_i_glide_lipo>  (1) 
-3.5973927735697226

>  <r_i_glide_metal>  (1) 
-0

>  <r_i_glide_rewards>  (1) 
-1.7572419500360781

>  <r_lp_Energy>  (1) 
57.935866999999995

>  <r_lp_tautomer_probability>  (1) 
1

>  <s_epik_Chemistry_Notes>  (1) 
This compound has an imine and may undergo hydrolysis.

>  <s_epik_cmdline>  (1) 
J2VwaWtfcHl0aG9uJywgJy1waHQnLCAnMS4wJywgJy1waCcsICc3LjQnLCAnLXRuJywgJzgnLCAnLW1hJywgJzUwMCcsICctaW1hZScsICc8aW5maWxlLm1hZT4nLCAnLW9tYWUnLCAnPG91dGZpbGUubWFlPic=

>  <s_epik_input>  (1) 
W05IXTFDKD1PKU4oW09IXSlbQ0BASF0oW0NIM10pQyhDMTIpPVtDSF1bQ0BASF0oW0NIMl1OPTIpW0NAQEhdKFtDSF09W0NIMl0pW0NIMl1bQ0gyXVtDSDJdW0NAXTMoW0NIM10pT1tDQEhdKFtDSDNdKVtDQEBIXShbQ0gyXVtDSDJdW0NAQEhdKFtPSF0pW0NIMl0zKWMoW2NIXVtjSF00KVtjSF1bY0hdYzRG

>  <s_glide_docking_method>  (1) 
confgen

>  <s_i_glide_gridfile>  (1) 
gpcr_5ht2c_6bqh_protein_autoprepared_prepared

>  <s_lp_Force_Field>  (1) 
S-OPLS

>  <s_lp_Variant>  (1) 
DiffSBDD_64-1

>  <s_m_source_file>  (1) 
generated_GPCR_5HT2C_ligand_DiffSBDD_2026-06-23_prepared.sdf

>  <GenAI_Model>  (1) 
DiffSBDD

>  <Protein>  (1) 
GPCR_5HT2C

$$$$
DiffSBDD_83
     RDKit          3D

  0  0  0  0  0  0  0  0  0  0999 V3000
M  V30 BEGIN CTAB
M  V30 COUNTS 54 55 0 0 1
M  V30 BEGIN ATOM
M  V30 1 C 39.820659 34.862415 62.241972 0
M  V30 2 C 38.269847 29.333275 58.276150 0
M  V30 3 N 37.786037 30.567667 58.600668 0
M  V30 4 O 36.951577 26.307726 55.117985 0
M  V30 5 O 40.958254 34.857322 62.945345 0
M  V30 6 C 39.662499 32.370668 62.739878 0
M  V30 7 C 40.967406 32.301144 63.537581 0
M  V30 8 C 37.951443 24.874357 56.477438 0
M  V30 9 C 39.569282 27.981282 51.640186 0
M  V30 10 C 39.160093 33.510100 62.166450 0
M  V30 11 C 37.951276 28.670011 56.984186 0
M  V30 12 C 39.623672 30.112400 61.602752 0
M  V30 13 N 38.200014 31.010927 59.799691 0
M  V30 14 O 41.645115 36.137593 62.967498 0
M  V30 15 C 39.041580 27.565774 54.851526 0 CFG=1
M  V30 16 C 39.061907 29.967035 53.923013 0
M  V30 17 C 36.857158 25.449321 56.128793 0
M  V30 18 O 39.355940 35.871711 61.709421 0
M  V30 19 C 38.358320 26.173767 54.825090 0 CFG=1
M  V30 20 C 39.031488 28.919837 59.326677 0
M  V30 21 O 39.010119 25.246855 55.746622 0
M  V30 22 C 38.246296 28.114662 52.403263 0
M  V30 23 C 38.367898 28.586421 53.873489 0 CFG=1
M  V30 24 C 38.954591 30.003053 60.258316 0
M  V30 25 Cl 38.045137 23.737758 57.767601 0
M  V30 26 C 38.928319 31.044911 62.610863 0
M  V30 27 C 39.207841 28.083630 56.305306 0
M  V30 28 H 37.168536 31.124181 58.012453 0
M  V30 29 H 41.147425 31.281816 63.876409 0
M  V30 30 H 41.830111 32.570390 62.925279 0
M  V30 31 H 40.927958 32.915503 64.437765 0
M  V30 32 H 39.404633 27.553563 50.650268 0
M  V30 33 H 40.052959 28.947696 51.503109 0
M  V30 34 H 40.261558 27.337755 52.170475 0
M  V30 35 H 38.231289 33.453764 61.617806 0
M  V30 36 H 37.245184 27.871269 57.189905 0
M  V30 37 H 37.436684 29.378314 56.336617 0
M  V30 38 H 40.668358 30.392506 61.469377 0
M  V30 39 H 39.649940 29.114829 62.042778 0
M  V30 40 H 41.275061 36.544094 63.739355 0
M  V30 41 H 40.045129 27.360400 54.492924 0
M  V30 42 H 40.141675 29.877504 53.833680 0
M  V30 43 H 38.741010 30.614998 53.110988 0
M  V30 44 H 38.859171 30.497278 54.853374 0
M  V30 45 H 35.867541 25.336044 56.547190 0
M  V30 46 H 38.438480 25.736484 53.832936 0
M  V30 47 H 39.570187 27.989358 59.420120 0
M  V30 48 H 37.699387 27.174291 52.351848 0
M  V30 49 H 37.623054 28.821939 51.856920 0
M  V30 50 H 37.339931 28.737431 54.204158 0
M  V30 51 H 38.928612 30.562702 63.589447 0
M  V30 52 H 37.877198 31.198262 62.368496 0
M  V30 53 H 39.968325 28.864549 56.285478 0
M  V30 54 H 39.634600 27.307988 56.940156 0
M  V30 END ATOM
M  V30 BEGIN BOND
M  V30 1 1 3 2
M  V30 2 1 5 1
M  V30 3 1 7 6
M  V30 4 1 10 1
M  V30 5 2 10 6
M  V30 6 1 11 2
M  V30 7 1 13 3
M  V30 8 1 14 5
M  V30 9 1 17 4
M  V30 10 2 17 8
M  V30 11 2 18 1
M  V30 12 1 19 4
M  V30 13 1 19 15
M  V30 14 2 20 2
M  V30 15 1 21 8
M  V30 16 1 21 19
M  V30 17 1 22 9
M  V30 18 1 23 15
M  V30 19 1 23 16
M  V30 20 1 23 22
M  V30 21 1 24 12
M  V30 22 2 24 13
M  V30 23 1 24 20
M  V30 24 1 25 8
M  V30 25 1 26 6
M  V30 26 1 26 12
M  V30 27 1 27 11
M  V30 28 1 27 15
M  V30 29 1 28 3
M  V30 30 1 29 7
M  V30 31 1 30 7
M  V30 32 1 31 7
M  V30 33 1 32 9
M  V30 34 1 33 9
M  V30 35 1 34 9
M  V30 36 1 35 10
M  V30 37 1 36 11
M  V30 38 1 37 11
M  V30 39 1 38 12
M  V30 40 1 39 12
M  V30 41 1 40 14
M  V30 42 1 15 41 CFG=3
M  V30 43 1 42 16
M  V30 44 1 43 16
M  V30 45 1 44 16
M  V30 46 1 45 17
M  V30 47 1 19 46 CFG=3
M  V30 48 1 47 20
M  V30 49 1 48 22
M  V30 50 1 49 22
M  V30 51 1 23 50 CFG=1
M  V30 52 1 51 26
M  V30 53 1 52 26
M  V30 54 1 53 27
M  V30 55 1 54 27
M  V30 END BOND
M  V30 END CTAB
M  END
>  <i_epik_Tot_Q>  (1) 
0

>  <i_epik_Tot_abs_Q>  (1) 
0

>  <i_i_glide_confnum>  (1) 
1541

>  <i_i_glide_lignum>  (1) 
191

>  <i_i_glide_posenum>  (1) 
301

>  <i_i_glide_rotatable_bonds>  (1) 
12

>  <i_lp_mmshare_version>  (1) 
72125

>  <i_m_source_file_index>  (1) 
84

>  <i_f3d_flags>  (1) 
0

>  <num_sample>  (1) 
100

>  <b_lp_Chiralities_Consistent>  (1) 
1

>  <r_epik_Charging_Adjusted_Penalty>  (1) 
0.41067983895260396

>  <r_epik_Ionization_Penalty>  (1) 
0.00076996626271645392

>  <r_epik_Ionization_Penalty_Charging>  (1) 
0

>  <r_epik_Ionization_Penalty_Neutral>  (1) 
0.00076996626271645392

>  <r_epik_State_Penalty>  (1) 
0.41067983895260396

>  <r_glide_ring_energy>  (1) 
0

>  <r_i_docking_score>  (1) 
-6.5534301962679153

>  <r_i_glide_ecoul>  (1) 
-4.3825182789575257

>  <r_i_glide_eff_state_penalty>  (1) 
0.41067983895260396

>  <r_i_glide_einternal>  (1) 
9.9645700640156303

>  <r_i_glide_emodel>  (1) 
-53.355031704867635

>  <r_i_glide_emodel_strain>  (1) 
2.3995202199298546

>  <r_i_glide_energy>  (1) 
-41.106628878227504

>  <r_i_glide_erotb>  (1) 
1.1080255732668134

>  <r_i_glide_esite>  (1) 
-0.062042128248093888

>  <r_i_glide_evdw>  (1) 
-36.724110599269977

>  <r_i_glide_gscore>  (1) 
-6.9641100352205196

>  <r_i_glide_gscore_strain>  (1) 
0

>  <r_i_glide_hbond>  (1) 
-0.15959552756193485

>  <r_i_glide_ligand_efficiency>  (1) 
-0.24271963689881168

>  <r_i_glide_ligand_efficiency_ln>  (1) 
-1.5255305079504644

>  <r_i_glide_ligand_efficiency_sa>  (1) 
-0.72815891069643524

>  <r_i_glide_lipo>  (1) 
-3.5990880135959338

>  <r_i_glide_metal>  (1) 
-0

>  <r_i_glide_rewards>  (1) 
-1.7578266672742426

>  <r_lp_Energy>  (1) 
13.026332

>  <r_lp_tautomer_probability>  (1) 
0.5

>  <s_epik_Chemistry_Notes>  (1) 
This compound contains an acetal/aminal-like group ( X-CH(R)-Y where X, Y are N, S, or O) that may be acid/base labile, releasing an aldehyde.

>  <s_epik_cmdline>  (1) 
J2VwaWtfcHl0aG9uJywgJy1waHQnLCAnMS4wJywgJy1waCcsICc3LjQnLCAnLXRuJywgJzgnLCAnLW1hJywgJzUwMCcsICctaW1hZScsICc8aW5maWxlLm1hZT4nLCAnLW9tYWUnLCAnPG91dGZpbGUubWFlPic=

>  <s_epik_input>  (1) 
W09IXU9DKD1PKS9bQ0hdPUMoXFtDSDNdKVtDSDJdW0NIMl1jKFtjSF0xKW5bbkhdYzFbQ0gyXVtDSDJdW0NASF0oW0NAQEhdKFtDSDNdKVtDSDJdW0NIM10pW0NAQEhdKE8yKU9bQ0hdPUMyQ2w=

>  <s_glide_docking_method>  (1) 
confgen

>  <s_i_glide_gridfile>  (1) 
gpcr_5ht2c_6bqh_protein_autoprepared_prepared

>  <s_lp_Force_Field>  (1) 
S-OPLS

>  <s_lp_Variant>  (1) 
DiffSBDD_83-2

>  <s_m_source_file>  (1) 
generated_GPCR_5HT2C_ligand_DiffSBDD_2026-06-23_prepared.sdf

>  <GenAI_Model>  (1) 
DiffSBDD

>  <Protein>  (1) 
GPCR_5HT2C

$$$$
DiffSBDD_53
     RDKit          3D

  0  0  0  0  0  0  0  0  0  0999 V3000
M  V30 BEGIN CTAB
M  V30 COUNTS 81 85 0 0 1
M  V30 BEGIN ATOM
M  V30 1 C 38.668228 28.605922 58.576195 0
M  V30 2 C 40.561522 32.019034 64.668677 0
M  V30 3 C 37.989576 35.034721 61.479762 0
M  V30 4 C 40.002729 28.268875 59.270018 0
M  V30 5 C 40.873265 34.103189 62.336811 0
M  V30 6 C 37.637235 26.231454 54.295727 0
M  V30 7 C 39.103107 30.289231 54.045878 0
M  V30 8 N 38.858145 29.322035 57.287606 0 CHG=1
M  V30 9 N 36.962672 38.049490 61.516879 0
M  V30 10 C 42.551086 29.821664 64.749690 0
M  V30 11 C 38.444016 28.577017 56.070254 0 CFG=1
M  V30 12 N 40.445731 29.336361 60.154120 0
M  V30 13 C 39.898912 33.417537 61.709774 0
M  V30 14 C 41.972369 33.334578 63.071771 0
M  V30 15 C 38.122263 29.542748 54.923015 0 CFG=1
M  V30 16 C 40.937572 31.294666 62.206794 0 CFG=1
M  V30 17 C 39.465417 27.505508 55.612119 0 CFG=2
M  V30 18 C 37.411282 37.159142 62.570448 0
M  V30 19 O 36.844847 30.141666 55.006565 0
M  V30 20 C 39.808532 29.369369 61.447940 0
M  V30 21 C 40.308275 30.716253 65.443926 0
M  V30 22 C 41.620432 30.097512 65.933645 0
M  V30 23 C 41.565171 31.907058 63.496591 0
M  V30 24 O 40.593202 29.960697 62.438010 0
M  V30 25 C 42.822621 31.097856 63.929858 0
M  V30 26 C 39.037919 26.890714 54.252128 0 CFG=2
M  V30 27 O 39.588781 26.473158 56.572706 0
M  V30 28 C 39.871744 36.461407 62.228244 0
M  V30 29 N 39.129169 27.935445 53.195785 0 CFG=1 CHG=1
M  V30 30 O 39.858917 32.045552 61.741260 0
M  V30 31 C 38.980309 27.428521 51.810102 0
M  V30 32 C 38.300864 29.138406 53.463462 0 CFG=2
M  V30 33 C 40.919840 35.579765 62.342256 0
M  V30 34 C 38.834598 33.999017 60.861834 0
M  V30 35 C 38.431991 36.158943 62.059751 0
M  V30 36 H 38.034178 29.210179 59.224826 0
M  V30 37 H 38.111801 27.680970 58.425095 0
M  V30 38 H 40.941679 32.744808 65.388873 0
M  V30 39 H 39.645089 32.449543 64.300867 0
M  V30 40 H 36.923044 34.877882 61.396475 0
M  V30 41 H 39.901414 27.350525 59.849317 0
M  V30 42 H 40.781885 28.067162 58.533578 0
M  V30 43 H 37.571655 25.485330 55.088192 0
M  V30 44 H 36.845174 26.959037 54.467015 0
M  V30 45 H 37.390474 25.723857 53.367034 0
M  V30 46 H 38.830207 31.296801 53.738823 0
M  V30 47 H 40.164640 30.145487 54.236981 0
M  V30 48 H 39.812514 29.638742 57.201632 0
M  V30 49 H 36.511794 37.518266 60.785176 0
M  V30 50 H 36.254811 38.675836 61.874599 0
M  V30 51 H 42.120697 29.044986 64.118291 0
M  V30 52 H 43.495007 29.412882 65.111907 0
M  V30 53 H 37.524589 28.059434 56.322878 0
M  V30 54 H 40.401951 30.239604 59.706992 0
M  V30 55 H 42.830566 33.268799 62.403859 0
M  V30 56 H 42.311921 33.912344 63.932731 0
M  V30 57 H 41.656743 31.323826 61.393024 0
M  V30 58 H 40.449851 27.962733 55.512366 0
M  V30 59 H 36.550730 36.626713 62.979101 0
M  V30 60 H 37.839255 37.737424 63.389097 0
M  V30 61 H 36.788840 30.820117 55.672315 0
M  V30 62 H 38.839929 29.868489 61.393668 0
M  V30 63 H 39.626745 28.352955 61.800844 0
M  V30 64 H 39.786346 30.001799 64.810865 0
M  V30 65 H 39.649605 30.913075 66.290015 0
M  V30 66 H 41.420235 29.172043 66.475419 0
M  V30 67 H 42.109167 30.771388 66.637866 0
M  V30 68 H 43.430837 30.836371 63.068937 0
M  V30 69 H 43.430213 31.737755 64.569201 0
M  V30 70 H 39.763735 26.115915 53.994940 0
M  V30 71 H 40.324900 25.917611 56.352078 0
M  V30 72 H 40.123998 37.505899 62.337670 0
M  V30 73 H 37.962787 27.106485 51.604939 0
M  V30 74 H 39.223621 28.210731 51.089663 0
M  V30 75 H 39.643151 26.583496 51.621897 0
M  V30 76 H 37.524234 29.332952 52.729982 0
M  V30 77 H 41.887063 36.023126 62.528928 0
M  V30 78 H 39.292617 34.414335 59.964108 0
M  V30 79 H 38.178689 33.197923 60.520116 0
M  V30 80 H 40.078876 28.268316 53.228927 0
M  V30 81 H 38.258255 30.134277 57.333903 0
M  V30 END ATOM
M  V30 BEGIN BOND
M  V30 1 1 4 1
M  V30 2 1 8 1
M  V30 3 1 11 8
M  V30 4 1 12 4
M  V30 5 2 13 5
M  V30 6 1 14 5
M  V30 7 1 15 7
M  V30 8 1 15 11
M  V30 9 1 17 11
M  V30 10 1 18 9
M  V30 11 1 15 19 CFG=3
M  V30 12 1 20 12
M  V30 13 1 21 2
M  V30 14 1 22 10
M  V30 15 1 22 21
M  V30 16 1 23 2
M  V30 17 1 23 14
M  V30 18 1 23 16
M  V30 19 1 24 16
M  V30 20 1 24 20
M  V30 21 1 25 10
M  V30 22 1 25 23
M  V30 23 1 26 6
M  V30 24 1 26 17
M  V30 25 1 27 17
M  V30 26 1 29 26
M  V30 27 1 30 13
M  V30 28 1 30 16
M  V30 29 1 31 29
M  V30 30 1 32 7
M  V30 31 1 32 15
M  V30 32 1 32 29
M  V30 33 1 33 5
M  V30 34 2 33 28
M  V30 35 1 34 3
M  V30 36 1 34 13
M  V30 37 2 35 3
M  V30 38 1 35 18
M  V30 39 1 35 28
M  V30 40 1 36 1
M  V30 41 1 37 1
M  V30 42 1 38 2
M  V30 43 1 39 2
M  V30 44 1 40 3
M  V30 45 1 41 4
M  V30 46 1 42 4
M  V30 47 1 43 6
M  V30 48 1 44 6
M  V30 49 1 45 6
M  V30 50 1 46 7
M  V30 51 1 47 7
M  V30 52 1 48 8
M  V30 53 1 49 9
M  V30 54 1 50 9
M  V30 55 1 51 10
M  V30 56 1 52 10
M  V30 57 1 11 53 CFG=1
M  V30 58 1 54 12
M  V30 59 1 55 14
M  V30 60 1 56 14
M  V30 61 1 16 57 CFG=3
M  V30 62 1 17 58 CFG=3
M  V30 63 1 59 18
M  V30 64 1 60 18
M  V30 65 1 61 19
M  V30 66 1 62 20
M  V30 67 1 63 20
M  V30 68 1 64 21
M  V30 69 1 65 21
M  V30 70 1 66 22
M  V30 71 1 67 22
M  V30 72 1 68 25
M  V30 73 1 69 25
M  V30 74 1 26 70 CFG=3
M  V30 75 1 71 27
M  V30 76 1 72 28
M  V30 77 1 73 31
M  V30 78 1 74 31
M  V30 79 1 75 31
M  V30 80 1 32 76 CFG=3
M  V30 81 1 77 33
M  V30 82 1 78 34
M  V30 83 1 79 34
M  V30 84 1 29 80 CFG=3
M  V30 85 1 81 8
M  V30 END BOND
M  V30 END CTAB
M  END
>  <i_epik_Tot_Q>  (1) 
2

>  <i_epik_Tot_abs_Q>  (1) 
2

>  <i_i_glide_confnum>  (1) 
674

>  <i_i_glide_lignum>  (1) 
112

>  <i_i_glide_posenum>  (1) 
392

>  <i_i_glide_rotatable_bonds>  (1) 
10

>  <i_lp_mmshare_version>  (1) 
72125

>  <i_m_source_file_index>  (1) 
54

>  <i_f3d_flags>  (1) 
0

>  <num_sample>  (1) 
100

>  <b_lp_Chiralities_Consistent>  (1) 
1

>  <r_epik_Charging_Adjusted_Penalty>  (1) 
1.1947924258661535

>  <r_epik_Ionization_Penalty>  (1) 
1.111601378610803

>  <r_epik_Ionization_Penalty_Charging>  (1) 
0.15856543202638063

>  <r_epik_Ionization_Penalty_Neutral>  (1) 
0.95303594658442226

>  <r_epik_State_Penalty>  (1) 
1.036226993839773

>  <r_glide_ring_energy>  (1) 
0.00045989382302465386

>  <r_i_docking_score>  (1) 
-6.5508599768905889

>  <r_i_glide_ecoul>  (1) 
-2.2661022399384612

>  <r_i_glide_eff_state_penalty>  (1) 
1.036226993839773

>  <r_i_glide_einternal>  (1) 
15.275042804671928

>  <r_i_glide_emodel>  (1) 
-59.717691542955549

>  <r_i_glide_emodel_strain>  (1) 
0.0061363307396504752

>  <r_i_glide_energy>  (1) 
-45.974210045369048

>  <r_i_glide_erotb>  (1) 
0.59168961163588141

>  <r_i_glide_esite>  (1) 
0

>  <r_i_glide_evdw>  (1) 
-43.708107805430586

>  <r_i_glide_gscore>  (1) 
-7.5870869707303621

>  <r_i_glide_gscore_strain>  (1) 
0

>  <r_i_glide_hbond>  (1) 
-0.097247896835599035

>  <r_i_glide_ligand_efficiency>  (1) 
-0.18716742791115967

>  <r_i_glide_ligand_efficiency_ln>  (1) 
-1.438059153431346

>  <r_i_glide_ligand_efficiency_sa>  (1) 
-0.6122370678048461

>  <r_i_glide_lipo>  (1) 
-4.7479600272796896

>  <r_i_glide_metal>  (1) 
-0

>  <r_i_glide_rewards>  (1) 
-0.8082479319886563

>  <r_lp_Energy>  (1) 
70.003378999999995

>  <s_epik_Chemistry_Notes>  (1) 
This compound contains an acetal/aminal-like group ( X-CH(R)-Y where X, Y are N, S, or O) that may be acid/base labile, releasing an aldehyde.

>  <s_epik_cmdline>  (1) 
J2VwaWtfcHl0aG9uJywgJy1waHQnLCAnMS4wJywgJy1waCcsICc3LjQnLCAnLXRuJywgJzgnLCAnLW1hJywgJzUwMCcsICctaW1hZScsICc8aW5maWxlLm1hZT4nLCAnLW9tYWUnLCAnPG91dGZpbGUubWFlPic=

>  <s_epik_input>  (1) 
W09IXVtDQEBdMTJbQ0BASF0oW0NIMl0xKU4oW0NIM10pW0NASF0oW0NIM10pW0NASF0oW09IXSlbQ0BIXTJbTkhdW0NIMl1bQ0gyXVtOSF1bQ0gyXU9bQ0BIXTNPQyhbQ0gyXVtDSF09QyhbQ0gyXVtOSDJdKVtDSF09W0NIXTQpPUM0W0NIMl1DMzVbQ0gyXVtDSDJdW0NIMl1bQ0gyXVtDSDJdNQ==

>  <s_glide_docking_method>  (1) 
confgen

>  <s_i_glide_gridfile>  (1) 
gpcr_5ht2c_6bqh_protein_autoprepared_prepared

>  <s_lp_Force_Field>  (1) 
S-OPLS

>  <s_lp_Variant>  (1) 
DiffSBDD_53-4

>  <s_m_source_file>  (1) 
generated_GPCR_5HT2C_ligand_DiffSBDD_2026-06-23_prepared.sdf

>  <GenAI_Model>  (1) 
DiffSBDD

>  <Protein>  (1) 
GPCR_5HT2C

$$$$
DiffSBDD_38
     RDKit          3D

  0  0  0  0  0  0  0  0  0  0999 V3000
M  V30 BEGIN CTAB
M  V30 COUNTS 45 47 0 0 1
M  V30 BEGIN ATOM
M  V30 1 C 36.689162 29.868494 59.190497 0
M  V30 2 C 37.214388 36.260972 60.365455 0
M  V30 3 C 41.041771 36.065615 61.546660 0
M  V30 4 C 36.567472 34.130381 59.363273 0
M  V30 5 C 38.965808 28.945075 52.638907 0
M  V30 6 O 37.928859 31.313641 61.269690 0
M  V30 7 C 37.798412 27.108052 53.739667 0
M  V30 8 C 37.330444 31.922892 60.380970 0
M  V30 9 C 40.098947 35.921634 62.745831 0
M  V30 10 C 37.860101 29.443498 58.326389 0
M  V30 11 C 39.097090 29.514009 56.431360 0 CFG=2
M  V30 12 C 37.284852 33.435235 60.368276 0
M  V30 13 C 38.652484 36.364351 62.456298 0
M  V30 14 N 36.690532 31.315072 59.367758 0
M  V30 15 C 36.534505 35.538780 59.367765 0
M  V30 16 S 40.036151 28.311774 57.490127 0
M  V30 17 O 37.887275 29.996481 57.081241 0
M  V30 18 C 38.072042 27.683889 54.995061 0
M  V30 19 C 38.827667 28.614583 58.660193 0
M  V30 20 C 37.964996 34.165520 61.367754 0
M  V30 21 C 38.246375 27.737800 52.562468 0
M  V30 22 C 38.796103 28.893005 55.075462 0
M  V30 23 C 39.240924 29.524351 53.894018 0
M  V30 24 C 37.929713 35.577823 61.367779 0
M  V30 25 H 35.764862 29.584039 58.686594 0
M  V30 26 H 36.706437 29.342554 60.142747 0
M  V30 27 H 37.183119 37.340860 60.363389 0
M  V30 28 H 42.045125 35.737749 61.810129 0
M  V30 29 H 40.707644 35.474160 60.693979 0
M  V30 30 H 41.118742 37.104455 61.231888 0
M  V30 31 H 36.042521 33.588793 58.589839 0
M  V30 32 H 39.307689 29.427804 51.734893 0
M  V30 33 H 37.245118 26.182119 53.678798 0
M  V30 34 H 40.490272 36.523970 63.567048 0
M  V30 35 H 40.116415 34.892322 63.103231 0
M  V30 36 H 39.742854 30.381173 56.288201 0
M  V30 37 H 38.654304 37.422357 62.191911 0
M  V30 38 H 38.063184 36.288034 63.370313 0
M  V30 39 H 36.217729 31.874403 58.664621 0
M  V30 40 H 35.985125 36.066094 58.602278 0
M  V30 41 H 37.728034 27.198899 55.897006 0
M  V30 42 H 38.897756 28.126207 59.621107 0
M  V30 43 H 38.510916 33.641372 62.138209 0
M  V30 44 H 38.036878 27.294439 51.599492 0
M  V30 45 H 39.794167 30.450851 53.950373 0
M  V30 END ATOM
M  V30 BEGIN BOND
M  V30 1 2 8 6
M  V30 2 1 9 3
M  V30 3 1 10 1
M  V30 4 2 12 4
M  V30 5 1 12 8
M  V30 6 1 13 9
M  V30 7 1 14 1
M  V30 8 1 14 8
M  V30 9 2 15 2
M  V30 10 1 15 4
M  V30 11 1 16 11
M  V30 12 1 17 10
M  V30 13 1 17 11
M  V30 14 2 18 7
M  V30 15 2 19 10
M  V30 16 1 19 16
M  V30 17 1 20 12
M  V30 18 2 21 5
M  V30 19 1 21 7
M  V30 20 1 22 11
M  V30 21 1 22 18
M  V30 22 1 23 5
M  V30 23 2 23 22
M  V30 24 1 24 2
M  V30 25 1 24 13
M  V30 26 2 24 20
M  V30 27 1 25 1
M  V30 28 1 26 1
M  V30 29 1 27 2
M  V30 30 1 28 3
M  V30 31 1 29 3
M  V30 32 1 30 3
M  V30 33 1 31 4
M  V30 34 1 32 5
M  V30 35 1 33 7
M  V30 36 1 34 9
M  V30 37 1 35 9
M  V30 38 1 11 36 CFG=3
M  V30 39 1 37 13
M  V30 40 1 38 13
M  V30 41 1 39 14
M  V30 42 1 40 15
M  V30 43 1 41 18
M  V30 44 1 42 19
M  V30 45 1 43 20
M  V30 46 1 44 21
M  V30 47 1 45 23
M  V30 END BOND
M  V30 END CTAB
M  END
>  <i_epik_Tot_Q>  (1) 
0

>  <i_epik_Tot_abs_Q>  (1) 
0

>  <i_i_glide_confnum>  (1) 
117

>  <i_i_glide_lignum>  (1) 
85

>  <i_i_glide_posenum>  (1) 
272

>  <i_i_glide_rotatable_bonds>  (1) 
7

>  <i_lp_mmshare_version>  (1) 
72125

>  <i_m_source_file_index>  (1) 
39

>  <i_f3d_flags>  (1) 
0

>  <num_sample>  (1) 
100

>  <b_lp_Chiralities_Consistent>  (1) 
1

>  <r_epik_Charging_Adjusted_Penalty>  (1) 
0

>  <r_epik_Ionization_Penalty>  (1) 
2.537030552391147e-06

>  <r_epik_Ionization_Penalty_Charging>  (1) 
0

>  <r_epik_Ionization_Penalty_Neutral>  (1) 
2.537030552391147e-06

>  <r_epik_State_Penalty>  (1) 
-0

>  <r_glide_ring_energy>  (1) 
0

>  <r_i_docking_score>  (1) 
-6.5467324325540108

>  <r_i_glide_ecoul>  (1) 
-3.6494772387799319

>  <r_i_glide_eff_state_penalty>  (1) 
-0

>  <r_i_glide_einternal>  (1) 
3.2947757000362161

>  <r_i_glide_emodel>  (1) 
-59.279938623363968

>  <r_i_glide_emodel_strain>  (1) 
0

>  <r_i_glide_energy>  (1) 
-43.258728891000246

>  <r_i_glide_erotb>  (1) 
0.98539345027443515

>  <r_i_glide_esite>  (1) 
-0.118159694588583

>  <r_i_glide_evdw>  (1) 
-39.609251652220316

>  <r_i_glide_gscore>  (1) 
-6.5467324325540108

>  <r_i_glide_gscore_strain>  (1) 
0

>  <r_i_glide_hbond>  (1) 
0

>  <r_i_glide_ligand_efficiency>  (1) 
-0.27278051802308378

>  <r_i_glide_ligand_efficiency_ln>  (1) 
-1.5669334810865287

>  <r_i_glide_ligand_efficiency_sa>  (1) 
-0.78683516981404977

>  <r_i_glide_lipo>  (1) 
-3.0816234543247116

>  <r_i_glide_metal>  (1) 
-0

>  <r_i_glide_rewards>  (1) 
-1.8044585654871454

>  <r_lp_Energy>  (1) 
12.828882

>  <r_lp_tautomer_probability>  (1) 
1

>  <s_epik_Chemistry_Notes>  (1) 
This compound contains an acetal/aminal-like group ( X-CH(R)-Y where X, Y are N, S, or O) that may be acid/base labile, releasing an aldehyde.

>  <s_epik_cmdline>  (1) 
J2VwaWtfcHl0aG9uJywgJy1waHQnLCAnMS4wJywgJy1waCcsICc3LjQnLCAnLXRuJywgJzgnLCAnLW1hJywgJzUwMCcsICctaW1hZScsICc8aW5maWxlLm1hZT4nLCAnLW9tYWUnLCAnPG91dGZpbGUubWFlPic=

>  <s_epik_input>  (1) 
W2NIXTFbY0hdW2NIXVtjSF1bY0hdYzFbQ0BASF0oTzIpU1tDSF09QzJbQ0gyXVtOSF1DKD1PKWMzW2NIXVtjSF1bY0hdYyhbY0hdMylbQ0gyXVtDSDJdW0NIM10=

>  <s_glide_docking_method>  (1) 
confgen

>  <s_i_glide_gridfile>  (1) 
gpcr_5ht2c_6bqh_protein_autoprepared_prepared

>  <s_lp_Force_Field>  (1) 
S-OPLS

>  <s_lp_Variant>  (1) 
DiffSBDD_38-1

>  <s_m_source_file>  (1) 
generated_GPCR_5HT2C_ligand_DiffSBDD_2026-06-23_prepared.sdf

>  <GenAI_Model>  (1) 
DiffSBDD

>  <Protein>  (1) 
GPCR_5HT2C

$$$$
DiffSBDD_74
     RDKit          3D

  0  0  0  0  0  0  0  0  0  0999 V3000
M  V30 BEGIN CTAB
M  V30 COUNTS 70 72 0 0 1
M  V30 BEGIN ATOM
M  V30 1 C 36.808173 34.416313 58.993362 0
M  V30 2 C 38.838025 31.166458 59.391163 0
M  V30 3 C 40.138318 32.993912 62.484406 0
M  V30 4 F 40.845109 28.537761 50.967727 0
M  V30 5 C 39.448787 31.409604 60.567753 0
M  V30 6 C 39.403820 29.661362 52.132562 0
M  V30 7 C 39.758005 30.937667 52.596625 0
M  V30 8 C 37.644885 28.268639 55.154611 0
M  V30 9 O 37.659149 24.659931 55.866157 0
M  V30 10 F 41.209869 34.729755 63.682913 0
M  V30 11 F 40.782896 35.102141 61.586615 0
M  V30 12 C 36.713771 29.205293 58.553314 0
M  V30 13 F 38.859201 28.421048 50.230344 0
M  V30 14 C 36.059538 35.443840 59.834719 0
M  V30 15 C 38.222768 33.456592 60.929306 0
M  V30 16 N 38.496637 27.297110 55.755771 0
M  V30 17 C 38.246499 25.272444 57.001024 0 CFG=1
M  V30 18 C 39.763517 25.027114 57.009816 0
M  V30 19 C 37.904988 32.176390 58.760325 0
M  V30 20 C 38.367032 29.187197 54.265848 0
M  V30 21 N 38.126071 28.832520 58.691907 0
M  V30 22 F 40.045062 30.241866 49.918679 0
M  V30 23 C 38.546125 27.472193 58.262721 0 CFG=1
M  V30 24 C 37.278590 33.161194 59.761875 0 CFG=2
M  V30 25 C 37.938104 26.783976 56.999222 0 CFG=1
M  V30 26 C 40.067889 27.250550 58.263158 0
M  V30 27 C 39.394237 31.337691 53.894077 0
M  V30 28 F 39.645048 32.478700 63.607914 0
M  V30 29 F 41.346412 32.457189 62.294184 0
M  V30 30 O 36.123730 32.526471 60.274544 0
M  V30 31 C 39.116493 29.915631 58.573651 0
M  V30 32 C 39.770058 29.234326 50.749181 0
M  V30 33 C 38.711252 28.782204 52.971904 0
M  V30 34 C 39.225865 32.633278 61.311294 0
M  V30 35 C 40.339137 34.511634 62.697976 0
M  V30 36 C 38.701324 30.466095 54.722531 0
M  V30 37 C 40.414574 25.782129 58.167749 0
M  V30 38 H 37.645139 34.909750 58.513343 0
M  V30 39 H 36.157063 34.107914 58.174146 0
M  V30 40 H 40.146737 30.682142 60.955449 0
M  V30 41 H 40.296340 31.617991 51.953417 0
M  V30 42 H 36.841922 27.791855 54.591816 0
M  V30 43 H 37.245109 28.910821 55.924614 0
M  V30 44 H 37.832838 23.732173 55.894895 0
M  V30 45 H 36.033489 28.360362 58.567618 0
M  V30 46 H 36.411212 29.859673 59.370497 0
M  V30 47 H 36.525950 29.734040 57.622021 0
M  V30 48 H 35.647888 36.232188 59.205085 0
M  V30 49 H 35.245070 34.937752 60.344790 0
M  V30 50 H 36.695022 35.920092 60.580594 0
M  V30 51 H 38.050157 34.373359 61.464859 0
M  V30 52 H 38.519622 26.487325 55.140874 0
M  V30 53 H 37.803135 24.814820 57.886540 0
M  V30 54 H 40.224437 25.331329 56.069394 0
M  V30 55 H 39.955848 23.964836 57.125322 0
M  V30 56 H 37.138725 31.699020 58.167811 0
M  V30 57 H 38.517019 32.723615 58.042699 0
M  V30 58 H 38.185343 26.837380 59.070756 0
M  V30 59 H 36.853344 26.880157 57.012574 0
M  V30 60 H 40.544878 27.798405 57.448936 0
M  V30 61 H 40.507161 27.603633 59.195934 0
M  V30 62 H 39.644982 32.318338 54.250481 0
M  V30 63 H 35.562652 32.324726 59.538012 0
M  V30 64 H 39.244980 30.194901 57.531295 0
M  V30 65 H 40.097596 29.597713 58.911536 0
M  V30 66 H 38.443640 27.794281 52.622293 0
M  V30 67 H 39.419579 35.019744 62.989307 0
M  V30 68 H 38.420879 30.777199 55.716039 0
M  V30 69 H 41.495307 25.737694 58.167781 0
M  V30 70 H 40.045010 25.337758 59.074668 0
M  V30 END ATOM
M  V30 BEGIN BOND
M  V30 1 2 5 2
M  V30 2 2 7 6
M  V30 3 1 14 1
M  V30 4 1 16 8
M  V30 5 1 17 9
M  V30 6 1 18 17
M  V30 7 1 19 2
M  V30 8 1 20 8
M  V30 9 1 21 12
M  V30 10 1 23 21
M  V30 11 1 24 1
M  V30 12 1 24 15
M  V30 13 1 24 19
M  V30 14 1 25 16
M  V30 15 1 25 17
M  V30 16 1 25 23
M  V30 17 1 26 23
M  V30 18 1 27 7
M  V30 19 1 28 3
M  V30 20 1 29 3
M  V30 21 1 24 30 CFG=1
M  V30 22 1 31 2
M  V30 23 1 31 21
M  V30 24 1 32 4
M  V30 25 1 32 6
M  V30 26 1 32 13
M  V30 27 1 32 22
M  V30 28 1 33 6
M  V30 29 2 33 20
M  V30 30 1 34 3
M  V30 31 1 34 5
M  V30 32 2 34 15
M  V30 33 1 35 3
M  V30 34 1 35 10
M  V30 35 1 35 11
M  V30 36 1 36 20
M  V30 37 2 36 27
M  V30 38 1 37 18
M  V30 39 1 37 26
M  V30 40 1 38 1
M  V30 41 1 39 1
M  V30 42 1 40 5
M  V30 43 1 41 7
M  V30 44 1 42 8
M  V30 45 1 43 8
M  V30 46 1 44 9
M  V30 47 1 45 12
M  V30 48 1 46 12
M  V30 49 1 47 12
M  V30 50 1 48 14
M  V30 51 1 49 14
M  V30 52 1 50 14
M  V30 53 1 51 15
M  V30 54 1 52 16
M  V30 55 1 17 53 CFG=1
M  V30 56 1 54 18
M  V30 57 1 55 18
M  V30 58 1 56 19
M  V30 59 1 57 19
M  V30 60 1 23 58 CFG=1
M  V30 61 1 25 59 CFG=3
M  V30 62 1 60 26
M  V30 63 1 61 26
M  V30 64 1 62 27
M  V30 65 1 63 30
M  V30 66 1 64 31
M  V30 67 1 65 31
M  V30 68 1 66 33
M  V30 69 1 67 35
M  V30 70 1 68 36
M  V30 71 1 69 37
M  V30 72 1 70 37
M  V30 END BOND
M  V30 END CTAB
M  END
>  <i_epik_Tot_Q>  (1) 
0

>  <i_epik_Tot_abs_Q>  (1) 
0

>  <i_i_glide_confnum>  (1) 
118

>  <i_i_glide_lignum>  (1) 
163

>  <i_i_glide_posenum>  (1) 
165

>  <i_i_glide_rotatable_bonds>  (1) 
12

>  <i_lp_mmshare_version>  (1) 
72125

>  <i_m_source_file_index>  (1) 
75

>  <i_f3d_flags>  (1) 
0

>  <num_sample>  (1) 
100

>  <b_lp_Chiralities_Consistent>  (1) 
1

>  <r_epik_Charging_Adjusted_Penalty>  (1) 
0.95016653891127834

>  <r_epik_Ionization_Penalty>  (1) 
0.98731077050132976

>  <r_epik_Ionization_Penalty_Charging>  (1) 
0

>  <r_epik_Ionization_Penalty_Neutral>  (1) 
0.98731077050132976

>  <r_epik_State_Penalty>  (1) 
0.95016653891127834

>  <r_glide_ring_energy>  (1) 
0

>  <r_i_docking_score>  (1) 
-6.5420322052499946

>  <r_i_glide_ecoul>  (1) 
-1.2840443249235896

>  <r_i_glide_eff_state_penalty>  (1) 
0.95016653891127834

>  <r_i_glide_einternal>  (1) 
5.9472083660254036

>  <r_i_glide_emodel>  (1) 
-36.36678287789281

>  <r_i_glide_emodel_strain>  (1) 
4.2546417147235616

>  <r_i_glide_energy>  (1) 
-27.290831434372848

>  <r_i_glide_erotb>  (1) 
0.49869770839919392

>  <r_i_glide_esite>  (1) 
0

>  <r_i_glide_evdw>  (1) 
-26.00678710944926

>  <r_i_glide_gscore>  (1) 
-7.4921987441612732

>  <r_i_glide_gscore_strain>  (1) 
0.063660428680890391

>  <r_i_glide_hbond>  (1) 
0

>  <r_i_glide_ligand_efficiency>  (1) 
-0.17681168122297283

>  <r_i_glide_ligand_efficiency_ln>  (1) 
-1.418813418323974

>  <r_i_glide_ligand_efficiency_sa>  (1) 
-0.58917574779744863

>  <r_i_glide_lipo>  (1) 
-4.1798921042119703

>  <r_i_glide_metal>  (1) 
-0

>  <r_i_glide_rewards>  (1) 
-2.3817187728183864

>  <r_lp_Energy>  (1) 
51.967185000000001

>  <s_epik_cmdline>  (1) 
J2VwaWtfcHl0aG9uJywgJy1waHQnLCAnMS4wJywgJy1waCcsICc3LjQnLCAnLXRuJywgJzgnLCAnLW1hJywgJzUwMCcsICctaW1hZScsICc8aW5maWxlLm1hZT4nLCAnLW9tYWUnLCAnPG91dGZpbGUubWFlPic=

>  <s_epik_input>  (1) 
W0NIM11bQ0gyXVtDQF0xKFtPSF0pW0NIXT1DKEMoRikoRilbQ0hdKEYpRilbQ0hdPUMoW0NIMl0xKVtDSDJdTihbQ0gzXSlbQ0BIXShbQ0gyXVtDSDJdW0NIMl1bQ0BASF0yW09IXSlbQ0BIXTJbTkhdW0NIMl1jKFtjSF0zKVtjSF1bY0hdW2NIXWMzQyhGKShGKUY=

>  <s_glide_docking_method>  (1) 
confgen

>  <s_i_glide_gridfile>  (1) 
gpcr_5ht2c_6bqh_protein_autoprepared_prepared

>  <s_lp_Force_Field>  (1) 
S-OPLS

>  <s_lp_Variant>  (1) 
DiffSBDD_74-2

>  <s_m_source_file>  (1) 
generated_GPCR_5HT2C_ligand_DiffSBDD_2026-06-23_prepared.sdf

>  <GenAI_Model>  (1) 
DiffSBDD

>  <Protein>  (1) 
GPCR_5HT2C

$$$$
DiffSBDD_67
     RDKit          3D

  0  0  0  0  0  0  0  0  0  0999 V3000
M  V30 BEGIN CTAB
M  V30 COUNTS 77 78 0 0 1
M  V30 BEGIN ATOM
M  V30 1 C 38.514883 30.285663 59.697583 0
M  V30 2 O 40.846161 32.661624 65.649454 0
M  V30 3 O 40.124030 36.539410 61.563830 0 CHG=-1
M  V30 4 C 38.884490 28.944515 58.987486 0 CFG=1
M  V30 5 O 40.396362 27.737762 60.433021 0
M  V30 6 C 41.471232 33.506715 65.009302 0
M  V30 7 C 38.491088 28.770417 57.461416 0 CFG=1
M  V30 8 C 37.433053 31.069471 59.228213 0
M  V30 9 C 41.485831 28.795572 58.584761 0
M  V30 10 C 38.971080 29.927872 56.526405 0
M  V30 11 N 39.139227 29.678255 52.720797 0 CFG=1 CHG=1
M  V30 12 C 39.674055 32.380961 62.719574 0
M  V30 13 C 40.044989 29.628096 50.624380 0
M  V30 14 C 37.175610 25.274496 56.272714 0
M  V30 15 C 37.096108 32.274634 59.877262 0
M  V30 16 C 40.048037 26.809390 56.517112 0
M  V30 17 C 37.678601 26.228620 57.374439 0
M  V30 18 C 38.898044 31.929802 61.486523 0
M  V30 19 C 40.992694 33.152050 62.436252 0 CFG=2
M  V30 20 C 40.019616 30.871552 52.593905 0
M  V30 21 C 39.468239 28.698152 51.656370 0
M  V30 22 C 40.531016 30.938105 51.146686 0
M  V30 23 C 38.305420 25.396406 58.492804 0
M  V30 24 O 39.658445 35.417454 63.367698 0
M  V30 25 O 40.103001 29.337814 49.436556 0
M  V30 26 C 38.341359 30.007127 55.114839 0
M  V30 27 C 39.048518 29.105289 54.076251 0
M  V30 28 C 40.183567 35.497338 62.241936 0
M  V30 29 C 41.747727 34.892452 65.586181 0
M  V30 30 C 42.016021 33.203807 63.606214 0
M  V30 31 C 38.621742 27.332914 56.818972 0 CFG=1
M  V30 32 C 39.243970 30.725262 60.840523 0
M  V30 33 N 40.834563 34.438065 61.736347 0
M  V30 34 C 40.271792 28.415920 59.422419 0
M  V30 35 C 37.826926 32.705245 61.001763 0
M  V30 36 H 38.212239 28.253317 59.493703 0
M  V30 37 H 37.410219 28.904710 57.467483 0
M  V30 38 H 36.859860 30.751476 58.370071 0
M  V30 39 H 41.272221 28.861234 57.529946 0
M  V30 40 H 41.895931 29.737402 58.931474 0
M  V30 41 H 42.264557 28.042879 58.712582 0
M  V30 42 H 38.753611 30.877552 57.009205 0
M  V30 43 H 40.045089 29.952926 56.416294 0
M  V30 44 H 39.016465 32.955808 63.364903 0
M  V30 45 H 39.903866 31.482853 63.293930 0
M  V30 46 H 37.988447 24.693368 55.836174 0
M  V30 47 H 36.449958 24.566524 56.673872 0
M  V30 48 H 36.678732 25.812332 55.466536 0
M  V30 49 H 36.272661 32.868389 59.511029 0
M  V30 50 H 40.595143 26.536805 57.418022 0
M  V30 51 H 40.014854 25.914336 55.894497 0
M  V30 52 H 40.657080 27.531241 55.982220 0
M  V30 53 H 36.788178 26.715797 57.768167 0
M  V30 54 H 41.503175 32.544120 61.688845 0
M  V30 55 H 39.424822 31.745383 52.836887 0
M  V30 56 H 40.844766 30.834675 53.304153 0
M  V30 57 H 40.223930 27.982013 51.977856 0
M  V30 58 H 38.585076 28.172684 51.291554 0
M  V30 59 H 41.615162 31.007693 51.066420 0
M  V30 60 H 40.061335 31.737982 50.579089 0
M  V30 61 H 39.237953 24.938074 58.167544 0
M  V30 62 H 38.511707 26.021535 59.354128 0
M  V30 63 H 37.644903 24.583579 58.802567 0
M  V30 64 H 37.274048 29.785474 55.158864 0
M  V30 65 H 38.405016 31.048169 54.798564 0
M  V30 66 H 40.045101 28.888573 54.429572 0
M  V30 67 H 38.528110 28.156384 53.966177 0
M  V30 68 H 40.806136 35.407004 65.776156 0
M  V30 69 H 42.286074 34.810216 66.529226 0
M  V30 70 H 42.337707 35.502063 64.900295 0
M  V30 71 H 42.507521 32.233432 63.672385 0
M  V30 72 H 42.799265 33.922033 63.370209 0
M  V30 73 H 38.178078 27.478054 55.848054 0
M  V30 74 H 40.061153 30.139117 61.227859 0
M  V30 75 H 41.247139 34.524721 60.822970 0
M  V30 76 H 37.560824 33.629303 61.496328 0
M  V30 77 H 38.211339 30.001299 52.490882 0
M  V30 END ATOM
M  V30 BEGIN BOND
M  V30 1 1 4 1
M  V30 2 2 6 2
M  V30 3 1 7 4
M  V30 4 2 8 1
M  V30 5 1 10 7
M  V30 6 1 15 8
M  V30 7 1 17 14
M  V30 8 1 18 12
M  V30 9 1 19 12
M  V30 10 1 20 11
M  V30 11 1 21 11
M  V30 12 1 21 13
M  V30 13 1 22 13
M  V30 14 1 22 20
M  V30 15 1 23 17
M  V30 16 2 25 13
M  V30 17 1 26 10
M  V30 18 1 27 11
M  V30 19 1 27 26
M  V30 20 1 28 3
M  V30 21 2 28 24
M  V30 22 1 29 6
M  V30 23 1 30 6
M  V30 24 1 30 19
M  V30 25 1 31 7
M  V30 26 1 31 16
M  V30 27 1 31 17
M  V30 28 1 32 1
M  V30 29 2 32 18
M  V30 30 1 33 19
M  V30 31 1 33 28
M  V30 32 1 34 4
M  V30 33 2 34 5
M  V30 34 1 34 9
M  V30 35 2 35 15
M  V30 36 1 35 18
M  V30 37 1 4 36 CFG=1
M  V30 38 1 7 37 CFG=1
M  V30 39 1 38 8
M  V30 40 1 39 9
M  V30 41 1 40 9
M  V30 42 1 41 9
M  V30 43 1 42 10
M  V30 44 1 43 10
M  V30 45 1 44 12
M  V30 46 1 45 12
M  V30 47 1 46 14
M  V30 48 1 47 14
M  V30 49 1 48 14
M  V30 50 1 49 15
M  V30 51 1 50 16
M  V30 52 1 51 16
M  V30 53 1 52 16
M  V30 54 1 53 17
M  V30 55 1 19 54 CFG=3
M  V30 56 1 55 20
M  V30 57 1 56 20
M  V30 58 1 57 21
M  V30 59 1 58 21
M  V30 60 1 59 22
M  V30 61 1 60 22
M  V30 62 1 61 23
M  V30 63 1 62 23
M  V30 64 1 63 23
M  V30 65 1 64 26
M  V30 66 1 65 26
M  V30 67 1 66 27
M  V30 68 1 67 27
M  V30 69 1 68 29
M  V30 70 1 69 29
M  V30 71 1 70 29
M  V30 72 1 71 30
M  V30 73 1 72 30
M  V30 74 1 31 73 CFG=3
M  V30 75 1 74 32
M  V30 76 1 75 33
M  V30 77 1 76 35
M  V30 78 1 11 77 CFG=3
M  V30 END BOND
M  V30 END CTAB
M  END
>  <i_epik_Tot_Q>  (1) 
0

>  <i_epik_Tot_abs_Q>  (1) 
2

>  <i_i_glide_confnum>  (1) 
1265

>  <i_i_glide_lignum>  (1) 
150

>  <i_i_glide_posenum>  (1) 
63

>  <i_i_glide_rotatable_bonds>  (1) 
15

>  <i_lp_mmshare_version>  (1) 
72125

>  <i_m_source_file_index>  (1) 
68

>  <i_f3d_flags>  (1) 
0

>  <num_sample>  (1) 
100

>  <b_lp_Chiralities_Consistent>  (1) 
1

>  <r_epik_Charging_Adjusted_Penalty>  (1) 
0.5296149838886226

>  <r_epik_Ionization_Penalty>  (1) 
0.26529925199373078

>  <r_epik_Ionization_Penalty_Charging>  (1) 
0.26525061984488274

>  <r_epik_Ionization_Penalty_Neutral>  (1) 
4.8632148848023016e-05

>  <r_epik_State_Penalty>  (1) 
0.26436436404373981

>  <r_glide_ring_energy>  (1) 
0

>  <r_i_docking_score>  (1) 
-6.5404268792880984

>  <r_i_glide_ecoul>  (1) 
1.2436102080181888

>  <r_i_glide_eff_state_penalty>  (1) 
0.26436436404373981

>  <r_i_glide_einternal>  (1) 
18.026805757248937

>  <r_i_glide_emodel>  (1) 
-52.398753684982829

>  <r_i_glide_emodel_strain>  (1) 
4.6357107546679543

>  <r_i_glide_energy>  (1) 
-44.326511773179249

>  <r_i_glide_erotb>  (1) 
0.8581402996549512

>  <r_i_glide_esite>  (1) 
0

>  <r_i_glide_evdw>  (1) 
-45.570121981197438

>  <r_i_glide_gscore>  (1) 
-6.804791243331838

>  <r_i_glide_gscore_strain>  (1) 
0.15892768866698859

>  <r_i_glide_hbond>  (1) 
0

>  <r_i_glide_ligand_efficiency>  (1) 
-0.18686933940823139

>  <r_i_glide_ligand_efficiency_ln>  (1) 
-1.4357688569574738

>  <r_i_glide_ligand_efficiency_sa>  (1) 
-0.61126200054546276

>  <r_i_glide_lipo>  (1) 
-3.5573924968248791

>  <r_i_glide_metal>  (1) 
-0

>  <r_i_glide_rewards>  (1) 
-2.1725021669717552

>  <r_lp_Energy>  (1) 
26.316364

>  <r_lp_tautomer_probability>  (1) 
0.99994994000300153

>  <s_epik_cmdline>  (1) 
J2VwaWtfcHl0aG9uJywgJy1waHQnLCAnMS4wJywgJy1waCcsICc3LjQnLCAnLXRuJywgJzgnLCAnLW1hJywgJzUwMCcsICctaW1hZScsICc8aW5maWxlLm1hZT4nLCAnLW9tYWUnLCAnPG91dGZpbGUubWFlPic=

>  <s_epik_input>  (1) 
Tz1DKFtDSDNdKVtDSDJdW0NASF0oW05IXUMoPU8pW09IXSlbQ0gyXWMoW2NIXTEpW2NIXVtjSF1bY0hdYzFbQ0BIXShDKD1PKVtDSDNdKVtDQEhdKFtDQEBIXShbQ0gzXSlbQ0hdKFtDSDNdKVtDSDNdKVtDSDJdW0NIMl1bQ0gyXU4yW0NIMl1bQ0gyXUMoPU8pW0NIMl0y

>  <s_glide_docking_method>  (1) 
confgen

>  <s_i_glide_gridfile>  (1) 
gpcr_5ht2c_6bqh_protein_autoprepared_prepared

>  <s_lp_Force_Field>  (1) 
S-OPLS

>  <s_lp_Variant>  (1) 
DiffSBDD_67-2

>  <s_m_source_file>  (1) 
generated_GPCR_5HT2C_ligand_DiffSBDD_2026-06-23_prepared.sdf

>  <GenAI_Model>  (1) 
DiffSBDD

>  <Protein>  (1) 
GPCR_5HT2C

$$$$
DiffSBDD_16
     RDKit          3D

  0  0  0  0  0  0  0  0  0  0999 V3000
M  V30 BEGIN CTAB
M  V30 COUNTS 69 73 0 0 1
M  V30 BEGIN ATOM
M  V30 1 C 40.404081 31.350772 61.744484 0
M  V30 2 C 38.908394 28.286887 53.149773 0
M  V30 3 C 38.460634 32.730901 57.936392 0 CFG=1
M  V30 4 C 38.045494 33.359335 56.595498 0
M  V30 5 C 39.981724 29.113899 60.844418 0
M  V30 6 C 40.671386 28.542127 61.924745 0
M  V30 7 C 38.219277 35.962754 60.826638 0
M  V30 8 C 37.013917 35.792951 61.751332 0
M  V30 9 C 37.575489 33.311851 59.045876 0
M  V30 10 C 41.245328 29.367677 62.905414 0
M  V30 11 O 40.443076 35.619694 61.588231 0
M  V30 12 C 38.680998 30.378309 54.356260 0
M  V30 13 C 38.768417 31.175763 55.459859 0
M  V30 14 C 39.082056 30.689055 56.857805 0
M  V30 15 C 38.858624 28.907412 54.301058 0
M  V30 16 C 39.846047 30.509162 60.757198 0
M  V30 17 N 39.123690 26.937751 53.206925 0
M  V30 18 C 38.464202 25.375191 56.370347 0
M  V30 19 N 38.207547 31.297120 57.842826 0
M  V30 20 C 37.960536 26.595190 57.060710 0
M  V30 21 C 39.393721 28.231074 59.763476 0
M  V30 22 C 36.091291 34.605282 61.426402 0
M  V30 23 C 35.607740 32.145500 61.279861 0
M  V30 24 C 36.720932 33.204597 61.487291 0 CFG=1
M  V30 25 C 40.281312 32.837630 61.686192 0
M  V30 26 C 37.930404 33.004419 60.532644 0 CFG=2
M  V30 27 C 39.403643 35.075863 61.210675 0
M  V30 28 C 39.050739 27.998480 55.472051 0 CFG=2
M  V30 29 C 39.262614 33.578110 61.135345 0
M  V30 30 C 39.068581 26.771794 54.489010 0
M  V30 31 N 38.051304 27.773408 56.543542 0
M  V30 32 C 41.123828 30.766963 62.810250 0
M  V30 33 C 38.628412 32.682199 55.345821 0
M  V30 34 C 38.968748 25.460070 55.127518 0
M  V30 35 H 38.811988 28.759746 52.182145 0
M  V30 36 H 39.509852 32.937767 58.148197 0
M  V30 37 H 36.966293 33.337993 56.569026 0
M  V30 38 H 38.292043 34.418501 56.567350 0
M  V30 39 H 40.770229 27.472377 61.996308 0
M  V30 40 H 38.576145 36.980029 60.991360 0
M  V30 41 H 37.983546 35.968099 59.770245 0
M  V30 42 H 37.364417 35.737766 62.777948 0
M  V30 43 H 36.445876 36.719951 61.703412 0
M  V30 44 H 37.476490 34.370418 58.860064 0
M  V30 45 H 36.567974 32.946614 58.852966 0
M  V30 46 H 41.783921 28.927729 63.731237 0
M  V30 47 H 38.488666 30.876108 53.417232 0
M  V30 48 H 39.204055 29.656944 57.086022 0
M  V30 49 H 40.063355 31.083667 57.014389 0
M  V30 50 H 39.353746 30.925613 59.916831 0
M  V30 51 H 38.355032 24.434432 56.891125 0
M  V30 52 H 38.307637 30.851140 58.738991 0
M  V30 53 H 37.488085 26.423362 58.030192 0
M  V30 54 H 38.638025 28.768754 59.193915 0
M  V30 55 H 40.173212 27.913671 59.071044 0
M  V30 56 H 38.912364 27.346676 60.167727 0
M  V30 57 H 35.262724 34.607772 62.136913 0
M  V30 58 H 35.644434 34.763615 60.443992 0
M  V30 59 H 35.083249 32.283814 60.334841 0
M  V30 60 H 35.996941 31.127568 61.292111 0
M  V30 61 H 34.849654 32.204931 62.059886 0
M  V30 62 H 37.089806 33.005272 62.493246 0
M  V30 63 H 41.099065 33.374321 62.147035 0
M  V30 64 H 37.928218 31.940373 60.608859 0
M  V30 65 H 40.053744 28.125640 55.883574 0
M  V30 66 H 41.568761 31.396487 63.568240 0
M  V30 67 H 39.640797 33.055155 55.228417 0
M  V30 68 H 38.068798 32.957277 54.450972 0
M  V30 69 H 39.288621 24.599374 54.567492 0
M  V30 END ATOM
M  V30 BEGIN BOND
M  V30 1 1 4 3
M  V30 2 1 6 5
M  V30 3 1 8 7
M  V30 4 1 9 3
M  V30 5 2 10 6
M  V30 6 2 13 12
M  V30 7 1 14 13
M  V30 8 2 15 2
M  V30 9 1 15 12
M  V30 10 1 16 1
M  V30 11 2 16 5
M  V30 12 1 17 2
M  V30 13 1 19 3
M  V30 14 1 19 14
M  V30 15 1 20 18
M  V30 16 1 21 5
M  V30 17 1 22 8
M  V30 18 1 24 22
M  V30 19 1 24 23
M  V30 20 1 25 1
M  V30 21 1 26 9
M  V30 22 1 26 24
M  V30 23 1 27 7
M  V30 24 2 27 11
M  V30 25 1 28 15
M  V30 26 2 29 25
M  V30 27 1 29 26
M  V30 28 1 29 27
M  V30 29 2 30 17
M  V30 30 1 30 28
M  V30 31 2 31 20
M  V30 32 1 31 28
M  V30 33 2 32 1
M  V30 34 1 32 10
M  V30 35 1 33 4
M  V30 36 1 33 13
M  V30 37 2 34 18
M  V30 38 1 34 30
M  V30 39 1 35 2
M  V30 40 1 3 36 CFG=1
M  V30 41 1 37 4
M  V30 42 1 38 4
M  V30 43 1 39 6
M  V30 44 1 40 7
M  V30 45 1 41 7
M  V30 46 1 42 8
M  V30 47 1 43 8
M  V30 48 1 44 9
M  V30 49 1 45 9
M  V30 50 1 46 10
M  V30 51 1 47 12
M  V30 52 1 48 14
M  V30 53 1 49 14
M  V30 54 1 50 16
M  V30 55 1 51 18
M  V30 56 1 52 19
M  V30 57 1 53 20
M  V30 58 1 54 21
M  V30 59 1 55 21
M  V30 60 1 56 21
M  V30 61 1 57 22
M  V30 62 1 58 22
M  V30 63 1 59 23
M  V30 64 1 60 23
M  V30 65 1 61 23
M  V30 66 1 24 62 CFG=1
M  V30 67 1 63 25
M  V30 68 1 26 64 CFG=3
M  V30 69 1 28 65 CFG=1
M  V30 70 1 66 32
M  V30 71 1 67 33
M  V30 72 1 68 33
M  V30 73 1 69 34
M  V30 END BOND
M  V30 END CTAB
M  END
>  <i_epik_Tot_Q>  (1) 
0

>  <i_epik_Tot_abs_Q>  (1) 
0

>  <i_i_glide_confnum>  (1) 
16

>  <i_i_glide_lignum>  (1) 
39

>  <i_i_glide_posenum>  (1) 
181

>  <i_i_glide_rotatable_bonds>  (1) 
4

>  <i_lp_mmshare_version>  (1) 
72125

>  <i_m_source_file_index>  (1) 
17

>  <i_f3d_flags>  (1) 
0

>  <num_sample>  (1) 
100

>  <b_lp_Chiralities_Consistent>  (1) 
1

>  <r_epik_Charging_Adjusted_Penalty>  (1) 
0.56391873878667209

>  <r_epik_Ionization_Penalty>  (1) 
0.56391873878667209

>  <r_epik_Ionization_Penalty_Charging>  (1) 
0

>  <r_epik_Ionization_Penalty_Neutral>  (1) 
0.56391873878667209

>  <r_epik_State_Penalty>  (1) 
0.56391873878667209

>  <r_glide_ring_energy>  (1) 
0

>  <r_i_docking_score>  (1) 
-6.5382130147490907

>  <r_i_glide_ecoul>  (1) 
1.5688576868828963

>  <r_i_glide_eff_state_penalty>  (1) 
0.56391873878667209

>  <r_i_glide_einternal>  (1) 
9.5472329262802731

>  <r_i_glide_emodel>  (1) 
-47.78108377693227

>  <r_i_glide_emodel_strain>  (1) 
1.9068540650820864

>  <r_i_glide_energy>  (1) 
-39.985279804406183

>  <r_i_glide_erotb>  (1) 
0.29265828080580603

>  <r_i_glide_esite>  (1) 
0

>  <r_i_glide_evdw>  (1) 
-41.554137491289076

>  <r_i_glide_gscore>  (1) 
-7.1021317535357626

>  <r_i_glide_gscore_strain>  (1) 
0

>  <r_i_glide_hbond>  (1) 
0

>  <r_i_glide_ligand_efficiency>  (1) 
-0.19230038278673797

>  <r_i_glide_ligand_efficiency_ln>  (1) 
-1.444474645621282

>  <r_i_glide_ligand_efficiency_sa>  (1) 
-0.62297858946609375

>  <r_i_glide_lipo>  (1) 
-3.3351389806216458

>  <r_i_glide_metal>  (1) 
-0

>  <r_i_glide_rewards>  (1) 
-2.2172728321879043

>  <r_lp_Energy>  (1) 
57.867013

>  <s_epik_Chemistry_Notes>  (1) 
This compound has an imine and may undergo hydrolysis.

>  <s_epik_cmdline>  (1) 
J2VwaWtfcHl0aG9uJywgJy1waHQnLCAnMS4wJywgJy1waCcsICc3LjQnLCAnLXRuJywgJzgnLCAnLW1hJywgJzUwMCcsICctaW1hZScsICc8aW5maWxlLm1hZT4nLCAnLW9tYWUnLCAnPG91dGZpbGUubWFlPic=

>  <s_epik_input>  (1) 
W2NIXTFbY0hdW2NIXWMoW0NIM10pW2NIXWMxL1tDSF09QyhDKD1PKVtDSDJdW0NIMl1bQ0gyXVtDQEhdMltDSDNdKVxbQ0BASF0yW0NIMl1bQ0BASF0zW0NIMl1bQ0gyXUMoXFtDSDJdW05IXTMpPVtDSF1cQzQ9W0NIXU49QyhbQ0BASF00NSlbQ0hdPVtDSF1bQ0hdPU41

>  <s_glide_docking_method>  (1) 
confgen

>  <s_i_glide_gridfile>  (1) 
gpcr_5ht2c_6bqh_protein_autoprepared_prepared

>  <s_lp_Force_Field>  (1) 
S-OPLS

>  <s_lp_Variant>  (1) 
DiffSBDD_16-7

>  <s_m_source_file>  (1) 
generated_GPCR_5HT2C_ligand_DiffSBDD_2026-06-23_prepared.sdf

>  <GenAI_Model>  (1) 
DiffSBDD

>  <Protein>  (1) 
GPCR_5HT2C

$$$$
DiffSBDD_53
     RDKit          3D

  0  0  0  0  0  0  0  0  0  0999 V3000
M  V30 BEGIN CTAB
M  V30 COUNTS 82 86 0 0 1
M  V30 BEGIN ATOM
M  V30 1 C 39.024693 30.806639 56.582733 0
M  V30 2 C 37.081636 35.939769 62.239757 0
M  V30 3 C 40.798982 33.445817 64.394209 0
M  V30 4 C 38.451380 31.887278 57.507891 0
M  V30 5 C 39.901054 34.847004 61.721673 0
M  V30 6 C 37.238266 26.227706 55.258768 0
M  V30 7 C 39.446105 27.283797 59.088443 0
M  V30 8 N 39.375947 29.651278 57.409628 0
M  V30 9 N 40.889409 36.138402 66.378508 0 CHG=1
M  V30 10 C 36.704400 37.292673 59.653507 0
M  V30 11 C 40.020864 28.487155 56.795976 0 CFG=1
M  V30 12 N 37.270970 31.369321 58.224540 0 CHG=1
M  V30 13 C 39.564283 33.645439 62.203800 0
M  V30 14 C 39.027605 35.475850 60.684038 0
M  V30 15 C 40.396648 27.561467 57.936699 0 CFG=1
M  V30 16 C 37.392010 33.665944 61.046296 0 CFG=1
M  V30 17 C 39.160510 27.752348 55.749137 0 CFG=2
M  V30 18 C 41.826072 35.099473 65.903753 0
M  V30 19 O 41.737414 27.730664 58.347893 0
M  V30 20 C 37.188570 31.768106 59.741729 0
M  V30 21 C 37.125436 37.465400 62.173488 0
M  V30 22 C 36.395168 38.052777 60.965382 0
M  V30 23 C 37.549819 35.224277 60.944966 0
M  V30 24 O 37.398218 33.140350 59.760035 0
M  V30 25 C 36.670628 35.759732 59.791851 0
M  V30 26 C 38.129060 26.802458 56.373271 0 CFG=2
M  V30 27 O 40.001937 26.930562 54.964824 0
M  V30 28 C 41.728695 35.497752 63.368655 0
M  V30 29 N 38.827443 25.725148 57.131932 0 CFG=2 CHG=1
M  V30 30 O 38.397835 33.025458 61.810363 0
M  V30 31 C 37.917989 24.663964 57.623342 0
M  V30 32 C 39.838639 26.160020 58.146091 0 CFG=2
M  V30 33 C 41.089756 35.580442 62.165297 0
M  V30 34 C 40.380606 32.816901 63.124320 0
M  V30 35 C 41.416632 34.632019 64.519906 0
M  V30 36 H 39.908797 31.201506 56.076886 0
M  V30 37 H 38.301022 30.551503 55.807022 0
M  V30 38 H 36.093626 35.599909 62.558358 0
M  V30 39 H 37.790490 35.738809 63.028923 0
M  V30 40 H 40.602338 32.860782 65.281505 0
M  V30 41 H 39.207821 32.209354 58.223267 0
M  V30 42 H 38.155756 32.771006 56.941335 0
M  V30 43 H 36.851573 27.010124 54.603757 0
M  V30 44 H 37.779459 25.522103 54.629235 0
M  V30 45 H 36.377798 25.708804 55.675599 0
M  V30 46 H 39.887236 27.340116 60.083887 0
M  V30 47 H 38.435156 27.678486 59.029468 0
M  V30 48 H 39.983619 29.957516 58.166958 0
M  V30 49 H 41.087733 36.375299 67.339530 0
M  V30 50 H 41.021585 36.964232 65.808740 0
M  V30 51 H 37.673242 37.610148 59.266172 0
M  V30 52 H 35.994822 37.540368 58.869560 0
M  V30 53 H 40.933303 28.817589 56.298399 0
M  V30 54 H 36.445139 31.701080 57.694461 0
M  V30 55 H 39.253514 36.535257 60.607964 0
M  V30 56 H 39.324589 34.981757 59.766383 0
M  V30 57 H 36.429749 33.417676 61.498977 0
M  V30 58 H 38.678191 28.467974 55.084389 0
M  V30 59 H 41.848683 34.269334 66.611793 0
M  V30 60 H 42.830671 35.517406 65.857316 0
M  V30 61 H 41.937230 27.138391 59.059082 0
M  V30 62 H 36.206919 31.503348 60.136999 0
M  V30 63 H 37.967892 31.219199 60.275335 0
M  V30 64 H 38.169422 37.768210 62.144715 0
M  V30 65 H 36.728780 37.878246 63.100368 0
M  V30 66 H 36.724653 39.087689 60.891374 0
M  V30 67 H 35.322487 38.139267 61.148027 0
M  V30 68 H 36.975258 35.331303 58.837044 0
M  V30 69 H 35.645160 35.428809 59.933545 0
M  V30 70 H 37.486056 27.365991 57.048690 0
M  V30 71 H 40.679509 27.463048 54.583428 0
M  V30 72 H 42.538726 36.199565 63.512960 0
M  V30 73 H 37.144984 25.072832 58.267767 0
M  V30 74 H 37.414465 24.155393 56.803144 0
M  V30 75 H 38.444105 23.888677 58.166548 0
M  V30 76 H 40.479342 25.356231 58.499411 0
M  V30 77 H 41.459719 36.335153 61.490690 0
M  V30 78 H 39.816335 31.911692 63.360181 0
M  V30 79 H 41.268465 32.488370 62.585395 0
M  V30 80 H 39.393848 25.288346 56.416136 0
M  V30 81 H 39.935111 35.813024 66.295626 0
M  V30 82 H 37.293364 30.363931 58.134269 0
M  V30 END ATOM
M  V30 BEGIN BOND
M  V30 1 1 4 1
M  V30 2 1 8 1
M  V30 3 1 11 8
M  V30 4 1 12 4
M  V30 5 2 13 5
M  V30 6 1 14 5
M  V30 7 1 15 7
M  V30 8 1 15 11
M  V30 9 1 17 11
M  V30 10 1 18 9
M  V30 11 1 15 19 CFG=1
M  V30 12 1 20 12
M  V30 13 1 21 2
M  V30 14 1 22 10
M  V30 15 1 22 21
M  V30 16 1 23 2
M  V30 17 1 23 14
M  V30 18 1 23 16
M  V30 19 1 24 16
M  V30 20 1 24 20
M  V30 21 1 25 10
M  V30 22 1 25 23
M  V30 23 1 26 6
M  V30 24 1 26 17
M  V30 25 1 27 17
M  V30 26 1 29 26
M  V30 27 1 30 13
M  V30 28 1 30 16
M  V30 29 1 31 29
M  V30 30 1 32 7
M  V30 31 1 32 15
M  V30 32 1 32 29
M  V30 33 1 33 5
M  V30 34 2 33 28
M  V30 35 1 34 3
M  V30 36 1 34 13
M  V30 37 2 35 3
M  V30 38 1 35 18
M  V30 39 1 35 28
M  V30 40 1 36 1
M  V30 41 1 37 1
M  V30 42 1 38 2
M  V30 43 1 39 2
M  V30 44 1 40 3
M  V30 45 1 41 4
M  V30 46 1 42 4
M  V30 47 1 43 6
M  V30 48 1 44 6
M  V30 49 1 45 6
M  V30 50 1 46 7
M  V30 51 1 47 7
M  V30 52 1 48 8
M  V30 53 1 49 9
M  V30 54 1 50 9
M  V30 55 1 51 10
M  V30 56 1 52 10
M  V30 57 1 11 53 CFG=3
M  V30 58 1 54 12
M  V30 59 1 55 14
M  V30 60 1 56 14
M  V30 61 1 16 57 CFG=1
M  V30 62 1 17 58 CFG=3
M  V30 63 1 59 18
M  V30 64 1 60 18
M  V30 65 1 61 19
M  V30 66 1 62 20
M  V30 67 1 63 20
M  V30 68 1 64 21
M  V30 69 1 65 21
M  V30 70 1 66 22
M  V30 71 1 67 22
M  V30 72 1 68 25
M  V30 73 1 69 25
M  V30 74 1 26 70 CFG=1
M  V30 75 1 71 27
M  V30 76 1 72 28
M  V30 77 1 73 31
M  V30 78 1 74 31
M  V30 79 1 75 31
M  V30 80 1 32 76 CFG=1
M  V30 81 1 77 33
M  V30 82 1 78 34
M  V30 83 1 79 34
M  V30 84 1 29 80 CFG=3
M  V30 85 1 81 9
M  V30 86 1 82 12
M  V30 END BOND
M  V30 END CTAB
M  END
>  <i_epik_Tot_Q>  (1) 
3

>  <i_epik_Tot_abs_Q>  (1) 
3

>  <i_i_glide_confnum>  (1) 
469

>  <i_i_glide_lignum>  (1) 
113

>  <i_i_glide_posenum>  (1) 
146

>  <i_i_glide_rotatable_bonds>  (1) 
10

>  <i_lp_mmshare_version>  (1) 
72125

>  <i_m_source_file_index>  (1) 
54

>  <i_f3d_flags>  (1) 
0

>  <num_sample>  (1) 
100

>  <b_lp_Chiralities_Consistent>  (1) 
1

>  <r_epik_Charging_Adjusted_Penalty>  (1) 
1.5449594399157651

>  <r_epik_Ionization_Penalty>  (1) 
0.47240059175592303

>  <r_epik_Ionization_Penalty_Charging>  (1) 
0.40568266018177357

>  <r_epik_Ionization_Penalty_Neutral>  (1) 
0.066717931574149458

>  <r_epik_State_Penalty>  (1) 
1.1392767797339916

>  <r_glide_ring_energy>  (1) 
0.00062895299044794274

>  <r_i_docking_score>  (1) 
-6.5366035137976368

>  <r_i_glide_ecoul>  (1) 
-8.6693235927398895

>  <r_i_glide_eff_state_penalty>  (1) 
1.1392767797339916

>  <r_i_glide_einternal>  (1) 
8.1148742679155905

>  <r_i_glide_emodel>  (1) 
-56.326211411014107

>  <r_i_glide_emodel_strain>  (1) 
1.909201149734443

>  <r_i_glide_energy>  (1) 
-42.924957912890108

>  <r_i_glide_erotb>  (1) 
0.58947078011706677

>  <r_i_glide_esite>  (1) 
-0.15490176758780438

>  <r_i_glide_evdw>  (1) 
-34.255634320150214

>  <r_i_glide_gscore>  (1) 
-7.6758802935316286

>  <r_i_glide_gscore_strain>  (1) 
0

>  <r_i_glide_hbond>  (1) 
-0.11564176496474171

>  <r_i_glide_ligand_efficiency>  (1) 
-0.1867601003942182

>  <r_i_glide_ligand_efficiency_ln>  (1) 
-1.4349295433772922

>  <r_i_glide_ligand_efficiency_sa>  (1) 
-0.610904672486966

>  <r_i_glide_lipo>  (1) 
-4.2938041374782889

>  <r_i_glide_metal>  (1) 
-0

>  <r_i_glide_rewards>  (1) 
-0.68782314869936589

>  <r_lp_Energy>  (1) 
57.515115999999999

>  <s_epik_Chemistry_Notes>  (1) 
This compound contains an acetal/aminal-like group ( X-CH(R)-Y where X, Y are N, S, or O) that may be acid/base labile, releasing an aldehyde.

>  <s_epik_cmdline>  (1) 
J2VwaWtfcHl0aG9uJywgJy1waHQnLCAnMS4wJywgJy1waCcsICc3LjQnLCAnLXRuJywgJzgnLCAnLW1hJywgJzUwMCcsICctaW1hZScsICc8aW5maWxlLm1hZT4nLCAnLW9tYWUnLCAnPG91dGZpbGUubWFlPic=

>  <s_epik_input>  (1) 
W09IXVtDQEBdMTJbQ0BASF0oW0NIMl0xKU4oW0NIM10pW0NASF0oW0NIM10pW0NASF0oW09IXSlbQ0BIXTJbTkhdW0NIMl1bQ0gyXVtOSF1bQ0gyXU9bQ0BIXTNPQyhbQ0gyXVtDSF09QyhbQ0gyXVtOSDJdKVtDSF09W0NIXTQpPUM0W0NIMl1DMzVbQ0gyXVtDSDJdW0NIMl1bQ0gyXVtDSDJdNQ==

>  <s_glide_docking_method>  (1) 
confgen

>  <s_i_glide_gridfile>  (1) 
gpcr_5ht2c_6bqh_protein_autoprepared_prepared

>  <s_lp_Force_Field>  (1) 
S-OPLS

>  <s_lp_Variant>  (1) 
DiffSBDD_53-5

>  <s_m_source_file>  (1) 
generated_GPCR_5HT2C_ligand_DiffSBDD_2026-06-23_prepared.sdf

>  <GenAI_Model>  (1) 
DiffSBDD

>  <Protein>  (1) 
GPCR_5HT2C

$$$$
DiffSBDD_83
     RDKit          3D

  0  0  0  0  0  0  0  0  0  0999 V3000
M  V30 BEGIN CTAB
M  V30 COUNTS 54 55 0 0 1
M  V30 BEGIN ATOM
M  V30 1 C 40.845820 34.733200 62.636820 0
M  V30 2 C 38.717216 31.670456 56.869989 0
M  V30 3 N 38.467085 32.762627 56.142143 0
M  V30 4 O 38.179448 26.051506 54.167764 0
M  V30 5 O 41.635650 35.101209 63.705568 0
M  V30 6 C 38.548890 35.145957 61.688484 0
M  V30 7 C 37.187905 35.821938 61.732306 0
M  V30 8 C 38.108243 25.625184 56.338910 0
M  V30 9 C 39.645135 27.264047 51.774309 0
M  V30 10 C 39.484766 35.389931 62.651072 0
M  V30 11 C 39.227821 30.429385 56.192317 0
M  V30 12 C 37.618376 34.011974 59.495945 0
M  V30 13 N 38.045141 33.651864 57.054599 0
M  V30 14 O 41.013603 35.737755 64.863567 0
M  V30 15 C 38.505808 28.444388 54.652848 0 CFG=1
M  V30 16 C 39.245139 30.140289 52.862041 0
M  V30 17 C 38.392794 25.194544 55.163266 0
M  V30 18 O 41.231958 33.955836 61.767764 0
M  V30 19 C 37.645615 27.176585 54.917539 0 CFG=2
M  V30 20 C 38.445137 31.875079 58.264191 0
M  V30 21 O 37.645140 26.874215 56.349591 0
M  V30 22 C 38.316655 27.954863 52.027945 0
M  V30 23 C 38.297019 28.968831 53.190623 0 CFG=1
M  V30 24 C 38.029153 33.169944 58.330411 0
M  V30 25 Cl 38.298210 24.679232 57.767483 0
M  V30 26 C 38.778788 34.189958 60.503544 0
M  V30 27 C 38.077628 29.557130 55.664380 0
M  V30 28 H 37.773499 34.590130 56.789581 0
M  V30 29 H 37.039554 36.459983 60.860972 0
M  V30 30 H 36.390951 35.079291 61.770087 0
M  V30 31 H 37.089117 36.449740 62.618493 0
M  V30 32 H 39.548558 26.537760 50.967796 0
M  V30 33 H 40.405792 27.985676 51.474286 0
M  V30 34 H 40.014350 26.739199 52.654301 0
M  V30 35 H 39.251332 36.072997 63.450160 0
M  V30 36 H 39.912411 30.711225 55.394696 0
M  V30 37 H 39.826290 29.844967 56.891214 0
M  V30 38 H 36.762140 33.546972 59.985282 0
M  V30 39 H 37.277230 34.980380 59.128910 0
M  V30 40 H 41.258041 36.648668 64.726795 0
M  V30 41 H 39.545102 28.160731 54.823916 0
M  V30 42 H 40.274194 29.918019 53.139347 0
M  V30 43 H 39.251890 30.364248 51.796352 0
M  V30 44 H 38.946047 31.055370 53.374068 0
M  V30 45 H 38.777838 24.230664 54.867348 0
M  V30 46 H 36.625002 27.337778 54.567752 0
M  V30 47 H 38.554442 31.179252 59.081636 0
M  V30 48 H 37.543886 27.207604 52.167788 0
M  V30 49 H 38.043697 28.468011 51.106262 0
M  V30 50 H 37.274442 29.337770 53.156426 0
M  V30 51 H 39.642903 34.550173 59.943718 0
M  V30 52 H 39.029930 33.203162 60.893855 0
M  V30 53 H 37.563197 29.164655 56.539490 0
M  V30 54 H 37.329431 30.201553 55.199496 0
M  V30 END ATOM
M  V30 BEGIN BOND
M  V30 1 2 3 2
M  V30 2 1 5 1
M  V30 3 1 7 6
M  V30 4 1 10 1
M  V30 5 2 10 6
M  V30 6 1 11 2
M  V30 7 1 13 3
M  V30 8 1 14 5
M  V30 9 1 17 4
M  V30 10 2 17 8
M  V30 11 2 18 1
M  V30 12 1 19 4
M  V30 13 1 19 15
M  V30 14 1 20 2
M  V30 15 1 21 8
M  V30 16 1 21 19
M  V30 17 1 22 9
M  V30 18 1 23 15
M  V30 19 1 23 16
M  V30 20 1 23 22
M  V30 21 1 24 12
M  V30 22 1 24 13
M  V30 23 2 24 20
M  V30 24 1 25 8
M  V30 25 1 26 6
M  V30 26 1 26 12
M  V30 27 1 27 11
M  V30 28 1 27 15
M  V30 29 1 28 13
M  V30 30 1 29 7
M  V30 31 1 30 7
M  V30 32 1 31 7
M  V30 33 1 32 9
M  V30 34 1 33 9
M  V30 35 1 34 9
M  V30 36 1 35 10
M  V30 37 1 36 11
M  V30 38 1 37 11
M  V30 39 1 38 12
M  V30 40 1 39 12
M  V30 41 1 40 14
M  V30 42 1 15 41 CFG=3
M  V30 43 1 42 16
M  V30 44 1 43 16
M  V30 45 1 44 16
M  V30 46 1 45 17
M  V30 47 1 19 46 CFG=3
M  V30 48 1 47 20
M  V30 49 1 48 22
M  V30 50 1 49 22
M  V30 51 1 23 50 CFG=1
M  V30 52 1 51 26
M  V30 53 1 52 26
M  V30 54 1 53 27
M  V30 55 1 54 27
M  V30 END BOND
M  V30 END CTAB
M  END
>  <i_epik_Tot_Q>  (1) 
0

>  <i_epik_Tot_abs_Q>  (1) 
0

>  <i_i_glide_confnum>  (1) 
888

>  <i_i_glide_lignum>  (1) 
196

>  <i_i_glide_posenum>  (1) 
287

>  <i_i_glide_rotatable_bonds>  (1) 
12

>  <i_lp_mmshare_version>  (1) 
72125

>  <i_m_source_file_index>  (1) 
84

>  <i_f3d_flags>  (1) 
0

>  <num_sample>  (1) 
100

>  <b_lp_Chiralities_Consistent>  (1) 
1

>  <r_epik_Charging_Adjusted_Penalty>  (1) 
0.41067983895260396

>  <r_epik_Ionization_Penalty>  (1) 
0.00090540554532319911

>  <r_epik_Ionization_Penalty_Charging>  (1) 
0

>  <r_epik_Ionization_Penalty_Neutral>  (1) 
0.00090540554532319911

>  <r_epik_State_Penalty>  (1) 
0.41067983895260396

>  <r_glide_ring_energy>  (1) 
0

>  <r_i_docking_score>  (1) 
-6.5335682742047485

>  <r_i_glide_ecoul>  (1) 
-4.903901901945809

>  <r_i_glide_eff_state_penalty>  (1) 
0.41067983895260396

>  <r_i_glide_einternal>  (1) 
10.053722868914878

>  <r_i_glide_emodel>  (1) 
-56.746778611185533

>  <r_i_glide_emodel_strain>  (1) 
0.50302973341137402

>  <r_i_glide_energy>  (1) 
-44.171098850714905

>  <r_i_glide_erotb>  (1) 
1.1080255732668134

>  <r_i_glide_esite>  (1) 
-0.10407424329373774

>  <r_i_glide_evdw>  (1) 
-39.267196948769097

>  <r_i_glide_gscore>  (1) 
-6.9442481131573528

>  <r_i_glide_gscore_strain>  (1) 
0

>  <r_i_glide_hbond>  (1) 
-0.49582965586029043

>  <r_i_glide_ligand_efficiency>  (1) 
-0.24198401015573143

>  <r_i_glide_ligand_efficiency_ln>  (1) 
-1.520906979943536

>  <r_i_glide_ligand_efficiency_sa>  (1) 
-0.72595203046719448

>  <r_i_glide_lipo>  (1) 
-3.0779203661195527

>  <r_i_glide_metal>  (1) 
-0

>  <r_i_glide_rewards>  (1) 
-1.6755042884202589

>  <r_lp_Energy>  (1) 
14.869823999999999

>  <r_lp_tautomer_probability>  (1) 
0.5

>  <s_epik_Chemistry_Notes>  (1) 
This compound contains an acetal/aminal-like group ( X-CH(R)-Y where X, Y are N, S, or O) that may be acid/base labile, releasing an aldehyde.

>  <s_epik_cmdline>  (1) 
J2VwaWtfcHl0aG9uJywgJy1waHQnLCAnMS4wJywgJy1waCcsICc3LjQnLCAnLXRuJywgJzgnLCAnLW1hJywgJzUwMCcsICctaW1hZScsICc8aW5maWxlLm1hZT4nLCAnLW9tYWUnLCAnPG91dGZpbGUubWFlPic=

>  <s_epik_input>  (1) 
W09IXU9DKD1PKVxbQ0hdPUMoXFtDSDNdKVtDSDJdW0NIMl1jKFtjSF0xKW5bbkhdYzFbQ0gyXVtDSDJdW0NASF0oW0NAQEhdKFtDSDNdKVtDSDJdW0NIM10pW0NAQEhdKE8yKU9bQ0hdPUMyQ2w=

>  <s_glide_docking_method>  (1) 
confgen

>  <s_i_glide_gridfile>  (1) 
gpcr_5ht2c_6bqh_protein_autoprepared_prepared

>  <s_lp_Force_Field>  (1) 
S-OPLS

>  <s_lp_Variant>  (1) 
DiffSBDD_83-7

>  <s_m_source_file>  (1) 
generated_GPCR_5HT2C_ligand_DiffSBDD_2026-06-23_prepared.sdf

>  <GenAI_Model>  (1) 
DiffSBDD

>  <Protein>  (1) 
GPCR_5HT2C

$$$$
DiffSBDD_60
     RDKit          3D

  0  0  0  0  0  0  0  0  0  0999 V3000
M  V30 BEGIN CTAB
M  V30 COUNTS 34 34 0 0 1
M  V30 BEGIN ATOM
M  V30 1 C 39.824913 29.616737 50.736407 0 CFG=2
M  V30 2 C 38.208117 27.222701 57.803923 0
M  V30 3 C 39.896474 28.174348 51.187410 0
M  V30 4 C 38.897334 28.176285 55.067989 0 CFG=2
M  V30 5 S 38.445058 24.538041 57.088308 0
M  V30 6 C 38.325707 29.137233 56.128883 0
M  V30 7 C 39.323568 27.703927 52.307167 0
M  V30 8 C 38.833898 26.285752 56.759939 0 CFG=1
M  V30 9 S 38.394249 28.725373 53.414169 0
M  V30 10 O 40.045107 29.703180 49.367677 0
M  V30 11 C 38.454216 26.728117 55.336996 0
M  V30 12 C 40.845160 30.536126 51.367765 0
M  V30 13 C 38.645464 28.677535 57.561724 0
M  V30 14 C 36.812098 24.314847 56.334778 0
M  V30 15 H 38.845116 30.010098 50.943996 0
M  V30 16 H 38.507626 26.915445 58.806543 0
M  V30 17 H 37.120897 27.150888 57.766947 0
M  V30 18 H 40.445165 27.500693 50.551707 0
M  V30 19 H 39.985938 28.224453 55.115000 0
M  V30 20 H 38.726552 30.139108 55.968674 0
M  V30 21 H 37.245137 29.226674 56.008162 0
M  V30 22 H 39.413044 26.662779 52.575636 0
M  V30 23 H 39.918113 26.360335 56.859623 0
M  V30 24 H 39.184031 29.738161 48.960138 0
M  V30 25 H 37.375716 26.667820 55.192313 0
M  V30 26 H 38.909980 26.043740 54.623079 0
M  V30 27 H 40.845093 30.429278 52.450563 0
M  V30 28 H 41.842032 30.337970 50.967724 0
M  V30 29 H 40.596245 31.571250 51.146133 0
M  V30 30 H 39.717418 28.769648 57.740556 0
M  V30 31 H 38.157714 29.337697 58.279617 0
M  V30 32 H 36.446131 23.312685 56.557617 0
M  V30 33 H 36.103684 25.046247 56.724280 0
M  V30 34 H 36.860824 24.412784 55.250346 0
M  V30 END ATOM
M  V30 BEGIN BOND
M  V30 1 1 3 1
M  V30 2 1 6 4
M  V30 3 2 7 3
M  V30 4 1 8 2
M  V30 5 1 8 5
M  V30 6 1 9 4
M  V30 7 1 9 7
M  V30 8 1 10 1
M  V30 9 1 11 4
M  V30 10 1 11 8
M  V30 11 1 12 1
M  V30 12 1 13 2
M  V30 13 1 13 6
M  V30 14 1 14 5
M  V30 15 1 1 15 CFG=3
M  V30 16 1 16 2
M  V30 17 1 17 2
M  V30 18 1 18 3
M  V30 19 1 4 19 CFG=3
M  V30 20 1 20 6
M  V30 21 1 21 6
M  V30 22 1 22 7
M  V30 23 1 8 23 CFG=3
M  V30 24 1 24 10
M  V30 25 1 25 11
M  V30 26 1 26 11
M  V30 27 1 27 12
M  V30 28 1 28 12
M  V30 29 1 29 12
M  V30 30 1 30 13
M  V30 31 1 31 13
M  V30 32 1 32 14
M  V30 33 1 33 14
M  V30 34 1 34 14
M  V30 END BOND
M  V30 END CTAB
M  END
>  <i_epik_Tot_Q>  (1) 
0

>  <i_epik_Tot_abs_Q>  (1) 
0

>  <i_i_glide_confnum>  (1) 
24

>  <i_i_glide_lignum>  (1) 
133

>  <i_i_glide_posenum>  (1) 
98

>  <i_i_glide_rotatable_bonds>  (1) 
5

>  <i_lp_mmshare_version>  (1) 
72125

>  <i_m_source_file_index>  (1) 
61

>  <i_f3d_flags>  (1) 
0

>  <num_sample>  (1) 
100

>  <b_lp_Chiralities_Consistent>  (1) 
1

>  <r_epik_Charging_Adjusted_Penalty>  (1) 
0

>  <r_epik_Ionization_Penalty>  (1) 
3.7959940703639166e-07

>  <r_epik_Ionization_Penalty_Charging>  (1) 
0

>  <r_epik_Ionization_Penalty_Neutral>  (1) 
3.7959940703639166e-07

>  <r_epik_State_Penalty>  (1) 
-0

>  <r_glide_ring_energy>  (1) 
0

>  <r_i_docking_score>  (1) 
-6.529463936369952

>  <r_i_glide_ecoul>  (1) 
-3.3666135540295161

>  <r_i_glide_eff_state_penalty>  (1) 
-0

>  <r_i_glide_einternal>  (1) 
1.5634214875184616

>  <r_i_glide_emodel>  (1) 
-37.563561498699258

>  <r_i_glide_emodel_strain>  (1) 
1.2356338609546089

>  <r_i_glide_energy>  (1) 
-28.166374386866213

>  <r_i_glide_erotb>  (1) 
0.95139353164667573

>  <r_i_glide_esite>  (1) 
0

>  <r_i_glide_evdw>  (1) 
-24.799760832836697

>  <r_i_glide_gscore>  (1) 
-6.529463936369952

>  <r_i_glide_gscore_strain>  (1) 
0

>  <r_i_glide_hbond>  (1) 
-0.32000000000000001

>  <r_i_glide_ligand_efficiency>  (1) 
-0.46639028116928227

>  <r_i_glide_ligand_efficiency_ln>  (1) 
-1.7942734463763679

>  <r_i_glide_ligand_efficiency_sa>  (1) 
-1.1240669282466562

>  <r_i_glide_lipo>  (1) 
-3.061173091510637

>  <r_i_glide_metal>  (1) 
-0

>  <r_i_glide_rewards>  (1) 
-2.3547043017597278

>  <r_lp_Energy>  (1) 
9.9139400000000002

>  <r_lp_tautomer_probability>  (1) 
1

>  <s_epik_cmdline>  (1) 
J2VwaWtfcHl0aG9uJywgJy1waHQnLCAnMS4wJywgJy1waCcsICc3LjQnLCAnLXRuJywgJzgnLCAnLW1hJywgJzUwMCcsICctaW1hZScsICc8aW5maWxlLm1hZT4nLCAnLW9tYWUnLCAnPG91dGZpbGUubWFlPic=

>  <s_epik_input>  (1) 
W09IXVtDQEhdKFtDSDNdKS9bQ0hdPVtDSF1cU1tDQEhdMVtDSDJdW0NIMl1bQ0gyXVtDQEhdKFtDSDJdMSlTW0NIM10=

>  <s_glide_docking_method>  (1) 
confgen

>  <s_i_glide_gridfile>  (1) 
gpcr_5ht2c_6bqh_protein_autoprepared_prepared

>  <s_lp_Force_Field>  (1) 
S-OPLS

>  <s_lp_Variant>  (1) 
DiffSBDD_60-2

>  <s_m_source_file>  (1) 
generated_GPCR_5HT2C_ligand_DiffSBDD_2026-06-23_prepared.sdf

>  <GenAI_Model>  (1) 
DiffSBDD

>  <Protein>  (1) 
GPCR_5HT2C

$$$$
DiffSBDD_83
     RDKit          3D

  0  0  0  0  0  0  0  0  0  0999 V3000
M  V30 BEGIN CTAB
M  V30 COUNTS 54 55 0 0 1
M  V30 BEGIN ATOM
M  V30 1 C 38.613547 35.003551 61.102351 0
M  V30 2 C 39.324916 29.356952 57.159495 0
M  V30 3 N 38.494710 30.141338 56.472321 0
M  V30 4 O 38.985101 26.537754 53.262698 0
M  V30 5 O 39.815895 35.634255 61.039535 0
M  V30 6 C 37.675160 32.676873 61.100718 0
M  V30 7 C 36.238976 33.165561 61.295394 0
M  V30 8 C 39.162624 28.731137 53.003920 0
M  V30 9 C 36.445123 23.445525 55.650102 0
M  V30 10 C 38.748569 33.509653 61.017542 0
M  V30 11 C 40.418713 28.620121 56.430116 0
M  V30 12 C 37.070247 30.535542 59.824775 0
M  V30 13 N 37.645137 30.591684 57.399852 0
M  V30 14 O 40.909658 34.992982 61.766923 0
M  V30 15 C 38.599994 26.800505 55.705991 0 CFG=1
M  V30 16 C 38.802885 24.718016 57.235606 0
M  V30 17 C 39.460802 27.562258 52.559804 0
M  V30 18 O 37.545903 35.606081 61.195268 0
M  V30 19 C 38.231858 27.273078 54.259801 0 CFG=1
M  V30 20 C 39.010395 29.338248 58.560169 0
M  V30 21 O 38.409497 28.707177 54.104761 0
M  V30 22 C 36.803560 24.935331 55.726783 0
M  V30 23 C 38.309132 25.263853 55.873572 0 CFG=1
M  V30 24 C 37.915043 30.148337 58.656941 0
M  V30 25 Cl 39.686046 30.190208 52.252019 0
M  V30 26 C 37.838908 31.165932 61.004665 0
M  V30 27 C 40.082559 27.168916 56.021852 0
M  V30 28 H 36.836410 31.183942 57.149087 0
M  V30 29 H 35.559264 32.328747 61.457100 0
M  V30 30 H 36.140114 33.810191 62.167753 0
M  V30 31 H 35.889162 33.700473 60.411352 0
M  V30 32 H 35.398695 23.327635 55.367794 0
M  V30 33 H 37.050764 22.932083 54.903668 0
M  V30 34 H 36.567767 22.937754 56.602698 0
M  V30 35 H 39.736552 33.096066 60.883509 0
M  V30 36 H 40.691594 29.184934 55.538400 0
M  V30 37 H 41.316808 28.581278 57.046566 0
M  V30 38 H 36.560926 29.638674 60.167761 0
M  V30 39 H 36.266055 31.190211 59.486593 0
M  V30 40 H 40.851053 35.434819 62.601598 0
M  V30 41 H 37.936522 27.323418 56.393944 0
M  V30 42 H 38.518598 25.380487 58.053687 0
M  V30 43 H 38.401023 23.737755 57.470687 0
M  V30 44 H 39.884882 24.590106 57.255130 0
M  V30 45 H 40.045137 27.295226 51.695188 0
M  V30 46 H 37.176084 27.123772 54.042136 0
M  V30 47 H 39.502616 28.799987 59.356290 0
M  V30 48 H 36.227067 25.418632 56.516727 0
M  V30 49 H 36.445137 25.337754 54.790475 0
M  V30 50 H 38.846821 24.724730 55.091907 0
M  V30 51 H 38.893105 30.886202 60.977031 0
M  V30 52 H 37.458854 30.754835 61.937801 0
M  V30 53 H 40.748151 26.827407 55.229978 0
M  V30 54 H 40.400905 26.610832 56.896240 0
M  V30 END ATOM
M  V30 BEGIN BOND
M  V30 1 2 3 2
M  V30 2 1 5 1
M  V30 3 1 7 6
M  V30 4 1 10 1
M  V30 5 2 10 6
M  V30 6 1 11 2
M  V30 7 1 13 3
M  V30 8 1 14 5
M  V30 9 1 17 4
M  V30 10 2 17 8
M  V30 11 2 18 1
M  V30 12 1 19 4
M  V30 13 1 19 15
M  V30 14 1 20 2
M  V30 15 1 21 8
M  V30 16 1 21 19
M  V30 17 1 22 9
M  V30 18 1 23 15
M  V30 19 1 23 16
M  V30 20 1 23 22
M  V30 21 1 24 12
M  V30 22 1 24 13
M  V30 23 2 24 20
M  V30 24 1 25 8
M  V30 25 1 26 6
M  V30 26 1 26 12
M  V30 27 1 27 11
M  V30 28 1 27 15
M  V30 29 1 28 13
M  V30 30 1 29 7
M  V30 31 1 30 7
M  V30 32 1 31 7
M  V30 33 1 32 9
M  V30 34 1 33 9
M  V30 35 1 34 9
M  V30 36 1 35 10
M  V30 37 1 36 11
M  V30 38 1 37 11
M  V30 39 1 38 12
M  V30 40 1 39 12
M  V30 41 1 40 14
M  V30 42 1 15 41 CFG=1
M  V30 43 1 42 16
M  V30 44 1 43 16
M  V30 45 1 44 16
M  V30 46 1 45 17
M  V30 47 1 19 46 CFG=3
M  V30 48 1 47 20
M  V30 49 1 48 22
M  V30 50 1 49 22
M  V30 51 1 23 50 CFG=3
M  V30 52 1 51 26
M  V30 53 1 52 26
M  V30 54 1 53 27
M  V30 55 1 54 27
M  V30 END BOND
M  V30 END CTAB
M  END
>  <i_epik_Tot_Q>  (1) 
0

>  <i_epik_Tot_abs_Q>  (1) 
0

>  <i_i_glide_confnum>  (1) 
1701

>  <i_i_glide_lignum>  (1) 
195

>  <i_i_glide_posenum>  (1) 
214

>  <i_i_glide_rotatable_bonds>  (1) 
12

>  <i_lp_mmshare_version>  (1) 
72125

>  <i_m_source_file_index>  (1) 
84

>  <i_f3d_flags>  (1) 
0

>  <num_sample>  (1) 
100

>  <b_lp_Chiralities_Consistent>  (1) 
1

>  <r_epik_Charging_Adjusted_Penalty>  (1) 
0.41067983895260396

>  <r_epik_Ionization_Penalty>  (1) 
0.00090540554532319911

>  <r_epik_Ionization_Penalty_Charging>  (1) 
0

>  <r_epik_Ionization_Penalty_Neutral>  (1) 
0.00090540554532319911

>  <r_epik_State_Penalty>  (1) 
0.41067983895260396

>  <r_glide_ring_energy>  (1) 
0

>  <r_i_docking_score>  (1) 
-6.5293490802413823

>  <r_i_glide_ecoul>  (1) 
-4.407544445861669

>  <r_i_glide_eff_state_penalty>  (1) 
0.41067983895260396

>  <r_i_glide_einternal>  (1) 
21.249337695700028

>  <r_i_glide_emodel>  (1) 
-49.061584737413696

>  <r_i_glide_emodel_strain>  (1) 
1.3349897620799567

>  <r_i_glide_energy>  (1) 
-43.694031539494169

>  <r_i_glide_erotb>  (1) 
1.1080255732668134

>  <r_i_glide_esite>  (1) 
-0.10000000000000001

>  <r_i_glide_evdw>  (1) 
-39.286487093632502

>  <r_i_glide_gscore>  (1) 
-6.9400289191939866

>  <r_i_glide_gscore_strain>  (1) 
0

>  <r_i_glide_hbond>  (1) 
-0.16

>  <r_i_glide_ligand_efficiency>  (1) 
-0.24182774371264379

>  <r_i_glide_ligand_efficiency_ln>  (1) 
-1.519924821147713

>  <r_i_glide_ligand_efficiency_sa>  (1) 
-0.72548323113793156

>  <r_i_glide_lipo>  (1) 
-3.2702776798825934

>  <r_i_glide_metal>  (1) 
-0

>  <r_i_glide_rewards>  (1) 
-1.8923207910173305

>  <r_lp_Energy>  (1) 
13.076443999999999

>  <r_lp_tautomer_probability>  (1) 
0.5

>  <s_epik_Chemistry_Notes>  (1) 
This compound contains an acetal/aminal-like group ( X-CH(R)-Y where X, Y are N, S, or O) that may be acid/base labile, releasing an aldehyde.

>  <s_epik_cmdline>  (1) 
J2VwaWtfcHl0aG9uJywgJy1waHQnLCAnMS4wJywgJy1waCcsICc3LjQnLCAnLXRuJywgJzgnLCAnLW1hJywgJzUwMCcsICctaW1hZScsICc8aW5maWxlLm1hZT4nLCAnLW9tYWUnLCAnPG91dGZpbGUubWFlPic=

>  <s_epik_input>  (1) 
W09IXU9DKD1PKS9bQ0hdPUMoXFtDSDNdKVtDSDJdW0NIMl1jKFtjSF0xKW5bbkhdYzFbQ0gyXVtDSDJdW0NASF0oW0NAQEhdKFtDSDNdKVtDSDJdW0NIM10pW0NAQEhdKE8yKU9bQ0hdPUMyQ2w=

>  <s_glide_docking_method>  (1) 
confgen

>  <s_i_glide_gridfile>  (1) 
gpcr_5ht2c_6bqh_protein_autoprepared_prepared

>  <s_lp_Force_Field>  (1) 
S-OPLS

>  <s_lp_Variant>  (1) 
DiffSBDD_83-6

>  <s_m_source_file>  (1) 
generated_GPCR_5HT2C_ligand_DiffSBDD_2026-06-23_prepared.sdf

>  <GenAI_Model>  (1) 
DiffSBDD

>  <Protein>  (1) 
GPCR_5HT2C

$$$$
DiffSBDD_75
     RDKit          3D

  0  0  0  0  0  0  0  0  0  0999 V3000
M  V30 BEGIN CTAB
M  V30 COUNTS 77 78 0 0 1
M  V30 BEGIN ATOM
M  V30 1 C 38.510622 30.233594 60.055357 0
M  V30 2 C 40.690732 28.550276 61.224709 0
M  V30 3 O 37.283746 33.210764 61.767798 0
M  V30 4 C 38.192833 27.499043 58.193453 0
M  V30 5 C 39.095545 36.284293 62.004331 0 CFG=2
M  V30 6 C 38.644109 30.005101 53.872941 0
M  V30 7 C 38.499980 33.729760 61.266698 0 CFG=2
M  V30 8 C 39.573915 30.822881 53.202434 0
M  V30 9 O 39.645148 38.604563 61.767775 0
M  V30 10 C 36.984650 35.704326 60.516177 0 CFG=1
M  V30 11 O 40.045111 28.924232 50.094753 0
M  V30 12 S 39.539926 31.355877 62.382594 0
M  V30 13 C 37.404186 26.469096 57.367739 0
M  V30 14 C 39.600033 29.266444 51.330727 0
M  V30 15 C 39.683829 33.145358 62.081584 0
M  V30 16 C 38.108195 30.423590 55.225350 0
M  V30 17 C 38.204537 28.803351 53.275682 0
M  V30 18 O 37.644978 37.534105 59.075242 0
M  V30 19 C 36.471595 34.895357 59.301062 0
M  V30 20 C 38.412197 35.278064 61.001461 0 CFG=1
M  V30 21 O 38.086096 25.234449 57.410816 0
M  V30 22 O 40.845304 29.805125 60.577377 0
M  V30 23 O 38.428572 32.213173 57.938117 0
M  V30 24 C 36.333273 29.188613 58.527290 0
M  V30 25 N 37.715892 28.904608 58.056073 0 CFG=1 CHG=1
M  V30 26 C 38.735220 31.070593 57.610095 0
M  V30 27 C 40.045168 30.457920 51.931943 0
M  V30 28 C 39.237564 30.791481 56.198198 0
M  V30 29 C 38.718808 29.869424 58.565796 0 CFG=1
M  V30 30 C 38.685715 28.433941 52.005082 0
M  V30 31 C 37.336316 38.080146 61.378372 0
M  V30 32 C 39.789736 30.737896 60.713004 0 CFG=1
M  V30 33 C 38.817388 36.166732 63.482311 0
M  V30 34 C 36.871303 37.212314 60.210866 0 CFG=2
M  V30 35 C 38.777321 37.737767 61.722478 0
M  V30 36 H 37.719245 30.974635 60.168858 0
M  V30 37 H 38.182014 29.352444 60.594996 0
M  V30 38 H 41.633667 28.008799 61.171278 0
M  V30 39 H 40.430911 28.654550 62.277806 0
M  V30 40 H 39.938036 27.934175 60.739949 0
M  V30 41 H 36.587406 33.500398 61.197509 0
M  V30 42 H 39.221076 27.460842 57.832333 0
M  V30 43 H 38.240091 27.209288 59.240998 0
M  V30 44 H 38.570640 33.284928 60.276856 0
M  V30 45 H 39.910766 31.737598 53.654805 0
M  V30 46 H 37.254191 39.139056 61.134735 0
M  V30 47 H 36.302664 35.514626 61.342128 0
M  V30 48 H 40.519412 29.623097 49.671308 0
M  V30 49 H 36.406134 26.311607 57.767610 0
M  V30 50 H 37.307108 26.786123 56.328031 0
M  V30 51 H 39.733579 33.517779 63.089958 0
M  V30 52 H 40.638725 33.377711 61.608473 0
M  V30 53 H 37.445593 31.280546 55.087846 0
M  V30 54 H 37.477452 29.625305 55.608309 0
M  V30 55 H 37.492855 28.170792 53.785976 0
M  V30 56 H 37.853996 38.456167 59.101405 0
M  V30 57 H 37.180614 34.936443 58.473969 0
M  V30 58 H 36.296263 33.843056 59.516326 0
M  V30 59 H 35.523075 35.296582 58.942313 0
M  V30 60 H 39.056823 35.399851 60.135865 0
M  V30 61 H 37.600643 24.598957 56.905950 0
M  V30 62 H 36.222009 29.247266 59.605839 0
M  V30 63 H 35.981877 30.137721 58.132348 0
M  V30 64 H 35.645162 28.429574 58.193484 0
M  V30 65 H 40.747047 31.097229 51.416928 0
M  V30 66 H 39.968398 29.982279 56.238409 0
M  V30 67 H 39.771255 31.674629 55.847555 0
M  V30 68 H 39.698760 29.402605 58.474928 0
M  V30 69 H 38.344011 27.518110 51.542087 0
M  V30 70 H 36.711842 37.905363 62.254680 0
M  V30 71 H 40.174431 36.181172 61.876064 0
M  V30 72 H 40.095745 31.618884 60.167798 0
M  V30 73 H 39.264674 36.973964 64.068166 0
M  V30 74 H 37.754354 36.137848 63.717470 0
M  V30 75 H 39.339015 35.290570 63.771340 0
M  V30 76 H 35.834155 37.463061 59.989260 0
M  V30 77 H 37.694832 29.059245 57.057928 0
M  V30 END ATOM
M  V30 BEGIN BOND
M  V30 1 1 7 3
M  V30 2 1 8 6
M  V30 3 1 13 4
M  V30 4 1 14 11
M  V30 5 1 15 7
M  V30 6 1 15 12
M  V30 7 1 16 6
M  V30 8 2 17 6
M  V30 9 1 19 10
M  V30 10 1 20 5
M  V30 11 1 20 7
M  V30 12 1 20 10
M  V30 13 1 21 13
M  V30 14 1 22 2
M  V30 15 1 25 4
M  V30 16 1 25 24
M  V30 17 2 26 23
M  V30 18 2 27 8
M  V30 19 1 27 14
M  V30 20 1 28 16
M  V30 21 1 28 26
M  V30 22 1 29 1
M  V30 23 1 29 25
M  V30 24 1 29 26
M  V30 25 2 30 14
M  V30 26 1 30 17
M  V30 27 1 32 1
M  V30 28 1 32 12
M  V30 29 1 32 22
M  V30 30 1 33 5
M  V30 31 1 34 10
M  V30 32 1 34 18
M  V30 33 1 34 31
M  V30 34 1 35 5
M  V30 35 2 35 9
M  V30 36 1 35 31
M  V30 37 1 36 1
M  V30 38 1 37 1
M  V30 39 1 38 2
M  V30 40 1 39 2
M  V30 41 1 40 2
M  V30 42 1 41 3
M  V30 43 1 42 4
M  V30 44 1 43 4
M  V30 45 1 7 44 CFG=3
M  V30 46 1 45 8
M  V30 47 1 46 31
M  V30 48 1 10 47 CFG=1
M  V30 49 1 48 11
M  V30 50 1 49 13
M  V30 51 1 50 13
M  V30 52 1 51 15
M  V30 53 1 52 15
M  V30 54 1 53 16
M  V30 55 1 54 16
M  V30 56 1 55 17
M  V30 57 1 56 18
M  V30 58 1 57 19
M  V30 59 1 58 19
M  V30 60 1 59 19
M  V30 61 1 20 60 CFG=3
M  V30 62 1 61 21
M  V30 63 1 62 24
M  V30 64 1 63 24
M  V30 65 1 64 24
M  V30 66 1 65 27
M  V30 67 1 66 28
M  V30 68 1 67 28
M  V30 69 1 29 68 CFG=1
M  V30 70 1 69 30
M  V30 71 1 70 31
M  V30 72 1 5 71 CFG=1
M  V30 73 1 32 72 CFG=3
M  V30 74 1 73 33
M  V30 75 1 74 33
M  V30 76 1 75 33
M  V30 77 1 34 76 CFG=3
M  V30 78 1 25 77 CFG=3
M  V30 END BOND
M  V30 END CTAB
M  END
>  <i_epik_Tot_Q>  (1) 
1

>  <i_epik_Tot_abs_Q>  (1) 
1

>  <i_i_glide_confnum>  (1) 
1578

>  <i_i_glide_lignum>  (1) 
171

>  <i_i_glide_posenum>  (1) 
154

>  <i_i_glide_rotatable_bonds>  (1) 
18

>  <i_lp_mmshare_version>  (1) 
72125

>  <i_m_source_file_index>  (1) 
76

>  <i_f3d_flags>  (1) 
0

>  <num_sample>  (1) 
100

>  <b_lp_Chiralities_Consistent>  (1) 
1

>  <r_epik_Charging_Adjusted_Penalty>  (1) 
0.52789471212939676

>  <r_epik_Ionization_Penalty>  (1) 
0.26592108790513191

>  <r_epik_Ionization_Penalty_Charging>  (1) 
0.26394735606469838

>  <r_epik_Ionization_Penalty_Neutral>  (1) 
0.0019737318404335234

>  <r_epik_State_Penalty>  (1) 
0.26394735606469838

>  <r_glide_ring_energy>  (1) 
0

>  <r_i_docking_score>  (1) 
-6.5242779761854495

>  <r_i_glide_ecoul>  (1) 
-5.011691281329286

>  <r_i_glide_eff_state_penalty>  (1) 
0.26394735606469838

>  <r_i_glide_einternal>  (1) 
14.47622035278799

>  <r_i_glide_emodel>  (1) 
-55.838802228372153

>  <r_i_glide_emodel_strain>  (1) 
3.8194296979161635

>  <r_i_glide_energy>  (1) 
-40.25003725442842

>  <r_i_glide_erotb>  (1) 
1.0139394581015995

>  <r_i_glide_esite>  (1) 
-0.048825451294765683

>  <r_i_glide_evdw>  (1) 
-35.238345973099136

>  <r_i_glide_gscore>  (1) 
-6.788225332250148

>  <r_i_glide_gscore_strain>  (1) 
0

>  <r_i_glide_hbond>  (1) 
-0.28371434279480534

>  <r_i_glide_ligand_efficiency>  (1) 
-0.18640794217672713

>  <r_i_glide_ligand_efficiency_ln>  (1) 
-1.4322238143208483

>  <r_i_glide_ligand_efficiency_sa>  (1) 
-0.60975273960587484

>  <r_i_glide_lipo>  (1) 
-4.1085899486928614

>  <r_i_glide_metal>  (1) 
-0

>  <r_i_glide_rewards>  (1) 
-0.84736405671496384

>  <r_lp_Energy>  (1) 
30.750938999999999

>  <r_lp_tautomer_probability>  (1) 
0.99989998499911525

>  <s_epik_Chemistry_Notes>  (1) 
This compound contains an acetal/aminal-like group ( X-CH(R)-Y where X, Y are N, S, or O) that may be acid/base labile, releasing an aldehyde.

>  <s_epik_cmdline>  (1) 
J2VwaWtfcHl0aG9uJywgJy1waHQnLCAnMS4wJywgJy1waCcsICc3LjQnLCAnLXRuJywgJzgnLCAnLW1hJywgJzUwMCcsICctaW1hZScsICc8aW5maWxlLm1hZT4nLCAnLW9tYWUnLCAnPG91dGZpbGUubWFlPic=

>  <s_epik_input>  (1) 
W2NIXTFbY0hdYyhbT0hdKVtjSF1bY0hdYzFbQ0gyXVtDSDJdQyg9TylbQ0BIXShOKFtDSDNdKVtDSDJdW0NIMl1bT0hdKVtDSDJdW0NASF0oT1tDSDNdKVNbQ0gyXVtDQEBIXShbT0hdKVtDQEhdMltDQEBIXShbQ0gzXSlbQ0BIXShbT0hdKVtDSDJdQyhbT0hdKT1DMltDSDNd

>  <s_glide_docking_method>  (1) 
confgen

>  <s_i_glide_gridfile>  (1) 
gpcr_5ht2c_6bqh_protein_autoprepared_prepared

>  <s_lp_Force_Field>  (1) 
S-OPLS

>  <s_lp_Variant>  (1) 
DiffSBDD_75-8

>  <s_m_source_file>  (1) 
generated_GPCR_5HT2C_ligand_DiffSBDD_2026-06-23_prepared.sdf

>  <GenAI_Model>  (1) 
DiffSBDD

>  <Protein>  (1) 
GPCR_5HT2C

$$$$
DiffSBDD_18
     RDKit          3D

  0  0  0  0  0  0  0  0  0  0999 V3000
M  V30 BEGIN CTAB
M  V30 COUNTS 77 79 0 0 1
M  V30 BEGIN ATOM
M  V30 1 C 34.045173 32.436413 59.691579 0
M  V30 2 C 38.527811 28.372308 55.059137 0 CFG=2
M  V30 3 C 40.530259 31.724666 62.632250 0
M  V30 4 C 39.911645 32.961562 62.324688 0
M  V30 5 C 38.875284 30.580486 61.250608 0
M  V30 6 O 38.045429 24.223667 55.727623 0
M  V30 7 C 36.348577 34.468546 58.975867 0
M  V30 8 C 40.528951 28.629506 58.037285 0
M  V30 9 C 38.252158 32.702208 55.238206 0
M  V30 10 C 41.173137 34.346670 63.993902 0
M  V30 11 C 37.773834 25.001828 56.665078 0
M  V30 12 C 40.001075 30.538042 62.097414 0
M  V30 13 C 38.227124 33.154468 57.809650 0
M  V30 14 C 39.996069 29.068648 56.924285 0
M  V30 15 C 40.259433 27.243225 58.581090 0
M  V30 16 C 37.245130 35.685060 59.226649 0
M  V30 17 C 35.173567 32.103052 60.697666 0
M  V30 18 C 39.409925 31.887019 55.756383 0 CFG=2
M  V30 19 C 37.789414 27.392409 55.999892 0
M  V30 20 C 39.206739 27.666457 53.871932 0
M  V30 21 C 38.875672 26.642061 58.256590 0
M  V30 22 C 41.698502 35.687799 64.390760 0
M  V30 23 C 39.437567 29.365273 55.774643 0
M  V30 24 C 36.627860 30.162431 58.967772 0
M  V30 25 C 38.592741 26.295709 56.758914 0 CFG=1
M  V30 26 N 41.411810 33.299003 64.799326 0 CHG=1
M  V30 27 C 38.792326 33.005860 61.468632 0
M  V30 28 P 36.790292 31.859467 59.767773 0 CFG=2 CHG=1
M  V30 29 N 39.605004 30.583278 55.129547 0
M  V30 30 O 36.883088 24.831522 57.524088 0 CHG=-1
M  V30 31 C 38.209409 32.161540 56.648185 0 CFG=2
M  V30 32 C 38.263815 31.814318 60.921619 0
M  V30 33 N 36.947153 33.147286 58.567767 0 CFG=1 CHG=1
M  V30 34 N 40.434666 34.246672 62.841229 0
M  V30 35 H 33.204267 32.937724 60.167771 0
M  V30 36 H 34.309758 33.102097 58.885031 0
M  V30 37 H 33.704477 31.546909 59.172573 0
M  V30 38 H 37.738001 28.982487 54.618804 0
M  V30 39 H 41.409406 31.671204 63.241867 0
M  V30 40 H 38.485599 29.661719 60.840345 0
M  V30 41 H 35.602150 34.729391 58.227277 0
M  V30 42 H 35.790204 34.380443 59.899418 0
M  V30 43 H 41.216797 29.241135 58.601530 0
M  V30 44 H 38.398429 33.773432 55.112573 0
M  V30 45 H 37.577629 32.243378 54.516908 0
M  V30 46 H 40.465445 29.588593 62.327204 0
M  V30 47 H 39.070942 32.941325 58.466665 0
M  V30 48 H 38.399834 34.137780 57.384040 0
M  V30 49 H 41.054946 26.574558 58.249500 0
M  V30 50 H 40.347319 27.337201 59.663471 0
M  V30 51 H 36.705753 36.411729 59.835512 0
M  V30 52 H 38.160863 35.453385 59.767760 0
M  V30 53 H 37.468692 36.213385 58.301742 0
M  V30 54 H 34.909189 31.209013 61.263264 0
M  V30 55 H 35.274129 32.897597 61.436063 0
M  V30 56 H 40.347009 32.400187 55.959352 0
M  V30 57 H 37.246147 27.976154 56.741552 0
M  V30 58 H 37.028782 26.926049 55.368650 0
M  V30 59 H 39.608103 28.386375 53.158474 0
M  V30 60 H 40.019268 27.016163 54.197593 0
M  V30 61 H 38.491477 27.043968 53.332031 0
M  V30 62 H 38.094482 27.289489 58.651798 0
M  V30 63 H 38.810869 25.737962 58.863095 0
M  V30 64 H 40.914778 36.256984 64.891228 0
M  V30 65 H 42.547488 35.597425 65.069637 0
M  V30 66 H 42.031396 36.245284 63.515164 0
M  V30 67 H 36.318429 29.418357 59.699441 0
M  V30 68 H 35.886982 30.137486 58.168705 0
M  V30 69 H 37.574388 29.822640 58.549575 0
M  V30 70 H 39.538157 26.093351 56.255937 0
M  V30 71 H 41.952919 33.424732 65.644743 0
M  V30 72 H 38.336950 33.951788 61.232799 0
M  V30 73 H 39.234711 30.583670 54.189259 0
M  V30 74 H 37.599471 31.281133 56.806462 0
M  V30 75 H 40.140600 35.116886 62.419391 0
M  V30 76 H 41.034363 32.390164 64.576494 0
M  V30 77 H 36.286372 32.802920 57.860964 0
M  V30 END ATOM
M  V30 BEGIN BOND
M  V30 1 1 4 3
M  V30 2 2 11 6
M  V30 3 2 12 3
M  V30 4 1 12 5
M  V30 5 2 14 8
M  V30 6 1 15 8
M  V30 7 1 16 7
M  V30 8 1 17 1
M  V30 9 1 18 9
M  V30 10 1 19 2
M  V30 11 1 20 2
M  V30 12 1 21 15
M  V30 13 1 22 10
M  V30 14 1 23 2
M  V30 15 2 23 14
M  V30 16 1 25 11
M  V30 17 1 25 19
M  V30 18 1 25 21
M  V30 19 2 26 10
M  V30 20 2 27 4
M  V30 21 1 28 17 CFG=1
M  V30 22 1 28 24
M  V30 23 1 29 18
M  V30 24 1 29 23
M  V30 25 1 30 11
M  V30 26 1 31 9
M  V30 27 1 31 13
M  V30 28 1 31 18
M  V30 29 2 32 5
M  V30 30 1 32 27
M  V30 31 1 32 28
M  V30 32 1 33 7
M  V30 33 1 33 13
M  V30 34 1 33 28
M  V30 35 1 34 4
M  V30 36 1 34 10
M  V30 37 1 35 1
M  V30 38 1 36 1
M  V30 39 1 37 1
M  V30 40 1 2 38 CFG=3
M  V30 41 1 39 3
M  V30 42 1 40 5
M  V30 43 1 41 7
M  V30 44 1 42 7
M  V30 45 1 43 8
M  V30 46 1 44 9
M  V30 47 1 45 9
M  V30 48 1 46 12
M  V30 49 1 47 13
M  V30 50 1 48 13
M  V30 51 1 49 15
M  V30 52 1 50 15
M  V30 53 1 51 16
M  V30 54 1 52 16
M  V30 55 1 53 16
M  V30 56 1 54 17
M  V30 57 1 55 17
M  V30 58 1 18 56 CFG=1
M  V30 59 1 57 19
M  V30 60 1 58 19
M  V30 61 1 59 20
M  V30 62 1 60 20
M  V30 63 1 61 20
M  V30 64 1 62 21
M  V30 65 1 63 21
M  V30 66 1 64 22
M  V30 67 1 65 22
M  V30 68 1 66 22
M  V30 69 1 67 24
M  V30 70 1 68 24
M  V30 71 1 69 24
M  V30 72 1 25 70 CFG=3
M  V30 73 1 71 26
M  V30 74 1 72 27
M  V30 75 1 73 29
M  V30 76 1 31 74 CFG=3
M  V30 77 1 75 34
M  V30 78 1 76 26
M  V30 79 1 33 77 CFG=3
M  V30 END BOND
M  V30 END CTAB
M  END
>  <i_epik_Tot_Q>  (1) 
2

>  <i_epik_Tot_abs_Q>  (1) 
4

>  <i_i_glide_confnum>  (1) 
959

>  <i_i_glide_lignum>  (1) 
42

>  <i_i_glide_posenum>  (1) 
41

>  <i_i_glide_rotatable_bonds>  (1) 
11

>  <i_lp_mmshare_version>  (1) 
72125

>  <i_m_source_file_index>  (1) 
19

>  <i_f3d_flags>  (1) 
0

>  <num_sample>  (1) 
100

>  <b_lp_Chiralities_Consistent>  (1) 
1

>  <r_epik_Charging_Adjusted_Penalty>  (1) 
0.035732071636325656

>  <r_epik_Ionization_Penalty>  (1) 
0.019213783482484162

>  <r_epik_Ionization_Penalty_Charging>  (1) 
0.019186760244236628

>  <r_epik_Ionization_Penalty_Neutral>  (1) 
2.7023238247534635e-05

>  <r_epik_State_Penalty>  (1) 
0.016545311392089028

>  <r_glide_ring_energy>  (1) 
0

>  <r_i_docking_score>  (1) 
-6.5235231436882106

>  <r_i_glide_ecoul>  (1) 
-8.1398298657802961

>  <r_i_glide_eff_state_penalty>  (1) 
0.016545311392089028

>  <r_i_glide_einternal>  (1) 
7.878254380320687

>  <r_i_glide_emodel>  (1) 
-67.113036199134697

>  <r_i_glide_emodel_strain>  (1) 
0.57044022234779845

>  <r_i_glide_energy>  (1) 
-42.631598089486772

>  <r_i_glide_erotb>  (1) 
0.68654883804919686

>  <r_i_glide_esite>  (1) 
-0.16254961079590113

>  <r_i_glide_evdw>  (1) 
-34.491768223706472

>  <r_i_glide_gscore>  (1) 
-6.5400684550802994

>  <r_i_glide_gscore_strain>  (1) 
0

>  <r_i_glide_hbond>  (1) 
-0.20000000000000001

>  <r_i_glide_ligand_efficiency>  (1) 
-0.19186832775553561

>  <r_i_glide_ligand_efficiency_ln>  (1) 
-1.4412292410670071

>  <r_i_glide_ligand_efficiency_sa>  (1) 
-0.62157889888820939

>  <r_i_glide_lipo>  (1) 
-2.5205370017284734

>  <r_i_glide_metal>  (1) 
-0

>  <r_i_glide_rewards>  (1) 
-1.397967789552754

>  <r_lp_Energy>  (1) 
36.417943999999999

>  <s_epik_Chemistry_Notes>  (1) 
This compound has an imine and may undergo hydrolysis.

>  <s_epik_cmdline>  (1) 
J2VwaWtfcHl0aG9uJywgJy1waHQnLCAnMS4wJywgJy1waCcsICc3LjQnLCAnLXRuJywgJzgnLCAnLW1hJywgJzUwMCcsICctaW1hZScsICc8aW5maWxlLm1hZT4nLCAnLW9tYWUnLCAnPG91dGZpbGUubWFlPic=

>  <s_epik_input>  (1) 
W0hdL049QyhcW0NIM10pW05IXWMxW2NIXVtjSF1bY0hdYyhbY0hdMSlbUEBAK10oW0NIM10pKFtDSDJdW0NIM10pTihbQ0gyXVtDSDNdKVtDSDJdW0NASF0yW0NIMl1bQ0BASF0yW05IXUMzPUM9W0NIXVtDSDJdW0NIMl1bQ0BASF0oQyg9TylbT0hdKVtDSDJdW0NAQEhdM1tDSDNd

>  <s_glide_docking_method>  (1) 
confgen

>  <s_i_glide_gridfile>  (1) 
gpcr_5ht2c_6bqh_protein_autoprepared_prepared

>  <s_lp_Force_Field>  (1) 
S-OPLS

>  <s_lp_Variant>  (1) 
DiffSBDD_18-1

>  <s_m_source_file>  (1) 
generated_GPCR_5HT2C_ligand_DiffSBDD_2026-06-23_prepared.sdf

>  <GenAI_Model>  (1) 
DiffSBDD

>  <Protein>  (1) 
GPCR_5HT2C

$$$$
DiffSBDD_30
     RDKit          3D

  0  0  0  0  0  0  0  0  0  0999 V3000
M  V30 BEGIN CTAB
M  V30 COUNTS 35 36 0 0 1
M  V30 BEGIN ATOM
M  V30 1 C 39.220242 28.430060 53.786971 0
M  V30 2 N 39.245005 28.485290 52.356451 0
M  V30 3 C 39.337354 29.541916 56.054295 0
M  V30 4 C 38.988594 27.067495 54.365038 0
M  V30 5 C 39.803597 29.615031 51.714199 0
M  V30 6 C 38.628644 28.640853 59.087536 0
M  V30 7 C 39.865293 28.538920 56.888651 0
M  V30 8 C 38.845133 30.813063 56.657163 0
M  V30 9 C 39.333620 29.525620 54.572859 0
M  V30 10 C 39.882125 29.808044 50.383812 0
M  V30 11 N 38.075249 30.652007 57.769589 0
M  V30 12 C 39.967687 28.774155 58.395574 0
M  V30 13 C 40.445120 27.283983 56.374590 0
M  V30 14 O 39.075242 31.929043 56.194149 0
M  V30 15 C 40.088394 26.653773 55.253761 0
M  V30 16 C 37.578106 29.366647 58.265635 0
M  V30 17 C 38.755648 27.358506 51.557903 0
M  V30 18 H 38.063876 27.094505 54.943420 0
M  V30 19 H 38.870624 26.238993 53.674364 0
M  V30 20 H 40.194508 30.353564 52.383828 0
M  V30 21 H 38.368118 27.587716 59.189206 0
M  V30 22 H 38.689294 29.054697 60.094732 0
M  V30 23 H 39.403339 30.483765 54.094265 0
M  V30 24 H 39.505252 29.083993 49.681791 0
M  V30 25 H 40.331529 30.705617 49.983954 0
M  V30 26 H 37.714924 31.482847 58.216513 0
M  V30 27 H 40.656469 28.049945 58.832277 0
M  V30 28 H 40.430372 29.737755 58.600672 0
M  V30 29 H 41.220630 26.821080 56.968047 0
M  V30 30 H 40.592278 25.737748 54.988011 0
M  V30 31 H 36.697387 29.553643 58.880785 0
M  V30 32 H 37.223293 28.747072 57.440185 0
M  V30 33 H 38.445139 27.643345 50.562041 0
M  V30 34 H 37.854617 26.937773 52.001963 0
M  V30 35 H 39.513654 26.579719 51.471023 0
M  V30 END ATOM
M  V30 BEGIN BOND
M  V30 1 1 2 1
M  V30 2 1 4 1
M  V30 3 1 5 2
M  V30 4 2 7 3
M  V30 5 1 8 3
M  V30 6 2 9 1
M  V30 7 1 9 3
M  V30 8 2 10 5
M  V30 9 1 11 8
M  V30 10 1 12 6
M  V30 11 1 12 7
M  V30 12 1 13 7
M  V30 13 2 14 8
M  V30 14 1 15 4
M  V30 15 2 15 13
M  V30 16 1 16 6
M  V30 17 1 16 11
M  V30 18 1 17 2
M  V30 19 1 18 4
M  V30 20 1 19 4
M  V30 21 1 20 5
M  V30 22 1 21 6
M  V30 23 1 22 6
M  V30 24 1 23 9
M  V30 25 1 24 10
M  V30 26 1 25 10
M  V30 27 1 26 11
M  V30 28 1 27 12
M  V30 29 1 28 12
M  V30 30 1 29 13
M  V30 31 1 30 15
M  V30 32 1 31 16
M  V30 33 1 32 16
M  V30 34 1 33 17
M  V30 35 1 34 17
M  V30 36 1 35 17
M  V30 END BOND
M  V30 END CTAB
M  END
>  <i_epik_Tot_Q>  (1) 
0

>  <i_epik_Tot_abs_Q>  (1) 
0

>  <i_i_glide_confnum>  (1) 
1

>  <i_i_glide_lignum>  (1) 
72

>  <i_i_glide_posenum>  (1) 
261

>  <i_i_glide_rotatable_bonds>  (1) 
2

>  <i_lp_mmshare_version>  (1) 
72125

>  <i_m_source_file_index>  (1) 
31

>  <i_f3d_flags>  (1) 
0

>  <num_sample>  (1) 
100

>  <b_lp_Chiralities_Consistent>  (1) 
1

>  <r_epik_Charging_Adjusted_Penalty>  (1) 
0.00013572112653438843

>  <r_epik_Ionization_Penalty>  (1) 
0.00014669493665376082

>  <r_epik_Ionization_Penalty_Charging>  (1) 
0.00013572112653438843

>  <r_epik_Ionization_Penalty_Neutral>  (1) 
1.0973810119372391e-05

>  <r_epik_State_Penalty>  (1) 
-0

>  <r_glide_ring_energy>  (1) 
0

>  <r_i_docking_score>  (1) 
-6.523299085234922

>  <r_i_glide_ecoul>  (1) 
-1.3977537520165919

>  <r_i_glide_eff_state_penalty>  (1) 
-0

>  <r_i_glide_einternal>  (1) 
2.8462033646692326

>  <r_i_glide_emodel>  (1) 
-37.537138130805978

>  <r_i_glide_emodel_strain>  (1) 
6.5490615611452085e-05

>  <r_i_glide_energy>  (1) 
-27.663783783382371

>  <r_i_glide_erotb>  (1) 
0.32205052680496415

>  <r_i_glide_esite>  (1) 
-0.11720033938389399

>  <r_i_glide_evdw>  (1) 
-26.26603003136578

>  <r_i_glide_gscore>  (1) 
-6.523299085234922

>  <r_i_glide_gscore_strain>  (1) 
0

>  <r_i_glide_hbond>  (1) 
0

>  <r_i_glide_ligand_efficiency>  (1) 
-0.38372347560205422

>  <r_i_glide_ligand_efficiency_ln>  (1) 
-1.701783464609387

>  <r_i_glide_ligand_efficiency_sa>  (1) 
-0.98666110871895674

>  <r_i_glide_lipo>  (1) 
-2.5711308632534902

>  <r_i_glide_metal>  (1) 
-0

>  <r_i_glide_rewards>  (1) 
-2.6340538450317252

>  <r_lp_Energy>  (1) 
36.162458999999998

>  <r_lp_tautomer_probability>  (1) 
1

>  <s_epik_Chemistry_Notes>  (1) 
This compound has an imine and may undergo hydrolysis.

>  <s_epik_cmdline>  (1) 
J2VwaWtfcHl0aG9uJywgJy1waHQnLCAnMS4wJywgJy1waCcsICc3LjQnLCAnLXRuJywgJzgnLCAnLW1hJywgJzUwMCcsICctaW1hZScsICc8aW5maWxlLm1hZT4nLCAnLW9tYWUnLCAnPG91dGZpbGUubWFlPic=

>  <s_epik_input>  (1) 
W0NIMl09W0NIXU4oW0NIM10pQyg9W0NIXTEpW0NIMl1bQ0hdPVtDSF1DKD1DMTIpW0NIMl1bQ0gyXVtDSDJdW05IXUMyPU8=

>  <s_glide_docking_method>  (1) 
confgen

>  <s_i_glide_gridfile>  (1) 
gpcr_5ht2c_6bqh_protein_autoprepared_prepared

>  <s_lp_Force_Field>  (1) 
S-OPLS

>  <s_lp_Variant>  (1) 
DiffSBDD_30-1

>  <s_m_source_file>  (1) 
generated_GPCR_5HT2C_ligand_DiffSBDD_2026-06-23_prepared.sdf

>  <GenAI_Model>  (1) 
DiffSBDD

>  <Protein>  (1) 
GPCR_5HT2C

$$$$
DiffSBDD_53
     RDKit          3D

  0  0  0  0  0  0  0  0  0  0999 V3000
M  V30 BEGIN CTAB
M  V30 COUNTS 81 85 0 0 1
M  V30 BEGIN ATOM
M  V30 1 C 37.731649 31.686296 54.492793 0
M  V30 2 C 37.263437 33.283279 61.767732 0
M  V30 3 C 41.645212 34.433889 63.441322 0
M  V30 4 C 38.693141 32.414441 55.436099 0
M  V30 5 C 39.892690 31.957191 62.647170 0
M  V30 6 C 39.494987 26.766661 52.980274 0
M  V30 7 C 38.305840 27.921673 57.082677 0
M  V30 8 N 37.317303 30.348486 54.982257 0 CHG=1
M  V30 9 N 40.817464 35.958981 65.856953 0
M  V30 10 C 35.604177 31.849978 59.847542 0
M  V30 11 C 38.223565 29.210208 54.659070 0 CFG=1
M  V30 12 N 38.045147 32.862187 56.658384 0
M  V30 13 C 40.423555 32.908514 61.856789 0
M  V30 14 C 38.675475 31.189198 62.156833 0
M  V30 15 C 38.905179 28.667909 55.914750 0 CFG=1
M  V30 16 C 38.902709 32.349791 60.064508 0 CFG=1
M  V30 17 C 37.465453 28.096836 53.886735 0 CFG=2
M  V30 18 C 41.631303 34.756848 65.889601 0
M  V30 19 O 40.044642 29.394114 56.287983 0
M  V30 20 C 38.903643 32.681151 57.784190 0
M  V30 21 C 36.099054 33.961672 61.038862 0
M  V30 22 C 35.005274 32.946132 60.724420 0
M  V30 23 C 37.853716 31.999190 61.127217 0
M  V30 24 O 38.262158 32.938852 58.978212 0
M  V30 25 C 36.740748 31.085517 60.546773 0
M  V30 26 C 38.213624 26.744235 53.850566 0 CFG=2
M  V30 27 O 37.245008 28.537720 52.567744 0
M  V30 28 C 41.119269 32.459278 64.837179 0
M  V30 29 N 38.420617 26.266905 55.245127 0 CFG=1 CHG=1
M  V30 30 O 39.891068 33.179629 60.610447 0
M  V30 31 C 38.880161 24.868152 55.365839 0
M  V30 32 C 39.200048 27.192124 56.099283 0 CFG=2
M  V30 33 C 40.444508 31.632598 63.977287 0
M  V30 34 C 41.631603 33.704365 62.150098 0
M  V30 35 C 41.462090 33.884170 64.652178 0
M  V30 36 H 38.189243 31.600770 53.506914 0
M  V30 37 H 36.845136 32.292408 54.351814 0
M  V30 38 H 36.845331 32.937761 62.693609 0
M  V30 39 H 38.022386 34.023972 62.017558 0
M  V30 40 H 41.898322 35.483645 63.380664 0
M  V30 41 H 39.573357 31.801504 55.626831 0
M  V30 42 H 39.067443 33.320916 54.967816 0
M  V30 43 H 39.244529 26.556862 51.939744 0
M  V30 44 H 39.975487 27.738290 52.967784 0
M  V30 45 H 40.241526 26.032041 53.274159 0
M  V30 46 H 38.709831 28.128685 58.072638 0
M  V30 47 H 37.245173 27.703276 57.067504 0
M  V30 48 H 36.432125 30.158008 54.535479 0
M  V30 49 H 40.827515 36.400302 66.765240 0
M  V30 50 H 41.222351 36.643688 65.223957 0
M  V30 51 H 35.993642 32.337594 58.967733 0
M  V30 52 H 34.845121 31.172417 59.476034 0
M  V30 53 H 39.022545 29.569419 54.008667 0
M  V30 54 H 37.097776 32.499611 56.796528 0
M  V30 55 H 39.020027 30.247620 61.725418 0
M  V30 56 H 38.045515 30.914799 62.997665 0
M  V30 57 H 39.393145 31.421372 59.767804 0
M  V30 58 H 36.488737 27.922267 54.329864 0
M  V30 59 H 41.355414 34.181105 66.772990 0
M  V30 60 H 42.679185 35.035240 66.000106 0
M  V30 61 H 40.784514 29.117723 55.766146 0
M  V30 62 H 39.245136 31.644462 57.761389 0
M  V30 63 H 39.769198 33.337711 57.708995 0
M  V30 64 H 36.450093 34.442163 60.124889 0
M  V30 65 H 35.694030 34.750481 61.671754 0
M  V30 66 H 34.178327 33.432926 60.205053 0
M  V30 67 H 34.609137 32.538005 61.653081 0
M  V30 68 H 37.162654 30.336098 59.876305 0
M  V30 69 H 36.283396 30.537752 61.366470 0
M  V30 70 H 37.538572 26.020602 53.391822 0
M  V30 71 H 36.892787 27.828596 52.042993 0
M  V30 72 H 41.371124 32.032022 65.797568 0
M  V30 73 H 39.925256 24.772908 55.079610 0
M  V30 74 H 38.794929 24.529006 56.398739 0
M  V30 75 H 38.286071 24.197528 54.744623 0
M  V30 76 H 40.195291 26.858534 56.395650 0
M  V30 77 H 40.233309 30.638606 64.347800 0
M  V30 78 H 42.505743 33.054565 62.093534 0
M  V30 79 H 41.744455 34.453084 61.367677 0
M  V30 80 H 37.495118 26.252219 55.650291 0
M  V30 81 H 37.146943 30.416440 55.978330 0
M  V30 END ATOM
M  V30 BEGIN BOND
M  V30 1 1 4 1
M  V30 2 1 8 1
M  V30 3 1 11 8
M  V30 4 1 12 4
M  V30 5 2 13 5
M  V30 6 1 14 5
M  V30 7 1 15 7
M  V30 8 1 15 11
M  V30 9 1 17 11
M  V30 10 1 18 9
M  V30 11 1 15 19 CFG=1
M  V30 12 1 20 12
M  V30 13 1 21 2
M  V30 14 1 22 10
M  V30 15 1 22 21
M  V30 16 1 23 2
M  V30 17 1 23 14
M  V30 18 1 23 16
M  V30 19 1 24 16
M  V30 20 1 24 20
M  V30 21 1 25 10
M  V30 22 1 25 23
M  V30 23 1 26 6
M  V30 24 1 26 17
M  V30 25 1 27 17
M  V30 26 1 29 26
M  V30 27 1 30 13
M  V30 28 1 30 16
M  V30 29 1 31 29
M  V30 30 1 32 7
M  V30 31 1 32 15
M  V30 32 1 32 29
M  V30 33 1 33 5
M  V30 34 2 33 28
M  V30 35 1 34 3
M  V30 36 1 34 13
M  V30 37 2 35 3
M  V30 38 1 35 18
M  V30 39 1 35 28
M  V30 40 1 36 1
M  V30 41 1 37 1
M  V30 42 1 38 2
M  V30 43 1 39 2
M  V30 44 1 40 3
M  V30 45 1 41 4
M  V30 46 1 42 4
M  V30 47 1 43 6
M  V30 48 1 44 6
M  V30 49 1 45 6
M  V30 50 1 46 7
M  V30 51 1 47 7
M  V30 52 1 48 8
M  V30 53 1 49 9
M  V30 54 1 50 9
M  V30 55 1 51 10
M  V30 56 1 52 10
M  V30 57 1 11 53 CFG=3
M  V30 58 1 54 12
M  V30 59 1 55 14
M  V30 60 1 56 14
M  V30 61 1 16 57 CFG=3
M  V30 62 1 17 58 CFG=1
M  V30 63 1 59 18
M  V30 64 1 60 18
M  V30 65 1 61 19
M  V30 66 1 62 20
M  V30 67 1 63 20
M  V30 68 1 64 21
M  V30 69 1 65 21
M  V30 70 1 66 22
M  V30 71 1 67 22
M  V30 72 1 68 25
M  V30 73 1 69 25
M  V30 74 1 26 70 CFG=3
M  V30 75 1 71 27
M  V30 76 1 72 28
M  V30 77 1 73 31
M  V30 78 1 74 31
M  V30 79 1 75 31
M  V30 80 1 32 76 CFG=1
M  V30 81 1 77 33
M  V30 82 1 78 34
M  V30 83 1 79 34
M  V30 84 1 29 80 CFG=1
M  V30 85 1 81 8
M  V30 END BOND
M  V30 END CTAB
M  END
>  <i_epik_Tot_Q>  (1) 
2

>  <i_epik_Tot_abs_Q>  (1) 
2

>  <i_i_glide_confnum>  (1) 
645

>  <i_i_glide_lignum>  (1) 
112

>  <i_i_glide_posenum>  (1) 
207

>  <i_i_glide_rotatable_bonds>  (1) 
10

>  <i_lp_mmshare_version>  (1) 
72125

>  <i_m_source_file_index>  (1) 
54

>  <i_f3d_flags>  (1) 
0

>  <num_sample>  (1) 
100

>  <b_lp_Chiralities_Consistent>  (1) 
1

>  <r_epik_Charging_Adjusted_Penalty>  (1) 
1.1947924258661535

>  <r_epik_Ionization_Penalty>  (1) 
1.111601378610803

>  <r_epik_Ionization_Penalty_Charging>  (1) 
0.15856543202638063

>  <r_epik_Ionization_Penalty_Neutral>  (1) 
0.95303594658442226

>  <r_epik_State_Penalty>  (1) 
1.036226993839773

>  <r_glide_ring_energy>  (1) 
0.00045989382302465386

>  <r_i_docking_score>  (1) 
-6.5226074185013561

>  <r_i_glide_ecoul>  (1) 
-7.2005083145951758

>  <r_i_glide_eff_state_penalty>  (1) 
1.036226993839773

>  <r_i_glide_einternal>  (1) 
7.2452640021387626

>  <r_i_glide_emodel>  (1) 
-61.001114904142504

>  <r_i_glide_emodel_strain>  (1) 
2.0601667066045337

>  <r_i_glide_energy>  (1) 
-45.376415144760159

>  <r_i_glide_erotb>  (1) 
0.59168961163588141

>  <r_i_glide_esite>  (1) 
-0.11132396605930089

>  <r_i_glide_evdw>  (1) 
-38.175906830164983

>  <r_i_glide_gscore>  (1) 
-7.5588344123411293

>  <r_i_glide_gscore_strain>  (1) 
0

>  <r_i_glide_hbond>  (1) 
-0.65141040724293764

>  <r_i_glide_ligand_efficiency>  (1) 
-0.18636021195718161

>  <r_i_glide_ligand_efficiency_ln>  (1) 
-1.4318570898331595

>  <r_i_glide_ligand_efficiency_sa>  (1) 
-0.60959661089274164

>  <r_i_glide_lipo>  (1) 
-3.9792057472314646

>  <r_i_glide_metal>  (1) 
-0

>  <r_i_glide_rewards>  (1) 
-0.41971231474578152

>  <r_lp_Energy>  (1) 
70.003378999999995

>  <s_epik_Chemistry_Notes>  (1) 
This compound contains an acetal/aminal-like group ( X-CH(R)-Y where X, Y are N, S, or O) that may be acid/base labile, releasing an aldehyde.

>  <s_epik_cmdline>  (1) 
J2VwaWtfcHl0aG9uJywgJy1waHQnLCAnMS4wJywgJy1waCcsICc3LjQnLCAnLXRuJywgJzgnLCAnLW1hJywgJzUwMCcsICctaW1hZScsICc8aW5maWxlLm1hZT4nLCAnLW9tYWUnLCAnPG91dGZpbGUubWFlPic=

>  <s_epik_input>  (1) 
W09IXVtDQEBdMTJbQ0BASF0oW0NIMl0xKU4oW0NIM10pW0NASF0oW0NIM10pW0NASF0oW09IXSlbQ0BIXTJbTkhdW0NIMl1bQ0gyXVtOSF1bQ0gyXU9bQ0BIXTNPQyhbQ0gyXVtDSF09QyhbQ0gyXVtOSDJdKVtDSF09W0NIXTQpPUM0W0NIMl1DMzVbQ0gyXVtDSDJdW0NIMl1bQ0gyXVtDSDJdNQ==

>  <s_glide_docking_method>  (1) 
confgen

>  <s_i_glide_gridfile>  (1) 
gpcr_5ht2c_6bqh_protein_autoprepared_prepared

>  <s_lp_Force_Field>  (1) 
S-OPLS

>  <s_lp_Variant>  (1) 
DiffSBDD_53-4

>  <s_m_source_file>  (1) 
generated_GPCR_5HT2C_ligand_DiffSBDD_2026-06-23_prepared.sdf

>  <GenAI_Model>  (1) 
DiffSBDD

>  <Protein>  (1) 
GPCR_5HT2C

$$$$
DiffSBDD_75
     RDKit          3D

  0  0  0  0  0  0  0  0  0  0999 V3000
M  V30 BEGIN CTAB
M  V30 COUNTS 77 78 0 0 1
M  V30 BEGIN ATOM
M  V30 1 C 38.096863 33.373472 61.481920 0
M  V30 2 C 35.312881 31.305543 60.654862 0
M  V30 3 O 37.281046 28.677678 57.767769 0
M  V30 4 C 37.005578 36.356502 61.241860 0
M  V30 5 C 39.222645 29.589991 55.444929 0 CFG=2
M  V30 6 C 40.795171 35.639614 65.288154 0
M  V30 7 C 38.526861 29.285295 58.017533 0 CFG=2
M  V30 8 C 40.039453 36.537797 66.070359 0
M  V30 9 O 37.245292 29.054080 54.159646 0
M  V30 10 C 40.095910 27.597906 56.765734 0 CFG=2
M  V30 11 O 40.278514 34.937533 69.377304 0
M  V30 12 S 38.659743 31.014377 60.188949 0
M  V30 13 C 37.599576 37.701176 61.673797 0
M  V30 14 C 40.445137 35.165958 68.044036 0
M  V30 15 C 38.282737 30.749286 58.435417 0
M  V30 16 C 40.952430 35.878050 63.798408 0
M  V30 17 C 41.379693 34.505218 65.888280 0
M  V30 18 O 39.645168 25.380048 55.872762 0
M  V30 19 C 40.607083 27.028489 58.104796 0
M  V30 20 C 39.574493 29.067258 56.876476 0 CFG=1
M  V30 21 O 37.645845 38.577243 60.567853 0
M  V30 22 O 36.382961 31.820320 61.405501 0
M  V30 23 O 40.863320 35.737702 60.967789 0
M  V30 24 C 37.061835 35.263028 59.050584 0
M  V30 25 N 37.852331 35.636735 60.246786 0 CFG=2 CHG=1
M  V30 26 C 39.928141 35.170394 61.522606 0
M  V30 27 C 39.866125 36.301697 67.446274 0
M  V30 28 C 39.863369 35.102084 63.050895 0
M  V30 29 C 38.771090 34.544592 60.720017 0 CFG=1
M  V30 30 C 41.202986 34.268034 67.265454 0
M  V30 31 C 38.646618 27.167996 54.675641 0
M  V30 32 C 37.452562 32.295235 60.615550 0 CFG=1
M  V30 33 C 38.815883 31.071375 55.312825 0
M  V30 34 C 39.076394 26.658275 56.063610 0 CFG=2
M  V30 35 C 38.265465 28.643692 54.708879 0
M  V30 36 H 38.809943 32.851120 62.117517 0
M  V30 37 H 37.349746 33.753491 62.167757 0
M  V30 38 H 34.577305 30.937768 61.367768 0
M  V30 39 H 34.845329 32.067805 60.030008 0
M  V30 40 H 35.645134 30.475246 60.029146 0
M  V30 41 H 37.383029 27.740990 57.817336 0
M  V30 42 H 36.054337 36.596937 60.767294 0
M  V30 43 H 36.766678 35.757140 62.117285 0
M  V30 44 H 38.900681 28.783683 58.907244 0
M  V30 45 H 39.588784 37.406534 65.612202 0
M  V30 46 H 39.468169 27.059572 53.966858 0
M  V30 47 H 40.973677 27.641457 56.119135 0
M  V30 48 H 39.885237 35.669239 69.826826 0
M  V30 49 H 36.967670 38.137653 62.447420 0
M  V30 50 H 38.597126 37.595120 62.097624 0
M  V30 51 H 37.253764 31.042316 58.217588 0
M  V30 52 H 38.921824 31.441580 57.894243 0
M  V30 53 H 40.845099 36.937700 63.575814 0
M  V30 54 H 41.951655 35.578602 63.479088 0
M  V30 55 H 41.956236 33.814410 65.291498 0
M  V30 56 H 39.008193 24.819216 55.456759 0
M  V30 57 H 39.791199 26.742385 58.768405 0
M  V30 58 H 41.211886 26.137814 57.942791 0
M  V30 59 H 41.236403 27.749758 58.626984 0
M  V30 60 H 40.440835 29.643109 57.199342 0
M  V30 61 H 36.779534 38.926726 60.385995 0
M  V30 62 H 36.175064 34.686080 59.315278 0
M  V30 63 H 36.719709 36.176707 58.567739 0
M  V30 64 H 37.641361 34.690575 58.324720 0
M  V30 65 H 39.285105 36.990996 68.041915 0
M  V30 66 H 39.940665 34.059956 63.357000 0
M  V30 67 H 38.884313 35.458831 63.367575 0
M  V30 68 H 39.235303 34.117640 59.829112 0
M  V30 69 H 41.648096 33.397991 67.725384 0
M  V30 70 H 37.810757 26.585161 54.287794 0
M  V30 71 H 40.149231 29.511129 54.877448 0
M  V30 72 H 37.069298 32.735787 59.699532 0
M  V30 73 H 38.714723 31.353623 54.263781 0
M  V30 74 H 37.856214 31.279334 55.787870 0
M  V30 75 H 39.572062 31.729397 55.741932 0
M  V30 76 H 38.194171 26.520037 56.688002 0
M  V30 77 H 38.477807 36.355156 59.904465 0
M  V30 END ATOM
M  V30 BEGIN BOND
M  V30 1 1 7 3
M  V30 2 1 8 6
M  V30 3 1 13 4
M  V30 4 1 14 11
M  V30 5 1 15 7
M  V30 6 1 15 12
M  V30 7 1 16 6
M  V30 8 2 17 6
M  V30 9 1 19 10
M  V30 10 1 20 5
M  V30 11 1 20 7
M  V30 12 1 20 10
M  V30 13 1 21 13
M  V30 14 1 22 2
M  V30 15 1 25 4
M  V30 16 1 25 24
M  V30 17 2 26 23
M  V30 18 2 27 8
M  V30 19 1 27 14
M  V30 20 1 28 16
M  V30 21 1 28 26
M  V30 22 1 29 1
M  V30 23 1 29 25
M  V30 24 1 29 26
M  V30 25 2 30 14
M  V30 26 1 30 17
M  V30 27 1 32 1
M  V30 28 1 32 12
M  V30 29 1 32 22
M  V30 30 1 33 5
M  V30 31 1 34 10
M  V30 32 1 34 18
M  V30 33 1 34 31
M  V30 34 1 35 5
M  V30 35 2 35 9
M  V30 36 1 35 31
M  V30 37 1 36 1
M  V30 38 1 37 1
M  V30 39 1 38 2
M  V30 40 1 39 2
M  V30 41 1 40 2
M  V30 42 1 41 3
M  V30 43 1 42 4
M  V30 44 1 43 4
M  V30 45 1 7 44 CFG=1
M  V30 46 1 45 8
M  V30 47 1 46 31
M  V30 48 1 10 47 CFG=3
M  V30 49 1 48 11
M  V30 50 1 49 13
M  V30 51 1 50 13
M  V30 52 1 51 15
M  V30 53 1 52 15
M  V30 54 1 53 16
M  V30 55 1 54 16
M  V30 56 1 55 17
M  V30 57 1 56 18
M  V30 58 1 57 19
M  V30 59 1 58 19
M  V30 60 1 59 19
M  V30 61 1 20 60 CFG=1
M  V30 62 1 61 21
M  V30 63 1 62 24
M  V30 64 1 63 24
M  V30 65 1 64 24
M  V30 66 1 65 27
M  V30 67 1 66 28
M  V30 68 1 67 28
M  V30 69 1 29 68 CFG=3
M  V30 70 1 69 30
M  V30 71 1 70 31
M  V30 72 1 5 71 CFG=3
M  V30 73 1 32 72 CFG=3
M  V30 74 1 73 33
M  V30 75 1 74 33
M  V30 76 1 75 33
M  V30 77 1 34 76 CFG=1
M  V30 78 1 25 77 CFG=3
M  V30 END BOND
M  V30 END CTAB
M  END
>  <i_epik_Tot_Q>  (1) 
1

>  <i_epik_Tot_abs_Q>  (1) 
1

>  <i_i_glide_confnum>  (1) 
4467

>  <i_i_glide_lignum>  (1) 
165

>  <i_i_glide_posenum>  (1) 
43

>  <i_i_glide_rotatable_bonds>  (1) 
18

>  <i_lp_mmshare_version>  (1) 
72125

>  <i_m_source_file_index>  (1) 
76

>  <i_f3d_flags>  (1) 
0

>  <num_sample>  (1) 
100

>  <b_lp_Chiralities_Consistent>  (1) 
1

>  <r_epik_Charging_Adjusted_Penalty>  (1) 
0.52789471212939676

>  <r_epik_Ionization_Penalty>  (1) 
0.26592108790513191

>  <r_epik_Ionization_Penalty_Charging>  (1) 
0.26394735606469838

>  <r_epik_Ionization_Penalty_Neutral>  (1) 
0.0019737318404335234

>  <r_epik_State_Penalty>  (1) 
0.26394735606469838

>  <r_glide_ring_energy>  (1) 
0

>  <r_i_docking_score>  (1) 
-6.5148034956579428

>  <r_i_glide_ecoul>  (1) 
-6.0249344178196127

>  <r_i_glide_eff_state_penalty>  (1) 
0.26394735606469838

>  <r_i_glide_einternal>  (1) 
21.761402815857416

>  <r_i_glide_emodel>  (1) 
-63.603295195232683

>  <r_i_glide_emodel_strain>  (1) 
2.3700193577713478

>  <r_i_glide_energy>  (1) 
-51.787415260083229

>  <r_i_glide_erotb>  (1) 
1.0139394581015995

>  <r_i_glide_esite>  (1) 
0

>  <r_i_glide_evdw>  (1) 
-45.762480842263614

>  <r_i_glide_gscore>  (1) 
-6.7787508517226414

>  <r_i_glide_gscore_strain>  (1) 
0

>  <r_i_glide_hbond>  (1) 
-0.56475177202392401

>  <r_i_glide_ligand_efficiency>  (1) 
-0.18613724273308407

>  <r_i_glide_ligand_efficiency_ln>  (1) 
-1.4301439555702946

>  <r_i_glide_ligand_efficiency_sa>  (1) 
-0.60886726377558731

>  <r_i_glide_lipo>  (1) 
-3.0512934793541024

>  <r_i_glide_metal>  (1) 
-0

>  <r_i_glide_rewards>  (1) 
-0.9847808536600906

>  <r_lp_Energy>  (1) 
36.415389999999995

>  <r_lp_tautomer_probability>  (1) 
0.99989998499911525

>  <s_epik_Chemistry_Notes>  (1) 
This compound contains an acetal/aminal-like group ( X-CH(R)-Y where X, Y are N, S, or O) that may be acid/base labile, releasing an aldehyde.

>  <s_epik_cmdline>  (1) 
J2VwaWtfcHl0aG9uJywgJy1waHQnLCAnMS4wJywgJy1waCcsICc3LjQnLCAnLXRuJywgJzgnLCAnLW1hJywgJzUwMCcsICctaW1hZScsICc8aW5maWxlLm1hZT4nLCAnLW9tYWUnLCAnPG91dGZpbGUubWFlPic=

>  <s_epik_input>  (1) 
W2NIXTFbY0hdYyhbT0hdKVtjSF1bY0hdYzFbQ0gyXVtDSDJdQyg9TylbQ0BIXShOKFtDSDNdKVtDSDJdW0NIMl1bT0hdKVtDSDJdW0NASF0oT1tDSDNdKVNbQ0gyXVtDQEBIXShbT0hdKVtDQEhdMltDQEBIXShbQ0gzXSlbQ0BIXShbT0hdKVtDSDJdQyhbT0hdKT1DMltDSDNd

>  <s_glide_docking_method>  (1) 
confgen

>  <s_i_glide_gridfile>  (1) 
gpcr_5ht2c_6bqh_protein_autoprepared_prepared

>  <s_lp_Force_Field>  (1) 
S-OPLS

>  <s_lp_Variant>  (1) 
DiffSBDD_75-2

>  <s_m_source_file>  (1) 
generated_GPCR_5HT2C_ligand_DiffSBDD_2026-06-23_prepared.sdf

>  <GenAI_Model>  (1) 
DiffSBDD

>  <Protein>  (1) 
GPCR_5HT2C

$$$$
DiffSBDD_23
     RDKit          3D

  0  0  0  0  0  0  0  0  0  0999 V3000
M  V30 BEGIN CTAB
M  V30 COUNTS 67 69 0 0 1
M  V30 BEGIN ATOM
M  V30 1 C 38.091363 29.907337 56.062308 0
M  V30 2 C 38.469177 31.074866 55.362091 0
M  V30 3 C 39.473437 37.263062 67.625249 0
M  V30 4 O 42.218974 32.137758 62.167894 0 CHG=-1
M  V30 5 C 38.274228 32.458940 55.966574 0
M  V30 6 N 37.510746 29.981343 57.335290 0
M  V30 7 C 38.439309 30.112572 58.462853 0 CFG=1
M  V30 8 C 39.789895 33.181840 61.452640 0 CFG=2
M  V30 9 C 38.304628 28.655000 55.448212 0
M  V30 10 C 42.198226 34.325151 64.529259 0
M  V30 11 C 41.495287 33.513468 66.826568 0
M  V30 12 C 37.675289 30.666320 59.692978 0
M  V30 13 C 39.219677 28.821944 58.781712 0
M  V30 14 C 40.845000 33.712837 68.059611 0
M  V30 15 C 38.155585 36.135880 61.076822 0
M  V30 16 C 39.205569 29.638166 53.559383 0
M  V30 17 C 40.831927 35.750924 66.114626 0
M  V30 18 O 40.451608 28.937622 58.965394 0
M  V30 19 P 40.979198 32.635114 62.800422 0
M  V30 20 N 38.845270 28.509766 54.214528 0
M  V30 21 C 36.104406 35.114936 59.430824 0
M  V30 22 C 37.466267 36.989582 60.190983 0
M  V30 23 O 40.276268 31.826210 63.817856 0
M  V30 24 C 36.445994 36.477865 59.367685 0
M  V30 25 C 39.038792 30.932098 54.087499 0
M  V30 26 C 40.185117 34.930637 68.320663 0
M  V30 27 C 41.489808 34.533307 65.853320 0
M  V30 28 C 40.178350 35.951210 67.347457 0
M  V30 29 C 36.781350 34.259790 60.316282 0
M  V30 30 C 38.546746 33.816641 62.078946 0
M  V30 31 C 39.482762 32.058875 60.443420 0
M  V30 32 O 38.589542 27.740729 58.803080 0 CHG=-1
M  V30 33 C 37.811686 34.759331 61.136669 0
M  V30 34 O 41.314983 34.170469 63.441944 0
M  V30 35 C 39.261249 36.697359 61.960213 0
M  V30 36 O 38.449184 31.146049 60.799878 0
M  V30 37 H 40.200556 38.070981 67.705045 0
M  V30 38 H 38.781602 37.498009 66.815902 0
M  V30 39 H 38.903779 37.225458 68.553588 0
M  V30 40 H 38.141683 33.203467 55.181367 0
M  V30 41 H 37.404469 32.524442 56.616778 0
M  V30 42 H 39.150246 32.737374 56.550696 0
M  V30 43 H 36.748785 30.663581 57.367758 0
M  V30 44 H 39.181066 30.844117 58.147703 0
M  V30 45 H 40.330509 33.958581 60.913165 0
M  V30 46 H 38.025822 27.743736 55.956828 0
M  V30 47 H 42.845123 33.455153 64.610307 0
M  V30 48 H 42.845135 35.182005 64.336517 0
M  V30 49 H 41.999033 32.578562 66.627466 0
M  V30 50 H 37.041438 31.479224 59.346679 0
M  V30 51 H 36.988431 29.908204 60.070658 0
M  V30 52 H 40.850301 32.930680 68.803983 0
M  V30 53 H 39.641178 29.502584 52.580581 0
M  V30 54 H 40.830480 36.533656 65.368906 0
M  V30 55 H 35.318649 34.725683 58.799660 0
M  V30 56 H 37.722753 38.037499 60.140704 0
M  V30 57 H 35.922737 37.130770 58.686988 0
M  V30 58 H 39.342744 31.796776 53.520474 0
M  V30 59 H 39.686231 35.081257 69.266256 0
M  V30 60 H 36.511551 33.219381 60.366166 0
M  V30 61 H 37.875873 33.027253 62.422194 0
M  V30 62 H 38.845147 34.360538 62.967735 0
M  V30 63 H 40.373825 31.453505 60.307715 0
M  V30 64 H 39.245326 32.545603 59.495730 0
M  V30 65 H 39.435303 37.753916 61.759393 0
M  V30 66 H 38.994791 36.612677 63.013678 0
M  V30 67 H 40.200863 36.171125 61.793436 0
M  V30 END ATOM
M  V30 BEGIN BOND
M  V30 1 2 2 1
M  V30 2 1 5 2
M  V30 3 1 6 1
M  V30 4 1 7 6
M  V30 5 1 9 1
M  V30 6 1 12 7
M  V30 7 1 13 7
M  V30 8 1 14 11
M  V30 9 2 18 13
M  V30 10 1 19 4
M  V30 11 1 19 8
M  V30 12 2 20 9
M  V30 13 1 20 16
M  V30 14 2 22 15
M  V30 15 2 23 19
M  V30 16 2 24 21
M  V30 17 1 24 22
M  V30 18 1 25 2
M  V30 19 2 25 16
M  V30 20 2 26 14
M  V30 21 1 27 10
M  V30 22 2 27 11
M  V30 23 1 27 17
M  V30 24 1 28 3
M  V30 25 2 28 17
M  V30 26 1 28 26
M  V30 27 1 29 21
M  V30 28 1 30 8
M  V30 29 1 31 8
M  V30 30 1 32 13
M  V30 31 1 33 15
M  V30 32 2 33 29
M  V30 33 1 33 30
M  V30 34 1 34 10
M  V30 35 1 34 19
M  V30 36 1 35 15
M  V30 37 1 36 12
M  V30 38 1 36 31
M  V30 39 1 37 3
M  V30 40 1 38 3
M  V30 41 1 39 3
M  V30 42 1 40 5
M  V30 43 1 41 5
M  V30 44 1 42 5
M  V30 45 1 43 6
M  V30 46 1 7 44 CFG=3
M  V30 47 1 8 45 CFG=3
M  V30 48 1 46 9
M  V30 49 1 47 10
M  V30 50 1 48 10
M  V30 51 1 49 11
M  V30 52 1 50 12
M  V30 53 1 51 12
M  V30 54 1 52 14
M  V30 55 1 53 16
M  V30 56 1 54 17
M  V30 57 1 55 21
M  V30 58 1 56 22
M  V30 59 1 57 24
M  V30 60 1 58 25
M  V30 61 1 59 26
M  V30 62 1 60 29
M  V30 63 1 61 30
M  V30 64 1 62 30
M  V30 65 1 63 31
M  V30 66 1 64 31
M  V30 67 1 65 35
M  V30 68 1 66 35
M  V30 69 1 67 35
M  V30 END BOND
M  V30 END CTAB
M  END
>  <i_epik_Tot_Q>  (1) 
-2

>  <i_epik_Tot_abs_Q>  (1) 
2

>  <i_i_glide_confnum>  (1) 
3228

>  <i_i_glide_lignum>  (1) 
57

>  <i_i_glide_posenum>  (1) 
224

>  <i_i_glide_rotatable_bonds>  (1) 
13

>  <i_lp_mmshare_version>  (1) 
72125

>  <i_m_source_file_index>  (1) 
24

>  <i_f3d_flags>  (1) 
0

>  <num_sample>  (1) 
100

>  <b_lp_Chiralities_Consistent>  (1) 
1

>  <r_epik_Charging_Adjusted_Penalty>  (1) 
0.24647158034106029

>  <r_epik_Ionization_Penalty>  (1) 
0.24647497421130457

>  <r_epik_Ionization_Penalty_Charging>  (1) 
0.00050661666566131989

>  <r_epik_Ionization_Penalty_Neutral>  (1) 
0.24596835754564325

>  <r_epik_State_Penalty>  (1) 
0.24596496367539897

>  <r_glide_ring_energy>  (1) 
0

>  <r_i_docking_score>  (1) 
-6.5084591874917139

>  <r_i_glide_ecoul>  (1) 
-4.7575959541499397

>  <r_i_glide_eff_state_penalty>  (1) 
0.24596496367539897

>  <r_i_glide_einternal>  (1) 
15.155770460211112

>  <r_i_glide_emodel>  (1) 
-63.728137707305912

>  <r_i_glide_emodel_strain>  (1) 
1.8289035837880139

>  <r_i_glide_energy>  (1) 
-50.853399278996321

>  <r_i_glide_erotb>  (1) 
0.94322731134637816

>  <r_i_glide_esite>  (1) 
-0.089659647557357947

>  <r_i_glide_evdw>  (1) 
-46.095803324846379

>  <r_i_glide_gscore>  (1) 
-6.7544241511671128

>  <r_i_glide_gscore_strain>  (1) 
0

>  <r_i_glide_hbond>  (1) 
-0.16401527570570168

>  <r_i_glide_ligand_efficiency>  (1) 
-0.18079053298588094

>  <r_i_glide_ligand_efficiency_ln>  (1) 
-1.4199699564640593

>  <r_i_glide_ligand_efficiency_sa>  (1) 
-0.59695718720826318

>  <r_i_glide_lipo>  (1) 
-3.4877313381817991

>  <r_i_glide_metal>  (1) 
-0

>  <r_i_glide_rewards>  (1) 
-0.9378156417038217

>  <r_lp_Energy>  (1) 
45.739263999999999

>  <r_lp_tautomer_probability>  (1) 
0.99999999999999911

>  <s_epik_cmdline>  (1) 
J2VwaWtfcHl0aG9uJywgJy1waHQnLCAnMS4wJywgJy1waCcsICc3LjQnLCAnLXRuJywgJzgnLCAnLW1hJywgJzUwMCcsICctaW1hZScsICc8aW5maWxlLm1hZT4nLCAnLW9tYWUnLCAnPG91dGZpbGUubWFlPic=

>  <s_epik_input>  (1) 
W2NIXTFuW2NIXVtjSF1jKFtDSDNdKWMxW05IXVtDQEhdKEMoPU8pW09IXSlbQ0gyXU9bQ0gyXVtDQEBIXShbQ0gyXWMyW2NIXVtjSF1bY0hdW2NIXWMyW0NIM10pW1BAQF0oPU8pKFtPSF0pT1tDSDJdYzNbY0hdW2NIXVtjSF1jKFtDSDNdKVtjSF0z

>  <s_glide_docking_method>  (1) 
confgen

>  <s_i_glide_gridfile>  (1) 
gpcr_5ht2c_6bqh_protein_autoprepared_prepared

>  <s_lp_Force_Field>  (1) 
S-OPLS

>  <s_lp_Variant>  (1) 
DiffSBDD_23-1

>  <s_m_source_file>  (1) 
generated_GPCR_5HT2C_ligand_DiffSBDD_2026-06-23_prepared.sdf

>  <GenAI_Model>  (1) 
DiffSBDD

>  <Protein>  (1) 
GPCR_5HT2C

$$$$
DiffSBDD_4
     RDKit          3D

  0  0  0  0  0  0  0  0  0  0999 V3000
M  V30 BEGIN CTAB
M  V30 COUNTS 71 74 0 0 1
M  V30 BEGIN ATOM
M  V30 1 C 40.366848 27.360949 58.258568 0
M  V30 2 C 36.804822 37.737734 62.649068 0
M  V30 3 C 40.916263 34.505900 63.006618 0
M  V30 4 N 39.645056 28.572538 57.915218 0
M  V30 5 C 38.445136 29.293316 60.010367 0
M  V30 6 O 42.045159 33.037284 64.510756 0
M  V30 7 C 37.737287 25.754134 55.371149 0
M  V30 8 C 37.840569 30.642756 56.048262 0
M  V30 9 C 41.426630 33.129687 63.451219 0
M  V30 10 O 38.675500 27.914435 55.849768 0
M  V30 11 C 38.594596 26.557237 56.097066 0
M  V30 12 C 39.719353 30.426841 54.554118 0
M  V30 13 C 38.286014 33.467523 61.767831 0
M  V30 14 O 38.845137 31.496937 59.120061 0
M  V30 15 O 37.448173 24.537626 55.367776 0 CHG=-1
M  V30 16 C 41.612811 30.695574 63.078023 0
M  V30 17 C 38.468474 35.979364 61.886722 0 CFG=1
M  V30 18 C 39.583323 28.762148 56.487349 0 CFG=1
M  V30 19 C 38.360011 28.654964 58.612812 0
M  V30 20 C 39.316988 30.207325 56.008876 0 CFG=2
M  V30 21 O 39.660683 30.987060 61.217879 0
M  V30 22 N 41.165770 32.037260 62.663918 0
M  V30 23 C 37.589508 34.791880 61.447023 0
M  V30 24 N 37.645121 31.542618 54.902661 0 CHG=1
M  V30 25 C 40.456471 32.155715 61.365798 0 CFG=2
M  V30 26 C 38.941575 31.697012 54.224147 0
M  V30 27 C 39.002148 30.712729 60.052800 0
M  V30 28 C 39.661241 33.468196 61.099333 0 CFG=2
M  V30 29 O 39.783889 35.885588 61.324575 0
M  V30 30 C 37.862240 37.371121 61.599091 0 CFG=1
M  V30 31 S 39.645139 25.928650 57.402660 0
M  V30 32 C 40.689227 30.114097 64.160322 0
M  V30 33 C 40.492951 34.659131 61.553631 0 CFG=1
M  V30 34 O 37.245171 37.428545 60.326436 0
M  V30 35 H 41.409200 27.459463 57.952085 0
M  V30 36 H 40.364161 27.200777 59.336397 0
M  V30 37 H 37.235524 37.737755 63.650429 0
M  V30 38 H 36.379413 38.725143 62.466608 0
M  V30 39 H 35.990883 37.017823 62.662200 0
M  V30 40 H 41.687335 35.244959 63.227467 0
M  V30 41 H 40.106754 34.729437 63.695517 0
M  V30 42 H 38.990721 28.654672 60.705466 0
M  V30 43 H 37.425236 29.388297 60.362030 0
M  V30 44 H 37.256603 26.471024 54.670050 0
M  V30 45 H 37.139128 29.814256 55.947716 0
M  V30 46 H 37.614861 31.175073 56.968973 0
M  V30 47 H 40.795970 30.544276 54.426244 0
M  V30 48 H 39.385013 29.599521 53.925561 0
M  V30 49 H 37.654257 32.650485 61.425002 0
M  V30 50 H 38.445135 33.316037 62.832200 0
M  V30 51 H 41.645142 30.009016 62.232595 0
M  V30 52 H 42.638892 30.738588 63.448651 0
M  V30 53 H 38.576473 35.933299 62.967777 0
M  V30 54 H 40.560804 28.482414 56.089891 0
M  V30 55 H 37.931742 27.658074 58.682970 0
M  V30 56 H 37.630831 29.216419 58.041368 0
M  V30 57 H 39.907487 30.883990 56.627647 0
M  V30 58 H 36.612366 34.833744 61.928516 0
M  V30 59 H 37.403034 34.840697 60.373669 0
M  V30 60 H 37.224253 32.416602 55.203746 0
M  V30 61 H 41.255356 32.084610 60.627235 0
M  V30 62 H 39.445633 32.545102 54.679138 0
M  V30 63 H 38.845138 31.879606 53.154669 0
M  V30 64 H 39.531252 33.589449 60.025023 0
M  V30 65 H 38.654572 38.120033 61.631686 0
M  V30 66 H 40.967112 29.088573 64.402848 0
M  V30 67 H 40.736316 30.694004 65.082153 0
M  V30 68 H 39.649828 30.107351 63.830224 0
M  V30 69 H 41.406658 34.720057 60.967764 0
M  V30 70 H 36.870061 38.289931 60.207097 0
M  V30 71 H 36.998705 31.083342 54.280124 0
M  V30 END ATOM
M  V30 BEGIN BOND
M  V30 1 1 4 1
M  V30 2 1 9 3
M  V30 3 2 9 6
M  V30 4 2 11 7
M  V30 5 1 11 10
M  V30 6 1 15 7
M  V30 7 1 18 4
M  V30 8 1 18 10
M  V30 9 1 19 4
M  V30 10 1 19 5
M  V30 11 1 20 8
M  V30 12 1 20 12
M  V30 13 1 20 18
M  V30 14 1 22 9
M  V30 15 1 22 16
M  V30 16 1 23 13
M  V30 17 1 23 17
M  V30 18 1 24 8
M  V30 19 1 25 21
M  V30 20 1 25 22
M  V30 21 1 26 12
M  V30 22 1 26 24
M  V30 23 1 27 5
M  V30 24 2 27 14
M  V30 25 1 27 21
M  V30 26 1 28 13
M  V30 27 1 28 25
M  V30 28 1 29 17
M  V30 29 1 30 2
M  V30 30 1 30 17
M  V30 31 1 31 1
M  V30 32 1 31 11
M  V30 33 1 32 16
M  V30 34 1 33 3
M  V30 35 1 33 28
M  V30 36 1 33 29
M  V30 37 1 34 30
M  V30 38 1 35 1
M  V30 39 1 36 1
M  V30 40 1 37 2
M  V30 41 1 38 2
M  V30 42 1 39 2
M  V30 43 1 40 3
M  V30 44 1 41 3
M  V30 45 1 42 5
M  V30 46 1 43 5
M  V30 47 1 44 7
M  V30 48 1 45 8
M  V30 49 1 46 8
M  V30 50 1 47 12
M  V30 51 1 48 12
M  V30 52 1 49 13
M  V30 53 1 50 13
M  V30 54 1 51 16
M  V30 55 1 52 16
M  V30 56 1 17 53 CFG=1
M  V30 57 1 18 54 CFG=3
M  V30 58 1 55 19
M  V30 59 1 56 19
M  V30 60 1 20 57 CFG=1
M  V30 61 1 58 23
M  V30 62 1 59 23
M  V30 63 1 60 24
M  V30 64 1 25 61 CFG=3
M  V30 65 1 62 26
M  V30 66 1 63 26
M  V30 67 1 28 64 CFG=3
M  V30 68 1 30 65 CFG=3
M  V30 69 1 66 32
M  V30 70 1 67 32
M  V30 71 1 68 32
M  V30 72 1 33 69 CFG=3
M  V30 73 1 70 34
M  V30 74 1 71 24
M  V30 END BOND
M  V30 END CTAB
M  END
>  <i_epik_Tot_Q>  (1) 
0

>  <i_epik_Tot_abs_Q>  (1) 
2

>  <i_i_glide_confnum>  (1) 
133

>  <i_i_glide_lignum>  (1) 
6

>  <i_i_glide_posenum>  (1) 
340

>  <i_i_glide_rotatable_bonds>  (1) 
9

>  <i_lp_mmshare_version>  (1) 
72125

>  <i_m_source_file_index>  (1) 
5

>  <i_f3d_flags>  (1) 
0

>  <num_sample>  (1) 
100

>  <b_lp_Chiralities_Consistent>  (1) 
1

>  <r_epik_Charging_Adjusted_Penalty>  (1) 
0.4511966576135748

>  <r_epik_Ionization_Penalty>  (1) 
0.22596636941758144

>  <r_epik_Ionization_Penalty_Charging>  (1) 
0.2259645209400469

>  <r_epik_Ionization_Penalty_Neutral>  (1) 
1.8484775345295036e-06

>  <r_epik_State_Penalty>  (1) 
0.2252321366735279

>  <r_glide_ring_energy>  (1) 
1.7395171629556041

>  <r_i_docking_score>  (1) 
-6.5055962946793704

>  <r_i_glide_ecoul>  (1) 
-0.72086781387538235

>  <r_i_glide_eff_state_penalty>  (1) 
0.2252321366735279

>  <r_i_glide_einternal>  (1) 
7.9475492449046694

>  <r_i_glide_emodel>  (1) 
-58.734221980963177

>  <r_i_glide_emodel_strain>  (1) 
0.86394647896625543

>  <r_i_glide_energy>  (1) 
-42.717913633155177

>  <r_i_glide_erotb>  (1) 
0.57244041532536438

>  <r_i_glide_esite>  (1) 
-0.094803471050408372

>  <r_i_glide_evdw>  (1) 
-41.997045819279798

>  <r_i_glide_gscore>  (1) 
-6.7308284313528981

>  <r_i_glide_gscore_strain>  (1) 
0

>  <r_i_glide_hbond>  (1) 
-0.26151519619325625

>  <r_i_glide_ligand_efficiency>  (1) 
-0.19134106749056973

>  <r_i_glide_ligand_efficiency_ln>  (1) 
-1.4372686972898716

>  <r_i_glide_ligand_efficiency_sa>  (1) 
-0.61987078031148113

>  <r_i_glide_lipo>  (1) 
-3.3016888023128454

>  <r_i_glide_metal>  (1) 
-0

>  <r_i_glide_rewards>  (1) 
-1.4372789140764552

>  <r_lp_Energy>  (1) 
57.065157999999997

>  <s_epik_Chemistry_Notes>  (1) 
This compound has an ester and may undergo hydrolysis at high or low pH. This compound contains an acetal/aminal-like group ( X-CH(R)-Y where X, Y are N, S, or O) that may be acid/base labile, releasing an aldehyde.

>  <s_epik_cmdline>  (1) 
J2VwaWtfcHl0aG9uJywgJy1waHQnLCAnMS4wJywgJy1waCcsICc3LjQnLCAnLXRuJywgJzgnLCAnLW1hJywgJzUwMCcsICctaW1hZScsICc8aW5maWxlLm1hZT4nLCAnLW9tYWUnLCAnPG91dGZpbGUubWFlPic=

>  <s_epik_input>  (1) 
W0NIMl0xW0NIMl1bTkhdW0NIMl1bQ0BIXTFbQ0BASF0yT1tDQEBIXShbQ0hdPU8pU1tDSDJdTjJbQ0gyXVtDSDJdQyg9TylPW0NAQEhdM04oW0NIMl1bQ0gzXSlDKD1PKVtDSDJdW0NAQEhdKFtDQEBIXTM0KU9bQ0BIXShbQ0gyXVtDSDJdNClbQ0BIXShbQ0gzXSlbT0hd

>  <s_glide_docking_method>  (1) 
confgen

>  <s_i_glide_gridfile>  (1) 
gpcr_5ht2c_6bqh_protein_autoprepared_prepared

>  <s_lp_Force_Field>  (1) 
S-OPLS

>  <s_lp_Variant>  (1) 
DiffSBDD_4-1

>  <s_m_source_file>  (1) 
generated_GPCR_5HT2C_ligand_DiffSBDD_2026-06-23_prepared.sdf

>  <GenAI_Model>  (1) 
DiffSBDD

>  <Protein>  (1) 
GPCR_5HT2C

$$$$
DiffSBDD_12
     RDKit          3D

  0  0  0  0  0  0  0  0  0  0999 V3000
M  V30 BEGIN CTAB
M  V30 COUNTS 68 70 0 0 1
M  V30 BEGIN ATOM
M  V30 1 C 38.085071 36.875863 62.069494 0 CFG=1
M  V30 2 C 37.705397 28.226904 57.665056 0
M  V30 3 N 38.061106 35.455679 61.654792 0 CFG=1 CHG=1
M  V30 4 C 39.393890 32.242478 56.320659 0
M  V30 5 O 35.781150 34.087637 59.037564 0
M  V30 6 O 36.340258 38.498488 61.367787 0
M  V30 7 N 39.645106 28.680917 55.103550 0 CHG=-1
M  V30 8 C 39.141177 28.754874 53.858315 0
M  V30 9 O 40.346833 27.419197 57.213077 0
M  V30 10 C 36.880379 35.323928 60.781678 0 CFG=1
M  V30 11 C 39.939565 31.159809 51.189174 0
M  V30 12 S 37.779429 31.391900 59.545659 0
M  V30 13 C 37.701157 29.541823 57.624708 0
M  V30 14 C 39.313969 34.983144 61.025124 0
M  V30 15 C 39.424929 29.837325 51.683674 0 CFG=1
M  V30 16 C 38.016951 33.253637 59.625442 0 CFG=1
M  V30 17 O 38.957409 30.771821 60.174268 0
M  V30 18 O 40.445168 29.552219 49.618013 0
M  V30 19 C 36.869783 36.601846 59.940290 0
M  V30 20 C 40.325284 28.914433 50.885596 0 CFG=2
M  V30 21 C 37.810181 27.357528 56.436792 0
M  V30 22 N 40.045133 30.937875 49.767791 0
M  V30 23 O 38.319695 27.981239 53.365770 0
M  V30 24 O 39.764090 26.104929 55.157081 0
M  V30 25 C 36.715900 33.952870 60.088759 0 CFG=2
M  V30 26 C 39.167811 33.514513 60.620458 0
M  V30 27 C 37.958060 31.837126 56.660891 0
M  V30 28 C 37.814047 30.839486 57.809575 0
M  V30 29 O 36.450253 31.050560 60.079168 0
M  V30 30 C 37.392079 37.664744 60.918826 0 CFG=2
M  V30 31 C 37.405689 36.981772 63.451328 0
M  V30 32 C 39.767539 27.506372 50.673817 0
M  V30 33 S 39.569074 27.317339 55.968329 0
M  V30 34 N 39.645159 29.738005 53.113839 0
M  V30 35 H 39.112785 37.227736 62.176975 0
M  V30 36 H 37.645238 27.708300 58.593216 0
M  V30 37 H 39.411010 32.818709 55.395678 0
M  V30 38 H 39.824436 32.870888 57.096736 0
M  V30 39 H 40.032292 31.371378 56.175841 0
M  V30 40 H 36.149555 34.587176 58.322249 0
M  V30 41 H 36.045057 39.038334 60.640767 0
M  V30 42 H 36.045165 35.384892 61.470806 0
M  V30 43 H 39.292700 32.003691 51.430531 0
M  V30 44 H 40.936751 31.339174 51.589755 0
M  V30 45 H 39.574232 35.601400 60.167835 0
M  V30 46 H 40.131976 35.082875 61.741152 0
M  V30 47 H 38.402301 29.640542 51.395968 0
M  V30 48 H 38.323556 33.626369 58.651951 0
M  V30 49 H 37.549354 36.508193 59.093536 0
M  V30 50 H 35.882669 36.830526 59.539945 0
M  V30 51 H 41.308887 28.862056 51.355788 0
M  V30 52 H 37.496949 26.341411 56.668435 0
M  V30 53 H 37.245162 27.706151 55.579388 0
M  V30 54 H 40.802456 31.493849 49.390012 0
M  V30 55 H 36.251131 33.320478 60.845619 0
M  V30 56 H 40.102078 33.151672 60.196233 0
M  V30 57 H 39.001662 32.931942 61.529165 0
M  V30 58 H 37.507613 31.393627 55.770301 0
M  V30 59 H 37.362008 32.725313 56.867710 0
M  V30 60 H 38.110965 38.310028 60.414148 0
M  V30 61 H 37.234819 38.010781 63.741968 0
M  V30 62 H 36.431131 36.493199 63.474341 0
M  V30 63 H 38.024691 36.537745 64.229818 0
M  V30 64 H 39.645091 26.952958 51.601741 0
M  V30 65 H 38.810302 27.538612 50.167747 0
M  V30 66 H 40.445081 26.924961 50.064608 0
M  V30 67 H 40.306673 30.372580 53.533139 0
M  V30 68 H 37.914013 34.888039 62.476787 0
M  V30 END ATOM
M  V30 BEGIN BOND
M  V30 1 1 3 1
M  V30 2 1 8 7
M  V30 3 1 10 3
M  V30 4 2 13 2
M  V30 5 1 14 3
M  V30 6 1 15 11
M  V30 7 1 16 12
M  V30 8 2 17 12
M  V30 9 1 19 10
M  V30 10 1 20 15
M  V30 11 1 20 18
M  V30 12 1 21 2
M  V30 13 1 22 11
M  V30 14 1 22 18
M  V30 15 2 23 8
M  V30 16 1 25 5
M  V30 17 1 25 10
M  V30 18 1 25 16
M  V30 19 1 26 14
M  V30 20 1 26 16
M  V30 21 1 27 4
M  V30 22 1 28 12
M  V30 23 2 28 13
M  V30 24 1 28 27
M  V30 25 2 29 12
M  V30 26 1 30 1
M  V30 27 1 30 6
M  V30 28 1 30 19
M  V30 29 1 31 1
M  V30 30 1 32 20
M  V30 31 1 33 7
M  V30 32 2 33 9
M  V30 33 1 33 21
M  V30 34 2 33 24
M  V30 35 1 34 8
M  V30 36 1 34 15
M  V30 37 1 1 35 CFG=1
M  V30 38 1 36 2
M  V30 39 1 37 4
M  V30 40 1 38 4
M  V30 41 1 39 4
M  V30 42 1 40 5
M  V30 43 1 41 6
M  V30 44 1 10 42 CFG=1
M  V30 45 1 43 11
M  V30 46 1 44 11
M  V30 47 1 45 14
M  V30 48 1 46 14
M  V30 49 1 15 47 CFG=1
M  V30 50 1 16 48 CFG=3
M  V30 51 1 49 19
M  V30 52 1 50 19
M  V30 53 1 20 51 CFG=1
M  V30 54 1 52 21
M  V30 55 1 53 21
M  V30 56 1 54 22
M  V30 57 1 25 55 CFG=1
M  V30 58 1 56 26
M  V30 59 1 57 26
M  V30 60 1 58 27
M  V30 61 1 59 27
M  V30 62 1 30 60 CFG=3
M  V30 63 1 61 31
M  V30 64 1 62 31
M  V30 65 1 63 31
M  V30 66 1 64 32
M  V30 67 1 65 32
M  V30 68 1 66 32
M  V30 69 1 67 34
M  V30 70 1 3 68 CFG=1
M  V30 END BOND
M  V30 END CTAB
M  END
>  <i_epik_Tot_Q>  (1) 
0

>  <i_epik_Tot_abs_Q>  (1) 
2

>  <i_i_glide_confnum>  (1) 
651

>  <i_i_glide_lignum>  (1) 
19

>  <i_i_glide_posenum>  (1) 
295

>  <i_i_glide_rotatable_bonds>  (1) 
11

>  <i_lp_mmshare_version>  (1) 
72125

>  <i_m_source_file_index>  (1) 
13

>  <i_f3d_flags>  (1) 
0

>  <num_sample>  (1) 
100

>  <b_lp_Chiralities_Consistent>  (1) 
1

>  <r_epik_Charging_Adjusted_Penalty>  (1) 
0.60912623126161669

>  <r_epik_Ionization_Penalty>  (1) 
0.30573665464692801

>  <r_epik_Ionization_Penalty_Charging>  (1) 
0.30464155940026277

>  <r_epik_Ionization_Penalty_Neutral>  (1) 
0.0010950952466652615

>  <r_epik_State_Penalty>  (1) 
0.30448467186135392

>  <r_glide_ring_energy>  (1) 
0

>  <r_i_docking_score>  (1) 
-6.50480752126707

>  <r_i_glide_ecoul>  (1) 
-4.7919805974423104

>  <r_i_glide_eff_state_penalty>  (1) 
0.30448467186135392

>  <r_i_glide_einternal>  (1) 
5.3203928299684966

>  <r_i_glide_emodel>  (1) 
-54.062282444943492

>  <r_i_glide_emodel_strain>  (1) 
2.8166709153996479

>  <r_i_glide_energy>  (1) 
-43.242659030593543

>  <r_i_glide_erotb>  (1) 
0.67758354065758886

>  <r_i_glide_esite>  (1) 
-0.11259301165857456

>  <r_i_glide_evdw>  (1) 
-38.450678433151232

>  <r_i_glide_gscore>  (1) 
-6.8092921931284236

>  <r_i_glide_gscore_strain>  (1) 
0

>  <r_i_glide_hbond>  (1) 
-0.46053612774876862

>  <r_i_glide_ligand_efficiency>  (1) 
-0.19131786827256089

>  <r_i_glide_ligand_efficiency_ln>  (1) 
-1.4370944351187496

>  <r_i_glide_ligand_efficiency_sa>  (1) 
-0.61979562385103937

>  <r_i_glide_lipo>  (1) 
-2.9060054074057327

>  <r_i_glide_metal>  (1) 
-0

>  <r_i_glide_rewards>  (1) 
-1.3664101756990286

>  <r_lp_Energy>  (1) 
-2.0210079999999997

>  <s_epik_Chemistry_Notes>  (1) 
This compound has a N-S or N-O group and may undergo hydrolysis at high or low pH.

>  <s_epik_cmdline>  (1) 
J2VwaWtfcHl0aG9uJywgJy1waHQnLCAnMS4wJywgJy1waCcsICc3LjQnLCAnLXRuJywgJzgnLCAnLW1hJywgJzUwMCcsICctaW1hZScsICc8aW5maWxlLm1hZT4nLCAnLW9tYWUnLCAnPG91dGZpbGUubWFlPic=

>  <s_epik_input>  (1) 
W0NIM11bQ0BASF0xW0NASF0oW09IXSlbQ0gyXVtDQEhdKE4xMilbQ0BASF0oW09IXSlbQ0BASF0oW0NIMl1bQ0gyXTIpUyg9TykoPU8pQyhbQ0gyXVtDSDNdKT1DPVtDSF1bQ0gyXVMoPU8pKD1PKVtOSF1DKD1PKVtOSF1bQ0BIXTNbQ0gyXVtOSF1PW0NAQEhdM1tDSDNd

>  <s_glide_docking_method>  (1) 
confgen

>  <s_i_glide_gridfile>  (1) 
gpcr_5ht2c_6bqh_protein_autoprepared_prepared

>  <s_lp_Force_Field>  (1) 
S-OPLS

>  <s_lp_Variant>  (1) 
DiffSBDD_12-1

>  <s_m_source_file>  (1) 
generated_GPCR_5HT2C_ligand_DiffSBDD_2026-06-23_prepared.sdf

>  <GenAI_Model>  (1) 
DiffSBDD

>  <Protein>  (1) 
GPCR_5HT2C

$$$$
DiffSBDD_83
     RDKit          3D

  0  0  0  0  0  0  0  0  0  0999 V3000
M  V30 BEGIN CTAB
M  V30 COUNTS 54 55 0 0 1
M  V30 BEGIN ATOM
M  V30 1 C 41.245144 33.846163 64.229492 0
M  V30 2 C 38.314813 29.481290 58.075093 0
M  V30 3 N 37.645151 30.644562 58.331466 0
M  V30 4 O 37.245136 26.386463 54.873990 0
M  V30 5 O 41.629162 35.073745 63.862862 0
M  V30 6 C 39.828191 31.995056 63.355179 0
M  V30 7 C 40.151455 31.071181 64.526227 0
M  V30 8 C 38.088194 25.006944 56.393967 0
M  V30 9 C 38.977869 27.172344 51.562674 0
M  V30 10 C 40.328563 33.251135 63.227537 0
M  V30 11 C 38.053758 28.657403 56.862574 0
M  V30 12 C 39.745724 30.813759 61.177218 0
M  V30 13 N 38.044954 31.257440 59.458615 0
M  V30 14 O 42.445136 35.737756 64.859124 0
M  V30 15 C 39.384174 27.599067 54.809994 0 CFG=1
M  V30 16 C 39.309393 30.099211 54.097211 0
M  V30 17 C 37.041892 25.581116 55.916319 0
M  V30 18 O 41.613198 33.292800 65.267735 0
M  V30 19 C 38.670673 26.221789 54.730167 0 CFG=1
M  V30 20 C 39.196144 29.301379 59.096752 0
M  V30 21 O 39.213746 25.317523 55.741423 0
M  V30 22 C 39.370485 28.463615 52.271870 0
M  V30 23 C 38.882437 28.651020 53.741211 0 CFG=1
M  V30 24 C 38.996438 30.444195 59.932083 0
M  V30 25 Cl 38.045180 23.952507 57.758195 0
M  V30 26 C 38.901283 31.413109 62.306629 0
M  V30 27 C 39.381294 28.105792 56.280067 0
M  V30 28 H 36.916194 31.043909 57.739342 0
M  V30 29 H 39.601986 30.137730 64.439538 0
M  V30 30 H 41.212564 30.819442 64.547793 0
M  V30 31 H 39.867852 31.511220 65.482299 0
M  V30 32 H 39.089056 27.274937 50.482830 0
M  V30 33 H 39.614286 26.341211 51.861538 0
M  V30 34 H 37.936429 26.937760 51.768307 0
M  V30 35 H 40.063580 33.852582 62.370231 0
M  V30 36 H 37.493463 29.238123 56.130947 0
M  V30 37 H 37.401492 27.838469 57.153255 0
M  V30 38 H 40.526579 31.521981 60.899500 0
M  V30 39 H 40.269310 29.936512 61.559752 0
M  V30 40 H 41.887232 36.464439 65.102526 0
M  V30 41 H 40.417290 27.337750 54.601879 0
M  V30 42 H 40.394966 30.190281 54.147143 0
M  V30 43 H 38.912377 30.456815 55.043541 0
M  V30 44 H 38.959752 30.814616 53.352808 0
M  V30 45 H 36.021249 25.512727 56.252273 0
M  V30 46 H 38.831203 25.737756 53.774727 0
M  V30 47 H 39.898227 28.489806 59.221798 0
M  V30 48 H 38.931817 29.267215 51.678251 0
M  V30 49 H 40.445100 28.610272 52.167752 0
M  V30 50 H 37.791511 28.634023 53.737607 0
M  V30 51 H 38.210951 30.681497 62.725832 0
M  V30 52 H 38.289794 32.229811 61.919453 0
M  V30 53 H 40.127256 28.899728 56.333219 0
M  V30 54 H 39.777230 27.344024 56.952139 0
M  V30 END ATOM
M  V30 BEGIN BOND
M  V30 1 1 3 2
M  V30 2 1 5 1
M  V30 3 1 7 6
M  V30 4 1 10 1
M  V30 5 2 10 6
M  V30 6 1 11 2
M  V30 7 1 13 3
M  V30 8 1 14 5
M  V30 9 1 17 4
M  V30 10 2 17 8
M  V30 11 2 18 1
M  V30 12 1 19 4
M  V30 13 1 19 15
M  V30 14 2 20 2
M  V30 15 1 21 8
M  V30 16 1 21 19
M  V30 17 1 22 9
M  V30 18 1 23 15
M  V30 19 1 23 16
M  V30 20 1 23 22
M  V30 21 1 24 12
M  V30 22 2 24 13
M  V30 23 1 24 20
M  V30 24 1 25 8
M  V30 25 1 26 6
M  V30 26 1 26 12
M  V30 27 1 27 11
M  V30 28 1 27 15
M  V30 29 1 28 3
M  V30 30 1 29 7
M  V30 31 1 30 7
M  V30 32 1 31 7
M  V30 33 1 32 9
M  V30 34 1 33 9
M  V30 35 1 34 9
M  V30 36 1 35 10
M  V30 37 1 36 11
M  V30 38 1 37 11
M  V30 39 1 38 12
M  V30 40 1 39 12
M  V30 41 1 40 14
M  V30 42 1 15 41 CFG=3
M  V30 43 1 42 16
M  V30 44 1 43 16
M  V30 45 1 44 16
M  V30 46 1 45 17
M  V30 47 1 19 46 CFG=3
M  V30 48 1 47 20
M  V30 49 1 48 22
M  V30 50 1 49 22
M  V30 51 1 23 50 CFG=3
M  V30 52 1 51 26
M  V30 53 1 52 26
M  V30 54 1 53 27
M  V30 55 1 54 27
M  V30 END BOND
M  V30 END CTAB
M  END
>  <i_epik_Tot_Q>  (1) 
0

>  <i_epik_Tot_abs_Q>  (1) 
0

>  <i_i_glide_confnum>  (1) 
1541

>  <i_i_glide_lignum>  (1) 
191

>  <i_i_glide_posenum>  (1) 
51

>  <i_i_glide_rotatable_bonds>  (1) 
12

>  <i_lp_mmshare_version>  (1) 
72125

>  <i_m_source_file_index>  (1) 
84

>  <i_f3d_flags>  (1) 
0

>  <num_sample>  (1) 
100

>  <b_lp_Chiralities_Consistent>  (1) 
1

>  <r_epik_Charging_Adjusted_Penalty>  (1) 
0.41067983895260396

>  <r_epik_Ionization_Penalty>  (1) 
0.00076996626271645392

>  <r_epik_Ionization_Penalty_Charging>  (1) 
0

>  <r_epik_Ionization_Penalty_Neutral>  (1) 
0.00076996626271645392

>  <r_epik_State_Penalty>  (1) 
0.41067983895260396

>  <r_glide_ring_energy>  (1) 
0

>  <r_i_docking_score>  (1) 
-6.5022046747717752

>  <r_i_glide_ecoul>  (1) 
-6.0311613547166587

>  <r_i_glide_eff_state_penalty>  (1) 
0.41067983895260396

>  <r_i_glide_einternal>  (1) 
10.213826837141346

>  <r_i_glide_emodel>  (1) 
-54.54526159231439

>  <r_i_glide_emodel_strain>  (1) 
2.1289393056486858

>  <r_i_glide_energy>  (1) 
-42.295299080805542

>  <r_i_glide_erotb>  (1) 
1.1080255732668134

>  <r_i_glide_esite>  (1) 
-0.11467852470168788

>  <r_i_glide_evdw>  (1) 
-36.264137726088883

>  <r_i_glide_gscore>  (1) 
-6.9128845137243795

>  <r_i_glide_gscore_strain>  (1) 
0

>  <r_i_glide_hbond>  (1) 
-0.35914089864327658

>  <r_i_glide_ligand_efficiency>  (1) 
-0.2408223953619176

>  <r_i_glide_ligand_efficiency_ln>  (1) 
-1.5136060510648877

>  <r_i_glide_ligand_efficiency_sa>  (1) 
-0.722467186085753

>  <r_i_glide_lipo>  (1) 
-3.1675350514677079

>  <r_i_glide_metal>  (1) 
-0

>  <r_i_glide_rewards>  (1) 
-1.661674522666579

>  <r_lp_Energy>  (1) 
13.026332

>  <r_lp_tautomer_probability>  (1) 
0.5

>  <s_epik_Chemistry_Notes>  (1) 
This compound contains an acetal/aminal-like group ( X-CH(R)-Y where X, Y are N, S, or O) that may be acid/base labile, releasing an aldehyde.

>  <s_epik_cmdline>  (1) 
J2VwaWtfcHl0aG9uJywgJy1waHQnLCAnMS4wJywgJy1waCcsICc3LjQnLCAnLXRuJywgJzgnLCAnLW1hJywgJzUwMCcsICctaW1hZScsICc8aW5maWxlLm1hZT4nLCAnLW9tYWUnLCAnPG91dGZpbGUubWFlPic=

>  <s_epik_input>  (1) 
W09IXU9DKD1PKS9bQ0hdPUMoXFtDSDNdKVtDSDJdW0NIMl1jKFtjSF0xKW5bbkhdYzFbQ0gyXVtDSDJdW0NASF0oW0NAQEhdKFtDSDNdKVtDSDJdW0NIM10pW0NAQEhdKE8yKU9bQ0hdPUMyQ2w=

>  <s_glide_docking_method>  (1) 
confgen

>  <s_i_glide_gridfile>  (1) 
gpcr_5ht2c_6bqh_protein_autoprepared_prepared

>  <s_lp_Force_Field>  (1) 
S-OPLS

>  <s_lp_Variant>  (1) 
DiffSBDD_83-2

>  <s_m_source_file>  (1) 
generated_GPCR_5HT2C_ligand_DiffSBDD_2026-06-23_prepared.sdf

>  <GenAI_Model>  (1) 
DiffSBDD

>  <Protein>  (1) 
GPCR_5HT2C

$$$$
DiffSBDD_20
     RDKit          3D

  0  0  0  0  0  0  0  0  0  0999 V3000
M  V30 BEGIN CTAB
M  V30 COUNTS 53 54 0 0 1
M  V30 BEGIN ATOM
M  V30 1 C 39.098842 30.669117 56.379452 0 CFG=2
M  V30 2 O 40.613147 31.184399 54.567766 0
M  V30 3 O 38.964814 28.319354 60.415117 0
M  V30 4 P 38.827587 29.204438 59.245501 0
M  V30 5 C 38.309047 30.476118 54.059218 0 CFG=1
M  V30 6 N 37.275486 24.843432 56.349712 0
M  V30 7 C 39.935915 29.448428 52.168914 0
M  V30 8 C 40.887904 30.512413 50.069293 0
M  V30 9 C 39.798816 29.309529 56.553696 0
M  V30 10 C 40.495894 27.290788 57.956318 0 CFG=2
M  V30 11 N 37.645229 30.463690 56.408243 0 CHG=1
M  V30 12 C 39.285812 31.241555 54.980288 0
M  V30 13 F 37.979775 25.337659 54.195827 0
M  V30 14 C 39.741614 30.506331 51.082287 0
M  V30 15 C 38.158451 25.452067 55.525755 0
M  V30 16 O 38.735909 30.667235 59.419527 0 CHG=-1
M  V30 17 O 37.479674 28.722765 58.353766 0
M  V30 18 C 39.383891 26.403741 57.388778 0
M  V30 19 C 39.238355 26.219066 56.002051 0
M  V30 20 C 40.147828 28.801179 57.971190 0 CFG=2
M  V30 21 C 37.439171 25.014252 57.677879 0
M  V30 22 O 37.737679 28.595135 52.584903 0
M  V30 23 C 38.467662 25.783323 58.239354 0
M  V30 24 C 38.823492 29.237221 53.234142 0 CFG=2
M  V30 25 C 37.187411 30.089139 55.050868 0
M  V30 26 O 41.694181 27.213423 57.223956 0
M  V30 27 O 38.844921 32.575758 55.073788 0
M  V30 28 H 39.436934 31.375239 57.137557 0
M  V30 29 H 40.938412 30.304917 54.680743 0
M  V30 30 H 37.933301 31.214025 53.367780 0
M  V30 31 H 40.845058 29.737809 52.663629 0
M  V30 32 H 40.159887 28.490802 51.696161 0
M  V30 33 H 40.790464 31.349159 49.381886 0
M  V30 34 H 41.863553 30.582887 50.551961 0
M  V30 35 H 40.853183 29.603260 49.469622 0
M  V30 36 H 39.117155 28.611637 56.098205 0
M  V30 37 H 40.703208 29.230205 55.956172 0
M  V30 38 H 40.716883 26.961290 58.967831 0
M  V30 39 H 37.151165 31.324922 56.639612 0
M  V30 40 H 38.845148 30.286783 50.523155 0
M  V30 41 H 39.645097 31.494825 51.534388 0
M  V30 42 H 36.810463 28.547763 58.997608 0
M  V30 43 H 39.922150 26.687257 55.310546 0
M  V30 44 H 41.034981 29.336069 58.308296 0
M  V30 45 H 36.714905 24.537792 58.311935 0
M  V30 46 H 38.039149 27.799429 52.169811 0
M  V30 47 H 38.540347 25.904540 59.310772 0
M  V30 48 H 39.213701 28.497106 53.929367 0
M  V30 49 H 36.254245 30.606356 54.825866 0
M  V30 50 H 36.985574 29.020157 55.016328 0
M  V30 51 H 41.986230 26.307672 57.177393 0
M  V30 52 H 39.382379 33.024461 55.709284 0
M  V30 53 H 37.401873 29.765000 57.110475 0
M  V30 END ATOM
M  V30 BEGIN BOND
M  V30 1 2 4 3
M  V30 2 1 9 1
M  V30 3 1 11 1
M  V30 4 1 12 1
M  V30 5 1 12 2
M  V30 6 1 12 5
M  V30 7 1 14 7
M  V30 8 1 14 8
M  V30 9 2 15 6
M  V30 10 1 15 13
M  V30 11 1 16 4
M  V30 12 1 17 4
M  V30 13 1 18 10
M  V30 14 1 19 15
M  V30 15 2 19 18
M  V30 16 1 20 4
M  V30 17 1 20 9
M  V30 18 1 20 10
M  V30 19 1 21 6
M  V30 20 1 23 18
M  V30 21 2 23 21
M  V30 22 1 24 5
M  V30 23 1 24 7
M  V30 24 1 24 22
M  V30 25 1 25 5
M  V30 26 1 25 11
M  V30 27 1 26 10
M  V30 28 1 27 12
M  V30 29 1 1 28 CFG=1
M  V30 30 1 29 2
M  V30 31 1 5 30 CFG=3
M  V30 32 1 31 7
M  V30 33 1 32 7
M  V30 34 1 33 8
M  V30 35 1 34 8
M  V30 36 1 35 8
M  V30 37 1 36 9
M  V30 38 1 37 9
M  V30 39 1 10 38 CFG=1
M  V30 40 1 39 11
M  V30 41 1 40 14
M  V30 42 1 41 14
M  V30 43 1 42 17
M  V30 44 1 43 19
M  V30 45 1 20 44 CFG=1
M  V30 46 1 45 21
M  V30 47 1 46 22
M  V30 48 1 47 23
M  V30 49 1 24 48 CFG=1
M  V30 50 1 49 25
M  V30 51 1 50 25
M  V30 52 1 51 26
M  V30 53 1 52 27
M  V30 54 1 53 11
M  V30 END BOND
M  V30 END CTAB
M  END
>  <i_epik_Tot_Q>  (1) 
0

>  <i_epik_Tot_abs_Q>  (1) 
2

>  <i_i_glide_confnum>  (1) 
115

>  <i_i_glide_lignum>  (1) 
50

>  <i_i_glide_posenum>  (1) 
314

>  <i_i_glide_rotatable_bonds>  (1) 
13

>  <i_lp_mmshare_version>  (1) 
72125

>  <i_m_source_file_index>  (1) 
21

>  <i_f3d_flags>  (1) 
0

>  <num_sample>  (1) 
100

>  <b_lp_Chiralities_Consistent>  (1) 
1

>  <r_epik_Charging_Adjusted_Penalty>  (1) 
0.5459377507147144

>  <r_epik_Ionization_Penalty>  (1) 
0.54595169612510452

>  <r_epik_Ionization_Penalty_Charging>  (1) 
0.0068991791537532298

>  <r_epik_Ionization_Penalty_Neutral>  (1) 
0.53905251697135126

>  <r_epik_State_Penalty>  (1) 
0.53903857156096113

>  <r_glide_ring_energy>  (1) 
0

>  <r_i_docking_score>  (1) 
-6.5020513744960642

>  <r_i_glide_ecoul>  (1) 
-5.2162263227340953

>  <r_i_glide_eff_state_penalty>  (1) 
0.53903857156096113

>  <r_i_glide_einternal>  (1) 
8.2861217333386215

>  <r_i_glide_emodel>  (1) 
-52.859848585741432

>  <r_i_glide_emodel_strain>  (1) 
0.3955114636865531

>  <r_i_glide_energy>  (1) 
-31.18160784625654

>  <r_i_glide_erotb>  (1) 
0.70809137694380864

>  <r_i_glide_esite>  (1) 
-0.10000000000000001

>  <r_i_glide_evdw>  (1) 
-25.965381523522446

>  <r_i_glide_gscore>  (1) 
-7.0410899460570251

>  <r_i_glide_gscore_strain>  (1) 
0

>  <r_i_glide_hbond>  (1) 
-0.46334413204673786

>  <r_i_glide_ligand_efficiency>  (1) 
-0.24081671757392831

>  <r_i_glide_ligand_efficiency_ln>  (1) 
-1.5135703652880546

>  <r_i_glide_ligand_efficiency_sa>  (1) 
-0.72245015272178503

>  <r_i_glide_lipo>  (1) 
-3.2923649905488319

>  <r_i_glide_metal>  (1) 
-0

>  <r_i_glide_rewards>  (1) 
-1.8127691758190254

>  <r_lp_Energy>  (1) 
5.5430529999999996

>  <s_epik_cmdline>  (1) 
J2VwaWtfcHl0aG9uJywgJy1waHQnLCAnMS4wJywgJy1waCcsICc3LjQnLCAnLXRuJywgJzgnLCAnLW1hJywgJzUwMCcsICctaW1hZScsICc8aW5maWxlLm1hZT4nLCAnLW9tYWUnLCAnPG91dGZpbGUubWFlPic=

>  <s_epik_input>  (1) 
W0NIM11bQ0gyXVtDSDJdW0NAQEhdKFtPSF0pW0NASF0xW0NIMl1bTkhdW0NASF0oQzEoW09IXSlbT0hdKVtDSDJdW0NAQEhdKFAoPU8pKFtPSF0pW09IXSlbQ0BIXShbT0hdKWMoW2NIXTIpW2NIXVtjSF1uYzJG

>  <s_glide_docking_method>  (1) 
confgen

>  <s_i_glide_gridfile>  (1) 
gpcr_5ht2c_6bqh_protein_autoprepared_prepared

>  <s_lp_Force_Field>  (1) 
S-OPLS

>  <s_lp_Variant>  (1) 
DiffSBDD_20-4

>  <s_m_source_file>  (1) 
generated_GPCR_5HT2C_ligand_DiffSBDD_2026-06-23_prepared.sdf

>  <GenAI_Model>  (1) 
DiffSBDD

>  <Protein>  (1) 
GPCR_5HT2C

$$$$
DiffSBDD_79
     RDKit          3D

  0  0  0  0  0  0  0  0  0  0999 V3000
M  V30 BEGIN CTAB
M  V30 COUNTS 42 42 0 0 1
M  V30 BEGIN ATOM
M  V30 1 C 38.657672 26.529202 55.218935 0
M  V30 2 O 38.470378 26.113151 58.185132 0
M  V30 3 C 38.905781 28.903173 55.833862 0
M  V30 4 C 40.431042 29.086520 61.893791 0
M  V30 5 O 38.267891 30.884448 59.396176 0
M  V30 6 C 38.511102 25.044346 55.562303 0
M  V30 7 C 38.870225 28.241444 53.487545 0
M  V30 8 O 38.305338 30.932557 61.682621 0
M  V30 9 C 36.445503 23.679142 56.046589 0
M  V30 10 C 35.847598 31.119972 59.547305 0
M  V30 11 C 38.730891 27.218198 57.713770 0
M  V30 12 C 38.985922 28.587911 52.084362 0
M  V30 13 C 38.712652 26.898868 53.859636 0
M  V30 14 C 39.309731 28.131233 59.858498 0
M  V30 15 C 37.130346 24.508295 55.248319 0
M  V30 16 C 38.760067 27.547477 56.232842 0
M  V30 17 C 39.826318 29.428011 60.515164 0 CFG=1
M  V30 18 O 39.041211 28.291965 58.472572 0
M  V30 19 C 37.195497 31.808242 59.284194 0
M  V30 20 C 38.717162 30.498430 60.602629 0
M  V30 21 O 41.245112 30.138019 62.370024 0
M  V30 22 N 39.107053 28.856203 50.967761 0
M  V30 23 C 38.958337 29.242883 54.470076 0
M  V30 24 H 38.982934 29.684590 56.575980 0
M  V30 25 H 41.052346 28.192020 61.832478 0
M  V30 26 H 39.645400 28.867475 62.616803 0
M  V30 27 H 39.167119 24.540474 54.853949 0
M  V30 28 H 38.910233 24.681274 56.502195 0
M  V30 29 H 35.463492 23.326626 55.765685 0
M  V30 30 H 36.849918 23.342554 56.987346 0
M  V30 31 H 35.025161 31.812359 59.367722 0
M  V30 32 H 35.709763 30.266019 58.883796 0
M  V30 33 H 35.764477 30.766456 60.574294 0
M  V30 34 H 38.649999 26.137997 53.096882 0
M  V30 35 H 40.073874 27.358802 59.956521 0
M  V30 36 H 38.436804 27.755668 60.384186 0
M  V30 37 H 36.692036 24.826326 54.313125 0
M  V30 38 H 40.622853 29.822916 59.884692 0
M  V30 39 H 37.339373 32.651950 59.961039 0
M  V30 40 H 37.212308 32.211511 58.271558 0
M  V30 41 H 41.433165 29.976685 63.284132 0
M  V30 42 H 39.082481 30.276392 54.178640 0
M  V30 END ATOM
M  V30 BEGIN BOND
M  V30 1 1 6 1
M  V30 2 2 11 2
M  V30 3 1 12 7
M  V30 4 1 13 1
M  V30 5 2 13 7
M  V30 6 1 15 6
M  V30 7 2 15 9
M  V30 8 2 16 1
M  V30 9 1 16 3
M  V30 10 1 16 11
M  V30 11 1 17 4
M  V30 12 1 17 14
M  V30 13 1 18 11
M  V30 14 1 18 14
M  V30 15 1 19 5
M  V30 16 1 19 10
M  V30 17 1 20 5
M  V30 18 2 20 8
M  V30 19 1 20 17
M  V30 20 1 21 4
M  V30 21 3 22 12
M  V30 22 2 23 3
M  V30 23 1 23 7
M  V30 24 1 24 3
M  V30 25 1 25 4
M  V30 26 1 26 4
M  V30 27 1 27 6
M  V30 28 1 28 6
M  V30 29 1 29 9
M  V30 30 1 30 9
M  V30 31 1 31 10
M  V30 32 1 32 10
M  V30 33 1 33 10
M  V30 34 1 34 13
M  V30 35 1 35 14
M  V30 36 1 36 14
M  V30 37 1 37 15
M  V30 38 1 17 38 CFG=3
M  V30 39 1 39 19
M  V30 40 1 40 19
M  V30 41 1 41 21
M  V30 42 1 42 23
M  V30 END BOND
M  V30 END CTAB
M  END
>  <i_epik_Tot_Q>  (1) 
0

>  <i_epik_Tot_abs_Q>  (1) 
0

>  <i_i_glide_confnum>  (1) 
182

>  <i_i_glide_lignum>  (1) 
185

>  <i_i_glide_posenum>  (1) 
299

>  <i_i_glide_rotatable_bonds>  (1) 
11

>  <i_lp_mmshare_version>  (1) 
72125

>  <i_m_source_file_index>  (1) 
80

>  <i_f3d_flags>  (1) 
0

>  <num_sample>  (1) 
100

>  <b_lp_Chiralities_Consistent>  (1) 
1

>  <r_epik_Charging_Adjusted_Penalty>  (1) 
0

>  <r_epik_Ionization_Penalty>  (1) 
1.2942401493755896e-07

>  <r_epik_Ionization_Penalty_Charging>  (1) 
0

>  <r_epik_Ionization_Penalty_Neutral>  (1) 
1.2942401493755896e-07

>  <r_epik_State_Penalty>  (1) 
-0

>  <r_glide_ring_energy>  (1) 
0

>  <r_i_docking_score>  (1) 
-6.5015175433481058

>  <r_i_glide_ecoul>  (1) 
-5.2295601849184559

>  <r_i_glide_eff_state_penalty>  (1) 
-0

>  <r_i_glide_einternal>  (1) 
2.2517614070868905

>  <r_i_glide_emodel>  (1) 
-59.141586814610775

>  <r_i_glide_emodel_strain>  (1) 
1.2684234002456787

>  <r_i_glide_energy>  (1) 
-43.715189760094439

>  <r_i_glide_erotb>  (1) 
1.6648782888351312

>  <r_i_glide_esite>  (1) 
0

>  <r_i_glide_evdw>  (1) 
-38.485629575175984

>  <r_i_glide_gscore>  (1) 
-6.5015175433481058

>  <r_i_glide_gscore_strain>  (1) 
0

>  <r_i_glide_hbond>  (1) 
-0.32000000000000001

>  <r_i_glide_ligand_efficiency>  (1) 
-0.28267467579774375

>  <r_i_glide_ligand_efficiency_ln>  (1) 
-1.5721258944832948

>  <r_i_glide_ligand_efficiency_sa>  (1) 
-0.80388917654144987

>  <r_i_glide_lipo>  (1) 
-2.6009392687896082

>  <r_i_glide_metal>  (1) 
-0

>  <r_i_glide_rewards>  (1) 
-2.5367410568970623

>  <r_lp_Energy>  (1) 
10.946185999999999

>  <r_lp_tautomer_probability>  (1) 
1

>  <s_epik_Chemistry_Notes>  (1) 
This compound has an ester and may undergo hydrolysis at high or low pH.

>  <s_epik_cmdline>  (1) 
J2VwaWtfcHl0aG9uJywgJy1waHQnLCAnMS4wJywgJy1waCcsICc3LjQnLCAnLXRuJywgJzgnLCAnLW1hJywgJzUwMCcsICctaW1hZScsICc8aW5maWxlLm1hZT4nLCAnLW9tYWUnLCAnPG91dGZpbGUubWFlPic=

>  <s_epik_input>  (1) 
W0NIMl09W0NIXVtDSDJdYzFbY0hdYyhDI04pW2NIXVtjSF1jMUMoPU8pT1tDSDJdW0NASF0oW0NIMl1bT0hdKUMoPU8pT1tDSDJdW0NIM10=

>  <s_glide_docking_method>  (1) 
confgen

>  <s_i_glide_gridfile>  (1) 
gpcr_5ht2c_6bqh_protein_autoprepared_prepared

>  <s_lp_Force_Field>  (1) 
S-OPLS

>  <s_lp_Variant>  (1) 
DiffSBDD_79-1

>  <s_m_source_file>  (1) 
generated_GPCR_5HT2C_ligand_DiffSBDD_2026-06-23_prepared.sdf

>  <GenAI_Model>  (1) 
DiffSBDD

>  <Protein>  (1) 
GPCR_5HT2C

$$$$
DiffSBDD_69
     RDKit          3D

  0  0  0  0  0  0  0  0  0  0999 V3000
M  V30 BEGIN CTAB
M  V30 COUNTS 57 57 0 0 1
M  V30 BEGIN ATOM
M  V30 1 C 38.582210 27.898491 58.589113 0
M  V30 2 N 35.558546 33.737921 58.967763 0 CHG=1
M  V30 3 C 37.006171 29.806001 58.383677 0
M  V30 4 C 36.895687 34.977454 60.638187 0 CFG=1
M  V30 5 C 37.988487 28.931918 59.139426 0
M  V30 6 C 36.923139 33.909428 59.504954 0 CFG=1
M  V30 7 C 39.149763 26.888168 57.968322 0
M  V30 8 C 39.489803 35.234224 60.767453 0
M  V30 9 C 38.379625 31.872570 58.801925 0
M  V30 10 C 37.498503 32.522193 59.894741 0
M  V30 11 C 37.803501 25.524954 56.356337 0
M  V30 12 C 39.074065 27.778790 54.157944 0 CFG=1
M  V30 13 C 38.668343 27.860189 55.637536 0
M  V30 14 C 38.144479 27.029102 53.204796 0
M  V30 15 N 37.645166 31.020990 57.835883 0 CHG=1
M  V30 16 C 38.937479 28.844107 51.741897 0
M  V30 17 C 38.166094 35.064259 61.523566 0
M  V30 18 C 36.575624 36.373233 60.058518 0
M  V30 19 S 39.245129 29.432650 53.429217 0
M  V30 20 C 38.698562 27.334494 51.808621 0
M  V30 21 C 38.912498 26.582948 56.491742 0 CFG=1
M  V30 22 H 34.928048 33.436913 59.696465 0
M  V30 23 H 35.238526 34.622977 58.598711 0
M  V30 24 H 36.574532 29.257221 57.548429 0
M  V30 25 H 36.169062 30.061322 59.033641 0
M  V30 26 H 36.081339 34.716266 61.316907 0
M  V30 27 H 38.179500 29.199289 60.167768 0
M  V30 28 H 37.529029 34.319684 58.696124 0
M  V30 29 H 39.822411 26.223756 58.492066 0
M  V30 30 H 40.323193 35.316624 61.465108 0
M  V30 31 H 39.699087 34.395216 60.104866 0
M  V30 32 H 39.477551 36.137712 60.167762 0
M  V30 33 H 39.151929 31.270789 59.281928 0
M  V30 34 H 38.925347 32.635953 58.246000 0
M  V30 35 H 36.715883 31.855062 60.255244 0
M  V30 36 H 38.158550 32.616836 60.751103 0
M  V30 37 H 37.987947 24.675923 57.016178 0
M  V30 38 H 36.829947 25.938924 56.620209 0
M  V30 39 H 37.735851 25.125922 55.347509 0
M  V30 40 H 40.045135 27.293384 54.105823 0
M  V30 41 H 37.645091 28.209164 55.727246 0
M  V30 42 H 39.285660 28.656483 56.055600 0
M  V30 43 H 38.126716 25.960583 53.392923 0
M  V30 44 H 37.121336 27.394729 53.295702 0
M  V30 45 H 38.296332 30.724155 57.122850 0
M  V30 46 H 38.045281 29.337728 51.367782 0
M  V30 47 H 39.764284 29.097714 51.077083 0
M  V30 48 H 38.055580 35.898536 62.218137 0
M  V30 49 H 38.241234 34.189997 62.167517 0
M  V30 50 H 37.359512 36.719479 59.384904 0
M  V30 51 H 35.645140 36.381214 59.493852 0
M  V30 52 H 36.475863 37.115585 60.851384 0
M  V30 53 H 38.045227 26.988951 51.010090 0
M  V30 54 H 39.645175 26.810219 51.675833 0
M  V30 55 H 39.848472 26.136242 56.153492 0
M  V30 56 H 35.546467 33.052514 58.213636 0
M  V30 57 H 36.906417 31.547550 57.367748 0
M  V30 END ATOM
M  V30 BEGIN BOND
M  V30 1 2 5 1
M  V30 2 1 5 3
M  V30 3 1 6 2
M  V30 4 1 6 4
M  V30 5 2 7 1
M  V30 6 1 10 6
M  V30 7 1 10 9
M  V30 8 1 13 12
M  V30 9 1 14 12
M  V30 10 1 15 3
M  V30 11 1 15 9
M  V30 12 1 17 4
M  V30 13 1 17 8
M  V30 14 1 18 4
M  V30 15 1 19 12
M  V30 16 1 19 16
M  V30 17 1 20 14
M  V30 18 1 20 16
M  V30 19 1 21 7
M  V30 20 1 21 11
M  V30 21 1 21 13
M  V30 22 1 22 2
M  V30 23 1 23 2
M  V30 24 1 24 3
M  V30 25 1 25 3
M  V30 26 1 4 26 CFG=1
M  V30 27 1 27 5
M  V30 28 1 6 28 CFG=3
M  V30 29 1 29 7
M  V30 30 1 30 8
M  V30 31 1 31 8
M  V30 32 1 32 8
M  V30 33 1 33 9
M  V30 34 1 34 9
M  V30 35 1 35 10
M  V30 36 1 36 10
M  V30 37 1 37 11
M  V30 38 1 38 11
M  V30 39 1 39 11
M  V30 40 1 12 40 CFG=1
M  V30 41 1 41 13
M  V30 42 1 42 13
M  V30 43 1 43 14
M  V30 44 1 44 14
M  V30 45 1 45 15
M  V30 46 1 46 16
M  V30 47 1 47 16
M  V30 48 1 48 17
M  V30 49 1 49 17
M  V30 50 1 50 18
M  V30 51 1 51 18
M  V30 52 1 52 18
M  V30 53 1 53 20
M  V30 54 1 54 20
M  V30 55 1 21 55 CFG=3
M  V30 56 1 56 2
M  V30 57 1 57 15
M  V30 END BOND
M  V30 END CTAB
M  END
>  <i_epik_Tot_Q>  (1) 
2

>  <i_epik_Tot_abs_Q>  (1) 
2

>  <i_i_glide_confnum>  (1) 
334

>  <i_i_glide_lignum>  (1) 
153

>  <i_i_glide_posenum>  (1) 
395

>  <i_i_glide_rotatable_bonds>  (1) 
10

>  <i_lp_mmshare_version>  (1) 
72125

>  <i_m_source_file_index>  (1) 
70

>  <i_f3d_flags>  (1) 
0

>  <num_sample>  (1) 
100

>  <b_lp_Chiralities_Consistent>  (1) 
1

>  <r_epik_Charging_Adjusted_Penalty>  (1) 
0.029112061252425856

>  <r_epik_Ionization_Penalty>  (1) 
0.014593894863530521

>  <r_epik_Ionization_Penalty_Charging>  (1) 
0.014593894863530521

>  <r_epik_Ionization_Penalty_Neutral>  (1) 
0

>  <r_epik_State_Penalty>  (1) 
0.014518166388895335

>  <r_glide_ring_energy>  (1) 
0

>  <r_i_docking_score>  (1) 
-6.4987695785675799

>  <r_i_glide_ecoul>  (1) 
-7.3065347862197161

>  <r_i_glide_eff_state_penalty>  (1) 
0.014518166388895335

>  <r_i_glide_einternal>  (1) 
10.336419149215676

>  <r_i_glide_emodel>  (1) 
-48.581551347146117

>  <r_i_glide_emodel_strain>  (1) 
1.0097141424888072

>  <r_i_glide_energy>  (1) 
-33.481329823555093

>  <r_i_glide_erotb>  (1) 
1.5199289784806138

>  <r_i_glide_esite>  (1) 
-0.17267680615264658

>  <r_i_glide_evdw>  (1) 
-26.174795037335379

>  <r_i_glide_gscore>  (1) 
-6.5132877449564752

>  <r_i_glide_gscore_strain>  (1) 
0

>  <r_i_glide_hbond>  (1) 
-0.40000000000000002

>  <r_i_glide_ligand_efficiency>  (1) 
-0.30946521802702759

>  <r_i_glide_ligand_efficiency_ln>  (1) 
-1.6068076463004126

>  <r_i_glide_ligand_efficiency_sa>  (1) 
-0.85379107176382119

>  <r_i_glide_lipo>  (1) 
-3.2880127836921988

>  <r_i_glide_metal>  (1) 
-0

>  <r_i_glide_rewards>  (1) 
-1.7678071637925168

>  <r_lp_Energy>  (1) 
-1.0378579999999999

>  <s_epik_cmdline>  (1) 
J2VwaWtfcHl0aG9uJywgJy1waHQnLCAnMS4wJywgJy1waCcsICc3LjQnLCAnLXRuJywgJzgnLCAnLW1hJywgJzUwMCcsICctaW1hZScsICc8aW5maWxlLm1hZT4nLCAnLW9tYWUnLCAnPG91dGZpbGUubWFlPic=

>  <s_epik_input>  (1) 
UzFbQ0gyXVtDSDJdW0NIMl1bQ0BASF0xW0NIMl1bQ0BIXShbQ0gzXSlbQ0hdPUM9W0NIXVtDSDJdW05IXVtDSDJdW0NIMl1bQ0BASF0oW05IMl0pW0NASF0oW0NIM10pW0NIMl1bQ0gzXQ==

>  <s_glide_docking_method>  (1) 
confgen

>  <s_i_glide_gridfile>  (1) 
gpcr_5ht2c_6bqh_protein_autoprepared_prepared

>  <s_lp_Force_Field>  (1) 
S-OPLS

>  <s_lp_Variant>  (1) 
DiffSBDD_69-1

>  <s_m_source_file>  (1) 
generated_GPCR_5HT2C_ligand_DiffSBDD_2026-06-23_prepared.sdf

>  <GenAI_Model>  (1) 
DiffSBDD

>  <Protein>  (1) 
GPCR_5HT2C

$$$$
DiffSBDD_17
     RDKit          3D

  0  0  0  0  0  0  0  0  0  0999 V3000
M  V30 BEGIN CTAB
M  V30 COUNTS 82 87 0 0 1
M  V30 BEGIN ATOM
M  V30 1 C 39.388050 28.294437 52.617477 0 CFG=1
M  V30 2 C 39.348252 29.539685 53.556789 0 CFG=1
M  V30 3 C 36.992976 31.331698 54.967791 0
M  V30 4 C 37.247074 36.060528 61.774159 0
M  V30 5 N 39.544461 34.887781 61.820331 0
M  V30 6 C 40.230237 33.687042 61.898032 0
M  V30 7 O 37.960878 29.454025 53.941608 0
M  V30 8 C 40.308352 29.737753 54.792024 0
M  V30 9 C 37.223459 25.835561 56.950141 0
M  V30 10 C 40.613188 30.795794 62.847464 0
M  V30 11 C 39.071297 32.660365 59.825911 0
M  V30 12 O 37.771531 27.107490 57.277938 0
M  V30 13 C 39.691127 32.486443 61.089454 0
M  V30 14 O 40.517075 28.722334 55.767771 0
M  V30 15 C 38.651139 31.515826 59.145117 0
M  V30 16 C 40.094537 36.087672 62.487722 0
M  V30 17 C 38.049091 31.539801 57.805791 0
M  V30 18 N 37.825207 29.342282 56.244086 0 CHG=1
M  V30 19 N 39.393441 30.043727 60.870728 0
M  V30 20 C 37.638214 29.980727 57.635320 0 CFG=1
M  V30 21 C 39.819197 31.043664 64.123790 0
M  V30 22 C 38.808969 30.302192 59.683593 0
M  V30 23 C 39.866750 31.126324 61.552091 0
M  V30 24 C 39.645135 30.796843 52.737732 0
M  V30 25 C 40.462222 26.786851 56.973369 0
M  V30 26 C 40.045143 30.802827 51.450866 0
M  V30 27 C 38.235673 35.068143 61.129269 0
M  V30 28 C 38.230037 27.870183 56.198014 0 CFG=1
M  V30 29 C 40.400650 28.308455 51.453420 0
M  V30 30 C 39.142133 26.934837 53.283086 0
M  V30 31 C 40.261554 29.571420 50.615553 0
M  V30 32 C 39.046619 36.890766 63.265828 0
M  V30 33 C 38.319255 29.181255 58.866066 0
M  V30 34 C 37.910931 37.308829 62.337188 0
M  V30 35 C 39.877445 26.615886 54.588866 0
M  V30 36 C 37.611930 29.997470 55.121390 0
M  V30 37 O 41.244979 33.558624 62.580904 0
M  V30 38 C 39.732255 27.545306 55.834719 0 CFG=1
M  V30 39 H 38.473088 28.396772 52.025974 0
M  V30 40 H 35.936677 31.121083 54.958863 0
M  V30 41 H 37.245559 32.112846 55.661584 0
M  V30 42 H 36.688183 35.569071 62.567655 0
M  V30 43 H 36.496545 36.348026 61.036035 0
M  V30 44 H 41.245158 30.137798 54.456741 0
M  V30 45 H 40.025504 30.618212 55.369305 0
M  V30 46 H 36.893147 25.339649 57.862106 0
M  V30 47 H 36.361765 25.923086 56.290126 0
M  V30 48 H 37.953599 25.185334 56.470314 0
M  V30 49 H 40.839410 29.728587 62.822915 0
M  V30 50 H 41.597979 31.256005 62.885362 0
M  V30 51 H 38.961608 33.628340 59.374135 0
M  V30 52 H 40.900621 35.853182 63.183534 0
M  V30 53 H 40.546588 36.720724 61.723411 0
M  V30 54 H 38.833598 31.843683 57.112426 0
M  V30 55 H 37.245106 32.264543 57.793607 0
M  V30 56 H 36.563265 29.928510 57.810585 0
M  V30 57 H 40.356132 30.673879 64.997872 0
M  V30 58 H 39.645695 32.109431 64.267987 0
M  V30 59 H 38.855620 30.537720 64.080899 0
M  V30 60 H 39.515502 31.737648 53.248593 0
M  V30 61 H 39.992015 25.841787 57.237922 0
M  V30 62 H 41.475527 26.542905 56.657673 0
M  V30 63 H 40.597411 27.358256 57.883857 0
M  V30 64 H 40.221971 31.737754 50.959307 0
M  V30 65 H 38.430608 35.448884 60.128325 0
M  V30 66 H 37.649098 34.153821 61.078119 0
M  V30 67 H 37.615756 27.517420 55.372830 0
M  V30 68 H 41.433538 28.220698 51.767728 0
M  V30 69 H 40.197502 27.467511 50.787879 0
M  V30 70 H 39.397701 26.158108 52.561383 0
M  V30 71 H 38.071503 26.806380 53.436955 0
M  V30 72 H 39.418086 29.479494 49.930649 0
M  V30 73 H 41.149767 29.737696 50.005414 0
M  V30 74 H 38.656246 36.297970 64.093221 0
M  V30 75 H 39.518202 37.764718 63.713383 0
M  V30 76 H 37.645168 28.537800 59.420638 0
M  V30 77 H 39.200088 28.631809 58.582997 0
M  V30 78 H 37.167321 37.899956 62.871766 0
M  V30 79 H 38.295419 37.929682 61.526880 0
M  V30 80 H 40.928070 26.502206 54.343457 0
M  V30 81 H 39.562378 25.611135 54.869605 0
M  V30 82 H 37.247989 31.735871 53.992978 0
M  V30 END ATOM
M  V30 BEGIN BOND
M  V30 1 1 2 1
M  V30 2 1 6 5
M  V30 3 1 2 7 CFG=1
M  V30 4 1 8 2
M  V30 5 1 12 9
M  V30 6 1 13 6
M  V30 7 1 13 11
M  V30 8 1 14 8
M  V30 9 2 15 11
M  V30 10 1 16 5
M  V30 11 1 17 15
M  V30 12 1 20 17
M  V30 13 1 20 18
M  V30 14 1 21 10
M  V30 15 1 22 15
M  V30 16 2 22 19
M  V30 17 1 23 10
M  V30 18 2 23 13
M  V30 19 1 23 19
M  V30 20 1 24 2
M  V30 21 2 26 24
M  V30 22 1 27 4
M  V30 23 1 27 5
M  V30 24 1 28 12
M  V30 25 1 28 18
M  V30 26 1 29 1
M  V30 27 1 30 1
M  V30 28 1 31 26
M  V30 29 1 31 29
M  V30 30 1 32 16
M  V30 31 1 33 20
M  V30 32 1 33 22
M  V30 33 1 34 4
M  V30 34 1 34 32
M  V30 35 1 35 30
M  V30 36 1 36 3
M  V30 37 1 36 7
M  V30 38 2 36 18
M  V30 39 2 37 6
M  V30 40 1 38 14
M  V30 41 1 38 25 CFG=1
M  V30 42 1 38 28
M  V30 43 1 38 35
M  V30 44 1 1 39 CFG=3
M  V30 45 1 40 3
M  V30 46 1 41 3
M  V30 47 1 42 4
M  V30 48 1 43 4
M  V30 49 1 44 8
M  V30 50 1 45 8
M  V30 51 1 46 9
M  V30 52 1 47 9
M  V30 53 1 48 9
M  V30 54 1 49 10
M  V30 55 1 50 10
M  V30 56 1 51 11
M  V30 57 1 52 16
M  V30 58 1 53 16
M  V30 59 1 54 17
M  V30 60 1 55 17
M  V30 61 1 20 56 CFG=1
M  V30 62 1 57 21
M  V30 63 1 58 21
M  V30 64 1 59 21
M  V30 65 1 60 24
M  V30 66 1 61 25
M  V30 67 1 62 25
M  V30 68 1 63 25
M  V30 69 1 64 26
M  V30 70 1 65 27
M  V30 71 1 66 27
M  V30 72 1 28 67 CFG=3
M  V30 73 1 68 29
M  V30 74 1 69 29
M  V30 75 1 70 30
M  V30 76 1 71 30
M  V30 77 1 72 31
M  V30 78 1 73 31
M  V30 79 1 74 32
M  V30 80 1 75 32
M  V30 81 1 76 33
M  V30 82 1 77 33
M  V30 83 1 78 34
M  V30 84 1 79 34
M  V30 85 1 80 35
M  V30 86 1 81 35
M  V30 87 1 82 3
M  V30 END BOND
M  V30 END CTAB
M  END
>  <i_epik_Tot_Q>  (1) 
1

>  <i_epik_Tot_abs_Q>  (1) 
1

>  <i_i_glide_confnum>  (1) 
13

>  <i_i_glide_lignum>  (1) 
41

>  <i_i_glide_posenum>  (1) 
2

>  <i_i_glide_rotatable_bonds>  (1) 
5

>  <i_lp_mmshare_version>  (1) 
72125

>  <i_m_source_file_index>  (1) 
18

>  <i_f3d_flags>  (1) 
0

>  <num_sample>  (1) 
100

>  <b_lp_Chiralities_Consistent>  (1) 
1

>  <r_epik_Charging_Adjusted_Penalty>  (1) 
0

>  <r_epik_Ionization_Penalty>  (1) 
0.00083164263378673008

>  <r_epik_Ionization_Penalty_Charging>  (1) 
0

>  <r_epik_Ionization_Penalty_Neutral>  (1) 
0.00083164263378673008

>  <r_epik_State_Penalty>  (1) 
-0

>  <r_glide_ring_energy>  (1) 
0.024669712861687145

>  <r_i_docking_score>  (1) 
-6.4974442307419

>  <r_i_glide_ecoul>  (1) 
-4.646539960176268

>  <r_i_glide_eff_state_penalty>  (1) 
-0

>  <r_i_glide_einternal>  (1) 
18.557520269304845

>  <r_i_glide_emodel>  (1) 
-31.147411022611564

>  <r_i_glide_emodel_strain>  (1) 
9.4732665548295643

>  <r_i_glide_energy>  (1) 
-39.100620542137825

>  <r_i_glide_erotb>  (1) 
0.22580550804498301

>  <r_i_glide_esite>  (1) 
-0.077666010429353671

>  <r_i_glide_evdw>  (1) 
-34.454080581961556

>  <r_i_glide_gscore>  (1) 
-6.4974442307419

>  <r_i_glide_gscore_strain>  (1) 
1.3683166387073911

>  <r_i_glide_hbond>  (1) 
0

>  <r_i_glide_ligand_efficiency>  (1) 
-0.17098537449320789

>  <r_i_glide_ligand_efficiency_ln>  (1) 
-1.4010401115922868

>  <r_i_glide_ligand_efficiency_sa>  (1) 
-0.5748486239684758

>  <r_i_glide_lipo>  (1) 
-3.977525784816573

>  <r_i_glide_metal>  (1) 
-0

>  <r_i_glide_rewards>  (1) 
-1.6166895591238299

>  <r_lp_Energy>  (1) 
80.436117999999993

>  <r_lp_tautomer_probability>  (1) 
1

>  <s_epik_Chemistry_Notes>  (1) 
This compound has an imine and may undergo hydrolysis. This compound contains an acetal/aminal-like group ( X-CH(R)-Y where X, Y are N, S, or O) that may be acid/base labile, releasing an aldehyde.

>  <s_epik_cmdline>  (1) 
J2VwaWtfcHl0aG9uJywgJy1waHQnLCAnMS4wJywgJy1waCcsICc3LjQnLCAnLXRuJywgJzgnLCAnLW1hJywgJzUwMCcsICctaW1hZScsICc8aW5maWxlLm1hZT4nLCAnLW9tYWUnLCAnPG91dGZpbGUubWFlPic=

>  <s_epik_input>  (1) 
W0NIXTE9W0NIXVtDSDJdW0NIMl1bQ0BIXShbQ0BAXTEyMylbQ0gyXVtDSDJdW0NAQF0oW0NIM10pKE9bQ0gyXTMpW0NAQEhdKE9bQ0gzXSlOKEMoTzIpPVtDSDJdKVtDQEhdKFtDSDJdNClbQ0gyXWMoYzQ1KW5jKFtDSDJdW0NIM10pYyhbY0hdNSlDKD1PKU42W0NIMl1bQ0gyXVtDSDJdW0NIMl1bQ0gyXTY=

>  <s_glide_docking_method>  (1) 
confgen

>  <s_i_glide_gridfile>  (1) 
gpcr_5ht2c_6bqh_protein_autoprepared_prepared

>  <s_lp_Force_Field>  (1) 
S-OPLS

>  <s_lp_Variant>  (1) 
DiffSBDD_17-1

>  <s_m_source_file>  (1) 
generated_GPCR_5HT2C_ligand_DiffSBDD_2026-06-23_prepared.sdf

>  <GenAI_Model>  (1) 
DiffSBDD

>  <Protein>  (1) 
GPCR_5HT2C

$$$$
DiffSBDD_15
     RDKit          3D

  0  0  0  0  0  0  0  0  0  0999 V3000
M  V30 BEGIN CTAB
M  V30 COUNTS 75 76 0 0 1
M  V30 BEGIN ATOM
M  V30 1 C 38.842838 26.359135 58.649699 0
M  V30 2 C 37.662532 31.539813 57.700563 0
M  V30 3 N 40.045197 30.848170 50.862183 0
M  V30 4 C 38.286412 31.497015 56.273059 0 CFG=1
M  V30 5 C 37.150590 33.897516 60.186669 0
M  V30 6 C 38.660070 28.101402 51.597297 0
M  V30 7 O 38.845122 32.388260 49.726705 0
M  V30 8 C 40.675406 29.543083 50.861030 0
M  V30 9 C 40.872276 27.891886 56.667717 0
M  V30 10 C 39.242522 32.727492 59.347562 0
M  V30 11 C 39.482458 31.337793 49.767826 0
M  V30 12 O 40.788554 36.447389 62.544166 0
M  V30 13 C 38.917083 32.842428 55.842759 0
M  V30 14 C 39.194768 30.130926 59.274652 0
M  V30 15 C 40.045022 28.668131 51.944836 0
M  V30 16 C 39.230474 30.321819 55.938076 0
M  V30 17 C 38.443065 31.450522 59.028405 0 CFG=2
M  V30 18 C 37.925322 27.790257 52.889345 0
M  V30 19 C 36.528904 34.868446 60.977375 0
M  V30 20 C 39.539089 27.920463 55.895950 0 CFG=2
M  V30 21 C 38.555896 33.785702 60.180723 0
M  V30 22 C 37.763268 26.323784 54.853485 0
M  V30 23 C 38.919138 27.597752 59.596015 0
M  V30 24 C 39.332519 34.657386 60.965868 0
M  V30 25 C 38.710657 35.630551 61.765735 0
M  V30 26 C 38.247630 28.924796 59.222690 0
M  V30 27 O 37.041577 28.537971 53.290758 0
M  V30 28 O 38.679636 29.031609 56.176753 0
M  V30 29 C 37.302021 35.739526 61.767850 0
M  V30 30 C 37.986572 26.396880 57.362742 0
M  V30 31 C 39.542796 36.538185 62.621398 0
M  V30 32 O 38.955512 37.337798 63.376737 0 CHG=-1
M  V30 33 N 38.312136 26.690209 53.551317 0
M  V30 34 C 38.747211 26.584953 56.021987 0 CFG=2
M  V30 35 H 38.445434 25.538920 59.244017 0
M  V30 36 H 39.850174 26.016685 58.411892 0
M  V30 37 H 36.870539 30.794355 57.767492 0
M  V30 38 H 37.184212 32.510794 57.750344 0
M  V30 39 H 39.988360 31.360232 51.731130 0
M  V30 40 H 37.424478 31.373593 55.614119 0
M  V30 41 H 36.545755 33.235180 59.591430 0
M  V30 42 H 38.075040 28.834608 51.043687 0
M  V30 43 H 38.740515 27.215415 50.966355 0
M  V30 44 H 40.527878 29.037095 49.905959 0
M  V30 45 H 41.748947 29.674603 50.975482 0
M  V30 46 H 41.356459 26.918760 56.587217 0
M  V30 47 H 41.584691 28.592553 56.246688 0
M  V30 48 H 40.762164 28.116452 57.722463 0
M  V30 49 H 40.045967 32.446986 60.012604 0
M  V30 50 H 39.645552 33.195084 58.453234 0
M  V30 51 H 39.644826 30.673406 48.921052 0
M  V30 52 H 38.997391 32.867058 54.756221 0
M  V30 53 H 38.347315 33.737370 56.133808 0
M  V30 54 H 39.926807 32.943238 56.237893 0
M  V30 55 H 39.643558 30.165112 60.268629 0
M  V30 56 H 40.025712 30.002052 58.592234 0
M  V30 57 H 40.682425 27.810458 52.147359 0
M  V30 58 H 40.012407 29.252829 52.864488 0
M  V30 59 H 39.525406 30.386673 54.891719 0
M  V30 60 H 40.126446 30.452735 56.518774 0
M  V30 61 H 37.682623 31.392955 59.806404 0
M  V30 62 H 35.457377 34.937704 60.982225 0
M  V30 63 H 39.871675 28.033612 54.870226 0
M  V30 64 H 36.845182 26.865987 55.043389 0
M  V30 65 H 37.488822 25.268968 54.824152 0
M  V30 66 H 38.445275 27.338034 60.535918 0
M  V30 67 H 39.959870 27.764773 59.871548 0
M  V30 68 H 40.409844 34.571225 60.962925 0
M  V30 69 H 37.739437 28.871387 58.274349 0
M  V30 70 H 37.440308 29.111127 59.929546 0
M  V30 71 H 36.815724 36.485847 62.381107 0
M  V30 72 H 37.144900 27.082102 57.440926 0
M  V30 73 H 37.502637 25.422069 57.297299 0
M  V30 74 H 39.045114 26.114885 53.165782 0
M  V30 75 H 39.483384 25.783228 55.953414 0
M  V30 END ATOM
M  V30 BEGIN BOND
M  V30 1 1 4 2
M  V30 2 1 8 3
M  V30 3 1 11 3
M  V30 4 2 11 7
M  V30 5 1 13 4
M  V30 6 1 15 6
M  V30 7 1 15 8
M  V30 8 1 16 4
M  V30 9 1 17 2
M  V30 10 1 17 10
M  V30 11 1 17 14
M  V30 12 1 18 6
M  V30 13 2 19 5
M  V30 14 1 20 9
M  V30 15 1 21 5
M  V30 16 1 21 10
M  V30 17 1 23 1
M  V30 18 2 24 21
M  V30 19 1 25 24
M  V30 20 1 26 14
M  V30 21 1 26 23
M  V30 22 2 27 18
M  V30 23 1 28 16
M  V30 24 1 28 20
M  V30 25 1 29 19
M  V30 26 2 29 25
M  V30 27 1 30 1
M  V30 28 2 31 12
M  V30 29 1 31 25
M  V30 30 1 32 31
M  V30 31 1 33 18
M  V30 32 1 33 22
M  V30 33 1 34 20
M  V30 34 1 34 22
M  V30 35 1 34 30
M  V30 36 1 35 1
M  V30 37 1 36 1
M  V30 38 1 37 2
M  V30 39 1 38 2
M  V30 40 1 39 3
M  V30 41 1 4 40 CFG=3
M  V30 42 1 41 5
M  V30 43 1 42 6
M  V30 44 1 43 6
M  V30 45 1 44 8
M  V30 46 1 45 8
M  V30 47 1 46 9
M  V30 48 1 47 9
M  V30 49 1 48 9
M  V30 50 1 49 10
M  V30 51 1 50 10
M  V30 52 1 51 11
M  V30 53 1 52 13
M  V30 54 1 53 13
M  V30 55 1 54 13
M  V30 56 1 55 14
M  V30 57 1 56 14
M  V30 58 1 57 15
M  V30 59 1 58 15
M  V30 60 1 59 16
M  V30 61 1 60 16
M  V30 62 1 17 61 CFG=1
M  V30 63 1 62 19
M  V30 64 1 20 63 CFG=3
M  V30 65 1 64 22
M  V30 66 1 65 22
M  V30 67 1 66 23
M  V30 68 1 67 23
M  V30 69 1 68 24
M  V30 70 1 69 26
M  V30 71 1 70 26
M  V30 72 1 71 29
M  V30 73 1 72 30
M  V30 74 1 73 30
M  V30 75 1 74 33
M  V30 76 1 34 75 CFG=1
M  V30 END BOND
M  V30 END CTAB
M  END
>  <i_epik_Tot_Q>  (1) 
-1

>  <i_epik_Tot_abs_Q>  (1) 
1

>  <i_i_glide_confnum>  (1) 
3867

>  <i_i_glide_lignum>  (1) 
31

>  <i_i_glide_posenum>  (1) 
14

>  <i_i_glide_rotatable_bonds>  (1) 
11

>  <i_lp_mmshare_version>  (1) 
72125

>  <i_m_source_file_index>  (1) 
16

>  <i_f3d_flags>  (1) 
0

>  <num_sample>  (1) 
100

>  <b_lp_Chiralities_Consistent>  (1) 
1

>  <r_epik_Charging_Adjusted_Penalty>  (1) 
0.00039988353432540339

>  <r_epik_Ionization_Penalty>  (1) 
0.00039992702821499621

>  <r_epik_Ionization_Penalty_Charging>  (1) 
0.00039988353432540339

>  <r_epik_Ionization_Penalty_Neutral>  (1) 
4.349388959280561e-08

>  <r_epik_State_Penalty>  (1) 
-0

>  <r_glide_ring_energy>  (1) 
0

>  <r_i_docking_score>  (1) 
-6.4965203432633292

>  <r_i_glide_ecoul>  (1) 
-0.40703497368228436

>  <r_i_glide_eff_state_penalty>  (1) 
-0

>  <r_i_glide_einternal>  (1) 
20.505102139363562

>  <r_i_glide_emodel>  (1) 
-23.05748691511446

>  <r_i_glide_emodel_strain>  (1) 
0.48771233904486166

>  <r_i_glide_energy>  (1) 
-25.883252270049454

>  <r_i_glide_erotb>  (1) 
0.81156586864238245

>  <r_i_glide_esite>  (1) 
0

>  <r_i_glide_evdw>  (1) 
-25.476217296367171

>  <r_i_glide_gscore>  (1) 
-6.4965203432633292

>  <r_i_glide_gscore_strain>  (1) 
0

>  <r_i_glide_hbond>  (1) 
0

>  <r_i_glide_ligand_efficiency>  (1) 
-0.19107412774303908

>  <r_i_glide_ligand_efficiency_ln>  (1) 
-1.4352635650502539

>  <r_i_glide_ligand_efficiency_sa>  (1) 
-0.61900599915515087

>  <r_i_glide_lipo>  (1) 
-3.7560475037968932

>  <r_i_glide_metal>  (1) 
-0

>  <r_i_glide_rewards>  (1) 
-2.2171725972381173

>  <r_lp_Energy>  (1) 
33.049985999999997

>  <r_lp_tautomer_probability>  (1) 
1

>  <s_epik_cmdline>  (1) 
J2VwaWtfcHl0aG9uJywgJy1waHQnLCAnMS4wJywgJy1waCcsICc3LjQnLCAnLXRuJywgJzgnLCAnLW1hJywgJzUwMCcsICctaW1hZScsICc8aW5maWxlLm1hZT4nLCAnLW9tYWUnLCAnPG91dGZpbGUubWFlPic=

>  <s_epik_input>  (1) 
Tz1bQ0hdW05IXVtDSDJdW0NIMl1bQ0gyXUMoPU8pW05IXVtDSDJdW0NAQEhdKFtDQEhdKFtDSDNdKU9bQ0gyXTEpW0NIMl1bQ0gyXVtDSDJdW0NIMl1bQ0gyXVtDQEhdKFtDSDJdW0NAQEhdMVtDSDNdKVtDSDJdYzJbY0hdW2NIXVtjSF1jKFtjSF0yKUMoPU8pW09IXQ==

>  <s_glide_docking_method>  (1) 
confgen

>  <s_i_glide_gridfile>  (1) 
gpcr_5ht2c_6bqh_protein_autoprepared_prepared

>  <s_lp_Force_Field>  (1) 
S-OPLS

>  <s_lp_Variant>  (1) 
DiffSBDD_15-1

>  <s_m_source_file>  (1) 
generated_GPCR_5HT2C_ligand_DiffSBDD_2026-06-23_prepared.sdf

>  <GenAI_Model>  (1) 
DiffSBDD

>  <Protein>  (1) 
GPCR_5HT2C

$$$$
DiffSBDD_81
     RDKit          3D

  0  0  0  0  0  0  0  0  0  0999 V3000
M  V30 BEGIN CTAB
M  V30 COUNTS 67 68 0 0 1
M  V30 BEGIN ATOM
M  V30 1 C 41.871412 32.204636 63.666599 0
M  V30 2 C 40.300751 26.661129 57.032188 0
M  V30 3 C 39.917001 29.286922 51.717206 0 CFG=2
M  V30 4 C 39.291946 29.895855 60.813198 0
M  V30 5 C 38.237765 27.599869 51.796553 0
M  V30 6 C 40.083062 29.461743 62.048587 0
M  V30 7 C 39.299022 28.171783 50.885224 0
M  V30 8 C 39.734192 25.711252 55.956876 0
M  V30 9 C 39.251998 27.199826 58.010485 0
M  V30 10 C 38.779909 28.759806 59.939714 0
M  V30 11 C 39.355441 27.437823 54.107379 0
M  V30 12 C 38.292148 31.684803 59.300483 0
M  V30 13 C 37.083679 28.597527 53.815603 0
M  V30 14 C 39.846010 28.223822 58.982614 0
M  V30 15 O 39.030195 29.482912 52.801979 0
M  V30 16 O 41.411706 31.442251 62.564412 0
M  V30 17 C 39.063180 31.197802 60.516719 0
M  V30 18 C 41.247654 30.420665 49.906102 0
M  V30 19 C 40.158786 30.591600 50.959428 0
M  V30 20 C 38.424228 28.248756 53.167876 0 CFG=2
M  V30 21 C 37.181875 29.655216 54.934784 0
M  V30 22 C 41.067434 30.042880 64.357170 0
M  V30 23 C 38.718100 26.343625 54.986893 0
M  V30 24 C 40.421085 30.561110 63.071142 0 CFG=2
M  V30 25 C 41.972540 31.185827 64.802031 0
M  V30 26 H 42.818882 32.691158 63.442901 0
M  V30 27 H 41.137210 32.976391 63.903126 0
M  V30 28 H 40.831900 27.489940 56.565694 0
M  V30 29 H 41.059640 26.137788 57.610882 0
M  V30 30 H 40.848499 28.937431 52.135380 0
M  V30 31 H 38.325445 26.537766 51.874130 0
M  V30 32 H 37.263896 27.820994 51.368993 0
M  V30 33 H 39.499204 28.696521 62.557823 0
M  V30 34 H 40.998745 28.969297 61.719926 0
M  V30 35 H 38.845834 28.537810 49.964886 0
M  V30 36 H 40.044092 27.426682 50.607982 0
M  V30 37 H 40.568280 25.337772 55.369312 0
M  V30 38 H 39.285125 24.843569 56.441615 0
M  V30 39 H 38.808239 26.371343 58.563566 0
M  V30 40 H 38.439136 27.679385 57.467502 0
M  V30 41 H 38.445264 27.942694 60.575448 0
M  V30 42 H 37.890747 29.062881 59.389304 0
M  V30 43 H 39.839950 28.161268 54.759955 0
M  V30 44 H 40.131628 26.937739 53.523040 0
M  V30 45 H 38.763372 32.589566 58.915525 0
M  V30 46 H 38.270723 30.970286 58.478398 0
M  V30 47 H 37.266364 31.933771 59.575056 0
M  V30 48 H 36.445116 28.937741 53.015948 0
M  V30 49 H 36.572607 27.705409 54.167755 0
M  V30 50 H 40.278551 29.051614 58.418678 0
M  V30 51 H 40.661507 27.771254 59.548714 0
M  V30 52 H 39.440647 31.967582 61.170669 0
M  V30 53 H 41.425783 31.337762 49.367751 0
M  V30 54 H 42.185931 30.137783 50.377930 0
M  V30 55 H 40.971588 29.672430 49.165551 0
M  V30 56 H 39.245140 30.941565 50.482942 0
M  V30 57 H 40.457982 31.362491 51.668944 0
M  V30 58 H 36.206291 29.880070 55.367275 0
M  V30 59 H 37.825515 29.318711 55.746462 0
M  V30 60 H 37.585148 30.597706 54.563236 0
M  V30 61 H 40.321558 29.776681 65.107509 0
M  V30 62 H 41.669062 29.154976 64.156886 0
M  V30 63 H 38.300376 25.568969 54.343408 0
M  V30 64 H 37.882752 26.727490 55.567212 0
M  V30 65 H 39.525128 31.128222 63.332314 0
M  V30 66 H 42.997713 30.830798 64.913414 0
M  V30 67 H 41.660556 31.616871 65.753942 0
M  V30 END ATOM
M  V30 BEGIN BOND
M  V30 1 1 6 4
M  V30 2 1 7 3
M  V30 3 1 7 5
M  V30 4 1 8 2
M  V30 5 1 9 2
M  V30 6 1 10 4
M  V30 7 1 14 9
M  V30 8 1 14 10
M  V30 9 1 15 3
M  V30 10 1 16 1
M  V30 11 2 17 4
M  V30 12 1 17 12
M  V30 13 1 19 3
M  V30 14 1 19 18
M  V30 15 1 20 5
M  V30 16 1 20 11 CFG=1
M  V30 17 1 20 13
M  V30 18 1 20 15
M  V30 19 1 21 13
M  V30 20 1 23 8
M  V30 21 1 23 11
M  V30 22 1 24 6
M  V30 23 1 24 16
M  V30 24 1 24 22
M  V30 25 1 25 1
M  V30 26 1 25 22
M  V30 27 1 26 1
M  V30 28 1 27 1
M  V30 29 1 28 2
M  V30 30 1 29 2
M  V30 31 1 3 30 CFG=1
M  V30 32 1 31 5
M  V30 33 1 32 5
M  V30 34 1 33 6
M  V30 35 1 34 6
M  V30 36 1 35 7
M  V30 37 1 36 7
M  V30 38 1 37 8
M  V30 39 1 38 8
M  V30 40 1 39 9
M  V30 41 1 40 9
M  V30 42 1 41 10
M  V30 43 1 42 10
M  V30 44 1 43 11
M  V30 45 1 44 11
M  V30 46 1 45 12
M  V30 47 1 46 12
M  V30 48 1 47 12
M  V30 49 1 48 13
M  V30 50 1 49 13
M  V30 51 1 50 14
M  V30 52 1 51 14
M  V30 53 1 52 17
M  V30 54 1 53 18
M  V30 55 1 54 18
M  V30 56 1 55 18
M  V30 57 1 56 19
M  V30 58 1 57 19
M  V30 59 1 58 21
M  V30 60 1 59 21
M  V30 61 1 60 21
M  V30 62 1 61 22
M  V30 63 1 62 22
M  V30 64 1 63 23
M  V30 65 1 64 23
M  V30 66 1 24 65 CFG=1
M  V30 67 1 66 25
M  V30 68 1 67 25
M  V30 END BOND
M  V30 END CTAB
M  END
>  <i_epik_Tot_Q>  (1) 
0

>  <i_epik_Tot_abs_Q>  (1) 
0

>  <i_i_glide_confnum>  (1) 
2128

>  <i_i_glide_lignum>  (1) 
187

>  <i_i_glide_posenum>  (1) 
246

>  <i_i_glide_rotatable_bonds>  (1) 
12

>  <i_lp_mmshare_version>  (1) 
72125

>  <i_m_source_file_index>  (1) 
82

>  <i_f3d_flags>  (1) 
0

>  <num_sample>  (1) 
100

>  <b_lp_Chiralities_Consistent>  (1) 
1

>  <r_epik_Charging_Adjusted_Penalty>  (1) 
0

>  <r_epik_Ionization_Penalty>  (1) 
4.3050601408714213e-11

>  <r_epik_Ionization_Penalty_Charging>  (1) 
0

>  <r_epik_Ionization_Penalty_Neutral>  (1) 
4.3050601408714213e-11

>  <r_epik_State_Penalty>  (1) 
-0

>  <r_glide_ring_energy>  (1) 
0

>  <r_i_docking_score>  (1) 
-6.4947932485911499

>  <r_i_glide_ecoul>  (1) 
-2.5020062030629053

>  <r_i_glide_eff_state_penalty>  (1) 
-0

>  <r_i_glide_einternal>  (1) 
7.2377414814148411

>  <r_i_glide_emodel>  (1) 
-44.145559545582159

>  <r_i_glide_emodel_strain>  (1) 
0.88101120787556653

>  <r_i_glide_energy>  (1) 
-34.939624001443796

>  <r_i_glide_erotb>  (1) 
1.3958139752623098

>  <r_i_glide_esite>  (1) 
0

>  <r_i_glide_evdw>  (1) 
-32.437617798380892

>  <r_i_glide_gscore>  (1) 
-6.4947932485911499

>  <r_i_glide_gscore_strain>  (1) 
0

>  <r_i_glide_hbond>  (1) 
-0.031638047378635535

>  <r_i_glide_ligand_efficiency>  (1) 
-0.25979172994364602

>  <r_i_glide_ligand_efficiency_ln>  (1) 
-1.5394606331638236

>  <r_i_glide_ligand_efficiency_sa>  (1) 
-0.75963562659622752

>  <r_i_glide_lipo>  (1) 
-4.0359803708842623

>  <r_i_glide_metal>  (1) 
-0

>  <r_i_glide_rewards>  (1) 
-1.8258069852120806

>  <r_lp_Energy>  (1) 
1.9057109999999999

>  <r_lp_tautomer_probability>  (1) 
1

>  <s_epik_cmdline>  (1) 
J2VwaWtfcHl0aG9uJywgJy1waHQnLCAnMS4wJywgJy1waCcsICc3LjQnLCAnLXRuJywgJzgnLCAnLW1hJywgJzUwMCcsICctaW1hZScsICc8aW5maWxlLm1hZT4nLCAnLW9tYWUnLCAnPG91dGZpbGUubWFlPic=

>  <s_epik_input>  (1) 
W0NIMl0xW0NIMl1bQ0gyXU9bQ0BIXTFbQ0gyXS9DKD1bQ0hdL1tDSDNdKVtDSDJdW0NIMl1bQ0gyXVtDSDJdW0NIMl1bQ0gyXVtDSDJdW0NAXTIoW0NIMl1bQ0gzXSlbQ0gyXVtDSDJdW0NASF0oTzIpW0NIMl1bQ0gzXQ==

>  <s_glide_docking_method>  (1) 
confgen

>  <s_i_glide_gridfile>  (1) 
gpcr_5ht2c_6bqh_protein_autoprepared_prepared

>  <s_lp_Force_Field>  (1) 
S-OPLS

>  <s_lp_Variant>  (1) 
DiffSBDD_81-1

>  <s_m_source_file>  (1) 
generated_GPCR_5HT2C_ligand_DiffSBDD_2026-06-23_prepared.sdf

>  <GenAI_Model>  (1) 
DiffSBDD

>  <Protein>  (1) 
GPCR_5HT2C

$$$$
DiffSBDD_23
     RDKit          3D

  0  0  0  0  0  0  0  0  0  0999 V3000
M  V30 BEGIN CTAB
M  V30 COUNTS 68 70 0 0 1
M  V30 BEGIN ATOM
M  V30 1 C 40.815089 31.199824 65.917389 0
M  V30 2 C 41.943691 31.570330 66.694903 0
M  V30 3 C 40.145869 29.938559 51.082231 0
M  V30 4 O 37.644602 28.219662 57.767668 0 CHG=-1
M  V30 5 C 42.769016 32.792066 66.329537 0
M  V30 6 N 40.445193 31.952953 64.789240 0
M  V30 7 C 40.197577 31.174694 63.574152 0 CFG=1
M  V30 8 C 38.191753 30.298734 59.502449 0 CFG=2
M  V30 9 C 40.072444 30.057300 66.295892 0
M  V30 10 C 38.359992 30.393220 55.818126 0
M  V30 11 C 38.138314 28.216070 54.516603 0
M  V30 12 C 39.392871 31.961127 62.526366 0
M  V30 13 C 41.543148 30.758083 62.984748 0
M  V30 14 C 38.335438 27.445349 53.354162 0
M  V30 15 C 36.445412 33.145478 60.571082 0
M  V30 16 C 41.512309 29.655601 68.134941 0
M  V30 17 C 39.245164 30.111593 53.448092 0
M  V30 18 O 41.645158 29.587507 62.567769 0
M  V30 19 P 38.793050 29.054768 58.178514 0
M  V30 20 N 40.445225 29.338007 67.373007 0 CHG=1
M  V30 21 C 38.672665 34.876791 60.567746 0
M  V30 22 C 36.443202 34.308433 61.367717 0
M  V30 23 O 40.026426 28.389910 58.652574 0
M  V30 24 C 37.554518 35.171233 61.366012 0
M  V30 25 C 42.293604 30.785140 67.817642 0
M  V30 26 C 38.985373 28.005058 52.237367 0
M  V30 27 C 38.590029 29.551490 54.565932 0
M  V30 28 C 39.442877 29.337669 52.282727 0
M  V30 29 C 38.680624 33.720216 59.763656 0
M  V30 30 C 37.590691 31.592686 58.886530 0
M  V30 31 C 39.252898 30.528986 60.588402 0
M  V30 32 O 42.445018 31.626144 62.967996 0 CHG=-1
M  V30 33 C 37.569905 32.848320 59.762024 0
M  V30 34 O 39.234788 30.095212 56.896691 0
M  V30 35 C 35.245070 32.221571 60.588286 0
M  V30 36 O 38.604797 31.091994 61.724434 0
M  V30 37 H 39.579611 29.746736 50.170329 0
M  V30 38 H 40.261309 31.017838 51.189060 0
M  V30 39 H 41.137456 29.499394 50.969601 0
M  V30 40 H 43.555037 32.974059 67.062797 0
M  V30 41 H 43.245076 32.652863 65.360195 0
M  V30 42 H 42.139250 33.681059 66.284380 0
M  V30 43 H 41.123193 32.671787 64.569395 0
M  V30 44 H 39.629844 30.273896 63.799707 0
M  V30 45 H 37.373060 29.796924 60.018033 0
M  V30 46 H 39.198399 29.702407 65.770964 0
M  V30 47 H 37.318261 30.300002 56.120746 0
M  V30 48 H 38.506958 31.443634 55.562792 0
M  V30 49 H 37.639074 27.783384 55.368163 0
M  V30 50 H 40.036147 32.601010 61.920675 0
M  V30 51 H 38.694220 32.648321 62.992253 0
M  V30 52 H 37.985629 26.424374 53.319104 0
M  V30 53 H 41.706662 29.001413 68.973231 0
M  V30 54 H 39.592954 31.134415 53.483162 0
M  V30 55 H 39.525493 35.539302 60.567288 0
M  V30 56 H 35.587307 34.537566 61.985582 0
M  V30 57 H 37.548729 36.059162 61.979895 0
M  V30 58 H 43.148805 31.045906 68.424144 0
M  V30 59 H 39.133819 27.411616 51.347111 0
M  V30 60 H 39.540105 33.498434 59.149273 0
M  V30 61 H 36.582388 31.354284 58.567760 0
M  V30 62 H 38.131132 31.886085 57.991212 0
M  V30 63 H 39.703377 29.583873 60.888392 0
M  V30 64 H 40.045175 31.166152 60.202622 0
M  V30 65 H 34.532581 32.554796 61.339324 0
M  V30 66 H 34.739975 32.224762 59.621960 0
M  V30 67 H 35.541595 31.201725 60.832950 0
M  V30 68 H 39.890665 28.513849 67.629452 0
M  V30 END ATOM
M  V30 BEGIN BOND
M  V30 1 2 2 1
M  V30 2 1 5 2
M  V30 3 1 6 1
M  V30 4 1 7 6
M  V30 5 1 9 1
M  V30 6 1 12 7
M  V30 7 1 13 7
M  V30 8 1 14 11
M  V30 9 2 18 13
M  V30 10 1 19 4
M  V30 11 1 19 8
M  V30 12 2 20 9
M  V30 13 1 20 16
M  V30 14 2 22 15
M  V30 15 2 23 19
M  V30 16 2 24 21
M  V30 17 1 24 22
M  V30 18 1 25 2
M  V30 19 2 25 16
M  V30 20 2 26 14
M  V30 21 1 27 10
M  V30 22 2 27 11
M  V30 23 1 27 17
M  V30 24 1 28 3
M  V30 25 2 28 17
M  V30 26 1 28 26
M  V30 27 1 29 21
M  V30 28 1 30 8
M  V30 29 1 31 8
M  V30 30 1 32 13
M  V30 31 1 33 15
M  V30 32 2 33 29
M  V30 33 1 33 30
M  V30 34 1 34 10
M  V30 35 1 34 19
M  V30 36 1 35 15
M  V30 37 1 36 12
M  V30 38 1 36 31
M  V30 39 1 37 3
M  V30 40 1 38 3
M  V30 41 1 39 3
M  V30 42 1 40 5
M  V30 43 1 41 5
M  V30 44 1 42 5
M  V30 45 1 43 6
M  V30 46 1 7 44 CFG=1
M  V30 47 1 8 45 CFG=1
M  V30 48 1 46 9
M  V30 49 1 47 10
M  V30 50 1 48 10
M  V30 51 1 49 11
M  V30 52 1 50 12
M  V30 53 1 51 12
M  V30 54 1 52 14
M  V30 55 1 53 16
M  V30 56 1 54 17
M  V30 57 1 55 21
M  V30 58 1 56 22
M  V30 59 1 57 24
M  V30 60 1 58 25
M  V30 61 1 59 26
M  V30 62 1 60 29
M  V30 63 1 61 30
M  V30 64 1 62 30
M  V30 65 1 63 31
M  V30 66 1 64 31
M  V30 67 1 65 35
M  V30 68 1 66 35
M  V30 69 1 67 35
M  V30 70 1 68 20
M  V30 END BOND
M  V30 END CTAB
M  END
>  <i_epik_Tot_Q>  (1) 
-1

>  <i_epik_Tot_abs_Q>  (1) 
3

>  <i_i_glide_confnum>  (1) 
2149

>  <i_i_glide_lignum>  (1) 
58

>  <i_i_glide_posenum>  (1) 
174

>  <i_i_glide_rotatable_bonds>  (1) 
13

>  <i_lp_mmshare_version>  (1) 
72125

>  <i_m_source_file_index>  (1) 
24

>  <i_f3d_flags>  (1) 
0

>  <num_sample>  (1) 
100

>  <b_lp_Chiralities_Consistent>  (1) 
1

>  <r_epik_Charging_Adjusted_Penalty>  (1) 
1.2797278025130083

>  <r_epik_Ionization_Penalty>  (1) 
0.64011743969219936

>  <r_epik_Ionization_Penalty_Charging>  (1) 
0.64011720958933516

>  <r_epik_Ionization_Penalty_Neutral>  (1) 
2.3010286421690967e-07

>  <r_epik_State_Penalty>  (1) 
0.63961059292367306

>  <r_glide_ring_energy>  (1) 
0

>  <r_i_docking_score>  (1) 
-6.4866901900892122

>  <r_i_glide_ecoul>  (1) 
-7.6686153817815068

>  <r_i_glide_eff_state_penalty>  (1) 
0.63961059292367306

>  <r_i_glide_einternal>  (1) 
10.694977278157683

>  <r_i_glide_emodel>  (1) 
-72.123413121595235

>  <r_i_glide_emodel_strain>  (1) 
3.2507034658579101

>  <r_i_glide_energy>  (1) 
-54.384650024104182

>  <r_i_glide_erotb>  (1) 
0.93981710635313198

>  <r_i_glide_esite>  (1) 
-0.019946918460345017

>  <r_i_glide_evdw>  (1) 
-46.716034642322676

>  <r_i_glide_gscore>  (1) 
-7.1263007830128853

>  <r_i_glide_gscore_strain>  (1) 
0

>  <r_i_glide_hbond>  (1) 
-0.16076864923653916

>  <r_i_glide_ligand_efficiency>  (1) 
-0.18018583861358922

>  <r_i_glide_ligand_efficiency_ln>  (1) 
-1.4152205493611765

>  <r_i_glide_ligand_efficiency_sa>  (1) 
-0.59496053038314001

>  <r_i_glide_lipo>  (1) 
-3.576531114403696

>  <r_i_glide_metal>  (1) 
-0

>  <r_i_glide_rewards>  (1) 
-0.822777167882077

>  <r_lp_Energy>  (1) 
41.185898999999999

>  <r_lp_tautomer_probability>  (1) 
0.99984579293731657

>  <s_epik_cmdline>  (1) 
J2VwaWtfcHl0aG9uJywgJy1waHQnLCAnMS4wJywgJy1waCcsICc3LjQnLCAnLXRuJywgJzgnLCAnLW1hJywgJzUwMCcsICctaW1hZScsICc8aW5maWxlLm1hZT4nLCAnLW9tYWUnLCAnPG91dGZpbGUubWFlPic=

>  <s_epik_input>  (1) 
W2NIXTFuW2NIXVtjSF1jKFtDSDNdKWMxW05IXVtDQEhdKEMoPU8pW09IXSlbQ0gyXU9bQ0gyXVtDQEBIXShbQ0gyXWMyW2NIXVtjSF1bY0hdW2NIXWMyW0NIM10pW1BAQF0oPU8pKFtPSF0pT1tDSDJdYzNbY0hdW2NIXVtjSF1jKFtDSDNdKVtjSF0z

>  <s_glide_docking_method>  (1) 
confgen

>  <s_i_glide_gridfile>  (1) 
gpcr_5ht2c_6bqh_protein_autoprepared_prepared

>  <s_lp_Force_Field>  (1) 
S-OPLS

>  <s_lp_Variant>  (1) 
DiffSBDD_23-2

>  <s_m_source_file>  (1) 
generated_GPCR_5HT2C_ligand_DiffSBDD_2026-06-23_prepared.sdf

>  <GenAI_Model>  (1) 
DiffSBDD

>  <Protein>  (1) 
GPCR_5HT2C

$$$$
DiffSBDD_75
     RDKit          3D

  0  0  0  0  0  0  0  0  0  0999 V3000
M  V30 BEGIN CTAB
M  V30 COUNTS 77 78 0 0 1
M  V30 BEGIN ATOM
M  V30 1 C 38.942362 32.657329 61.275771 0
M  V30 2 C 35.749727 31.155225 60.367360 0
M  V30 3 O 37.396592 28.907860 57.828429 0
M  V30 4 C 37.019476 35.179584 61.309927 0
M  V30 5 C 39.235877 29.038716 55.496663 0 CFG=2
M  V30 6 C 40.902750 35.389638 65.273563 0
M  V30 7 C 38.753701 28.618583 58.086662 0 CFG=2
M  V30 8 C 40.099873 36.319335 65.969477 0
M  V30 9 O 37.245135 29.337170 54.167398 0
M  V30 10 C 39.456967 26.670952 56.474001 0 CFG=2
M  V30 11 O 40.216163 34.919800 69.370621 0
M  V30 12 S 38.845227 29.995807 60.535305 0
M  V30 13 C 37.142047 36.658466 61.715849 0
M  V30 14 C 40.440219 35.071157 68.035516 0
M  V30 15 C 39.409375 29.804734 58.818477 0
M  V30 16 C 41.138248 35.555203 63.783460 0
M  V30 17 C 41.475103 34.300159 65.963301 0
M  V30 18 O 38.051389 24.910243 55.556525 0
M  V30 19 C 39.853103 25.759236 57.656433 0
M  V30 20 C 39.522486 28.198404 56.789923 0 CFG=1
M  V30 21 O 36.932876 37.456959 60.569376 0
M  V30 22 O 36.802107 31.722727 61.119631 0
M  V30 23 O 40.904228 35.725815 60.967899 0
M  V30 24 C 37.330102 34.462653 58.968402 0
M  V30 25 N 37.993289 34.853104 60.239509 0 CFG=2 CHG=1
M  V30 26 C 40.141132 34.908659 61.471477 0
M  V30 27 C 39.870551 36.159183 67.348580 0
M  V30 28 C 40.065988 34.784679 63.000354 0
M  V30 29 C 39.196096 34.036714 60.605375 0 CFG=1
M  V30 30 C 41.243609 34.140514 67.343372 0
M  V30 31 C 37.848810 27.040832 54.538574 0
M  V30 32 C 38.078353 31.650011 60.502502 0 CFG=1
M  V30 33 C 39.197751 30.574608 55.660861 0
M  V30 34 C 38.093340 26.291169 55.855826 0 CFG=2
M  V30 35 C 38.027318 28.549351 54.689474 0
M  V30 36 H 39.923885 32.211316 61.441039 0
M  V30 37 H 38.519184 32.766590 62.274578 0
M  V30 38 H 34.845093 31.232955 60.967303 0
M  V30 39 H 35.583748 31.676678 59.424190 0
M  V30 40 H 35.929580 30.103312 60.153034 0
M  V30 41 H 36.992130 29.209268 58.627238 0
M  V30 42 H 36.006166 34.989789 60.955949 0
M  V30 43 H 37.134821 34.528907 62.167629 0
M  V30 44 H 38.760463 27.798376 58.799532 0
M  V30 45 H 39.660907 37.155096 65.443398 0
M  V30 46 H 38.548455 26.697322 53.775411 0
M  V30 47 H 40.213980 26.485237 55.708430 0
M  V30 48 H 40.713898 34.215793 69.755124 0
M  V30 49 H 36.405584 36.904970 62.480044 0
M  V30 50 H 38.120176 36.887969 62.137828 0
M  V30 51 H 39.244916 30.731103 58.278397 0
M  V30 52 H 40.487767 29.659308 58.869367 0
M  V30 53 H 41.115254 36.611939 63.521566 0
M  V30 54 H 42.135583 35.193454 63.529083 0
M  V30 55 H 42.088395 33.585703 65.434243 0
M  V30 56 H 37.198435 24.702512 55.206385 0
M  V30 57 H 39.064776 25.688736 58.405081 0
M  V30 58 H 40.046454 24.742388 57.312955 0
M  V30 59 H 40.762941 26.111813 58.142202 0
M  V30 60 H 40.576307 28.368794 57.009614 0
M  V30 61 H 36.770768 38.353263 60.831697 0
M  V30 62 H 36.599149 33.668731 59.107761 0
M  V30 63 H 36.791024 35.321144 58.567752 0
M  V30 64 H 38.044632 34.137964 58.210292 0
M  V30 65 H 39.255908 36.871940 67.880063 0
M  V30 66 H 40.142861 33.736371 63.284456 0
M  V30 67 H 39.087847 35.135294 63.319739 0
M  V30 68 H 39.725873 33.841457 59.672690 0
M  V30 69 H 41.681205 33.305459 67.870171 0
M  V30 70 H 36.845561 26.838560 54.162842 0
M  V30 71 H 40.056721 28.835031 54.821217 0
M  V30 72 H 37.988791 31.958474 59.464170 0
M  V30 73 H 39.216126 31.071915 54.689207 0
M  V30 74 H 38.290391 30.904153 56.169807 0
M  V30 75 H 40.046106 30.950407 56.219258 0
M  V30 76 H 37.289676 26.506083 56.562588 0
M  V30 77 H 38.379523 35.760301 60.007900 0
M  V30 END ATOM
M  V30 BEGIN BOND
M  V30 1 1 7 3
M  V30 2 1 8 6
M  V30 3 1 13 4
M  V30 4 1 14 11
M  V30 5 1 15 7
M  V30 6 1 15 12
M  V30 7 1 16 6
M  V30 8 2 17 6
M  V30 9 1 19 10
M  V30 10 1 20 5
M  V30 11 1 20 7
M  V30 12 1 20 10
M  V30 13 1 21 13
M  V30 14 1 22 2
M  V30 15 1 25 4
M  V30 16 1 25 24
M  V30 17 2 26 23
M  V30 18 2 27 8
M  V30 19 1 27 14
M  V30 20 1 28 16
M  V30 21 1 28 26
M  V30 22 1 29 1
M  V30 23 1 29 25
M  V30 24 1 29 26
M  V30 25 2 30 14
M  V30 26 1 30 17
M  V30 27 1 32 1
M  V30 28 1 32 12
M  V30 29 1 32 22
M  V30 30 1 33 5
M  V30 31 1 34 10
M  V30 32 1 34 18
M  V30 33 1 34 31
M  V30 34 1 35 5
M  V30 35 2 35 9
M  V30 36 1 35 31
M  V30 37 1 36 1
M  V30 38 1 37 1
M  V30 39 1 38 2
M  V30 40 1 39 2
M  V30 41 1 40 2
M  V30 42 1 41 3
M  V30 43 1 42 4
M  V30 44 1 43 4
M  V30 45 1 7 44 CFG=1
M  V30 46 1 45 8
M  V30 47 1 46 31
M  V30 48 1 10 47 CFG=3
M  V30 49 1 48 11
M  V30 50 1 49 13
M  V30 51 1 50 13
M  V30 52 1 51 15
M  V30 53 1 52 15
M  V30 54 1 53 16
M  V30 55 1 54 16
M  V30 56 1 55 17
M  V30 57 1 56 18
M  V30 58 1 57 19
M  V30 59 1 58 19
M  V30 60 1 59 19
M  V30 61 1 20 60 CFG=1
M  V30 62 1 61 21
M  V30 63 1 62 24
M  V30 64 1 63 24
M  V30 65 1 64 24
M  V30 66 1 65 27
M  V30 67 1 66 28
M  V30 68 1 67 28
M  V30 69 1 29 68 CFG=3
M  V30 70 1 69 30
M  V30 71 1 70 31
M  V30 72 1 5 71 CFG=3
M  V30 73 1 32 72 CFG=3
M  V30 74 1 73 33
M  V30 75 1 74 33
M  V30 76 1 75 33
M  V30 77 1 34 76 CFG=1
M  V30 78 1 25 77 CFG=3
M  V30 END BOND
M  V30 END CTAB
M  END
>  <i_epik_Tot_Q>  (1) 
1

>  <i_epik_Tot_abs_Q>  (1) 
1

>  <i_i_glide_confnum>  (1) 
4467

>  <i_i_glide_lignum>  (1) 
165

>  <i_i_glide_posenum>  (1) 
185

>  <i_i_glide_rotatable_bonds>  (1) 
18

>  <i_lp_mmshare_version>  (1) 
72125

>  <i_m_source_file_index>  (1) 
76

>  <i_f3d_flags>  (1) 
0

>  <num_sample>  (1) 
100

>  <b_lp_Chiralities_Consistent>  (1) 
1

>  <r_epik_Charging_Adjusted_Penalty>  (1) 
0.52789471212939676

>  <r_epik_Ionization_Penalty>  (1) 
0.26592108790513191

>  <r_epik_Ionization_Penalty_Charging>  (1) 
0.26394735606469838

>  <r_epik_Ionization_Penalty_Neutral>  (1) 
0.0019737318404335234

>  <r_epik_State_Penalty>  (1) 
0.26394735606469838

>  <r_glide_ring_energy>  (1) 
0

>  <r_i_docking_score>  (1) 
-6.4801344473003244

>  <r_i_glide_ecoul>  (1) 
-2.9514732840120672

>  <r_i_glide_eff_state_penalty>  (1) 
0.26394735606469838

>  <r_i_glide_einternal>  (1) 
15.011049395914561

>  <r_i_glide_emodel>  (1) 
-68.324107871657702

>  <r_i_glide_emodel_strain>  (1) 
1.7576991352395268

>  <r_i_glide_energy>  (1) 
-52.648930905560306

>  <r_i_glide_erotb>  (1) 
1.0139394581015995

>  <r_i_glide_esite>  (1) 
0

>  <r_i_glide_evdw>  (1) 
-49.697457621548239

>  <r_i_glide_gscore>  (1) 
-6.7440818033650229

>  <r_i_glide_gscore_strain>  (1) 
0

>  <r_i_glide_hbond>  (1) 
-0.15793019947813045

>  <r_i_glide_ligand_efficiency>  (1) 
-0.18514669849429499

>  <r_i_glide_ligand_efficiency_ln>  (1) 
-1.4225333300177252

>  <r_i_glide_ligand_efficiency_sa>  (1) 
-0.60562712788733286

>  <r_i_glide_lipo>  (1) 
-3.6989325488587275

>  <r_i_glide_metal>  (1) 
-0

>  <r_i_glide_rewards>  (1) 
-0.97356463945054283

>  <r_lp_Energy>  (1) 
36.415389999999995

>  <r_lp_tautomer_probability>  (1) 
0.99989998499911525

>  <s_epik_Chemistry_Notes>  (1) 
This compound contains an acetal/aminal-like group ( X-CH(R)-Y where X, Y are N, S, or O) that may be acid/base labile, releasing an aldehyde.

>  <s_epik_cmdline>  (1) 
J2VwaWtfcHl0aG9uJywgJy1waHQnLCAnMS4wJywgJy1waCcsICc3LjQnLCAnLXRuJywgJzgnLCAnLW1hJywgJzUwMCcsICctaW1hZScsICc8aW5maWxlLm1hZT4nLCAnLW9tYWUnLCAnPG91dGZpbGUubWFlPic=

>  <s_epik_input>  (1) 
W2NIXTFbY0hdYyhbT0hdKVtjSF1bY0hdYzFbQ0gyXVtDSDJdQyg9TylbQ0BIXShOKFtDSDNdKVtDSDJdW0NIMl1bT0hdKVtDSDJdW0NASF0oT1tDSDNdKVNbQ0gyXVtDQEBIXShbT0hdKVtDQEhdMltDQEBIXShbQ0gzXSlbQ0BIXShbT0hdKVtDSDJdQyhbT0hdKT1DMltDSDNd

>  <s_glide_docking_method>  (1) 
confgen

>  <s_i_glide_gridfile>  (1) 
gpcr_5ht2c_6bqh_protein_autoprepared_prepared

>  <s_lp_Force_Field>  (1) 
S-OPLS

>  <s_lp_Variant>  (1) 
DiffSBDD_75-2

>  <s_m_source_file>  (1) 
generated_GPCR_5HT2C_ligand_DiffSBDD_2026-06-23_prepared.sdf

>  <GenAI_Model>  (1) 
DiffSBDD

>  <Protein>  (1) 
GPCR_5HT2C

$$$$
DiffSBDD_83
     RDKit          3D

  0  0  0  0  0  0  0  0  0  0999 V3000
M  V30 BEGIN CTAB
M  V30 COUNTS 54 55 0 0 1
M  V30 BEGIN ATOM
M  V30 1 C 40.774131 35.027831 62.657861 0
M  V30 2 C 38.746430 31.586397 57.012026 0
M  V30 3 N 38.486706 32.772131 56.392837 0
M  V30 4 O 38.161658 26.035975 54.165708 0
M  V30 5 O 41.509149 35.423601 63.756863 0
M  V30 6 C 38.449565 35.234367 61.703622 0
M  V30 7 C 37.033554 35.788577 61.749645 0
M  V30 8 C 37.985935 25.569708 56.322987 0
M  V30 9 C 38.957257 27.516699 50.971814 0
M  V30 10 C 39.355239 35.552040 62.672027 0
M  V30 11 C 39.266383 30.401795 56.268972 0
M  V30 12 C 37.570034 33.897481 59.620435 0
M  V30 13 N 38.045130 33.729135 57.219363 0
M  V30 14 O 40.845011 36.137739 64.846388 0
M  V30 15 C 38.698226 28.388859 54.728298 0 CFG=1
M  V30 16 C 39.343029 30.202809 52.967885 0
M  V30 17 C 38.261179 25.139821 55.144287 0
M  V30 18 O 41.244827 34.324343 61.767720 0
M  V30 19 C 37.724646 27.188177 54.929061 0 CFG=2
M  V30 20 C 38.445143 31.759057 58.331180 0
M  V30 21 O 37.645241 26.858344 56.352763 0
M  V30 22 C 39.607151 27.827623 52.322262 0
M  V30 23 C 38.767545 28.788153 53.208400 0 CFG=1
M  V30 24 C 38.013126 33.124643 58.408822 0
M  V30 25 Cl 38.044921 24.577282 57.732686 0
M  V30 26 C 38.765962 34.312800 60.509530 0
M  V30 27 C 38.163535 29.548631 55.625582 0
M  V30 28 H 38.603842 32.944251 55.405185 0
M  V30 29 H 36.834227 36.410236 60.876472 0
M  V30 30 H 36.296954 34.985635 61.793226 0
M  V30 31 H 36.885468 36.412460 62.631928 0
M  V30 32 H 39.633541 26.937679 50.344733 0
M  V30 33 H 38.045107 26.937754 51.098169 0
M  V30 34 H 38.715568 28.431125 50.430850 0
M  V30 35 H 39.052966 36.199538 63.476568 0
M  V30 36 H 39.983620 30.744948 55.526831 0
M  V30 37 H 39.839484 29.778154 56.955600 0
M  V30 38 H 36.865500 33.298967 60.198086 0
M  V30 39 H 37.022611 34.778398 59.283946 0
M  V30 40 H 41.198070 37.021679 64.730499 0
M  V30 41 H 39.680473 28.075926 55.083980 0
M  V30 42 H 40.347184 30.299285 53.380202 0
M  V30 43 H 39.429483 30.410902 51.901250 0
M  V30 44 H 38.726576 30.994609 53.390921 0
M  V30 45 H 38.559987 24.149827 54.834204 0
M  V30 46 H 36.728835 27.441416 54.567693 0
M  V30 47 H 38.527136 31.031073 59.123791 0
M  V30 48 H 40.568153 28.279846 52.095696 0
M  V30 49 H 39.854486 26.898226 52.829125 0
M  V30 50 H 37.742782 28.796107 52.832987 0
M  V30 51 H 39.514567 34.807537 59.891312 0
M  V30 52 H 39.207072 33.386293 60.876246 0
M  V30 53 H 37.555229 29.182784 56.451521 0
M  V30 54 H 37.474232 30.174225 55.057115 0
M  V30 END ATOM
M  V30 BEGIN BOND
M  V30 1 1 3 2
M  V30 2 1 5 1
M  V30 3 1 7 6
M  V30 4 1 10 1
M  V30 5 2 10 6
M  V30 6 1 11 2
M  V30 7 1 13 3
M  V30 8 1 14 5
M  V30 9 1 17 4
M  V30 10 2 17 8
M  V30 11 2 18 1
M  V30 12 1 19 4
M  V30 13 1 19 15
M  V30 14 2 20 2
M  V30 15 1 21 8
M  V30 16 1 21 19
M  V30 17 1 22 9
M  V30 18 1 23 15
M  V30 19 1 23 16
M  V30 20 1 23 22
M  V30 21 1 24 12
M  V30 22 2 24 13
M  V30 23 1 24 20
M  V30 24 1 25 8
M  V30 25 1 26 6
M  V30 26 1 26 12
M  V30 27 1 27 11
M  V30 28 1 27 15
M  V30 29 1 28 3
M  V30 30 1 29 7
M  V30 31 1 30 7
M  V30 32 1 31 7
M  V30 33 1 32 9
M  V30 34 1 33 9
M  V30 35 1 34 9
M  V30 36 1 35 10
M  V30 37 1 36 11
M  V30 38 1 37 11
M  V30 39 1 38 12
M  V30 40 1 39 12
M  V30 41 1 40 14
M  V30 42 1 15 41 CFG=1
M  V30 43 1 42 16
M  V30 44 1 43 16
M  V30 45 1 44 16
M  V30 46 1 45 17
M  V30 47 1 19 46 CFG=3
M  V30 48 1 47 20
M  V30 49 1 48 22
M  V30 50 1 49 22
M  V30 51 1 23 50 CFG=3
M  V30 52 1 51 26
M  V30 53 1 52 26
M  V30 54 1 53 27
M  V30 55 1 54 27
M  V30 END BOND
M  V30 END CTAB
M  END
>  <i_epik_Tot_Q>  (1) 
0

>  <i_epik_Tot_abs_Q>  (1) 
0

>  <i_i_glide_confnum>  (1) 
1826

>  <i_i_glide_lignum>  (1) 
192

>  <i_i_glide_posenum>  (1) 
110

>  <i_i_glide_rotatable_bonds>  (1) 
12

>  <i_lp_mmshare_version>  (1) 
72125

>  <i_m_source_file_index>  (1) 
84

>  <i_f3d_flags>  (1) 
0

>  <num_sample>  (1) 
100

>  <b_lp_Chiralities_Consistent>  (1) 
1

>  <r_epik_Charging_Adjusted_Penalty>  (1) 
0.41067983895260396

>  <r_epik_Ionization_Penalty>  (1) 
0.00076996626271645392

>  <r_epik_Ionization_Penalty_Charging>  (1) 
0

>  <r_epik_Ionization_Penalty_Neutral>  (1) 
0.00076996626271645392

>  <r_epik_State_Penalty>  (1) 
0.41067983895260396

>  <r_glide_ring_energy>  (1) 
0

>  <r_i_docking_score>  (1) 
-6.4794908887452447

>  <r_i_glide_ecoul>  (1) 
-6.1663953669412992

>  <r_i_glide_eff_state_penalty>  (1) 
0.41067983895260396

>  <r_i_glide_einternal>  (1) 
12.394264891288127

>  <r_i_glide_emodel>  (1) 
-55.015976488610143

>  <r_i_glide_emodel_strain>  (1) 
0.51492454437381241

>  <r_i_glide_energy>  (1) 
-43.309350425339268

>  <r_i_glide_erotb>  (1) 
1.1080255732668134

>  <r_i_glide_esite>  (1) 
-0.11904087825449117

>  <r_i_glide_evdw>  (1) 
-37.142955058397966

>  <r_i_glide_gscore>  (1) 
-6.890170727697849

>  <r_i_glide_gscore_strain>  (1) 
0

>  <r_i_glide_hbond>  (1) 
-0.32000000000000001

>  <r_i_glide_ligand_efficiency>  (1) 
-0.23998114402760165

>  <r_i_glide_ligand_efficiency_ln>  (1) 
-1.5083186561439401

>  <r_i_glide_ligand_efficiency_sa>  (1) 
-0.71994343208280509

>  <r_i_glide_lipo>  (1) 
-3.0098858190026432

>  <r_i_glide_metal>  (1) 
-0

>  <r_i_glide_rewards>  (1) 
-1.7671625457464351

>  <r_lp_Energy>  (1) 
14.849965999999998

>  <r_lp_tautomer_probability>  (1) 
0.5

>  <s_epik_Chemistry_Notes>  (1) 
This compound contains an acetal/aminal-like group ( X-CH(R)-Y where X, Y are N, S, or O) that may be acid/base labile, releasing an aldehyde.

>  <s_epik_cmdline>  (1) 
J2VwaWtfcHl0aG9uJywgJy1waHQnLCAnMS4wJywgJy1waCcsICc3LjQnLCAnLXRuJywgJzgnLCAnLW1hJywgJzUwMCcsICctaW1hZScsICc8aW5maWxlLm1hZT4nLCAnLW9tYWUnLCAnPG91dGZpbGUubWFlPic=

>  <s_epik_input>  (1) 
W09IXU9DKD1PKVxbQ0hdPUMoXFtDSDNdKVtDSDJdW0NIMl1jKFtjSF0xKW5bbkhdYzFbQ0gyXVtDSDJdW0NASF0oW0NAQEhdKFtDSDNdKVtDSDJdW0NIM10pW0NAQEhdKE8yKU9bQ0hdPUMyQ2w=

>  <s_glide_docking_method>  (1) 
confgen

>  <s_i_glide_gridfile>  (1) 
gpcr_5ht2c_6bqh_protein_autoprepared_prepared

>  <s_lp_Force_Field>  (1) 
S-OPLS

>  <s_lp_Variant>  (1) 
DiffSBDD_83-3

>  <s_m_source_file>  (1) 
generated_GPCR_5HT2C_ligand_DiffSBDD_2026-06-23_prepared.sdf

>  <GenAI_Model>  (1) 
DiffSBDD

>  <Protein>  (1) 
GPCR_5HT2C

$$$$
DiffSBDD_20
     RDKit          3D

  0  0  0  0  0  0  0  0  0  0999 V3000
M  V30 BEGIN CTAB
M  V30 COUNTS 53 54 0 0 1
M  V30 BEGIN ATOM
M  V30 1 C 38.632058 30.163993 58.070802 0 CFG=2
M  V30 2 O 36.553007 31.015476 58.967762 0
M  V30 3 O 38.544081 26.627321 57.862017 0
M  V30 4 P 39.451030 27.107846 56.794347 0
M  V30 5 C 38.657838 31.584077 60.011763 0 CFG=1
M  V30 6 N 40.247189 29.728454 51.172268 0
M  V30 7 C 37.505787 33.839964 60.825268 0
M  V30 8 C 34.905998 33.521188 60.580742 0
M  V30 9 C 37.846601 29.450440 56.954944 0
M  V30 10 C 37.958987 28.401169 54.621574 0 CFG=2
M  V30 11 N 38.975825 29.302898 59.212438 0 CHG=1
M  V30 12 C 37.899102 31.359309 58.691095 0
M  V30 13 F 39.908777 27.668721 50.167762 0
M  V30 14 C 36.211881 34.089045 60.002676 0
M  V30 15 C 39.714166 28.484564 51.216265 0
M  V30 16 O 40.045135 26.180062 55.810967 0 CHG=-1
M  V30 17 O 40.729620 27.879273 57.583655 0
M  V30 18 C 38.764712 28.861721 53.411502 0
M  V30 19 C 38.970580 28.011517 52.313311 0
M  V30 20 C 38.713879 28.643285 55.964721 0 CFG=2
M  V30 21 C 40.045136 30.537758 52.232019 0
M  V30 22 O 36.895204 31.663078 61.716469 0
M  V30 23 C 39.310823 30.155444 53.367381 0
M  V30 24 C 37.959289 32.388227 61.149197 0 CFG=1
M  V30 25 C 39.131115 30.163285 60.406895 0
M  V30 26 O 37.428418 27.095879 54.502301 0
M  V30 27 O 38.045136 32.475399 57.837469 0
M  V30 28 H 39.577981 30.528457 57.665382 0
M  V30 29 H 36.013972 31.261852 58.208091 0
M  V30 30 H 39.560148 32.146058 59.767762 0
M  V30 31 H 37.381791 34.369628 61.767775 0
M  V30 32 H 38.329788 34.351896 60.326760 0
M  V30 33 H 34.045258 33.937203 60.057773 0
M  V30 34 H 34.837202 32.442403 60.457687 0
M  V30 35 H 34.807055 33.748738 61.642166 0
M  V30 36 H 37.062194 28.821857 57.376654 0
M  V30 37 H 37.326239 30.226547 56.392576 0
M  V30 38 H 37.077767 29.042075 54.587483 0
M  V30 39 H 39.801380 28.753003 58.992999 0
M  V30 40 H 36.087928 35.169616 59.924686 0
M  V30 41 H 36.309564 33.756686 58.974569 0
M  V30 42 H 41.480320 27.329352 57.408350 0
M  V30 43 H 38.567950 27.009733 52.304620 0
M  V30 44 H 39.575598 29.273087 55.753991 0
M  V30 45 H 40.474006 31.524808 52.167744 0
M  V30 46 H 36.284601 31.503763 61.004479 0
M  V30 47 H 39.170504 30.844566 54.187194 0
M  V30 48 H 38.698394 32.475378 61.946906 0
M  V30 49 H 40.170575 30.175332 60.735606 0
M  V30 50 H 38.539083 29.737768 61.216320 0
M  V30 51 H 36.991726 27.022586 53.667062 0
M  V30 52 H 37.423967 32.393788 57.122100 0
M  V30 53 H 38.202700 28.666512 59.356247 0
M  V30 END ATOM
M  V30 BEGIN BOND
M  V30 1 2 4 3
M  V30 2 1 9 1
M  V30 3 1 11 1
M  V30 4 1 12 1
M  V30 5 1 12 2
M  V30 6 1 12 5
M  V30 7 1 14 7
M  V30 8 1 14 8
M  V30 9 2 15 6
M  V30 10 1 15 13
M  V30 11 1 16 4
M  V30 12 1 17 4
M  V30 13 1 18 10
M  V30 14 1 19 15
M  V30 15 2 19 18
M  V30 16 1 20 4
M  V30 17 1 20 9
M  V30 18 1 20 10
M  V30 19 1 21 6
M  V30 20 1 23 18
M  V30 21 2 23 21
M  V30 22 1 24 5
M  V30 23 1 24 7
M  V30 24 1 24 22
M  V30 25 1 25 5
M  V30 26 1 25 11
M  V30 27 1 26 10
M  V30 28 1 27 12
M  V30 29 1 1 28 CFG=3
M  V30 30 1 29 2
M  V30 31 1 5 30 CFG=3
M  V30 32 1 31 7
M  V30 33 1 32 7
M  V30 34 1 33 8
M  V30 35 1 34 8
M  V30 36 1 35 8
M  V30 37 1 36 9
M  V30 38 1 37 9
M  V30 39 1 10 38 CFG=1
M  V30 40 1 39 11
M  V30 41 1 40 14
M  V30 42 1 41 14
M  V30 43 1 42 17
M  V30 44 1 43 19
M  V30 45 1 20 44 CFG=3
M  V30 46 1 45 21
M  V30 47 1 46 22
M  V30 48 1 47 23
M  V30 49 1 24 48 CFG=1
M  V30 50 1 49 25
M  V30 51 1 50 25
M  V30 52 1 51 26
M  V30 53 1 52 27
M  V30 54 1 53 11
M  V30 END BOND
M  V30 END CTAB
M  END
>  <i_epik_Tot_Q>  (1) 
0

>  <i_epik_Tot_abs_Q>  (1) 
2

>  <i_i_glide_confnum>  (1) 
297

>  <i_i_glide_lignum>  (1) 
49

>  <i_i_glide_posenum>  (1) 
366

>  <i_i_glide_rotatable_bonds>  (1) 
13

>  <i_lp_mmshare_version>  (1) 
72125

>  <i_m_source_file_index>  (1) 
21

>  <i_f3d_flags>  (1) 
0

>  <num_sample>  (1) 
100

>  <b_lp_Chiralities_Consistent>  (1) 
1

>  <r_epik_Charging_Adjusted_Penalty>  (1) 
0.5459377507147144

>  <r_epik_Ionization_Penalty>  (1) 
0.54595169612510452

>  <r_epik_Ionization_Penalty_Charging>  (1) 
0.0068991791537532298

>  <r_epik_Ionization_Penalty_Neutral>  (1) 
0.53905251697135126

>  <r_epik_State_Penalty>  (1) 
0.53903857156096113

>  <r_glide_ring_energy>  (1) 
0

>  <r_i_docking_score>  (1) 
-6.4792417728335332

>  <r_i_glide_ecoul>  (1) 
-12.012594487189821

>  <r_i_glide_eff_state_penalty>  (1) 
0.53903857156096113

>  <r_i_glide_einternal>  (1) 
29.276906866365962

>  <r_i_glide_emodel>  (1) 
-48.419292988291332

>  <r_i_glide_emodel_strain>  (1) 
4.531436356116707

>  <r_i_glide_energy>  (1) 
-44.034948734921741

>  <r_i_glide_erotb>  (1) 
0.70809137694380864

>  <r_i_glide_esite>  (1) 
-0.07241831584483871

>  <r_i_glide_evdw>  (1) 
-32.022354247731919

>  <r_i_glide_gscore>  (1) 
-7.0182803443944941

>  <r_i_glide_gscore_strain>  (1) 
0.13285908902917676

>  <r_i_glide_hbond>  (1) 
-0.51855558977120286

>  <r_i_glide_ligand_efficiency>  (1) 
-0.23997191751235308

>  <r_i_glide_ligand_efficiency_ln>  (1) 
-1.5082606660666904

>  <r_i_glide_ligand_efficiency_sa>  (1) 
-0.71991575253705942

>  <r_i_glide_lipo>  (1) 
-2.310119018050083

>  <r_i_glide_metal>  (1) 
-0

>  <r_i_glide_rewards>  (1) 
-1.5551310012362853

>  <r_lp_Energy>  (1) 
8.4589179999999988

>  <s_epik_cmdline>  (1) 
J2VwaWtfcHl0aG9uJywgJy1waHQnLCAnMS4wJywgJy1waCcsICc3LjQnLCAnLXRuJywgJzgnLCAnLW1hJywgJzUwMCcsICctaW1hZScsICc8aW5maWxlLm1hZT4nLCAnLW9tYWUnLCAnPG91dGZpbGUubWFlPic=

>  <s_epik_input>  (1) 
W0NIM11bQ0gyXVtDSDJdW0NAQEhdKFtPSF0pW0NASF0xW0NIMl1bTkhdW0NASF0oQzEoW09IXSlbT0hdKVtDSDJdW0NAQEhdKFAoPU8pKFtPSF0pW09IXSlbQ0BIXShbT0hdKWMoW2NIXTIpW2NIXVtjSF1uYzJG

>  <s_glide_docking_method>  (1) 
confgen

>  <s_i_glide_gridfile>  (1) 
gpcr_5ht2c_6bqh_protein_autoprepared_prepared

>  <s_lp_Force_Field>  (1) 
S-OPLS

>  <s_lp_Variant>  (1) 
DiffSBDD_20-3

>  <s_m_source_file>  (1) 
generated_GPCR_5HT2C_ligand_DiffSBDD_2026-06-23_prepared.sdf

>  <GenAI_Model>  (1) 
DiffSBDD

>  <Protein>  (1) 
GPCR_5HT2C

$$$$
DiffSBDD_53
     RDKit          3D

  0  0  0  0  0  0  0  0  0  0999 V3000
M  V30 BEGIN CTAB
M  V30 COUNTS 81 85 0 0 1
M  V30 BEGIN ATOM
M  V30 1 C 39.352846 31.315673 55.401767 0
M  V30 2 C 37.425305 32.717248 61.737370 0
M  V30 3 C 40.562379 36.013367 63.153979 0
M  V30 4 C 38.633714 32.636212 55.707653 0
M  V30 5 C 40.460504 33.180437 61.879208 0
M  V30 6 C 39.856257 26.073362 54.153285 0
M  V30 7 C 38.143968 27.925762 57.622936 0
M  V30 8 N 38.385296 30.211188 55.242230 0 CHG=1
M  V30 9 N 42.045130 36.137739 66.167789 0
M  V30 10 C 36.499722 30.908020 59.571821 0
M  V30 11 C 38.973501 28.851412 55.183841 0 CFG=1
M  V30 12 N 38.045111 32.502087 57.024545 0
M  V30 13 C 40.167941 34.377096 61.334663 0
M  V30 14 C 39.821619 31.935580 61.309227 0
M  V30 15 C 39.194501 28.255017 56.585785 0 CFG=1
M  V30 16 C 38.763580 33.356869 59.636977 0 CFG=1
M  V30 17 C 38.077231 27.945025 54.312049 0 CFG=2
M  V30 18 C 40.769736 35.795076 65.592858 0
M  V30 19 O 40.444120 28.572936 57.155688 0
M  V30 20 C 37.583573 33.726218 57.613785 0
M  V30 21 C 35.969513 32.784911 61.243473 0
M  V30 22 C 35.510804 31.471871 60.605162 0
M  V30 23 C 38.453333 32.233416 60.674687 0
M  V30 24 O 37.572077 33.701604 59.002738 0
M  V30 25 C 37.969043 30.914574 60.015977 0
M  V30 26 C 38.395303 26.444551 54.510757 0 CFG=2
M  V30 27 O 38.183387 28.323050 52.953528 0
M  V30 28 C 41.594094 33.942696 64.022551 0
M  V30 29 N 38.045136 26.088667 55.913027 0 CFG=1 CHG=1
M  V30 30 O 39.305483 34.483727 60.265950 0
M  V30 31 C 37.962335 24.632860 56.171632 0
M  V30 32 C 38.876527 26.802213 56.917787 0 CFG=2
M  V30 33 C 41.374220 33.040080 63.021075 0
M  V30 34 C 40.758183 35.675015 61.727639 0
M  V30 35 C 40.967716 35.265965 64.192231 0
M  V30 36 H 40.045031 31.085668 56.210757 0
M  V30 37 H 39.946679 31.411494 54.491887 0
M  V30 38 H 37.455998 32.018812 62.569437 0
M  V30 39 H 37.707029 33.684132 62.149467 0
M  V30 40 H 40.105932 36.972452 63.349321 0
M  V30 41 H 39.353521 33.455160 55.714382 0
M  V30 42 H 37.868407 32.874914 54.965753 0
M  V30 43 H 40.081600 26.330434 53.118007 0
M  V30 44 H 40.587962 26.575577 54.784408 0
M  V30 45 H 40.045137 25.006448 54.258267 0
M  V30 46 H 38.395504 28.102824 58.666863 0
M  V30 47 H 37.111188 28.134327 57.367759 0
M  V30 48 H 37.888335 30.371639 54.376426 0
M  V30 49 H 42.368459 36.970408 65.671900 0
M  V30 50 H 41.906499 36.433928 67.122847 0
M  V30 51 H 36.442153 31.494838 58.669787 0
M  V30 52 H 36.198667 29.901223 59.279753 0
M  V30 53 H 39.949482 28.925930 54.702100 0
M  V30 54 H 37.195871 31.933361 56.959866 0
M  V30 55 H 40.501354 31.508800 60.570802 0
M  V30 56 H 39.718120 31.191428 62.099711 0
M  V30 57 H 39.527029 33.028486 58.932075 0
M  V30 58 H 37.029472 28.105698 54.568639 0
M  V30 59 H 40.112483 36.665357 65.601182 0
M  V30 60 H 40.302071 35.023536 66.204864 0
M  V30 61 H 41.093968 27.931887 56.899739 0
M  V30 62 H 38.059942 34.605017 57.207996 0
M  V30 63 H 36.530510 33.834983 57.368036 0
M  V30 64 H 35.834297 33.599800 60.534557 0
M  V30 65 H 35.303831 33.049246 62.062786 0
M  V30 66 H 34.557137 31.667167 60.115604 0
M  V30 67 H 35.325837 30.730205 61.375583 0
M  V30 68 H 38.611747 30.648492 59.176370 0
M  V30 69 H 38.080557 30.108310 60.740962 0
M  V30 70 H 37.730105 25.879936 53.854807 0
M  V30 71 H 38.985957 27.984005 52.582850 0
M  V30 72 H 42.249160 33.618912 64.819321 0
M  V30 73 H 38.944498 24.161887 56.130411 0
M  V30 74 H 37.548146 24.449682 57.163707 0
M  V30 75 H 37.313420 24.140919 55.447258 0
M  V30 76 H 39.615067 26.196851 57.443417 0
M  V30 77 H 41.876793 32.088808 63.119179 0
M  V30 78 H 41.821647 35.683557 61.491677 0
M  V30 79 H 40.306258 36.464852 61.128205 0
M  V30 80 H 37.100277 26.421359 56.045799 0
M  V30 81 H 37.726861 30.257548 56.006857 0
M  V30 END ATOM
M  V30 BEGIN BOND
M  V30 1 1 4 1
M  V30 2 1 8 1
M  V30 3 1 11 8
M  V30 4 1 12 4
M  V30 5 2 13 5
M  V30 6 1 14 5
M  V30 7 1 15 7
M  V30 8 1 15 11
M  V30 9 1 17 11
M  V30 10 1 18 9
M  V30 11 1 15 19 CFG=1
M  V30 12 1 20 12
M  V30 13 1 21 2
M  V30 14 1 22 10
M  V30 15 1 22 21
M  V30 16 1 23 2
M  V30 17 1 23 14
M  V30 18 1 23 16
M  V30 19 1 24 16
M  V30 20 1 24 20
M  V30 21 1 25 10
M  V30 22 1 25 23
M  V30 23 1 26 6
M  V30 24 1 26 17
M  V30 25 1 27 17
M  V30 26 1 29 26
M  V30 27 1 30 13
M  V30 28 1 30 16
M  V30 29 1 31 29
M  V30 30 1 32 7
M  V30 31 1 32 15
M  V30 32 1 32 29
M  V30 33 1 33 5
M  V30 34 2 33 28
M  V30 35 1 34 3
M  V30 36 1 34 13
M  V30 37 2 35 3
M  V30 38 1 35 18
M  V30 39 1 35 28
M  V30 40 1 36 1
M  V30 41 1 37 1
M  V30 42 1 38 2
M  V30 43 1 39 2
M  V30 44 1 40 3
M  V30 45 1 41 4
M  V30 46 1 42 4
M  V30 47 1 43 6
M  V30 48 1 44 6
M  V30 49 1 45 6
M  V30 50 1 46 7
M  V30 51 1 47 7
M  V30 52 1 48 8
M  V30 53 1 49 9
M  V30 54 1 50 9
M  V30 55 1 51 10
M  V30 56 1 52 10
M  V30 57 1 11 53 CFG=3
M  V30 58 1 54 12
M  V30 59 1 55 14
M  V30 60 1 56 14
M  V30 61 1 16 57 CFG=3
M  V30 62 1 17 58 CFG=1
M  V30 63 1 59 18
M  V30 64 1 60 18
M  V30 65 1 61 19
M  V30 66 1 62 20
M  V30 67 1 63 20
M  V30 68 1 64 21
M  V30 69 1 65 21
M  V30 70 1 66 22
M  V30 71 1 67 22
M  V30 72 1 68 25
M  V30 73 1 69 25
M  V30 74 1 26 70 CFG=3
M  V30 75 1 71 27
M  V30 76 1 72 28
M  V30 77 1 73 31
M  V30 78 1 74 31
M  V30 79 1 75 31
M  V30 80 1 32 76 CFG=1
M  V30 81 1 77 33
M  V30 82 1 78 34
M  V30 83 1 79 34
M  V30 84 1 29 80 CFG=1
M  V30 85 1 81 8
M  V30 END BOND
M  V30 END CTAB
M  END
>  <i_epik_Tot_Q>  (1) 
2

>  <i_epik_Tot_abs_Q>  (1) 
2

>  <i_i_glide_confnum>  (1) 
156

>  <i_i_glide_lignum>  (1) 
112

>  <i_i_glide_posenum>  (1) 
169

>  <i_i_glide_rotatable_bonds>  (1) 
10

>  <i_lp_mmshare_version>  (1) 
72125

>  <i_m_source_file_index>  (1) 
54

>  <i_f3d_flags>  (1) 
0

>  <num_sample>  (1) 
100

>  <b_lp_Chiralities_Consistent>  (1) 
1

>  <r_epik_Charging_Adjusted_Penalty>  (1) 
1.1947924258661535

>  <r_epik_Ionization_Penalty>  (1) 
1.111601378610803

>  <r_epik_Ionization_Penalty_Charging>  (1) 
0.15856543202638063

>  <r_epik_Ionization_Penalty_Neutral>  (1) 
0.95303594658442226

>  <r_epik_State_Penalty>  (1) 
1.036226993839773

>  <r_glide_ring_energy>  (1) 
0.00045989382302465386

>  <r_i_docking_score>  (1) 
-6.4791112308194139

>  <r_i_glide_ecoul>  (1) 
-7.2028321487328304

>  <r_i_glide_eff_state_penalty>  (1) 
1.036226993839773

>  <r_i_glide_einternal>  (1) 
7.5711411328022304

>  <r_i_glide_emodel>  (1) 
-63.538177075219863

>  <r_i_glide_emodel_strain>  (1) 
2.0395432730743153

>  <r_i_glide_energy>  (1) 
-48.178403276478278

>  <r_i_glide_erotb>  (1) 
0.59168961163588141

>  <r_i_glide_esite>  (1) 
-0.079196805080169116

>  <r_i_glide_evdw>  (1) 
-40.975571127745447

>  <r_i_glide_gscore>  (1) 
-7.5153382246591871

>  <r_i_glide_gscore_strain>  (1) 
0

>  <r_i_glide_hbond>  (1) 
-0.45049603200650856

>  <r_i_glide_ligand_efficiency>  (1) 
-0.18511746373769755

>  <r_i_glide_ligand_efficiency_ln>  (1) 
-1.4223087112910993

>  <r_i_glide_ligand_efficiency_sa>  (1) 
-0.60553149905994041

>  <r_i_glide_lipo>  (1) 
-3.7434529275370334

>  <r_i_glide_metal>  (1) 
-0

>  <r_i_glide_rewards>  (1) 
-0.70467869297415964

>  <r_lp_Energy>  (1) 
70.003378999999995

>  <s_epik_Chemistry_Notes>  (1) 
This compound contains an acetal/aminal-like group ( X-CH(R)-Y where X, Y are N, S, or O) that may be acid/base labile, releasing an aldehyde.

>  <s_epik_cmdline>  (1) 
J2VwaWtfcHl0aG9uJywgJy1waHQnLCAnMS4wJywgJy1waCcsICc3LjQnLCAnLXRuJywgJzgnLCAnLW1hJywgJzUwMCcsICctaW1hZScsICc8aW5maWxlLm1hZT4nLCAnLW9tYWUnLCAnPG91dGZpbGUubWFlPic=

>  <s_epik_input>  (1) 
W09IXVtDQEBdMTJbQ0BASF0oW0NIMl0xKU4oW0NIM10pW0NASF0oW0NIM10pW0NASF0oW09IXSlbQ0BIXTJbTkhdW0NIMl1bQ0gyXVtOSF1bQ0gyXU9bQ0BIXTNPQyhbQ0gyXVtDSF09QyhbQ0gyXVtOSDJdKVtDSF09W0NIXTQpPUM0W0NIMl1DMzVbQ0gyXVtDSDJdW0NIMl1bQ0gyXVtDSDJdNQ==

>  <s_glide_docking_method>  (1) 
confgen

>  <s_i_glide_gridfile>  (1) 
gpcr_5ht2c_6bqh_protein_autoprepared_prepared

>  <s_lp_Force_Field>  (1) 
S-OPLS

>  <s_lp_Variant>  (1) 
DiffSBDD_53-4

>  <s_m_source_file>  (1) 
generated_GPCR_5HT2C_ligand_DiffSBDD_2026-06-23_prepared.sdf

>  <GenAI_Model>  (1) 
DiffSBDD

>  <Protein>  (1) 
GPCR_5HT2C

$$$$
DiffSBDD_75
     RDKit          3D

  0  0  0  0  0  0  0  0  0  0999 V3000
M  V30 BEGIN CTAB
M  V30 COUNTS 76 77 0 0 1
M  V30 BEGIN ATOM
M  V30 1 C 39.915480 30.681081 62.214400 0
M  V30 2 C 36.833407 32.656494 61.498714 0
M  V30 3 O 37.245245 28.942740 57.690521 0
M  V30 4 C 41.112270 31.028457 65.725118 0
M  V30 5 C 38.991776 30.006300 55.504629 0 CFG=1
M  V30 6 C 39.941825 35.794706 62.366143 0
M  V30 7 C 38.649985 28.959124 57.856644 0 CFG=2
M  V30 8 C 39.130416 36.824491 62.891428 0
M  V30 9 O 36.826092 30.451164 54.567808 0
M  V30 10 C 39.439211 27.486620 55.834001 0 CFG=2
M  V30 11 O 36.445163 36.926876 60.365187 0
M  V30 12 S 38.058224 30.137772 60.256243 0
M  V30 13 C 39.972236 30.232837 66.379867 0
M  V30 14 C 37.575132 36.548406 61.029686 0
M  V30 15 C 39.012961 30.171112 58.730119 0
M  V30 16 C 41.238346 35.403353 63.069069 0
M  V30 17 C 39.556321 35.141187 61.178381 0
M  V30 18 O 38.119555 25.898857 54.567644 0
M  V30 19 C 39.990606 26.372273 56.748441 0
M  V30 20 C 39.425442 28.893808 56.504246 0 CFG=1
M  V30 21 O 40.444175 28.947084 66.734036 0
M  V30 22 O 37.920043 32.031691 62.168108 0
M  V30 23 O 41.818079 32.821448 61.769500 0
M  V30 24 C 42.735076 30.591446 63.995672 0
M  V30 25 N 41.310741 30.691058 64.310974 0
M  V30 26 C 41.216835 32.797949 62.844914 0
M  V30 27 C 37.945628 37.199923 62.218712 0
M  V30 28 C 41.248627 34.023773 63.770071 0
M  V30 29 C 40.508775 31.523903 63.377247 0 CFG=1
M  V30 30 C 38.372929 35.513959 60.519730 0
M  V30 31 C 37.612322 28.203691 54.204082 0
M  V30 32 C 38.851072 31.373315 61.320286 0 CFG=1
M  V30 33 C 40.068719 30.434233 54.493872 0
M  V30 34 C 38.060864 27.143597 55.229309 0 CFG=2
M  V30 35 C 37.718068 29.633455 54.745690 0
M  V30 36 H 40.718853 30.292397 61.587611 0
M  V30 37 H 39.445408 29.804559 62.664754 0
M  V30 38 H 36.390115 33.413451 62.145499 0
M  V30 39 H 37.139644 33.132520 60.568597 0
M  V30 40 H 36.056950 31.928114 61.261841 0
M  V30 41 H 36.950249 29.800146 57.407353 0
M  V30 42 H 42.020145 30.857098 66.306598 0
M  V30 43 H 40.915412 32.095017 65.831731 0
M  V30 44 H 38.896929 28.078790 58.447894 0
M  V30 45 H 39.419673 37.331956 63.801530 0
M  V30 46 H 38.234259 28.144512 53.310552 0
M  V30 47 H 40.135535 27.547739 54.998687 0
M  V30 48 H 36.308871 36.449445 59.560184 0
M  V30 49 H 39.651897 30.726434 67.295838 0
M  V30 50 H 39.101401 30.161185 65.727358 0
M  V30 51 H 38.835096 31.121108 58.227061 0
M  V30 52 H 40.061276 30.132734 59.002248 0
M  V30 53 H 42.043471 35.470973 62.340708 0
M  V30 54 H 41.472402 36.163080 63.814622 0
M  V30 55 H 40.170421 34.359541 60.766231 0
M  V30 56 H 38.327991 25.232549 55.205159 0
M  V30 57 H 39.275769 26.079902 57.516921 0
M  V30 58 H 40.232787 25.477250 56.175292 0
M  V30 59 H 40.909878 26.686204 57.243089 0
M  V30 60 H 40.461252 29.095025 56.767961 0
M  V30 61 H 39.788767 28.503233 67.255340 0
M  V30 62 H 43.217016 29.840777 64.623099 0
M  V30 63 H 42.891899 30.285822 62.967680 0
M  V30 64 H 43.245548 31.537516 64.167016 0
M  V30 65 H 37.325098 37.991372 62.611088 0
M  V30 66 H 42.172024 33.945292 64.344924 0
M  V30 67 H 40.444810 33.965146 64.496781 0
M  V30 68 H 39.645204 31.872756 63.937355 0
M  V30 69 H 38.083140 35.010582 59.608344 0
M  V30 70 H 36.589415 28.006600 53.885152 0
M  V30 71 H 38.756263 30.898035 56.083025 0
M  V30 72 H 39.321993 32.122368 60.683495 0
M  V30 73 H 39.816747 31.403378 54.062292 0
M  V30 74 H 41.048738 30.536908 54.956532 0
M  V30 75 H 40.152774 29.738664 53.661333 0
M  V30 76 H 37.314568 27.031584 56.015011 0
M  V30 END ATOM
M  V30 BEGIN BOND
M  V30 1 1 7 3
M  V30 2 1 8 6
M  V30 3 1 13 4
M  V30 4 1 14 11
M  V30 5 1 15 7
M  V30 6 1 15 12
M  V30 7 1 16 6
M  V30 8 2 17 6
M  V30 9 1 19 10
M  V30 10 1 20 5
M  V30 11 1 20 7
M  V30 12 1 20 10
M  V30 13 1 21 13
M  V30 14 1 22 2
M  V30 15 1 25 4
M  V30 16 1 25 24
M  V30 17 2 26 23
M  V30 18 2 27 8
M  V30 19 1 27 14
M  V30 20 1 28 16
M  V30 21 1 28 26
M  V30 22 1 29 1
M  V30 23 1 29 25
M  V30 24 1 29 26
M  V30 25 2 30 14
M  V30 26 1 30 17
M  V30 27 1 32 1
M  V30 28 1 32 12
M  V30 29 1 32 22
M  V30 30 1 33 5
M  V30 31 1 34 10
M  V30 32 1 34 18
M  V30 33 1 34 31
M  V30 34 1 35 5
M  V30 35 2 35 9
M  V30 36 1 35 31
M  V30 37 1 36 1
M  V30 38 1 37 1
M  V30 39 1 38 2
M  V30 40 1 39 2
M  V30 41 1 40 2
M  V30 42 1 41 3
M  V30 43 1 42 4
M  V30 44 1 43 4
M  V30 45 1 7 44 CFG=1
M  V30 46 1 45 8
M  V30 47 1 46 31
M  V30 48 1 10 47 CFG=3
M  V30 49 1 48 11
M  V30 50 1 49 13
M  V30 51 1 50 13
M  V30 52 1 51 15
M  V30 53 1 52 15
M  V30 54 1 53 16
M  V30 55 1 54 16
M  V30 56 1 55 17
M  V30 57 1 56 18
M  V30 58 1 57 19
M  V30 59 1 58 19
M  V30 60 1 59 19
M  V30 61 1 20 60 CFG=1
M  V30 62 1 61 21
M  V30 63 1 62 24
M  V30 64 1 63 24
M  V30 65 1 64 24
M  V30 66 1 65 27
M  V30 67 1 66 28
M  V30 68 1 67 28
M  V30 69 1 29 68 CFG=1
M  V30 70 1 69 30
M  V30 71 1 70 31
M  V30 72 1 5 71 CFG=1
M  V30 73 1 32 72 CFG=3
M  V30 74 1 73 33
M  V30 75 1 74 33
M  V30 76 1 75 33
M  V30 77 1 34 76 CFG=1
M  V30 END BOND
M  V30 END CTAB
M  END
>  <i_epik_Tot_Q>  (1) 
0

>  <i_epik_Tot_abs_Q>  (1) 
0

>  <i_i_glide_confnum>  (1) 
3672

>  <i_i_glide_lignum>  (1) 
172

>  <i_i_glide_posenum>  (1) 
82

>  <i_i_glide_rotatable_bonds>  (1) 
18

>  <i_lp_mmshare_version>  (1) 
72125

>  <i_m_source_file_index>  (1) 
76

>  <i_f3d_flags>  (1) 
0

>  <num_sample>  (1) 
100

>  <b_lp_Chiralities_Consistent>  (1) 
1

>  <r_epik_Charging_Adjusted_Penalty>  (1) 
0.60615279515584763

>  <r_epik_Ionization_Penalty>  (1) 
0.6077244911787385

>  <r_epik_Ionization_Penalty_Charging>  (1) 
0

>  <r_epik_Ionization_Penalty_Neutral>  (1) 
0.6077244911787385

>  <r_epik_State_Penalty>  (1) 
0.60615279515584763

>  <r_glide_ring_energy>  (1) 
0

>  <r_i_docking_score>  (1) 
-6.4748889363037687

>  <r_i_glide_ecoul>  (1) 
-4.2777779449728888

>  <r_i_glide_eff_state_penalty>  (1) 
0.60615279515584763

>  <r_i_glide_einternal>  (1) 
13.627230088541783

>  <r_i_glide_emodel>  (1) 
-63.678037093527287

>  <r_i_glide_emodel_strain>  (1) 
2.6298787464138726

>  <r_i_glide_energy>  (1) 
-50.867876336471404

>  <r_i_glide_erotb>  (1) 
1.0176109525924779

>  <r_i_glide_esite>  (1) 
0

>  <r_i_glide_evdw>  (1) 
-46.590098391498515

>  <r_i_glide_gscore>  (1) 
-7.0810417314596164

>  <r_i_glide_gscore_strain>  (1) 
0

>  <r_i_glide_hbond>  (1) 
-0.25952138406905456

>  <r_i_glide_ligand_efficiency>  (1) 
-0.18499682675153625

>  <r_i_glide_ligand_efficiency_ln>  (1) 
-1.4213818239361371

>  <r_i_glide_ligand_efficiency_sa>  (1) 
-0.60513688747874561

>  <r_i_glide_lipo>  (1) 
-4.1324521547232722

>  <r_i_glide_metal>  (1) 
-0

>  <r_i_glide_rewards>  (1) 
-0.73550753393890789

>  <r_lp_Energy>  (1) 
23.098794999999999

>  <r_lp_tautomer_probability>  (1) 
0.99999993999736703

>  <s_epik_Chemistry_Notes>  (1) 
This compound contains an acetal/aminal-like group ( X-CH(R)-Y where X, Y are N, S, or O) that may be acid/base labile, releasing an aldehyde.

>  <s_epik_cmdline>  (1) 
J2VwaWtfcHl0aG9uJywgJy1waHQnLCAnMS4wJywgJy1waCcsICc3LjQnLCAnLXRuJywgJzgnLCAnLW1hJywgJzUwMCcsICctaW1hZScsICc8aW5maWxlLm1hZT4nLCAnLW9tYWUnLCAnPG91dGZpbGUubWFlPic=

>  <s_epik_input>  (1) 
W2NIXTFbY0hdYyhbT0hdKVtjSF1bY0hdYzFbQ0gyXVtDSDJdQyg9TylbQ0BIXShOKFtDSDNdKVtDSDJdW0NIMl1bT0hdKVtDSDJdW0NASF0oT1tDSDNdKVNbQ0gyXVtDQEBIXShbT0hdKVtDQEhdMltDQEBIXShbQ0gzXSlbQ0BIXShbT0hdKVtDSDJdQyhbT0hdKT1DMltDSDNd

>  <s_glide_docking_method>  (1) 
confgen

>  <s_i_glide_gridfile>  (1) 
gpcr_5ht2c_6bqh_protein_autoprepared_prepared

>  <s_lp_Force_Field>  (1) 
S-OPLS

>  <s_lp_Variant>  (1) 
DiffSBDD_75-9

>  <s_m_source_file>  (1) 
generated_GPCR_5HT2C_ligand_DiffSBDD_2026-06-23_prepared.sdf

>  <GenAI_Model>  (1) 
DiffSBDD

>  <Protein>  (1) 
GPCR_5HT2C

$$$$
DiffSBDD_34
     RDKit          3D

  0  0  0  0  0  0  0  0  0  0999 V3000
M  V30 BEGIN CTAB
M  V30 COUNTS 77 79 0 0 1
M  V30 BEGIN ATOM
M  V30 1 C 38.303994 30.072525 54.116954 0
M  V30 2 C 40.697056 34.624330 63.266786 0
M  V30 3 C 41.216906 27.907525 57.414651 0
M  V30 4 C 39.779875 27.388564 57.580132 0
M  V30 5 C 40.376311 35.458337 66.264956 0
M  V30 6 N 37.259564 27.833133 53.940844 0
M  V30 7 C 39.045547 33.673314 61.553455 0
M  V30 8 C 38.254215 29.379698 59.876898 0
M  V30 9 C 39.643333 34.938240 62.186750 0
M  V30 10 C 41.203624 35.905335 63.956627 0
M  V30 11 O 38.476449 33.454449 55.367833 0
M  V30 12 C 37.853926 33.937793 60.596325 0 CFG=2
M  V30 13 N 38.374487 33.263628 57.596115 0
M  V30 14 C 38.479990 31.270988 56.354566 0 CFG=1
M  V30 15 N 39.645030 29.757061 52.383492 0
M  V30 16 C 39.645000 26.449548 58.771666 0
M  V30 17 C 38.707733 28.494119 57.524059 0
M  V30 18 O 40.045309 35.812598 68.579755 0
M  V30 19 C 37.542437 30.645446 55.290198 0
M  V30 20 C 38.212152 30.514245 60.922327 0
M  V30 21 O 40.845123 37.502676 67.367805 0 CHG=-1
M  V30 22 C 40.607623 29.935003 51.316469 0
M  V30 23 C 38.345357 32.316570 58.670147 0 CFG=1
M  V30 24 O 36.770884 34.443228 61.352971 0
M  V30 25 C 37.041716 31.493330 60.708313 0
M  V30 26 N 41.531885 35.737750 65.391066 0 CHG=1
M  V30 27 C 38.444941 32.776418 56.389320 0
M  V30 28 C 37.360362 32.694919 59.794287 0 CFG=1
M  V30 29 C 40.428250 36.331219 67.510392 0
M  V30 30 C 38.094755 30.975852 57.863173 0 CFG=2
M  V30 31 C 38.164938 28.791308 53.503816 0
M  V30 32 C 39.282384 30.653945 53.367674 0
M  V30 33 C 38.812356 29.731575 58.472990 0 CFG=1
M  V30 34 N 38.967550 28.591694 52.470250 0
M  V30 35 H 40.262223 33.938873 63.992573 0
M  V30 36 H 41.538186 34.087037 62.827221 0
M  V30 37 H 41.542649 28.487701 58.278261 0
M  V30 38 H 41.305682 28.536411 56.528585 0
M  V30 39 H 41.917007 27.078828 57.299975 0
M  V30 40 H 39.585164 26.764104 56.705967 0
M  V30 41 H 40.332709 34.397236 66.518585 0
M  V30 42 H 39.452371 35.738960 65.767798 0
M  V30 43 H 36.651083 28.001581 54.726733 0
M  V30 44 H 37.173867 26.940880 53.474719 0
M  V30 45 H 39.853620 33.170656 61.025111 0
M  V30 46 H 38.730748 32.993976 62.346275 0
M  V30 47 H 38.855507 28.584745 60.308593 0
M  V30 48 H 37.254107 28.962254 59.766530 0
M  V30 49 H 40.078622 35.567931 61.409069 0
M  V30 50 H 38.839831 35.519535 62.639414 0
M  V30 51 H 40.457432 36.699144 63.888355 0
M  V30 52 H 42.086448 36.275982 63.434496 0
M  V30 53 H 38.136771 34.721719 59.893790 0
M  V30 54 H 38.332124 34.255377 57.773850 0
M  V30 55 H 39.518350 30.980587 56.188626 0
M  V30 56 H 40.045123 26.914320 59.671973 0
M  V30 57 H 40.201069 25.532602 58.567953 0
M  V30 58 H 38.606483 26.172724 58.954147 0
M  V30 59 H 38.789432 28.808362 56.493379 0
M  V30 60 H 37.711531 28.055503 57.595943 0
M  V30 61 H 36.829216 31.387422 54.934316 0
M  V30 62 H 36.914467 29.884718 55.752748 0
M  V30 63 H 38.087658 30.091865 61.917843 0
M  V30 64 H 39.178283 31.011312 60.972078 0
M  V30 65 H 41.073600 30.919555 51.375936 0
M  V30 66 H 40.097589 29.857553 50.356414 0
M  V30 67 H 41.370197 29.159177 51.367713 0
M  V30 68 H 39.339688 32.309600 59.086661 0
M  V30 69 H 36.050445 34.619191 60.766426 0
M  V30 70 H 36.190974 30.948652 60.297091 0
M  V30 71 H 36.691388 31.854184 61.675371 0
M  V30 72 H 42.270974 35.071329 65.547851 0
M  V30 73 H 36.423224 32.972020 59.306594 0
M  V30 74 H 37.025352 30.769351 57.893860 0
M  V30 75 H 39.731490 31.633740 53.434380 0
M  V30 76 H 39.862159 29.993247 58.581386 0
M  V30 77 H 41.839923 36.656250 65.707121 0
M  V30 END ATOM
M  V30 BEGIN BOND
M  V30 1 1 4 3
M  V30 2 1 9 2
M  V30 3 1 9 7
M  V30 4 1 10 2
M  V30 5 1 12 7
M  V30 6 1 16 4
M  V30 7 1 17 4
M  V30 8 1 19 1
M  V30 9 1 19 14
M  V30 10 1 20 8
M  V30 11 1 22 15
M  V30 12 1 23 13
M  V30 13 1 24 12
M  V30 14 1 25 20
M  V30 15 1 26 5
M  V30 16 1 26 10
M  V30 17 2 27 11
M  V30 18 1 27 13
M  V30 19 1 27 14
M  V30 20 1 28 12
M  V30 21 1 28 23
M  V30 22 1 28 25
M  V30 23 1 29 5
M  V30 24 2 29 18
M  V30 25 1 29 21
M  V30 26 1 30 14
M  V30 27 1 30 23
M  V30 28 1 31 1
M  V30 29 1 31 6
M  V30 30 2 32 1
M  V30 31 1 32 15
M  V30 32 1 33 8
M  V30 33 1 33 17
M  V30 34 1 33 30
M  V30 35 1 34 15
M  V30 36 2 34 31
M  V30 37 1 35 2
M  V30 38 1 36 2
M  V30 39 1 37 3
M  V30 40 1 38 3
M  V30 41 1 39 3
M  V30 42 1 40 4
M  V30 43 1 41 5
M  V30 44 1 42 5
M  V30 45 1 43 6
M  V30 46 1 44 6
M  V30 47 1 45 7
M  V30 48 1 46 7
M  V30 49 1 47 8
M  V30 50 1 48 8
M  V30 51 1 49 9
M  V30 52 1 50 9
M  V30 53 1 51 10
M  V30 54 1 52 10
M  V30 55 1 12 53 CFG=3
M  V30 56 1 54 13
M  V30 57 1 14 55 CFG=3
M  V30 58 1 56 16
M  V30 59 1 57 16
M  V30 60 1 58 16
M  V30 61 1 59 17
M  V30 62 1 60 17
M  V30 63 1 61 19
M  V30 64 1 62 19
M  V30 65 1 63 20
M  V30 66 1 64 20
M  V30 67 1 65 22
M  V30 68 1 66 22
M  V30 69 1 67 22
M  V30 70 1 23 68 CFG=1
M  V30 71 1 69 24
M  V30 72 1 70 25
M  V30 73 1 71 25
M  V30 74 1 72 26
M  V30 75 1 28 73 CFG=3
M  V30 76 1 30 74 CFG=3
M  V30 77 1 75 32
M  V30 78 1 33 76 CFG=1
M  V30 79 1 77 26
M  V30 END BOND
M  V30 END CTAB
M  END
>  <i_epik_Tot_Q>  (1) 
0

>  <i_epik_Tot_abs_Q>  (1) 
2

>  <i_i_glide_confnum>  (1) 
814

>  <i_i_glide_lignum>  (1) 
78

>  <i_i_glide_posenum>  (1) 
333

>  <i_i_glide_rotatable_bonds>  (1) 
13

>  <i_lp_mmshare_version>  (1) 
72125

>  <i_m_source_file_index>  (1) 
35

>  <i_f3d_flags>  (1) 
0

>  <num_sample>  (1) 
100

>  <b_lp_Chiralities_Consistent>  (1) 
1

>  <r_epik_Charging_Adjusted_Penalty>  (1) 
0.0058843035304018774

>  <r_epik_Ionization_Penalty>  (1) 
0.0059063327183222396

>  <r_epik_Ionization_Penalty_Charging>  (1) 
0.0010621566203982099

>  <r_epik_Ionization_Penalty_Neutral>  (1) 
0.0048441760979240295

>  <r_epik_State_Penalty>  (1) 
0.0048221469100036673

>  <r_glide_ring_energy>  (1) 
0

>  <r_i_docking_score>  (1) 
-6.4747715230601166

>  <r_i_glide_ecoul>  (1) 
-4.6712205342115114

>  <r_i_glide_eff_state_penalty>  (1) 
0.0048221469100036673

>  <r_i_glide_einternal>  (1) 
18.24160437166795

>  <r_i_glide_emodel>  (1) 
-43.690709248366964

>  <r_i_glide_emodel_strain>  (1) 
2.6193396915735434

>  <r_i_glide_energy>  (1) 
-49.535767797871294

>  <r_i_glide_erotb>  (1) 
0.88794746620747522

>  <r_i_glide_esite>  (1) 
-0.14343570189557023

>  <r_i_glide_evdw>  (1) 
-44.86454726365978

>  <r_i_glide_gscore>  (1) 
-6.4795936699701207

>  <r_i_glide_gscore_strain>  (1) 
0

>  <r_i_glide_hbond>  (1) 
0

>  <r_i_glide_ligand_efficiency>  (1) 
-0.19043445656059166

>  <r_i_glide_ligand_efficiency_ln>  (1) 
-1.4304586406336206

>  <r_i_glide_ligand_efficiency_sa>  (1) 
-0.61693371284355714

>  <r_i_glide_lipo>  (1) 
-2.8393197527663334

>  <r_i_glide_metal>  (1) 
-0

>  <r_i_glide_rewards>  (1) 
-1.4408752382009757

>  <r_lp_Energy>  (1) 
22.816407999999999

>  <r_lp_tautomer_probability>  (1) 
0.99999999999999989

>  <s_epik_cmdline>  (1) 
J2VwaWtfcHl0aG9uJywgJy1waHQnLCAnMS4wJywgJy1waCcsICc3LjQnLCAnLXRuJywgJzgnLCAnLW1hJywgJzUwMCcsICctaW1hZScsICc8aW5maWxlLm1hZT4nLCAnLW9tYWUnLCAnPG91dGZpbGUubWFlPic=

>  <s_epik_input>  (1) 
W0NIM11uKFtjSF0xKW5jKFtOSDJdKWMxW0NIMl1bQ0BASF0oQyg9TylbTkhdMilbQ0BIXShbQ0BASF0yMylbQ0BIXShbQ0gyXVtDSF0oW0NIM10pW0NIM10pW0NIMl1bQ0gyXVtDSDJdW0NASF0zW0NAQEhdKFtPSF0pW0NIMl1bQ0gyXVtDSDJdW0NIMl1bTkhdW0NIMl1DKD1PKVtPSF0=

>  <s_glide_docking_method>  (1) 
confgen

>  <s_i_glide_gridfile>  (1) 
gpcr_5ht2c_6bqh_protein_autoprepared_prepared

>  <s_lp_Force_Field>  (1) 
S-OPLS

>  <s_lp_Variant>  (1) 
DiffSBDD_34-1

>  <s_m_source_file>  (1) 
generated_GPCR_5HT2C_ligand_DiffSBDD_2026-06-23_prepared.sdf

>  <GenAI_Model>  (1) 
DiffSBDD

>  <Protein>  (1) 
GPCR_5HT2C

$$$$
DiffSBDD_66
     RDKit          3D

  0  0  0  0  0  0  0  0  0  0999 V3000
M  V30 BEGIN CTAB
M  V30 COUNTS 63 66 0 0 1
M  V30 BEGIN ATOM
M  V30 1 C 38.725174 28.137774 59.902495 0
M  V30 2 C 37.893234 29.362998 59.234868 0
M  V30 3 C 38.965849 26.041114 57.406697 0 CFG=2
M  V30 4 N 40.779629 29.988079 63.333227 0
M  V30 5 O 43.530583 25.492984 67.248282 0
M  V30 6 O 38.476909 24.691717 55.420040 0
M  V30 7 O 37.568196 25.877031 57.523243 0
M  V30 8 C 43.551210 27.244006 65.608181 0
M  V30 9 C 39.950617 28.301138 57.949782 0
M  V30 10 C 38.757586 28.171307 55.960146 0
M  V30 11 N 40.034405 28.053439 59.261291 0
M  V30 12 C 38.234669 28.320953 53.460650 0
M  V30 13 C 41.617975 28.747426 65.423002 0
M  V30 14 N 41.169682 29.005173 62.490545 0
M  V30 15 C 39.645145 29.124693 51.559123 0
M  V30 16 C 39.334883 27.503178 57.065332 0
M  V30 17 C 37.936887 29.440318 56.294099 0 CFG=1
M  V30 18 C 37.226820 29.336213 57.761125 0
M  V30 19 C 39.223476 30.857358 54.740982 0
M  V30 20 C 40.845134 29.456960 61.277397 0
M  V30 21 C 41.143385 28.600053 60.052416 0
M  V30 22 C 39.452391 24.956527 56.424286 0
M  V30 23 C 40.243675 30.757043 61.337184 0
M  V30 24 C 41.645181 26.970204 67.102505 0
M  V30 25 C 38.702771 30.699663 55.935162 0
M  V30 26 C 40.897085 29.916891 64.783871 0
M  V30 27 C 42.921618 28.343633 64.991177 0
M  V30 28 O 40.356799 30.800235 65.452392 0
M  V30 29 Cl 43.777862 29.224739 63.768382 0
M  V30 30 C 40.212325 31.043663 62.669138 0
M  V30 31 C 39.585685 30.552863 53.515916 0
M  V30 32 C 38.845035 27.670652 54.701809 0
M  V30 33 C 41.004399 28.065821 66.495352 0
M  V30 34 C 39.184295 29.337626 52.804332 0
M  V30 35 C 42.912715 26.555594 66.655750 0
M  V30 36 H 38.795226 28.229037 60.983735 0
M  V30 37 H 38.479223 30.275850 59.295656 0
M  V30 38 H 39.402305 25.785538 58.372158 0
M  V30 39 H 43.041747 25.136086 67.973603 0
M  V30 40 H 38.828456 24.056162 54.812119 0
M  V30 41 H 37.295494 25.525805 56.683353 0
M  V30 42 H 44.535189 26.937772 65.284653 0
M  V30 43 H 40.152977 29.337742 57.718628 0
M  V30 44 H 37.060044 29.542621 59.913485 0
M  V30 45 H 37.280482 28.802654 53.662645 0
M  V30 46 H 37.996408 27.521456 52.757324 0
M  V30 47 H 40.308406 29.831156 51.080820 0
M  V30 48 H 39.363716 28.241433 51.004040 0
M  V30 49 H 38.213004 27.197157 59.729942 0
M  V30 50 H 37.076405 29.458591 55.630209 0
M  V30 51 H 36.489588 30.137697 57.768579 0
M  V30 52 H 36.618034 28.434287 57.767774 0
M  V30 53 H 41.784020 29.158228 59.367832 0
M  V30 54 H 41.732819 27.737755 60.359143 0
M  V30 55 H 40.409791 25.230912 55.979462 0
M  V30 56 H 39.617379 24.029021 56.972159 0
M  V30 57 H 39.885847 31.374062 60.528665 0
M  V30 58 H 41.160720 26.448059 67.914581 0
M  V30 59 H 38.807243 31.451040 56.703699 0
M  V30 60 H 39.836928 31.910763 63.194235 0
M  V30 61 H 40.212732 31.248800 52.977263 0
M  V30 62 H 39.410512 26.772183 54.528214 0
M  V30 63 H 40.030138 28.376759 66.843797 0
M  V30 END ATOM
M  V30 BEGIN BOND
M  V30 1 1 2 1
M  V30 2 1 7 3
M  V30 3 1 11 1
M  V30 4 1 11 9
M  V30 5 1 14 4
M  V30 6 1 16 3
M  V30 7 2 16 9
M  V30 8 1 16 10
M  V30 9 1 17 10
M  V30 10 1 18 2
M  V30 11 1 18 17
M  V30 12 2 20 14
M  V30 13 1 21 11
M  V30 14 1 21 20
M  V30 15 1 22 3
M  V30 16 1 22 6
M  V30 17 1 23 20
M  V30 18 1 25 17
M  V30 19 2 25 19
M  V30 20 1 26 4
M  V30 21 1 26 13
M  V30 22 1 27 8
M  V30 23 2 27 13
M  V30 24 2 28 26
M  V30 25 1 29 27
M  V30 26 1 30 4
M  V30 27 2 30 23
M  V30 28 2 31 19
M  V30 29 2 32 10
M  V30 30 1 32 12
M  V30 31 1 33 13
M  V30 32 2 33 24
M  V30 33 1 34 12
M  V30 34 2 34 15
M  V30 35 1 34 31
M  V30 36 1 35 5
M  V30 37 2 35 8
M  V30 38 1 35 24
M  V30 39 1 36 1
M  V30 40 1 37 2
M  V30 41 1 3 38 CFG=1
M  V30 42 1 39 5
M  V30 43 1 40 6
M  V30 44 1 41 7
M  V30 45 1 42 8
M  V30 46 1 43 9
M  V30 47 1 44 2
M  V30 48 1 45 12
M  V30 49 1 46 12
M  V30 50 1 47 15
M  V30 51 1 48 15
M  V30 52 1 49 1
M  V30 53 1 17 50 CFG=3
M  V30 54 1 51 18
M  V30 55 1 52 18
M  V30 56 1 53 21
M  V30 57 1 54 21
M  V30 58 1 55 22
M  V30 59 1 56 22
M  V30 60 1 57 23
M  V30 61 1 58 24
M  V30 62 1 59 25
M  V30 63 1 60 30
M  V30 64 1 61 31
M  V30 65 1 62 32
M  V30 66 1 63 33
M  V30 END BOND
M  V30 END CTAB
M  END
>  <i_epik_Tot_Q>  (1) 
0

>  <i_epik_Tot_abs_Q>  (1) 
0

>  <i_i_glide_confnum>  (1) 
165

>  <i_i_glide_lignum>  (1) 
147

>  <i_i_glide_posenum>  (1) 
52

>  <i_i_glide_rotatable_bonds>  (1) 
9

>  <i_lp_mmshare_version>  (1) 
72125

>  <i_m_source_file_index>  (1) 
67

>  <i_f3d_flags>  (1) 
0

>  <num_sample>  (1) 
100

>  <b_lp_Chiralities_Consistent>  (1) 
1

>  <r_epik_Charging_Adjusted_Penalty>  (1) 
1.3281530491987052

>  <r_epik_Ionization_Penalty>  (1) 
1.3282883392360914

>  <r_epik_Ionization_Penalty_Charging>  (1) 
0

>  <r_epik_Ionization_Penalty_Neutral>  (1) 
1.3282883392360914

>  <r_epik_State_Penalty>  (1) 
1.3281530491987052

>  <r_glide_ring_energy>  (1) 
0

>  <r_i_docking_score>  (1) 
-6.4745673715018937

>  <r_i_glide_ecoul>  (1) 
-2.6968812965995057

>  <r_i_glide_eff_state_penalty>  (1) 
1.3281530491987052

>  <r_i_glide_einternal>  (1) 
12.731854931485831

>  <r_i_glide_emodel>  (1) 
-60.555211288182988

>  <r_i_glide_emodel_strain>  (1) 
1.1814653052947506

>  <r_i_glide_energy>  (1) 
-53.549346854562422

>  <r_i_glide_erotb>  (1) 
0.50097048188181392

>  <r_i_glide_esite>  (1) 
-0.045846891189810592

>  <r_i_glide_evdw>  (1) 
-50.852465557962915

>  <r_i_glide_gscore>  (1) 
-7.8027204207005987

>  <r_i_glide_gscore_strain>  (1) 
0

>  <r_i_glide_hbond>  (1) 
-0.25565777334084477

>  <r_i_glide_ligand_efficiency>  (1) 
-0.18498763918576838

>  <r_i_glide_ligand_efficiency_ln>  (1) 
-1.4213112333253792

>  <r_i_glide_ligand_efficiency_sa>  (1) 
-0.60510683434188972

>  <r_i_glide_lipo>  (1) 
-3.9539878712165217

>  <r_i_glide_metal>  (1) 
-0

>  <r_i_glide_rewards>  (1) 
-1.1010428944471644

>  <r_lp_Energy>  (1) 
65.328841999999995

>  <r_lp_tautomer_probability>  (1) 
0.99999944244275329

>  <s_epik_cmdline>  (1) 
J2VwaWtfcHl0aG9uJywgJy1waHQnLCAnMS4wJywgJy1waCcsICc3LjQnLCAnLXRuJywgJzgnLCAnLW1hJywgJzUwMCcsICctaW1hZScsICc8aW5maWxlLm1hZT4nLCAnLW9tYWUnLCAnPG91dGZpbGUubWFlPic=

>  <s_epik_input>  (1) 
W0NIXTEvW0NIMl1DKD1bQ0gyXSlbQ0hdPUM9W0NIXVtDQEBIXShDPTFcMilbQ0gyXS9bQ0hdPVtDSF1cTihbQ0gyXVtDQEBIXTJbQ0BASF0oW09IXSlbQ0gyXVtPSF0pW0NIMl1jKFtjSF1bY0hdMylubjNDKD1PKWM0YyhDbClbY0hdYyhbT0hdKVtjSF1bY0hdNA==

>  <s_glide_docking_method>  (1) 
confgen

>  <s_i_glide_gridfile>  (1) 
gpcr_5ht2c_6bqh_protein_autoprepared_prepared

>  <s_lp_Force_Field>  (1) 
S-OPLS

>  <s_lp_Variant>  (1) 
DiffSBDD_66-3

>  <s_m_source_file>  (1) 
generated_GPCR_5HT2C_ligand_DiffSBDD_2026-06-23_prepared.sdf

>  <GenAI_Model>  (1) 
DiffSBDD

>  <Protein>  (1) 
GPCR_5HT2C

$$$$
DiffSBDD_93
     RDKit          3D

  0  0  0  0  0  0  0  0  0  0999 V3000
M  V30 BEGIN CTAB
M  V30 COUNTS 83 84 0 0 1
M  V30 BEGIN ATOM
M  V30 1 C 37.346854 31.971595 61.166840 0
M  V30 2 O 36.648753 33.112129 61.625778 0
M  V30 3 C 42.677445 32.501693 65.469445 0
M  V30 4 C 38.281191 25.173114 56.726202 0
M  V30 5 O 40.843773 30.988126 61.213547 0
M  V30 6 C 37.643244 29.193571 57.012591 0
M  V30 7 N 37.245122 30.168239 56.215335 0
M  V30 8 O 37.057863 28.920727 58.053077 0
M  V30 9 O 38.089060 36.010972 62.034265 0
M  V30 10 C 36.954193 24.477810 56.512381 0
M  V30 11 C 42.191002 33.170730 64.189769 0
M  V30 12 C 39.089408 30.121616 59.810764 0
M  V30 13 C 39.267606 32.843160 62.565429 0
M  V30 14 C 39.416397 27.343690 57.605081 0 CFG=1
M  V30 15 C 38.884307 28.393372 56.566289 0 CFG=2
M  V30 16 C 41.519564 34.622970 65.849017 0 CFG=1
M  V30 17 C 40.597775 34.870836 63.477416 0 CFG=1
M  V30 18 C 41.551938 36.039114 63.119394 0
M  V30 19 C 39.311130 28.606466 60.021372 0
M  V30 20 S 39.297317 35.306634 61.070894 0 CHG=1
M  V30 21 O 42.400479 27.470944 58.123801 0
M  V30 22 N 38.794699 31.934798 61.501279 0
M  V30 23 O 38.406822 34.408950 59.952242 0
M  V30 24 O 41.733277 32.897211 67.654926 0
M  V30 25 F 39.643244 34.548199 67.367398 0
M  V30 26 C 37.490590 25.390856 55.448804 0
M  V30 27 C 41.543734 28.386970 58.769641 0
M  V30 28 C 40.116402 27.842451 58.934106 0 CFG=2
M  V30 29 C 39.652658 31.053966 60.909313 0
M  V30 30 C 39.970738 29.333191 55.963693 0
M  V30 31 C 39.751416 36.567806 66.221845 0
M  V30 32 C 40.128038 34.095005 62.189197 0 CFG=2
M  V30 33 O 38.771018 29.353991 53.891330 0
M  V30 34 C 38.400398 26.186295 57.861326 0
M  V30 35 C 40.515997 35.363773 66.789870 0 CFG=2
M  V30 36 C 39.651668 29.923442 54.571645 0
M  V30 37 C 42.364349 33.534176 66.561589 0 CFG=1
M  V30 38 O 40.295515 30.934225 54.230070 0 CHG=-1
M  V30 39 N 41.075253 34.000632 64.579362 0
M  V30 40 H 37.200264 32.038332 60.089427 0
M  V30 41 H 36.851942 31.066824 61.517470 0
M  V30 42 H 36.453497 33.003409 62.546714 0
M  V30 43 H 42.098584 31.589646 65.622345 0
M  V30 44 H 43.728271 32.215996 65.429122 0
M  V30 45 H 39.171336 24.555620 56.609956 0
M  V30 46 H 37.732429 30.336947 55.341188 0
M  V30 47 H 36.445188 30.753659 56.481321 0
M  V30 48 H 38.280157 36.936929 62.065883 0
M  V30 49 H 36.958200 23.408767 56.313322 0
M  V30 50 H 36.075905 24.864848 57.023774 0
M  V30 51 H 41.928716 32.433423 63.432516 0
M  V30 52 H 42.943233 33.818310 63.759178 0
M  V30 53 H 38.027490 30.231808 59.696057 0
M  V30 54 H 39.502340 30.435279 58.854964 0
M  V30 55 H 39.778384 32.211740 63.291054 0
M  V30 56 H 38.445754 33.209298 63.120708 0
M  V30 57 H 40.210610 26.830307 57.065085 0
M  V30 58 H 38.538688 27.781972 55.737173 0
M  V30 59 H 42.267642 35.372706 65.603779 0
M  V30 60 H 39.700836 35.350874 63.853114 0
M  V30 61 H 41.071219 36.812195 62.519430 0
M  V30 62 H 41.900062 36.537713 64.009469 0
M  V30 63 H 42.442628 35.738539 62.589025 0
M  V30 64 H 39.788230 28.447227 60.991277 0
M  V30 65 H 38.343822 28.120146 60.132013 0
M  V30 66 H 42.011132 27.203143 57.304516 0
M  V30 67 H 37.727466 33.974474 60.465705 0
M  V30 68 H 42.283896 32.193116 67.958734 0
M  V30 69 H 36.940547 26.318604 55.305454 0
M  V30 70 H 37.862548 24.924868 54.539076 0
M  V30 71 H 41.556111 29.338058 58.252687 0
M  V30 72 H 41.976033 28.551876 59.752630 0
M  V30 73 H 40.304339 26.932012 59.470620 0
M  V30 74 H 40.070331 30.181877 56.638625 0
M  V30 75 H 40.935559 28.829334 55.888629 0
M  V30 76 H 40.412409 37.214383 65.656679 0
M  V30 77 H 38.919699 36.270382 65.583281 0
M  V30 78 H 39.333476 37.169569 67.031006 0
M  V30 79 H 41.005546 33.742998 61.646270 0
M  V30 80 H 38.697728 25.618439 58.741115 0
M  V30 81 H 37.406466 26.556197 58.097743 0
M  V30 82 H 41.102503 35.740137 67.627691 0
M  V30 83 H 43.277160 33.983911 66.944317 0
M  V30 END ATOM
M  V30 BEGIN BOND
M  V30 1 1 2 1
M  V30 2 1 7 6
M  V30 3 2 8 6
M  V30 4 1 10 4
M  V30 5 1 11 3
M  V30 6 1 15 6
M  V30 7 1 15 14
M  V30 8 1 18 17
M  V30 9 1 19 12
M  V30 10 1 20 9
M  V30 11 1 22 1
M  V30 12 1 22 13
M  V30 13 1 23 20
M  V30 14 1 26 4
M  V30 15 1 26 10
M  V30 16 1 27 21
M  V30 17 1 28 14
M  V30 18 1 28 19
M  V30 19 1 28 27
M  V30 20 2 29 5
M  V30 21 1 29 12
M  V30 22 1 29 22
M  V30 23 1 30 15
M  V30 24 1 32 13
M  V30 25 1 32 17
M  V30 26 1 32 20
M  V30 27 1 34 4
M  V30 28 1 34 14
M  V30 29 1 35 16
M  V30 30 1 35 25
M  V30 31 1 35 31
M  V30 32 1 36 30
M  V30 33 2 36 33
M  V30 34 1 37 3
M  V30 35 1 37 16
M  V30 36 1 37 24
M  V30 37 1 38 36
M  V30 38 1 39 11
M  V30 39 1 39 16
M  V30 40 1 39 17
M  V30 41 1 40 1
M  V30 42 1 41 1
M  V30 43 1 42 2
M  V30 44 1 43 3
M  V30 45 1 44 3
M  V30 46 1 45 4
M  V30 47 1 46 7
M  V30 48 1 47 7
M  V30 49 1 48 9
M  V30 50 1 49 10
M  V30 51 1 50 10
M  V30 52 1 51 11
M  V30 53 1 52 11
M  V30 54 1 53 12
M  V30 55 1 54 12
M  V30 56 1 55 13
M  V30 57 1 56 13
M  V30 58 1 14 57 CFG=3
M  V30 59 1 15 58 CFG=3
M  V30 60 1 16 59 CFG=3
M  V30 61 1 17 60 CFG=1
M  V30 62 1 61 18
M  V30 63 1 62 18
M  V30 64 1 63 18
M  V30 65 1 64 19
M  V30 66 1 65 19
M  V30 67 1 66 21
M  V30 68 1 67 23
M  V30 69 1 68 24
M  V30 70 1 69 26
M  V30 71 1 70 26
M  V30 72 1 71 27
M  V30 73 1 72 27
M  V30 74 1 28 73 CFG=1
M  V30 75 1 74 30
M  V30 76 1 75 30
M  V30 77 1 76 31
M  V30 78 1 77 31
M  V30 79 1 78 31
M  V30 80 1 32 79 CFG=3
M  V30 81 1 80 34
M  V30 82 1 81 34
M  V30 83 1 35 82 CFG=1
M  V30 84 1 37 83 CFG=1
M  V30 END BOND
M  V30 END CTAB
M  END
>  <i_epik_Tot_Q>  (1) 
0

>  <i_epik_Tot_abs_Q>  (1) 
2

>  <i_i_glide_confnum>  (1) 
8444

>  <i_i_glide_lignum>  (1) 
213

>  <i_i_glide_posenum>  (1) 
58

>  <i_i_glide_rotatable_bonds>  (1) 
24

>  <i_lp_mmshare_version>  (1) 
72125

>  <i_m_source_file_index>  (1) 
94

>  <i_f3d_flags>  (1) 
0

>  <num_sample>  (1) 
100

>  <b_lp_Chiralities_Consistent>  (1) 
1

>  <r_epik_Charging_Adjusted_Penalty>  (1) 
0.37121505818338452

>  <r_epik_Ionization_Penalty>  (1) 
0.37121789513022985

>  <r_epik_Ionization_Penalty_Charging>  (1) 
0.00098257200063165957

>  <r_epik_Ionization_Penalty_Neutral>  (1) 
0.37023532312959817

>  <r_epik_State_Penalty>  (1) 
0.37023248618275284

>  <r_glide_ring_energy>  (1) 
0

>  <r_i_docking_score>  (1) 
-6.4709620265599739

>  <r_i_glide_ecoul>  (1) 
-3.9828562492043931

>  <r_i_glide_eff_state_penalty>  (1) 
0.37023248618275284

>  <r_i_glide_einternal>  (1) 
29.757447474152983

>  <r_i_glide_emodel>  (1) 
-40.296913168009944

>  <r_i_glide_emodel_strain>  (1) 
5.0732754005372556

>  <r_i_glide_energy>  (1) 
-36.044076687801372

>  <r_i_glide_erotb>  (1) 
0.82577533054746977

>  <r_i_glide_esite>  (1) 
-0.13940049633361098

>  <r_i_glide_evdw>  (1) 
-32.061220438596976

>  <r_i_glide_gscore>  (1) 
-6.8411945127427272

>  <r_i_glide_gscore_strain>  (1) 
0.26831885013431389

>  <r_i_glide_hbond>  (1) 
-0.38012284279067049

>  <r_i_glide_ligand_efficiency>  (1) 
-0.16592210324512754

>  <r_i_glide_ligand_efficiency_ln>  (1) 
-1.3875579476751023

>  <r_i_glide_ligand_efficiency_sa>  (1) 
-0.56267693517385453

>  <r_i_glide_lipo>  (1) 
-4.1655595006046866

>  <r_i_glide_metal>  (1) 
-0

>  <r_i_glide_rewards>  (1) 
-1.0497163943850361

>  <r_lp_Energy>  (1) 
14.863111

>  <s_epik_Chemistry_Notes>  (1) 
This compound contains an acetal/aminal-like group ( X-CH(R)-Y where X, Y are N, S, or O) that may be acid/base labile, releasing an aldehyde.

>  <s_epik_cmdline>  (1) 
J2VwaWtfcHl0aG9uJywgJy1waHQnLCAnMS4wJywgJy1waCcsICc3LjQnLCAnLXRuJywgJzgnLCAnLW1hJywgJzUwMCcsICctaW1hZScsICc8aW5maWxlLm1hZT4nLCAnLW9tYWUnLCAnPG91dGZpbGUubWFlPic=

>  <s_epik_input>  (1) 
W0NIMl0xW0NIMl1bQ0hdMVtDSDJdW0NAQEhdKFtDQEBIXShDKD1PKVtOSDJdKVtDSDJdQyg9TylbT0hdKVtDQEBIXShbQ0gyXVtPSF0pW0NIMl1bQ0gyXUMoPU8pTihbQ0gyXVtPSF0pW0NIMl1bQ0BASF0oW1MrXShbT0hdKVtPSF0pW0NASF0oW0NIM10pTjJbQ0gyXVtDSDJdW0NASF0oW09IXSlbQ0BASF0yW0NASF0oRilbQ0gzXQ==

>  <s_glide_docking_method>  (1) 
confgen

>  <s_i_glide_gridfile>  (1) 
gpcr_5ht2c_6bqh_protein_autoprepared_prepared

>  <s_lp_Force_Field>  (1) 
S-OPLS

>  <s_lp_Variant>  (1) 
DiffSBDD_93-1

>  <s_m_source_file>  (1) 
generated_GPCR_5HT2C_ligand_DiffSBDD_2026-06-23_prepared.sdf

>  <GenAI_Model>  (1) 
DiffSBDD

>  <Protein>  (1) 
GPCR_5HT2C

$$$$
DiffSBDD_4
     RDKit          3D

  0  0  0  0  0  0  0  0  0  0999 V3000
M  V30 BEGIN CTAB
M  V30 COUNTS 71 74 0 0 1
M  V30 BEGIN ATOM
M  V30 1 C 41.080753 26.975230 57.642944 0
M  V30 2 C 44.646562 26.747243 67.535481 0
M  V30 3 C 41.289857 30.774378 66.122589 0
M  V30 4 N 40.485627 28.301336 57.605785 0
M  V30 5 C 40.916628 28.843261 60.008933 0
M  V30 6 O 41.233602 33.087610 65.505411 0
M  V30 7 C 37.489109 25.501592 56.188661 0
M  V30 8 C 37.931209 30.319383 56.752908 0
M  V30 9 C 41.067446 31.928163 65.126317 0
M  V30 10 O 38.489930 27.670897 56.420563 0
M  V30 11 C 38.475725 26.322597 56.698002 0
M  V30 12 C 38.873498 29.921642 54.533732 0
M  V30 13 C 42.659797 29.015091 64.012034 0
M  V30 14 O 39.245138 28.480212 61.704351 0
M  V30 15 O 37.215340 24.284848 56.269850 0 CHG=-1
M  V30 16 C 40.445955 32.696281 62.861317 0
M  V30 17 C 42.787778 28.094944 66.378343 0 CFG=1
M  V30 18 C 39.652869 28.451533 56.431812 0 CFG=1
M  V30 19 C 39.887593 28.716725 58.875805 0
M  V30 20 C 39.220130 29.880525 56.034314 0 CFG=2
M  V30 21 O 40.846763 30.088254 62.067395 0
M  V30 22 N 40.696153 31.628140 63.841979 0
M  V30 23 C 43.194992 27.887435 64.899554 0
M  V30 24 N 36.846560 30.137753 55.788292 0 CHG=1
M  V30 25 C 40.454856 30.236808 63.416153 0 CFG=2
M  V30 26 C 37.408000 30.354575 54.458376 0
M  V30 27 C 40.237014 29.109290 61.347539 0
M  V30 28 C 41.141010 29.124906 64.246847 0 CFG=2
M  V30 29 O 41.381691 28.341958 66.516660 0
M  V30 30 C 43.136170 26.919849 67.316964 0 CFG=1
M  V30 31 S 39.769271 25.737777 57.764241 0
M  V30 32 C 41.749340 33.237541 62.256013 0
M  V30 33 C 40.819503 29.380229 65.705070 0 CFG=1
M  V30 34 O 42.617437 25.715532 66.792244 0
M  V30 35 H 41.633875 26.807581 56.718955 0
M  V30 36 H 41.804472 26.854550 58.445866 0
M  V30 37 H 45.084547 27.649164 67.963818 0
M  V30 38 H 44.852700 25.924893 68.221987 0
M  V30 39 H 45.167038 26.537647 66.601009 0
M  V30 40 H 40.810066 31.038723 67.065688 0
M  V30 41 H 42.357216 30.790796 66.328045 0
M  V30 42 H 41.631480 29.629839 59.767811 0
M  V30 43 H 41.486590 27.925136 60.138953 0
M  V30 44 H 36.866036 26.201013 55.590790 0
M  V30 45 H 37.689415 29.766410 57.658506 0
M  V30 46 H 37.987575 31.377837 57.011859 0
M  V30 47 H 39.516468 30.618564 53.993987 0
M  V30 48 H 38.992232 28.947680 54.056082 0
M  V30 49 H 42.879570 28.785313 62.969710 0
M  V30 50 H 43.168553 29.952446 64.236624 0
M  V30 51 H 39.784193 32.345696 62.069064 0
M  V30 52 H 39.899990 33.513101 63.336669 0
M  V30 53 H 43.325052 28.961249 66.761192 0
M  V30 54 H 40.250264 28.066744 55.603931 0
M  V30 55 H 39.071473 28.044114 59.145563 0
M  V30 56 H 39.459178 29.708405 58.762279 0
M  V30 57 H 40.043736 30.561117 56.251950 0
M  V30 58 H 44.279321 27.830647 64.806637 0
M  V30 59 H 42.804350 26.939288 64.528622 0
M  V30 60 H 36.097669 30.796965 56.043435 0
M  V30 61 H 39.369534 30.137887 63.505977 0
M  V30 62 H 37.316094 31.405908 54.182408 0
M  V30 63 H 36.845074 29.737771 53.767751 0
M  V30 64 H 40.684844 28.173116 63.968403 0
M  V30 65 H 42.668283 27.093272 68.287245 0
M  V30 66 H 41.538435 34.025682 61.533019 0
M  V30 67 H 42.395750 33.662201 63.024935 0
M  V30 68 H 42.309224 32.454956 61.743659 0
M  V30 69 H 39.738642 29.337160 65.845297 0
M  V30 70 H 41.690605 25.847270 66.654358 0
M  V30 71 H 36.523057 29.185405 55.866203 0
M  V30 END ATOM
M  V30 BEGIN BOND
M  V30 1 1 4 1
M  V30 2 1 9 3
M  V30 3 2 9 6
M  V30 4 2 11 7
M  V30 5 1 11 10
M  V30 6 1 15 7
M  V30 7 1 18 4
M  V30 8 1 18 10
M  V30 9 1 19 4
M  V30 10 1 19 5
M  V30 11 1 20 8
M  V30 12 1 20 12
M  V30 13 1 20 18
M  V30 14 1 22 9
M  V30 15 1 22 16
M  V30 16 1 23 13
M  V30 17 1 23 17
M  V30 18 1 24 8
M  V30 19 1 25 21
M  V30 20 1 25 22
M  V30 21 1 26 12
M  V30 22 1 26 24
M  V30 23 1 27 5
M  V30 24 2 27 14
M  V30 25 1 27 21
M  V30 26 1 28 13
M  V30 27 1 28 25
M  V30 28 1 29 17
M  V30 29 1 30 2
M  V30 30 1 30 17
M  V30 31 1 31 1
M  V30 32 1 31 11
M  V30 33 1 32 16
M  V30 34 1 33 3
M  V30 35 1 33 28
M  V30 36 1 33 29
M  V30 37 1 34 30
M  V30 38 1 35 1
M  V30 39 1 36 1
M  V30 40 1 37 2
M  V30 41 1 38 2
M  V30 42 1 39 2
M  V30 43 1 40 3
M  V30 44 1 41 3
M  V30 45 1 42 5
M  V30 46 1 43 5
M  V30 47 1 44 7
M  V30 48 1 45 8
M  V30 49 1 46 8
M  V30 50 1 47 12
M  V30 51 1 48 12
M  V30 52 1 49 13
M  V30 53 1 50 13
M  V30 54 1 51 16
M  V30 55 1 52 16
M  V30 56 1 17 53 CFG=1
M  V30 57 1 18 54 CFG=3
M  V30 58 1 55 19
M  V30 59 1 56 19
M  V30 60 1 20 57 CFG=3
M  V30 61 1 58 23
M  V30 62 1 59 23
M  V30 63 1 60 24
M  V30 64 1 25 61 CFG=3
M  V30 65 1 62 26
M  V30 66 1 63 26
M  V30 67 1 28 64 CFG=3
M  V30 68 1 30 65 CFG=1
M  V30 69 1 66 32
M  V30 70 1 67 32
M  V30 71 1 68 32
M  V30 72 1 33 69 CFG=3
M  V30 73 1 70 34
M  V30 74 1 71 24
M  V30 END BOND
M  V30 END CTAB
M  END
>  <i_epik_Tot_Q>  (1) 
0

>  <i_epik_Tot_abs_Q>  (1) 
2

>  <i_i_glide_confnum>  (1) 
875

>  <i_i_glide_lignum>  (1) 
6

>  <i_i_glide_posenum>  (1) 
266

>  <i_i_glide_rotatable_bonds>  (1) 
9

>  <i_lp_mmshare_version>  (1) 
72125

>  <i_m_source_file_index>  (1) 
5

>  <i_f3d_flags>  (1) 
0

>  <num_sample>  (1) 
100

>  <b_lp_Chiralities_Consistent>  (1) 
1

>  <r_epik_Charging_Adjusted_Penalty>  (1) 
0.4511966576135748

>  <r_epik_Ionization_Penalty>  (1) 
0.22596636941758144

>  <r_epik_Ionization_Penalty_Charging>  (1) 
0.2259645209400469

>  <r_epik_Ionization_Penalty_Neutral>  (1) 
1.8484775345295036e-06

>  <r_epik_State_Penalty>  (1) 
0.2252321366735279

>  <r_glide_ring_energy>  (1) 
1.7395171629556041

>  <r_i_docking_score>  (1) 
-6.4704232110870485

>  <r_i_glide_ecoul>  (1) 
-6.3616474998824009

>  <r_i_glide_eff_state_penalty>  (1) 
0.2252321366735279

>  <r_i_glide_einternal>  (1) 
11.090778040174788

>  <r_i_glide_emodel>  (1) 
-60.230412152564249

>  <r_i_glide_emodel_strain>  (1) 
2.4400576255847426

>  <r_i_glide_energy>  (1) 
-47.470805610778363

>  <r_i_glide_erotb>  (1) 
0.57244041532536438

>  <r_i_glide_esite>  (1) 
-0.12792170701634739

>  <r_i_glide_evdw>  (1) 
-41.109158110895962

>  <r_i_glide_gscore>  (1) 
-6.6956553477605762

>  <r_i_glide_gscore_strain>  (1) 
0

>  <r_i_glide_hbond>  (1) 
-0.48583411689614553

>  <r_i_glide_ligand_efficiency>  (1) 
-0.19030656503197202

>  <r_i_glide_ligand_efficiency_ln>  (1) 
-1.4294979765527505

>  <r_i_glide_ligand_efficiency_sa>  (1) 
-0.61651939393815747

>  <r_i_glide_lipo>  (1) 
-2.6678684832744439

>  <r_i_glide_metal>  (1) 
-0

>  <r_i_glide_rewards>  (1) 
-0.97676642537184544

>  <r_lp_Energy>  (1) 
57.065157999999997

>  <s_epik_Chemistry_Notes>  (1) 
This compound has an ester and may undergo hydrolysis at high or low pH. This compound contains an acetal/aminal-like group ( X-CH(R)-Y where X, Y are N, S, or O) that may be acid/base labile, releasing an aldehyde.

>  <s_epik_cmdline>  (1) 
J2VwaWtfcHl0aG9uJywgJy1waHQnLCAnMS4wJywgJy1waCcsICc3LjQnLCAnLXRuJywgJzgnLCAnLW1hJywgJzUwMCcsICctaW1hZScsICc8aW5maWxlLm1hZT4nLCAnLW9tYWUnLCAnPG91dGZpbGUubWFlPic=

>  <s_epik_input>  (1) 
W0NIMl0xW0NIMl1bTkhdW0NIMl1bQ0BIXTFbQ0BASF0yT1tDQEBIXShbQ0hdPU8pU1tDSDJdTjJbQ0gyXVtDSDJdQyg9TylPW0NAQEhdM04oW0NIMl1bQ0gzXSlDKD1PKVtDSDJdW0NAQEhdKFtDQEBIXTM0KU9bQ0BIXShbQ0gyXVtDSDJdNClbQ0BIXShbQ0gzXSlbT0hd

>  <s_glide_docking_method>  (1) 
confgen

>  <s_i_glide_gridfile>  (1) 
gpcr_5ht2c_6bqh_protein_autoprepared_prepared

>  <s_lp_Force_Field>  (1) 
S-OPLS

>  <s_lp_Variant>  (1) 
DiffSBDD_4-1

>  <s_m_source_file>  (1) 
generated_GPCR_5HT2C_ligand_DiffSBDD_2026-06-23_prepared.sdf

>  <GenAI_Model>  (1) 
DiffSBDD

>  <Protein>  (1) 
GPCR_5HT2C

$$$$
DiffSBDD_10
     RDKit          3D

  0  0  0  0  0  0  0  0  0  0999 V3000
M  V30 BEGIN CTAB
M  V30 COUNTS 84 88 0 0 1
M  V30 BEGIN ATOM
M  V30 1 C 36.997656 36.933898 59.642000 0
M  V30 2 C 40.401559 26.138068 54.400518 0
M  V30 3 C 38.367433 26.061863 55.790419 0
M  V30 4 C 42.273054 29.441763 64.468843 0
M  V30 5 C 42.042496 30.600460 65.229966 0
M  V30 6 O 37.120552 26.137456 55.739515 0 CHG=-1
M  V30 7 C 38.445778 28.523261 60.110258 0
M  V30 8 C 39.345743 31.233079 60.908728 0 CFG=1
M  V30 9 O 39.745384 27.792668 52.167647 0
M  V30 10 C 39.561473 28.730726 61.137275 0 CFG=1
M  V30 11 C 39.524657 28.324344 55.653583 0 CFG=2
M  V30 12 C 39.424630 36.540514 61.762823 0 CFG=1
M  V30 13 O 39.015555 25.292749 56.538503 0
M  V30 14 O 37.645237 28.137753 51.767891 0 CHG=-1
M  V30 15 F 43.050126 28.451883 64.968707 0
M  V30 16 C 41.237764 31.635408 64.723965 0
M  V30 17 C 38.445848 31.831840 59.863904 0
M  V30 18 C 41.702248 29.303268 63.190513 0
M  V30 19 F 42.601040 30.722561 66.458631 0
M  V30 20 C 39.764316 29.675983 54.910464 0
M  V30 21 C 38.553588 27.778146 52.529181 0
M  V30 22 C 39.047450 36.934635 64.260224 0
M  V30 23 C 38.674406 34.325638 60.456233 0
M  V30 24 C 39.480146 30.922309 55.763270 0
M  V30 25 C 38.360780 32.485433 62.277130 0 CFG=1
M  V30 26 C 40.800533 36.330580 61.135469 0
M  V30 27 C 38.301050 35.508033 61.398909 0 CFG=2
M  V30 28 C 38.919898 28.585329 58.686043 0
M  V30 29 O 40.502170 27.737812 60.815286 0
M  V30 30 S 40.886989 28.088213 56.847238 0
M  V30 31 N 41.050379 35.875934 63.366528 0
M  V30 32 C 39.933886 36.402260 63.156042 0
M  V30 33 C 40.885428 30.324283 62.647358 0
M  V30 34 O 38.451640 31.164301 61.984978 0
M  V30 35 C 40.646612 31.533207 63.446311 0
M  V30 36 C 36.976558 36.181286 60.980037 0
M  V30 37 C 40.260264 30.105709 61.212052 0 CFG=2
M  V30 38 C 40.164771 27.730746 58.457155 0 CFG=1
M  V30 39 O 41.558125 35.578135 62.085065 0
M  V30 40 O 41.096168 28.061521 59.472586 0
M  V30 41 C 39.184208 27.010644 54.845840 0 CFG=1
M  V30 42 C 39.778589 32.739457 62.941092 0
M  V30 43 N 38.224968 27.389319 53.778354 0
M  V30 44 C 38.005145 32.990182 60.819743 0 CFG=2
M  V30 45 H 36.007901 37.337608 59.440455 0
M  V30 46 H 37.703664 37.764174 59.648231 0
M  V30 47 H 37.241070 36.283698 58.802128 0
M  V30 48 H 41.066902 25.913336 55.232441 0
M  V30 49 H 40.045241 25.169518 54.068708 0
M  V30 50 H 41.031609 26.537473 53.616044 0
M  V30 51 H 38.045140 27.532664 60.292524 0
M  V30 52 H 37.615705 29.218955 60.167759 0
M  V30 53 H 40.151429 31.965736 60.810483 0
M  V30 54 H 39.146868 28.502081 62.119712 0
M  V30 55 H 38.600102 28.550696 56.167112 0
M  V30 56 H 39.088885 37.562838 61.592681 0
M  V30 57 H 41.075243 32.522092 65.319441 0
M  V30 58 H 38.959363 32.165985 58.961297 0
M  V30 59 H 37.589292 31.223313 59.583166 0
M  V30 60 H 41.892860 28.406202 62.621845 0
M  V30 61 H 40.792100 29.739487 54.568073 0
M  V30 62 H 39.135209 29.789727 54.034207 0
M  V30 63 H 38.022626 37.081892 63.918718 0
M  V30 64 H 39.040608 36.244696 65.103598 0
M  V30 65 H 39.442079 37.884619 64.618068 0
M  V30 66 H 39.737720 34.124734 60.458892 0
M  V30 67 H 38.438987 34.546050 59.417631 0
M  V30 68 H 39.745228 31.828091 55.217224 0
M  V30 69 H 38.422453 30.987857 56.018921 0
M  V30 70 H 40.045129 30.916121 56.690069 0
M  V30 71 H 37.527087 32.544964 62.967243 0
M  V30 72 H 40.791313 35.848534 60.167779 0
M  V30 73 H 41.269344 37.302822 60.994637 0
M  V30 74 H 38.045691 35.041089 62.340254 0
M  V30 75 H 39.127206 29.618501 58.414820 0
M  V30 76 H 38.078312 28.235921 58.089965 0
M  V30 77 H 36.197495 35.419812 60.926698 0
M  V30 78 H 36.663517 36.868841 61.767270 0
M  V30 79 H 41.071768 30.153712 60.487660 0
M  V30 80 H 39.924099 26.669322 58.527727 0
M  V30 81 H 39.644997 33.421095 63.768080 0
M  V30 82 H 40.439040 33.327905 62.310241 0
M  V30 83 H 37.245804 27.371648 54.030432 0
M  V30 84 H 36.922611 33.099559 60.733145 0
M  V30 END ATOM
M  V30 BEGIN BOND
M  V30 1 1 5 4
M  V30 2 1 6 3
M  V30 3 1 10 7
M  V30 4 2 13 3
M  V30 5 1 15 4
M  V30 6 2 16 5
M  V30 7 1 17 8
M  V30 8 2 18 4
M  V30 9 1 19 5
M  V30 10 1 20 11
M  V30 11 2 21 9
M  V30 12 1 21 14
M  V30 13 1 24 20
M  V30 14 1 26 12
M  V30 15 1 27 12
M  V30 16 1 27 23
M  V30 17 1 28 7
M  V30 18 1 29 10
M  V30 19 1 30 11
M  V30 20 1 32 12
M  V30 21 1 32 22
M  V30 22 2 32 31
M  V30 23 1 33 18
M  V30 24 1 34 8
M  V30 25 1 34 25
M  V30 26 1 35 16
M  V30 27 2 35 33
M  V30 28 1 36 1
M  V30 29 1 36 27
M  V30 30 1 37 8
M  V30 31 1 37 10
M  V30 32 1 37 33
M  V30 33 1 38 28
M  V30 34 1 38 30
M  V30 35 1 39 26
M  V30 36 1 39 31
M  V30 37 1 40 29
M  V30 38 1 40 38
M  V30 39 1 41 2
M  V30 40 1 41 3
M  V30 41 1 41 11
M  V30 42 1 42 25
M  V30 43 1 42 35
M  V30 44 1 43 21
M  V30 45 1 41 43 CFG=3
M  V30 46 1 44 17
M  V30 47 1 44 23
M  V30 48 1 44 25
M  V30 49 1 45 1
M  V30 50 1 46 1
M  V30 51 1 47 1
M  V30 52 1 48 2
M  V30 53 1 49 2
M  V30 54 1 50 2
M  V30 55 1 51 7
M  V30 56 1 52 7
M  V30 57 1 8 53 CFG=1
M  V30 58 1 10 54 CFG=1
M  V30 59 1 11 55 CFG=1
M  V30 60 1 12 56 CFG=1
M  V30 61 1 57 16
M  V30 62 1 58 17
M  V30 63 1 59 17
M  V30 64 1 60 18
M  V30 65 1 61 20
M  V30 66 1 62 20
M  V30 67 1 63 22
M  V30 68 1 64 22
M  V30 69 1 65 22
M  V30 70 1 66 23
M  V30 71 1 67 23
M  V30 72 1 68 24
M  V30 73 1 69 24
M  V30 74 1 70 24
M  V30 75 1 25 71 CFG=1
M  V30 76 1 72 26
M  V30 77 1 73 26
M  V30 78 1 27 74 CFG=1
M  V30 79 1 75 28
M  V30 80 1 76 28
M  V30 81 1 77 36
M  V30 82 1 78 36
M  V30 83 1 37 79 CFG=3
M  V30 84 1 38 80 CFG=3
M  V30 85 1 81 42
M  V30 86 1 82 42
M  V30 87 1 83 43
M  V30 88 1 44 84 CFG=1
M  V30 END BOND
M  V30 END CTAB
M  END
>  <i_epik_Tot_Q>  (1) 
-2

>  <i_epik_Tot_abs_Q>  (1) 
2

>  <i_i_glide_confnum>  (1) 
1521

>  <i_i_glide_lignum>  (1) 
17

>  <i_i_glide_posenum>  (1) 
344

>  <i_i_glide_rotatable_bonds>  (1) 
12

>  <i_lp_mmshare_version>  (1) 
72125

>  <i_m_source_file_index>  (1) 
11

>  <i_f3d_flags>  (1) 
0

>  <num_sample>  (1) 
100

>  <b_lp_Chiralities_Consistent>  (1) 
1

>  <r_epik_Charging_Adjusted_Penalty>  (1) 
0.0066641346833683675

>  <r_epik_Ionization_Penalty>  (1) 
0.0034118145539950863

>  <r_epik_Ionization_Penalty_Charging>  (1) 
0.0034117433904366969

>  <r_epik_Ionization_Penalty_Neutral>  (1) 
7.1163558389510919e-08

>  <r_epik_State_Penalty>  (1) 
0.0032523912929316705

>  <r_glide_ring_energy>  (1) 
1.0808791285296326

>  <r_i_docking_score>  (1) 
-6.4703967990871121

>  <r_i_glide_ecoul>  (1) 
1.3521376275873473

>  <r_i_glide_eff_state_penalty>  (1) 
0.0032523912929316705

>  <r_i_glide_einternal>  (1) 
22.692874622181954

>  <r_i_glide_emodel>  (1) 
-34.91702065219711

>  <r_i_glide_emodel_strain>  (1) 
8.3249185817709304

>  <r_i_glide_energy>  (1) 
-41.329147598231799

>  <r_i_glide_erotb>  (1) 
0.27131343112086626

>  <r_i_glide_esite>  (1) 
0

>  <r_i_glide_evdw>  (1) 
-42.681285225819146

>  <r_i_glide_gscore>  (1) 
-6.4736491903800442

>  <r_i_glide_gscore_strain>  (1) 
1.0812296454427326

>  <r_i_glide_hbond>  (1) 
0

>  <r_i_glide_ligand_efficiency>  (1) 
-0.14705447270652527

>  <r_i_glide_ligand_efficiency_ln>  (1) 
-1.3524540819231372

>  <r_i_glide_ligand_efficiency_sa>  (1) 
-0.51915351292173362

>  <r_i_glide_lipo>  (1) 
-4.1681035089840908

>  <r_i_glide_metal>  (1) 
-0

>  <r_i_glide_rewards>  (1) 
-1.7268451408066969

>  <r_lp_Energy>  (1) 
101.860817

>  <s_epik_Chemistry_Notes>  (1) 
This compound has an imine and may undergo hydrolysis. This compound contains an acetal/aminal-like group ( X-CH(R)-Y where X, Y are N, S, or O) that may be acid/base labile, releasing an aldehyde.

>  <s_epik_cmdline>  (1) 
J2VwaWtfcHl0aG9uJywgJy1waHQnLCAnMS4wJywgJy1waCcsICc3LjQnLCAnLXRuJywgJzgnLCAnLW1hJywgJzUwMCcsICctaW1hZScsICc8aW5maWxlLm1hZT4nLCAnLW9tYWUnLCAnPG91dGZpbGUubWFlPic=

>  <s_epik_input>  (1) 
W0NIM11DMT1OT1tDSDJdW0NASF0xW0NAQEhdKFtDSDJdW0NIM10pW0NIMl1bQ0BASF0oW0NIMl1bQ0BASF0yMylbQ0BASF0oTzIpW0NIMl1jNGMoW2NIXWMoRiljKEYpW2NIXTQpW0NASF0zW0NASF01W0NIMl1bQ0gyXVtDQEhdKE9PNSlTW0NAQEhdKFtDSDJdW0NIM10pW0NAQF0oW0NIM10pKEMoPU8pW09IXSlbTkhdQyg9TylbT0hd

>  <s_glide_docking_method>  (1) 
confgen

>  <s_i_glide_gridfile>  (1) 
gpcr_5ht2c_6bqh_protein_autoprepared_prepared

>  <s_lp_Force_Field>  (1) 
S-OPLS

>  <s_lp_Variant>  (1) 
DiffSBDD_10-1

>  <s_m_source_file>  (1) 
generated_GPCR_5HT2C_ligand_DiffSBDD_2026-06-23_prepared.sdf

>  <GenAI_Model>  (1) 
DiffSBDD

>  <Protein>  (1) 
GPCR_5HT2C

$$$$
DiffSBDD_41
     RDKit          3D

  0  0  0  0  0  0  0  0  0  0999 V3000
M  V30 BEGIN CTAB
M  V30 COUNTS 51 52 0 0 1
M  V30 BEGIN ATOM
M  V30 1 C 38.969851 29.057530 59.768544 0
M  V30 2 C 38.634113 25.795707 56.928655 0 CFG=1
M  V30 3 C 39.306793 31.390247 53.285596 0
M  V30 4 C 39.245136 27.569311 53.517975 0
M  V30 5 C 39.689266 28.178812 51.194068 0
M  V30 6 C 39.637918 29.545387 51.532630 0
M  V30 7 C 39.500051 27.196256 52.183706 0
M  V30 8 O 37.456399 31.766456 61.767758 0 CHG=-1
M  V30 9 C 38.743504 26.817632 55.824976 0
M  V30 10 S 39.042781 26.514009 58.567694 0
M  V30 11 N 38.190112 31.693937 54.207974 0 CHG=1
M  V30 12 C 39.424051 30.441212 62.185730 0
M  V30 13 C 40.300997 29.414642 61.785127 0
M  V30 14 C 39.884408 30.595979 50.455885 0
M  V30 15 C 37.302812 25.020987 56.906778 0
M  V30 16 C 38.316869 30.779644 61.376981 0
M  V30 17 C 39.100398 26.540058 54.559693 0
M  V30 18 C 40.076289 28.723290 60.579378 0
M  V30 19 C 36.244649 22.951265 55.773013 0
M  V30 20 C 39.161778 28.940969 53.851337 0
M  V30 21 C 37.179650 24.149438 55.637148 0
M  V30 22 F 39.645168 31.101241 63.348791 0
M  V30 23 C 38.092929 30.092003 60.167627 0
M  V30 24 C 39.362808 29.925769 52.877053 0
M  V30 25 C 38.725534 28.318069 58.462696 0
M  V30 26 H 39.429492 25.068238 56.762129 0
M  V30 27 H 40.233658 31.609826 53.811651 0
M  V30 28 H 39.245155 32.061976 52.433763 0
M  V30 29 H 39.893217 27.881254 50.175403 0
M  V30 30 H 39.565753 26.150430 51.919312 0
M  V30 31 H 38.519395 27.822418 56.096519 0
M  V30 32 H 38.186508 32.677580 54.437926 0
M  V30 33 H 37.308859 31.461921 53.776020 0
M  V30 34 H 41.145559 29.155915 62.405509 0
M  V30 35 H 40.631625 31.323145 50.774037 0
M  V30 36 H 40.270380 30.124852 49.551594 0
M  V30 37 H 38.973812 31.121398 50.167752 0
M  V30 38 H 37.269130 24.379047 57.787491 0
M  V30 39 H 36.453423 25.699810 56.989095 0
M  V30 40 H 39.306357 25.520633 54.273501 0
M  V30 41 H 40.752369 27.936978 60.277302 0
M  V30 42 H 36.425512 22.244570 54.967671 0
M  V30 43 H 36.445128 22.409660 56.696717 0
M  V30 44 H 35.195506 23.247596 55.767267 0
M  V30 45 H 38.976156 29.243298 54.864871 0
M  V30 46 H 36.871069 24.757162 54.785870 0
M  V30 47 H 38.159876 23.751142 55.380849 0
M  V30 48 H 37.244789 30.351968 59.549731 0
M  V30 49 H 39.405136 28.767386 57.738077 0
M  V30 50 H 37.701410 28.484953 58.126649 0
M  V30 51 H 38.281268 31.165022 55.062778 0
M  V30 END ATOM
M  V30 BEGIN BOND
M  V30 1 1 6 5
M  V30 2 1 7 4
M  V30 3 2 7 5
M  V30 4 1 9 2
M  V30 5 1 10 2
M  V30 6 1 11 3
M  V30 7 1 13 12
M  V30 8 1 14 6
M  V30 9 1 15 2
M  V30 10 1 16 8
M  V30 11 2 16 12
M  V30 12 1 17 4
M  V30 13 2 17 9
M  V30 14 1 18 1
M  V30 15 2 18 13
M  V30 16 2 20 4
M  V30 17 1 21 15
M  V30 18 1 21 19
M  V30 19 1 22 12
M  V30 20 2 23 1
M  V30 21 1 23 16
M  V30 22 1 24 3
M  V30 23 2 24 6
M  V30 24 1 24 20
M  V30 25 1 25 1
M  V30 26 1 25 10
M  V30 27 1 2 26 CFG=3
M  V30 28 1 27 3
M  V30 29 1 28 3
M  V30 30 1 29 5
M  V30 31 1 30 7
M  V30 32 1 31 9
M  V30 33 1 32 11
M  V30 34 1 33 11
M  V30 35 1 34 13
M  V30 36 1 35 14
M  V30 37 1 36 14
M  V30 38 1 37 14
M  V30 39 1 38 15
M  V30 40 1 39 15
M  V30 41 1 40 17
M  V30 42 1 41 18
M  V30 43 1 42 19
M  V30 44 1 43 19
M  V30 45 1 44 19
M  V30 46 1 45 20
M  V30 47 1 46 21
M  V30 48 1 47 21
M  V30 49 1 48 23
M  V30 50 1 49 25
M  V30 51 1 50 25
M  V30 52 1 51 11
M  V30 END BOND
M  V30 END CTAB
M  END
>  <i_epik_Tot_Q>  (1) 
0

>  <i_epik_Tot_abs_Q>  (1) 
2

>  <i_i_glide_confnum>  (1) 
7

>  <i_i_glide_lignum>  (1) 
90

>  <i_i_glide_posenum>  (1) 
183

>  <i_i_glide_rotatable_bonds>  (1) 
8

>  <i_lp_mmshare_version>  (1) 
72125

>  <i_m_source_file_index>  (1) 
42

>  <i_f3d_flags>  (1) 
0

>  <num_sample>  (1) 
100

>  <b_lp_Chiralities_Consistent>  (1) 
1

>  <r_epik_Charging_Adjusted_Penalty>  (1) 
2.7167828853708742

>  <r_epik_Ionization_Penalty>  (1) 
1.3565026725465308

>  <r_epik_Ionization_Penalty_Charging>  (1) 
1.3565026725465308

>  <r_epik_Ionization_Penalty_Neutral>  (1) 
0

>  <r_epik_State_Penalty>  (1) 
1.3602802128243434

>  <r_glide_ring_energy>  (1) 
0

>  <r_i_docking_score>  (1) 
-6.4644025988360889

>  <r_i_glide_ecoul>  (1) 
-3.3005753576262284

>  <r_i_glide_eff_state_penalty>  (1) 
1.3602802128243434

>  <r_i_glide_einternal>  (1) 
4.5278770755747981

>  <r_i_glide_emodel>  (1) 
-50.522012712037963

>  <r_i_glide_emodel_strain>  (1) 
5.5072074760626055

>  <r_i_glide_energy>  (1) 
-36.744085125649285

>  <r_i_glide_erotb>  (1) 
0.74153290357203427

>  <r_i_glide_esite>  (1) 
0

>  <r_i_glide_evdw>  (1) 
-33.443509768023056

>  <r_i_glide_gscore>  (1) 
-7.8246828116604323

>  <r_i_glide_gscore_strain>  (1) 
0.37680186901565138

>  <r_i_glide_hbond>  (1) 
-0.12630267116026153

>  <r_i_glide_ligand_efficiency>  (1) 
-0.25857610395344355

>  <r_i_glide_ligand_efficiency_ln>  (1) 
-1.5322571384375929

>  <r_i_glide_ligand_efficiency_sa>  (1) 
-0.756081114637843

>  <r_i_glide_lipo>  (1) 
-4.9057006781773023

>  <r_i_glide_metal>  (1) 
-0

>  <r_i_glide_rewards>  (1) 
-1.7437524428654658

>  <r_lp_Energy>  (1) 
26.063465999999998

>  <s_epik_cmdline>  (1) 
J2VwaWtfcHl0aG9uJywgJy1waHQnLCAnMS4wJywgJy1waCcsICc3LjQnLCAnLXRuJywgJzgnLCAnLW1hJywgJzUwMCcsICctaW1hZScsICc8aW5maWxlLm1hZT4nLCAnLW9tYWUnLCAnPG91dGZpbGUubWFlPic=

>  <s_epik_input>  (1) 
W09IXWMoW2NIXTEpYyhGKVtjSF1bY0hdYzFbQ0gyXVNbQ0BASF0oW0NIMl1bQ0gyXVtDSDNdKS9bQ0hdPVtDSF0vYzJbY0hdW2NIXWMoW0NIM10pYyhbY0hdMilbQ0gyXVtOSDJd

>  <s_glide_docking_method>  (1) 
confgen

>  <s_i_glide_gridfile>  (1) 
gpcr_5ht2c_6bqh_protein_autoprepared_prepared

>  <s_lp_Force_Field>  (1) 
S-OPLS

>  <s_lp_Variant>  (1) 
DiffSBDD_41-3

>  <s_m_source_file>  (1) 
generated_GPCR_5HT2C_ligand_DiffSBDD_2026-06-23_prepared.sdf

>  <GenAI_Model>  (1) 
DiffSBDD

>  <Protein>  (1) 
GPCR_5HT2C

$$$$
DiffSBDD_84
     RDKit          3D

  0  0  0  0  0  0  0  0  0  0999 V3000
M  V30 BEGIN CTAB
M  V30 COUNTS 77 81 0 0 1
M  V30 BEGIN ATOM
M  V30 1 C 38.320244 31.652591 56.252003 0
M  V30 2 C 41.836639 31.955300 63.505616 0
M  V30 3 C 39.656983 29.643476 61.335534 0
M  V30 4 C 37.952265 25.655318 57.315233 0
M  V30 5 S 40.445134 27.369817 56.202867 0
M  V30 6 C 41.997801 32.962110 67.541729 0
M  V30 7 C 40.967543 31.571254 65.883887 0
M  V30 8 C 35.507525 32.002571 60.102177 0
M  V30 9 O 37.645143 24.366347 57.786608 0
M  V30 10 C 39.469455 32.056038 61.820911 0
M  V30 11 C 40.266458 30.305258 65.427724 0
M  V30 12 C 41.220358 32.602696 64.772753 0 CFG=1
M  V30 13 C 37.667864 30.906078 60.480459 0
M  V30 14 N 38.045137 32.908451 55.535795 0 CHG=1
M  V30 15 C 38.458764 25.571972 55.853569 0
M  V30 16 C 38.154905 30.408318 55.351076 0
M  V30 17 N 41.302015 31.758097 67.103407 0
M  V30 18 C 36.363684 30.897746 59.931519 0
M  V30 19 N 39.619597 28.768212 58.247303 0
M  V30 20 N 40.049780 30.724076 62.064737 0
M  V30 21 C 41.709690 34.185929 66.658357 0
M  V30 22 C 38.088953 32.037079 61.208386 0
M  V30 23 N 39.039722 26.843563 55.415741 0
M  V30 24 C 37.368158 25.116365 54.862132 0
M  V30 25 C 41.184897 30.627799 63.031004 0 CFG=2
M  V30 26 O 40.177583 28.536647 61.473557 0
M  V30 27 C 37.232380 33.146613 61.367798 0
M  V30 28 O 37.104370 23.737746 54.967774 0
M  V30 29 C 42.047566 33.821160 65.220609 0
M  V30 30 C 39.686938 28.891015 56.794141 0 CFG=2
M  V30 31 C 40.968214 29.663224 64.225989 0
M  V30 32 N 39.245136 29.962974 58.910633 0
M  V30 33 N 38.045285 27.906415 55.236530 0 CHG=1
M  V30 34 C 35.942863 33.126464 60.817339 0
M  V30 35 C 38.601754 29.773931 60.207613 0 CFG=1
M  V30 36 C 38.305410 29.070063 56.115707 0 CFG=2
M  V30 37 H 37.645649 31.600311 57.107622 0
M  V30 38 H 39.334348 31.712902 56.646626 0
M  V30 39 H 42.869974 31.712794 63.754702 0
M  V30 40 H 41.913235 32.680964 62.695580 0
M  V30 41 H 37.067485 26.287341 57.399721 0
M  V30 42 H 38.707976 26.066577 57.984161 0
M  V30 43 H 41.710781 33.187487 68.568891 0
M  V30 44 H 43.071460 32.768487 67.568054 0
M  V30 45 H 34.515530 31.986987 59.674490 0
M  V30 46 H 37.305783 24.431664 58.665460 0
M  V30 47 H 39.363173 32.607006 62.745567 0
M  V30 48 H 40.129777 32.623552 61.164232 0
M  V30 49 H 39.236624 30.537755 65.169901 0
M  V30 50 H 38.298276 33.694462 56.117121 0
M  V30 51 H 38.547047 32.951040 54.661737 0
M  V30 52 H 39.276878 24.850024 55.814321 0
M  V30 53 H 38.877151 30.450296 54.533419 0
M  V30 54 H 37.165474 30.442584 54.890083 0
M  V30 55 H 36.021949 30.039944 59.370347 0
M  V30 56 H 40.515301 28.452913 58.618498 0
M  V30 57 H 40.664066 34.485381 66.748479 0
M  V30 58 H 42.313938 35.035518 66.967712 0
M  V30 59 H 36.445143 25.642062 55.078798 0
M  V30 60 H 37.644628 25.337815 53.830900 0
M  V30 61 H 41.972859 30.153244 62.448429 0
M  V30 62 H 37.566651 34.012151 61.918635 0
M  V30 63 H 37.863582 23.261433 54.663537 0
M  V30 64 H 41.870951 34.670346 64.558501 0
M  V30 65 H 43.113939 33.602442 65.164202 0
M  V30 66 H 40.366065 29.699651 56.533162 0
M  V30 67 H 40.445282 28.753428 63.937999 0
M  V30 68 H 41.947131 29.318344 64.560490 0
M  V30 69 H 38.664093 30.545219 58.312689 0
M  V30 70 H 38.110641 28.178276 54.265380 0
M  V30 71 H 35.285899 33.975433 60.944199 0
M  V30 72 H 38.032135 28.844773 60.167701 0
M  V30 73 H 37.528418 29.033841 56.880918 0
M  V30 74 H 37.138374 27.504312 55.424565 0
M  V30 75 H 40.234211 32.993063 64.548265 0
M  V30 76 H 40.220267 29.592487 66.252577 0
M  V30 77 H 37.038360 32.964560 55.367767 0
M  V30 END ATOM
M  V30 BEGIN BOND
M  V30 1 1 9 4
M  V30 2 1 11 7
M  V30 3 1 12 2
M  V30 4 1 12 7
M  V30 5 1 14 1
M  V30 6 1 15 4
M  V30 7 1 16 1
M  V30 8 1 17 6
M  V30 9 2 17 7
M  V30 10 1 18 8
M  V30 11 2 18 13
M  V30 12 1 20 3
M  V30 13 1 20 10
M  V30 14 1 21 6
M  V30 15 1 22 10
M  V30 16 1 22 13
M  V30 17 1 23 5
M  V30 18 1 23 15
M  V30 19 1 24 15
M  V30 20 1 25 2
M  V30 21 1 25 20
M  V30 22 2 26 3
M  V30 23 2 27 22
M  V30 24 1 28 24
M  V30 25 1 29 12
M  V30 26 1 29 21
M  V30 27 1 30 5
M  V30 28 1 30 19
M  V30 29 1 31 11
M  V30 30 1 31 25
M  V30 31 1 32 19
M  V30 32 1 33 23
M  V30 33 2 34 8
M  V30 34 1 34 27
M  V30 35 1 35 3
M  V30 36 1 35 13
M  V30 37 1 35 32
M  V30 38 1 36 16
M  V30 39 1 36 30
M  V30 40 1 36 33
M  V30 41 1 37 1
M  V30 42 1 38 1
M  V30 43 1 39 2
M  V30 44 1 40 2
M  V30 45 1 41 4
M  V30 46 1 42 4
M  V30 47 1 43 6
M  V30 48 1 44 6
M  V30 49 1 45 8
M  V30 50 1 46 9
M  V30 51 1 47 10
M  V30 52 1 48 10
M  V30 53 1 49 11
M  V30 54 1 50 14
M  V30 55 1 51 14
M  V30 56 1 52 15
M  V30 57 1 53 16
M  V30 58 1 54 16
M  V30 59 1 55 18
M  V30 60 1 56 19
M  V30 61 1 57 21
M  V30 62 1 58 21
M  V30 63 1 59 24
M  V30 64 1 60 24
M  V30 65 1 25 61 CFG=3
M  V30 66 1 62 27
M  V30 67 1 63 28
M  V30 68 1 64 29
M  V30 69 1 65 29
M  V30 70 1 30 66 CFG=1
M  V30 71 1 67 31
M  V30 72 1 68 31
M  V30 73 1 69 32
M  V30 74 1 70 33
M  V30 75 1 71 34
M  V30 76 1 35 72 CFG=3
M  V30 77 1 36 73 CFG=1
M  V30 78 1 74 33
M  V30 79 1 12 75 CFG=3
M  V30 80 1 76 11
M  V30 81 1 77 14
M  V30 END BOND
M  V30 END CTAB
M  END
>  <i_epik_Tot_Q>  (1) 
2

>  <i_epik_Tot_abs_Q>  (1) 
2

>  <i_i_glide_confnum>  (1) 
92

>  <i_i_glide_lignum>  (1) 
201

>  <i_i_glide_posenum>  (1) 
381

>  <i_i_glide_rotatable_bonds>  (1) 
11

>  <i_lp_mmshare_version>  (1) 
72125

>  <i_m_source_file_index>  (1) 
85

>  <i_f3d_flags>  (1) 
0

>  <num_sample>  (1) 
100

>  <b_lp_Chiralities_Consistent>  (1) 
1

>  <r_epik_Charging_Adjusted_Penalty>  (1) 
0.034284474231679775

>  <r_epik_Ionization_Penalty>  (1) 
0.42650113434003467

>  <r_epik_Ionization_Penalty_Charging>  (1) 
0.012847136256187231

>  <r_epik_Ionization_Penalty_Neutral>  (1) 
0.41365399808384745

>  <r_epik_State_Penalty>  (1) 
0.021437337975492542

>  <r_glide_ring_energy>  (1) 
0.1194441774127866

>  <r_i_docking_score>  (1) 
-6.4632711469311195

>  <r_i_glide_ecoul>  (1) 
-2.8483436316945436

>  <r_i_glide_eff_state_penalty>  (1) 
0.021437337975492542

>  <r_i_glide_einternal>  (1) 
21.198024415732128

>  <r_i_glide_emodel>  (1) 
-66.07076825676117

>  <r_i_glide_emodel_strain>  (1) 
0.3570563841711305

>  <r_i_glide_energy>  (1) 
-52.728176964668876

>  <r_i_glide_erotb>  (1) 
0.60855438394346106

>  <r_i_glide_esite>  (1) 
-0.077709275140915149

>  <r_i_glide_evdw>  (1) 
-49.879833332974329

>  <r_i_glide_gscore>  (1) 
-6.4847084849066121

>  <r_i_glide_gscore_strain>  (1) 
0

>  <r_i_glide_hbond>  (1) 
-0.30608246856970078

>  <r_i_glide_ligand_efficiency>  (1) 
-0.17953530963697553

>  <r_i_glide_ligand_efficiency_ln>  (1) 
-1.4101111468535081

>  <r_i_glide_ligand_efficiency_sa>  (1) 
-0.59281253102906373

>  <r_i_glide_lipo>  (1) 
-3.0366414717744643

>  <r_i_glide_metal>  (1) 
-0

>  <r_i_glide_rewards>  (1) 
-0.7515864419620949

>  <r_lp_Energy>  (1) 
46.704704999999997

>  <r_lp_tautomer_probability>  (1) 
0.99998399999999998

>  <s_epik_Chemistry_Notes>  (1) 
This compound has an imine and may undergo hydrolysis. This compound contains an acetal/aminal-like group ( X-CH(R)-Y where X, Y are N, S, or O) that may be acid/base labile, releasing an aldehyde. This compound has a N-S or N-O group and may undergo hydrolysis at high or low pH.

>  <s_epik_cmdline>  (1) 
J2VwaWtfcHl0aG9uJywgJy1waHQnLCAnMS4wJywgJy1waCcsICc3LjQnLCAnLXRuJywgJzgnLCAnLW1hJywgJzUwMCcsICctaW1hZScsICc8aW5maWxlLm1hZT4nLCAnLW9tYWUnLCAnPG91dGZpbGUubWFlPic=

>  <s_epik_input>  (1) 
W09IXVtDSDJdW0NIXShbQ0gyXVtPSF0pTjFTW0NASF0oW0NASF0oW05IXTEpW0NIMl1bQ0gyXVtOSDJdKVtOSF1bTkhdW0NASF0yQyg9TylOKFtDSDJdYyhjMjMpW2NIXVtjSF1bY0hdW2NIXTMpW0NASF0oW0NIMl1bQ0gyXTQpW0NIMl1DKD1DNDUpW0NIMl1bQ0gyXVtDSDJdW05IXTU=

>  <s_glide_docking_method>  (1) 
confgen

>  <s_i_glide_gridfile>  (1) 
gpcr_5ht2c_6bqh_protein_autoprepared_prepared

>  <s_lp_Force_Field>  (1) 
S-OPLS

>  <s_lp_Variant>  (1) 
DiffSBDD_84-4

>  <s_m_source_file>  (1) 
generated_GPCR_5HT2C_ligand_DiffSBDD_2026-06-23_prepared.sdf

>  <GenAI_Model>  (1) 
DiffSBDD

>  <Protein>  (1) 
GPCR_5HT2C

$$$$
DiffSBDD_86
     RDKit          3D

  0  0  0  0  0  0  0  0  0  0999 V3000
M  V30 BEGIN CTAB
M  V30 COUNTS 78 80 0 0 1
M  V30 BEGIN ATOM
M  V30 1 C 38.367361 26.249739 56.768058 0
M  V30 2 C 40.843722 37.432403 67.567313 0
M  V30 3 C 40.458407 30.393653 61.211128 0 CFG=2
M  V30 4 C 39.543074 38.132934 67.177244 0
M  V30 5 N 39.046083 30.408807 60.729603 0
M  V30 6 C 42.657768 30.483288 68.132034 0
M  V30 7 N 38.947837 26.851171 57.880573 0
M  V30 8 C 42.334690 32.255254 63.976475 0
M  V30 9 O 40.926289 34.075969 61.767762 0
M  V30 10 O 44.632073 29.400418 64.708102 0
M  V30 11 C 43.610001 31.227541 65.856506 0 CFG=2
M  V30 12 C 40.980823 31.830354 63.389965 0
M  V30 13 C 38.036947 30.959479 61.456611 0
M  V30 14 N 42.403959 32.022393 65.449772 0 CFG=1 CHG=1
M  V30 15 C 43.570108 29.824438 65.212599 0
M  V30 16 C 37.785251 24.955648 56.672342 0
M  V30 17 C 37.245212 25.337786 54.320753 0
M  V30 18 O 38.283098 31.468493 62.567750 0
M  V30 19 C 38.748410 29.746721 59.434834 0
M  V30 20 C 37.817938 26.612768 54.387478 0
M  V30 21 C 40.733361 29.122785 62.051041 0
M  V30 22 S 39.135858 28.604192 55.958313 0
M  V30 23 O 42.474558 29.220763 65.231371 0 CHG=-1
M  V30 24 C 42.210259 33.287442 66.220434 0
M  V30 25 C 41.014419 31.719423 61.835696 0 CFG=2
M  V30 26 C 45.210770 30.700187 67.854624 0
M  V30 27 O 40.445050 32.840544 61.162649 0
M  V30 28 N 41.171916 36.332889 66.636698 0 CHG=1
M  V30 29 C 39.881004 29.003754 58.686201 0
M  V30 30 C 38.369172 27.062930 55.592260 0
M  V30 31 O 37.758998 24.138507 57.767525 0
M  V30 32 C 40.845062 33.951122 65.957139 0
M  V30 33 C 39.341083 28.105425 57.634221 0
M  V30 34 C 44.738066 32.106280 68.085800 0
M  V30 35 C 43.831013 31.110207 67.379004 0
M  V30 36 O 36.872787 30.937937 60.997618 0 CHG=-1
M  V30 37 C 37.229598 24.509289 55.455503 0
M  V30 38 C 40.479122 35.065448 66.948793 0
M  V30 39 H 40.805577 37.070886 68.596753 0
M  V30 40 H 41.645154 38.166391 67.525738 0
M  V30 41 H 41.092052 30.311408 60.334262 0
M  V30 42 H 39.331148 38.957954 67.856131 0
M  V30 43 H 39.620030 38.535464 66.166705 0
M  V30 44 H 38.685411 37.462178 67.212372 0
M  V30 45 H 42.774124 30.622016 69.206829 0
M  V30 46 H 41.704277 30.917807 67.837648 0
M  V30 47 H 42.612616 29.409808 67.945451 0
M  V30 48 H 43.114263 31.694418 63.463378 0
M  V30 49 H 42.537130 33.298011 63.730780 0
M  V30 50 H 40.183949 34.295040 62.312098 0
M  V30 51 H 44.482178 31.739845 65.449935 0
M  V30 52 H 40.200291 32.519855 63.703244 0
M  V30 53 H 40.693754 30.889476 63.849197 0
M  V30 54 H 36.813400 24.990712 53.393595 0
M  V30 55 H 37.972938 29.009505 59.653367 0
M  V30 56 H 38.287695 30.469255 58.758142 0
M  V30 57 H 37.830876 27.248015 53.513311 0
M  V30 58 H 41.759246 29.098238 62.419744 0
M  V30 59 H 40.062780 29.048871 62.907309 0
M  V30 60 H 40.582174 28.208014 61.481917 0
M  V30 61 H 42.271554 33.095936 67.289249 0
M  V30 62 H 43.018292 33.980563 65.986665 0
M  V30 63 H 42.061878 31.749055 61.545259 0
M  V30 64 H 45.246853 30.026805 68.707710 0
M  V30 65 H 45.980674 30.541401 67.101098 0
M  V30 66 H 42.167390 36.175759 66.695725 0
M  V30 67 H 40.560424 29.714514 58.216390 0
M  V30 68 H 40.473145 28.377902 59.347943 0
M  V30 69 H 37.339995 23.301480 57.635912 0
M  V30 70 H 40.796066 34.344051 64.941528 0
M  V30 71 H 40.080387 33.178329 66.022265 0
M  V30 72 H 45.200944 32.890964 67.490296 0
M  V30 73 H 44.490124 32.388232 69.107277 0
M  V30 74 H 36.786809 23.526394 55.394176 0
M  V30 75 H 39.403704 35.242969 66.920824 0
M  V30 76 H 40.707876 34.753047 67.968811 0
M  V30 77 H 40.963373 36.645745 65.696301 0
M  V30 78 H 41.642238 31.391496 65.667647 0
M  V30 END ATOM
M  V30 BEGIN BOND
M  V30 1 1 4 2
M  V30 2 1 5 3
M  V30 3 1 7 1
M  V30 4 1 12 8
M  V30 5 1 13 5
M  V30 6 1 14 8
M  V30 7 1 14 11
M  V30 8 2 15 10
M  V30 9 1 15 11
M  V30 10 2 16 1
M  V30 11 2 18 13
M  V30 12 1 19 5
M  V30 13 1 20 17
M  V30 14 1 21 3
M  V30 15 1 23 15
M  V30 16 1 24 14
M  V30 17 1 25 3
M  V30 18 1 25 12
M  V30 19 1 27 9
M  V30 20 1 27 25
M  V30 21 1 28 2
M  V30 22 1 29 19
M  V30 23 1 30 1
M  V30 24 2 30 20
M  V30 25 1 30 22
M  V30 26 1 31 16
M  V30 27 1 32 24
M  V30 28 2 33 7
M  V30 29 1 33 22
M  V30 30 1 33 29
M  V30 31 1 34 26
M  V30 32 1 35 6
M  V30 33 1 35 11
M  V30 34 1 35 26
M  V30 35 1 35 34
M  V30 36 1 36 13
M  V30 37 1 37 16
M  V30 38 2 37 17
M  V30 39 1 38 28
M  V30 40 1 38 32
M  V30 41 1 39 2
M  V30 42 1 40 2
M  V30 43 1 3 41 CFG=3
M  V30 44 1 42 4
M  V30 45 1 43 4
M  V30 46 1 44 4
M  V30 47 1 45 6
M  V30 48 1 46 6
M  V30 49 1 47 6
M  V30 50 1 48 8
M  V30 51 1 49 8
M  V30 52 1 50 9
M  V30 53 1 11 51 CFG=3
M  V30 54 1 52 12
M  V30 55 1 53 12
M  V30 56 1 54 17
M  V30 57 1 55 19
M  V30 58 1 56 19
M  V30 59 1 57 20
M  V30 60 1 58 21
M  V30 61 1 59 21
M  V30 62 1 60 21
M  V30 63 1 61 24
M  V30 64 1 62 24
M  V30 65 1 25 63 CFG=3
M  V30 66 1 64 26
M  V30 67 1 65 26
M  V30 68 1 66 28
M  V30 69 1 67 29
M  V30 70 1 68 29
M  V30 71 1 69 31
M  V30 72 1 70 32
M  V30 73 1 71 32
M  V30 74 1 72 34
M  V30 75 1 73 34
M  V30 76 1 74 37
M  V30 77 1 75 38
M  V30 78 1 76 38
M  V30 79 1 77 28
M  V30 80 1 14 78 CFG=1
M  V30 END BOND
M  V30 END CTAB
M  END
>  <i_epik_Tot_Q>  (1) 
0

>  <i_epik_Tot_abs_Q>  (1) 
4

>  <i_i_glide_confnum>  (1) 
3649

>  <i_i_glide_lignum>  (1) 
205

>  <i_i_glide_posenum>  (1) 
134

>  <i_i_glide_rotatable_bonds>  (1) 
20

>  <i_lp_mmshare_version>  (1) 
72125

>  <i_m_source_file_index>  (1) 
87

>  <i_f3d_flags>  (1) 
0

>  <num_sample>  (1) 
100

>  <b_lp_Chiralities_Consistent>  (1) 
1

>  <r_epik_Charging_Adjusted_Penalty>  (1) 
0.22044164317972559

>  <r_epik_Ionization_Penalty>  (1) 
0.19516572318186753

>  <r_epik_Ionization_Penalty_Charging>  (1) 
0.026579669222116228

>  <r_epik_Ionization_Penalty_Neutral>  (1) 
0.16858605395975129

>  <r_epik_State_Penalty>  (1) 
0.19386197395760935

>  <r_glide_ring_energy>  (1) 
0

>  <r_i_docking_score>  (1) 
-6.4624551163111965

>  <r_i_glide_ecoul>  (1) 
-3.8797516616247876

>  <r_i_glide_eff_state_penalty>  (1) 
0.19386197395760935

>  <r_i_glide_einternal>  (1) 
12.331662638298635

>  <r_i_glide_emodel>  (1) 
-67.058185035421019

>  <r_i_glide_emodel_strain>  (1) 
1.2720414136871412

>  <r_i_glide_energy>  (1) 
-49.796891858755544

>  <r_i_glide_erotb>  (1) 
0.94715796475939662

>  <r_i_glide_esite>  (1) 
-0.0013111333392046975

>  <r_i_glide_evdw>  (1) 
-45.917140197130756

>  <r_i_glide_gscore>  (1) 
-6.6563170902688062

>  <r_i_glide_gscore_strain>  (1) 
0

>  <r_i_glide_hbond>  (1) 
-0.16095256969048879

>  <r_i_glide_ligand_efficiency>  (1) 
-0.17006460832397885

>  <r_i_glide_ligand_efficiency_ln>  (1) 
-1.3934954292455619

>  <r_i_glide_ligand_efficiency_sa>  (1) 
-0.57175303075211525

>  <r_i_glide_lipo>  (1) 
-4.0696327863827539

>  <r_i_glide_metal>  (1) 
-0

>  <r_i_glide_rewards>  (1) 
-0.49375880651549831

>  <r_lp_Energy>  (1) 
38.677337999999999

>  <s_epik_cmdline>  (1) 
J2VwaWtfcHl0aG9uJywgJy1waHQnLCAnMS4wJywgJy1waCcsICc3LjQnLCAnLXRuJywgJzgnLCAnLW1hJywgJzUwMCcsICctaW1hZScsICc8aW5maWxlLm1hZT4nLCAnLW9tYWUnLCAnPG91dGZpbGUubWFlPic=

>  <s_epik_input>  (1) 
W09IXWMxW2NIXVtjSF1bY0hdYyhjMTIpc2MobjIpW0NIMl1bQ0gyXU4oQyg9TylbT0hdKVtDQEhdKFtDSDNdKVtDQEBIXShPW09IXSlbQ0gyXVtDSDJdTihbQ0BIXShDKD1PKVtPSF0pQzMoW0NIM10pW0NIMl1bQ0gyXTMpW0NIMl1bQ0gyXVtDSDJdW05IXVtDSDJdW0NIM10=

>  <s_glide_docking_method>  (1) 
confgen

>  <s_i_glide_gridfile>  (1) 
gpcr_5ht2c_6bqh_protein_autoprepared_prepared

>  <s_lp_Force_Field>  (1) 
S-OPLS

>  <s_lp_Variant>  (1) 
DiffSBDD_86-2

>  <s_m_source_file>  (1) 
generated_GPCR_5HT2C_ligand_DiffSBDD_2026-06-23_prepared.sdf

>  <GenAI_Model>  (1) 
DiffSBDD

>  <Protein>  (1) 
GPCR_5HT2C

$$$$
DiffSBDD_18
     RDKit          3D

  0  0  0  0  0  0  0  0  0  0999 V3000
M  V30 BEGIN CTAB
M  V30 COUNTS 77 79 0 0 1
M  V30 BEGIN ATOM
M  V30 1 C 34.402793 32.465849 59.680891 0
M  V30 2 C 38.244782 28.096368 54.567480 0 CFG=2
M  V30 3 C 40.630359 30.495016 62.562284 0
M  V30 4 C 39.985456 31.749050 62.643099 0
M  V30 5 C 39.080772 29.833669 60.795720 0
M  V30 6 O 37.245376 24.049316 54.967872 0
M  V30 7 C 37.481552 34.113861 59.555105 0
M  V30 8 C 40.712297 28.137671 57.090172 0
M  V30 9 C 38.403553 32.827403 55.241180 0
M  V30 10 C 41.041317 32.527045 64.782353 0
M  V30 11 C 37.596005 24.565392 56.050991 0
M  V30 12 C 40.171042 29.539664 61.640397 0
M  V30 13 C 38.542844 32.646679 57.843136 0
M  V30 14 C 39.961369 28.755468 56.215401 0
M  V30 15 C 40.681891 26.635999 57.256639 0
M  V30 16 C 36.751947 35.352310 59.021571 0
M  V30 17 C 35.417735 31.864081 60.671032 0
M  V30 18 C 39.269228 31.624036 55.524703 0 CFG=2
M  V30 19 C 37.665346 27.005059 55.515410 0
M  V30 20 C 38.849992 27.539426 53.268158 0
M  V30 21 C 39.282277 25.996093 57.327750 0
M  V30 22 C 41.198227 31.127459 65.318109 0
M  V30 23 C 39.159434 29.112355 55.242281 0
M  V30 24 C 36.615300 29.956328 58.696141 0
M  V30 25 C 38.532060 25.794309 55.972770 0 CFG=1
M  V30 26 N 41.476131 33.551467 65.537339 0 CHG=1
M  V30 27 C 38.905092 32.053589 61.790350 0
M  V30 28 P 36.995130 31.479644 59.717151 0 CFG=2 CHG=1
M  V30 29 N 39.069402 30.408356 54.750847 0
M  V30 30 O 37.245160 24.182359 57.189427 0 CHG=-1
M  V30 31 C 38.187539 32.031891 56.502360 0 CFG=2
M  V30 32 C 38.436534 31.094283 60.859228 0
M  V30 33 N 37.364502 32.880382 58.713243 0 CFG=1 CHG=1
M  V30 34 N 40.445126 32.799518 63.572977 0
M  V30 35 H 33.552343 32.937782 60.167761 0
M  V30 36 H 34.825829 33.245120 59.059002 0
M  V30 37 H 34.044447 31.707758 58.986551 0
M  V30 38 H 37.373517 28.672328 54.250601 0
M  V30 39 H 41.478446 30.264497 63.170296 0
M  V30 40 H 38.740787 29.089931 60.089895 0
M  V30 41 H 37.031039 33.949721 60.529430 0
M  V30 42 H 38.526580 34.347566 59.764565 0
M  V30 43 H 41.437901 28.674170 57.682292 0
M  V30 44 H 38.843257 33.815021 55.367418 0
M  V30 45 H 37.643466 32.749431 54.465904 0
M  V30 46 H 40.660774 28.578064 61.573136 0
M  V30 47 H 39.245120 31.990537 58.349762 0
M  V30 48 H 39.069504 33.581793 57.662001 0
M  V30 49 H 41.244111 26.199028 56.431934 0
M  V30 50 H 41.230391 26.400181 58.167683 0
M  V30 51 H 36.731694 36.132823 59.783247 0
M  V30 52 H 37.245151 35.788778 58.167767 0
M  V30 53 H 35.717875 35.159072 58.744721 0
M  V30 54 H 35.011953 30.964291 61.132015 0
M  V30 55 H 35.605627 32.559575 61.487966 0
M  V30 56 H 40.314896 31.799804 55.767783 0
M  V30 57 H 37.246612 27.465957 56.409291 0
M  V30 58 H 36.807054 26.622249 54.967802 0
M  V30 59 H 39.135604 28.343749 52.589586 0
M  V30 60 H 39.740208 26.941602 53.461228 0
M  V30 61 H 38.133221 26.906895 52.743242 0
M  V30 62 H 38.654248 26.524919 58.045920 0
M  V30 63 H 39.464026 25.017087 57.773587 0
M  V30 64 H 42.157673 30.691653 65.036716 0
M  V30 65 H 41.210196 31.170228 66.408306 0
M  V30 66 H 40.354862 30.479310 65.078140 0
M  V30 67 H 36.292984 29.140965 59.337332 0
M  V30 68 H 35.800847 30.137080 58.004529 0
M  V30 69 H 37.475869 29.611655 58.123760 0
M  V30 70 H 39.259585 25.541421 55.202998 0
M  V30 71 H 41.906134 33.370308 66.434657 0
M  V30 72 H 38.431846 33.018836 61.855374 0
M  V30 73 H 38.427736 30.526011 53.979757 0
M  V30 74 H 37.345955 31.345944 56.508852 0
M  V30 75 H 40.176313 33.759822 63.414586 0
M  V30 76 H 41.380057 34.504215 65.212003 0
M  V30 77 H 36.568521 32.982107 58.088857 0
M  V30 END ATOM
M  V30 BEGIN BOND
M  V30 1 1 4 3
M  V30 2 2 11 6
M  V30 3 2 12 3
M  V30 4 1 12 5
M  V30 5 2 14 8
M  V30 6 1 15 8
M  V30 7 1 16 7
M  V30 8 1 17 1
M  V30 9 1 18 9
M  V30 10 1 19 2
M  V30 11 1 20 2
M  V30 12 1 21 15
M  V30 13 1 22 10
M  V30 14 1 23 2
M  V30 15 2 23 14
M  V30 16 1 25 11
M  V30 17 1 25 19
M  V30 18 1 25 21
M  V30 19 2 26 10
M  V30 20 2 27 4
M  V30 21 1 28 17 CFG=1
M  V30 22 1 28 24
M  V30 23 1 29 18
M  V30 24 1 29 23
M  V30 25 1 30 11
M  V30 26 1 31 9
M  V30 27 1 31 13
M  V30 28 1 31 18
M  V30 29 2 32 5
M  V30 30 1 32 27
M  V30 31 1 32 28
M  V30 32 1 33 7
M  V30 33 1 33 13
M  V30 34 1 33 28
M  V30 35 1 34 4
M  V30 36 1 34 10
M  V30 37 1 35 1
M  V30 38 1 36 1
M  V30 39 1 37 1
M  V30 40 1 2 38 CFG=3
M  V30 41 1 39 3
M  V30 42 1 40 5
M  V30 43 1 41 7
M  V30 44 1 42 7
M  V30 45 1 43 8
M  V30 46 1 44 9
M  V30 47 1 45 9
M  V30 48 1 46 12
M  V30 49 1 47 13
M  V30 50 1 48 13
M  V30 51 1 49 15
M  V30 52 1 50 15
M  V30 53 1 51 16
M  V30 54 1 52 16
M  V30 55 1 53 16
M  V30 56 1 54 17
M  V30 57 1 55 17
M  V30 58 1 18 56 CFG=1
M  V30 59 1 57 19
M  V30 60 1 58 19
M  V30 61 1 59 20
M  V30 62 1 60 20
M  V30 63 1 61 20
M  V30 64 1 62 21
M  V30 65 1 63 21
M  V30 66 1 64 22
M  V30 67 1 65 22
M  V30 68 1 66 22
M  V30 69 1 67 24
M  V30 70 1 68 24
M  V30 71 1 69 24
M  V30 72 1 25 70 CFG=3
M  V30 73 1 71 26
M  V30 74 1 72 27
M  V30 75 1 73 29
M  V30 76 1 31 74 CFG=1
M  V30 77 1 75 34
M  V30 78 1 76 26
M  V30 79 1 33 77 CFG=3
M  V30 END BOND
M  V30 END CTAB
M  END
>  <i_epik_Tot_Q>  (1) 
2

>  <i_epik_Tot_abs_Q>  (1) 
4

>  <i_i_glide_confnum>  (1) 
776

>  <i_i_glide_lignum>  (1) 
42

>  <i_i_glide_posenum>  (1) 
89

>  <i_i_glide_rotatable_bonds>  (1) 
11

>  <i_lp_mmshare_version>  (1) 
72125

>  <i_m_source_file_index>  (1) 
19

>  <i_f3d_flags>  (1) 
0

>  <num_sample>  (1) 
100

>  <b_lp_Chiralities_Consistent>  (1) 
1

>  <r_epik_Charging_Adjusted_Penalty>  (1) 
0.035732071636325656

>  <r_epik_Ionization_Penalty>  (1) 
0.019213783482484162

>  <r_epik_Ionization_Penalty_Charging>  (1) 
0.019186760244236628

>  <r_epik_Ionization_Penalty_Neutral>  (1) 
2.7023238247534635e-05

>  <r_epik_State_Penalty>  (1) 
0.016545311392089028

>  <r_glide_ring_energy>  (1) 
0

>  <r_i_docking_score>  (1) 
-6.4591320042254043

>  <r_i_glide_ecoul>  (1) 
-4.3888850274437896

>  <r_i_glide_eff_state_penalty>  (1) 
0.016545311392089028

>  <r_i_glide_einternal>  (1) 
7.5005467531239738

>  <r_i_glide_emodel>  (1) 
-67.917081773534989

>  <r_i_glide_emodel_strain>  (1) 
1.7614299399210651

>  <r_i_glide_energy>  (1) 
-44.723214482276973

>  <r_i_glide_erotb>  (1) 
0.68654883804919686

>  <r_i_glide_esite>  (1) 
-0.15026684308839081

>  <r_i_glide_evdw>  (1) 
-40.334329454833181

>  <r_i_glide_gscore>  (1) 
-6.4756773156174932

>  <r_i_glide_gscore_strain>  (1) 
0

>  <r_i_glide_hbond>  (1) 
-0.16539730128400298

>  <r_i_glide_ligand_efficiency>  (1) 
-0.18997447071251189

>  <r_i_glide_ligand_efficiency_ln>  (1) 
-1.4270034322493883

>  <r_i_glide_ligand_efficiency_sa>  (1) 
-0.6154435372616972

>  <r_i_glide_lipo>  (1) 
-2.8713583888446883

>  <r_i_glide_metal>  (1) 
-0

>  <r_i_glide_rewards>  (1) 
-1.3001543935913795

>  <r_lp_Energy>  (1) 
36.417943999999999

>  <s_epik_Chemistry_Notes>  (1) 
This compound has an imine and may undergo hydrolysis.

>  <s_epik_cmdline>  (1) 
J2VwaWtfcHl0aG9uJywgJy1waHQnLCAnMS4wJywgJy1waCcsICc3LjQnLCAnLXRuJywgJzgnLCAnLW1hJywgJzUwMCcsICctaW1hZScsICc8aW5maWxlLm1hZT4nLCAnLW9tYWUnLCAnPG91dGZpbGUubWFlPic=

>  <s_epik_input>  (1) 
W0hdL049QyhcW0NIM10pW05IXWMxW2NIXVtjSF1bY0hdYyhbY0hdMSlbUEBAK10oW0NIM10pKFtDSDJdW0NIM10pTihbQ0gyXVtDSDNdKVtDSDJdW0NASF0yW0NIMl1bQ0BASF0yW05IXUMzPUM9W0NIXVtDSDJdW0NIMl1bQ0BASF0oQyg9TylbT0hdKVtDSDJdW0NAQEhdM1tDSDNd

>  <s_glide_docking_method>  (1) 
confgen

>  <s_i_glide_gridfile>  (1) 
gpcr_5ht2c_6bqh_protein_autoprepared_prepared

>  <s_lp_Force_Field>  (1) 
S-OPLS

>  <s_lp_Variant>  (1) 
DiffSBDD_18-1

>  <s_m_source_file>  (1) 
generated_GPCR_5HT2C_ligand_DiffSBDD_2026-06-23_prepared.sdf

>  <GenAI_Model>  (1) 
DiffSBDD

>  <Protein>  (1) 
GPCR_5HT2C

$$$$
DiffSBDD_34
     RDKit          3D

  0  0  0  0  0  0  0  0  0  0999 V3000
M  V30 BEGIN CTAB
M  V30 COUNTS 77 79 0 0 1
M  V30 BEGIN ATOM
M  V30 1 C 38.294090 30.151851 54.125808 0
M  V30 2 C 39.848089 35.984255 62.588516 0
M  V30 3 C 38.677373 26.226776 58.327206 0
M  V30 4 C 39.473389 27.361314 57.678524 0
M  V30 5 C 41.068729 35.551410 66.171153 0
M  V30 6 N 37.277567 27.894057 53.998382 0
M  V30 7 C 39.030739 34.902459 60.357819 0
M  V30 8 C 38.098672 29.364308 59.816488 0
M  V30 9 C 40.219078 35.382120 61.225164 0
M  V30 10 C 40.842198 35.564980 63.684739 0
M  V30 11 O 38.445006 33.557637 55.410193 0
M  V30 12 C 38.116544 33.784234 60.941586 0 CFG=2
M  V30 13 N 38.308900 33.337644 57.633526 0
M  V30 14 C 38.429033 31.365240 56.369113 0 CFG=1
M  V30 15 N 39.644832 29.809209 52.405934 0
M  V30 16 C 40.095934 26.868980 56.357004 0
M  V30 17 C 38.588338 28.598057 57.435197 0
M  V30 18 O 40.383065 37.481738 67.369926 0
M  V30 19 C 37.517025 30.751242 55.275482 0
M  V30 20 C 38.062159 30.491142 60.867318 0
M  V30 21 O 40.038649 35.486230 68.305062 0 CHG=-1
M  V30 22 C 40.605037 29.974960 51.335844 0
M  V30 23 C 38.288127 32.382301 58.698792 0 CFG=1
M  V30 24 O 38.856737 33.095632 61.935620 0
M  V30 25 C 36.934174 31.525067 60.643068 0
M  V30 26 N 40.444716 36.137751 64.978529 0 CHG=1
M  V30 27 C 38.396684 32.866471 56.422312 0
M  V30 28 C 37.421754 32.792738 59.917563 0 CFG=1
M  V30 29 C 40.444703 36.230356 67.386698 0
M  V30 30 C 38.008194 31.059290 57.868534 0 CFG=2
M  V30 31 C 38.174219 28.852190 53.544610 0
M  V30 32 C 39.269208 30.724611 53.367634 0
M  V30 33 C 38.682404 29.776263 58.443895 0 CFG=1
M  V30 34 N 38.985165 28.636199 52.520992 0
M  V30 35 H 39.800524 37.071079 62.503567 0
M  V30 36 H 38.848161 35.662050 62.879566 0
M  V30 37 H 37.743192 26.031340 57.796846 0
M  V30 38 H 38.445166 26.456257 59.364551 0
M  V30 39 H 39.256426 25.308628 58.302414 0
M  V30 40 H 40.297533 27.630615 58.338944 0
M  V30 41 H 42.144245 35.732213 66.158827 0
M  V30 42 H 40.896744 34.473717 66.198256 0
M  V30 43 H 36.651073 28.078785 54.766118 0
M  V30 44 H 37.196868 26.995401 53.544552 0
M  V30 45 H 38.414405 35.753520 60.065852 0
M  V30 46 H 39.519739 34.537607 59.463104 0
M  V30 47 H 38.711540 28.560374 60.223713 0
M  V30 48 H 37.105579 28.939655 59.685241 0
M  V30 49 H 40.902996 34.544106 61.362969 0
M  V30 50 H 40.803994 36.115442 60.669081 0
M  V30 51 H 41.856148 35.889191 63.443348 0
M  V30 52 H 40.854913 34.476368 63.766161 0
M  V30 53 H 37.316790 34.275134 61.497245 0
M  V30 54 H 38.261005 34.327575 57.822359 0
M  V30 55 H 39.474148 31.090565 56.218154 0
M  V30 56 H 39.330534 26.591957 55.630297 0
M  V30 57 H 40.723424 25.995450 56.522613 0
M  V30 58 H 40.725585 27.634477 55.899661 0
M  V30 59 H 38.910381 28.947798 56.463908 0
M  V30 60 H 37.546613 28.310663 57.292038 0
M  V30 61 H 36.844369 31.515859 54.885847 0
M  V30 62 H 36.845610 30.018714 55.718228 0
M  V30 63 H 37.954776 30.137906 61.887959 0
M  V30 64 H 39.056448 30.930809 60.878023 0
M  V30 65 H 41.103729 30.940387 51.415778 0
M  V30 66 H 40.091851 29.937753 50.373475 0
M  V30 67 H 41.340136 29.171693 51.366786 0
M  V30 68 H 39.283757 32.317576 59.078207 0
M  V30 69 H 39.540007 32.603937 61.508634 0
M  V30 70 H 36.113481 31.070544 60.084870 0
M  V30 71 H 36.492324 31.809182 61.598393 0
M  V30 72 H 40.691682 37.123922 64.996300 0
M  V30 73 H 36.535273 33.294691 59.525441 0
M  V30 74 H 36.934270 30.885433 57.883808 0
M  V30 75 H 39.705126 31.711333 53.412503 0
M  V30 76 H 39.738962 30.000748 58.578739 0
M  V30 77 H 39.445921 36.059351 65.100739 0
M  V30 END ATOM
M  V30 BEGIN BOND
M  V30 1 1 4 3
M  V30 2 1 9 2
M  V30 3 1 9 7
M  V30 4 1 10 2
M  V30 5 1 12 7
M  V30 6 1 16 4
M  V30 7 1 17 4
M  V30 8 1 19 1
M  V30 9 1 19 14
M  V30 10 1 20 8
M  V30 11 1 22 15
M  V30 12 1 23 13
M  V30 13 1 24 12
M  V30 14 1 25 20
M  V30 15 1 26 5
M  V30 16 1 26 10
M  V30 17 2 27 11
M  V30 18 1 27 13
M  V30 19 1 27 14
M  V30 20 1 28 12
M  V30 21 1 28 23
M  V30 22 1 28 25
M  V30 23 1 29 5
M  V30 24 2 29 18
M  V30 25 1 29 21
M  V30 26 1 30 14
M  V30 27 1 30 23
M  V30 28 1 31 1
M  V30 29 1 31 6
M  V30 30 2 32 1
M  V30 31 1 32 15
M  V30 32 1 33 8
M  V30 33 1 33 17
M  V30 34 1 33 30
M  V30 35 1 34 15
M  V30 36 2 34 31
M  V30 37 1 35 2
M  V30 38 1 36 2
M  V30 39 1 37 3
M  V30 40 1 38 3
M  V30 41 1 39 3
M  V30 42 1 40 4
M  V30 43 1 41 5
M  V30 44 1 42 5
M  V30 45 1 43 6
M  V30 46 1 44 6
M  V30 47 1 45 7
M  V30 48 1 46 7
M  V30 49 1 47 8
M  V30 50 1 48 8
M  V30 51 1 49 9
M  V30 52 1 50 9
M  V30 53 1 51 10
M  V30 54 1 52 10
M  V30 55 1 12 53 CFG=1
M  V30 56 1 54 13
M  V30 57 1 14 55 CFG=3
M  V30 58 1 56 16
M  V30 59 1 57 16
M  V30 60 1 58 16
M  V30 61 1 59 17
M  V30 62 1 60 17
M  V30 63 1 61 19
M  V30 64 1 62 19
M  V30 65 1 63 20
M  V30 66 1 64 20
M  V30 67 1 65 22
M  V30 68 1 66 22
M  V30 69 1 67 22
M  V30 70 1 23 68 CFG=1
M  V30 71 1 69 24
M  V30 72 1 70 25
M  V30 73 1 71 25
M  V30 74 1 72 26
M  V30 75 1 28 73 CFG=3
M  V30 76 1 30 74 CFG=3
M  V30 77 1 75 32
M  V30 78 1 33 76 CFG=1
M  V30 79 1 77 26
M  V30 END BOND
M  V30 END CTAB
M  END
>  <i_epik_Tot_Q>  (1) 
0

>  <i_epik_Tot_abs_Q>  (1) 
2

>  <i_i_glide_confnum>  (1) 
1493

>  <i_i_glide_lignum>  (1) 
78

>  <i_i_glide_posenum>  (1) 
139

>  <i_i_glide_rotatable_bonds>  (1) 
13

>  <i_lp_mmshare_version>  (1) 
72125

>  <i_m_source_file_index>  (1) 
35

>  <i_f3d_flags>  (1) 
0

>  <num_sample>  (1) 
100

>  <b_lp_Chiralities_Consistent>  (1) 
1

>  <r_epik_Charging_Adjusted_Penalty>  (1) 
0.0058843035304018774

>  <r_epik_Ionization_Penalty>  (1) 
0.0059063327183222396

>  <r_epik_Ionization_Penalty_Charging>  (1) 
0.0010621566203982099

>  <r_epik_Ionization_Penalty_Neutral>  (1) 
0.0048441760979240295

>  <r_epik_State_Penalty>  (1) 
0.0048221469100036673

>  <r_glide_ring_energy>  (1) 
0

>  <r_i_docking_score>  (1) 
-6.4576391330935845

>  <r_i_glide_ecoul>  (1) 
-4.6435314341116865

>  <r_i_glide_eff_state_penalty>  (1) 
0.0048221469100036673

>  <r_i_glide_einternal>  (1) 
9.8565100690388121

>  <r_i_glide_emodel>  (1) 
-46.880265285637961

>  <r_i_glide_emodel_strain>  (1) 
3.971932424631845

>  <r_i_glide_energy>  (1) 
-49.900956330449276

>  <r_i_glide_erotb>  (1) 
0.88794746620747522

>  <r_i_glide_esite>  (1) 
-0.16462316435154251

>  <r_i_glide_evdw>  (1) 
-45.257424896337589

>  <r_i_glide_gscore>  (1) 
-6.4624612800035885

>  <r_i_glide_gscore_strain>  (1) 
0

>  <r_i_glide_hbond>  (1) 
0

>  <r_i_glide_ligand_efficiency>  (1) 
-0.18993056273804659

>  <r_i_glide_ligand_efficiency_ln>  (1) 
-1.4266736151427524

>  <r_i_glide_ligand_efficiency_sa>  (1) 
-0.61530129246944931

>  <r_i_glide_lipo>  (1) 
-2.8150365690736985

>  <r_i_glide_metal>  (1) 
-0

>  <r_i_glide_rewards>  (1) 
-1.4113480528521891

>  <r_lp_Energy>  (1) 
22.816407999999999

>  <r_lp_tautomer_probability>  (1) 
0.99999999999999989

>  <s_epik_cmdline>  (1) 
J2VwaWtfcHl0aG9uJywgJy1waHQnLCAnMS4wJywgJy1waCcsICc3LjQnLCAnLXRuJywgJzgnLCAnLW1hJywgJzUwMCcsICctaW1hZScsICc8aW5maWxlLm1hZT4nLCAnLW9tYWUnLCAnPG91dGZpbGUubWFlPic=

>  <s_epik_input>  (1) 
W0NIM11uKFtjSF0xKW5jKFtOSDJdKWMxW0NIMl1bQ0BASF0oQyg9TylbTkhdMilbQ0BIXShbQ0BASF0yMylbQ0BIXShbQ0gyXVtDSF0oW0NIM10pW0NIM10pW0NIMl1bQ0gyXVtDSDJdW0NASF0zW0NAQEhdKFtPSF0pW0NIMl1bQ0gyXVtDSDJdW0NIMl1bTkhdW0NIMl1DKD1PKVtPSF0=

>  <s_glide_docking_method>  (1) 
confgen

>  <s_i_glide_gridfile>  (1) 
gpcr_5ht2c_6bqh_protein_autoprepared_prepared

>  <s_lp_Force_Field>  (1) 
S-OPLS

>  <s_lp_Variant>  (1) 
DiffSBDD_34-1

>  <s_m_source_file>  (1) 
generated_GPCR_5HT2C_ligand_DiffSBDD_2026-06-23_prepared.sdf

>  <GenAI_Model>  (1) 
DiffSBDD

>  <Protein>  (1) 
GPCR_5HT2C

$$$$
DiffSBDD_62
     RDKit          3D

  0  0  0  0  0  0  0  0  0  0999 V3000
M  V30 BEGIN CTAB
M  V30 COUNTS 80 84 0 0 1
M  V30 BEGIN ATOM
M  V30 1 C 40.642461 31.545312 63.724273 0
M  V30 2 C 40.235009 29.952180 50.941447 0
M  V30 3 C 40.037058 28.418816 57.385466 0
M  V30 4 C 41.306482 33.486463 62.145960 0
M  V30 5 C 41.508977 28.968667 68.542478 0
M  V30 6 C 39.489510 27.458675 50.591973 0
M  V30 7 C 38.980804 29.546360 57.659386 0 CFG=1
M  V30 8 C 39.093743 28.844272 52.607162 0
M  V30 9 C 38.045646 28.216288 54.612717 0
M  V30 10 O 40.229526 30.538494 66.396850 0
M  V30 11 C 42.179442 29.462395 67.276909 0
M  V30 12 C 39.188157 31.747138 54.884480 0
M  V30 13 C 40.388382 32.306067 62.408070 0
M  V30 14 C 41.460567 30.481557 66.454577 0
M  V30 15 C 38.946419 30.392349 54.379629 0
M  V30 16 N 39.307139 30.054268 53.101584 0
M  V30 17 C 39.993091 27.067625 58.153431 0
M  V30 18 O 36.259461 30.696315 59.137557 0
M  V30 19 C 41.592734 28.067495 67.336748 0
M  V30 20 N 41.810879 32.657704 65.560025 0
M  V30 21 N 40.045128 30.937480 52.196110 0
M  V30 22 N 39.466265 31.982364 61.586117 0
M  V30 23 C 38.567474 30.881329 61.868428 0
M  V30 24 C 39.561992 28.697327 51.444711 0
M  V30 25 C 38.362471 29.554210 55.145843 0
M  V30 26 C 38.223691 31.536328 56.153194 0
M  V30 27 N 42.278624 31.300163 65.755788 0
M  V30 28 C 37.616901 30.789696 59.504209 0 CFG=2
M  V30 29 C 41.971309 31.860573 64.429633 0 CFG=1
M  V30 30 C 39.941007 25.598528 56.021233 0
M  V30 31 C 39.406288 25.828979 57.442977 0
M  V30 32 C 37.986490 29.970483 56.514950 0 CFG=2
M  V30 33 C 37.880114 25.747101 57.538057 0
M  V30 34 C 38.348730 29.494764 59.070013 0
M  V30 35 N 37.400478 30.937779 60.956824 0 CHG=1
M  V30 36 N 38.389584 27.880539 53.408932 0
M  V30 37 H 39.800406 31.765994 64.376671 0
M  V30 38 H 40.629983 30.472721 63.527685 0
M  V30 39 H 41.292629 29.792731 50.733244 0
M  V30 40 H 39.735835 30.352534 50.057986 0
M  V30 41 H 40.221040 28.256166 56.327863 0
M  V30 42 H 40.984389 28.854469 57.707524 0
M  V30 43 H 41.422716 34.101406 63.038446 0
M  V30 44 H 42.287626 33.143903 61.816102 0
M  V30 45 H 40.892467 34.125660 61.367162 0
M  V30 46 H 42.152043 28.747848 69.392920 0
M  V30 47 H 40.518473 29.340156 68.801137 0
M  V30 48 H 38.845174 27.688986 49.766942 0
M  V30 49 H 40.445242 27.187930 50.167717 0
M  V30 50 H 39.082797 26.600473 51.126232 0
M  V30 51 H 39.645151 30.406432 57.738422 0
M  V30 52 H 37.514143 27.541394 55.281939 0
M  V30 53 H 43.265788 29.536004 67.297950 0
M  V30 54 H 40.231185 31.868695 55.171611 0
M  V30 55 H 38.845729 32.536884 54.216250 0
M  V30 56 H 41.034781 26.812074 58.354899 0
M  V30 57 H 39.558526 27.163969 59.146466 0
M  V30 58 H 40.664288 27.869436 66.800690 0
M  V30 59 H 42.290502 27.233220 67.373163 0
M  V30 60 H 40.871217 32.830611 65.892240 0
M  V30 61 H 39.449172 31.725132 51.949405 0
M  V30 62 H 38.173354 30.946253 62.883471 0
M  V30 63 H 39.077971 29.920934 61.802412 0
M  V30 64 H 37.253626 31.943705 55.859688 0
M  V30 65 H 38.541917 32.149040 56.994374 0
M  V30 66 H 38.084724 31.696002 59.122082 0
M  V30 67 H 42.839794 32.002785 63.791275 0
M  V30 68 H 39.312502 26.032699 55.255883 0
M  V30 69 H 40.943232 26.001546 55.890982 0
M  V30 70 H 39.980220 24.537921 55.799241 0
M  V30 71 H 39.773759 24.976283 58.014959 0
M  V30 72 H 36.943466 29.737494 56.732049 0
M  V30 73 H 37.392525 26.673884 57.242338 0
M  V30 74 H 37.480729 24.934631 56.929739 0
M  V30 75 H 37.600358 25.546375 58.567753 0
M  V30 76 H 39.175406 29.312306 59.752921 0
M  V30 77 H 37.683809 28.634921 59.155749 0
M  V30 78 H 36.935888 31.824607 61.087232 0
M  V30 79 H 36.761477 30.197635 61.201047 0
M  V30 80 H 36.087435 31.161961 58.312688 0
M  V30 END ATOM
M  V30 BEGIN BOND
M  V30 1 1 7 3
M  V30 2 1 11 5
M  V30 3 1 13 1
M  V30 4 1 13 4
M  V30 5 2 14 10
M  V30 6 1 14 11
M  V30 7 1 15 12
M  V30 8 1 16 8
M  V30 9 1 16 15
M  V30 10 1 17 3
M  V30 11 1 19 5
M  V30 12 1 19 11
M  V30 13 1 21 2
M  V30 14 1 21 16
M  V30 15 2 22 13
M  V30 16 1 23 22
M  V30 17 1 24 2
M  V30 18 1 24 6
M  V30 19 2 24 8
M  V30 20 1 25 9
M  V30 21 2 25 15
M  V30 22 1 26 12
M  V30 23 1 27 14
M  V30 24 1 27 20
M  V30 25 1 28 18
M  V30 26 1 29 1
M  V30 27 1 29 20
M  V30 28 1 29 27
M  V30 29 1 31 17
M  V30 30 1 31 30
M  V30 31 1 32 7
M  V30 32 1 32 25
M  V30 33 1 32 26
M  V30 34 1 33 31
M  V30 35 1 34 7
M  V30 36 1 34 28
M  V30 37 1 35 23
M  V30 38 1 35 28
M  V30 39 1 36 8
M  V30 40 2 36 9
M  V30 41 1 37 1
M  V30 42 1 38 1
M  V30 43 1 39 2
M  V30 44 1 40 2
M  V30 45 1 41 3
M  V30 46 1 42 3
M  V30 47 1 43 4
M  V30 48 1 44 4
M  V30 49 1 45 4
M  V30 50 1 46 5
M  V30 51 1 47 5
M  V30 52 1 48 6
M  V30 53 1 49 6
M  V30 54 1 50 6
M  V30 55 1 7 51 CFG=1
M  V30 56 1 52 9
M  V30 57 1 53 11
M  V30 58 1 54 12
M  V30 59 1 55 12
M  V30 60 1 56 17
M  V30 61 1 57 17
M  V30 62 1 58 19
M  V30 63 1 59 19
M  V30 64 1 60 20
M  V30 65 1 61 21
M  V30 66 1 62 23
M  V30 67 1 63 23
M  V30 68 1 64 26
M  V30 69 1 65 26
M  V30 70 1 28 66 CFG=3
M  V30 71 1 29 67 CFG=3
M  V30 72 1 68 30
M  V30 73 1 69 30
M  V30 74 1 70 30
M  V30 75 1 71 31
M  V30 76 1 32 72 CFG=1
M  V30 77 1 73 33
M  V30 78 1 74 33
M  V30 79 1 75 33
M  V30 80 1 76 34
M  V30 81 1 77 34
M  V30 82 1 78 35
M  V30 83 1 79 35
M  V30 84 1 80 18
M  V30 END BOND
M  V30 END CTAB
M  END
>  <i_epik_Tot_Q>  (1) 
1

>  <i_epik_Tot_abs_Q>  (1) 
1

>  <i_i_glide_confnum>  (1) 
2846

>  <i_i_glide_lignum>  (1) 
137

>  <i_i_glide_posenum>  (1) 
334

>  <i_i_glide_rotatable_bonds>  (1) 
14

>  <i_lp_mmshare_version>  (1) 
72125

>  <i_m_source_file_index>  (1) 
63

>  <i_f3d_flags>  (1) 
0

>  <num_sample>  (1) 
100

>  <b_lp_Chiralities_Consistent>  (1) 
1

>  <r_epik_Charging_Adjusted_Penalty>  (1) 
1.9108014557952604

>  <r_epik_Ionization_Penalty>  (1) 
0.8812751426241725

>  <r_epik_Ionization_Penalty_Charging>  (1) 
0.72483633588800112

>  <r_epik_Ionization_Penalty_Neutral>  (1) 
0.15643880673617139

>  <r_epik_State_Penalty>  (1) 
1.1859651199072592

>  <r_glide_ring_energy>  (1) 
0

>  <r_i_docking_score>  (1) 
-6.4487964948381986

>  <r_i_glide_ecoul>  (1) 
-2.825672986233724

>  <r_i_glide_eff_state_penalty>  (1) 
1.1859651199072592

>  <r_i_glide_einternal>  (1) 
7.3601039329281832

>  <r_i_glide_emodel>  (1) 
-72.098811684303158

>  <r_i_glide_emodel_strain>  (1) 
3.4639428664732748

>  <r_i_glide_energy>  (1) 
-54.291850158208078

>  <r_i_glide_erotb>  (1) 
0.98469743448682379

>  <r_i_glide_esite>  (1) 
-0.032526188137017846

>  <r_i_glide_evdw>  (1) 
-51.466177171974351

>  <r_i_glide_gscore>  (1) 
-7.6347616147454582

>  <r_i_glide_gscore_strain>  (1) 
0

>  <r_i_glide_hbond>  (1) 
-0.16

>  <r_i_glide_ligand_efficiency>  (1) 
-0.17913323596772773

>  <r_i_glide_ligand_efficiency_ln>  (1) 
-1.4069531688267398

>  <r_i_glide_ligand_efficiency_sa>  (1) 
-0.59148491302451134

>  <r_i_glide_lipo>  (1) 
-3.4959793627961728

>  <r_i_glide_metal>  (1) 
-0

>  <r_i_glide_rewards>  (1) 
-1.9337936917653145

>  <r_lp_Energy>  (1) 
37.126494999999998

>  <r_lp_tautomer_probability>  (1) 
0.49999399997599986

>  <s_epik_Chemistry_Notes>  (1) 
This compound has an imine and may undergo hydrolysis. This compound contains an acetal/aminal-like group ( X-CH(R)-Y where X, Y are N, S, or O) that may be acid/base labile, releasing an aldehyde.

>  <s_epik_cmdline>  (1) 
J2VwaWtfcHl0aG9uJywgJy1waHQnLCAnMS4wJywgJy1waCcsICc3LjQnLCAnLXRuJywgJzgnLCAnLW1hJywgJzUwMCcsICctaW1hZScsICc8aW5maWxlLm1hZT4nLCAnLW9tYWUnLCAnPG91dGZpbGUubWFlPic=

>  <s_epik_input>  (1) 
W0NIMl0xW0NIMl1bQ0hdMUMoPU8pTjJbTkhdW0NAQEhdMltDSDJdL0MoW0NIM10pPU5cW0NIMl1bTkhdW0NASF0oW09IXSlbQ0gyXVtDQEhdKFtDSDJdW0NIMl1bQ0hdKFtDSDNdKVtDSDNdKVtDQEBIXShbQ0gyXVtDSDJdMylDKFtDSF09TjQpPUMzTihDND01KVtOSF1bQ0gyXUM1W0NIM10=

>  <s_glide_docking_method>  (1) 
confgen

>  <s_i_glide_gridfile>  (1) 
gpcr_5ht2c_6bqh_protein_autoprepared_prepared

>  <s_lp_Force_Field>  (1) 
S-OPLS

>  <s_lp_Variant>  (1) 
DiffSBDD_62-3

>  <s_m_source_file>  (1) 
generated_GPCR_5HT2C_ligand_DiffSBDD_2026-06-23_prepared.sdf

>  <GenAI_Model>  (1) 
DiffSBDD

>  <Protein>  (1) 
GPCR_5HT2C

$$$$
DiffSBDD_75
     RDKit          3D

  0  0  0  0  0  0  0  0  0  0999 V3000
M  V30 BEGIN CTAB
M  V30 COUNTS 77 78 0 0 1
M  V30 BEGIN ATOM
M  V30 1 C 36.758594 33.831400 61.362967 0
M  V30 2 C 33.880455 32.943551 59.412567 0
M  V30 3 O 36.690582 29.715010 57.646482 0
M  V30 4 C 38.308715 35.972016 62.712659 0
M  V30 5 C 39.229556 30.110615 56.084028 0 CFG=2
M  V30 6 C 41.579372 33.230950 63.756060 0
M  V30 7 C 37.870322 29.951883 58.368892 0 CFG=2
M  V30 8 C 41.281498 32.303105 64.774625 0
M  V30 9 O 37.752846 29.685562 54.206931 0
M  V30 10 C 39.519755 28.091409 57.621758 0 CFG=2
M  V30 11 O 41.046552 34.535157 67.690608 0
M  V30 12 S 36.558188 31.336333 60.293863 0
M  V30 13 C 38.702803 37.385348 63.011227 0
M  V30 14 C 41.229804 34.111117 66.408819 0
M  V30 15 C 37.786648 31.354014 58.959884 0
M  V30 16 C 41.738973 32.752829 62.326495 0
M  V30 17 C 41.708403 34.602543 64.068266 0
M  V30 18 O 38.976976 25.884860 56.759130 0
M  V30 19 C 39.612772 27.514374 59.048551 0
M  V30 20 C 39.155009 29.606863 57.561697 0 CFG=1
M  V30 21 O 40.045272 37.556261 62.693971 0
M  V30 22 O 34.676846 33.254286 60.532715 0
M  V30 23 O 38.923719 32.307970 62.458504 0
M  V30 24 C 37.781188 36.479247 60.356143 0
M  V30 25 N 38.520278 35.592016 61.295222 0 CFG=2 CHG=1
M  V30 26 C 39.253968 33.222530 61.708841 0
M  V30 27 C 41.111112 32.742996 66.098024 0
M  V30 28 C 40.731904 33.412848 61.363388 0
M  V30 29 C 38.229416 34.159869 61.014412 0 CFG=1
M  V30 30 C 41.536162 35.039599 65.395171 0
M  V30 31 C 38.624709 27.698656 55.254871 0
M  V30 32 C 36.046562 33.061774 60.274552 0 CFG=1
M  V30 33 C 38.930995 31.609903 55.876614 0
M  V30 34 C 38.587703 27.245943 56.723694 0 CFG=2
M  V30 35 C 38.457314 29.211478 55.096698 0
M  V30 36 H 36.649810 33.320105 62.313915 0
M  V30 37 H 36.178358 34.740745 61.488281 0
M  V30 38 H 32.844760 33.095894 59.693106 0
M  V30 39 H 34.109140 33.596689 58.569895 0
M  V30 40 H 34.029871 31.906177 59.112723 0
M  V30 41 H 36.279918 30.537752 57.365016 0
M  V30 42 H 37.256887 35.916283 62.969553 0
M  V30 43 H 38.868402 35.314821 63.371122 0
M  V30 44 H 37.823814 29.296024 59.232815 0
M  V30 45 H 41.180895 31.254578 64.536659 0
M  V30 46 H 39.578367 27.423743 54.805618 0
M  V30 47 H 40.526508 28.011969 57.210021 0
M  V30 48 H 40.793406 33.840540 68.277210 0
M  V30 49 H 38.105466 38.059574 62.397232 0
M  V30 50 H 38.538694 37.620891 64.063670 0
M  V30 51 H 37.510150 32.084921 58.201604 0
M  V30 52 H 38.751270 31.654689 59.363230 0
M  V30 53 H 42.763394 32.937715 61.996801 0
M  V30 54 H 41.616031 31.669494 62.294379 0
M  V30 55 H 41.937517 35.316167 63.290064 0
M  V30 56 H 39.895594 25.822612 56.545575 0
M  V30 57 H 38.634794 27.364734 59.504337 0
M  V30 58 H 40.079186 26.533161 59.022209 0
M  V30 59 H 40.204011 28.152510 59.704676 0
M  V30 60 H 39.962064 30.110886 58.088844 0
M  V30 61 H 40.545545 37.727514 63.485320 0
M  V30 62 H 36.749729 36.641793 60.667091 0
M  V30 63 H 38.248175 37.457951 60.273978 0
M  V30 64 H 37.730591 36.043528 59.366625 0
M  V30 65 H 40.877267 32.028148 66.873759 0
M  V30 66 H 40.951510 34.473718 61.253795 0
M  V30 67 H 40.839652 32.937868 60.390754 0
M  V30 68 H 38.371175 34.023154 59.941078 0
M  V30 69 H 41.630212 36.090195 65.633751 0
M  V30 70 H 37.847609 27.186132 54.686450 0
M  V30 71 H 40.270613 29.987785 55.786745 0
M  V30 72 H 36.281315 33.516157 59.311234 0
M  V30 73 H 39.256443 31.921094 54.884371 0
M  V30 74 H 37.867961 31.842297 55.948359 0
M  V30 75 H 39.461020 32.225401 56.602416 0
M  V30 76 H 37.564267 27.294640 57.095889 0
M  V30 77 H 39.505065 35.736846 61.120163 0
M  V30 END ATOM
M  V30 BEGIN BOND
M  V30 1 1 7 3
M  V30 2 1 8 6
M  V30 3 1 13 4
M  V30 4 1 14 11
M  V30 5 1 15 7
M  V30 6 1 15 12
M  V30 7 1 16 6
M  V30 8 2 17 6
M  V30 9 1 19 10
M  V30 10 1 20 5
M  V30 11 1 20 7
M  V30 12 1 20 10
M  V30 13 1 21 13
M  V30 14 1 22 2
M  V30 15 1 25 4
M  V30 16 1 25 24
M  V30 17 2 26 23
M  V30 18 2 27 8
M  V30 19 1 27 14
M  V30 20 1 28 16
M  V30 21 1 28 26
M  V30 22 1 29 1
M  V30 23 1 29 25
M  V30 24 1 29 26
M  V30 25 2 30 14
M  V30 26 1 30 17
M  V30 27 1 32 1
M  V30 28 1 32 12
M  V30 29 1 32 22
M  V30 30 1 33 5
M  V30 31 1 34 10
M  V30 32 1 34 18
M  V30 33 1 34 31
M  V30 34 1 35 5
M  V30 35 2 35 9
M  V30 36 1 35 31
M  V30 37 1 36 1
M  V30 38 1 37 1
M  V30 39 1 38 2
M  V30 40 1 39 2
M  V30 41 1 40 2
M  V30 42 1 41 3
M  V30 43 1 42 4
M  V30 44 1 43 4
M  V30 45 1 7 44 CFG=1
M  V30 46 1 45 8
M  V30 47 1 46 31
M  V30 48 1 10 47 CFG=3
M  V30 49 1 48 11
M  V30 50 1 49 13
M  V30 51 1 50 13
M  V30 52 1 51 15
M  V30 53 1 52 15
M  V30 54 1 53 16
M  V30 55 1 54 16
M  V30 56 1 55 17
M  V30 57 1 56 18
M  V30 58 1 57 19
M  V30 59 1 58 19
M  V30 60 1 59 19
M  V30 61 1 20 60 CFG=1
M  V30 62 1 61 21
M  V30 63 1 62 24
M  V30 64 1 63 24
M  V30 65 1 64 24
M  V30 66 1 65 27
M  V30 67 1 66 28
M  V30 68 1 67 28
M  V30 69 1 29 68 CFG=3
M  V30 70 1 69 30
M  V30 71 1 70 31
M  V30 72 1 5 71 CFG=3
M  V30 73 1 32 72 CFG=3
M  V30 74 1 73 33
M  V30 75 1 74 33
M  V30 76 1 75 33
M  V30 77 1 34 76 CFG=1
M  V30 78 1 25 77 CFG=3
M  V30 END BOND
M  V30 END CTAB
M  END
>  <i_epik_Tot_Q>  (1) 
1

>  <i_epik_Tot_abs_Q>  (1) 
1

>  <i_i_glide_confnum>  (1) 
5506

>  <i_i_glide_lignum>  (1) 
165

>  <i_i_glide_posenum>  (1) 
250

>  <i_i_glide_rotatable_bonds>  (1) 
18

>  <i_lp_mmshare_version>  (1) 
72125

>  <i_m_source_file_index>  (1) 
76

>  <i_f3d_flags>  (1) 
0

>  <num_sample>  (1) 
100

>  <b_lp_Chiralities_Consistent>  (1) 
1

>  <r_epik_Charging_Adjusted_Penalty>  (1) 
0.52789471212939676

>  <r_epik_Ionization_Penalty>  (1) 
0.26592108790513191

>  <r_epik_Ionization_Penalty_Charging>  (1) 
0.26394735606469838

>  <r_epik_Ionization_Penalty_Neutral>  (1) 
0.0019737318404335234

>  <r_epik_State_Penalty>  (1) 
0.26394735606469838

>  <r_glide_ring_energy>  (1) 
0

>  <r_i_docking_score>  (1) 
-6.4414094574149843

>  <r_i_glide_ecoul>  (1) 
-9.472865408237606

>  <r_i_glide_eff_state_penalty>  (1) 
0.26394735606469838

>  <r_i_glide_einternal>  (1) 
15.204101218333605

>  <r_i_glide_emodel>  (1) 
-63.341458625820181

>  <r_i_glide_emodel_strain>  (1) 
2.4427269589753706

>  <r_i_glide_energy>  (1) 
-48.591033438058943

>  <r_i_glide_erotb>  (1) 
1.0139394581015995

>  <r_i_glide_esite>  (1) 
0

>  <r_i_glide_evdw>  (1) 
-39.118168029821334

>  <r_i_glide_gscore>  (1) 
-6.7053568134796828

>  <r_i_glide_gscore_strain>  (1) 
0

>  <r_i_glide_hbond>  (1) 
-0.45599999999999996

>  <r_i_glide_ligand_efficiency>  (1) 
-0.1840402702118567

>  <r_i_glide_ligand_efficiency_ln>  (1) 
-1.4140323352830488

>  <r_i_glide_ligand_efficiency_sa>  (1) 
-0.60200792760800914

>  <r_i_glide_lipo>  (1) 
-3.1310664936156232

>  <r_i_glide_metal>  (1) 
-0

>  <r_i_glide_rewards>  (1) 
-0.75539156523895112

>  <r_lp_Energy>  (1) 
36.415389999999995

>  <r_lp_tautomer_probability>  (1) 
0.99989998499911525

>  <s_epik_Chemistry_Notes>  (1) 
This compound contains an acetal/aminal-like group ( X-CH(R)-Y where X, Y are N, S, or O) that may be acid/base labile, releasing an aldehyde.

>  <s_epik_cmdline>  (1) 
J2VwaWtfcHl0aG9uJywgJy1waHQnLCAnMS4wJywgJy1waCcsICc3LjQnLCAnLXRuJywgJzgnLCAnLW1hJywgJzUwMCcsICctaW1hZScsICc8aW5maWxlLm1hZT4nLCAnLW9tYWUnLCAnPG91dGZpbGUubWFlPic=

>  <s_epik_input>  (1) 
W2NIXTFbY0hdYyhbT0hdKVtjSF1bY0hdYzFbQ0gyXVtDSDJdQyg9TylbQ0BIXShOKFtDSDNdKVtDSDJdW0NIMl1bT0hdKVtDSDJdW0NASF0oT1tDSDNdKVNbQ0gyXVtDQEBIXShbT0hdKVtDQEhdMltDQEBIXShbQ0gzXSlbQ0BIXShbT0hdKVtDSDJdQyhbT0hdKT1DMltDSDNd

>  <s_glide_docking_method>  (1) 
confgen

>  <s_i_glide_gridfile>  (1) 
gpcr_5ht2c_6bqh_protein_autoprepared_prepared

>  <s_lp_Force_Field>  (1) 
S-OPLS

>  <s_lp_Variant>  (1) 
DiffSBDD_75-2

>  <s_m_source_file>  (1) 
generated_GPCR_5HT2C_ligand_DiffSBDD_2026-06-23_prepared.sdf

>  <GenAI_Model>  (1) 
DiffSBDD

>  <Protein>  (1) 
GPCR_5HT2C

$$$$
DiffSBDD_78
     RDKit          3D

  0  0  0  0  0  0  0  0  0  0999 V3000
M  V30 BEGIN CTAB
M  V30 COUNTS 104 109 0 0 1
M  V30 BEGIN ATOM
M  V30 1 O 40.290384 28.913859 51.767604 0
M  V30 2 C 37.419850 35.171567 60.345524 0
M  V30 3 C 41.203432 30.539507 62.099511 0 CFG=1
M  V30 4 C 36.845049 29.894235 54.550777 0
M  V30 5 O 38.845293 33.337762 56.145834 0
M  V30 6 C 37.859632 32.896118 61.587712 0 CFG=2
M  V30 7 C 38.984645 28.367640 51.920512 0
M  V30 8 O 39.037655 28.911328 54.326670 0
M  V30 9 C 37.310832 34.292623 61.538077 0 CFG=1
M  V30 10 O 39.960126 25.117094 57.411864 0
M  V30 11 C 43.869168 32.499071 68.169931 0
M  V30 12 N 39.922546 31.194573 62.082214 0
M  V30 13 N 38.619042 33.986042 62.167655 0
M  V30 14 C 45.510722 31.735132 66.610404 0
M  V30 15 C 38.517056 36.202390 60.360164 0
M  V30 16 C 41.540791 29.537691 63.182129 0 CFG=1
M  V30 17 N 39.433091 31.150796 60.746005 0
M  V30 18 C 40.331280 30.137727 51.041720 0
M  V30 19 C 38.452288 32.173850 60.395158 0 CFG=1
M  V30 20 C 44.091863 31.717609 66.124215 0
M  V30 21 C 37.868762 30.984593 58.218210 0
M  V30 22 C 38.344837 30.140660 54.343089 0 CFG=2
M  V30 23 C 39.097452 28.785353 60.329788 0
M  V30 24 C 41.707043 32.254548 66.826433 0
M  V30 25 C 39.538624 32.337953 55.409541 0
M  V30 26 C 38.689077 27.933556 53.372492 0 CFG=2
M  V30 27 C 39.979785 28.227503 61.445029 0
M  V30 28 C 40.038365 29.945200 49.552422 0
M  V30 29 O 36.652449 35.075084 59.391793 0
M  V30 30 C 37.646528 31.043430 59.708311 0
M  V30 31 C 43.219942 32.136235 66.977607 0
M  V30 32 C 36.128063 31.054871 59.893954 0
M  V30 33 C 38.590157 25.924715 54.947907 0
M  V30 34 C 39.902163 34.440819 61.616464 0
M  V30 35 C 41.127221 31.572934 65.574356 0
M  V30 36 C 41.170553 30.036477 65.657772 0
M  V30 37 O 45.245477 32.264941 67.993778 0
M  V30 38 N 39.549888 26.909072 58.860798 0
M  V30 39 S 38.241094 26.918750 56.463610 0
M  V30 40 C 38.914082 28.133808 59.150847 0
M  V30 41 C 38.966255 30.923828 55.513048 0
M  V30 42 C 39.393292 26.174395 57.664605 0
M  V30 43 C 39.847762 35.440183 60.464340 0
M  V30 44 C 40.641064 29.349503 64.393115 0
M  V30 45 O 43.336470 32.939342 69.187150 0
M  V30 46 C 38.429531 30.119628 60.663656 0 CFG=2
M  V30 47 C 41.208177 29.049825 61.782194 0 CFG=1
M  V30 48 C 39.418830 26.700110 53.887221 0
M  V30 49 H 42.044916 31.138547 61.769173 0
M  V30 50 H 36.257145 30.813941 54.577323 0
M  V30 51 H 36.689312 29.373323 55.487028 0
M  V30 52 H 36.445184 29.313031 53.734758 0
M  V30 53 H 37.916379 33.275764 55.963251 0
M  V30 54 H 37.372205 32.243177 62.307944 0
M  V30 55 H 38.870377 27.521423 51.241741 0
M  V30 56 H 38.220404 29.084887 51.620409 0
M  V30 57 H 36.444923 34.482111 62.167836 0
M  V30 58 H 39.994230 32.155389 62.413605 0
M  V30 59 H 46.123179 32.421982 66.026766 0
M  V30 60 H 38.386001 36.834577 61.238615 0
M  V30 61 H 38.444986 36.848604 59.487400 0
M  V30 62 H 42.596724 29.443032 63.429542 0
M  V30 63 H 39.645708 30.861068 51.476726 0
M  V30 64 H 41.316333 30.585155 51.144512 0
M  V30 65 H 38.874179 32.842441 59.643518 0
M  V30 66 H 43.850808 31.375213 65.128634 0
M  V30 67 H 38.921669 30.801968 58.006459 0
M  V30 68 H 37.590800 31.934456 57.766565 0
M  V30 69 H 37.258425 30.227832 57.726024 0
M  V30 70 H 38.507750 30.662248 53.400534 0
M  V30 71 H 41.455911 33.315744 66.811129 0
M  V30 72 H 41.226914 31.844227 67.715955 0
M  V30 73 H 39.528779 32.538824 54.344774 0
M  V30 74 H 40.565333 32.388367 55.768300 0
M  V30 75 H 37.633798 27.673725 53.403586 0
M  V30 76 H 39.358091 28.098828 62.327415 0
M  V30 77 H 40.381936 27.263182 61.188326 0
M  V30 78 H 40.930871 29.659824 48.994938 0
M  V30 79 H 39.645471 30.873962 49.138044 0
M  V30 80 H 39.285369 29.178415 49.379214 0
M  V30 81 H 45.955235 30.739853 66.625341 0
M  V30 82 H 35.674897 30.162759 59.462065 0
M  V30 83 H 35.671862 31.919640 59.410909 0
M  V30 84 H 35.844518 31.078862 60.945220 0
M  V30 85 H 39.069047 24.975198 55.180531 0
M  V30 86 H 37.626000 25.647124 54.520044 0
M  V30 87 H 40.385078 34.949243 62.450178 0
M  V30 88 H 40.572528 33.617364 61.374924 0
M  V30 89 H 40.089124 31.886232 65.451319 0
M  V30 90 H 41.647959 31.929744 64.686088 0
M  V30 91 H 42.182974 29.684589 65.858402 0
M  V30 92 H 40.566290 29.714161 66.508641 0
M  V30 93 H 40.173099 26.521847 59.551985 0
M  V30 94 H 38.288816 28.505837 58.369023 0
M  V30 95 H 38.077119 31.519985 55.355021 0
M  V30 96 H 39.923271 30.708889 55.034135 0
M  V30 97 H 40.044635 34.872089 59.558662 0
M  V30 98 H 40.680291 36.138116 60.568588 0
M  V30 99 H 39.645653 29.737119 64.179521 0
M  V30 100 H 40.544100 28.279448 64.580575 0
M  V30 101 H 37.923800 30.081246 61.627099 0
M  V30 102 H 42.044587 28.645675 61.237698 0
M  V30 103 H 39.629544 26.135680 52.995478 0
M  V30 104 H 40.395425 26.937272 54.307633 0
M  V30 END ATOM
M  V30 BEGIN BOND
M  V30 1 1 7 1
M  V30 2 1 9 2
M  V30 3 1 9 6
M  V30 4 1 12 3
M  V30 5 1 13 6
M  V30 6 1 13 9
M  V30 7 1 15 2
M  V30 8 1 16 3
M  V30 9 1 17 12
M  V30 10 1 18 1
M  V30 11 1 19 6
M  V30 12 1 19 17
M  V30 13 1 20 14
M  V30 14 1 22 4
M  V30 15 1 22 8
M  V30 16 1 25 5
M  V30 17 1 26 7
M  V30 18 1 26 8
M  V30 19 1 27 23
M  V30 20 1 28 18
M  V30 21 2 29 2
M  V30 22 1 30 19
M  V30 23 1 30 21
M  V30 24 1 31 11
M  V30 25 2 31 20
M  V30 26 1 31 24
M  V30 27 1 32 30
M  V30 28 1 34 13
M  V30 29 1 35 24
M  V30 30 1 36 35
M  V30 31 1 37 11
M  V30 32 1 37 14
M  V30 33 1 39 33
M  V30 34 2 40 23
M  V30 35 1 40 38
M  V30 36 1 41 22
M  V30 37 1 41 25
M  V30 38 2 42 10
M  V30 39 1 42 38
M  V30 40 1 42 39
M  V30 41 1 43 15
M  V30 42 1 43 34
M  V30 43 1 44 16
M  V30 44 1 44 36
M  V30 45 2 45 11
M  V30 46 1 46 17
M  V30 47 1 46 23
M  V30 48 1 46 30
M  V30 49 1 47 3
M  V30 50 1 47 16
M  V30 51 1 47 27
M  V30 52 1 48 26
M  V30 53 1 48 33
M  V30 54 1 3 49 CFG=3
M  V30 55 1 50 4
M  V30 56 1 51 4
M  V30 57 1 52 4
M  V30 58 1 53 5
M  V30 59 1 6 54 CFG=1
M  V30 60 1 55 7
M  V30 61 1 56 7
M  V30 62 1 9 57 CFG=1
M  V30 63 1 58 12
M  V30 64 1 59 14
M  V30 65 1 60 15
M  V30 66 1 61 15
M  V30 67 1 16 62 CFG=1
M  V30 68 1 63 18
M  V30 69 1 64 18
M  V30 70 1 19 65 CFG=3
M  V30 71 1 66 20
M  V30 72 1 67 21
M  V30 73 1 68 21
M  V30 74 1 69 21
M  V30 75 1 22 70 CFG=3
M  V30 76 1 71 24
M  V30 77 1 72 24
M  V30 78 1 73 25
M  V30 79 1 74 25
M  V30 80 1 26 75 CFG=3
M  V30 81 1 76 27
M  V30 82 1 77 27
M  V30 83 1 78 28
M  V30 84 1 79 28
M  V30 85 1 80 28
M  V30 86 1 81 14
M  V30 87 1 82 32
M  V30 88 1 83 32
M  V30 89 1 84 32
M  V30 90 1 85 33
M  V30 91 1 86 33
M  V30 92 1 87 34
M  V30 93 1 88 34
M  V30 94 1 89 35
M  V30 95 1 90 35
M  V30 96 1 91 36
M  V30 97 1 92 36
M  V30 98 1 93 38
M  V30 99 1 94 40
M  V30 100 1 95 41
M  V30 101 1 96 41
M  V30 102 1 97 43
M  V30 103 1 98 43
M  V30 104 1 99 44
M  V30 105 1 100 44
M  V30 106 1 46 101 CFG=1
M  V30 107 1 47 102 CFG=3
M  V30 108 1 103 48
M  V30 109 1 104 48
M  V30 END BOND
M  V30 END CTAB
M  END
>  <i_epik_Tot_Q>  (1) 
0

>  <i_epik_Tot_abs_Q>  (1) 
0

>  <i_i_glide_confnum>  (1) 
3396

>  <i_i_glide_lignum>  (1) 
183

>  <i_i_glide_posenum>  (1) 
336

>  <i_i_glide_rotatable_bonds>  (1) 
20

>  <i_lp_mmshare_version>  (1) 
72125

>  <i_m_source_file_index>  (1) 
79

>  <i_f3d_flags>  (1) 
0

>  <num_sample>  (1) 
100

>  <b_lp_Chiralities_Consistent>  (1) 
1

>  <r_epik_Charging_Adjusted_Penalty>  (1) 
0.92354502945683503

>  <r_epik_Ionization_Penalty>  (1) 
0.93156090309964268

>  <r_epik_Ionization_Penalty_Charging>  (1) 
0

>  <r_epik_Ionization_Penalty_Neutral>  (1) 
0.93156090309964268

>  <r_epik_State_Penalty>  (1) 
0.92354502945683503

>  <r_glide_ring_energy>  (1) 
0

>  <r_i_docking_score>  (1) 
-6.4395463913188271

>  <r_i_glide_ecoul>  (1) 
-0.55338952319939483

>  <r_i_glide_eff_state_penalty>  (1) 
0.92354502945683503

>  <r_i_glide_einternal>  (1) 
13.663682151705004

>  <r_i_glide_emodel>  (1) 
-44.224565596610944

>  <r_i_glide_emodel_strain>  (1) 
4.0883097007510685

>  <r_i_glide_energy>  (1) 
-47.020909129065778

>  <r_i_glide_erotb>  (1) 
0.59596673808410561

>  <r_i_glide_esite>  (1) 
0

>  <r_i_glide_evdw>  (1) 
-46.467519605866386

>  <r_i_glide_gscore>  (1) 
-7.3630914207756621

>  <r_i_glide_gscore_strain>  (1) 
0.022077425187767119

>  <r_i_glide_hbond>  (1) 
-0.009442947649227906

>  <r_i_glide_ligand_efficiency>  (1) 
-0.13415721648580889

>  <r_i_glide_ligand_efficiency_ln>  (1) 
-1.3219627719938063

>  <r_i_glide_ligand_efficiency_sa>  (1) 
-0.48755968150680556

>  <r_i_glide_lipo>  (1) 
-4.4406048571180454

>  <r_i_glide_metal>  (1) 
-0

>  <r_i_glide_rewards>  (1) 
-1.1247033705070331

>  <r_lp_Energy>  (1) 
40.557254

>  <r_lp_tautomer_probability>  (1) 
0.99984117342658263

>  <s_epik_Chemistry_Notes>  (1) 
This compound has an ester and may undergo hydrolysis at high or low pH.

>  <s_epik_cmdline>  (1) 
J2VwaWtfcHl0aG9uJywgJy1waHQnLCAnMS4wJywgJy1waCcsICc3LjQnLCAnLXRuJywgJzgnLCAnLW1hJywgJzUwMCcsICctaW1hZScsICc8aW5maWxlLm1hZT4nLCAnLW9tYWUnLCAnPG91dGZpbGUubWFlPic=

>  <s_epik_input>  (1) 
W09IXVtDSDJdW0NIMl1bQ0BIXShbQ0gzXSlPW0NAQEhdKFtDSDJdT1tDSDJdW0NIM10pW0NIMl1bQ0gyXVNDKD1PKVtOSF0vW0NIXT1DKFtDQEhdMU4oW05IXTIpW0NAQEhdKEMxKFtDSDNdKVtDSDNdKVtDQEhdM04oW0NASF0zNClbQ0gyXVtDSDJdW0NIMl1DND1PKVxbQ0gyXVtDQEBIXShbQ0BASF0yNSlbQ0BASF01W0NIMl1bQ0gyXVtDSDJdW0NIMl1bQ0BASF0oQzY9TylbQ0hdPVtDSF1PNg==

>  <s_glide_docking_method>  (1) 
confgen

>  <s_i_glide_gridfile>  (1) 
gpcr_5ht2c_6bqh_protein_autoprepared_prepared

>  <s_lp_Force_Field>  (1) 
S-OPLS

>  <s_lp_Variant>  (1) 
DiffSBDD_78-5

>  <s_m_source_file>  (1) 
generated_GPCR_5HT2C_ligand_DiffSBDD_2026-06-23_prepared.sdf

>  <GenAI_Model>  (1) 
DiffSBDD

>  <Protein>  (1) 
GPCR_5HT2C

$$$$
DiffSBDD_50
     RDKit          3D

  0  0  0  0  0  0  0  0  0  0999 V3000
M  V30 BEGIN CTAB
M  V30 COUNTS 66 69 0 0 1
M  V30 BEGIN ATOM
M  V30 1 C 38.612259 29.570989 58.492121 0 CFG=2
M  V30 2 F 39.644707 31.649680 54.157253 0
M  V30 3 C 37.985392 32.009845 61.124814 0
M  V30 4 O 40.391441 29.354129 61.569259 0
M  V30 5 O 36.829096 35.341323 61.767357 0
M  V30 6 O 38.463926 33.089813 61.844430 0
M  V30 7 S 36.251312 30.521994 59.765381 0
M  V30 8 C 37.589680 28.805156 57.580628 0
M  V30 9 C 40.408153 34.521882 61.464960 0 CFG=2
M  V30 10 O 38.973757 26.318208 57.049743 0
M  V30 11 C 38.174512 35.499605 61.408295 0 CFG=1
M  V30 12 C 41.333345 35.949441 63.384248 0
M  V30 13 C 40.440626 28.298007 57.176258 0
M  V30 14 C 38.107211 28.370401 56.185761 0 CFG=2
M  V30 15 C 39.994837 30.375644 52.161790 0
M  V30 16 C 40.133653 30.708285 61.263212 0
M  V30 17 C 39.380409 27.510187 56.385285 0 CFG=2
M  V30 18 C 39.975627 25.322096 57.142243 0
M  V30 19 F 38.969819 26.944547 51.350390 0
M  V30 20 C 38.632762 28.212173 53.352352 0
M  V30 21 C 40.388377 35.860340 62.200898 0 CFG=2
M  V30 22 C 39.928577 28.756449 58.550473 0
M  V30 23 C 39.819027 29.176336 51.446248 0
M  V30 24 C 38.941321 36.155592 62.545847 0
M  V30 25 C 38.022153 29.854729 59.922998 0 CFG=2
M  V30 26 C 38.812546 29.420577 54.074846 0
M  V30 27 C 38.944441 34.189917 61.076413 0 CFG=2
M  V30 28 C 38.700803 30.938139 60.801751 0
M  V30 29 N 38.332634 29.579032 55.392308 0
M  V30 30 C 39.484891 30.496452 53.471141 0
M  V30 31 C 39.137550 28.095723 52.039615 0
M  V30 32 O 38.907241 33.975159 59.681985 0
M  V30 33 O 35.822084 32.878050 60.861679 0
M  V30 34 O 41.067730 33.498713 62.176966 0
M  V30 35 C 36.648566 31.994332 60.661827 0
M  V30 36 H 38.822482 30.529368 58.016664 0
M  V30 37 H 39.864149 29.110027 62.317459 0
M  V30 38 H 36.445712 36.195219 61.892655 0
M  V30 39 H 37.238577 27.921747 58.112405 0
M  V30 40 H 36.704804 29.413690 57.400336 0
M  V30 41 H 40.963932 34.744203 60.567765 0
M  V30 42 H 38.229412 36.157969 60.538621 0
M  V30 43 H 41.097522 35.238091 64.176784 0
M  V30 44 H 42.376990 35.839352 63.096000 0
M  V30 45 H 41.194409 36.937574 63.767631 0
M  V30 46 H 40.723141 29.167515 56.589992 0
M  V30 47 H 41.358974 27.722041 57.285753 0
M  V30 48 H 37.315532 27.786291 55.705959 0
M  V30 49 H 40.514777 31.206450 51.706325 0
M  V30 50 H 40.271254 31.223497 62.210569 0
M  V30 51 H 40.863050 31.105581 60.567738 0
M  V30 52 H 39.812019 27.219953 55.428192 0
M  V30 53 H 39.534057 24.401031 57.519824 0
M  V30 54 H 40.419019 25.104616 56.170040 0
M  V30 55 H 40.760371 25.617098 57.838185 0
M  V30 56 H 38.111016 27.380991 53.797125 0
M  V30 57 H 40.695803 36.626366 61.486198 0
M  V30 58 H 40.721869 29.340390 59.009614 0
M  V30 59 H 39.786200 27.877710 59.181595 0
M  V30 60 H 40.204966 29.085544 50.441834 0
M  V30 61 H 38.679045 35.737656 63.513021 0
M  V30 62 H 38.750127 37.227910 62.608926 0
M  V30 63 H 38.044776 28.915162 60.464149 0
M  V30 64 H 38.562278 30.431888 55.883990 0
M  V30 65 H 39.521213 33.287858 59.478858 0
M  V30 66 H 40.567694 33.325269 62.961383 0
M  V30 END ATOM
M  V30 BEGIN BOND
M  V30 1 1 6 3
M  V30 2 1 8 1
M  V30 3 1 11 5
M  V30 4 1 14 8
M  V30 5 1 16 4
M  V30 6 1 17 10
M  V30 7 1 17 13
M  V30 8 1 17 14
M  V30 9 1 18 10
M  V30 10 1 21 9
M  V30 11 1 21 12
M  V30 12 1 22 1
M  V30 13 1 22 13
M  V30 14 2 23 15
M  V30 15 1 24 11
M  V30 16 1 24 21
M  V30 17 1 25 1
M  V30 18 1 25 7
M  V30 19 1 26 20
M  V30 20 1 27 6 CFG=1
M  V30 21 1 27 9
M  V30 22 1 27 11
M  V30 23 2 28 3
M  V30 24 1 28 16
M  V30 25 1 28 25
M  V30 26 1 29 14
M  V30 27 1 29 26
M  V30 28 1 30 2
M  V30 29 1 30 15
M  V30 30 2 30 26
M  V30 31 1 31 19
M  V30 32 2 31 20
M  V30 33 1 31 23
M  V30 34 1 32 27
M  V30 35 1 34 9
M  V30 36 1 35 3
M  V30 37 1 35 7
M  V30 38 2 35 33
M  V30 39 1 1 36 CFG=3
M  V30 40 1 37 4
M  V30 41 1 38 5
M  V30 42 1 39 8
M  V30 43 1 40 8
M  V30 44 1 9 41 CFG=3
M  V30 45 1 11 42 CFG=3
M  V30 46 1 43 12
M  V30 47 1 44 12
M  V30 48 1 45 12
M  V30 49 1 46 13
M  V30 50 1 47 13
M  V30 51 1 14 48 CFG=3
M  V30 52 1 49 15
M  V30 53 1 50 16
M  V30 54 1 51 16
M  V30 55 1 17 52 CFG=3
M  V30 56 1 53 18
M  V30 57 1 54 18
M  V30 58 1 55 18
M  V30 59 1 56 20
M  V30 60 1 21 57 CFG=3
M  V30 61 1 58 22
M  V30 62 1 59 22
M  V30 63 1 60 23
M  V30 64 1 61 24
M  V30 65 1 62 24
M  V30 66 1 25 63 CFG=1
M  V30 67 1 64 29
M  V30 68 1 65 32
M  V30 69 1 66 34
M  V30 END BOND
M  V30 END CTAB
M  END
>  <i_epik_Tot_Q>  (1) 
0

>  <i_epik_Tot_abs_Q>  (1) 
0

>  <i_i_glide_confnum>  (1) 
171

>  <i_i_glide_lignum>  (1) 
104

>  <i_i_glide_posenum>  (1) 
340

>  <i_i_glide_rotatable_bonds>  (1) 
11

>  <i_lp_mmshare_version>  (1) 
72125

>  <i_m_source_file_index>  (1) 
51

>  <i_f3d_flags>  (1) 
0

>  <num_sample>  (1) 
100

>  <b_lp_Chiralities_Consistent>  (1) 
1

>  <r_epik_Charging_Adjusted_Penalty>  (1) 
0.32088234562257889

>  <r_epik_Ionization_Penalty>  (1) 
0.32096673837562456

>  <r_epik_Ionization_Penalty_Charging>  (1) 
0

>  <r_epik_Ionization_Penalty_Neutral>  (1) 
0.32096673837562456

>  <r_epik_State_Penalty>  (1) 
0.32088234562257889

>  <r_glide_ring_energy>  (1) 
0

>  <r_i_docking_score>  (1) 
-6.4317110045819179

>  <r_i_glide_ecoul>  (1) 
-0.37071402910973672

>  <r_i_glide_eff_state_penalty>  (1) 
0.32088234562257889

>  <r_i_glide_einternal>  (1) 
4.1884534508427436

>  <r_i_glide_emodel>  (1) 
-51.508440348010403

>  <r_i_glide_emodel_strain>  (1) 
5.9039878181956595

>  <r_i_glide_energy>  (1) 
-42.298337979773606

>  <r_i_glide_erotb>  (1) 
0.46316945766964901

>  <r_i_glide_esite>  (1) 
-0.045416794476064754

>  <r_i_glide_evdw>  (1) 
-41.927623950663872

>  <r_i_glide_gscore>  (1) 
-6.7525933502044966

>  <r_i_glide_gscore_strain>  (1) 
0.47599695454891489

>  <r_i_glide_hbond>  (1) 
-0.014869739556924789

>  <r_i_glide_ligand_efficiency>  (1) 
-0.18376317155948338

>  <r_i_glide_ligand_efficiency_ln>  (1) 
-1.4119033096406273

>  <r_i_glide_ligand_efficiency_sa>  (1) 
-0.60110151954163216

>  <r_i_glide_lipo>  (1) 
-3.9931735971598745

>  <r_i_glide_metal>  (1) 
-0

>  <r_i_glide_rewards>  (1) 
-1.4863113293305414

>  <r_lp_Energy>  (1) 
66.3018

>  <r_lp_tautomer_probability>  (1) 
0.99999998906363929

>  <s_epik_cmdline>  (1) 
J2VwaWtfcHl0aG9uJywgJy1waHQnLCAnMS4wJywgJy1waCcsICc3LjQnLCAnLXRuJywgJzgnLCAnLW1hJywgJzUwMCcsICctaW1hZScsICc8aW5maWxlLm1hZT4nLCAnLW9tYWUnLCAnPG91dGZpbGUubWFlPic=

>  <s_epik_input>  (1) 
W09IXVtDQEhdMVtDSDJdW0NAQEhdKFtDSDNdKVtDQEBIXShbT0hdKVtDQEBdMShbT0hdKU9DMj1DKFtDSDJdW09IXSlbQ0BASF0oU0MyPU8pW0NAQEhdM1tDSDJdW0NASF0oW0NASF0oT1tDSDNdKVtDSDJdW0NIMl0zKVtOSF1jNFtjSF1jKEYpW2NIXVtjSF1jNEY=

>  <s_glide_docking_method>  (1) 
confgen

>  <s_i_glide_gridfile>  (1) 
gpcr_5ht2c_6bqh_protein_autoprepared_prepared

>  <s_lp_Force_Field>  (1) 
S-OPLS

>  <s_lp_Variant>  (1) 
DiffSBDD_50-2

>  <s_m_source_file>  (1) 
generated_GPCR_5HT2C_ligand_DiffSBDD_2026-06-23_prepared.sdf

>  <GenAI_Model>  (1) 
DiffSBDD

>  <Protein>  (1) 
GPCR_5HT2C

$$$$
DiffSBDD_53
     RDKit          3D

  0  0  0  0  0  0  0  0  0  0999 V3000
M  V30 BEGIN CTAB
M  V30 COUNTS 82 86 0 0 1
M  V30 BEGIN ATOM
M  V30 1 C 39.437170 30.886939 55.431192 0
M  V30 2 C 37.135132 33.441686 61.656829 0
M  V30 3 C 41.244079 34.803870 63.024703 0
M  V30 4 C 37.995996 31.444845 55.542712 0
M  V30 5 C 39.773173 32.225125 62.099395 0
M  V30 6 C 40.778411 28.137207 59.985671 0
M  V30 7 C 40.214103 26.421814 55.771129 0
M  V30 8 N 39.573814 29.412866 55.522169 0
M  V30 9 N 42.342219 35.737754 65.655590 0 CHG=1
M  V30 10 C 35.251717 32.277634 59.767757 0
M  V30 11 C 38.973288 28.711425 56.669517 0 CFG=1
M  V30 12 N 37.650652 31.883905 56.914432 0 CHG=1
M  V30 13 C 40.212195 33.271246 61.372720 0
M  V30 14 C 38.604852 31.405634 61.581755 0
M  V30 15 C 39.208044 27.193917 56.611360 0 CFG=1
M  V30 16 C 38.588976 32.826642 59.628335 0 CFG=1
M  V30 17 C 39.466374 29.259112 58.032868 0 CFG=2
M  V30 18 C 41.081513 35.008985 65.474124 0
M  V30 19 O 38.120820 26.438092 57.099388 0
M  V30 20 C 38.251169 33.301648 57.353248 0
M  V30 21 C 35.900873 34.194560 61.188678 0
M  V30 22 C 34.781243 33.211704 60.872977 0
M  V30 23 C 37.657342 32.299446 60.748025 0
M  V30 24 O 37.845949 33.527599 58.673764 0
M  V30 25 C 36.486148 31.453534 60.174698 0
M  V30 26 C 40.827804 28.695213 58.544971 0 CFG=2
M  V30 27 O 38.415636 29.009548 58.940034 0
M  V30 28 C 40.951013 32.711283 64.307186 0
M  V30 29 N 41.411281 27.750296 57.557372 0 CFG=1 CHG=1
M  V30 30 O 39.624660 33.604502 60.166216 0
M  V30 31 C 42.801169 27.337758 57.855970 0
M  V30 32 C 40.480748 26.644402 57.238384 0 CFG=2
M  V30 33 C 40.373479 31.865731 63.395534 0
M  V30 34 C 41.362772 34.132873 61.713274 0
M  V30 35 C 41.102749 34.179087 64.202660 0
M  V30 36 H 40.072184 31.382520 56.160975 0
M  V30 37 H 39.839780 31.197554 54.465833 0
M  V30 38 H 36.845390 32.937768 62.567765 0
M  V30 39 H 37.896562 34.173262 61.921149 0
M  V30 40 H 41.338254 35.880949 63.010331 0
M  V30 41 H 37.873208 32.301925 54.878460 0
M  V30 42 H 37.266828 30.705710 55.209123 0
M  V30 43 H 40.507007 28.915653 60.697312 0
M  V30 44 H 40.045253 27.337762 60.084660 0
M  V30 45 H 41.734579 27.740629 60.314991 0
M  V30 46 H 39.944285 25.412617 55.464801 0
M  V30 47 H 40.831740 26.954767 55.056373 0
M  V30 48 H 39.216437 28.996798 54.664810 0
M  V30 49 H 42.354745 36.163093 66.571477 0
M  V30 50 H 43.121554 35.105189 65.558598 0
M  V30 51 H 35.488129 32.907904 58.916658 0
M  V30 52 H 34.445127 31.627063 59.438584 0
M  V30 53 H 37.894821 28.866656 56.602093 0
M  V30 54 H 36.609460 31.925445 56.967717 0
M  V30 55 H 38.989713 30.576377 60.992497 0
M  V30 56 H 38.075037 30.959062 62.424582 0
M  V30 57 H 39.084509 31.982329 59.164049 0
M  V30 58 H 39.565922 30.333334 57.987020 0
M  V30 59 H 40.257819 35.724120 65.438884 0
M  V30 60 H 40.911709 34.365220 66.338371 0
M  V30 61 H 37.519251 26.268074 56.388204 0
M  V30 62 H 39.336237 33.336018 57.254246 0
M  V30 63 H 37.814014 34.074248 56.719404 0
M  V30 64 H 36.132686 34.808560 60.317419 0
M  V30 65 H 35.612676 34.876258 61.987745 0
M  V30 66 H 33.890672 33.737757 60.536613 0
M  V30 67 H 34.505407 32.654889 61.768121 0
M  V30 68 H 36.806421 30.860303 59.324391 0
M  V30 69 H 36.164172 30.735911 60.929512 0
M  V30 70 H 41.523065 29.532449 58.580563 0
M  V30 71 H 38.196167 28.086807 58.905126 0
M  V30 72 H 41.263333 32.261336 65.238682 0
M  V30 73 H 42.845131 26.579053 58.637474 0
M  V30 74 H 43.279766 26.937756 56.967768 0
M  V30 75 H 43.401539 28.192214 58.167778 0
M  V30 76 H 40.428259 25.829188 57.959945 0
M  V30 77 H 40.285108 30.830615 63.694494 0
M  V30 78 H 42.264653 33.520442 61.687362 0
M  V30 79 H 41.477470 34.919489 60.967760 0
M  V30 80 H 41.467857 28.285832 56.700865 0
M  V30 81 H 42.416631 36.480236 64.968063 0
M  V30 82 H 37.920082 31.161876 57.562984 0
M  V30 END ATOM
M  V30 BEGIN BOND
M  V30 1 1 4 1
M  V30 2 1 8 1
M  V30 3 1 11 8
M  V30 4 1 12 4
M  V30 5 2 13 5
M  V30 6 1 14 5
M  V30 7 1 15 7
M  V30 8 1 15 11
M  V30 9 1 17 11
M  V30 10 1 18 9
M  V30 11 1 15 19 CFG=1
M  V30 12 1 20 12
M  V30 13 1 21 2
M  V30 14 1 22 10
M  V30 15 1 22 21
M  V30 16 1 23 2
M  V30 17 1 23 14
M  V30 18 1 23 16
M  V30 19 1 24 16
M  V30 20 1 24 20
M  V30 21 1 25 10
M  V30 22 1 25 23
M  V30 23 1 26 6
M  V30 24 1 26 17
M  V30 25 1 27 17
M  V30 26 1 29 26
M  V30 27 1 30 13
M  V30 28 1 30 16
M  V30 29 1 31 29
M  V30 30 1 32 7
M  V30 31 1 32 15
M  V30 32 1 32 29
M  V30 33 1 33 5
M  V30 34 2 33 28
M  V30 35 1 34 3
M  V30 36 1 34 13
M  V30 37 2 35 3
M  V30 38 1 35 18
M  V30 39 1 35 28
M  V30 40 1 36 1
M  V30 41 1 37 1
M  V30 42 1 38 2
M  V30 43 1 39 2
M  V30 44 1 40 3
M  V30 45 1 41 4
M  V30 46 1 42 4
M  V30 47 1 43 6
M  V30 48 1 44 6
M  V30 49 1 45 6
M  V30 50 1 46 7
M  V30 51 1 47 7
M  V30 52 1 48 8
M  V30 53 1 49 9
M  V30 54 1 50 9
M  V30 55 1 51 10
M  V30 56 1 52 10
M  V30 57 1 11 53 CFG=1
M  V30 58 1 54 12
M  V30 59 1 55 14
M  V30 60 1 56 14
M  V30 61 1 16 57 CFG=3
M  V30 62 1 17 58 CFG=3
M  V30 63 1 59 18
M  V30 64 1 60 18
M  V30 65 1 61 19
M  V30 66 1 62 20
M  V30 67 1 63 20
M  V30 68 1 64 21
M  V30 69 1 65 21
M  V30 70 1 66 22
M  V30 71 1 67 22
M  V30 72 1 68 25
M  V30 73 1 69 25
M  V30 74 1 26 70 CFG=1
M  V30 75 1 71 27
M  V30 76 1 72 28
M  V30 77 1 73 31
M  V30 78 1 74 31
M  V30 79 1 75 31
M  V30 80 1 32 76 CFG=1
M  V30 81 1 77 33
M  V30 82 1 78 34
M  V30 83 1 79 34
M  V30 84 1 29 80 CFG=3
M  V30 85 1 81 9
M  V30 86 1 82 12
M  V30 END BOND
M  V30 END CTAB
M  END
>  <i_epik_Tot_Q>  (1) 
3

>  <i_epik_Tot_abs_Q>  (1) 
3

>  <i_i_glide_confnum>  (1) 
35

>  <i_i_glide_lignum>  (1) 
114

>  <i_i_glide_posenum>  (1) 
134

>  <i_i_glide_rotatable_bonds>  (1) 
10

>  <i_lp_mmshare_version>  (1) 
72125

>  <i_m_source_file_index>  (1) 
54

>  <i_f3d_flags>  (1) 
0

>  <num_sample>  (1) 
100

>  <b_lp_Chiralities_Consistent>  (1) 
1

>  <r_epik_Charging_Adjusted_Penalty>  (1) 
1.5449594399157651

>  <r_epik_Ionization_Penalty>  (1) 
0.47240059175592303

>  <r_epik_Ionization_Penalty_Charging>  (1) 
0.40568266018177357

>  <r_epik_Ionization_Penalty_Neutral>  (1) 
0.066717931574149458

>  <r_epik_State_Penalty>  (1) 
1.1392767797339916

>  <r_glide_ring_energy>  (1) 
0.00056355326545655675

>  <r_i_docking_score>  (1) 
-6.4300391291229779

>  <r_i_glide_ecoul>  (1) 
-14.110212223851665

>  <r_i_glide_eff_state_penalty>  (1) 
1.1392767797339916

>  <r_i_glide_einternal>  (1) 
9.0386928043737225

>  <r_i_glide_emodel>  (1) 
-61.20321583040721

>  <r_i_glide_emodel_strain>  (1) 
1.964211359919986

>  <r_i_glide_energy>  (1) 
-52.657515934632627

>  <r_i_glide_erotb>  (1) 
0.58947078011706677

>  <r_i_glide_esite>  (1) 
-0.21135913244567589

>  <r_i_glide_evdw>  (1) 
-38.547303710780966

>  <r_i_glide_gscore>  (1) 
-7.5693159088569697

>  <r_i_glide_gscore_strain>  (1) 
0

>  <r_i_glide_hbond>  (1) 
-0.068615463444542557

>  <r_i_glide_ligand_efficiency>  (1) 
-0.18371540368922795

>  <r_i_glide_ligand_efficiency_ln>  (1) 
-1.4115362958721134

>  <r_i_glide_ligand_efficiency_sa>  (1) 
-0.60094526767053014

>  <r_i_glide_lipo>  (1) 
-3.4719469439624264

>  <r_i_glide_metal>  (1) 
-0

>  <r_i_glide_rewards>  (1) 
-0.36296813000459216

>  <r_lp_Energy>  (1) 
63.319117999999996

>  <s_epik_Chemistry_Notes>  (1) 
This compound contains an acetal/aminal-like group ( X-CH(R)-Y where X, Y are N, S, or O) that may be acid/base labile, releasing an aldehyde.

>  <s_epik_cmdline>  (1) 
J2VwaWtfcHl0aG9uJywgJy1waHQnLCAnMS4wJywgJy1waCcsICc3LjQnLCAnLXRuJywgJzgnLCAnLW1hJywgJzUwMCcsICctaW1hZScsICc8aW5maWxlLm1hZT4nLCAnLW9tYWUnLCAnPG91dGZpbGUubWFlPic=

>  <s_epik_input>  (1) 
W09IXVtDQEBdMTJbQ0BASF0oW0NIMl0xKU4oW0NIM10pW0NASF0oW0NIM10pW0NASF0oW09IXSlbQ0BIXTJbTkhdW0NIMl1bQ0gyXVtOSF1bQ0gyXU9bQ0BIXTNPQyhbQ0gyXVtDSF09QyhbQ0gyXVtOSDJdKVtDSF09W0NIXTQpPUM0W0NIMl1DMzVbQ0gyXVtDSDJdW0NIMl1bQ0gyXVtDSDJdNQ==

>  <s_glide_docking_method>  (1) 
confgen

>  <s_i_glide_gridfile>  (1) 
gpcr_5ht2c_6bqh_protein_autoprepared_prepared

>  <s_lp_Force_Field>  (1) 
S-OPLS

>  <s_lp_Variant>  (1) 
DiffSBDD_53-6

>  <s_m_source_file>  (1) 
generated_GPCR_5HT2C_ligand_DiffSBDD_2026-06-23_prepared.sdf

>  <GenAI_Model>  (1) 
DiffSBDD

>  <Protein>  (1) 
GPCR_5HT2C

$$$$
DiffSBDD_16
     RDKit          3D

  0  0  0  0  0  0  0  0  0  0999 V3000
M  V30 BEGIN CTAB
M  V30 COUNTS 69 73 0 0 1
M  V30 BEGIN ATOM
M  V30 1 C 40.454870 30.948945 63.499682 0
M  V30 2 C 39.245136 27.908646 53.700406 0
M  V30 3 C 38.340799 32.263900 58.559382 0 CFG=1
M  V30 4 C 38.618793 30.766855 58.773579 0
M  V30 5 C 41.698595 29.001426 64.323430 0
M  V30 6 C 42.163213 29.751447 65.418112 0
M  V30 7 C 39.747557 35.373145 62.673414 0
M  V30 8 C 39.550008 36.030443 61.314986 0
M  V30 9 C 39.023889 33.148839 59.618350 0
M  V30 10 C 41.768722 31.090468 65.569884 0
M  V30 11 O 41.448048 33.740128 62.932992 0
M  V30 12 C 38.766017 29.863119 55.038081 0
M  V30 13 C 38.492399 30.532221 56.191470 0
M  V30 14 C 38.295309 32.034885 56.169515 0
M  V30 15 C 38.975285 28.411647 54.877298 0
M  V30 16 C 40.844595 29.594950 63.373445 0
M  V30 17 N 39.451944 26.560366 53.660542 0
M  V30 18 C 38.189074 24.723024 56.459305 0
M  V30 19 N 38.888858 32.718360 57.292966 0
M  V30 20 C 37.633596 25.871389 57.218965 0
M  V30 21 C 42.115280 27.553396 64.164358 0
M  V30 22 C 38.110191 35.880818 60.834553 0
M  V30 23 C 36.193751 34.405686 60.270681 0
M  V30 24 C 37.450259 34.519012 61.146431 0 CFG=1
M  V30 25 C 39.535062 31.531776 62.454177 0
M  V30 26 C 38.344006 33.251530 60.995267 0 CFG=2
M  V30 27 C 40.282952 33.943279 62.596981 0
M  V30 28 C 38.969879 27.394868 55.969925 0 CFG=2
M  V30 29 C 39.372314 32.847585 62.079656 0
M  V30 30 C 39.140937 26.276599 54.880422 0
M  V30 31 N 37.835836 27.091861 56.871342 0
M  V30 32 C 40.916882 31.690158 64.623024 0
M  V30 33 C 38.328227 29.871889 57.561932 0
M  V30 34 C 38.886744 24.928508 55.328155 0
M  V30 35 H 39.316665 28.475307 52.782370 0
M  V30 36 H 37.263774 32.425811 58.537800 0
M  V30 37 H 39.645135 30.585847 59.083296 0
M  V30 38 H 38.025429 30.412539 59.616521 0
M  V30 39 H 42.816263 29.296333 66.148069 0
M  V30 40 H 38.845162 35.416671 63.279693 0
M  V30 41 H 40.490517 35.951766 63.223950 0
M  V30 42 H 39.794877 37.089710 61.381459 0
M  V30 43 H 40.246368 35.620112 60.582409 0
M  V30 44 H 40.045145 32.812403 59.767745 0
M  V30 45 H 39.146969 34.137751 59.206502 0
M  V30 46 H 42.114412 31.660504 66.419575 0
M  V30 47 H 38.840045 30.461605 54.140969 0
M  V30 48 H 38.724941 32.445922 55.256144 0
M  V30 49 H 37.245138 32.270991 56.137737 0
M  V30 50 H 40.490093 29.011423 62.536108 0
M  V30 51 H 37.961902 23.737753 56.829950 0
M  V30 52 H 38.695831 33.705165 57.193260 0
M  V30 53 H 37.020764 25.609458 58.084843 0
M  V30 54 H 42.929089 27.471047 63.443104 0
M  V30 55 H 42.452098 27.133653 65.112509 0
M  V30 56 H 41.279576 26.953407 63.802780 0
M  V30 57 H 37.506397 36.661028 61.300420 0
M  V30 58 H 38.064454 36.095890 59.767799 0
M  V30 59 H 36.432259 34.260996 59.219132 0
M  V30 60 H 35.533691 33.598295 60.588824 0
M  V30 61 H 35.645143 35.337792 60.305186 0
M  V30 62 H 37.084074 34.558973 62.167570 0
M  V30 63 H 38.913345 30.803124 61.954921 0
M  V30 64 H 37.630431 32.426677 61.037338 0
M  V30 65 H 39.903323 27.460141 56.531417 0
M  V30 66 H 40.603268 32.705153 64.776840 0
M  V30 67 H 37.302838 29.509300 57.634973 0
M  V30 68 H 39.027061 29.062220 57.711304 0
M  V30 69 H 39.253612 24.137755 54.712698 0
M  V30 END ATOM
M  V30 BEGIN BOND
M  V30 1 1 4 3
M  V30 2 1 6 5
M  V30 3 1 8 7
M  V30 4 1 9 3
M  V30 5 2 10 6
M  V30 6 2 13 12
M  V30 7 1 14 13
M  V30 8 2 15 2
M  V30 9 1 15 12
M  V30 10 1 16 1
M  V30 11 2 16 5
M  V30 12 1 17 2
M  V30 13 1 19 3
M  V30 14 1 19 14
M  V30 15 1 20 18
M  V30 16 1 21 5
M  V30 17 1 22 8
M  V30 18 1 24 22
M  V30 19 1 24 23
M  V30 20 1 25 1
M  V30 21 1 26 9
M  V30 22 1 26 24
M  V30 23 1 27 7
M  V30 24 2 27 11
M  V30 25 1 28 15
M  V30 26 2 29 25
M  V30 27 1 29 26
M  V30 28 1 29 27
M  V30 29 2 30 17
M  V30 30 1 30 28
M  V30 31 2 31 20
M  V30 32 1 31 28
M  V30 33 2 32 1
M  V30 34 1 32 10
M  V30 35 1 33 4
M  V30 36 1 33 13
M  V30 37 2 34 18
M  V30 38 1 34 30
M  V30 39 1 35 2
M  V30 40 1 3 36 CFG=3
M  V30 41 1 37 4
M  V30 42 1 38 4
M  V30 43 1 39 6
M  V30 44 1 40 7
M  V30 45 1 41 7
M  V30 46 1 42 8
M  V30 47 1 43 8
M  V30 48 1 44 9
M  V30 49 1 45 9
M  V30 50 1 46 10
M  V30 51 1 47 12
M  V30 52 1 48 14
M  V30 53 1 49 14
M  V30 54 1 50 16
M  V30 55 1 51 18
M  V30 56 1 52 19
M  V30 57 1 53 20
M  V30 58 1 54 21
M  V30 59 1 55 21
M  V30 60 1 56 21
M  V30 61 1 57 22
M  V30 62 1 58 22
M  V30 63 1 59 23
M  V30 64 1 60 23
M  V30 65 1 61 23
M  V30 66 1 24 62 CFG=1
M  V30 67 1 63 25
M  V30 68 1 26 64 CFG=3
M  V30 69 1 28 65 CFG=1
M  V30 70 1 66 32
M  V30 71 1 67 33
M  V30 72 1 68 33
M  V30 73 1 69 34
M  V30 END BOND
M  V30 END CTAB
M  END
>  <i_epik_Tot_Q>  (1) 
0

>  <i_epik_Tot_abs_Q>  (1) 
0

>  <i_i_glide_confnum>  (1) 
29

>  <i_i_glide_lignum>  (1) 
38

>  <i_i_glide_posenum>  (1) 
370

>  <i_i_glide_rotatable_bonds>  (1) 
4

>  <i_lp_mmshare_version>  (1) 
72125

>  <i_m_source_file_index>  (1) 
17

>  <i_f3d_flags>  (1) 
0

>  <num_sample>  (1) 
100

>  <b_lp_Chiralities_Consistent>  (1) 
1

>  <r_epik_Charging_Adjusted_Penalty>  (1) 
0.56391873878667209

>  <r_epik_Ionization_Penalty>  (1) 
0.56391873878667209

>  <r_epik_Ionization_Penalty_Charging>  (1) 
0

>  <r_epik_Ionization_Penalty_Neutral>  (1) 
0.56391873878667209

>  <r_epik_State_Penalty>  (1) 
0.56391873878667209

>  <r_glide_ring_energy>  (1) 
0

>  <r_i_docking_score>  (1) 
-6.4297877401343078

>  <r_i_glide_ecoul>  (1) 
-0.51442299963295635

>  <r_i_glide_eff_state_penalty>  (1) 
0.56391873878667209

>  <r_i_glide_einternal>  (1) 
29.069356707866021

>  <r_i_glide_emodel>  (1) 
-38.206899579864519

>  <r_i_glide_emodel_strain>  (1) 
0.19372763195116249

>  <r_i_glide_energy>  (1) 
-39.738937150713134

>  <r_i_glide_erotb>  (1) 
0.29265828080580603

>  <r_i_glide_esite>  (1) 
0

>  <r_i_glide_evdw>  (1) 
-39.224514151080179

>  <r_i_glide_gscore>  (1) 
-6.9937064789209797

>  <r_i_glide_gscore_strain>  (1) 
0

>  <r_i_glide_hbond>  (1) 
0

>  <r_i_glide_ligand_efficiency>  (1) 
-0.1891114041215973

>  <r_i_glide_ligand_efficiency_ln>  (1) 
-1.4205204612329367

>  <r_i_glide_ligand_efficiency_sa>  (1) 
-0.61264753654848192

>  <r_i_glide_lipo>  (1) 
-3.0587703804453277

>  <r_i_glide_metal>  (1) 
-0

>  <r_i_glide_rewards>  (1) 
-2.1892052217825051

>  <r_lp_Energy>  (1) 
60.789839000000001

>  <s_epik_Chemistry_Notes>  (1) 
This compound has an imine and may undergo hydrolysis.

>  <s_epik_cmdline>  (1) 
J2VwaWtfcHl0aG9uJywgJy1waHQnLCAnMS4wJywgJy1waCcsICc3LjQnLCAnLXRuJywgJzgnLCAnLW1hJywgJzUwMCcsICctaW1hZScsICc8aW5maWxlLm1hZT4nLCAnLW9tYWUnLCAnPG91dGZpbGUubWFlPic=

>  <s_epik_input>  (1) 
W2NIXTFbY0hdW2NIXWMoW0NIM10pW2NIXWMxL1tDSF09QyhDKD1PKVtDSDJdW0NIMl1bQ0gyXVtDQEhdMltDSDNdKS9bQ0BASF0yW0NIMl1bQ0BASF0zW0NIMl1bQ0gyXUMoL1tDSDJdW05IXTMpPVtDSF1cQzQ9W0NIXU49QyhbQ0BASF00NSlbQ0hdPVtDSF1bQ0hdPU41

>  <s_glide_docking_method>  (1) 
confgen

>  <s_i_glide_gridfile>  (1) 
gpcr_5ht2c_6bqh_protein_autoprepared_prepared

>  <s_lp_Force_Field>  (1) 
S-OPLS

>  <s_lp_Variant>  (1) 
DiffSBDD_16-6

>  <s_m_source_file>  (1) 
generated_GPCR_5HT2C_ligand_DiffSBDD_2026-06-23_prepared.sdf

>  <GenAI_Model>  (1) 
DiffSBDD

>  <Protein>  (1) 
GPCR_5HT2C

$$$$
DiffSBDD_84
     RDKit          3D

  0  0  0  0  0  0  0  0  0  0999 V3000
M  V30 BEGIN CTAB
M  V30 COUNTS 77 81 0 0 1
M  V30 BEGIN ATOM
M  V30 1 C 35.496716 32.762904 60.071297 0
M  V30 2 C 38.628669 29.451028 56.589553 0
M  V30 3 C 37.806789 29.864554 59.640774 0
M  V30 4 C 38.045111 39.080748 60.651881 0
M  V30 5 S 39.279752 35.762941 61.368203 0
M  V30 6 C 39.238022 28.253844 52.670482 0
M  V30 7 C 38.603411 27.580362 54.868495 0
M  V30 8 C 40.639434 30.044104 63.629223 0
M  V30 9 O 39.198341 39.839278 60.967760 0
M  V30 10 C 39.955686 28.650686 59.588719 0
M  V30 11 C 38.425641 26.551966 55.979354 0
M  V30 12 C 38.107273 28.999530 55.214346 0 CFG=2
M  V30 13 C 39.393162 30.186964 61.522910 0
M  V30 14 N 34.251302 33.104467 59.367760 0 CHG=1
M  V30 15 C 37.750814 38.039370 61.767642 0
M  V30 16 C 36.077050 33.950505 60.854908 0
M  V30 17 N 39.126226 27.276730 53.743795 0
M  V30 18 C 39.640071 30.641146 62.840763 0
M  V30 19 N 38.914137 33.190284 60.927643 0
M  V30 20 N 38.647456 29.002284 59.016474 0
M  V30 21 C 39.496091 29.679092 53.188038 0
M  V30 22 C 40.182641 29.137270 61.006963 0
M  V30 23 N 37.822203 36.633577 61.371771 0
M  V30 24 C 36.415659 38.251707 62.532928 0
M  V30 25 C 38.299002 28.428412 57.697758 0 CFG=2
M  V30 26 O 36.616941 29.951617 59.334444 0
M  V30 27 C 41.178016 28.539497 61.800976 0
M  V30 28 O 35.351929 38.537772 61.661297 0
M  V30 29 C 38.361783 30.061082 54.128969 0
M  V30 30 C 38.596041 34.474313 60.298459 0 CFG=1
M  V30 31 C 38.933942 27.064325 57.343894 0
M  V30 32 N 38.805931 32.072753 60.063319 0
M  V30 33 N 36.901926 36.243650 60.323126 0 CHG=1
M  V30 34 C 41.405721 28.990917 63.110257 0
M  V30 35 C 38.332790 30.846042 60.711878 0 CFG=1
M  V30 36 C 37.089397 34.803210 60.035955 0 CFG=2
M  V30 37 H 36.210640 32.411771 59.328981 0
M  V30 38 H 35.280515 31.933274 60.745329 0
M  V30 39 H 38.180726 30.415582 56.833080 0
M  V30 40 H 39.705742 29.617492 56.543115 0
M  V30 41 H 37.245153 39.815667 60.580215 0
M  V30 42 H 38.125239 38.635777 59.661606 0
M  V30 43 H 40.051511 27.962713 52.006374 0
M  V30 44 H 38.333367 28.229058 52.059934 0
M  V30 45 H 40.815207 30.395787 64.635703 0
M  V30 46 H 39.970912 39.337284 60.746218 0
M  V30 47 H 40.069396 27.566772 59.613186 0
M  V30 48 H 40.746237 29.045959 58.949526 0
M  V30 49 H 38.945643 25.629760 55.713432 0
M  V30 50 H 34.012550 32.313298 58.779922 0
M  V30 51 H 33.501159 33.304309 60.014182 0
M  V30 52 H 38.557087 38.136667 62.495830 0
M  V30 53 H 36.542578 33.592596 61.771911 0
M  V30 54 H 35.245047 34.537773 61.221126 0
M  V30 55 H 39.056610 31.451388 63.245638 0
M  V30 56 H 38.362268 33.038234 61.769796 0
M  V30 57 H 40.445134 29.741285 53.716990 0
M  V30 58 H 39.558286 30.382067 52.357020 0
M  V30 59 H 36.167481 37.387590 63.152285 0
M  V30 60 H 36.445124 39.101151 63.207375 0
M  V30 61 H 37.221849 28.253722 57.684131 0
M  V30 62 H 41.772112 27.737807 61.399236 0
M  V30 63 H 35.481946 39.397551 61.280157 0
M  V30 64 H 38.522068 31.051825 54.555763 0
M  V30 65 H 37.454082 30.136259 53.543732 0
M  V30 66 H 39.152458 34.535549 59.367852 0
M  V30 67 H 40.021512 27.143867 57.303310 0
M  V30 68 H 38.696683 26.327536 58.113087 0
M  V30 69 H 39.720457 31.902427 59.650004 0
M  V30 70 H 35.969485 36.483591 60.630905 0
M  V30 71 H 42.173463 28.530842 63.714711 0
M  V30 72 H 37.484574 31.086527 61.353967 0
M  V30 73 H 36.875229 34.671196 58.973823 0
M  V30 74 H 37.155286 36.788708 59.511824 0
M  V30 75 H 37.026825 28.938285 55.298057 0
M  V30 76 H 37.365736 26.301821 56.046825 0
M  V30 77 H 34.401310 33.892908 58.755846 0
M  V30 END ATOM
M  V30 BEGIN BOND
M  V30 1 1 9 4
M  V30 2 1 11 7
M  V30 3 1 12 2
M  V30 4 1 12 7
M  V30 5 1 14 1
M  V30 6 1 15 4
M  V30 7 1 16 1
M  V30 8 1 17 6
M  V30 9 2 17 7
M  V30 10 1 18 8
M  V30 11 2 18 13
M  V30 12 1 20 3
M  V30 13 1 20 10
M  V30 14 1 21 6
M  V30 15 1 22 10
M  V30 16 1 22 13
M  V30 17 1 23 5
M  V30 18 1 23 15
M  V30 19 1 24 15
M  V30 20 1 25 2
M  V30 21 1 25 20
M  V30 22 2 26 3
M  V30 23 2 27 22
M  V30 24 1 28 24
M  V30 25 1 29 12
M  V30 26 1 29 21
M  V30 27 1 30 5
M  V30 28 1 30 19
M  V30 29 1 31 11
M  V30 30 1 31 25
M  V30 31 1 32 19
M  V30 32 1 33 23
M  V30 33 2 34 8
M  V30 34 1 34 27
M  V30 35 1 35 3
M  V30 36 1 35 13
M  V30 37 1 35 32
M  V30 38 1 36 16
M  V30 39 1 36 30
M  V30 40 1 36 33
M  V30 41 1 37 1
M  V30 42 1 38 1
M  V30 43 1 39 2
M  V30 44 1 40 2
M  V30 45 1 41 4
M  V30 46 1 42 4
M  V30 47 1 43 6
M  V30 48 1 44 6
M  V30 49 1 45 8
M  V30 50 1 46 9
M  V30 51 1 47 10
M  V30 52 1 48 10
M  V30 53 1 49 11
M  V30 54 1 50 14
M  V30 55 1 51 14
M  V30 56 1 52 15
M  V30 57 1 53 16
M  V30 58 1 54 16
M  V30 59 1 55 18
M  V30 60 1 56 19
M  V30 61 1 57 21
M  V30 62 1 58 21
M  V30 63 1 59 24
M  V30 64 1 60 24
M  V30 65 1 25 61 CFG=1
M  V30 66 1 62 27
M  V30 67 1 63 28
M  V30 68 1 64 29
M  V30 69 1 65 29
M  V30 70 1 30 66 CFG=3
M  V30 71 1 67 31
M  V30 72 1 68 31
M  V30 73 1 69 32
M  V30 74 1 70 33
M  V30 75 1 71 34
M  V30 76 1 35 72 CFG=1
M  V30 77 1 36 73 CFG=3
M  V30 78 1 74 33
M  V30 79 1 12 75 CFG=1
M  V30 80 1 76 11
M  V30 81 1 77 14
M  V30 END BOND
M  V30 END CTAB
M  END
>  <i_epik_Tot_Q>  (1) 
2

>  <i_epik_Tot_abs_Q>  (1) 
2

>  <i_i_glide_confnum>  (1) 
2491

>  <i_i_glide_lignum>  (1) 
198

>  <i_i_glide_posenum>  (1) 
63

>  <i_i_glide_rotatable_bonds>  (1) 
11

>  <i_lp_mmshare_version>  (1) 
72125

>  <i_m_source_file_index>  (1) 
85

>  <i_f3d_flags>  (1) 
0

>  <num_sample>  (1) 
100

>  <b_lp_Chiralities_Consistent>  (1) 
1

>  <r_epik_Charging_Adjusted_Penalty>  (1) 
0.034284474231679775

>  <r_epik_Ionization_Penalty>  (1) 
0.42650113434003467

>  <r_epik_Ionization_Penalty_Charging>  (1) 
0.012847136256187231

>  <r_epik_Ionization_Penalty_Neutral>  (1) 
0.41365399808384745

>  <r_epik_State_Penalty>  (1) 
0.021437337975492542

>  <r_glide_ring_energy>  (1) 
0.43729023159429187

>  <r_i_docking_score>  (1) 
-6.4210317010091362

>  <r_i_glide_ecoul>  (1) 
-6.280182632222794

>  <r_i_glide_eff_state_penalty>  (1) 
0.021437337975492542

>  <r_i_glide_einternal>  (1) 
21.464658995184898

>  <r_i_glide_emodel>  (1) 
-56.372186523777387

>  <r_i_glide_emodel_strain>  (1) 
5.9635848638664726

>  <r_i_glide_energy>  (1) 
-47.654681659357422

>  <r_i_glide_erotb>  (1) 
0.60855438394346106

>  <r_i_glide_esite>  (1) 
-0.0010917134912449896

>  <r_i_glide_evdw>  (1) 
-41.374499027134625

>  <r_i_glide_gscore>  (1) 
-6.4424690389846289

>  <r_i_glide_gscore_strain>  (1) 
0.49089621596661814

>  <r_i_glide_hbond>  (1) 
-0.38333456527278098

>  <r_i_glide_ligand_efficiency>  (1) 
-0.17836199169469824

>  <r_i_glide_ligand_efficiency_ln>  (1) 
-1.4008956409312809

>  <r_i_glide_ligand_efficiency_sa>  (1) 
-0.58893832054384132

>  <r_i_glide_lipo>  (1) 
-2.8642354866452395

>  <r_i_glide_metal>  (1) 
-0

>  <r_i_glide_rewards>  (1) 
-1.2825055272952928

>  <r_lp_Energy>  (1) 
53.693352999999995

>  <r_lp_tautomer_probability>  (1) 
0.99998399999999998

>  <s_epik_Chemistry_Notes>  (1) 
This compound has an imine and may undergo hydrolysis. This compound contains an acetal/aminal-like group ( X-CH(R)-Y where X, Y are N, S, or O) that may be acid/base labile, releasing an aldehyde. This compound has a N-S or N-O group and may undergo hydrolysis at high or low pH.

>  <s_epik_cmdline>  (1) 
J2VwaWtfcHl0aG9uJywgJy1waHQnLCAnMS4wJywgJy1waCcsICc3LjQnLCAnLXRuJywgJzgnLCAnLW1hJywgJzUwMCcsICctaW1hZScsICc8aW5maWxlLm1hZT4nLCAnLW9tYWUnLCAnPG91dGZpbGUubWFlPic=

>  <s_epik_input>  (1) 
W09IXVtDSDJdW0NIXShbQ0gyXVtPSF0pTjFTW0NASF0oW0NASF0oW05IXTEpW0NIMl1bQ0gyXVtOSDJdKVtOSF1bTkhdW0NASF0yQyg9TylOKFtDSDJdYyhjMjMpW2NIXVtjSF1bY0hdW2NIXTMpW0NASF0oW0NIMl1bQ0gyXTQpW0NIMl1DKD1DNDUpW0NIMl1bQ0gyXVtDSDJdW05IXTU=

>  <s_glide_docking_method>  (1) 
confgen

>  <s_i_glide_gridfile>  (1) 
gpcr_5ht2c_6bqh_protein_autoprepared_prepared

>  <s_lp_Force_Field>  (1) 
S-OPLS

>  <s_lp_Variant>  (1) 
DiffSBDD_84-1

>  <s_m_source_file>  (1) 
generated_GPCR_5HT2C_ligand_DiffSBDD_2026-06-23_prepared.sdf

>  <GenAI_Model>  (1) 
DiffSBDD

>  <Protein>  (1) 
GPCR_5HT2C

$$$$
DiffSBDD_75
     RDKit          3D

  0  0  0  0  0  0  0  0  0  0999 V3000
M  V30 BEGIN CTAB
M  V30 COUNTS 76 77 0 0 1
M  V30 BEGIN ATOM
M  V30 1 C 38.340780 31.928586 62.056524 0
M  V30 2 C 35.319336 33.159893 60.379653 0
M  V30 3 O 37.121256 29.737754 56.674281 0
M  V30 4 C 40.697160 33.009725 63.743025 0
M  V30 5 C 39.652079 29.734196 55.341746 0 CFG=2
M  V30 6 C 41.247832 27.665946 64.589994 0
M  V30 7 C 38.198338 29.567840 57.560117 0 CFG=2
M  V30 8 C 41.275607 26.256770 64.665341 0
M  V30 9 O 38.140149 29.344667 53.479947 0
M  V30 10 C 39.912410 27.721302 56.863514 0 CFG=2
M  V30 11 O 41.245136 25.741281 68.303890 0
M  V30 12 S 37.179641 30.537804 59.931318 0
M  V30 13 C 42.079616 33.299820 64.336546 0
M  V30 14 C 41.260346 26.370587 67.093465 0
M  V30 15 C 38.244743 30.794919 58.486237 0
M  V30 16 C 41.220885 28.354803 63.226237 0
M  V30 17 C 41.240248 28.427544 65.779006 0
M  V30 18 O 39.290912 25.518517 56.026541 0
M  V30 19 C 40.078841 27.163791 58.292737 0
M  V30 20 C 39.536378 29.232153 56.816332 0 CFG=1
M  V30 21 O 41.984958 33.469580 65.734590 0
M  V30 22 O 36.169302 32.593790 61.367749 0
M  V30 23 O 40.640746 29.715633 60.837019 0
M  V30 24 C 40.458722 34.196829 61.652273 0
M  V30 25 N 40.701520 32.893518 62.278313 0
M  V30 26 C 40.397907 30.390866 61.835437 0
M  V30 27 C 41.281367 25.614126 65.913194 0
M  V30 28 C 40.660757 29.796826 63.228644 0
M  V30 29 C 39.847543 31.836947 61.695961 0 CFG=1
M  V30 30 C 41.245138 27.779186 67.027654 0
M  V30 31 C 38.972831 27.336430 54.517099 0
M  V30 32 C 37.391775 32.091827 60.848498 0 CFG=1
M  V30 33 C 39.415820 31.248037 55.156325 0
M  V30 34 C 38.943328 26.890198 55.990263 0 CFG=2
M  V30 35 C 38.845136 28.853273 54.359245 0
M  V30 36 H 38.030438 31.072079 62.656035 0
M  V30 37 H 38.185988 32.793373 62.697422 0
M  V30 38 H 34.412298 33.530481 60.854225 0
M  V30 39 H 35.799981 34.000247 59.876844 0
M  V30 40 H 35.025021 32.425964 59.628488 0
M  V30 41 H 36.545306 30.443602 56.967766 0
M  V30 42 H 40.045163 33.827171 64.035556 0
M  V30 43 H 40.259987 32.139029 64.224466 0
M  V30 44 H 37.920207 28.717011 58.177581 0
M  V30 45 H 41.285320 25.667624 63.767771 0
M  V30 46 H 39.907674 27.027677 54.049080 0
M  V30 47 H 40.903006 27.636676 56.411027 0
M  V30 48 H 40.771532 26.260801 68.943225 0
M  V30 49 H 42.760733 32.475418 64.123230 0
M  V30 50 H 42.507221 34.203498 63.902612 0
M  V30 51 H 37.968906 31.711198 57.960516 0
M  V30 52 H 39.245135 30.940469 58.870179 0
M  V30 53 H 42.235298 28.349279 62.825048 0
M  V30 54 H 40.618879 27.737760 62.558648 0
M  V30 55 H 41.222791 29.504457 65.736276 0
M  V30 56 H 40.209503 25.429865 55.820371 0
M  V30 57 H 39.131458 27.052916 58.818106 0
M  V30 58 H 40.539350 26.176298 58.265106 0
M  V30 59 H 40.726511 27.802195 58.893454 0
M  V30 60 H 40.331979 29.727401 57.371220 0
M  V30 61 H 41.691461 32.658611 66.121237 0
M  V30 62 H 41.232694 34.915320 61.926345 0
M  V30 63 H 40.445154 34.123089 60.567743 0
M  V30 64 H 39.494704 34.612907 61.949199 0
M  V30 65 H 41.294224 24.537903 65.963712 0
M  V30 66 H 39.721411 29.825513 63.779592 0
M  V30 67 H 41.373679 30.431567 63.751360 0
M  V30 68 H 39.889891 32.013654 60.622914 0
M  V30 69 H 41.230447 28.362225 67.937233 0
M  V30 70 H 38.168624 26.850808 53.963014 0
M  V30 71 H 40.690927 29.577826 55.055677 0
M  V30 72 H 37.810581 32.845953 60.179036 0
M  V30 73 H 39.656937 31.559814 54.139761 0
M  V30 74 H 38.381571 31.537446 55.341658 0
M  V30 75 H 40.045050 31.828057 55.830979 0
M  V30 76 H 37.925977 26.979439 56.374024 0
M  V30 END ATOM
M  V30 BEGIN BOND
M  V30 1 1 7 3
M  V30 2 1 8 6
M  V30 3 1 13 4
M  V30 4 1 14 11
M  V30 5 1 15 7
M  V30 6 1 15 12
M  V30 7 1 16 6
M  V30 8 2 17 6
M  V30 9 1 19 10
M  V30 10 1 20 5
M  V30 11 1 20 7
M  V30 12 1 20 10
M  V30 13 1 21 13
M  V30 14 1 22 2
M  V30 15 1 25 4
M  V30 16 1 25 24
M  V30 17 2 26 23
M  V30 18 2 27 8
M  V30 19 1 27 14
M  V30 20 1 28 16
M  V30 21 1 28 26
M  V30 22 1 29 1
M  V30 23 1 29 25
M  V30 24 1 29 26
M  V30 25 2 30 14
M  V30 26 1 30 17
M  V30 27 1 32 1
M  V30 28 1 32 12
M  V30 29 1 32 22
M  V30 30 1 33 5
M  V30 31 1 34 10
M  V30 32 1 34 18
M  V30 33 1 34 31
M  V30 34 1 35 5
M  V30 35 2 35 9
M  V30 36 1 35 31
M  V30 37 1 36 1
M  V30 38 1 37 1
M  V30 39 1 38 2
M  V30 40 1 39 2
M  V30 41 1 40 2
M  V30 42 1 41 3
M  V30 43 1 42 4
M  V30 44 1 43 4
M  V30 45 1 7 44 CFG=1
M  V30 46 1 45 8
M  V30 47 1 46 31
M  V30 48 1 10 47 CFG=3
M  V30 49 1 48 11
M  V30 50 1 49 13
M  V30 51 1 50 13
M  V30 52 1 51 15
M  V30 53 1 52 15
M  V30 54 1 53 16
M  V30 55 1 54 16
M  V30 56 1 55 17
M  V30 57 1 56 18
M  V30 58 1 57 19
M  V30 59 1 58 19
M  V30 60 1 59 19
M  V30 61 1 20 60 CFG=1
M  V30 62 1 61 21
M  V30 63 1 62 24
M  V30 64 1 63 24
M  V30 65 1 64 24
M  V30 66 1 65 27
M  V30 67 1 66 28
M  V30 68 1 67 28
M  V30 69 1 29 68 CFG=3
M  V30 70 1 69 30
M  V30 71 1 70 31
M  V30 72 1 5 71 CFG=3
M  V30 73 1 32 72 CFG=3
M  V30 74 1 73 33
M  V30 75 1 74 33
M  V30 76 1 75 33
M  V30 77 1 34 76 CFG=1
M  V30 END BOND
M  V30 END CTAB
M  END
>  <i_epik_Tot_Q>  (1) 
0

>  <i_epik_Tot_abs_Q>  (1) 
0

>  <i_i_glide_confnum>  (1) 
4914

>  <i_i_glide_lignum>  (1) 
173

>  <i_i_glide_posenum>  (1) 
88

>  <i_i_glide_rotatable_bonds>  (1) 
18

>  <i_lp_mmshare_version>  (1) 
72125

>  <i_m_source_file_index>  (1) 
76

>  <i_f3d_flags>  (1) 
0

>  <num_sample>  (1) 
100

>  <b_lp_Chiralities_Consistent>  (1) 
1

>  <r_epik_Charging_Adjusted_Penalty>  (1) 
0.60615279515584763

>  <r_epik_Ionization_Penalty>  (1) 
0.6077244911787385

>  <r_epik_Ionization_Penalty_Charging>  (1) 
0

>  <r_epik_Ionization_Penalty_Neutral>  (1) 
0.6077244911787385

>  <r_epik_State_Penalty>  (1) 
0.60615279515584763

>  <r_glide_ring_energy>  (1) 
0

>  <r_i_docking_score>  (1) 
-6.4165703662520377

>  <r_i_glide_ecoul>  (1) 
-9.9368527870064423

>  <r_i_glide_eff_state_penalty>  (1) 
0.60615279515584763

>  <r_i_glide_einternal>  (1) 
17.642025511411529

>  <r_i_glide_emodel>  (1) 
-66.928590948817217

>  <r_i_glide_emodel_strain>  (1) 
3.2443113068478198

>  <r_i_glide_energy>  (1) 
-55.533129385006347

>  <r_i_glide_erotb>  (1) 
1.0176109525924779

>  <r_i_glide_esite>  (1) 
-0.0087948636279230729

>  <r_i_glide_evdw>  (1) 
-45.596276597999903

>  <r_i_glide_gscore>  (1) 
-7.0227231614078853

>  <r_i_glide_gscore_strain>  (1) 
0

>  <r_i_glide_hbond>  (1) 
-0.61563881237837259

>  <r_i_glide_ligand_efficiency>  (1) 
-0.18333058189291537

>  <r_i_glide_ligand_efficiency_ln>  (1) 
-1.4085796034988556

>  <r_i_glide_ligand_efficiency_sa>  (1) 
-0.59968649005718577

>  <r_i_glide_lipo>  (1) 
-3.0483968844979659

>  <r_i_glide_metal>  (1) 
-0

>  <r_i_glide_rewards>  (1) 
-0.59716180554514076

>  <r_lp_Energy>  (1) 
28.00357

>  <r_lp_tautomer_probability>  (1) 
0.99999993999736703

>  <s_epik_Chemistry_Notes>  (1) 
This compound contains an acetal/aminal-like group ( X-CH(R)-Y where X, Y are N, S, or O) that may be acid/base labile, releasing an aldehyde.

>  <s_epik_cmdline>  (1) 
J2VwaWtfcHl0aG9uJywgJy1waHQnLCAnMS4wJywgJy1waCcsICc3LjQnLCAnLXRuJywgJzgnLCAnLW1hJywgJzUwMCcsICctaW1hZScsICc8aW5maWxlLm1hZT4nLCAnLW9tYWUnLCAnPG91dGZpbGUubWFlPic=

>  <s_epik_input>  (1) 
W2NIXTFbY0hdYyhbT0hdKVtjSF1bY0hdYzFbQ0gyXVtDSDJdQyg9TylbQ0BIXShOKFtDSDNdKVtDSDJdW0NIMl1bT0hdKVtDSDJdW0NASF0oT1tDSDNdKVNbQ0gyXVtDQEBIXShbT0hdKVtDQEhdMltDQEBIXShbQ0gzXSlbQ0BIXShbT0hdKVtDSDJdQyhbT0hdKT1DMltDSDNd

>  <s_glide_docking_method>  (1) 
confgen

>  <s_i_glide_gridfile>  (1) 
gpcr_5ht2c_6bqh_protein_autoprepared_prepared

>  <s_lp_Force_Field>  (1) 
S-OPLS

>  <s_lp_Variant>  (1) 
DiffSBDD_75-10

>  <s_m_source_file>  (1) 
generated_GPCR_5HT2C_ligand_DiffSBDD_2026-06-23_prepared.sdf

>  <GenAI_Model>  (1) 
DiffSBDD

>  <Protein>  (1) 
GPCR_5HT2C

$$$$
DiffSBDD_16
     RDKit          3D

  0  0  0  0  0  0  0  0  0  0999 V3000
M  V30 BEGIN CTAB
M  V30 COUNTS 69 73 0 0 1
M  V30 BEGIN ATOM
M  V30 1 C 40.448767 32.008396 62.365388 0
M  V30 2 C 39.111784 26.780328 53.339109 0
M  V30 3 C 37.919517 31.085772 58.068860 0 CFG=1
M  V30 4 C 38.571938 29.793172 58.575725 0
M  V30 5 C 40.845108 29.601987 62.071402 0
M  V30 6 C 41.520043 29.558402 63.302698 0
M  V30 7 C 37.500550 35.437608 59.767755 0
M  V30 8 C 36.096329 35.145211 60.242787 0
M  V30 9 C 38.338135 32.384457 58.799096 0
M  V30 10 C 41.679152 30.729201 64.056689 0
M  V30 11 O 39.179702 35.970769 61.367619 0
M  V30 12 C 38.673651 27.811370 55.485973 0
M  V30 13 C 38.199134 28.800165 56.300459 0
M  V30 14 C 37.705905 30.166171 55.829068 0
M  V30 15 C 38.845050 27.863977 54.014802 0
M  V30 16 C 40.313620 30.821435 61.596607 0
M  V30 17 N 39.245126 26.937752 51.984894 0
M  V30 18 C 39.991327 30.227445 50.893047 0
M  V30 19 N 38.239208 31.253245 56.649548 0
M  V30 20 C 40.045137 30.841988 52.246684 0
M  V30 21 C 40.701944 28.339100 61.249663 0
M  V30 22 C 35.657340 33.722242 59.933165 0
M  V30 23 C 35.723725 31.335373 60.663280 0
M  V30 24 C 36.477855 32.676285 60.695893 0 CFG=1
M  V30 25 C 39.901853 33.340042 61.931584 0
M  V30 26 C 37.993182 32.556668 60.313640 0 CFG=2
M  V30 27 C 38.584055 35.062413 60.785367 0
M  V30 28 C 38.742045 29.077348 53.159778 0 CFG=2
M  V30 29 C 38.891284 33.609265 61.036312 0
M  V30 30 C 39.192263 28.210949 51.920627 0
M  V30 31 N 39.643413 30.236211 53.312145 0
M  V30 32 C 41.152837 31.946948 63.590343 0
M  V30 33 C 38.067744 28.576222 57.795578 0
M  V30 34 C 39.602122 28.955600 50.746778 0
M  V30 35 H 39.226874 25.795273 53.767773 0
M  V30 36 H 36.845134 30.975704 58.161903 0
M  V30 37 H 39.657321 29.860507 58.501441 0
M  V30 38 H 38.313429 29.648892 59.622433 0
M  V30 39 H 41.926129 28.624336 63.663854 0
M  V30 40 H 37.579652 36.517488 59.639680 0
M  V30 41 H 37.645135 35.040095 58.772256 0
M  V30 42 H 36.045135 35.337736 61.314791 0
M  V30 43 H 35.425176 35.838676 59.741318 0
M  V30 44 H 39.403446 32.537751 58.671910 0
M  V30 45 H 37.886254 33.185803 58.227565 0
M  V30 46 H 42.205515 30.695674 64.998899 0
M  V30 47 H 38.943908 26.882216 55.966750 0
M  V30 48 H 37.821226 30.447389 54.802574 0
M  V30 49 H 36.624517 30.137806 55.967685 0
M  V30 50 H 39.843206 30.840843 60.641057 0
M  V30 51 H 40.326803 30.833404 50.063772 0
M  V30 52 H 37.765404 32.095124 56.344991 0
M  V30 53 H 40.459976 31.833022 52.278244 0
M  V30 54 H 39.918798 28.417585 60.501857 0
M  V30 55 H 41.638912 28.110293 60.741637 0
M  V30 56 H 40.445141 27.503366 61.897526 0
M  V30 57 H 34.607710 33.632182 60.218967 0
M  V30 58 H 35.684402 33.533363 58.858877 0
M  V30 59 H 35.376712 31.083723 59.661894 0
M  V30 60 H 36.337568 30.516362 61.024229 0
M  V30 61 H 34.845147 31.376542 61.303889 0
M  V30 62 H 36.459715 32.965502 61.748561 0
M  V30 63 H 40.384581 34.186733 62.399419 0
M  V30 64 H 38.152006 31.631213 60.823521 0
M  V30 65 H 37.700328 29.366140 53.017635 0
M  V30 66 H 41.277547 32.842396 64.181572 0
M  V30 67 H 37.011657 28.419372 58.016843 0
M  V30 68 H 38.595833 27.675396 58.109110 0
M  V30 69 H 39.605490 28.440136 49.798674 0
M  V30 END ATOM
M  V30 BEGIN BOND
M  V30 1 1 4 3
M  V30 2 1 6 5
M  V30 3 1 8 7
M  V30 4 1 9 3
M  V30 5 2 10 6
M  V30 6 2 13 12
M  V30 7 1 14 13
M  V30 8 2 15 2
M  V30 9 1 15 12
M  V30 10 1 16 1
M  V30 11 2 16 5
M  V30 12 1 17 2
M  V30 13 1 19 3
M  V30 14 1 19 14
M  V30 15 1 20 18
M  V30 16 1 21 5
M  V30 17 1 22 8
M  V30 18 1 24 22
M  V30 19 1 24 23
M  V30 20 1 25 1
M  V30 21 1 26 9
M  V30 22 1 26 24
M  V30 23 1 27 7
M  V30 24 2 27 11
M  V30 25 1 28 15
M  V30 26 2 29 25
M  V30 27 1 29 26
M  V30 28 1 29 27
M  V30 29 2 30 17
M  V30 30 1 30 28
M  V30 31 2 31 20
M  V30 32 1 31 28
M  V30 33 2 32 1
M  V30 34 1 32 10
M  V30 35 1 33 4
M  V30 36 1 33 13
M  V30 37 2 34 18
M  V30 38 1 34 30
M  V30 39 1 35 2
M  V30 40 1 3 36 CFG=3
M  V30 41 1 37 4
M  V30 42 1 38 4
M  V30 43 1 39 6
M  V30 44 1 40 7
M  V30 45 1 41 7
M  V30 46 1 42 8
M  V30 47 1 43 8
M  V30 48 1 44 9
M  V30 49 1 45 9
M  V30 50 1 46 10
M  V30 51 1 47 12
M  V30 52 1 48 14
M  V30 53 1 49 14
M  V30 54 1 50 16
M  V30 55 1 51 18
M  V30 56 1 52 19
M  V30 57 1 53 20
M  V30 58 1 54 21
M  V30 59 1 55 21
M  V30 60 1 56 21
M  V30 61 1 57 22
M  V30 62 1 58 22
M  V30 63 1 59 23
M  V30 64 1 60 23
M  V30 65 1 61 23
M  V30 66 1 24 62 CFG=1
M  V30 67 1 63 25
M  V30 68 1 26 64 CFG=1
M  V30 69 1 28 65 CFG=3
M  V30 70 1 66 32
M  V30 71 1 67 33
M  V30 72 1 68 33
M  V30 73 1 69 34
M  V30 END BOND
M  V30 END CTAB
M  END
>  <i_epik_Tot_Q>  (1) 
0

>  <i_epik_Tot_abs_Q>  (1) 
0

>  <i_i_glide_confnum>  (1) 
23

>  <i_i_glide_lignum>  (1) 
39

>  <i_i_glide_posenum>  (1) 
350

>  <i_i_glide_rotatable_bonds>  (1) 
4

>  <i_lp_mmshare_version>  (1) 
72125

>  <i_m_source_file_index>  (1) 
17

>  <i_f3d_flags>  (1) 
0

>  <num_sample>  (1) 
100

>  <b_lp_Chiralities_Consistent>  (1) 
1

>  <r_epik_Charging_Adjusted_Penalty>  (1) 
0.56391873878667209

>  <r_epik_Ionization_Penalty>  (1) 
0.56391873878667209

>  <r_epik_Ionization_Penalty_Charging>  (1) 
0

>  <r_epik_Ionization_Penalty_Neutral>  (1) 
0.56391873878667209

>  <r_epik_State_Penalty>  (1) 
0.56391873878667209

>  <r_glide_ring_energy>  (1) 
0

>  <r_i_docking_score>  (1) 
-6.415066025224565

>  <r_i_glide_ecoul>  (1) 
-2.0227677154675034

>  <r_i_glide_eff_state_penalty>  (1) 
0.56391873878667209

>  <r_i_glide_einternal>  (1) 
27.559022653244647

>  <r_i_glide_emodel>  (1) 
-44.298714619706544

>  <r_i_glide_emodel_strain>  (1) 
0.16925282731594393

>  <r_i_glide_energy>  (1) 
-44.022214770330642

>  <r_i_glide_erotb>  (1) 
0.29265828080580603

>  <r_i_glide_esite>  (1) 
0

>  <r_i_glide_evdw>  (1) 
-41.99944705486314

>  <r_i_glide_gscore>  (1) 
-6.978984764011237

>  <r_i_glide_gscore_strain>  (1) 
0

>  <r_i_glide_hbond>  (1) 
0

>  <r_i_glide_ligand_efficiency>  (1) 
-0.18867841250660486

>  <r_i_glide_ligand_efficiency_ln>  (1) 
-1.4172680214792583

>  <r_i_glide_ligand_efficiency_sa>  (1) 
-0.6112448118026983

>  <r_i_glide_lipo>  (1) 
-2.8767062878097924

>  <r_i_glide_metal>  (1) 
-0

>  <r_i_glide_rewards>  (1) 
-1.991549246943968

>  <r_lp_Energy>  (1) 
57.867013

>  <s_epik_Chemistry_Notes>  (1) 
This compound has an imine and may undergo hydrolysis.

>  <s_epik_cmdline>  (1) 
J2VwaWtfcHl0aG9uJywgJy1waHQnLCAnMS4wJywgJy1waCcsICc3LjQnLCAnLXRuJywgJzgnLCAnLW1hJywgJzUwMCcsICctaW1hZScsICc8aW5maWxlLm1hZT4nLCAnLW9tYWUnLCAnPG91dGZpbGUubWFlPic=

>  <s_epik_input>  (1) 
W2NIXTFbY0hdW2NIXWMoW0NIM10pW2NIXWMxL1tDSF09QyhDKD1PKVtDSDJdW0NIMl1bQ0gyXVtDQEhdMltDSDNdKVxbQ0BASF0yW0NIMl1bQ0BASF0zW0NIMl1bQ0gyXUMoXFtDSDJdW05IXTMpPVtDSF1cQzQ9W0NIXU49QyhbQ0BASF00NSlbQ0hdPVtDSF1bQ0hdPU41

>  <s_glide_docking_method>  (1) 
confgen

>  <s_i_glide_gridfile>  (1) 
gpcr_5ht2c_6bqh_protein_autoprepared_prepared

>  <s_lp_Force_Field>  (1) 
S-OPLS

>  <s_lp_Variant>  (1) 
DiffSBDD_16-7

>  <s_m_source_file>  (1) 
generated_GPCR_5HT2C_ligand_DiffSBDD_2026-06-23_prepared.sdf

>  <GenAI_Model>  (1) 
DiffSBDD

>  <Protein>  (1) 
GPCR_5HT2C

$$$$
DiffSBDD_15
     RDKit          3D

  0  0  0  0  0  0  0  0  0  0999 V3000
M  V30 BEGIN CTAB
M  V30 COUNTS 75 76 0 0 1
M  V30 BEGIN ATOM
M  V30 1 C 36.824935 32.053467 59.478905 0
M  V30 2 C 40.264342 34.883973 61.419255 0
M  V30 3 N 37.182818 25.294413 56.145396 0
M  V30 4 C 40.365581 33.748695 62.474079 0 CFG=2
M  V30 5 C 36.983004 38.083657 61.666084 0
M  V30 6 C 38.423044 28.100272 55.522240 0
M  V30 7 O 38.845208 24.166460 57.199774 0
M  V30 8 C 37.941861 25.586972 54.932626 0
M  V30 9 C 38.440486 30.864251 62.255649 0
M  V30 10 C 38.757693 36.561078 62.652560 0
M  V30 11 C 37.698141 24.608465 57.177511 0
M  V30 12 O 35.017779 37.336983 66.172823 0
M  V30 13 C 41.233980 34.166043 63.673193 0
M  V30 14 C 37.706234 34.811266 60.995504 0
M  V30 15 C 38.979494 26.721571 55.093448 0
M  V30 16 C 40.900157 32.431603 61.861770 0
M  V30 17 C 38.936036 35.684051 61.386359 0 CFG=2
M  V30 18 C 38.469875 28.311796 57.040174 0
M  V30 19 C 35.725022 38.703426 61.739822 0
M  V30 20 C 39.367051 30.729386 61.037117 0 CFG=2
M  V30 21 C 37.416215 37.269709 62.724505 0
M  V30 22 C 39.687355 29.330912 58.934488 0
M  V30 23 C 36.591687 33.505961 59.033216 0
M  V30 24 C 36.599987 37.120164 63.856065 0
M  V30 25 C 35.331839 37.737648 63.899912 0
M  V30 26 C 37.671067 34.498836 59.490707 0
M  V30 27 O 37.646630 27.765971 57.768562 0
M  V30 28 O 40.045231 31.965550 60.819512 0
M  V30 29 C 34.894998 38.496198 62.827905 0
M  V30 30 C 38.071088 31.383589 58.858847 0
M  V30 31 C 34.472652 37.601649 65.100171 0
M  V30 32 O 33.245135 37.745584 64.973366 0 CHG=-1
M  V30 33 N 39.449878 29.102717 57.505008 0
M  V30 34 C 38.685795 30.239864 59.710106 0 CFG=2
M  V30 35 H 35.952933 31.455457 59.207839 0
M  V30 36 H 36.841273 32.030353 60.559513 0
M  V30 37 H 40.423278 34.467270 60.428216 0
M  V30 38 H 41.095975 35.577374 61.549618 0
M  V30 39 H 36.233542 25.632938 56.202802 0
M  V30 40 H 39.376950 33.544804 62.878371 0
M  V30 41 H 37.610754 38.233426 60.800517 0
M  V30 42 H 39.017337 28.883425 55.049719 0
M  V30 43 H 37.407909 28.243163 55.150837 0
M  V30 44 H 38.437293 24.676319 54.589270 0
M  V30 45 H 37.234837 25.857731 54.147683 0
M  V30 46 H 37.645175 30.137744 62.211144 0
M  V30 47 H 38.983078 30.706059 63.188626 0
M  V30 48 H 37.978543 31.843490 62.324820 0
M  V30 49 H 38.848222 35.936299 63.538423 0
M  V30 50 H 39.556672 37.300226 62.722304 0
M  V30 51 H 36.963574 24.498638 57.990005 0
M  V30 52 H 42.264694 34.349666 63.371596 0
M  V30 53 H 40.864130 35.078546 64.141455 0
M  V30 54 H 41.243103 33.392119 64.440546 0
M  V30 55 H 36.766388 35.310923 61.228316 0
M  V30 56 H 37.685566 33.896694 61.577307 0
M  V30 57 H 39.763617 26.397147 55.780651 0
M  V30 58 H 39.484132 26.843489 54.134359 0
M  V30 59 H 41.884860 32.601198 61.426799 0
M  V30 60 H 41.042674 31.677782 62.636135 0
M  V30 61 H 39.041714 36.398306 60.571296 0
M  V30 62 H 35.392154 39.330931 60.967634 0
M  V30 63 H 40.107124 29.975404 61.313358 0
M  V30 64 H 39.752137 28.363330 59.437770 0
M  V30 65 H 40.694278 29.737296 59.001111 0
M  V30 66 H 36.540182 33.537173 57.945644 0
M  V30 67 H 35.616126 33.842801 59.385203 0
M  V30 68 H 36.939644 36.537720 64.692269 0
M  V30 69 H 38.641924 34.137755 59.160794 0
M  V30 70 H 37.495995 35.437019 58.967833 0
M  V30 71 H 33.920627 38.937750 62.852053 0
M  V30 72 H 38.848080 32.106506 58.628468 0
M  V30 73 H 37.755626 31.010747 57.884794 0
M  V30 74 H 40.088001 29.527227 56.848659 0
M  V30 75 H 37.858616 29.580051 59.972893 0
M  V30 END ATOM
M  V30 BEGIN BOND
M  V30 1 1 4 2
M  V30 2 1 8 3
M  V30 3 1 11 3
M  V30 4 2 11 7
M  V30 5 1 13 4
M  V30 6 1 15 6
M  V30 7 1 15 8
M  V30 8 1 16 4
M  V30 9 1 17 2
M  V30 10 1 17 10
M  V30 11 1 17 14
M  V30 12 1 18 6
M  V30 13 2 19 5
M  V30 14 1 20 9
M  V30 15 1 21 5
M  V30 16 1 21 10
M  V30 17 1 23 1
M  V30 18 2 24 21
M  V30 19 1 25 24
M  V30 20 1 26 14
M  V30 21 1 26 23
M  V30 22 2 27 18
M  V30 23 1 28 16
M  V30 24 1 28 20
M  V30 25 1 29 19
M  V30 26 2 29 25
M  V30 27 1 30 1
M  V30 28 2 31 12
M  V30 29 1 31 25
M  V30 30 1 32 31
M  V30 31 1 33 18
M  V30 32 1 33 22
M  V30 33 1 34 20
M  V30 34 1 34 22
M  V30 35 1 34 30
M  V30 36 1 35 1
M  V30 37 1 36 1
M  V30 38 1 37 2
M  V30 39 1 38 2
M  V30 40 1 39 3
M  V30 41 1 4 40 CFG=1
M  V30 42 1 41 5
M  V30 43 1 42 6
M  V30 44 1 43 6
M  V30 45 1 44 8
M  V30 46 1 45 8
M  V30 47 1 46 9
M  V30 48 1 47 9
M  V30 49 1 48 9
M  V30 50 1 49 10
M  V30 51 1 50 10
M  V30 52 1 51 11
M  V30 53 1 52 13
M  V30 54 1 53 13
M  V30 55 1 54 13
M  V30 56 1 55 14
M  V30 57 1 56 14
M  V30 58 1 57 15
M  V30 59 1 58 15
M  V30 60 1 59 16
M  V30 61 1 60 16
M  V30 62 1 17 61 CFG=3
M  V30 63 1 62 19
M  V30 64 1 20 63 CFG=1
M  V30 65 1 64 22
M  V30 66 1 65 22
M  V30 67 1 66 23
M  V30 68 1 67 23
M  V30 69 1 68 24
M  V30 70 1 69 26
M  V30 71 1 70 26
M  V30 72 1 71 29
M  V30 73 1 72 30
M  V30 74 1 73 30
M  V30 75 1 74 33
M  V30 76 1 34 75 CFG=1
M  V30 END BOND
M  V30 END CTAB
M  END
>  <i_epik_Tot_Q>  (1) 
-1

>  <i_epik_Tot_abs_Q>  (1) 
1

>  <i_i_glide_confnum>  (1) 
780

>  <i_i_glide_lignum>  (1) 
31

>  <i_i_glide_posenum>  (1) 
200

>  <i_i_glide_rotatable_bonds>  (1) 
11

>  <i_lp_mmshare_version>  (1) 
72125

>  <i_m_source_file_index>  (1) 
16

>  <i_f3d_flags>  (1) 
0

>  <num_sample>  (1) 
100

>  <b_lp_Chiralities_Consistent>  (1) 
1

>  <r_epik_Charging_Adjusted_Penalty>  (1) 
0.00039988353432540339

>  <r_epik_Ionization_Penalty>  (1) 
0.00039992702821499621

>  <r_epik_Ionization_Penalty_Charging>  (1) 
0.00039988353432540339

>  <r_epik_Ionization_Penalty_Neutral>  (1) 
4.349388959280561e-08

>  <r_epik_State_Penalty>  (1) 
-0

>  <r_glide_ring_energy>  (1) 
0

>  <r_i_docking_score>  (1) 
-6.4052660705151521

>  <r_i_glide_ecoul>  (1) 
-1.4156759177981901

>  <r_i_glide_eff_state_penalty>  (1) 
-0

>  <r_i_glide_einternal>  (1) 
14.574820777445918

>  <r_i_glide_emodel>  (1) 
-29.763985517149976

>  <r_i_glide_emodel_strain>  (1) 
2.4451702113517371

>  <r_i_glide_energy>  (1) 
-31.693240156477348

>  <r_i_glide_erotb>  (1) 
0.81156586864238245

>  <r_i_glide_esite>  (1) 
-0.0099030742247524436

>  <r_i_glide_evdw>  (1) 
-30.277564238679158

>  <r_i_glide_gscore>  (1) 
-6.4052660705151521

>  <r_i_glide_gscore_strain>  (1) 
0

>  <r_i_glide_hbond>  (1) 
0

>  <r_i_glide_ligand_efficiency>  (1) 
-0.1883901785445633

>  <r_i_glide_ligand_efficiency_ln>  (1) 
-1.4151029366045302

>  <r_i_glide_ligand_efficiency_sa>  (1) 
-0.61031104565773953

>  <r_i_glide_lipo>  (1) 
-3.8613994101652893

>  <r_i_glide_metal>  (1) 
-0

>  <r_i_glide_rewards>  (1) 
-1.619299855163806

>  <r_lp_Energy>  (1) 
33.049985999999997

>  <r_lp_tautomer_probability>  (1) 
1

>  <s_epik_cmdline>  (1) 
J2VwaWtfcHl0aG9uJywgJy1waHQnLCAnMS4wJywgJy1waCcsICc3LjQnLCAnLXRuJywgJzgnLCAnLW1hJywgJzUwMCcsICctaW1hZScsICc8aW5maWxlLm1hZT4nLCAnLW9tYWUnLCAnPG91dGZpbGUubWFlPic=

>  <s_epik_input>  (1) 
Tz1bQ0hdW05IXVtDSDJdW0NIMl1bQ0gyXUMoPU8pW05IXVtDSDJdW0NAQEhdKFtDQEhdKFtDSDNdKU9bQ0gyXTEpW0NIMl1bQ0gyXVtDSDJdW0NIMl1bQ0gyXVtDQEhdKFtDSDJdW0NAQEhdMVtDSDNdKVtDSDJdYzJbY0hdW2NIXVtjSF1jKFtjSF0yKUMoPU8pW09IXQ==

>  <s_glide_docking_method>  (1) 
confgen

>  <s_i_glide_gridfile>  (1) 
gpcr_5ht2c_6bqh_protein_autoprepared_prepared

>  <s_lp_Force_Field>  (1) 
S-OPLS

>  <s_lp_Variant>  (1) 
DiffSBDD_15-1

>  <s_m_source_file>  (1) 
generated_GPCR_5HT2C_ligand_DiffSBDD_2026-06-23_prepared.sdf

>  <GenAI_Model>  (1) 
DiffSBDD

>  <Protein>  (1) 
GPCR_5HT2C

$$$$
DiffSBDD_9
     RDKit          3D

  0  0  0  0  0  0  0  0  0  0999 V3000
M  V30 BEGIN CTAB
M  V30 COUNTS 67 68 0 0 1
M  V30 BEGIN ATOM
M  V30 1 C 37.227659 33.002880 59.511015 0 CFG=1
M  V30 2 C 37.035978 25.624538 57.011393 0
M  V30 3 C 37.128235 37.905640 60.984977 0
M  V30 4 C 39.388862 27.825394 51.204460 0
M  V30 5 O 37.015946 36.961158 61.926553 0
M  V30 6 O 37.245133 28.320512 52.167949 0
M  V30 7 C 36.705598 33.310168 60.901836 0 CFG=1
M  V30 8 C 38.147395 32.881963 60.722258 0
M  V30 9 N 36.848330 31.679687 58.968626 0 CHG=1
M  V30 10 C 38.433930 28.986343 56.837582 0
M  V30 11 C 39.506450 27.021840 55.685717 0 CFG=2
M  V30 12 C 38.959576 27.223153 54.261060 0
M  V30 13 C 39.036209 28.654064 53.652672 0 CFG=1
M  V30 14 C 37.587028 29.606338 57.910954 0
M  V30 15 C 38.591592 28.696705 52.187422 0 CFG=1
M  V30 16 C 37.988112 26.604159 57.725182 0
M  V30 17 C 39.070356 29.959375 55.846696 0
M  V30 18 C 41.477405 27.459084 57.045814 0
M  V30 19 C 36.310864 34.705249 61.357503 0
M  V30 20 C 37.357588 34.062528 58.434445 0
M  V30 21 O 36.576324 29.081152 58.365667 0
M  V30 22 C 38.023838 30.954112 58.472444 0
M  V30 23 O 37.634754 37.736778 59.874803 0
M  V30 24 C 37.490761 35.650920 61.675933 0
M  V30 25 C 38.612542 27.626859 56.755720 0
M  V30 26 C 38.393718 29.774445 54.480458 0
M  V30 27 O 35.847656 32.284104 61.367800 0
M  V30 28 O 40.845137 27.496504 55.769508 0
M  V30 29 C 38.998325 25.835216 58.563981 0
M  V30 30 H 36.321921 26.137770 56.373091 0
M  V30 31 H 37.574889 24.917547 56.380166 0
M  V30 32 H 36.468936 25.034183 57.730075 0
M  V30 33 H 36.702573 38.839553 61.352420 0
M  V30 34 H 40.445652 28.095190 51.226516 0
M  V30 35 H 39.298030 26.762117 51.422888 0
M  V30 36 H 39.038810 27.973110 50.181952 0
M  V30 37 H 37.180588 27.388889 52.001073 0
M  V30 38 H 38.943997 33.617575 60.811946 0
M  V30 39 H 38.405718 31.904120 61.127931 0
M  V30 40 H 36.408187 31.143241 59.705499 0
M  V30 41 H 39.567032 25.948683 55.850473 0
M  V30 42 H 39.523203 26.545104 53.620424 0
M  V30 43 H 37.928327 26.865549 54.241921 0
M  V30 44 H 40.045140 28.989637 53.601086 0
M  V30 45 H 38.683287 29.721637 51.836326 0
M  V30 46 H 37.463647 27.071572 58.516419 0
M  V30 47 H 38.952107 31.011212 56.067548 0
M  V30 48 H 40.148170 29.815605 55.795160 0
M  V30 49 H 42.541128 27.680923 56.967795 0
M  V30 50 H 41.053552 28.200220 57.724802 0
M  V30 51 H 41.399523 26.482061 57.507495 0
M  V30 52 H 35.697305 35.127898 60.561837 0
M  V30 53 H 35.668949 34.631549 62.235895 0
M  V30 54 H 37.552624 35.040333 58.868961 0
M  V30 55 H 38.162966 33.817875 57.740841 0
M  V30 56 H 36.426808 34.129465 57.870744 0
M  V30 57 H 38.584749 31.608427 57.820443 0
M  V30 58 H 38.682153 30.733739 59.312151 0
M  V30 59 H 38.036988 35.331087 62.562730 0
M  V30 60 H 38.223160 35.658175 60.869734 0
M  V30 61 H 38.492778 30.710905 53.930238 0
M  V30 62 H 37.318774 29.616178 54.589444 0
M  V30 63 H 34.954850 32.573607 61.232884 0
M  V30 64 H 39.711746 26.506490 59.037747 0
M  V30 65 H 38.448754 25.337971 59.362719 0
M  V30 66 H 39.539579 25.086003 57.986931 0
M  V30 67 H 36.172633 31.770019 58.199836 0
M  V30 END ATOM
M  V30 BEGIN BOND
M  V30 1 1 5 3
M  V30 2 1 7 1
M  V30 3 1 8 1
M  V30 4 1 8 7
M  V30 5 1 9 1
M  V30 6 1 12 11
M  V30 7 1 13 12
M  V30 8 1 14 10
M  V30 9 1 15 4
M  V30 10 1 15 6
M  V30 11 1 15 13
M  V30 12 1 16 2
M  V30 13 1 17 10
M  V30 14 1 19 7
M  V30 15 1 1 20 CFG=3
M  V30 16 2 21 14
M  V30 17 1 22 9
M  V30 18 1 22 14
M  V30 19 2 23 3
M  V30 20 1 24 5
M  V30 21 1 24 19
M  V30 22 2 25 10
M  V30 23 1 25 11
M  V30 24 1 25 16
M  V30 25 1 26 13
M  V30 26 1 26 17
M  V30 27 1 7 27 CFG=1
M  V30 28 1 28 11
M  V30 29 1 28 18
M  V30 30 1 29 16
M  V30 31 1 30 2
M  V30 32 1 31 2
M  V30 33 1 32 2
M  V30 34 1 33 3
M  V30 35 1 34 4
M  V30 36 1 35 4
M  V30 37 1 36 4
M  V30 38 1 37 6
M  V30 39 1 38 8
M  V30 40 1 39 8
M  V30 41 1 40 9
M  V30 42 1 11 41 CFG=1
M  V30 43 1 42 12
M  V30 44 1 43 12
M  V30 45 1 13 44 CFG=3
M  V30 46 1 15 45 CFG=3
M  V30 47 1 46 16
M  V30 48 1 47 17
M  V30 49 1 48 17
M  V30 50 1 49 18
M  V30 51 1 50 18
M  V30 52 1 51 18
M  V30 53 1 52 19
M  V30 54 1 53 19
M  V30 55 1 54 20
M  V30 56 1 55 20
M  V30 57 1 56 20
M  V30 58 1 57 22
M  V30 59 1 58 22
M  V30 60 1 59 24
M  V30 61 1 60 24
M  V30 62 1 61 26
M  V30 63 1 62 26
M  V30 64 1 63 27
M  V30 65 1 64 29
M  V30 66 1 65 29
M  V30 67 1 66 29
M  V30 68 1 67 9
M  V30 END BOND
M  V30 END CTAB
M  END
>  <i_epik_Tot_Q>  (1) 
1

>  <i_epik_Tot_abs_Q>  (1) 
1

>  <i_i_glide_confnum>  (1) 
146

>  <i_i_glide_lignum>  (1) 
13

>  <i_i_glide_posenum>  (1) 
62

>  <i_i_glide_rotatable_bonds>  (1) 
13

>  <i_lp_mmshare_version>  (1) 
72125

>  <i_m_source_file_index>  (1) 
10

>  <i_f3d_flags>  (1) 
0

>  <num_sample>  (1) 
100

>  <b_lp_Chiralities_Consistent>  (1) 
1

>  <r_epik_Charging_Adjusted_Penalty>  (1) 
0.43257487955488089

>  <r_epik_Ionization_Penalty>  (1) 
0.21628819114950359

>  <r_epik_Ionization_Penalty_Charging>  (1) 
0.21628743977744047

>  <r_epik_Ionization_Penalty_Neutral>  (1) 
7.5137206312442099e-07

>  <r_epik_State_Penalty>  (1) 
0.21628743977744042

>  <r_glide_ring_energy>  (1) 
0

>  <r_i_docking_score>  (1) 
-6.4036538620696595

>  <r_i_glide_ecoul>  (1) 
-11.052919221918586

>  <r_i_glide_eff_state_penalty>  (1) 
0.21628743977744042

>  <r_i_glide_einternal>  (1) 
14.375178302578668

>  <r_i_glide_emodel>  (1) 
-40.630511822245978

>  <r_i_glide_emodel_strain>  (1) 
5.8356388653504894

>  <r_i_glide_energy>  (1) 
-35.661389459094124

>  <r_i_glide_erotb>  (1) 
0.92691700141960698

>  <r_i_glide_esite>  (1) 
-0.15160328612432974

>  <r_i_glide_evdw>  (1) 
-24.608470237175535

>  <r_i_glide_gscore>  (1) 
-6.6199413018471001

>  <r_i_glide_gscore_strain>  (1) 
0.45890971633762234

>  <r_i_glide_hbond>  (1) 
-0.50169252825876254

>  <r_i_glide_ligand_efficiency>  (1) 
-0.22081565041619516

>  <r_i_glide_ligand_efficiency_ln>  (1) 
-1.4662743517627683

>  <r_i_glide_ligand_efficiency_sa>  (1) 
-0.67841563814844053

>  <r_i_glide_lipo>  (1) 
-2.9903674447565862

>  <r_i_glide_metal>  (1) 
-0

>  <r_i_glide_rewards>  (1) 
-1.473743365318086

>  <r_lp_Energy>  (1) 
43.017908999999996

>  <s_epik_Chemistry_Notes>  (1) 
This compound has an ester and may undergo hydrolysis at high or low pH.

>  <s_epik_cmdline>  (1) 
J2VwaWtfcHl0aG9uJywgJy1waHQnLCAnMS4wJywgJy1waCcsICc3LjQnLCAnLXRuJywgJzgnLCAnLW1hJywgJzUwMCcsICctaW1hZScsICc8aW5maWxlLm1hZT4nLCAnLW9tYWUnLCAnPG91dGZpbGUubWFlPic=

>  <s_epik_input>  (1) 
Tz1bQ0hdT1tDSDJdW0NIMl1bQ0BAXShbQ0gyXTEpKFtPSF0pW0NAXTEoW0NIM10pW05IXVtDSDJdQyg9TylDMj1DKFtDSF0oW0NIM10pW0NIM10pW0NASF0oT1tDSDNdKVtDSDJdW0NAQEhdKFtDQEBIXShbQ0gzXSlbT0hdKVtDSDJdW0NIMl0y

>  <s_glide_docking_method>  (1) 
confgen

>  <s_i_glide_gridfile>  (1) 
gpcr_5ht2c_6bqh_protein_autoprepared_prepared

>  <s_lp_Force_Field>  (1) 
S-OPLS

>  <s_lp_Variant>  (1) 
DiffSBDD_9-1

>  <s_m_source_file>  (1) 
generated_GPCR_5HT2C_ligand_DiffSBDD_2026-06-23_prepared.sdf

>  <GenAI_Model>  (1) 
DiffSBDD

>  <Protein>  (1) 
GPCR_5HT2C

$$$$
DiffSBDD_25
     RDKit          3D

  0  0  0  0  0  0  0  0  0  0999 V3000
M  V30 BEGIN CTAB
M  V30 COUNTS 67 70 0 0 1
M  V30 BEGIN ATOM
M  V30 1 C 42.267248 31.110017 64.185842 0
M  V30 2 C 37.448064 29.800475 55.768730 0
M  V30 3 O 42.428299 30.204073 65.035856 0 CHG=-1
M  V30 4 C 36.832376 32.129184 60.788254 0
M  V30 5 N 40.182128 31.853989 62.231193 0
M  V30 6 C 38.828923 30.268808 55.330493 0
M  V30 7 C 42.314283 32.947035 65.986770 0
M  V30 8 C 41.493131 35.088454 65.694878 0
M  V30 9 C 41.242286 27.664994 56.941212 0
M  V30 10 C 39.877878 29.167672 55.462353 0
M  V30 11 C 39.842241 28.301008 56.764307 0 CFG=2
M  V30 12 C 40.286219 35.924399 63.641343 0
M  V30 13 O 39.046896 26.377374 57.877855 0
M  V30 14 O 40.409698 34.082965 61.645430 0
M  V30 15 N 37.944198 30.388427 59.617113 0
M  V30 16 C 41.168161 33.497829 63.858581 0
M  V30 17 O 42.445172 30.924038 62.967771 0
M  V30 18 C 38.734873 26.337413 55.544776 0
M  V30 19 C 41.893520 32.523268 64.681254 0
M  V30 20 C 39.552793 29.198861 58.007726 0
M  V30 21 C 38.074836 29.491197 58.423129 0 CFG=2
M  V30 22 C 40.564488 33.169418 62.460503 0
M  V30 23 C 39.023818 30.378309 60.618514 0
M  V30 24 N 42.095647 34.180533 66.472856 0
M  V30 25 C 39.303673 25.017890 55.979710 0
M  V30 26 C 36.852474 31.202676 59.836253 0
M  V30 27 N 43.018242 32.085124 66.823381 0
M  V30 28 N 38.826599 27.223525 56.710435 0
M  V30 29 C 37.202013 30.058676 57.260925 0
M  V30 30 C 39.089795 31.617445 61.577042 0
M  V30 31 C 37.727056 24.379181 57.884412 0
M  V30 32 N 37.900071 32.382532 61.634998 0
M  V30 33 C 39.054600 25.020977 57.467069 0 CFG=2
M  V30 34 C 41.004116 34.816873 64.408078 0
M  V30 35 H 37.245335 28.778336 55.463490 0
M  V30 36 H 36.710125 30.392448 55.224799 0
M  V30 37 H 35.980084 32.773338 60.949594 0
M  V30 38 H 38.791550 30.592759 54.289760 0
M  V30 39 H 39.127107 31.151944 55.898158 0
M  V30 40 H 41.371851 36.072376 66.124965 0
M  V30 41 H 42.037204 28.408091 56.891659 0
M  V30 42 H 41.363334 27.152442 57.895972 0
M  V30 43 H 41.426836 26.929606 56.167742 0
M  V30 44 H 39.810797 28.563420 54.567869 0
M  V30 45 H 40.844964 29.659821 55.367766 0
M  V30 46 H 40.126493 36.790555 64.284422 0
M  V30 47 H 40.881280 36.269400 62.795027 0
M  V30 48 H 39.299279 35.608441 63.302415 0
M  V30 49 H 37.675994 26.212020 55.317944 0
M  V30 50 H 39.210641 26.679065 54.631780 0
M  V30 51 H 40.080949 30.137746 57.880554 0
M  V30 52 H 40.019702 28.697825 58.855146 0
M  V30 53 H 37.637809 28.537010 58.715292 0
M  V30 54 H 38.929255 29.474670 61.221159 0
M  V30 55 H 40.002481 30.336203 60.148276 0
M  V30 56 H 40.373161 24.984870 55.776874 0
M  V30 57 H 38.841721 24.174120 55.468114 0
M  V30 58 H 36.019975 31.038837 59.170948 0
M  V30 59 H 43.166634 31.114330 66.555064 0
M  V30 60 H 43.283811 32.353493 67.756609 0
M  V30 61 H 36.176171 29.738612 57.457003 0
M  V30 62 H 37.245168 31.145038 57.324192 0
M  V30 63 H 37.660372 23.337842 57.575860 0
M  V30 64 H 37.645160 24.400149 58.967769 0
M  V30 65 H 36.872912 24.914405 57.469340 0
M  V30 66 H 39.896462 24.537640 57.953768 0
M  V30 67 H 37.812113 33.177409 62.249449 0
M  V30 END ATOM
M  V30 BEGIN BOND
M  V30 1 1 3 1
M  V30 2 1 6 2
M  V30 3 1 10 6
M  V30 4 1 11 9 CFG=1
M  V30 5 1 11 10
M  V30 6 2 17 1
M  V30 7 1 19 1
M  V30 8 2 19 7
M  V30 9 1 19 16
M  V30 10 1 20 11
M  V30 11 1 21 15
M  V30 12 1 21 20
M  V30 13 1 22 5
M  V30 14 2 22 14
M  V30 15 1 22 16
M  V30 16 1 23 15
M  V30 17 1 24 7
M  V30 18 2 24 8
M  V30 19 1 25 18
M  V30 20 2 26 4
M  V30 21 1 26 15
M  V30 22 1 27 7
M  V30 23 1 28 11
M  V30 24 1 28 13
M  V30 25 1 28 18
M  V30 26 1 29 2
M  V30 27 1 29 21
M  V30 28 2 30 5
M  V30 29 1 30 23
M  V30 30 1 32 4
M  V30 31 1 32 30
M  V30 32 1 33 13
M  V30 33 1 33 25
M  V30 34 1 33 31
M  V30 35 1 34 8
M  V30 36 1 34 12
M  V30 37 2 34 16
M  V30 38 1 35 2
M  V30 39 1 36 2
M  V30 40 1 37 4
M  V30 41 1 38 6
M  V30 42 1 39 6
M  V30 43 1 40 8
M  V30 44 1 41 9
M  V30 45 1 42 9
M  V30 46 1 43 9
M  V30 47 1 44 10
M  V30 48 1 45 10
M  V30 49 1 46 12
M  V30 50 1 47 12
M  V30 51 1 48 12
M  V30 52 1 49 18
M  V30 53 1 50 18
M  V30 54 1 51 20
M  V30 55 1 52 20
M  V30 56 1 21 53 CFG=1
M  V30 57 1 54 23
M  V30 58 1 55 23
M  V30 59 1 56 25
M  V30 60 1 57 25
M  V30 61 1 58 26
M  V30 62 1 59 27
M  V30 63 1 60 27
M  V30 64 1 61 29
M  V30 65 1 62 29
M  V30 66 1 63 31
M  V30 67 1 64 31
M  V30 68 1 65 31
M  V30 69 1 33 66 CFG=1
M  V30 70 1 67 32
M  V30 END BOND
M  V30 END CTAB
M  END
>  <i_epik_Tot_Q>  (1) 
-1

>  <i_epik_Tot_abs_Q>  (1) 
1

>  <i_i_glide_confnum>  (1) 
383

>  <i_i_glide_lignum>  (1) 
61

>  <i_i_glide_posenum>  (1) 
134

>  <i_i_glide_rotatable_bonds>  (1) 
5

>  <i_lp_mmshare_version>  (1) 
72125

>  <i_m_source_file_index>  (1) 
26

>  <i_f3d_flags>  (1) 
0

>  <num_sample>  (1) 
100

>  <b_lp_Chiralities_Consistent>  (1) 
1

>  <r_epik_Charging_Adjusted_Penalty>  (1) 
0.31558791334810349

>  <r_epik_Ionization_Penalty>  (1) 
0.22690283062159758

>  <r_epik_Ionization_Penalty_Charging>  (1) 
2.1847890769935955e-05

>  <r_epik_Ionization_Penalty_Neutral>  (1) 
0.22688098273082763

>  <r_epik_State_Penalty>  (1) 
0.31556606545733357

>  <r_glide_ring_energy>  (1) 
1.2936619762909096

>  <r_i_docking_score>  (1) 
-6.4027942212270164

>  <r_i_glide_ecoul>  (1) 
-2.3190968560095695

>  <r_i_glide_eff_state_penalty>  (1) 
0.31556606545733357

>  <r_i_glide_einternal>  (1) 
9.1168362232506226

>  <r_i_glide_emodel>  (1) 
-54.72317626299342

>  <r_i_glide_emodel_strain>  (1) 
4.5991181848928591

>  <r_i_glide_energy>  (1) 
-47.195675420553208

>  <r_i_glide_erotb>  (1) 
0.36642180475109298

>  <r_i_glide_esite>  (1) 
0

>  <r_i_glide_evdw>  (1) 
-44.876578564543635

>  <r_i_glide_gscore>  (1) 
-6.7183602866843497

>  <r_i_glide_gscore_strain>  (1) 
0.14977954622321477

>  <r_i_glide_hbond>  (1) 
-0.062052637056845585

>  <r_i_glide_ligand_efficiency>  (1) 
-0.18831747709491226

>  <r_i_glide_ligand_efficiency_ln>  (1) 
-1.414556835763757

>  <r_i_glide_ligand_efficiency_sa>  (1) 
-0.61007552118347996

>  <r_i_glide_lipo>  (1) 
-2.8867308406140686

>  <r_i_glide_metal>  (1) 
-0

>  <r_i_glide_rewards>  (1) 
-1.6940847033591251

>  <r_lp_Energy>  (1) 
73.741174999999998

>  <s_epik_Chemistry_Notes>  (1) 
This compound has an imine and may undergo hydrolysis. This compound has a N-S or N-O group and may undergo hydrolysis at high or low pH.

>  <s_epik_cmdline>  (1) 
J2VwaWtfcHl0aG9uJywgJy1waHQnLCAnMS4wJywgJy1waCcsICc3LjQnLCAnLXRuJywgJzgnLCAnLW1hJywgJzUwMCcsICctaW1hZScsICc8aW5maWxlLm1hZT4nLCAnLW9tYWUnLCAnPG91dGZpbGUubWFlPic=

>  <s_epik_input>  (1) 
W09IXUMoPU8pYyhjMVtOSDJdKWMoYyhbY0hdbjEpW0NIM10pQyg9TylbTkhdQyg9TltDSF09W0NIXTIpW0NIMl1OMltDQEhdKFtDSDJdMylbQ0gyXVtDSDJdW0NIMl1bQ0gyXVtDQF0zKFtDSDNdKU40T1tDQEBIXShbQ0gzXSlbQ0gyXVtDSDJdNA==

>  <s_glide_docking_method>  (1) 
confgen

>  <s_i_glide_gridfile>  (1) 
gpcr_5ht2c_6bqh_protein_autoprepared_prepared

>  <s_lp_Force_Field>  (1) 
S-OPLS

>  <s_lp_Variant>  (1) 
DiffSBDD_25-1

>  <s_m_source_file>  (1) 
generated_GPCR_5HT2C_ligand_DiffSBDD_2026-06-23_prepared.sdf

>  <GenAI_Model>  (1) 
DiffSBDD

>  <Protein>  (1) 
GPCR_5HT2C

$$$$
DiffSBDD_81
     RDKit          3D

  0  0  0  0  0  0  0  0  0  0999 V3000
M  V30 BEGIN CTAB
M  V30 COUNTS 67 68 0 0 1
M  V30 BEGIN ATOM
M  V30 1 C 41.495046 34.413000 64.287162 0
M  V30 2 C 40.505148 27.446557 57.995706 0
M  V30 3 C 39.529746 28.645576 51.994610 0 CFG=2
M  V30 4 C 40.610171 30.651830 61.987686 0
M  V30 5 C 37.528951 27.972366 53.176298 0
M  V30 6 C 40.405126 32.129007 61.635859 0
M  V30 7 C 38.369116 27.652408 51.948598 0
M  V30 8 C 39.663971 26.518232 57.095009 0
M  V30 9 C 39.701769 28.121578 59.122499 0
M  V30 10 C 39.782800 29.666137 61.165877 0
M  V30 11 C 39.368395 27.965032 54.981140 0
M  V30 12 C 41.703502 28.801226 63.351885 0
M  V30 13 C 37.660413 29.908522 54.856214 0
M  V30 14 C 40.582577 28.986561 60.037220 0
M  V30 15 O 39.245139 29.494695 53.104899 0
M  V30 16 O 40.940461 33.216030 63.764788 0
M  V30 17 C 41.462101 30.249216 62.959670 0
M  V30 18 C 40.945229 30.392388 50.783152 0
M  V30 19 C 39.715364 29.484516 50.723242 0
M  V30 20 C 38.442799 28.822314 54.073685 0 CFG=2
M  V30 21 C 38.533434 30.865480 55.683047 0
M  V30 22 C 40.999604 34.620251 61.942438 0
M  V30 23 C 38.677034 27.242148 56.157236 0
M  V30 24 C 41.264892 33.172995 62.382751 0 CFG=2
M  V30 25 C 41.219489 35.450576 63.201032 0
M  V30 26 H 41.048446 34.678163 65.246020 0
M  V30 27 H 42.568475 34.281635 64.433467 0
M  V30 28 H 41.011120 28.202957 57.396818 0
M  V30 29 H 41.303824 26.856609 58.445129 0
M  V30 30 H 40.445115 28.084099 52.167760 0
M  V30 31 H 37.150524 27.076056 53.666473 0
M  V30 32 H 36.659049 28.544983 52.857956 0
M  V30 33 H 40.582993 32.237679 60.567760 0
M  V30 34 H 39.351362 32.362884 61.793379 0
M  V30 35 H 37.783211 27.737747 51.034925 0
M  V30 36 H 38.755802 26.634422 51.999192 0
M  V30 37 H 40.333503 25.899997 56.495351 0
M  V30 38 H 39.111431 25.822274 57.727446 0
M  V30 39 H 39.198831 27.359431 59.718505 0
M  V30 40 H 38.917270 28.745931 58.694716 0
M  V30 41 H 39.336741 28.917438 61.821295 0
M  V30 42 H 38.935305 30.203162 60.737848 0
M  V30 43 H 40.154643 28.611396 55.367768 0
M  V30 44 H 39.880931 27.212511 54.382050 0
M  V30 45 H 41.470375 28.668370 64.408312 0
M  V30 46 H 41.111857 28.079343 62.793578 0
M  V30 47 H 42.754418 28.551421 63.206113 0
M  V30 48 H 37.075147 30.513771 54.167757 0
M  V30 49 H 36.923980 29.447104 55.510918 0
M  V30 50 H 41.085367 29.737755 59.430971 0
M  V30 51 H 41.372374 28.368235 60.464621 0
M  V30 52 H 42.023837 30.984944 63.513534 0
M  V30 53 H 41.078323 30.937901 49.848548 0
M  V30 54 H 40.845135 31.125676 51.584019 0
M  V30 55 H 41.848290 29.812838 50.967547 0
M  V30 56 H 39.792020 28.828284 49.855720 0
M  V30 57 H 38.845136 30.110593 50.567731 0
M  V30 58 H 37.917468 31.645678 56.132650 0
M  V30 59 H 39.046102 30.349510 56.494522 0
M  V30 60 H 39.285422 31.353607 55.062365 0
M  V30 61 H 41.645133 34.937779 61.123500 0
M  V30 62 H 39.967409 34.737486 61.609751 0
M  V30 63 H 37.979808 26.506425 55.756419 0
M  V30 64 H 38.071460 27.934457 56.739100 0
M  V30 65 H 42.327700 32.948569 62.268673 0
M  V30 66 H 40.320598 36.022542 63.435125 0
M  V30 67 H 42.045137 36.155779 63.101569 0
M  V30 END ATOM
M  V30 BEGIN BOND
M  V30 1 1 6 4
M  V30 2 1 7 3
M  V30 3 1 7 5
M  V30 4 1 8 2
M  V30 5 1 9 2
M  V30 6 1 10 4
M  V30 7 1 14 9
M  V30 8 1 14 10
M  V30 9 1 15 3
M  V30 10 1 16 1
M  V30 11 2 17 4
M  V30 12 1 17 12
M  V30 13 1 19 3
M  V30 14 1 19 18
M  V30 15 1 20 5
M  V30 16 1 20 11 CFG=1
M  V30 17 1 20 13
M  V30 18 1 20 15
M  V30 19 1 21 13
M  V30 20 1 23 8
M  V30 21 1 23 11
M  V30 22 1 24 6
M  V30 23 1 24 16
M  V30 24 1 24 22
M  V30 25 1 25 1
M  V30 26 1 25 22
M  V30 27 1 26 1
M  V30 28 1 27 1
M  V30 29 1 28 2
M  V30 30 1 29 2
M  V30 31 1 3 30 CFG=1
M  V30 32 1 31 5
M  V30 33 1 32 5
M  V30 34 1 33 6
M  V30 35 1 34 6
M  V30 36 1 35 7
M  V30 37 1 36 7
M  V30 38 1 37 8
M  V30 39 1 38 8
M  V30 40 1 39 9
M  V30 41 1 40 9
M  V30 42 1 41 10
M  V30 43 1 42 10
M  V30 44 1 43 11
M  V30 45 1 44 11
M  V30 46 1 45 12
M  V30 47 1 46 12
M  V30 48 1 47 12
M  V30 49 1 48 13
M  V30 50 1 49 13
M  V30 51 1 50 14
M  V30 52 1 51 14
M  V30 53 1 52 17
M  V30 54 1 53 18
M  V30 55 1 54 18
M  V30 56 1 55 18
M  V30 57 1 56 19
M  V30 58 1 57 19
M  V30 59 1 58 21
M  V30 60 1 59 21
M  V30 61 1 60 21
M  V30 62 1 61 22
M  V30 63 1 62 22
M  V30 64 1 63 23
M  V30 65 1 64 23
M  V30 66 1 24 65 CFG=1
M  V30 67 1 66 25
M  V30 68 1 67 25
M  V30 END BOND
M  V30 END CTAB
M  END
>  <i_epik_Tot_Q>  (1) 
0

>  <i_epik_Tot_abs_Q>  (1) 
0

>  <i_i_glide_confnum>  (1) 
2468

>  <i_i_glide_lignum>  (1) 
187

>  <i_i_glide_posenum>  (1) 
359

>  <i_i_glide_rotatable_bonds>  (1) 
12

>  <i_lp_mmshare_version>  (1) 
72125

>  <i_m_source_file_index>  (1) 
82

>  <i_f3d_flags>  (1) 
0

>  <num_sample>  (1) 
100

>  <b_lp_Chiralities_Consistent>  (1) 
1

>  <r_epik_Charging_Adjusted_Penalty>  (1) 
0

>  <r_epik_Ionization_Penalty>  (1) 
4.3050601408714213e-11

>  <r_epik_Ionization_Penalty_Charging>  (1) 
0

>  <r_epik_Ionization_Penalty_Neutral>  (1) 
4.3050601408714213e-11

>  <r_epik_State_Penalty>  (1) 
-0

>  <r_glide_ring_energy>  (1) 
0

>  <r_i_docking_score>  (1) 
-6.3993787009835348

>  <r_i_glide_ecoul>  (1) 
-0.78542566206514342

>  <r_i_glide_eff_state_penalty>  (1) 
-0

>  <r_i_glide_einternal>  (1) 
5.6025151756020515

>  <r_i_glide_emodel>  (1) 
-49.079065936025188

>  <r_i_glide_emodel_strain>  (1) 
0.065101835818971665

>  <r_i_glide_energy>  (1) 
-38.440959060965952

>  <r_i_glide_erotb>  (1) 
1.3958139752623098

>  <r_i_glide_esite>  (1) 
0

>  <r_i_glide_evdw>  (1) 
-37.655533398900808

>  <r_i_glide_gscore>  (1) 
-6.3993787009835348

>  <r_i_glide_gscore_strain>  (1) 
0

>  <r_i_glide_hbond>  (1) 
0

>  <r_i_glide_ligand_efficiency>  (1) 
-0.2559751480393414

>  <r_i_glide_ligand_efficiency_ln>  (1) 
-1.516844526037562

>  <r_i_glide_ligand_efficiency_sa>  (1) 
-0.74847587340869859

>  <r_i_glide_lipo>  (1) 
-4.2978802931821791

>  <r_i_glide_metal>  (1) 
-0

>  <r_i_glide_rewards>  (1) 
-1.4967218638088526

>  <r_lp_Energy>  (1) 
1.9057109999999999

>  <r_lp_tautomer_probability>  (1) 
1

>  <s_epik_cmdline>  (1) 
J2VwaWtfcHl0aG9uJywgJy1waHQnLCAnMS4wJywgJy1waCcsICc3LjQnLCAnLXRuJywgJzgnLCAnLW1hJywgJzUwMCcsICctaW1hZScsICc8aW5maWxlLm1hZT4nLCAnLW9tYWUnLCAnPG91dGZpbGUubWFlPic=

>  <s_epik_input>  (1) 
W0NIMl0xW0NIMl1bQ0gyXU9bQ0BIXTFbQ0gyXS9DKD1bQ0hdL1tDSDNdKVtDSDJdW0NIMl1bQ0gyXVtDSDJdW0NIMl1bQ0gyXVtDSDJdW0NAXTIoW0NIMl1bQ0gzXSlbQ0gyXVtDSDJdW0NASF0oTzIpW0NIMl1bQ0gzXQ==

>  <s_glide_docking_method>  (1) 
confgen

>  <s_i_glide_gridfile>  (1) 
gpcr_5ht2c_6bqh_protein_autoprepared_prepared

>  <s_lp_Force_Field>  (1) 
S-OPLS

>  <s_lp_Variant>  (1) 
DiffSBDD_81-1

>  <s_m_source_file>  (1) 
generated_GPCR_5HT2C_ligand_DiffSBDD_2026-06-23_prepared.sdf

>  <GenAI_Model>  (1) 
DiffSBDD

>  <Protein>  (1) 
GPCR_5HT2C

$$$$
DiffSBDD_92
     RDKit          3D

  0  0  0  0  0  0  0  0  0  0999 V3000
M  V30 BEGIN CTAB
M  V30 COUNTS 72 74 0 0 1
M  V30 BEGIN ATOM
M  V30 1 C 38.640414 30.423972 60.247108 0 CFG=2
M  V30 2 O 38.845143 27.229769 52.308837 0
M  V30 3 C 39.708536 33.781039 62.571510 0
M  V30 4 C 38.409583 27.977662 53.212358 0
M  V30 5 C 44.397310 29.876370 66.482908 0
M  V30 6 C 38.869407 28.334759 57.000190 0
M  V30 7 C 44.167135 27.283945 66.597287 0
M  V30 8 O 40.057432 26.875692 58.546103 0
M  V30 9 C 41.252617 31.979850 63.679587 0 CFG=2
M  V30 10 C 40.044445 26.319654 56.228652 0
M  V30 11 C 35.123175 32.089194 59.436169 0
M  V30 12 N 38.460457 29.241068 58.059636 0
M  V30 13 N 44.949160 27.200430 67.673852 0
M  V30 14 S 40.045143 30.657609 63.613925 0
M  V30 15 O 37.645122 28.937754 52.999092 0 CHG=-1
M  V30 16 O 40.467024 29.333147 59.123340 0
M  V30 17 C 43.961571 28.646066 66.057024 0
M  V30 18 C 37.374422 33.242442 59.443722 0
M  V30 19 C 41.047571 33.039858 62.563359 0
M  V30 20 C 36.644627 31.891365 59.274288 0 CFG=1
M  V30 21 C 42.609647 31.325770 63.460669 0
M  V30 22 C 37.092029 33.964130 60.776529 0
M  V30 23 O 43.645107 26.301537 66.074739 0
M  V30 24 C 39.639221 26.583872 54.913607 0
M  V30 25 S 43.001099 28.781430 64.620029 0
M  V30 26 C 38.437191 28.578296 55.677604 0
M  V30 27 C 43.202705 30.508723 64.567597 0
M  V30 28 C 39.671817 27.178808 57.275422 0
M  V30 29 C 43.959602 30.944832 65.630708 0
M  V30 30 C 39.268010 29.610969 59.086070 0
M  V30 31 C 38.835529 27.706779 54.628244 0
M  V30 32 C 38.978542 29.736509 61.616171 0 CFG=2
M  V30 33 C 39.525705 34.676325 61.333287 0
M  V30 34 O 40.150373 30.290099 62.170856 0
M  V30 35 C 39.245136 28.215612 61.577372 0
M  V30 36 C 37.117017 30.737368 60.183304 0
M  V30 37 C 38.068634 35.115603 61.090196 0
M  V30 38 H 39.175137 31.370587 60.268496 0
M  V30 39 H 39.645148 34.401608 63.460140 0
M  V30 40 H 38.909631 33.048020 62.636916 0
M  V30 41 H 45.007988 30.047873 67.356991 0
M  V30 42 H 40.227764 27.685331 59.020309 0
M  V30 43 H 41.213378 32.459733 64.658549 0
M  V30 44 H 40.643122 25.449409 56.437615 0
M  V30 45 H 34.836201 32.141826 60.485984 0
M  V30 46 H 34.567627 31.279081 58.967778 0
M  V30 47 H 34.785417 33.012435 58.967782 0
M  V30 48 H 37.534356 29.641132 58.000434 0
M  V30 49 H 45.360868 28.034722 68.063395 0
M  V30 50 H 45.131516 26.300152 68.091121 0
M  V30 51 H 37.069360 33.904123 58.630671 0
M  V30 52 H 38.438429 33.101671 59.278994 0
M  V30 53 H 41.838625 33.787872 62.624375 0
M  V30 54 H 41.173592 32.558872 61.592682 0
M  V30 55 H 36.846014 31.573144 58.253337 0
M  V30 56 H 42.570085 30.709533 62.567762 0
M  V30 57 H 43.245136 32.137757 63.190097 0
M  V30 58 H 36.082594 34.374849 60.738227 0
M  V30 59 H 37.070143 33.252021 61.597949 0
M  V30 60 H 39.938694 25.917578 54.117776 0
M  V30 61 H 37.820104 29.439290 55.461392 0
M  V30 62 H 44.221280 31.975376 65.818770 0
M  V30 63 H 38.143397 29.895846 62.299917 0
M  V30 64 H 40.149507 35.563631 61.446264 0
M  V30 65 H 39.910991 34.174471 60.446978 0
M  V30 66 H 38.477367 27.737756 60.972516 0
M  V30 67 H 39.245132 27.773498 62.567755 0
M  V30 68 H 40.220186 27.965347 61.160652 0
M  V30 69 H 36.570922 29.829387 59.922646 0
M  V30 70 H 36.765202 30.990617 61.181836 0
M  V30 71 H 37.710391 35.656193 61.966112 0
M  V30 72 H 38.043714 35.831817 60.268169 0
M  V30 END ATOM
M  V30 BEGIN BOND
M  V30 1 2 4 2
M  V30 2 1 12 6
M  V30 3 1 13 7
M  V30 4 1 14 9
M  V30 5 1 15 4
M  V30 6 2 17 5
M  V30 7 1 17 7
M  V30 8 1 19 3
M  V30 9 1 19 9
M  V30 10 1 20 11
M  V30 11 1 20 18
M  V30 12 1 21 9
M  V30 13 1 22 18
M  V30 14 2 23 7
M  V30 15 2 24 10
M  V30 16 1 25 17
M  V30 17 1 26 6
M  V30 18 1 27 21
M  V30 19 1 27 25
M  V30 20 2 28 6
M  V30 21 1 28 8
M  V30 22 1 28 10
M  V30 23 1 29 5
M  V30 24 2 29 27
M  V30 25 1 30 1
M  V30 26 1 30 12
M  V30 27 2 30 16
M  V30 28 1 31 4
M  V30 29 1 31 24
M  V30 30 2 31 26
M  V30 31 1 32 1
M  V30 32 1 33 3
M  V30 33 1 34 14
M  V30 34 1 34 32
M  V30 35 1 35 32
M  V30 36 1 36 1
M  V30 37 1 36 20
M  V30 38 1 37 22
M  V30 39 1 37 33
M  V30 40 1 1 38 CFG=1
M  V30 41 1 39 3
M  V30 42 1 40 3
M  V30 43 1 41 5
M  V30 44 1 42 8
M  V30 45 1 9 43 CFG=1
M  V30 46 1 44 10
M  V30 47 1 45 11
M  V30 48 1 46 11
M  V30 49 1 47 11
M  V30 50 1 48 12
M  V30 51 1 49 13
M  V30 52 1 50 13
M  V30 53 1 51 18
M  V30 54 1 52 18
M  V30 55 1 53 19
M  V30 56 1 54 19
M  V30 57 1 20 55 CFG=3
M  V30 58 1 56 21
M  V30 59 1 57 21
M  V30 60 1 58 22
M  V30 61 1 59 22
M  V30 62 1 60 24
M  V30 63 1 61 26
M  V30 64 1 62 29
M  V30 65 1 32 63 CFG=1
M  V30 66 1 64 33
M  V30 67 1 65 33
M  V30 68 1 66 35
M  V30 69 1 67 35
M  V30 70 1 68 35
M  V30 71 1 69 36
M  V30 72 1 70 36
M  V30 73 1 71 37
M  V30 74 1 72 37
M  V30 END BOND
M  V30 END CTAB
M  END
>  <i_epik_Tot_Q>  (1) 
-1

>  <i_epik_Tot_abs_Q>  (1) 
1

>  <i_i_glide_confnum>  (1) 
43

>  <i_i_glide_lignum>  (1) 
212

>  <i_i_glide_posenum>  (1) 
213

>  <i_i_glide_rotatable_bonds>  (1) 
8

>  <i_lp_mmshare_version>  (1) 
72125

>  <i_m_source_file_index>  (1) 
93

>  <i_f3d_flags>  (1) 
0

>  <num_sample>  (1) 
100

>  <b_lp_Chiralities_Consistent>  (1) 
1

>  <r_epik_Charging_Adjusted_Penalty>  (1) 
0.00060253989728688382

>  <r_epik_Ionization_Penalty>  (1) 
0.0030111313993829731

>  <r_epik_Ionization_Penalty_Charging>  (1) 
0.00060253989728688382

>  <r_epik_Ionization_Penalty_Neutral>  (1) 
0.0024085915020960894

>  <r_epik_State_Penalty>  (1) 
-0

>  <r_glide_ring_energy>  (1) 
0

>  <r_i_docking_score>  (1) 
-6.3985517676420347

>  <r_i_glide_ecoul>  (1) 
-0.96327951125440325

>  <r_i_glide_eff_state_penalty>  (1) 
-0

>  <r_i_glide_einternal>  (1) 
38.667631975073739

>  <r_i_glide_emodel>  (1) 
-31.59819699518544

>  <r_i_glide_emodel_strain>  (1) 
3.2688002354130319

>  <r_i_glide_energy>  (1) 
-45.013050103071329

>  <r_i_glide_erotb>  (1) 
0.34529747416661971

>  <r_i_glide_esite>  (1) 
0

>  <r_i_glide_evdw>  (1) 
-44.049770591816923

>  <r_i_glide_gscore>  (1) 
-6.3985517676420347

>  <r_i_glide_gscore_strain>  (1) 
0

>  <r_i_glide_hbond>  (1) 
0

>  <r_i_glide_ligand_efficiency>  (1) 
-0.17293383155789283

>  <r_i_glide_ligand_efficiency_ln>  (1) 
-1.3876958750655042

>  <r_i_glide_ligand_efficiency_sa>  (1) 
-0.57625389240607117

>  <r_i_glide_lipo>  (1) 
-3.1809985742003231

>  <r_i_glide_metal>  (1) 
-0

>  <r_i_glide_rewards>  (1) 
-1.2158702113293238

>  <r_lp_Energy>  (1) 
30.701922999999997

>  <r_lp_tautomer_probability>  (1) 
1

>  <s_epik_cmdline>  (1) 
J2VwaWtfcHl0aG9uJywgJy1waHQnLCAnMS4wJywgJy1waCcsICc3LjQnLCAnLXRuJywgJzgnLCAnLW1hJywgJzUwMCcsICctaW1hZScsICc8aW5maWxlLm1hZT4nLCAnLW9tYWUnLCAnPG91dGZpbGUubWFlPic=

>  <s_epik_input>  (1) 
W09IXWMxW2NIXVtjSF1jKEMoPU8pW09IXSlbY0hdYzFbTkhdQyg9TylbQ0BASF0yW0NAQEhdKFtDSDNdKU9TW0NAQEhdKFtDSDJdYyhzMylbY0hdW2NIXWMzQyg9TylbTkgyXSlbQ0gyXVtDSDJdW0NIMl1bQ0gyXVtDSDJdW0NIMl1bQ0BIXShbQ0gzXSlbQ0gyXTI=

>  <s_glide_docking_method>  (1) 
confgen

>  <s_i_glide_gridfile>  (1) 
gpcr_5ht2c_6bqh_protein_autoprepared_prepared

>  <s_lp_Force_Field>  (1) 
S-OPLS

>  <s_lp_Variant>  (1) 
DiffSBDD_92-1

>  <s_m_source_file>  (1) 
generated_GPCR_5HT2C_ligand_DiffSBDD_2026-06-23_prepared.sdf

>  <GenAI_Model>  (1) 
DiffSBDD

>  <Protein>  (1) 
GPCR_5HT2C

$$$$
DiffSBDD_83
     RDKit          3D

  0  0  0  0  0  0  0  0  0  0999 V3000
M  V30 BEGIN CTAB
M  V30 COUNTS 54 55 0 0 1
M  V30 BEGIN ATOM
M  V30 1 C 40.016342 35.591904 62.859748 0
M  V30 2 C 38.057357 31.090756 58.025363 0
M  V30 3 N 37.291188 30.464604 58.966085 0
M  V30 4 O 40.538369 26.772091 57.038756 0
M  V30 5 O 40.444719 36.137395 64.009080 0
M  V30 6 C 38.104342 35.866398 61.260559 0
M  V30 7 C 36.860219 36.594985 60.792033 0
M  V30 8 C 38.713070 25.515741 56.894223 0
M  V30 9 C 39.899987 30.136643 52.084473 0
M  V30 10 C 38.783270 36.272436 62.370313 0
M  V30 11 C 38.337984 30.488480 56.684462 0
M  V30 12 C 37.936280 33.340033 60.932485 0
M  V30 13 N 37.155890 31.160143 60.109141 0
M  V30 14 O 41.790553 35.737762 64.403326 0
M  V30 15 C 39.522721 28.449812 55.568974 0 CFG=1
M  V30 16 C 37.590699 28.507046 53.822204 0
M  V30 17 C 39.738773 25.861661 57.592376 0
M  V30 18 O 40.579883 34.653325 62.295583 0
M  V30 19 C 39.843133 26.945232 55.775551 0 CFG=2
M  V30 20 C 38.445283 32.277241 58.564931 0
M  V30 21 O 38.629306 26.142937 55.716470 0
M  V30 22 C 39.557659 30.103624 53.582314 0
M  V30 23 C 39.096614 28.710558 54.087864 0 CFG=1
M  V30 24 C 37.853904 32.276583 59.871682 0
M  V30 25 Cl 37.556338 24.352728 57.425791 0
M  V30 26 C 38.508007 34.671638 60.399154 0
M  V30 27 C 38.590847 28.968927 56.694653 0
M  V30 28 H 36.847216 29.566779 58.840326 0
M  V30 29 H 37.077050 37.149125 59.879201 0
M  V30 30 H 36.067980 35.879873 60.567692 0
M  V30 31 H 36.497563 37.300422 61.540598 0
M  V30 32 H 40.084838 31.161199 51.759806 0
M  V30 33 H 40.801890 29.559203 51.866899 0
M  V30 34 H 39.090883 29.737761 51.472552 0
M  V30 35 H 38.427422 37.122624 62.933894 0
M  V30 36 H 37.522358 30.734466 56.004805 0
M  V30 37 H 39.220457 30.988745 56.285076 0
M  V30 38 H 38.533603 32.984182 61.772098 0
M  V30 39 H 36.934492 33.513033 61.328547 0
M  V30 40 H 42.237931 36.574658 64.326607 0
M  V30 41 H 40.487263 28.935696 55.719682 0
M  V30 42 H 36.978187 29.241383 54.342989 0
M  V30 43 H 37.364425 28.593957 52.759219 0
M  V30 44 H 37.256484 27.519769 54.135536 0
M  V30 45 H 40.043373 25.514935 58.567162 0
M  V30 46 H 40.516786 26.574789 55.001073 0
M  V30 47 H 39.057475 33.036920 58.101958 0
M  V30 48 H 38.790171 30.848442 53.795454 0
M  V30 49 H 40.444327 30.438258 54.121536 0
M  V30 50 H 39.616373 27.976002 53.471213 0
M  V30 51 H 38.042693 34.860601 59.430973 0
M  V30 52 H 39.570228 34.618614 60.167295 0
M  V30 53 H 39.076696 28.730117 57.641210 0
M  V30 54 H 37.644960 28.429598 56.708612 0
M  V30 END ATOM
M  V30 BEGIN BOND
M  V30 1 1 3 2
M  V30 2 1 5 1
M  V30 3 1 7 6
M  V30 4 1 10 1
M  V30 5 2 10 6
M  V30 6 1 11 2
M  V30 7 1 13 3
M  V30 8 1 14 5
M  V30 9 1 17 4
M  V30 10 2 17 8
M  V30 11 2 18 1
M  V30 12 1 19 4
M  V30 13 1 19 15
M  V30 14 2 20 2
M  V30 15 1 21 8
M  V30 16 1 21 19
M  V30 17 1 22 9
M  V30 18 1 23 15
M  V30 19 1 23 16
M  V30 20 1 23 22
M  V30 21 1 24 12
M  V30 22 2 24 13
M  V30 23 1 24 20
M  V30 24 1 25 8
M  V30 25 1 26 6
M  V30 26 1 26 12
M  V30 27 1 27 11
M  V30 28 1 27 15
M  V30 29 1 28 3
M  V30 30 1 29 7
M  V30 31 1 30 7
M  V30 32 1 31 7
M  V30 33 1 32 9
M  V30 34 1 33 9
M  V30 35 1 34 9
M  V30 36 1 35 10
M  V30 37 1 36 11
M  V30 38 1 37 11
M  V30 39 1 38 12
M  V30 40 1 39 12
M  V30 41 1 40 14
M  V30 42 1 15 41 CFG=1
M  V30 43 1 42 16
M  V30 44 1 43 16
M  V30 45 1 44 16
M  V30 46 1 45 17
M  V30 47 1 19 46 CFG=3
M  V30 48 1 47 20
M  V30 49 1 48 22
M  V30 50 1 49 22
M  V30 51 1 23 50 CFG=3
M  V30 52 1 51 26
M  V30 53 1 52 26
M  V30 54 1 53 27
M  V30 55 1 54 27
M  V30 END BOND
M  V30 END CTAB
M  END
>  <i_epik_Tot_Q>  (1) 
0

>  <i_epik_Tot_abs_Q>  (1) 
0

>  <i_i_glide_confnum>  (1) 
441

>  <i_i_glide_lignum>  (1) 
192

>  <i_i_glide_posenum>  (1) 
311

>  <i_i_glide_rotatable_bonds>  (1) 
12

>  <i_lp_mmshare_version>  (1) 
72125

>  <i_m_source_file_index>  (1) 
84

>  <i_f3d_flags>  (1) 
0

>  <num_sample>  (1) 
100

>  <b_lp_Chiralities_Consistent>  (1) 
1

>  <r_epik_Charging_Adjusted_Penalty>  (1) 
0.41067983895260396

>  <r_epik_Ionization_Penalty>  (1) 
0.00076996626271645392

>  <r_epik_Ionization_Penalty_Charging>  (1) 
0

>  <r_epik_Ionization_Penalty_Neutral>  (1) 
0.00076996626271645392

>  <r_epik_State_Penalty>  (1) 
0.41067983895260396

>  <r_glide_ring_energy>  (1) 
0

>  <r_i_docking_score>  (1) 
-6.3953388317587088

>  <r_i_glide_ecoul>  (1) 
-4.1252114645811773

>  <r_i_glide_eff_state_penalty>  (1) 
0.41067983895260396

>  <r_i_glide_einternal>  (1) 
5.6409614716043848

>  <r_i_glide_emodel>  (1) 
-58.213071149621115

>  <r_i_glide_emodel_strain>  (1) 
1.1748820169966052

>  <r_i_glide_energy>  (1) 
-44.01470464594879

>  <r_i_glide_erotb>  (1) 
1.1080255732668134

>  <r_i_glide_esite>  (1) 
-0.13362117064986276

>  <r_i_glide_evdw>  (1) 
-39.889493181367612

>  <r_i_glide_gscore>  (1) 
-6.8060186707113131

>  <r_i_glide_gscore_strain>  (1) 
0

>  <r_i_glide_hbond>  (1) 
-0.25913460599333904

>  <r_i_glide_ligand_efficiency>  (1) 
-0.23686440117624846

>  <r_i_glide_ligand_efficiency_ln>  (1) 
-1.4887294446325616

>  <r_i_glide_ligand_efficiency_sa>  (1) 
-0.71059320352874555

>  <r_i_glide_lipo>  (1) 
-3.1764555590473438

>  <r_i_glide_metal>  (1) 
-0

>  <r_i_glide_rewards>  (1) 
-1.7315765295320236

>  <r_lp_Energy>  (1) 
14.849965999999998

>  <r_lp_tautomer_probability>  (1) 
0.5

>  <s_epik_Chemistry_Notes>  (1) 
This compound contains an acetal/aminal-like group ( X-CH(R)-Y where X, Y are N, S, or O) that may be acid/base labile, releasing an aldehyde.

>  <s_epik_cmdline>  (1) 
J2VwaWtfcHl0aG9uJywgJy1waHQnLCAnMS4wJywgJy1waCcsICc3LjQnLCAnLXRuJywgJzgnLCAnLW1hJywgJzUwMCcsICctaW1hZScsICc8aW5maWxlLm1hZT4nLCAnLW9tYWUnLCAnPG91dGZpbGUubWFlPic=

>  <s_epik_input>  (1) 
W09IXU9DKD1PKVxbQ0hdPUMoXFtDSDNdKVtDSDJdW0NIMl1jKFtjSF0xKW5bbkhdYzFbQ0gyXVtDSDJdW0NASF0oW0NAQEhdKFtDSDNdKVtDSDJdW0NIM10pW0NAQEhdKE8yKU9bQ0hdPUMyQ2w=

>  <s_glide_docking_method>  (1) 
confgen

>  <s_i_glide_gridfile>  (1) 
gpcr_5ht2c_6bqh_protein_autoprepared_prepared

>  <s_lp_Force_Field>  (1) 
S-OPLS

>  <s_lp_Variant>  (1) 
DiffSBDD_83-3

>  <s_m_source_file>  (1) 
generated_GPCR_5HT2C_ligand_DiffSBDD_2026-06-23_prepared.sdf

>  <GenAI_Model>  (1) 
DiffSBDD

>  <Protein>  (1) 
GPCR_5HT2C

$$$$
DiffSBDD_93
     RDKit          3D

  0  0  0  0  0  0  0  0  0  0999 V3000
M  V30 BEGIN CTAB
M  V30 COUNTS 84 85 0 0 1
M  V30 BEGIN ATOM
M  V30 1 C 38.145121 33.279559 58.204425 0
M  V30 2 O 37.645621 33.247737 56.892242 0
M  V30 3 C 36.044076 36.434063 63.182504 0
M  V30 4 C 40.938462 27.990029 57.801055 0
M  V30 5 O 37.118065 30.130128 59.742752 0
M  V30 6 C 39.335664 26.799906 53.669635 0
M  V30 7 N 38.917151 27.281637 52.499133 0
M  V30 8 O 40.368294 26.137592 53.781736 0
M  V30 9 O 39.435055 30.628782 61.663117 0
M  V30 10 C 40.367446 27.378802 59.051094 0
M  V30 11 C 36.487612 35.363583 62.175176 0
M  V30 12 C 37.693756 30.465511 57.442034 0
M  V30 13 C 37.372300 32.771253 60.548731 0
M  V30 14 C 39.151214 28.008449 55.986376 0 CFG=2
M  V30 15 C 38.458581 27.101800 54.898148 0 CFG=2
M  V30 16 C 37.894984 37.180329 61.782157 0 CFG=1
M  V30 17 C 38.844700 34.831335 61.227353 0 CFG=1
M  V30 18 C 40.296692 35.278716 61.533972 0
M  V30 19 C 39.123599 30.454901 56.917534 0
M  V30 20 S 40.035690 32.188796 61.366720 0 CHG=1
M  V30 21 O 38.593398 31.461599 54.245179 0
M  V30 22 N 37.671629 32.267644 59.187023 0
M  V30 23 O 40.886243 32.526984 62.800713 0
M  V30 24 O 35.926285 38.684434 62.223801 0
M  V30 25 F 38.039219 38.883709 60.188118 0
M  V30 26 C 41.853984 27.338169 58.763984 0
M  V30 27 C 38.385296 30.088027 54.508402 0
M  V30 28 C 39.291171 29.552781 55.656910 0 CFG=2
M  V30 29 C 37.477940 30.942351 58.891551 0
M  V30 30 C 37.711564 25.802239 55.363270 0
M  V30 31 C 36.446878 37.251725 59.534706 0
M  V30 32 C 38.556332 33.290323 61.435972 0 CFG=2
M  V30 33 O 37.258837 25.816618 57.693392 0
M  V30 34 C 40.504609 27.433378 56.472335 0
M  V30 35 C 37.735031 37.584376 60.287262 0 CFG=2
M  V30 36 C 37.966606 25.318996 56.793203 0
M  V30 37 C 36.791599 37.697753 62.749130 0 CFG=1
M  V30 38 O 38.857816 24.461509 56.955080 0 CHG=-1
M  V30 39 N 37.914768 35.710615 62.018256 0 CFG=2 CHG=1
M  V30 40 H 37.797844 34.253403 58.533025 0
M  V30 41 H 39.234885 33.314530 58.171535 0
M  V30 42 H 36.777400 32.830430 56.890386 0
M  V30 43 H 34.973276 36.552297 63.365841 0
M  V30 44 H 36.432085 36.139848 64.157542 0
M  V30 45 H 41.268256 29.010478 57.761038 0
M  V30 46 H 38.058964 27.809923 52.448402 0
M  V30 47 H 39.455461 27.104255 51.665003 0
M  V30 48 H 38.906153 30.656872 62.445152 0
M  V30 49 H 39.999791 28.064148 59.811335 0
M  V30 50 H 39.807592 26.450559 58.951846 0
M  V30 51 H 36.045335 35.429893 61.200729 0
M  V30 52 H 36.195362 34.381773 62.551862 0
M  V30 53 H 37.270353 29.464691 57.437803 0
M  V30 54 H 37.087223 30.936689 56.698232 0
M  V30 55 H 36.838667 32.025150 61.140877 0
M  V30 56 H 36.614219 33.532956 60.397154 0
M  V30 57 H 38.493605 27.935182 56.844640 0
M  V30 58 H 37.620794 27.683355 54.522660 0
M  V30 59 H 38.848838 37.585978 62.122866 0
M  V30 60 H 38.711245 35.041896 60.178604 0
M  V30 61 H 41.043082 34.717101 60.975892 0
M  V30 62 H 40.469888 36.316301 61.251590 0
M  V30 63 H 40.533466 35.194940 62.594865 0
M  V30 64 H 39.442593 31.462592 56.654864 0
M  V30 65 H 39.739663 30.208490 57.762155 0
M  V30 66 H 38.207627 31.974573 54.942308 0
M  V30 67 H 40.389837 32.161176 63.516057 0
M  V30 68 H 36.432601 39.417820 61.899601 0
M  V30 69 H 42.364327 26.458556 58.399896 0
M  V30 70 H 42.445261 28.003569 59.366733 0
M  V30 71 H 38.616754 29.586746 53.574823 0
M  V30 72 H 37.324089 29.920342 54.699543 0
M  V30 73 H 40.310206 29.708382 55.302576 0
M  V30 74 H 36.642216 26.012991 55.343079 0
M  V30 75 H 37.849160 24.969184 54.670218 0
M  V30 76 H 36.353219 36.191566 59.303619 0
M  V30 77 H 35.570419 37.587448 60.070776 0
M  V30 78 H 36.449560 37.732090 58.567777 0
M  V30 79 H 38.235963 33.169064 62.469903 0
M  V30 80 H 40.495131 26.344890 56.527177 0
M  V30 81 H 41.272123 27.692534 55.766555 0
M  V30 82 H 38.445020 37.059450 59.677162 0
M  V30 83 H 37.239206 38.118301 63.642320 0
M  V30 84 H 38.264877 35.630583 62.963413 0
M  V30 END ATOM
M  V30 BEGIN BOND
M  V30 1 1 2 1
M  V30 2 1 7 6
M  V30 3 2 8 6
M  V30 4 1 10 4
M  V30 5 1 11 3
M  V30 6 1 15 6
M  V30 7 1 15 14
M  V30 8 1 18 17
M  V30 9 1 19 12
M  V30 10 1 20 9
M  V30 11 1 22 1
M  V30 12 1 22 13
M  V30 13 1 23 20
M  V30 14 1 26 4
M  V30 15 1 26 10
M  V30 16 1 27 21
M  V30 17 1 28 14
M  V30 18 1 28 19
M  V30 19 1 28 27
M  V30 20 2 29 5
M  V30 21 1 29 12
M  V30 22 1 29 22
M  V30 23 1 30 15
M  V30 24 1 32 13
M  V30 25 1 32 17
M  V30 26 1 32 20
M  V30 27 1 34 4
M  V30 28 1 34 14
M  V30 29 1 35 16
M  V30 30 1 35 25
M  V30 31 1 35 31
M  V30 32 1 36 30
M  V30 33 2 36 33
M  V30 34 1 37 3
M  V30 35 1 37 16
M  V30 36 1 37 24
M  V30 37 1 38 36
M  V30 38 1 39 11
M  V30 39 1 39 16
M  V30 40 1 39 17
M  V30 41 1 40 1
M  V30 42 1 41 1
M  V30 43 1 42 2
M  V30 44 1 43 3
M  V30 45 1 44 3
M  V30 46 1 45 4
M  V30 47 1 46 7
M  V30 48 1 47 7
M  V30 49 1 48 9
M  V30 50 1 49 10
M  V30 51 1 50 10
M  V30 52 1 51 11
M  V30 53 1 52 11
M  V30 54 1 53 12
M  V30 55 1 54 12
M  V30 56 1 55 13
M  V30 57 1 56 13
M  V30 58 1 14 57 CFG=1
M  V30 59 1 15 58 CFG=3
M  V30 60 1 16 59 CFG=1
M  V30 61 1 17 60 CFG=3
M  V30 62 1 61 18
M  V30 63 1 62 18
M  V30 64 1 63 18
M  V30 65 1 64 19
M  V30 66 1 65 19
M  V30 67 1 66 21
M  V30 68 1 67 23
M  V30 69 1 68 24
M  V30 70 1 69 26
M  V30 71 1 70 26
M  V30 72 1 71 27
M  V30 73 1 72 27
M  V30 74 1 28 73 CFG=3
M  V30 75 1 74 30
M  V30 76 1 75 30
M  V30 77 1 76 31
M  V30 78 1 77 31
M  V30 79 1 78 31
M  V30 80 1 32 79 CFG=1
M  V30 81 1 80 34
M  V30 82 1 81 34
M  V30 83 1 35 82 CFG=3
M  V30 84 1 37 83 CFG=1
M  V30 85 1 39 84 CFG=1
M  V30 END BOND
M  V30 END CTAB
M  END
>  <i_epik_Tot_Q>  (1) 
1

>  <i_epik_Tot_abs_Q>  (1) 
3

>  <i_i_glide_confnum>  (1) 
6092

>  <i_i_glide_lignum>  (1) 
219

>  <i_i_glide_posenum>  (1) 
310

>  <i_i_glide_rotatable_bonds>  (1) 
24

>  <i_lp_mmshare_version>  (1) 
72125

>  <i_m_source_file_index>  (1) 
94

>  <i_f3d_flags>  (1) 
0

>  <num_sample>  (1) 
100

>  <b_lp_Chiralities_Consistent>  (1) 
1

>  <r_epik_Charging_Adjusted_Penalty>  (1) 
0.90916677635763199

>  <r_epik_Ionization_Penalty>  (1) 
0.45507897092921873

>  <r_epik_Ionization_Penalty_Charging>  (1) 
0.45507471778648678

>  <r_epik_Ionization_Penalty_Neutral>  (1) 
4.2531427319391784e-06

>  <r_epik_State_Penalty>  (1) 
0.45409205857114521

>  <r_glide_ring_energy>  (1) 
0

>  <r_i_docking_score>  (1) 
-6.3888704350236178

>  <r_i_glide_ecoul>  (1) 
-5.9609705989862611

>  <r_i_glide_eff_state_penalty>  (1) 
0.45409205857114521

>  <r_i_glide_einternal>  (1) 
49.850501756451081

>  <r_i_glide_emodel>  (1) 
-32.788674502435569

>  <r_i_glide_emodel_strain>  (1) 
4.8087161481414711

>  <r_i_glide_energy>  (1) 
-38.854982687280696

>  <r_i_glide_erotb>  (1) 
0.82188833391367333

>  <r_i_glide_esite>  (1) 
-0.19660001629148499

>  <r_i_glide_evdw>  (1) 
-32.894012088294438

>  <r_i_glide_gscore>  (1) 
-6.8429624935947633

>  <r_i_glide_gscore_strain>  (1) 
0.20217903703536777

>  <r_i_glide_hbond>  (1) 
-0.19670460580181048

>  <r_i_glide_ligand_efficiency>  (1) 
-0.16381719064163122

>  <r_i_glide_ligand_efficiency_ln>  (1) 
-1.3699551801413044

>  <r_i_glide_ligand_efficiency_sa>  (1) 
-0.55553873146633315

>  <r_i_glide_lipo>  (1) 
-3.2298490218135041

>  <r_i_glide_metal>  (1) 
-0

>  <r_i_glide_rewards>  (1) 
-1.7050300263743432

>  <r_lp_Energy>  (1) 
13.939579

>  <s_epik_Chemistry_Notes>  (1) 
This compound contains an acetal/aminal-like group ( X-CH(R)-Y where X, Y are N, S, or O) that may be acid/base labile, releasing an aldehyde.

>  <s_epik_cmdline>  (1) 
J2VwaWtfcHl0aG9uJywgJy1waHQnLCAnMS4wJywgJy1waCcsICc3LjQnLCAnLXRuJywgJzgnLCAnLW1hJywgJzUwMCcsICctaW1hZScsICc8aW5maWxlLm1hZT4nLCAnLW9tYWUnLCAnPG91dGZpbGUubWFlPic=

>  <s_epik_input>  (1) 
W0NIMl0xW0NIMl1bQ0hdMVtDSDJdW0NAQEhdKFtDQEBIXShDKD1PKVtOSDJdKVtDSDJdQyg9TylbT0hdKVtDQEBIXShbQ0gyXVtPSF0pW0NIMl1bQ0gyXUMoPU8pTihbQ0gyXVtPSF0pW0NIMl1bQ0BASF0oW1MrXShbT0hdKVtPSF0pW0NASF0oW0NIM10pTjJbQ0gyXVtDSDJdW0NASF0oW09IXSlbQ0BASF0yW0NASF0oRilbQ0gzXQ==

>  <s_glide_docking_method>  (1) 
confgen

>  <s_i_glide_gridfile>  (1) 
gpcr_5ht2c_6bqh_protein_autoprepared_prepared

>  <s_lp_Force_Field>  (1) 
S-OPLS

>  <s_lp_Variant>  (1) 
DiffSBDD_93-7

>  <s_m_source_file>  (1) 
generated_GPCR_5HT2C_ligand_DiffSBDD_2026-06-23_prepared.sdf

>  <GenAI_Model>  (1) 
DiffSBDD

>  <Protein>  (1) 
GPCR_5HT2C

$$$$
DiffSBDD_62
     RDKit          3D

  0  0  0  0  0  0  0  0  0  0999 V3000
M  V30 BEGIN CTAB
M  V30 COUNTS 79 83 0 0 1
M  V30 BEGIN ATOM
M  V30 1 C 40.706237 32.606467 64.254127 0
M  V30 2 C 39.713070 29.592592 51.435288 0
M  V30 3 C 40.889685 28.881022 57.926092 0
M  V30 4 C 42.046911 33.337786 62.223953 0
M  V30 5 C 40.448917 35.221450 69.112212 0
M  V30 6 C 39.126865 27.033769 51.382765 0
M  V30 7 C 39.468831 29.241644 58.403281 0 CFG=2
M  V30 8 C 38.979291 28.545684 53.355667 0
M  V30 9 C 38.400362 28.006820 55.576013 0
M  V30 10 O 41.089464 34.797756 66.267413 0
M  V30 11 C 40.534880 33.883632 68.403332 0
M  V30 12 C 39.316525 31.620675 55.376699 0
M  V30 13 C 41.246740 32.255476 62.871696 0
M  V30 14 C 41.121202 33.834003 67.035714 0
M  V30 15 C 39.047133 30.220668 55.019619 0
M  V30 16 N 39.186834 29.803364 53.721337 0
M  V30 17 C 41.604668 27.703645 58.616964 0
M  V30 18 O 39.245566 28.137763 61.104456 0
M  V30 19 C 39.206677 34.594100 68.536062 0
M  V30 20 N 42.716262 32.675679 65.728505 0
M  V30 21 N 39.683618 30.654274 52.640600 0
M  V30 22 N 41.049357 31.139363 62.295776 0
M  V30 23 C 40.209882 30.100525 62.837086 0
M  V30 24 C 39.240247 28.339786 52.131449 0
M  V30 25 C 38.677429 29.413829 55.940886 0
M  V30 26 C 38.886218 31.448956 56.915608 0
M  V30 27 N 41.647153 32.634745 66.705766 0
M  V30 28 C 38.822808 29.453793 60.879624 0 CFG=2
M  V30 29 C 41.553345 31.994073 65.383166 0 CFG=1
M  V30 30 C 43.775896 26.223537 58.567765 0
M  V30 31 C 42.932600 27.341641 57.907357 0
M  V30 32 C 38.543822 29.918292 57.332464 0 CFG=2
M  V30 33 C 43.795888 28.537687 57.485948 0
M  V30 34 C 39.588477 30.066074 59.721554 0
M  V30 35 N 38.910857 30.139812 62.167862 0
M  V30 36 N 38.529498 27.598657 54.346253 0
M  V30 37 H 40.655264 33.688936 64.294832 0
M  V30 38 H 39.672114 32.282254 64.347507 0
M  V30 39 H 40.727703 29.479977 51.053631 0
M  V30 40 H 39.044184 29.890394 50.627938 0
M  V30 41 H 40.930467 28.718440 56.850881 0
M  V30 42 H 41.497458 29.737667 58.167762 0
M  V30 43 H 41.399461 34.139483 61.872255 0
M  V30 44 H 42.731241 33.737715 62.967756 0
M  V30 45 H 42.628170 32.946987 61.387944 0
M  V30 46 H 40.574301 35.217478 70.192662 0
M  V30 47 H 40.842974 36.102478 68.607974 0
M  V30 48 H 38.123858 26.938036 50.967918 0
M  V30 49 H 39.846465 26.997173 50.566155 0
M  V30 50 H 39.327577 26.193867 52.045020 0
M  V30 51 H 38.986227 28.286213 58.610829 0
M  V30 52 H 38.085886 27.347183 56.388979 0
M  V30 53 H 40.678249 32.998541 69.019154 0
M  V30 54 H 40.375589 31.848360 55.261543 0
M  V30 55 H 38.692914 32.327851 54.828078 0
M  V30 56 H 41.770942 27.925127 59.672242 0
M  V30 57 H 40.948674 26.832684 58.567744 0
M  V30 58 H 38.776777 35.062346 67.652424 0
M  V30 59 H 38.486452 34.137933 69.206416 0
M  V30 60 H 42.865545 33.586050 65.312604 0
M  V30 61 H 38.998578 31.385048 52.459263 0
M  V30 62 H 40.035858 30.206481 63.905039 0
M  V30 63 H 40.707345 29.136661 62.735161 0
M  V30 64 H 37.990292 32.048858 57.085350 0
M  V30 65 H 39.645125 31.905165 57.538195 0
M  V30 66 H 37.780263 29.456974 60.567711 0
M  V30 67 H 41.607171 30.907036 65.383469 0
M  V30 68 H 44.428526 26.537763 59.367760 0
M  V30 69 H 43.159853 25.420636 58.967762 0
M  V30 70 H 44.445271 25.782242 57.829668 0
M  V30 71 H 42.590288 26.937753 56.967760 0
M  V30 72 H 37.499504 29.852523 57.645390 0
M  V30 73 H 43.746527 29.374486 58.167764 0
M  V30 74 H 44.837989 28.249552 57.367759 0
M  V30 75 H 43.447313 28.937753 56.544285 0
M  V30 76 H 39.245169 31.091179 59.586426 0
M  V30 77 H 40.629597 30.137753 60.026257 0
M  V30 78 H 38.256659 29.702193 62.806609 0
M  V30 79 H 39.141230 27.932154 62.020557 0
M  V30 END ATOM
M  V30 BEGIN BOND
M  V30 1 1 7 3
M  V30 2 1 11 5
M  V30 3 1 13 1
M  V30 4 1 13 4
M  V30 5 2 14 10
M  V30 6 1 14 11
M  V30 7 1 15 12
M  V30 8 1 16 8
M  V30 9 1 16 15
M  V30 10 1 17 3
M  V30 11 1 19 5
M  V30 12 1 19 11
M  V30 13 1 21 2
M  V30 14 1 21 16
M  V30 15 2 22 13
M  V30 16 1 23 22
M  V30 17 1 24 2
M  V30 18 1 24 6
M  V30 19 2 24 8
M  V30 20 1 25 9
M  V30 21 2 25 15
M  V30 22 1 26 12
M  V30 23 1 27 14
M  V30 24 1 27 20
M  V30 25 1 28 18
M  V30 26 1 29 1
M  V30 27 1 29 20
M  V30 28 1 29 27
M  V30 29 1 31 17
M  V30 30 1 31 30
M  V30 31 1 32 7
M  V30 32 1 32 25
M  V30 33 1 32 26
M  V30 34 1 33 31
M  V30 35 1 34 7
M  V30 36 1 34 28
M  V30 37 1 35 23
M  V30 38 1 35 28
M  V30 39 1 36 8
M  V30 40 2 36 9
M  V30 41 1 37 1
M  V30 42 1 38 1
M  V30 43 1 39 2
M  V30 44 1 40 2
M  V30 45 1 41 3
M  V30 46 1 42 3
M  V30 47 1 43 4
M  V30 48 1 44 4
M  V30 49 1 45 4
M  V30 50 1 46 5
M  V30 51 1 47 5
M  V30 52 1 48 6
M  V30 53 1 49 6
M  V30 54 1 50 6
M  V30 55 1 7 51 CFG=1
M  V30 56 1 52 9
M  V30 57 1 53 11
M  V30 58 1 54 12
M  V30 59 1 55 12
M  V30 60 1 56 17
M  V30 61 1 57 17
M  V30 62 1 58 19
M  V30 63 1 59 19
M  V30 64 1 60 20
M  V30 65 1 61 21
M  V30 66 1 62 23
M  V30 67 1 63 23
M  V30 68 1 64 26
M  V30 69 1 65 26
M  V30 70 1 28 66 CFG=3
M  V30 71 1 29 67 CFG=1
M  V30 72 1 68 30
M  V30 73 1 69 30
M  V30 74 1 70 30
M  V30 75 1 71 31
M  V30 76 1 32 72 CFG=1
M  V30 77 1 73 33
M  V30 78 1 74 33
M  V30 79 1 75 33
M  V30 80 1 76 34
M  V30 81 1 77 34
M  V30 82 1 78 35
M  V30 83 1 79 18
M  V30 END BOND
M  V30 END CTAB
M  END
>  <i_epik_Tot_Q>  (1) 
0

>  <i_epik_Tot_abs_Q>  (1) 
0

>  <i_i_glide_confnum>  (1) 
2734

>  <i_i_glide_lignum>  (1) 
135

>  <i_i_glide_posenum>  (1) 
192

>  <i_i_glide_rotatable_bonds>  (1) 
14

>  <i_lp_mmshare_version>  (1) 
72125

>  <i_m_source_file_index>  (1) 
63

>  <i_f3d_flags>  (1) 
0

>  <num_sample>  (1) 
100

>  <b_lp_Chiralities_Consistent>  (1) 
1

>  <r_epik_Charging_Adjusted_Penalty>  (1) 
0.66759273229091232

>  <r_epik_Ionization_Penalty>  (1) 
2.307606927441598

>  <r_epik_Ionization_Penalty_Charging>  (1) 
0

>  <r_epik_Ionization_Penalty_Neutral>  (1) 
2.307606927441598

>  <r_epik_State_Penalty>  (1) 
0.66759273229091232

>  <r_glide_ring_energy>  (1) 
0

>  <r_i_docking_score>  (1) 
-6.3872390805534387

>  <r_i_glide_ecoul>  (1) 
-3.9038213464940674

>  <r_i_glide_eff_state_penalty>  (1) 
0.66759273229091232

>  <r_i_glide_einternal>  (1) 
12.773154910869899

>  <r_i_glide_emodel>  (1) 
-57.970026788483068

>  <r_i_glide_emodel_strain>  (1) 
3.6786978153364771

>  <r_i_glide_energy>  (1) 
-43.777379907847859

>  <r_i_glide_erotb>  (1) 
0.98835574197518972

>  <r_i_glide_esite>  (1) 
-0.036105388658921558

>  <r_i_glide_evdw>  (1) 
-39.873558561353789

>  <r_i_glide_gscore>  (1) 
-7.054831812844351

>  <r_i_glide_gscore_strain>  (1) 
0

>  <r_i_glide_hbond>  (1) 
-0.35772584456238515

>  <r_i_glide_ligand_efficiency>  (1) 
-0.17742330779315107

>  <r_i_glide_ligand_efficiency_ln>  (1) 
-1.3935230041189455

>  <r_i_glide_ligand_efficiency_sa>  (1) 
-0.58583885459122398

>  <r_i_glide_lipo>  (1) 
-3.0528152724872726

>  <r_i_glide_metal>  (1) 
-0

>  <r_i_glide_rewards>  (1) 
-2.0172899190691633

>  <r_lp_Energy>  (1) 
30.718252999999997

>  <r_lp_tautomer_probability>  (1) 
0.49999399997599986

>  <s_epik_Chemistry_Notes>  (1) 
This compound has an imine and may undergo hydrolysis. This compound contains an acetal/aminal-like group ( X-CH(R)-Y where X, Y are N, S, or O) that may be acid/base labile, releasing an aldehyde.

>  <s_epik_cmdline>  (1) 
J2VwaWtfcHl0aG9uJywgJy1waHQnLCAnMS4wJywgJy1waCcsICc3LjQnLCAnLXRuJywgJzgnLCAnLW1hJywgJzUwMCcsICctaW1hZScsICc8aW5maWxlLm1hZT4nLCAnLW9tYWUnLCAnPG91dGZpbGUubWFlPic=

>  <s_epik_input>  (1) 
W0NIMl0xW0NIMl1bQ0hdMUMoPU8pTjJbTkhdW0NAQEhdMltDSDJdL0MoW0NIM10pPU5cW0NIMl1bTkhdW0NASF0oW09IXSlbQ0gyXVtDQEhdKFtDSDJdW0NIMl1bQ0hdKFtDSDNdKVtDSDNdKVtDQEBIXShbQ0gyXVtDSDJdMylDKFtDSF09TjQpPUMzTihDND01KVtOSF1bQ0gyXUM1W0NIM10=

>  <s_glide_docking_method>  (1) 
confgen

>  <s_i_glide_gridfile>  (1) 
gpcr_5ht2c_6bqh_protein_autoprepared_prepared

>  <s_lp_Force_Field>  (1) 
S-OPLS

>  <s_lp_Variant>  (1) 
DiffSBDD_62-1

>  <s_m_source_file>  (1) 
generated_GPCR_5HT2C_ligand_DiffSBDD_2026-06-23_prepared.sdf

>  <GenAI_Model>  (1) 
DiffSBDD

>  <Protein>  (1) 
GPCR_5HT2C

$$$$
DiffSBDD_83
     RDKit          3D

  0  0  0  0  0  0  0  0  0  0999 V3000
M  V30 BEGIN CTAB
M  V30 COUNTS 54 55 0 0 1
M  V30 BEGIN ATOM
M  V30 1 C 40.082902 35.884116 63.369003 0
M  V30 2 C 38.515018 29.421213 58.477344 0
M  V30 3 N 37.199882 29.642213 58.563003 0
M  V30 4 O 37.830468 25.710779 54.167698 0
M  V30 5 O 41.229397 35.324067 63.772293 0
M  V30 6 C 39.817282 33.904624 61.796590 0
M  V30 7 C 41.111675 33.206866 62.220295 0
M  V30 8 C 37.540270 25.178906 56.291097 0
M  V30 9 C 38.736050 27.696679 50.966592 0
M  V30 10 C 39.370226 35.093413 62.307454 0
M  V30 11 C 39.049168 28.503543 57.413913 0
M  V30 12 C 38.409960 31.847479 61.232889 0
M  V30 13 N 37.099253 30.541150 59.551727 0
M  V30 14 O 41.645926 35.737613 65.108515 0
M  V30 15 C 38.738207 27.876988 54.867334 0 CFG=1
M  V30 16 C 39.340810 29.910867 53.305452 0
M  V30 17 C 37.815988 24.772658 55.107772 0
M  V30 18 O 39.645189 36.937073 63.830354 0
M  V30 19 C 37.539856 26.875235 54.968734 0 CFG=2
M  V30 20 C 39.245417 30.136896 59.475589 0
M  V30 21 O 37.305494 26.487800 56.358995 0
M  V30 22 C 39.401093 27.589378 52.337389 0
M  V30 23 C 38.730672 28.494500 53.412809 0 CFG=1
M  V30 24 C 38.293662 30.859579 60.125568 0
M  V30 25 Cl 37.490446 24.138089 57.663899 0
M  V30 26 C 39.022353 33.171869 60.732328 0
M  V30 27 C 38.551331 28.925030 56.004268 0
M  V30 28 H 36.206862 30.937533 59.813042 0
M  V30 29 H 41.254519 32.291689 61.645288 0
M  V30 30 H 41.987110 33.819115 62.010857 0
M  V30 31 H 41.091310 32.912180 63.270321 0
M  V30 32 H 39.203860 27.015306 50.254338 0
M  V30 33 H 37.681046 27.437074 51.023525 0
M  V30 34 H 38.817512 28.705186 50.560514 0
M  V30 35 H 38.443192 35.504944 61.938913 0
M  V30 36 H 40.138404 28.545564 57.413017 0
M  V30 37 H 38.823140 27.479169 57.691162 0
M  V30 38 H 39.033618 31.405037 62.010311 0
M  V30 39 H 37.440588 32.032772 61.696476 0
M  V30 40 H 41.861205 36.657481 64.962420 0
M  V30 41 H 39.671878 27.339643 55.037822 0
M  V30 42 H 40.322700 29.974273 53.774106 0
M  V30 43 H 39.457814 30.219998 52.266937 0
M  V30 44 H 38.696525 30.656579 53.773365 0
M  V30 45 H 38.045435 23.777032 54.767359 0
M  V30 46 H 36.630396 27.326115 54.567758 0
M  V30 47 H 40.307940 30.137970 59.659384 0
M  V30 48 H 40.445138 27.841254 52.170661 0
M  V30 49 H 39.401937 26.542703 52.631203 0
M  V30 50 H 37.687279 28.617461 53.118310 0
M  V30 51 H 38.242575 33.808403 60.310626 0
M  V30 52 H 39.713800 32.977708 59.911617 0
M  V30 53 H 37.498227 29.207442 56.031310 0
M  V30 54 H 39.083573 29.850176 55.797753 0
M  V30 END ATOM
M  V30 BEGIN BOND
M  V30 1 2 3 2
M  V30 2 1 5 1
M  V30 3 1 7 6
M  V30 4 1 10 1
M  V30 5 2 10 6
M  V30 6 1 11 2
M  V30 7 1 13 3
M  V30 8 1 14 5
M  V30 9 1 17 4
M  V30 10 2 17 8
M  V30 11 2 18 1
M  V30 12 1 19 4
M  V30 13 1 19 15
M  V30 14 1 20 2
M  V30 15 1 21 8
M  V30 16 1 21 19
M  V30 17 1 22 9
M  V30 18 1 23 15
M  V30 19 1 23 16
M  V30 20 1 23 22
M  V30 21 1 24 12
M  V30 22 1 24 13
M  V30 23 2 24 20
M  V30 24 1 25 8
M  V30 25 1 26 6
M  V30 26 1 26 12
M  V30 27 1 27 11
M  V30 28 1 27 15
M  V30 29 1 28 13
M  V30 30 1 29 7
M  V30 31 1 30 7
M  V30 32 1 31 7
M  V30 33 1 32 9
M  V30 34 1 33 9
M  V30 35 1 34 9
M  V30 36 1 35 10
M  V30 37 1 36 11
M  V30 38 1 37 11
M  V30 39 1 38 12
M  V30 40 1 39 12
M  V30 41 1 40 14
M  V30 42 1 15 41 CFG=1
M  V30 43 1 42 16
M  V30 44 1 43 16
M  V30 45 1 44 16
M  V30 46 1 45 17
M  V30 47 1 19 46 CFG=3
M  V30 48 1 47 20
M  V30 49 1 48 22
M  V30 50 1 49 22
M  V30 51 1 23 50 CFG=3
M  V30 52 1 51 26
M  V30 53 1 52 26
M  V30 54 1 53 27
M  V30 55 1 54 27
M  V30 END BOND
M  V30 END CTAB
M  END
>  <i_epik_Tot_Q>  (1) 
0

>  <i_epik_Tot_abs_Q>  (1) 
0

>  <i_i_glide_confnum>  (1) 
266

>  <i_i_glide_lignum>  (1) 
197

>  <i_i_glide_posenum>  (1) 
90

>  <i_i_glide_rotatable_bonds>  (1) 
12

>  <i_lp_mmshare_version>  (1) 
72125

>  <i_m_source_file_index>  (1) 
84

>  <i_f3d_flags>  (1) 
0

>  <num_sample>  (1) 
100

>  <b_lp_Chiralities_Consistent>  (1) 
1

>  <r_epik_Charging_Adjusted_Penalty>  (1) 
0.41067983895260396

>  <r_epik_Ionization_Penalty>  (1) 
0.00090540554532319911

>  <r_epik_Ionization_Penalty_Charging>  (1) 
0

>  <r_epik_Ionization_Penalty_Neutral>  (1) 
0.00090540554532319911

>  <r_epik_State_Penalty>  (1) 
0.41067983895260396

>  <r_glide_ring_energy>  (1) 
0

>  <r_i_docking_score>  (1) 
-6.3637695508000682

>  <r_i_glide_ecoul>  (1) 
-3.342638053442585

>  <r_i_glide_eff_state_penalty>  (1) 
0.41067983895260396

>  <r_i_glide_einternal>  (1) 
8.2089731821360896

>  <r_i_glide_emodel>  (1) 
-51.176066730032275

>  <r_i_glide_emodel_strain>  (1) 
2.2794119053105746

>  <r_i_glide_energy>  (1) 
-40.920907955398633

>  <r_i_glide_erotb>  (1) 
1.1080255732668134

>  <r_i_glide_esite>  (1) 
-0.083708378295801689

>  <r_i_glide_evdw>  (1) 
-37.578269901956048

>  <r_i_glide_gscore>  (1) 
-6.7744493897526725

>  <r_i_glide_gscore_strain>  (1) 
0

>  <r_i_glide_hbond>  (1) 
-0.32000000000000001

>  <r_i_glide_ligand_efficiency>  (1) 
-0.23569516854815067

>  <r_i_glide_ligand_efficiency_ln>  (1) 
-1.4813806364856628

>  <r_i_glide_ligand_efficiency_sa>  (1) 
-0.70708550564445216

>  <r_i_glide_lipo>  (1) 
-3.53623750682031

>  <r_i_glide_metal>  (1) 
-0

>  <r_i_glide_rewards>  (1) 
-1.5622198747891836

>  <r_lp_Energy>  (1) 
14.495433999999999

>  <r_lp_tautomer_probability>  (1) 
0.5

>  <s_epik_Chemistry_Notes>  (1) 
This compound contains an acetal/aminal-like group ( X-CH(R)-Y where X, Y are N, S, or O) that may be acid/base labile, releasing an aldehyde.

>  <s_epik_cmdline>  (1) 
J2VwaWtfcHl0aG9uJywgJy1waHQnLCAnMS4wJywgJy1waCcsICc3LjQnLCAnLXRuJywgJzgnLCAnLW1hJywgJzUwMCcsICctaW1hZScsICc8aW5maWxlLm1hZT4nLCAnLW9tYWUnLCAnPG91dGZpbGUubWFlPic=

>  <s_epik_input>  (1) 
W09IXU9DKD1PKS9bQ0hdPUMoXFtDSDNdKVtDSDJdW0NIMl1jKFtjSF0xKW5bbkhdYzFbQ0gyXVtDSDJdW0NASF0oW0NAQEhdKFtDSDNdKVtDSDJdW0NIM10pW0NAQEhdKE8yKU9bQ0hdPUMyQ2w=

>  <s_glide_docking_method>  (1) 
confgen

>  <s_i_glide_gridfile>  (1) 
gpcr_5ht2c_6bqh_protein_autoprepared_prepared

>  <s_lp_Force_Field>  (1) 
S-OPLS

>  <s_lp_Variant>  (1) 
DiffSBDD_83-8

>  <s_m_source_file>  (1) 
generated_GPCR_5HT2C_ligand_DiffSBDD_2026-06-23_prepared.sdf

>  <GenAI_Model>  (1) 
DiffSBDD

>  <Protein>  (1) 
GPCR_5HT2C

$$$$
DiffSBDD_62
     RDKit          3D

  0  0  0  0  0  0  0  0  0  0999 V3000
M  V30 BEGIN CTAB
M  V30 COUNTS 80 84 0 0 1
M  V30 BEGIN ATOM
M  V30 1 C 40.160690 30.453228 63.656809 0
M  V30 2 C 40.278968 29.950782 51.014218 0
M  V30 3 C 39.457658 28.972251 57.884851 0
M  V30 4 C 42.111934 31.952962 62.871487 0
M  V30 5 C 44.186586 27.000672 65.546089 0
M  V30 6 C 39.483847 27.485726 50.590842 0
M  V30 7 C 37.942560 29.170277 57.632706 0 CFG=2
M  V30 8 C 39.063570 28.840372 52.626038 0
M  V30 9 C 37.842709 28.245643 54.543056 0
M  V30 10 O 41.694307 27.977466 64.204133 0
M  V30 11 C 43.749614 28.436345 65.339561 0
M  V30 12 C 39.086419 31.746311 54.904454 0
M  V30 13 C 40.774642 31.314079 62.541941 0
M  V30 14 C 42.314470 28.679481 65.005396 0
M  V30 15 C 38.808993 30.404186 54.373542 0
M  V30 16 N 39.292252 30.036851 53.147459 0
M  V30 17 C 39.855530 27.656218 58.595730 0
M  V30 18 O 36.232388 31.299891 60.390194 0
M  V30 19 C 44.610148 27.741354 64.303704 0
M  V30 20 N 40.363202 29.662009 65.940369 0
M  V30 21 N 40.045133 30.927261 52.266931 0
M  V30 22 N 40.213213 31.487437 61.408448 0
M  V30 23 C 38.956721 30.849237 61.074407 0
M  V30 24 C 39.563943 28.702939 51.473804 0
M  V30 25 C 38.117576 29.597162 55.080764 0
M  V30 26 C 38.349130 31.493396 56.307913 0
M  V30 27 N 41.777593 29.750615 65.631578 0
M  V30 28 C 37.132499 31.057337 59.327564 0 CFG=2
M  V30 29 C 40.764455 30.652369 65.055295 0 CFG=1
M  V30 30 C 40.652123 26.537799 56.405007 0
M  V30 31 C 39.913723 26.360831 57.740939 0
M  V30 32 C 37.612976 30.048247 56.396106 0 CFG=2
M  V30 33 C 38.566746 25.643042 57.561777 0
M  V30 34 C 37.121755 29.573409 58.890322 0
M  V30 35 N 38.408103 31.552491 59.894682 0 CHG=1
M  V30 36 N 38.298909 27.885603 53.384082 0
M  V30 37 H 39.120530 30.743481 63.767844 0
M  V30 38 H 40.108164 29.418345 63.332898 0
M  V30 39 H 41.343187 29.771728 50.859768 0
M  V30 40 H 39.832566 30.369838 50.111949 0
M  V30 41 H 40.013369 29.058314 56.953103 0
M  V30 42 H 39.832297 29.798960 58.480565 0
M  V30 43 H 41.993327 32.725650 63.631421 0
M  V30 44 H 42.821393 31.206292 63.229449 0
M  V30 45 H 42.541367 32.423066 61.985823 0
M  V30 46 H 44.939168 26.817520 66.310771 0
M  V30 47 H 43.447164 26.210575 65.425898 0
M  V30 48 H 38.845137 27.747267 49.767682 0
M  V30 49 H 40.445247 27.219664 50.167770 0
M  V30 50 H 39.064855 26.618733 51.101853 0
M  V30 51 H 37.552853 28.188752 57.386857 0
M  V30 52 H 37.245289 27.584338 55.170807 0
M  V30 53 H 44.234218 29.182119 65.968488 0
M  V30 54 H 40.154395 31.922990 55.018630 0
M  V30 55 H 38.610771 32.525723 54.308181 0
M  V30 56 H 40.858809 27.811080 58.996917 0
M  V30 57 H 39.228100 27.494815 59.472350 0
M  V30 58 H 44.153717 27.428160 63.367789 0
M  V30 59 H 45.645096 28.065131 64.224045 0
M  V30 60 H 39.861533 28.875909 65.539112 0
M  V30 61 H 39.448601 31.709984 52.004700 0
M  V30 62 H 38.225897 30.913967 61.878802 0
M  V30 63 H 39.127148 29.795593 60.853180 0
M  V30 64 H 37.645080 32.304715 56.481446 0
M  V30 65 H 39.096285 31.585727 57.093843 0
M  V30 66 H 36.845143 31.720628 58.520118 0
M  V30 67 H 40.747876 31.673227 65.433217 0
M  V30 68 H 40.122980 27.193464 55.719062 0
M  V30 69 H 41.645103 26.956448 56.567765 0
M  V30 70 H 40.775452 25.584532 55.891778 0
M  V30 71 H 40.516052 25.660193 58.318114 0
M  V30 72 H 36.532759 30.137714 56.283066 0
M  V30 73 H 37.917491 26.142691 56.847593 0
M  V30 74 H 38.721624 24.630607 57.186414 0
M  V30 75 H 38.035776 25.557171 58.509273 0
M  V30 76 H 37.392708 28.937748 59.729268 0
M  V30 77 H 36.080722 29.322984 58.678814 0
M  V30 78 H 39.100652 31.520505 59.162493 0
M  V30 79 H 38.266121 32.518436 60.151018 0
M  V30 80 H 35.413370 31.589674 60.009154 0
M  V30 END ATOM
M  V30 BEGIN BOND
M  V30 1 1 7 3
M  V30 2 1 11 5
M  V30 3 1 13 1
M  V30 4 1 13 4
M  V30 5 2 14 10
M  V30 6 1 14 11
M  V30 7 1 15 12
M  V30 8 1 16 8
M  V30 9 1 16 15
M  V30 10 1 17 3
M  V30 11 1 19 5
M  V30 12 1 19 11
M  V30 13 1 21 2
M  V30 14 1 21 16
M  V30 15 2 22 13
M  V30 16 1 23 22
M  V30 17 1 24 2
M  V30 18 1 24 6
M  V30 19 2 24 8
M  V30 20 1 25 9
M  V30 21 2 25 15
M  V30 22 1 26 12
M  V30 23 1 27 14
M  V30 24 1 27 20
M  V30 25 1 28 18
M  V30 26 1 29 1
M  V30 27 1 29 20
M  V30 28 1 29 27
M  V30 29 1 31 17
M  V30 30 1 31 30
M  V30 31 1 32 7
M  V30 32 1 32 25
M  V30 33 1 32 26
M  V30 34 1 33 31
M  V30 35 1 34 7
M  V30 36 1 34 28
M  V30 37 1 35 23
M  V30 38 1 35 28
M  V30 39 1 36 8
M  V30 40 2 36 9
M  V30 41 1 37 1
M  V30 42 1 38 1
M  V30 43 1 39 2
M  V30 44 1 40 2
M  V30 45 1 41 3
M  V30 46 1 42 3
M  V30 47 1 43 4
M  V30 48 1 44 4
M  V30 49 1 45 4
M  V30 50 1 46 5
M  V30 51 1 47 5
M  V30 52 1 48 6
M  V30 53 1 49 6
M  V30 54 1 50 6
M  V30 55 1 7 51 CFG=3
M  V30 56 1 52 9
M  V30 57 1 53 11
M  V30 58 1 54 12
M  V30 59 1 55 12
M  V30 60 1 56 17
M  V30 61 1 57 17
M  V30 62 1 58 19
M  V30 63 1 59 19
M  V30 64 1 60 20
M  V30 65 1 61 21
M  V30 66 1 62 23
M  V30 67 1 63 23
M  V30 68 1 64 26
M  V30 69 1 65 26
M  V30 70 1 28 66 CFG=3
M  V30 71 1 29 67 CFG=1
M  V30 72 1 68 30
M  V30 73 1 69 30
M  V30 74 1 70 30
M  V30 75 1 71 31
M  V30 76 1 32 72 CFG=3
M  V30 77 1 73 33
M  V30 78 1 74 33
M  V30 79 1 75 33
M  V30 80 1 76 34
M  V30 81 1 77 34
M  V30 82 1 78 35
M  V30 83 1 79 35
M  V30 84 1 80 18
M  V30 END BOND
M  V30 END CTAB
M  END
>  <i_epik_Tot_Q>  (1) 
1

>  <i_epik_Tot_abs_Q>  (1) 
1

>  <i_i_glide_confnum>  (1) 
3034

>  <i_i_glide_lignum>  (1) 
137

>  <i_i_glide_posenum>  (1) 
99

>  <i_i_glide_rotatable_bonds>  (1) 
14

>  <i_lp_mmshare_version>  (1) 
72125

>  <i_m_source_file_index>  (1) 
63

>  <i_f3d_flags>  (1) 
0

>  <num_sample>  (1) 
100

>  <b_lp_Chiralities_Consistent>  (1) 
1

>  <r_epik_Charging_Adjusted_Penalty>  (1) 
1.9108014557952604

>  <r_epik_Ionization_Penalty>  (1) 
0.8812751426241725

>  <r_epik_Ionization_Penalty_Charging>  (1) 
0.72483633588800112

>  <r_epik_Ionization_Penalty_Neutral>  (1) 
0.15643880673617139

>  <r_epik_State_Penalty>  (1) 
1.1859651199072592

>  <r_glide_ring_energy>  (1) 
0

>  <r_i_docking_score>  (1) 
-6.3593000954602292

>  <r_i_glide_ecoul>  (1) 
-4.6233886979345051

>  <r_i_glide_eff_state_penalty>  (1) 
1.1859651199072592

>  <r_i_glide_einternal>  (1) 
10.805785540135972

>  <r_i_glide_emodel>  (1) 
-79.070077398997967

>  <r_i_glide_emodel_strain>  (1) 
0.0263291818889968

>  <r_i_glide_energy>  (1) 
-59.840823735637883

>  <r_i_glide_erotb>  (1) 
0.98469743448682379

>  <r_i_glide_esite>  (1) 
-0.094918850193764739

>  <r_i_glide_evdw>  (1) 
-55.217435037703375

>  <r_i_glide_gscore>  (1) 
-7.5452652153674888

>  <r_i_glide_gscore_strain>  (1) 
0

>  <r_i_glide_hbond>  (1) 
-0.21279903930253377

>  <r_i_glide_ligand_efficiency>  (1) 
-0.17664722487389525

>  <r_i_glide_ligand_efficiency_ln>  (1) 
-1.3874274723957538

>  <r_i_glide_ligand_efficiency_sa>  (1) 
-0.58327628525273156

>  <r_i_glide_lipo>  (1) 
-3.1732237163459414

>  <r_i_glide_metal>  (1) 
-0

>  <r_i_glide_rewards>  (1) 
-1.5946409874367276

>  <r_lp_Energy>  (1) 
37.126494999999998

>  <r_lp_tautomer_probability>  (1) 
0.49999399997599986

>  <s_epik_Chemistry_Notes>  (1) 
This compound has an imine and may undergo hydrolysis. This compound contains an acetal/aminal-like group ( X-CH(R)-Y where X, Y are N, S, or O) that may be acid/base labile, releasing an aldehyde.

>  <s_epik_cmdline>  (1) 
J2VwaWtfcHl0aG9uJywgJy1waHQnLCAnMS4wJywgJy1waCcsICc3LjQnLCAnLXRuJywgJzgnLCAnLW1hJywgJzUwMCcsICctaW1hZScsICc8aW5maWxlLm1hZT4nLCAnLW9tYWUnLCAnPG91dGZpbGUubWFlPic=

>  <s_epik_input>  (1) 
W0NIMl0xW0NIMl1bQ0hdMUMoPU8pTjJbTkhdW0NAQEhdMltDSDJdL0MoW0NIM10pPU5cW0NIMl1bTkhdW0NASF0oW09IXSlbQ0gyXVtDQEhdKFtDSDJdW0NIMl1bQ0hdKFtDSDNdKVtDSDNdKVtDQEBIXShbQ0gyXVtDSDJdMylDKFtDSF09TjQpPUMzTihDND01KVtOSF1bQ0gyXUM1W0NIM10=

>  <s_glide_docking_method>  (1) 
confgen

>  <s_i_glide_gridfile>  (1) 
gpcr_5ht2c_6bqh_protein_autoprepared_prepared

>  <s_lp_Force_Field>  (1) 
S-OPLS

>  <s_lp_Variant>  (1) 
DiffSBDD_62-3

>  <s_m_source_file>  (1) 
generated_GPCR_5HT2C_ligand_DiffSBDD_2026-06-23_prepared.sdf

>  <GenAI_Model>  (1) 
DiffSBDD

>  <Protein>  (1) 
GPCR_5HT2C

$$$$
DiffSBDD_83
     RDKit          3D

  0  0  0  0  0  0  0  0  0  0999 V3000
M  V30 BEGIN CTAB
M  V30 COUNTS 54 55 0 0 1
M  V30 BEGIN ATOM
M  V30 1 C 39.613516 35.626195 62.223129 0
M  V30 2 C 38.051435 31.082962 55.721600 0
M  V30 3 N 38.532341 32.175157 55.127756 0
M  V30 4 O 39.648228 27.198245 52.276900 0
M  V30 5 O 40.875074 35.393083 62.631143 0
M  V30 6 C 38.067756 34.886317 60.395191 0
M  V30 7 C 36.923512 35.766227 60.883291 0
M  V30 8 C 39.256438 29.199892 51.422978 0
M  V30 9 C 37.533327 24.492995 56.414444 0
M  V30 10 C 39.287329 34.830391 61.007962 0
M  V30 11 C 37.549090 29.954569 54.885807 0
M  V30 12 C 38.888617 33.138833 58.651772 0
M  V30 13 N 38.845006 32.969698 56.157989 0
M  V30 14 O 41.118626 35.737509 64.026715 0
M  V30 15 C 37.969945 27.595350 54.012713 0 CFG=1
M  V30 16 C 39.826874 26.019952 55.022994 0
M  V30 17 C 40.106044 28.261789 51.626585 0
M  V30 18 O 38.839214 36.395342 62.796502 0
M  V30 19 C 38.288705 27.617841 52.492428 0 CFG=1
M  V30 20 C 38.091537 31.177267 57.150918 0
M  V30 21 O 38.044775 28.937432 51.925827 0
M  V30 22 C 37.473704 25.934159 55.893576 0
M  V30 23 C 38.333352 26.207071 54.644027 0 CFG=1
M  V30 24 C 38.601212 32.415709 57.379522 0
M  V30 25 Cl 39.645468 30.661830 50.585163 0
M  V30 26 C 37.749574 34.051555 59.149205 0
M  V30 27 C 38.572403 28.819623 54.744708 0
M  V30 28 H 39.224118 33.893841 56.011590 0
M  V30 29 H 36.082942 35.712849 60.188775 0
M  V30 30 H 36.573930 35.435078 61.861870 0
M  V30 31 H 37.217985 36.813628 60.936044 0
M  V30 32 H 36.835999 24.355835 57.240985 0
M  V30 33 H 37.268094 23.782374 55.631408 0
M  V30 34 H 38.525743 24.231619 56.779970 0
M  V30 35 H 40.060522 34.190492 60.619027 0
M  V30 36 H 36.625546 29.592501 55.330232 0
M  V30 37 H 37.273106 30.323942 53.901614 0
M  V30 38 H 39.787801 33.732075 58.499744 0
M  V30 39 H 39.131318 32.403029 59.419383 0
M  V30 40 H 41.298258 36.668146 63.967362 0
M  V30 41 H 36.882435 27.684335 54.046530 0
M  V30 42 H 40.106821 26.628715 55.882250 0
M  V30 43 H 40.036966 24.983345 55.291073 0
M  V30 44 H 40.514853 26.271555 54.220772 0
M  V30 45 H 41.143720 28.216396 51.347200 0
M  V30 46 H 37.645141 26.930815 51.953367 0
M  V30 47 H 37.774492 30.450182 57.882996 0
M  V30 48 H 37.727367 26.628275 56.694434 0
M  V30 49 H 36.442878 26.132028 55.639690 0
M  V30 50 H 38.053435 25.441456 53.920274 0
M  V30 51 H 36.869832 33.441105 59.354950 0
M  V30 52 H 37.457164 34.733419 58.347828 0
M  V30 53 H 39.483433 29.174229 54.261983 0
M  V30 54 H 38.870427 28.532605 55.751830 0
M  V30 END ATOM
M  V30 BEGIN BOND
M  V30 1 2 3 2
M  V30 2 1 5 1
M  V30 3 1 7 6
M  V30 4 1 10 1
M  V30 5 2 10 6
M  V30 6 1 11 2
M  V30 7 1 13 3
M  V30 8 1 14 5
M  V30 9 1 17 4
M  V30 10 2 17 8
M  V30 11 2 18 1
M  V30 12 1 19 4
M  V30 13 1 19 15
M  V30 14 1 20 2
M  V30 15 1 21 8
M  V30 16 1 21 19
M  V30 17 1 22 9
M  V30 18 1 23 15
M  V30 19 1 23 16
M  V30 20 1 23 22
M  V30 21 1 24 12
M  V30 22 1 24 13
M  V30 23 2 24 20
M  V30 24 1 25 8
M  V30 25 1 26 6
M  V30 26 1 26 12
M  V30 27 1 27 11
M  V30 28 1 27 15
M  V30 29 1 28 13
M  V30 30 1 29 7
M  V30 31 1 30 7
M  V30 32 1 31 7
M  V30 33 1 32 9
M  V30 34 1 33 9
M  V30 35 1 34 9
M  V30 36 1 35 10
M  V30 37 1 36 11
M  V30 38 1 37 11
M  V30 39 1 38 12
M  V30 40 1 39 12
M  V30 41 1 40 14
M  V30 42 1 15 41 CFG=3
M  V30 43 1 42 16
M  V30 44 1 43 16
M  V30 45 1 44 16
M  V30 46 1 45 17
M  V30 47 1 19 46 CFG=3
M  V30 48 1 47 20
M  V30 49 1 48 22
M  V30 50 1 49 22
M  V30 51 1 23 50 CFG=3
M  V30 52 1 51 26
M  V30 53 1 52 26
M  V30 54 1 53 27
M  V30 55 1 54 27
M  V30 END BOND
M  V30 END CTAB
M  END
>  <i_epik_Tot_Q>  (1) 
0

>  <i_epik_Tot_abs_Q>  (1) 
0

>  <i_i_glide_confnum>  (1) 
1616

>  <i_i_glide_lignum>  (1) 
195

>  <i_i_glide_posenum>  (1) 
239

>  <i_i_glide_rotatable_bonds>  (1) 
12

>  <i_lp_mmshare_version>  (1) 
72125

>  <i_m_source_file_index>  (1) 
84

>  <i_f3d_flags>  (1) 
0

>  <num_sample>  (1) 
100

>  <b_lp_Chiralities_Consistent>  (1) 
1

>  <r_epik_Charging_Adjusted_Penalty>  (1) 
0.41067983895260396

>  <r_epik_Ionization_Penalty>  (1) 
0.00090540554532319911

>  <r_epik_Ionization_Penalty_Charging>  (1) 
0

>  <r_epik_Ionization_Penalty_Neutral>  (1) 
0.00090540554532319911

>  <r_epik_State_Penalty>  (1) 
0.41067983895260396

>  <r_glide_ring_energy>  (1) 
0

>  <r_i_docking_score>  (1) 
-6.356133972434411

>  <r_i_glide_ecoul>  (1) 
-2.8622813194104362

>  <r_i_glide_eff_state_penalty>  (1) 
0.41067983895260396

>  <r_i_glide_einternal>  (1) 
10.272220371037289

>  <r_i_glide_emodel>  (1) 
-55.731634258225434

>  <r_i_glide_emodel_strain>  (1) 
0.18311172574231449

>  <r_i_glide_energy>  (1) 
-44.156111559718745

>  <r_i_glide_erotb>  (1) 
1.1080255732668134

>  <r_i_glide_esite>  (1) 
-0.020367084111974028

>  <r_i_glide_evdw>  (1) 
-41.29383024030831

>  <r_i_glide_gscore>  (1) 
-6.7668138113870153

>  <r_i_glide_gscore_strain>  (1) 
0

>  <r_i_glide_hbond>  (1) 
-0.32000000000000001

>  <r_i_glide_ligand_efficiency>  (1) 
-0.23541236934942264

>  <r_i_glide_ligand_efficiency_ln>  (1) 
-1.4796031997244854

>  <r_i_glide_ligand_efficiency_sa>  (1) 
-0.706237108048268

>  <r_i_glide_lipo>  (1) 
-3.2089488099512269

>  <r_i_glide_metal>  (1) 
-0

>  <r_i_glide_rewards>  (1) 
-1.8314897806636465

>  <r_lp_Energy>  (1) 
13.076443999999999

>  <r_lp_tautomer_probability>  (1) 
0.5

>  <s_epik_Chemistry_Notes>  (1) 
This compound contains an acetal/aminal-like group ( X-CH(R)-Y where X, Y are N, S, or O) that may be acid/base labile, releasing an aldehyde.

>  <s_epik_cmdline>  (1) 
J2VwaWtfcHl0aG9uJywgJy1waHQnLCAnMS4wJywgJy1waCcsICc3LjQnLCAnLXRuJywgJzgnLCAnLW1hJywgJzUwMCcsICctaW1hZScsICc8aW5maWxlLm1hZT4nLCAnLW9tYWUnLCAnPG91dGZpbGUubWFlPic=

>  <s_epik_input>  (1) 
W09IXU9DKD1PKS9bQ0hdPUMoXFtDSDNdKVtDSDJdW0NIMl1jKFtjSF0xKW5bbkhdYzFbQ0gyXVtDSDJdW0NASF0oW0NAQEhdKFtDSDNdKVtDSDJdW0NIM10pW0NAQEhdKE8yKU9bQ0hdPUMyQ2w=

>  <s_glide_docking_method>  (1) 
confgen

>  <s_i_glide_gridfile>  (1) 
gpcr_5ht2c_6bqh_protein_autoprepared_prepared

>  <s_lp_Force_Field>  (1) 
S-OPLS

>  <s_lp_Variant>  (1) 
DiffSBDD_83-6

>  <s_m_source_file>  (1) 
generated_GPCR_5HT2C_ligand_DiffSBDD_2026-06-23_prepared.sdf

>  <GenAI_Model>  (1) 
DiffSBDD

>  <Protein>  (1) 
GPCR_5HT2C

$$$$
DiffSBDD_4
     RDKit          3D

  0  0  0  0  0  0  0  0  0  0999 V3000
M  V30 BEGIN CTAB
M  V30 COUNTS 71 74 0 0 1
M  V30 BEGIN ATOM
M  V30 1 C 40.576961 27.145843 57.706534 0
M  V30 2 C 39.464493 38.035513 61.767759 0
M  V30 3 C 40.961281 33.876735 63.300534 0
M  V30 4 N 39.802926 28.368881 57.628513 0
M  V30 5 C 38.946136 28.669632 59.949109 0
M  V30 6 O 42.053678 32.402158 64.825824 0
M  V30 7 C 37.643593 25.862040 54.999647 0
M  V30 8 C 37.641620 30.453883 56.094005 0
M  V30 9 C 41.466825 32.502405 63.748695 0
M  V30 10 O 38.759925 27.927248 55.512481 0
M  V30 11 C 38.589001 26.567157 55.710784 0
M  V30 12 C 39.558791 30.745586 54.638857 0
M  V30 13 C 38.441420 33.051279 61.805555 0
M  V30 14 O 38.845341 31.013741 59.369233 0
M  V30 15 O 37.261419 24.671205 54.967818 0 CHG=-1
M  V30 16 C 41.696211 30.077696 63.338214 0
M  V30 17 C 38.865915 35.555866 61.890229 0 CFG=1
M  V30 18 C 39.605986 28.763513 56.255026 0 CFG=1
M  V30 19 C 38.613485 28.319118 58.487909 0
M  V30 20 C 39.164669 30.231277 56.024707 0 CFG=2
M  V30 21 O 39.756114 30.413638 61.410240 0
M  V30 22 N 41.240574 31.420159 62.937415 0
M  V30 23 C 37.924349 34.436380 61.391183 0
M  V30 24 N 37.290366 31.336946 54.967748 0 CHG=1
M  V30 25 C 40.571364 31.557029 61.616509 0 CFG=2
M  V30 26 C 38.544636 31.863539 54.409259 0
M  V30 27 C 39.174847 30.162278 60.195601 0
M  V30 28 C 39.882207 32.912028 61.282782 0 CFG=2
M  V30 29 O 40.203153 35.294427 61.441014 0
M  V30 30 C 38.456218 36.948128 61.373504 0 CFG=1
M  V30 31 S 39.645138 25.804806 56.928040 0
M  V30 32 C 40.845345 29.530118 64.492833 0
M  V30 33 C 40.764927 34.031102 61.805481 0 CFG=1
M  V30 34 O 37.209094 37.320470 61.921751 0
M  V30 35 H 41.525319 27.265319 57.180869 0
M  V30 36 H 40.815097 26.899041 58.737875 0
M  V30 37 H 40.446324 37.803436 61.367798 0
M  V30 38 H 39.170459 39.006581 61.368248 0
M  V30 39 H 39.583166 38.117345 62.848279 0
M  V30 40 H 41.666683 34.632824 63.645769 0
M  V30 41 H 40.045309 34.054698 63.852067 0
M  V30 42 H 39.818826 28.114217 60.293973 0
M  V30 43 H 38.121630 28.342179 60.567494 0
M  V30 44 H 37.185833 26.641633 54.352119 0
M  V30 45 H 37.056242 29.540287 56.012355 0
M  V30 46 H 37.369766 30.934829 57.034057 0
M  V30 47 H 40.590766 31.095257 54.592647 0
M  V30 48 H 39.431602 29.964418 53.887814 0
M  V30 49 H 37.781748 32.287279 61.396581 0
M  V30 50 H 38.411369 32.927373 62.885860 0
M  V30 51 H 41.666077 29.378999 62.502457 0
M  V30 52 H 42.744697 30.111326 63.638003 0
M  V30 53 H 38.850237 35.595797 62.977904 0
M  V30 54 H 40.578187 28.661114 55.768719 0
M  V30 55 H 38.133859 27.342506 58.447697 0
M  V30 56 H 37.849009 29.006007 58.138419 0
M  V30 57 H 39.651900 30.859334 56.771026 0
M  V30 58 H 36.912642 34.585208 61.767795 0
M  V30 59 H 37.853844 34.481860 60.303538 0
M  V30 60 H 36.654584 32.066236 55.291973 0
M  V30 61 H 41.397272 31.448002 60.913742 0
M  V30 62 H 38.829163 32.757379 54.968832 0
M  V30 63 H 38.443675 32.137700 53.360673 0
M  V30 64 H 39.868949 33.024384 60.198602 0
M  V30 65 H 38.359243 36.920389 60.287945 0
M  V30 66 H 40.973160 28.453592 64.605795 0
M  V30 67 H 41.107161 29.994776 65.444023 0
M  V30 68 H 39.790045 29.737760 64.316468 0
M  V30 69 H 41.758278 33.972963 61.367582 0
M  V30 70 H 36.562831 36.687394 61.650528 0
M  V30 71 H 36.825584 30.769971 54.275717 0
M  V30 END ATOM
M  V30 BEGIN BOND
M  V30 1 1 4 1
M  V30 2 1 9 3
M  V30 3 2 9 6
M  V30 4 2 11 7
M  V30 5 1 11 10
M  V30 6 1 15 7
M  V30 7 1 18 4
M  V30 8 1 18 10
M  V30 9 1 19 4
M  V30 10 1 19 5
M  V30 11 1 20 8
M  V30 12 1 20 12
M  V30 13 1 20 18
M  V30 14 1 22 9
M  V30 15 1 22 16
M  V30 16 1 23 13
M  V30 17 1 23 17
M  V30 18 1 24 8
M  V30 19 1 25 21
M  V30 20 1 25 22
M  V30 21 1 26 12
M  V30 22 1 26 24
M  V30 23 1 27 5
M  V30 24 2 27 14
M  V30 25 1 27 21
M  V30 26 1 28 13
M  V30 27 1 28 25
M  V30 28 1 29 17
M  V30 29 1 30 2
M  V30 30 1 30 17
M  V30 31 1 31 1
M  V30 32 1 31 11
M  V30 33 1 32 16
M  V30 34 1 33 3
M  V30 35 1 33 28
M  V30 36 1 33 29
M  V30 37 1 34 30
M  V30 38 1 35 1
M  V30 39 1 36 1
M  V30 40 1 37 2
M  V30 41 1 38 2
M  V30 42 1 39 2
M  V30 43 1 40 3
M  V30 44 1 41 3
M  V30 45 1 42 5
M  V30 46 1 43 5
M  V30 47 1 44 7
M  V30 48 1 45 8
M  V30 49 1 46 8
M  V30 50 1 47 12
M  V30 51 1 48 12
M  V30 52 1 49 13
M  V30 53 1 50 13
M  V30 54 1 51 16
M  V30 55 1 52 16
M  V30 56 1 17 53 CFG=1
M  V30 57 1 18 54 CFG=3
M  V30 58 1 55 19
M  V30 59 1 56 19
M  V30 60 1 20 57 CFG=1
M  V30 61 1 58 23
M  V30 62 1 59 23
M  V30 63 1 60 24
M  V30 64 1 25 61 CFG=3
M  V30 65 1 62 26
M  V30 66 1 63 26
M  V30 67 1 28 64 CFG=3
M  V30 68 1 30 65 CFG=3
M  V30 69 1 66 32
M  V30 70 1 67 32
M  V30 71 1 68 32
M  V30 72 1 33 69 CFG=3
M  V30 73 1 70 34
M  V30 74 1 71 24
M  V30 END BOND
M  V30 END CTAB
M  END
>  <i_epik_Tot_Q>  (1) 
0

>  <i_epik_Tot_abs_Q>  (1) 
2

>  <i_i_glide_confnum>  (1) 
21

>  <i_i_glide_lignum>  (1) 
6

>  <i_i_glide_posenum>  (1) 
188

>  <i_i_glide_rotatable_bonds>  (1) 
9

>  <i_lp_mmshare_version>  (1) 
72125

>  <i_m_source_file_index>  (1) 
5

>  <i_f3d_flags>  (1) 
0

>  <num_sample>  (1) 
100

>  <b_lp_Chiralities_Consistent>  (1) 
1

>  <r_epik_Charging_Adjusted_Penalty>  (1) 
0.4511966576135748

>  <r_epik_Ionization_Penalty>  (1) 
0.22596636941758144

>  <r_epik_Ionization_Penalty_Charging>  (1) 
0.2259645209400469

>  <r_epik_Ionization_Penalty_Neutral>  (1) 
1.8484775345295036e-06

>  <r_epik_State_Penalty>  (1) 
0.2252321366735279

>  <r_glide_ring_energy>  (1) 
1.7395171629556041

>  <r_i_docking_score>  (1) 
-6.3550562927061813

>  <r_i_glide_ecoul>  (1) 
-0.69964251068645655

>  <r_i_glide_eff_state_penalty>  (1) 
0.2252321366735279

>  <r_i_glide_einternal>  (1) 
7.5283678511829866

>  <r_i_glide_emodel>  (1) 
-58.615392510303423

>  <r_i_glide_emodel_strain>  (1) 
2.6473199308838105

>  <r_i_glide_energy>  (1) 
-44.639282852299793

>  <r_i_glide_erotb>  (1) 
0.57244041532536438

>  <r_i_glide_esite>  (1) 
-0.092780879103204678

>  <r_i_glide_evdw>  (1) 
-43.939640341613334

>  <r_i_glide_gscore>  (1) 
-6.580288429379709

>  <r_i_glide_gscore_strain>  (1) 
0

>  <r_i_glide_hbond>  (1) 
-0.29609547594106883

>  <r_i_glide_ligand_efficiency>  (1) 
-0.18691342037371123

>  <r_i_glide_ligand_efficiency_ln>  (1) 
-1.4040101883499645

>  <r_i_glide_ligand_efficiency_sa>  (1) 
-0.6055269224598141

>  <r_i_glide_lipo>  (1) 
-3.3995028886598706

>  <r_i_glide_metal>  (1) 
-0

>  <r_i_glide_rewards>  (1) 
-1.0624212073172947

>  <r_lp_Energy>  (1) 
57.065157999999997

>  <s_epik_Chemistry_Notes>  (1) 
This compound has an ester and may undergo hydrolysis at high or low pH. This compound contains an acetal/aminal-like group ( X-CH(R)-Y where X, Y are N, S, or O) that may be acid/base labile, releasing an aldehyde.

>  <s_epik_cmdline>  (1) 
J2VwaWtfcHl0aG9uJywgJy1waHQnLCAnMS4wJywgJy1waCcsICc3LjQnLCAnLXRuJywgJzgnLCAnLW1hJywgJzUwMCcsICctaW1hZScsICc8aW5maWxlLm1hZT4nLCAnLW9tYWUnLCAnPG91dGZpbGUubWFlPic=

>  <s_epik_input>  (1) 
W0NIMl0xW0NIMl1bTkhdW0NIMl1bQ0BIXTFbQ0BASF0yT1tDQEBIXShbQ0hdPU8pU1tDSDJdTjJbQ0gyXVtDSDJdQyg9TylPW0NAQEhdM04oW0NIMl1bQ0gzXSlDKD1PKVtDSDJdW0NAQEhdKFtDQEBIXTM0KU9bQ0BIXShbQ0gyXVtDSDJdNClbQ0BIXShbQ0gzXSlbT0hd

>  <s_glide_docking_method>  (1) 
confgen

>  <s_i_glide_gridfile>  (1) 
gpcr_5ht2c_6bqh_protein_autoprepared_prepared

>  <s_lp_Force_Field>  (1) 
S-OPLS

>  <s_lp_Variant>  (1) 
DiffSBDD_4-1

>  <s_m_source_file>  (1) 
generated_GPCR_5HT2C_ligand_DiffSBDD_2026-06-23_prepared.sdf

>  <GenAI_Model>  (1) 
DiffSBDD

>  <Protein>  (1) 
GPCR_5HT2C

$$$$
DiffSBDD_10
     RDKit          3D

  0  0  0  0  0  0  0  0  0  0999 V3000
M  V30 BEGIN CTAB
M  V30 COUNTS 84 88 0 0 1
M  V30 BEGIN ATOM
M  V30 1 C 41.229654 34.150264 67.249514 0
M  V30 2 C 37.308890 26.860406 53.991749 0
M  V30 3 C 38.650790 28.531152 55.291488 0
M  V30 4 C 37.822286 33.339615 58.931228 0
M  V30 5 C 38.043901 34.426369 59.786955 0
M  V30 6 O 39.818385 28.914227 55.543168 0 CHG=-1
M  V30 7 C 40.613530 28.137419 59.983128 0
M  V30 8 C 40.131398 30.385337 62.166758 0 CFG=1
M  V30 9 O 41.245128 25.737760 53.367759 0
M  V30 10 C 40.374359 29.646667 59.773306 0 CFG=1
M  V30 11 C 38.218017 26.032455 56.259710 0 CFG=2
M  V30 12 C 42.550580 30.926554 67.050376 0 CFG=1
M  V30 13 O 37.644966 29.270152 55.230666 0
M  V30 14 O 39.553381 26.758790 52.487555 0 CHG=-1
M  V30 15 F 37.163106 33.529119 57.765967 0
M  V30 16 C 38.733817 34.251865 60.993801 0
M  V30 17 C 40.986029 29.560843 63.079887 0
M  V30 18 C 38.278169 32.056487 59.274501 0
M  V30 19 F 37.587058 35.655130 59.446352 0
M  V30 20 C 37.770949 24.566662 55.996532 0
M  V30 21 C 40.171195 26.308332 53.475442 0
M  V30 22 C 44.442906 32.625299 67.314565 0
M  V30 23 C 40.649776 30.865901 65.312009 0
M  V30 24 C 36.284455 24.311113 55.736076 0
M  V30 25 C 41.249020 32.038696 62.987316 0 CFG=1
M  V30 26 C 42.139011 29.897909 68.114542 0
M  V30 27 C 41.302588 31.675101 66.466193 0 CFG=2
M  V30 28 C 39.399405 27.307581 59.556400 0
M  V30 29 O 39.907387 29.737771 58.441921 0
M  V30 30 S 37.473500 26.724451 57.712970 0
M  V30 31 N 43.348871 31.538055 69.202262 0
M  V30 32 C 43.440415 31.692535 67.963551 0
M  V30 33 C 38.979124 31.832603 60.486106 0
M  V30 34 O 41.166560 31.300552 61.851891 0
M  V30 35 C 39.212095 32.983120 61.378118 0
M  V30 36 C 41.457281 33.168062 66.087391 0
M  V30 37 C 39.462742 30.350846 60.830059 0 CFG=2
M  V30 38 C 38.864120 27.732684 58.236396 0 CFG=1
M  V30 39 O 42.341802 30.557212 69.377670 0
M  V30 40 O 38.578501 29.081083 58.356739 0
M  V30 41 C 38.433150 27.001723 55.022342 0 CFG=1
M  V30 42 C 39.927783 32.871921 62.769152 0
M  V30 43 N 39.699697 26.440605 54.678429 0
M  V30 44 C 41.405212 30.791853 63.955383 0 CFG=2
M  V30 45 H 41.322333 35.179811 66.903930 0
M  V30 46 H 40.227369 34.039366 67.663085 0
M  V30 47 H 41.936170 34.015851 68.066208 0
M  V30 48 H 36.445152 27.077070 54.567784 0
M  V30 49 H 37.345333 27.598894 53.189341 0
M  V30 50 H 37.242815 25.875476 53.536239 0
M  V30 51 H 41.465871 27.845270 59.367567 0
M  V30 52 H 40.888369 27.889854 61.004625 0
M  V30 53 H 39.278253 30.611315 62.808976 0
M  V30 54 H 41.342672 30.136065 59.767803 0
M  V30 55 H 39.188275 25.798269 56.709580 0
M  V30 56 H 43.151581 30.455087 66.273494 0
M  V30 57 H 38.889291 35.100387 61.642372 0
M  V30 58 H 40.445888 28.782240 63.619123 0
M  V30 59 H 41.846151 29.119982 62.574631 0
M  V30 60 H 38.083072 31.243991 58.604314 0
M  V30 61 H 38.352901 24.137710 55.178871 0
M  V30 62 H 38.040152 23.980831 56.876233 0
M  V30 63 H 44.524272 32.445010 66.242365 0
M  V30 64 H 44.141624 33.659041 67.473375 0
M  V30 65 H 45.429337 32.489273 67.757119 0
M  V30 66 H 39.645464 31.242593 65.143696 0
M  V30 67 H 40.492473 29.850583 65.672675 0
M  V30 68 H 36.044341 23.258326 55.882420 0
M  V30 69 H 35.656728 24.903745 56.400160 0
M  V30 70 H 36.018822 24.536958 54.708596 0
M  V30 71 H 42.140211 32.666361 62.951546 0
M  V30 72 H 41.109819 29.547834 68.019212 0
M  V30 73 H 42.786518 29.019368 68.075026 0
M  V30 74 H 40.550736 31.676369 67.257893 0
M  V30 75 H 38.592888 27.367580 60.285636 0
M  V30 76 H 39.670213 26.267586 59.367770 0
M  V30 77 H 42.406608 33.355380 65.589488 0
M  V30 78 H 40.696623 33.417785 65.352626 0
M  V30 79 H 38.553288 29.756316 60.922190 0
M  V30 80 H 39.700000 27.616178 57.552174 0
M  V30 81 H 40.130039 33.881306 63.125199 0
M  V30 82 H 39.111178 32.545969 63.384968 0
M  V30 83 H 40.259158 26.089746 55.437366 0
M  V30 84 H 42.465456 30.655310 64.158060 0
M  V30 END ATOM
M  V30 BEGIN BOND
M  V30 1 1 5 4
M  V30 2 1 6 3
M  V30 3 1 10 7
M  V30 4 2 13 3
M  V30 5 1 15 4
M  V30 6 2 16 5
M  V30 7 1 17 8
M  V30 8 2 18 4
M  V30 9 1 19 5
M  V30 10 1 20 11
M  V30 11 2 21 9
M  V30 12 1 21 14
M  V30 13 1 24 20
M  V30 14 1 26 12
M  V30 15 1 27 12
M  V30 16 1 27 23
M  V30 17 1 28 7
M  V30 18 1 29 10
M  V30 19 1 30 11
M  V30 20 1 32 12
M  V30 21 1 32 22
M  V30 22 2 32 31
M  V30 23 1 33 18
M  V30 24 1 34 8
M  V30 25 1 34 25
M  V30 26 1 35 16
M  V30 27 2 35 33
M  V30 28 1 36 1
M  V30 29 1 36 27
M  V30 30 1 37 8
M  V30 31 1 37 10
M  V30 32 1 37 33
M  V30 33 1 38 28
M  V30 34 1 38 30
M  V30 35 1 39 26
M  V30 36 1 39 31
M  V30 37 1 40 29
M  V30 38 1 40 38
M  V30 39 1 41 2
M  V30 40 1 41 3
M  V30 41 1 41 11
M  V30 42 1 42 25
M  V30 43 1 42 35
M  V30 44 1 43 21
M  V30 45 1 41 43 CFG=3
M  V30 46 1 44 17
M  V30 47 1 44 23
M  V30 48 1 44 25
M  V30 49 1 45 1
M  V30 50 1 46 1
M  V30 51 1 47 1
M  V30 52 1 48 2
M  V30 53 1 49 2
M  V30 54 1 50 2
M  V30 55 1 51 7
M  V30 56 1 52 7
M  V30 57 1 8 53 CFG=1
M  V30 58 1 10 54 CFG=3
M  V30 59 1 11 55 CFG=1
M  V30 60 1 12 56 CFG=3
M  V30 61 1 57 16
M  V30 62 1 58 17
M  V30 63 1 59 17
M  V30 64 1 60 18
M  V30 65 1 61 20
M  V30 66 1 62 20
M  V30 67 1 63 22
M  V30 68 1 64 22
M  V30 69 1 65 22
M  V30 70 1 66 23
M  V30 71 1 67 23
M  V30 72 1 68 24
M  V30 73 1 69 24
M  V30 74 1 70 24
M  V30 75 1 25 71 CFG=3
M  V30 76 1 72 26
M  V30 77 1 73 26
M  V30 78 1 27 74 CFG=1
M  V30 79 1 75 28
M  V30 80 1 76 28
M  V30 81 1 77 36
M  V30 82 1 78 36
M  V30 83 1 37 79 CFG=1
M  V30 84 1 38 80 CFG=3
M  V30 85 1 81 42
M  V30 86 1 82 42
M  V30 87 1 83 43
M  V30 88 1 44 84 CFG=1
M  V30 END BOND
M  V30 END CTAB
M  END
>  <i_epik_Tot_Q>  (1) 
-2

>  <i_epik_Tot_abs_Q>  (1) 
2

>  <i_i_glide_confnum>  (1) 
595

>  <i_i_glide_lignum>  (1) 
17

>  <i_i_glide_posenum>  (1) 
151

>  <i_i_glide_rotatable_bonds>  (1) 
12

>  <i_lp_mmshare_version>  (1) 
72125

>  <i_m_source_file_index>  (1) 
11

>  <i_f3d_flags>  (1) 
0

>  <num_sample>  (1) 
100

>  <b_lp_Chiralities_Consistent>  (1) 
1

>  <r_epik_Charging_Adjusted_Penalty>  (1) 
0.0066641346833683675

>  <r_epik_Ionization_Penalty>  (1) 
0.0034118145539950863

>  <r_epik_Ionization_Penalty_Charging>  (1) 
0.0034117433904366969

>  <r_epik_Ionization_Penalty_Neutral>  (1) 
7.1163558389510919e-08

>  <r_epik_State_Penalty>  (1) 
0.0032523912929316705

>  <r_glide_ring_energy>  (1) 
1.0808791285296326

>  <r_i_docking_score>  (1) 
-6.3543036760349469

>  <r_i_glide_ecoul>  (1) 
-2.7875221686468672

>  <r_i_glide_eff_state_penalty>  (1) 
0.0032523912929316705

>  <r_i_glide_einternal>  (1) 
47.301916124751486

>  <r_i_glide_emodel>  (1) 
-14.879428273862267

>  <r_i_glide_emodel_strain>  (1) 
2.4376405628026134

>  <r_i_glide_energy>  (1) 
-27.946578105637276

>  <r_i_glide_erotb>  (1) 
0.27131343112086626

>  <r_i_glide_esite>  (1) 
-0.071512120467047482

>  <r_i_glide_evdw>  (1) 
-25.159055936990409

>  <r_i_glide_gscore>  (1) 
-6.357556067327879

>  <r_i_glide_gscore_strain>  (1) 
0

>  <r_i_glide_hbond>  (1) 
-0.20240638976044209

>  <r_i_glide_ligand_efficiency>  (1) 
-0.14441599263715788

>  <r_i_glide_ligand_efficiency_ln>  (1) 
-1.3281880866479698

>  <r_i_glide_ligand_efficiency_sa>  (1) 
-0.50983875920105137

>  <r_i_glide_lipo>  (1) 
-4.2972310378734653

>  <r_i_glide_metal>  (1) 
-0

>  <r_i_glide_rewards>  (1) 
-0.3816388282012404

>  <r_lp_Energy>  (1) 
101.860817

>  <s_epik_Chemistry_Notes>  (1) 
This compound has an imine and may undergo hydrolysis. This compound contains an acetal/aminal-like group ( X-CH(R)-Y where X, Y are N, S, or O) that may be acid/base labile, releasing an aldehyde.

>  <s_epik_cmdline>  (1) 
J2VwaWtfcHl0aG9uJywgJy1waHQnLCAnMS4wJywgJy1waCcsICc3LjQnLCAnLXRuJywgJzgnLCAnLW1hJywgJzUwMCcsICctaW1hZScsICc8aW5maWxlLm1hZT4nLCAnLW9tYWUnLCAnPG91dGZpbGUubWFlPic=

>  <s_epik_input>  (1) 
W0NIM11DMT1OT1tDSDJdW0NASF0xW0NAQEhdKFtDSDJdW0NIM10pW0NIMl1bQ0BASF0oW0NIMl1bQ0BASF0yMylbQ0BASF0oTzIpW0NIMl1jNGMoW2NIXWMoRiljKEYpW2NIXTQpW0NASF0zW0NASF01W0NIMl1bQ0gyXVtDQEhdKE9PNSlTW0NAQEhdKFtDSDJdW0NIM10pW0NAQF0oW0NIM10pKEMoPU8pW09IXSlbTkhdQyg9TylbT0hd

>  <s_glide_docking_method>  (1) 
confgen

>  <s_i_glide_gridfile>  (1) 
gpcr_5ht2c_6bqh_protein_autoprepared_prepared

>  <s_lp_Force_Field>  (1) 
S-OPLS

>  <s_lp_Variant>  (1) 
DiffSBDD_10-1

>  <s_m_source_file>  (1) 
generated_GPCR_5HT2C_ligand_DiffSBDD_2026-06-23_prepared.sdf

>  <GenAI_Model>  (1) 
DiffSBDD

>  <Protein>  (1) 
GPCR_5HT2C

$$$$
DiffSBDD_63
     RDKit          3D

  0  0  0  0  0  0  0  0  0  0999 V3000
M  V30 BEGIN CTAB
M  V30 COUNTS 83 88 0 0 1
M  V30 BEGIN ATOM
M  V30 1 F 41.090146 31.595445 68.122329 0
M  V30 2 C 38.458978 27.620968 55.223124 0
M  V30 3 C 42.077025 30.821385 67.675873 0 CFG=1
M  V30 4 C 37.064596 35.943616 60.577035 0
M  V30 5 C 40.474237 32.289862 63.625404 0
M  V30 6 C 40.240109 30.482102 61.782238 0 CFG=1
M  V30 7 N 41.657172 28.560069 68.408520 0 CHG=1
M  V30 8 C 38.444166 32.644199 56.409761 0
M  V30 9 C 38.922114 29.738875 54.005825 0
M  V30 10 C 37.903277 30.507406 57.746788 0 CFG=2
M  V30 11 C 38.268366 32.028537 57.794280 0 CFG=2
M  V30 12 C 41.224998 32.085981 64.950396 0
M  V30 13 C 38.439512 31.930774 55.272940 0
M  V30 14 C 38.518875 28.291695 56.419762 0
M  V30 15 N 38.328837 26.234652 55.378267 0
M  V30 16 N 40.445235 29.983142 64.267943 0 CHG=1
M  V30 17 C 40.693530 30.754858 65.489140 0 CFG=1
M  V30 18 C 36.580498 33.561671 61.281350 0
M  V30 19 C 38.158455 24.428922 57.079358 0
M  V30 20 O 40.603138 28.137780 62.215326 0
M  V30 21 O 38.036984 29.904017 59.040443 0
M  V30 22 S 38.431737 27.181192 57.767627 0
M  V30 23 C 40.957317 28.763618 67.126747 0 CFG=2
M  V30 24 C 39.921328 30.903261 63.240651 0 CFG=1
M  V30 25 C 40.978878 27.474183 66.287423 0
M  V30 26 C 38.665321 29.779159 56.593340 0 CFG=1
M  V30 27 C 40.172334 28.996887 61.454374 0
M  V30 28 C 38.294552 25.847811 56.650654 0
M  V30 29 O 36.845365 36.918044 59.576544 0
M  V30 30 C 36.671848 34.532834 60.089023 0 CFG=2
M  V30 31 C 37.653772 34.019085 59.017052 0
M  V30 32 C 39.284823 29.962342 59.647956 0 CFG=2
M  V30 33 O 37.305637 32.704740 58.603109 0
M  V30 34 C 38.254300 30.428429 55.233599 0 CFG=2
M  V30 35 O 39.616466 28.762540 60.267070 0
M  V30 36 C 42.405115 29.785450 68.754698 0
M  V30 37 C 39.263353 31.024417 60.759121 0
M  V30 38 C 41.619295 29.992124 66.468417 0 CFG=2
M  V30 39 C 38.519764 28.244312 53.867714 0
M  V30 40 H 42.918659 31.477421 67.448406 0
M  V30 41 H 38.110632 35.971618 60.882453 0
M  V30 42 H 36.482977 36.226213 61.453220 0
M  V30 43 H 41.139041 32.705733 62.867446 0
M  V30 44 H 39.656618 33.000207 63.748038 0
M  V30 45 H 41.249094 30.800112 61.525510 0
M  V30 46 H 42.309336 27.793268 68.321857 0
M  V30 47 H 38.575920 33.713983 56.366446 0
M  V30 48 H 38.687782 30.261819 53.079800 0
M  V30 49 H 40.004706 29.809380 54.121732 0
M  V30 50 H 36.845139 30.408254 57.520449 0
M  V30 51 H 39.244906 32.154865 58.243746 0
M  V30 52 H 42.294910 32.013406 64.751734 0
M  V30 53 H 41.073352 32.912484 65.646495 0
M  V30 54 H 38.562955 32.432451 54.324032 0
M  V30 55 H 39.780402 29.228595 64.418851 0
M  V30 56 H 39.725407 30.937736 65.959815 0
M  V30 57 H 37.546484 33.436995 61.769046 0
M  V30 58 H 35.873152 33.918408 62.031713 0
M  V30 59 H 36.241558 32.576676 60.956795 0
M  V30 60 H 37.411968 23.921424 56.467134 0
M  V30 61 H 39.118135 23.919165 56.982249 0
M  V30 62 H 37.841166 24.379842 58.120756 0
M  V30 63 H 39.922550 29.010221 67.367860 0
M  V30 64 H 38.840906 30.907822 63.374263 0
M  V30 65 H 40.407819 27.574369 65.366125 0
M  V30 66 H 41.994709 27.188288 66.014068 0
M  V30 67 H 40.536203 26.641864 66.836999 0
M  V30 68 H 39.729914 29.967370 56.731371 0
M  V30 69 H 36.986224 37.775336 59.950300 0
M  V30 70 H 35.679421 34.591012 59.639874 0
M  V30 71 H 37.631622 34.682548 58.153986 0
M  V30 72 H 38.667203 34.034775 59.418279 0
M  V30 73 H 40.058943 30.137022 58.906659 0
M  V30 74 H 37.177758 30.293118 55.106766 0
M  V30 75 H 43.471026 29.553766 68.747705 0
M  V30 76 H 42.143461 30.137162 69.753981 0
M  V30 77 H 39.545882 32.009118 60.392252 0
M  V30 78 H 38.252036 31.080167 61.164665 0
M  V30 79 H 42.517382 29.667189 65.939293 0
M  V30 80 H 37.539426 28.172889 53.393495 0
M  V30 81 H 39.222126 27.717101 53.220937 0
M  V30 82 H 41.316184 29.595083 63.933812 0
M  V30 83 H 40.966049 28.326138 69.112731 0
M  V30 END ATOM
M  V30 BEGIN BOND
M  V30 1 1 3 1
M  V30 2 1 11 8
M  V30 3 1 11 10
M  V30 4 1 12 5
M  V30 5 2 13 8
M  V30 6 2 14 2
M  V30 7 1 15 2
M  V30 8 1 17 12
M  V30 9 1 17 16
M  V30 10 1 21 10
M  V30 11 1 22 14
M  V30 12 1 23 7
M  V30 13 1 24 5
M  V30 14 1 24 6
M  V30 15 1 24 16
M  V30 16 1 25 23
M  V30 17 1 26 10
M  V30 18 1 26 14
M  V30 19 1 27 6
M  V30 20 2 27 20
M  V30 21 2 28 15
M  V30 22 1 28 19
M  V30 23 1 28 22
M  V30 24 1 29 4
M  V30 25 1 30 4
M  V30 26 1 30 18
M  V30 27 1 31 30
M  V30 28 1 32 21
M  V30 29 1 33 11
M  V30 30 1 33 31
M  V30 31 1 34 9
M  V30 32 1 34 13
M  V30 33 1 34 26
M  V30 34 1 35 27
M  V30 35 1 35 32
M  V30 36 1 36 3
M  V30 37 1 36 7
M  V30 38 1 37 6
M  V30 39 1 37 32
M  V30 40 1 38 3
M  V30 41 1 38 17
M  V30 42 1 38 23
M  V30 43 1 39 2
M  V30 44 1 39 9
M  V30 45 1 3 40 CFG=3
M  V30 46 1 41 4
M  V30 47 1 42 4
M  V30 48 1 43 5
M  V30 49 1 44 5
M  V30 50 1 6 45 CFG=3
M  V30 51 1 46 7
M  V30 52 1 47 8
M  V30 53 1 48 9
M  V30 54 1 49 9
M  V30 55 1 10 50 CFG=3
M  V30 56 1 11 51 CFG=1
M  V30 57 1 52 12
M  V30 58 1 53 12
M  V30 59 1 54 13
M  V30 60 1 55 16
M  V30 61 1 17 56 CFG=1
M  V30 62 1 57 18
M  V30 63 1 58 18
M  V30 64 1 59 18
M  V30 65 1 60 19
M  V30 66 1 61 19
M  V30 67 1 62 19
M  V30 68 1 23 63 CFG=1
M  V30 69 1 24 64 CFG=3
M  V30 70 1 65 25
M  V30 71 1 66 25
M  V30 72 1 67 25
M  V30 73 1 26 68 CFG=1
M  V30 74 1 69 29
M  V30 75 1 30 70 CFG=3
M  V30 76 1 71 31
M  V30 77 1 72 31
M  V30 78 1 32 73 CFG=3
M  V30 79 1 34 74 CFG=3
M  V30 80 1 75 36
M  V30 81 1 76 36
M  V30 82 1 77 37
M  V30 83 1 78 37
M  V30 84 1 38 79 CFG=3
M  V30 85 1 80 39
M  V30 86 1 81 39
M  V30 87 1 82 16
M  V30 88 1 83 7
M  V30 END BOND
M  V30 END CTAB
M  END
>  <i_epik_Tot_Q>  (1) 
2

>  <i_epik_Tot_abs_Q>  (1) 
2

>  <i_i_glide_confnum>  (1) 
1324

>  <i_i_glide_lignum>  (1) 
142

>  <i_i_glide_posenum>  (1) 
283

>  <i_i_glide_rotatable_bonds>  (1) 
9

>  <i_lp_mmshare_version>  (1) 
72125

>  <i_m_source_file_index>  (1) 
64

>  <i_f3d_flags>  (1) 
0

>  <num_sample>  (1) 
100

>  <b_lp_Chiralities_Consistent>  (1) 
1

>  <r_epik_Charging_Adjusted_Penalty>  (1) 
0.080070908620723774

>  <r_epik_Ionization_Penalty>  (1) 
0.041568301575603359

>  <r_epik_Ionization_Penalty_Charging>  (1) 
0.040241786303222601

>  <r_epik_Ionization_Penalty_Neutral>  (1) 
0.0013265152723807572

>  <r_epik_State_Penalty>  (1) 
0.039829122317501166

>  <r_glide_ring_energy>  (1) 
0

>  <r_i_docking_score>  (1) 
-6.3511860872800208

>  <r_i_glide_ecoul>  (1) 
-4.0010219013392776

>  <r_i_glide_eff_state_penalty>  (1) 
0.039829122317501166

>  <r_i_glide_einternal>  (1) 
5.429206237458569

>  <r_i_glide_emodel>  (1) 
-73.33216127493948

>  <r_i_glide_emodel_strain>  (1) 
0.19248707124295095

>  <r_i_glide_energy>  (1) 
-54.68130520095081

>  <r_i_glide_erotb>  (1) 
0.43483266289788453

>  <r_i_glide_esite>  (1) 
-0.074313163596873164

>  <r_i_glide_evdw>  (1) 
-50.680283299611531

>  <r_i_glide_gscore>  (1) 
-6.3910152095975219

>  <r_i_glide_gscore_strain>  (1) 
0

>  <r_i_glide_hbond>  (1) 
0

>  <r_i_glide_ligand_efficiency>  (1) 
-0.16285092531487233

>  <r_i_glide_ligand_efficiency_ln>  (1) 
-1.3618745862512522

>  <r_i_glide_ligand_efficiency_sa>  (1) 
-0.5522619214332406

>  <r_i_glide_lipo>  (1) 
-2.7044490447738672

>  <r_i_glide_metal>  (1) 
-0

>  <r_i_glide_rewards>  (1) 
-0.91291821394319772

>  <r_lp_Energy>  (1) 
32.274032999999996

>  <s_epik_Chemistry_Notes>  (1) 
This compound has an ester and may undergo hydrolysis at high or low pH. This compound contains an acetal/aminal-like group ( X-CH(R)-Y where X, Y are N, S, or O) that may be acid/base labile, releasing an aldehyde.

>  <s_epik_cmdline>  (1) 
J2VwaWtfcHl0aG9uJywgJy1waHQnLCAnMS4wJywgJy1waCcsICc3LjQnLCAnLXRuJywgJzgnLCAnLW1hJywgJzUwMCcsICctaW1hZScsICc8aW5maWxlLm1hZT4nLCAnLW9tYWUnLCAnPG91dGZpbGUubWFlPic=

>  <s_epik_input>  (1) 
RltDQEhdMVtDSDJdW05IXVtDQEhdKFtDSDNdKVtDQEhdMVtDQEhdMltDSDJdW0NIMl1bQ0BIXShbTkhdMilbQ0BIXTNDKD1PKU9bQ0BIXShbQ0gyXTMpT1tDQEhdNFtDQEhdKE9bQ0gyXVtDQEBIXShbQ0gzXSlbQ0gyXVtPSF0pW0NIXT1bQ0hdW0NAQEhdKFtDSDJdW0NIMl01KVtDQEBIXTRjKGM1NilzYyhuNilbQ0gzXQ==

>  <s_glide_docking_method>  (1) 
confgen

>  <s_i_glide_gridfile>  (1) 
gpcr_5ht2c_6bqh_protein_autoprepared_prepared

>  <s_lp_Force_Field>  (1) 
S-OPLS

>  <s_lp_Variant>  (1) 
DiffSBDD_63-4

>  <s_m_source_file>  (1) 
generated_GPCR_5HT2C_ligand_DiffSBDD_2026-06-23_prepared.sdf

>  <GenAI_Model>  (1) 
DiffSBDD

>  <Protein>  (1) 
GPCR_5HT2C

$$$$
DiffSBDD_53
     RDKit          3D

  0  0  0  0  0  0  0  0  0  0999 V3000
M  V30 BEGIN CTAB
M  V30 COUNTS 82 86 0 0 1
M  V30 BEGIN ATOM
M  V30 1 C 38.936333 28.281562 58.062938 0
M  V30 2 C 37.374557 32.470343 61.973146 0
M  V30 3 C 41.081419 32.802376 65.254054 0
M  V30 4 C 40.041569 27.409128 58.689229 0
M  V30 5 C 40.483357 32.961842 62.198157 0
M  V30 6 C 37.666584 27.808595 53.346085 0
M  V30 7 C 40.609244 30.945157 54.918021 0
M  V30 8 N 39.497409 29.269777 57.136429 0
M  V30 9 N 42.045148 36.137748 66.167764 0 CHG=1
M  V30 10 C 37.176059 33.109367 59.128263 0
M  V30 11 C 38.539652 30.098246 56.386518 0 CFG=1
M  V30 12 N 40.907246 28.137756 59.643235 0 CHG=1
M  V30 13 C 40.479275 31.894099 63.016226 0
M  V30 14 C 39.682925 32.920001 60.930136 0
M  V30 15 C 39.292571 31.177307 55.630172 0 CFG=1
M  V30 16 C 39.014974 30.623575 61.530730 0 CFG=1
M  V30 17 C 37.675044 29.295075 55.406350 0 CFG=2
M  V30 18 C 41.053356 35.065719 66.210629 0
M  V30 19 O 39.130403 32.477314 56.155884 0
M  V30 20 C 40.159306 28.716261 60.910649 0
M  V30 21 C 36.681684 33.766126 61.511710 0
M  V30 22 C 36.100452 33.595034 60.105746 0
M  V30 23 C 38.480087 31.979304 61.007358 0
M  V30 24 O 39.789232 30.006734 60.547216 0
M  V30 25 C 37.848584 31.810744 59.610290 0
M  V30 26 C 38.474117 28.834488 54.169939 0 CFG=2
M  V30 27 O 36.619937 30.137752 54.967775 0
M  V30 28 C 41.573477 34.678729 63.717932 0
M  V30 29 N 38.845325 30.030768 53.367756 0 CFG=2 CHG=1
M  V30 30 O 39.737947 30.769912 62.723068 0
M  V30 31 C 39.565621 29.774968 52.095055 0
M  V30 32 C 39.375005 31.205513 54.108474 0 CFG=2
M  V30 33 C 41.245131 34.176732 62.493295 0
M  V30 34 C 41.290354 31.743538 64.245631 0
M  V30 35 C 41.240172 34.118057 65.044643 0
M  V30 36 H 38.332041 28.766342 58.831778 0
M  V30 37 H 38.265950 27.605586 57.535549 0
M  V30 38 H 36.604233 31.708169 62.059299 0
M  V30 39 H 37.792040 32.580339 62.967572 0
M  V30 40 H 40.827252 32.457789 66.246977 0
M  V30 41 H 39.584324 26.568357 59.212197 0
M  V30 42 H 40.666560 26.973359 57.907533 0
M  V30 43 H 37.332067 26.980248 53.971812 0
M  V30 44 H 36.778343 28.255423 52.898004 0
M  V30 45 H 38.260459 27.370819 52.543421 0
M  V30 46 H 41.345644 31.737628 54.967656 0
M  V30 47 H 41.012728 29.940564 54.967691 0
M  V30 48 H 40.102793 29.906665 57.645958 0
M  V30 49 H 41.981625 36.689167 67.011151 0
M  V30 50 H 42.971536 35.748365 66.093458 0
M  V30 51 H 37.916091 33.893194 58.964325 0
M  V30 52 H 36.720306 32.937700 58.165063 0
M  V30 53 H 37.864897 30.580973 57.092371 0
M  V30 54 H 41.604222 27.476492 59.959654 0
M  V30 55 H 39.389895 33.933621 60.660213 0
M  V30 56 H 40.374908 32.582460 60.167784 0
M  V30 57 H 38.170888 29.981375 61.765040 0
M  V30 58 H 37.245178 28.440084 55.909600 0
M  V30 59 H 40.053030 35.499054 66.176334 0
M  V30 60 H 41.146931 34.542079 67.162678 0
M  V30 61 H 38.206689 32.692792 56.158735 0
M  V30 62 H 39.303221 28.089209 61.167339 0
M  V30 63 H 40.853840 28.741769 61.752210 0
M  V30 64 H 37.382781 34.600996 61.531612 0
M  V30 65 H 35.876345 34.029189 62.195622 0
M  V30 66 H 35.672694 34.535240 59.757556 0
M  V30 67 H 35.282811 32.873149 60.131586 0
M  V30 68 H 38.616629 31.526538 58.894344 0
M  V30 69 H 37.112255 31.005679 59.619738 0
M  V30 70 H 39.383573 28.333089 54.504626 0
M  V30 71 H 36.204155 30.572176 55.713518 0
M  V30 72 H 42.074384 35.633592 63.709195 0
M  V30 73 H 40.445223 29.153036 52.229523 0
M  V30 74 H 38.913495 29.279710 51.376456 0
M  V30 75 H 39.885318 30.713577 51.639400 0
M  V30 76 H 39.244667 32.137769 53.578290 0
M  V30 77 H 41.521022 34.783910 61.643508 0
M  V30 78 H 41.060049 30.783696 64.708143 0
M  V30 79 H 42.347339 31.706996 63.977985 0
M  V30 80 H 37.933909 30.369749 53.094627 0
M  V30 81 H 41.889858 36.762872 65.379849 0
M  V30 82 H 41.395082 28.876559 59.160080 0
M  V30 END ATOM
M  V30 BEGIN BOND
M  V30 1 1 4 1
M  V30 2 1 8 1
M  V30 3 1 11 8
M  V30 4 1 12 4
M  V30 5 2 13 5
M  V30 6 1 14 5
M  V30 7 1 15 7
M  V30 8 1 15 11
M  V30 9 1 17 11
M  V30 10 1 18 9
M  V30 11 1 15 19 CFG=1
M  V30 12 1 20 12
M  V30 13 1 21 2
M  V30 14 1 22 10
M  V30 15 1 22 21
M  V30 16 1 23 2
M  V30 17 1 23 14
M  V30 18 1 23 16
M  V30 19 1 24 16
M  V30 20 1 24 20
M  V30 21 1 25 10
M  V30 22 1 25 23
M  V30 23 1 26 6
M  V30 24 1 26 17
M  V30 25 1 27 17
M  V30 26 1 29 26
M  V30 27 1 30 13
M  V30 28 1 30 16
M  V30 29 1 31 29
M  V30 30 1 32 7
M  V30 31 1 32 15
M  V30 32 1 32 29
M  V30 33 1 33 5
M  V30 34 2 33 28
M  V30 35 1 34 3
M  V30 36 1 34 13
M  V30 37 2 35 3
M  V30 38 1 35 18
M  V30 39 1 35 28
M  V30 40 1 36 1
M  V30 41 1 37 1
M  V30 42 1 38 2
M  V30 43 1 39 2
M  V30 44 1 40 3
M  V30 45 1 41 4
M  V30 46 1 42 4
M  V30 47 1 43 6
M  V30 48 1 44 6
M  V30 49 1 45 6
M  V30 50 1 46 7
M  V30 51 1 47 7
M  V30 52 1 48 8
M  V30 53 1 49 9
M  V30 54 1 50 9
M  V30 55 1 51 10
M  V30 56 1 52 10
M  V30 57 1 11 53 CFG=1
M  V30 58 1 54 12
M  V30 59 1 55 14
M  V30 60 1 56 14
M  V30 61 1 16 57 CFG=1
M  V30 62 1 17 58 CFG=1
M  V30 63 1 59 18
M  V30 64 1 60 18
M  V30 65 1 61 19
M  V30 66 1 62 20
M  V30 67 1 63 20
M  V30 68 1 64 21
M  V30 69 1 65 21
M  V30 70 1 66 22
M  V30 71 1 67 22
M  V30 72 1 68 25
M  V30 73 1 69 25
M  V30 74 1 26 70 CFG=1
M  V30 75 1 71 27
M  V30 76 1 72 28
M  V30 77 1 73 31
M  V30 78 1 74 31
M  V30 79 1 75 31
M  V30 80 1 32 76 CFG=3
M  V30 81 1 77 33
M  V30 82 1 78 34
M  V30 83 1 79 34
M  V30 84 1 29 80 CFG=3
M  V30 85 1 81 9
M  V30 86 1 82 12
M  V30 END BOND
M  V30 END CTAB
M  END
>  <i_epik_Tot_Q>  (1) 
3

>  <i_epik_Tot_abs_Q>  (1) 
3

>  <i_i_glide_confnum>  (1) 
635

>  <i_i_glide_lignum>  (1) 
113

>  <i_i_glide_posenum>  (1) 
397

>  <i_i_glide_rotatable_bonds>  (1) 
10

>  <i_lp_mmshare_version>  (1) 
72125

>  <i_m_source_file_index>  (1) 
54

>  <i_f3d_flags>  (1) 
0

>  <num_sample>  (1) 
100

>  <b_lp_Chiralities_Consistent>  (1) 
1

>  <r_epik_Charging_Adjusted_Penalty>  (1) 
1.5449594399157651

>  <r_epik_Ionization_Penalty>  (1) 
0.47240059175592303

>  <r_epik_Ionization_Penalty_Charging>  (1) 
0.40568266018177357

>  <r_epik_Ionization_Penalty_Neutral>  (1) 
0.066717931574149458

>  <r_epik_State_Penalty>  (1) 
1.1392767797339916

>  <r_glide_ring_energy>  (1) 
0.00062895299044794274

>  <r_i_docking_score>  (1) 
-6.342458062791505

>  <r_i_glide_ecoul>  (1) 
-8.5025476585827349

>  <r_i_glide_eff_state_penalty>  (1) 
1.1392767797339916

>  <r_i_glide_einternal>  (1) 
6.756665321377608

>  <r_i_glide_emodel>  (1) 
-59.101874011028038

>  <r_i_glide_emodel_strain>  (1) 
1.3215829493674249

>  <r_i_glide_energy>  (1) 
-44.923768439280806

>  <r_i_glide_erotb>  (1) 
0.58947078011706677

>  <r_i_glide_esite>  (1) 
-0.053556514774630505

>  <r_i_glide_evdw>  (1) 
-36.421220780698071

>  <r_i_glide_gscore>  (1) 
-7.4817348425254968

>  <r_i_glide_gscore_strain>  (1) 
0

>  <r_i_glide_hbond>  (1) 
-0.16

>  <r_i_glide_ligand_efficiency>  (1) 
-0.18121308750832871

>  <r_i_glide_ligand_efficiency_ln>  (1) 
-1.3923103080553145

>  <r_i_glide_ligand_efficiency_sa>  (1) 
-0.59276002551375095

>  <r_i_glide_lipo>  (1) 
-3.6583272886791347

>  <r_i_glide_metal>  (1) 
-0

>  <r_i_glide_rewards>  (1) 
-1.1028786313664838

>  <r_lp_Energy>  (1) 
57.515115999999999

>  <s_epik_Chemistry_Notes>  (1) 
This compound contains an acetal/aminal-like group ( X-CH(R)-Y where X, Y are N, S, or O) that may be acid/base labile, releasing an aldehyde.

>  <s_epik_cmdline>  (1) 
J2VwaWtfcHl0aG9uJywgJy1waHQnLCAnMS4wJywgJy1waCcsICc3LjQnLCAnLXRuJywgJzgnLCAnLW1hJywgJzUwMCcsICctaW1hZScsICc8aW5maWxlLm1hZT4nLCAnLW9tYWUnLCAnPG91dGZpbGUubWFlPic=

>  <s_epik_input>  (1) 
W09IXVtDQEBdMTJbQ0BASF0oW0NIMl0xKU4oW0NIM10pW0NASF0oW0NIM10pW0NASF0oW09IXSlbQ0BIXTJbTkhdW0NIMl1bQ0gyXVtOSF1bQ0gyXU9bQ0BIXTNPQyhbQ0gyXVtDSF09QyhbQ0gyXVtOSDJdKVtDSF09W0NIXTQpPUM0W0NIMl1DMzVbQ0gyXVtDSDJdW0NIMl1bQ0gyXVtDSDJdNQ==

>  <s_glide_docking_method>  (1) 
confgen

>  <s_i_glide_gridfile>  (1) 
gpcr_5ht2c_6bqh_protein_autoprepared_prepared

>  <s_lp_Force_Field>  (1) 
S-OPLS

>  <s_lp_Variant>  (1) 
DiffSBDD_53-5

>  <s_m_source_file>  (1) 
generated_GPCR_5HT2C_ligand_DiffSBDD_2026-06-23_prepared.sdf

>  <GenAI_Model>  (1) 
DiffSBDD

>  <Protein>  (1) 
GPCR_5HT2C

$$$$
DiffSBDD_41
     RDKit          3D

  0  0  0  0  0  0  0  0  0  0999 V3000
M  V30 BEGIN CTAB
M  V30 COUNTS 52 53 0 0 1
M  V30 BEGIN ATOM
M  V30 1 C 40.314696 31.893308 62.611200 0
M  V30 2 C 37.537399 31.087928 59.429078 0 CFG=1
M  V30 3 C 37.620766 28.302433 52.435882 0
M  V30 4 C 38.320639 30.186876 55.693915 0
M  V30 5 C 40.044207 30.791574 54.068853 0
M  V30 6 C 39.445882 29.956990 53.106354 0
M  V30 7 C 39.487000 30.910640 55.356663 0
M  V30 8 O 40.445557 29.651575 65.539213 0
M  V30 9 C 38.181568 31.039392 58.053984 0
M  V30 10 S 38.691510 30.546507 60.737350 0
M  V30 11 N 37.645487 26.937755 52.968149 0 CHG=1
M  V30 12 C 41.751273 31.605459 65.023966 0
M  V30 13 C 42.044949 32.670453 64.150835 0
M  V30 14 C 40.058040 29.847817 51.718101 0
M  V30 15 C 36.842471 32.431963 59.722625 0
M  V30 16 C 40.737568 30.683033 64.693514 0
M  V30 17 C 37.714744 30.275619 57.044080 0
M  V30 18 C 41.329474 32.814307 62.945203 0
M  V30 19 C 35.266293 33.737755 61.236152 0
M  V30 20 C 37.727245 29.352383 54.725486 0
M  V30 21 C 35.966489 32.399888 60.987875 0
M  V30 22 F 42.441484 31.470589 66.182012 0
M  V30 23 C 40.020722 30.826335 63.491990 0
M  V30 24 C 38.281956 29.228883 53.441414 0
M  V30 25 C 39.529072 32.069324 61.312240 0
M  V30 26 H 36.753719 30.328771 59.416734 0
M  V30 27 H 36.573777 28.574973 52.313234 0
M  V30 28 H 38.064224 28.302915 51.442088 0
M  V30 29 H 40.937745 31.337758 53.820684 0
M  V30 30 H 39.960241 31.553155 56.080658 0
M  V30 31 H 39.746517 29.096013 65.215680 0
M  V30 32 H 39.053927 31.654043 57.911922 0
M  V30 33 H 37.093170 26.353522 52.344460 0
M  V30 34 H 38.596592 26.602399 53.005286 0
M  V30 35 H 42.818479 33.379268 64.407603 0
M  V30 36 H 39.323140 30.047371 50.938128 0
M  V30 37 H 40.845181 30.588632 51.586535 0
M  V30 38 H 40.491675 28.860597 51.557586 0
M  V30 39 H 37.565482 33.246177 59.761774 0
M  V30 40 H 36.192856 32.681850 58.886358 0
M  V30 41 H 36.833225 29.673673 57.212582 0
M  V30 42 H 41.555461 33.634731 62.279264 0
M  V30 43 H 34.631771 33.697489 62.121109 0
M  V30 44 H 35.993191 34.535052 61.391105 0
M  V30 45 H 34.644058 34.012023 60.383744 0
M  V30 46 H 36.845128 28.797939 54.968193 0
M  V30 47 H 35.218469 31.612145 60.889918 0
M  V30 48 H 36.564607 32.147499 61.862313 0
M  V30 49 H 39.241580 30.121391 63.251740 0
M  V30 50 H 38.796459 32.845357 61.520679 0
M  V30 51 H 40.181519 32.447329 60.526935 0
M  V30 52 H 37.245281 26.921922 53.893927 0
M  V30 END ATOM
M  V30 BEGIN BOND
M  V30 1 1 6 5
M  V30 2 1 7 4
M  V30 3 2 7 5
M  V30 4 1 9 2
M  V30 5 1 10 2
M  V30 6 1 11 3
M  V30 7 1 13 12
M  V30 8 1 14 6
M  V30 9 1 15 2
M  V30 10 1 16 8
M  V30 11 2 16 12
M  V30 12 1 17 4
M  V30 13 2 17 9
M  V30 14 1 18 1
M  V30 15 2 18 13
M  V30 16 2 20 4
M  V30 17 1 21 15
M  V30 18 1 21 19
M  V30 19 1 22 12
M  V30 20 2 23 1
M  V30 21 1 23 16
M  V30 22 1 24 3
M  V30 23 2 24 6
M  V30 24 1 24 20
M  V30 25 1 25 1
M  V30 26 1 25 10
M  V30 27 1 2 26 CFG=3
M  V30 28 1 27 3
M  V30 29 1 28 3
M  V30 30 1 29 5
M  V30 31 1 30 7
M  V30 32 1 31 8
M  V30 33 1 32 9
M  V30 34 1 33 11
M  V30 35 1 34 11
M  V30 36 1 35 13
M  V30 37 1 36 14
M  V30 38 1 37 14
M  V30 39 1 38 14
M  V30 40 1 39 15
M  V30 41 1 40 15
M  V30 42 1 41 17
M  V30 43 1 42 18
M  V30 44 1 43 19
M  V30 45 1 44 19
M  V30 46 1 45 19
M  V30 47 1 46 20
M  V30 48 1 47 21
M  V30 49 1 48 21
M  V30 50 1 49 23
M  V30 51 1 50 25
M  V30 52 1 51 25
M  V30 53 1 52 11
M  V30 END BOND
M  V30 END CTAB
M  END
>  <i_epik_Tot_Q>  (1) 
1

>  <i_epik_Tot_abs_Q>  (1) 
1

>  <i_i_glide_confnum>  (1) 
23

>  <i_i_glide_lignum>  (1) 
88

>  <i_i_glide_posenum>  (1) 
373

>  <i_i_glide_rotatable_bonds>  (1) 
9

>  <i_lp_mmshare_version>  (1) 
72125

>  <i_m_source_file_index>  (1) 
42

>  <i_f3d_flags>  (1) 
0

>  <num_sample>  (1) 
100

>  <b_lp_Chiralities_Consistent>  (1) 
1

>  <r_epik_Charging_Adjusted_Penalty>  (1) 
0.19353898929150365

>  <r_epik_Ionization_Penalty>  (1) 
0.13216089294123454

>  <r_epik_Ionization_Penalty_Charging>  (1) 
0.06151586109146627

>  <r_epik_Ionization_Penalty_Neutral>  (1) 
0.070645031849768267

>  <r_epik_State_Penalty>  (1) 
0.13202312820003739

>  <r_glide_ring_energy>  (1) 
0

>  <r_i_docking_score>  (1) 
-6.341958648627859

>  <r_i_glide_ecoul>  (1) 
-6.2760868938921117

>  <r_i_glide_eff_state_penalty>  (1) 
0.13202312820003739

>  <r_i_glide_einternal>  (1) 
4.4844014734474147

>  <r_i_glide_emodel>  (1) 
-56.085613531381597

>  <r_i_glide_emodel_strain>  (1) 
2.4837436884325061

>  <r_i_glide_energy>  (1) 
-41.275262646166645

>  <r_i_glide_erotb>  (1) 
0.88540937349265225

>  <r_i_glide_esite>  (1) 
-0.0025699519406969314

>  <r_i_glide_evdw>  (1) 
-34.999175752274532

>  <r_i_glide_gscore>  (1) 
-6.4739817768278964

>  <r_i_glide_gscore_strain>  (1) 
0

>  <r_i_glide_hbond>  (1) 
-0.32000000000000001

>  <r_i_glide_ligand_efficiency>  (1) 
-0.25367834594511435

>  <r_i_glide_ligand_efficiency_ln>  (1) 
-1.5032342528891529

>  <r_i_glide_ligand_efficiency_sa>  (1) 
-0.74175998334401427

>  <r_i_glide_lipo>  (1) 
-2.8151247139256332

>  <r_i_glide_metal>  (1) 
-0

>  <r_i_glide_rewards>  (1) 
-1.5303246627566751

>  <r_lp_Energy>  (1) 
18.429102

>  <r_lp_tautomer_probability>  (1) 
0.99999999999736477

>  <s_epik_cmdline>  (1) 
J2VwaWtfcHl0aG9uJywgJy1waHQnLCAnMS4wJywgJy1waCcsICc3LjQnLCAnLXRuJywgJzgnLCAnLW1hJywgJzUwMCcsICctaW1hZScsICc8aW5maWxlLm1hZT4nLCAnLW9tYWUnLCAnPG91dGZpbGUubWFlPic=

>  <s_epik_input>  (1) 
W09IXWMoW2NIXTEpYyhGKVtjSF1bY0hdYzFbQ0gyXVNbQ0BASF0oW0NIMl1bQ0gyXVtDSDNdKS9bQ0hdPVtDSF0vYzJbY0hdW2NIXWMoW0NIM10pYyhbY0hdMilbQ0gyXVtOSDJd

>  <s_glide_docking_method>  (1) 
confgen

>  <s_i_glide_gridfile>  (1) 
gpcr_5ht2c_6bqh_protein_autoprepared_prepared

>  <s_lp_Force_Field>  (1) 
S-OPLS

>  <s_lp_Variant>  (1) 
DiffSBDD_41-1

>  <s_m_source_file>  (1) 
generated_GPCR_5HT2C_ligand_DiffSBDD_2026-06-23_prepared.sdf

>  <GenAI_Model>  (1) 
DiffSBDD

>  <Protein>  (1) 
GPCR_5HT2C

$$$$
DiffSBDD_79
     RDKit          3D

  0  0  0  0  0  0  0  0  0  0999 V3000
M  V30 BEGIN CTAB
M  V30 COUNTS 42 42 0 0 1
M  V30 BEGIN ATOM
M  V30 1 C 38.735202 26.430378 55.594205 0
M  V30 2 O 38.845137 26.138004 58.567758 0
M  V30 3 C 39.100967 28.820684 56.064017 0
M  V30 4 C 39.993434 29.851911 62.137152 0
M  V30 5 O 38.714913 31.300210 59.063674 0
M  V30 6 C 38.572029 24.974869 56.030227 0
M  V30 7 C 38.847060 28.048301 53.765248 0
M  V30 8 O 37.596310 30.937759 61.022329 0
M  V30 9 C 36.430878 23.736928 55.534431 0
M  V30 10 C 38.245707 32.771617 57.231965 0
M  V30 11 C 39.020107 27.231806 58.034077 0
M  V30 12 C 38.835117 28.325722 52.341549 0
M  V30 13 C 38.682888 26.730388 54.218082 0
M  V30 14 C 39.380763 28.356302 60.140492 0
M  V30 15 C 37.133012 24.586173 56.302196 0
M  V30 16 C 38.949199 27.490924 56.541194 0
M  V30 17 C 39.692343 29.785593 60.632248 0 CFG=1
M  V30 18 O 39.302042 28.354565 58.722307 0
M  V30 19 C 37.721410 32.147319 58.527524 0
M  V30 20 C 38.550892 30.738017 60.266935 0
M  V30 21 O 41.245152 29.263307 62.403640 0
M  V30 22 N 38.845137 28.537766 51.206586 0
M  V30 23 C 39.049615 29.092349 54.684747 0
M  V30 24 H 39.261822 29.633863 56.756940 0
M  V30 25 H 39.224909 29.337753 62.703358 0
M  V30 26 H 40.018570 30.883570 62.492433 0
M  V30 27 H 38.906143 24.370908 55.186513 0
M  V30 28 H 39.246956 24.658742 56.822256 0
M  V30 29 H 35.405640 23.490841 55.767765 0
M  V30 30 H 36.873788 23.278460 54.662351 0
M  V30 31 H 37.505498 33.447271 56.803151 0
M  V30 32 H 39.158827 33.337759 57.410050 0
M  V30 33 H 38.464929 32.005889 56.487807 0
M  V30 34 H 38.524985 25.938879 53.505035 0
M  V30 35 H 40.169081 27.672572 60.456703 0
M  V30 36 H 38.445209 27.994822 60.567674 0
M  V30 37 H 36.667469 25.032181 57.169238 0
M  V30 38 H 40.579436 30.137810 60.105848 0
M  V30 39 H 36.845136 31.538327 58.330507 0
M  V30 40 H 37.445642 32.923555 59.242255 0
M  V30 41 H 41.338662 29.163569 63.340562 0
M  V30 42 H 39.175978 30.106382 54.331700 0
M  V30 END ATOM
M  V30 BEGIN BOND
M  V30 1 1 6 1
M  V30 2 2 11 2
M  V30 3 1 12 7
M  V30 4 1 13 1
M  V30 5 2 13 7
M  V30 6 1 15 6
M  V30 7 2 15 9
M  V30 8 2 16 1
M  V30 9 1 16 3
M  V30 10 1 16 11
M  V30 11 1 17 4
M  V30 12 1 17 14
M  V30 13 1 18 11
M  V30 14 1 18 14
M  V30 15 1 19 5
M  V30 16 1 19 10
M  V30 17 1 20 5
M  V30 18 2 20 8
M  V30 19 1 20 17
M  V30 20 1 21 4
M  V30 21 3 22 12
M  V30 22 2 23 3
M  V30 23 1 23 7
M  V30 24 1 24 3
M  V30 25 1 25 4
M  V30 26 1 26 4
M  V30 27 1 27 6
M  V30 28 1 28 6
M  V30 29 1 29 9
M  V30 30 1 30 9
M  V30 31 1 31 10
M  V30 32 1 32 10
M  V30 33 1 33 10
M  V30 34 1 34 13
M  V30 35 1 35 14
M  V30 36 1 36 14
M  V30 37 1 37 15
M  V30 38 1 17 38 CFG=3
M  V30 39 1 39 19
M  V30 40 1 40 19
M  V30 41 1 41 21
M  V30 42 1 42 23
M  V30 END BOND
M  V30 END CTAB
M  END
>  <i_epik_Tot_Q>  (1) 
0

>  <i_epik_Tot_abs_Q>  (1) 
0

>  <i_i_glide_confnum>  (1) 
878

>  <i_i_glide_lignum>  (1) 
185

>  <i_i_glide_posenum>  (1) 
289

>  <i_i_glide_rotatable_bonds>  (1) 
11

>  <i_lp_mmshare_version>  (1) 
72125

>  <i_m_source_file_index>  (1) 
80

>  <i_f3d_flags>  (1) 
0

>  <num_sample>  (1) 
100

>  <b_lp_Chiralities_Consistent>  (1) 
1

>  <r_epik_Charging_Adjusted_Penalty>  (1) 
0

>  <r_epik_Ionization_Penalty>  (1) 
1.2942401493755896e-07

>  <r_epik_Ionization_Penalty_Charging>  (1) 
0

>  <r_epik_Ionization_Penalty_Neutral>  (1) 
1.2942401493755896e-07

>  <r_epik_State_Penalty>  (1) 
-0

>  <r_glide_ring_energy>  (1) 
0

>  <r_i_docking_score>  (1) 
-6.3373763799726905

>  <r_i_glide_ecoul>  (1) 
-4.4342145153017176

>  <r_i_glide_eff_state_penalty>  (1) 
-0

>  <r_i_glide_einternal>  (1) 
4.904078401934453

>  <r_i_glide_emodel>  (1) 
-57.017734690770702

>  <r_i_glide_emodel_strain>  (1) 
0.24756475935454603

>  <r_i_glide_energy>  (1) 
-42.346549471150077

>  <r_i_glide_erotb>  (1) 
1.6648782888351312

>  <r_i_glide_esite>  (1) 
0

>  <r_i_glide_evdw>  (1) 
-37.912334955848358

>  <r_i_glide_gscore>  (1) 
-6.3373763799726905

>  <r_i_glide_gscore_strain>  (1) 
0

>  <r_i_glide_hbond>  (1) 
-0.31743864939841104

>  <r_i_glide_ligand_efficiency>  (1) 
-0.27553810347707353

>  <r_i_glide_ligand_efficiency_ln>  (1) 
-1.5324350728293374

>  <r_i_glide_ligand_efficiency_sa>  (1) 
-0.78359371416937318

>  <r_i_glide_lipo>  (1) 
-2.5895036437435253

>  <r_i_glide_metal>  (1) 
-0

>  <r_i_glide_rewards>  (1) 
-2.5345634505782106

>  <r_lp_Energy>  (1) 
10.946185999999999

>  <r_lp_tautomer_probability>  (1) 
1

>  <s_epik_Chemistry_Notes>  (1) 
This compound has an ester and may undergo hydrolysis at high or low pH.

>  <s_epik_cmdline>  (1) 
J2VwaWtfcHl0aG9uJywgJy1waHQnLCAnMS4wJywgJy1waCcsICc3LjQnLCAnLXRuJywgJzgnLCAnLW1hJywgJzUwMCcsICctaW1hZScsICc8aW5maWxlLm1hZT4nLCAnLW9tYWUnLCAnPG91dGZpbGUubWFlPic=

>  <s_epik_input>  (1) 
W0NIMl09W0NIXVtDSDJdYzFbY0hdYyhDI04pW2NIXVtjSF1jMUMoPU8pT1tDSDJdW0NASF0oW0NIMl1bT0hdKUMoPU8pT1tDSDJdW0NIM10=

>  <s_glide_docking_method>  (1) 
confgen

>  <s_i_glide_gridfile>  (1) 
gpcr_5ht2c_6bqh_protein_autoprepared_prepared

>  <s_lp_Force_Field>  (1) 
S-OPLS

>  <s_lp_Variant>  (1) 
DiffSBDD_79-1

>  <s_m_source_file>  (1) 
generated_GPCR_5HT2C_ligand_DiffSBDD_2026-06-23_prepared.sdf

>  <GenAI_Model>  (1) 
DiffSBDD

>  <Protein>  (1) 
GPCR_5HT2C

$$$$
DiffSBDD_81
     RDKit          3D

  0  0  0  0  0  0  0  0  0  0999 V3000
M  V30 BEGIN CTAB
M  V30 COUNTS 67 68 0 0 1
M  V30 BEGIN ATOM
M  V30 1 C 39.592760 25.568449 56.247553 0
M  V30 2 C 39.186965 30.895478 56.760730 0
M  V30 3 C 39.333493 34.880863 61.089890 0 CFG=2
M  V30 4 C 38.100174 28.598864 53.368717 0
M  V30 5 C 36.948662 35.185194 60.967316 0
M  V30 6 C 37.522252 27.236263 53.729690 0
M  V30 7 C 38.252908 35.957402 60.938036 0
M  V30 8 C 38.582853 32.230805 57.232282 0
M  V30 9 C 39.632338 30.912434 55.287089 0
M  V30 10 C 37.604953 29.763903 54.227841 0
M  V30 11 C 37.430997 33.463486 59.151276 0
M  V30 12 C 39.491314 27.649224 51.466758 0
M  V30 13 C 36.393964 32.787340 61.482624 0
M  V30 14 C 38.467271 31.041446 54.294476 0
M  V30 15 O 38.630242 33.655808 61.266872 0
M  V30 16 O 39.359754 26.307408 55.056934 0
M  V30 17 C 38.978494 28.766988 52.353311 0
M  V30 18 C 41.125402 36.351288 62.177825 0
M  V30 19 C 40.271373 35.084150 62.289642 0
M  V30 20 C 37.333671 33.725218 60.680542 0 CFG=2
M  V30 21 C 36.074507 31.392447 60.929790 0
M  V30 22 C 37.305386 25.410139 55.522750 0
M  V30 23 C 38.299979 32.256718 58.737048 0
M  V30 24 C 37.998356 26.698265 55.089598 0 CFG=2
M  V30 25 C 38.291453 24.803752 56.506745 0
M  V30 26 H 40.445138 24.906005 56.136466 0
M  V30 27 H 39.805387 26.256837 57.066784 0
M  V30 28 H 38.475373 30.093679 56.950471 0
M  V30 29 H 40.045138 30.630495 57.367769 0
M  V30 30 H 39.913065 34.811344 60.167883 0
M  V30 31 H 36.212707 35.573446 60.261897 0
M  V30 32 H 36.521303 35.281909 61.966771 0
M  V30 33 H 36.445142 27.364285 53.754001 0
M  V30 34 H 37.695286 26.494739 52.955246 0
M  V30 35 H 38.276862 36.702513 61.733303 0
M  V30 36 H 38.369939 36.485121 59.991598 0
M  V30 37 H 39.245228 33.056507 56.972618 0
M  V30 38 H 37.645143 32.410361 56.705845 0
M  V30 39 H 40.195331 30.004953 55.065345 0
M  V30 40 H 40.327931 31.737749 55.136523 0
M  V30 41 H 36.609251 30.011292 53.890845 0
M  V30 42 H 37.417909 29.415134 55.236876 0
M  V30 43 H 37.851131 34.345126 58.671003 0
M  V30 44 H 36.432170 33.365396 58.724019 0
M  V30 45 H 40.445122 27.946466 51.033520 0
M  V30 46 H 39.645191 26.719143 52.013274 0
M  V30 47 H 38.797237 27.466617 50.646128 0
M  V30 48 H 36.845133 32.667998 62.469977 0
M  V30 49 H 35.434327 33.284695 61.633383 0
M  V30 50 H 38.845136 31.348189 53.323362 0
M  V30 51 H 37.827964 31.872734 54.588905 0
M  V30 52 H 39.353301 29.750455 52.128890 0
M  V30 53 H 41.871265 36.392594 62.972009 0
M  V30 54 H 41.645095 36.379443 61.221958 0
M  V30 55 H 40.516738 37.252024 62.252529 0
M  V30 56 H 39.693596 35.110775 63.214566 0
M  V30 57 H 40.932026 34.220298 62.368486 0
M  V30 58 H 35.277147 30.937746 61.514594 0
M  V30 59 H 35.705520 31.432798 59.904630 0
M  V30 60 H 36.942264 30.734386 60.970327 0
M  V30 61 H 36.326048 25.589350 55.965796 0
M  V30 62 H 37.176621 24.743209 54.668638 0
M  V30 63 H 37.813180 31.322669 59.001565 0
M  V30 64 H 39.245123 32.271538 59.276744 0
M  V30 65 H 37.870811 27.438489 55.879035 0
M  V30 66 H 38.407784 23.737770 56.323791 0
M  V30 67 H 37.964081 24.936060 57.538420 0
M  V30 END ATOM
M  V30 BEGIN BOND
M  V30 1 1 6 4
M  V30 2 1 7 3
M  V30 3 1 7 5
M  V30 4 1 8 2
M  V30 5 1 9 2
M  V30 6 1 10 4
M  V30 7 1 14 9
M  V30 8 1 14 10
M  V30 9 1 15 3
M  V30 10 1 16 1
M  V30 11 2 17 4
M  V30 12 1 17 12
M  V30 13 1 19 3
M  V30 14 1 19 18
M  V30 15 1 20 5
M  V30 16 1 20 11 CFG=3
M  V30 17 1 20 13
M  V30 18 1 20 15
M  V30 19 1 21 13
M  V30 20 1 23 8
M  V30 21 1 23 11
M  V30 22 1 24 6
M  V30 23 1 24 16
M  V30 24 1 24 22
M  V30 25 1 25 1
M  V30 26 1 25 22
M  V30 27 1 26 1
M  V30 28 1 27 1
M  V30 29 1 28 2
M  V30 30 1 29 2
M  V30 31 1 3 30 CFG=3
M  V30 32 1 31 5
M  V30 33 1 32 5
M  V30 34 1 33 6
M  V30 35 1 34 6
M  V30 36 1 35 7
M  V30 37 1 36 7
M  V30 38 1 37 8
M  V30 39 1 38 8
M  V30 40 1 39 9
M  V30 41 1 40 9
M  V30 42 1 41 10
M  V30 43 1 42 10
M  V30 44 1 43 11
M  V30 45 1 44 11
M  V30 46 1 45 12
M  V30 47 1 46 12
M  V30 48 1 47 12
M  V30 49 1 48 13
M  V30 50 1 49 13
M  V30 51 1 50 14
M  V30 52 1 51 14
M  V30 53 1 52 17
M  V30 54 1 53 18
M  V30 55 1 54 18
M  V30 56 1 55 18
M  V30 57 1 56 19
M  V30 58 1 57 19
M  V30 59 1 58 21
M  V30 60 1 59 21
M  V30 61 1 60 21
M  V30 62 1 61 22
M  V30 63 1 62 22
M  V30 64 1 63 23
M  V30 65 1 64 23
M  V30 66 1 24 65 CFG=1
M  V30 67 1 66 25
M  V30 68 1 67 25
M  V30 END BOND
M  V30 END CTAB
M  END
>  <i_epik_Tot_Q>  (1) 
0

>  <i_epik_Tot_abs_Q>  (1) 
0

>  <i_i_glide_confnum>  (1) 
3003

>  <i_i_glide_lignum>  (1) 
188

>  <i_i_glide_posenum>  (1) 
116

>  <i_i_glide_rotatable_bonds>  (1) 
12

>  <i_lp_mmshare_version>  (1) 
72125

>  <i_m_source_file_index>  (1) 
82

>  <i_f3d_flags>  (1) 
0

>  <num_sample>  (1) 
100

>  <b_lp_Chiralities_Consistent>  (1) 
1

>  <r_epik_Charging_Adjusted_Penalty>  (1) 
0

>  <r_epik_Ionization_Penalty>  (1) 
4.3050601408714213e-11

>  <r_epik_Ionization_Penalty_Charging>  (1) 
0

>  <r_epik_Ionization_Penalty_Neutral>  (1) 
4.3050601408714213e-11

>  <r_epik_State_Penalty>  (1) 
-0

>  <r_glide_ring_energy>  (1) 
0

>  <r_i_docking_score>  (1) 
-6.3370725618775943

>  <r_i_glide_ecoul>  (1) 
-0.20220375543209013

>  <r_i_glide_eff_state_penalty>  (1) 
-0

>  <r_i_glide_einternal>  (1) 
6.7181261911786283

>  <r_i_glide_emodel>  (1) 
-44.553316323279837

>  <r_i_glide_emodel_strain>  (1) 
2.3183265729655247

>  <r_i_glide_energy>  (1) 
-37.302187013843543

>  <r_i_glide_erotb>  (1) 
1.3958139752623098

>  <r_i_glide_esite>  (1) 
0

>  <r_i_glide_evdw>  (1) 
-37.099983258411456

>  <r_i_glide_gscore>  (1) 
-6.3370725618775943

>  <r_i_glide_gscore_strain>  (1) 
0

>  <r_i_glide_hbond>  (1) 
0

>  <r_i_glide_ligand_efficiency>  (1) 
-0.25348290247510374

>  <r_i_glide_ligand_efficiency_ln>  (1) 
-1.502076103905136

>  <r_i_glide_ligand_efficiency_sa>  (1) 
-0.74118850317088547

>  <r_i_glide_lipo>  (1) 
-4.1940744283339928

>  <r_i_glide_metal>  (1) 
-0

>  <r_i_glide_rewards>  (1) 
-1.6534823825705243

>  <r_lp_Energy>  (1) 
-0.19809599999999999

>  <r_lp_tautomer_probability>  (1) 
1

>  <s_epik_cmdline>  (1) 
J2VwaWtfcHl0aG9uJywgJy1waHQnLCAnMS4wJywgJy1waCcsICc3LjQnLCAnLXRuJywgJzgnLCAnLW1hJywgJzUwMCcsICctaW1hZScsICc8aW5maWxlLm1hZT4nLCAnLW9tYWUnLCAnPG91dGZpbGUubWFlPic=

>  <s_epik_input>  (1) 
W0NIMl0xW0NIMl1bQ0gyXU9bQ0BIXTFbQ0gyXS9DKD1bQ0hdXFtDSDNdKVtDSDJdW0NIMl1bQ0gyXVtDSDJdW0NIMl1bQ0gyXVtDSDJdW0NAXTIoW0NIMl1bQ0gzXSlbQ0gyXVtDSDJdW0NASF0oTzIpW0NIMl1bQ0gzXQ==

>  <s_glide_docking_method>  (1) 
confgen

>  <s_i_glide_gridfile>  (1) 
gpcr_5ht2c_6bqh_protein_autoprepared_prepared

>  <s_lp_Force_Field>  (1) 
S-OPLS

>  <s_lp_Variant>  (1) 
DiffSBDD_81-2

>  <s_m_source_file>  (1) 
generated_GPCR_5HT2C_ligand_DiffSBDD_2026-06-23_prepared.sdf

>  <GenAI_Model>  (1) 
DiffSBDD

>  <Protein>  (1) 
GPCR_5HT2C

$$$$
DiffSBDD_18
     RDKit          3D

  0  0  0  0  0  0  0  0  0  0999 V3000
M  V30 BEGIN CTAB
M  V30 COUNTS 77 79 0 0 1
M  V30 BEGIN ATOM
M  V30 1 C 33.779483 33.200270 59.297744 0
M  V30 2 C 40.728687 33.476662 63.172085 0 CFG=2
M  V30 3 C 38.616429 30.092800 59.829965 0
M  V30 4 C 38.004249 30.731116 58.730446 0
M  V30 5 C 37.880641 31.925996 61.264548 0
M  V30 6 O 41.645091 29.974147 62.567748 0
M  V30 7 C 36.651513 36.656862 59.531555 0
M  V30 8 C 42.445138 34.005020 66.289119 0
M  V30 9 C 39.931441 37.468342 61.933353 0
M  V30 10 C 38.921832 29.238811 56.917388 0
M  V30 11 C 41.782797 30.010684 63.813120 0
M  V30 12 C 38.561607 30.700817 61.092720 0
M  V30 13 C 37.766410 36.018517 61.634599 0
M  V30 14 C 41.882561 34.384569 65.167535 0
M  V30 15 C 42.676865 32.536738 66.664927 0
M  V30 16 C 37.645177 37.756684 59.221573 0
M  V30 17 C 34.894750 34.220927 59.058586 0
M  V30 18 C 39.898504 36.456234 63.044370 0 CFG=2
M  V30 19 C 40.458979 32.185747 63.981580 0
M  V30 20 C 41.548470 33.235057 61.894304 0
M  V30 21 C 41.795291 31.419162 66.040564 0
M  V30 22 C 40.132189 28.833933 57.712728 0
M  V30 23 C 41.302717 34.617936 64.013803 0
M  V30 24 C 35.403344 34.012271 62.005952 0
M  V30 25 C 41.707844 31.403918 64.483756 0 CFG=1
M  V30 26 N 38.765961 28.716651 55.689552 0 CHG=1
M  V30 27 C 37.321501 31.945614 58.906805 0
M  V30 28 P 36.255486 34.127306 60.366966 0 CFG=1 CHG=1
M  V30 29 N 41.163222 35.890753 63.477801 0
M  V30 30 O 41.977136 29.023358 64.553550 0 CHG=-1
M  V30 31 C 39.270730 36.138146 61.697804 0 CFG=2
M  V30 32 C 37.238596 32.549575 60.165391 0
M  V30 33 N 37.278665 35.557808 60.305500 0 CFG=1 CHG=1
M  V30 34 N 37.985184 30.136215 57.377803 0
M  V30 35 H 32.987337 33.337749 58.567745 0
M  V30 36 H 34.141957 32.173714 59.234820 0
M  V30 37 H 33.290404 33.337774 60.255657 0
M  V30 38 H 39.741819 33.801419 62.852937 0
M  V30 39 H 39.096020 29.146289 59.735682 0
M  V30 40 H 37.837937 32.373653 62.243580 0
M  V30 41 H 36.312879 36.288773 58.567873 0
M  V30 42 H 35.786336 37.066293 60.053142 0
M  V30 43 H 42.845122 34.734600 66.967756 0
M  V30 44 H 39.306952 38.348625 62.053309 0
M  V30 45 H 40.845124 37.617879 61.367777 0
M  V30 46 H 39.027372 30.217148 61.938180 0
M  V30 47 H 37.505505 35.337765 62.424879 0
M  V30 48 H 37.301022 36.960341 61.928519 0
M  V30 49 H 43.724035 32.316912 66.451492 0
M  V30 50 H 42.583074 32.469407 67.749101 0
M  V30 51 H 37.246275 38.537741 58.604530 0
M  V30 52 H 38.044975 38.242814 60.108159 0
M  V30 53 H 38.445133 37.337804 58.629793 0
M  V30 54 H 34.445149 35.203988 58.977526 0
M  V30 55 H 35.345270 34.070400 58.086095 0
M  V30 56 H 39.236929 36.647555 63.888133 0
M  V30 57 H 39.827629 32.456211 64.827052 0
M  V30 58 H 39.817695 31.540095 63.393567 0
M  V30 59 H 41.713644 34.171202 61.367761 0
M  V30 60 H 42.531347 32.817627 62.108089 0
M  V30 61 H 41.035083 32.547603 61.222302 0
M  V30 62 H 40.798950 31.449953 66.480099 0
M  V30 63 H 42.212836 30.485074 66.415188 0
M  V30 64 H 39.930939 27.959770 58.332347 0
M  V30 65 H 40.918748 28.521194 57.024351 0
M  V30 66 H 40.568977 29.660297 58.271126 0
M  V30 67 H 34.491385 33.420214 62.018259 0
M  V30 68 H 36.129036 33.470062 62.567761 0
M  V30 69 H 35.245118 34.938584 62.543905 0
M  V30 70 H 42.618212 31.881524 64.124391 0
M  V30 71 H 39.445764 28.059334 55.331097 0
M  V30 72 H 36.845153 32.414247 58.070024 0
M  V30 73 H 41.661605 36.594974 64.018400 0
M  V30 74 H 39.811142 35.433000 61.070788 0
M  V30 75 H 37.325197 30.488193 56.694538 0
M  V30 76 H 37.967387 28.971525 55.124483 0
M  V30 77 H 38.096331 35.273341 59.785047 0
M  V30 END ATOM
M  V30 BEGIN BOND
M  V30 1 1 4 3
M  V30 2 2 11 6
M  V30 3 2 12 3
M  V30 4 1 12 5
M  V30 5 2 14 8
M  V30 6 1 15 8
M  V30 7 1 16 7
M  V30 8 1 17 1
M  V30 9 1 18 9
M  V30 10 1 19 2
M  V30 11 1 20 2
M  V30 12 1 21 15
M  V30 13 1 22 10
M  V30 14 1 23 2
M  V30 15 2 23 14
M  V30 16 1 25 11
M  V30 17 1 25 19
M  V30 18 1 25 21
M  V30 19 2 26 10
M  V30 20 2 27 4
M  V30 21 1 28 17 CFG=3
M  V30 22 1 28 24
M  V30 23 1 29 18
M  V30 24 1 29 23
M  V30 25 1 30 11
M  V30 26 1 31 9
M  V30 27 1 31 13
M  V30 28 1 31 18
M  V30 29 2 32 5
M  V30 30 1 32 27
M  V30 31 1 32 28
M  V30 32 1 33 7
M  V30 33 1 33 13
M  V30 34 1 33 28
M  V30 35 1 34 4
M  V30 36 1 34 10
M  V30 37 1 35 1
M  V30 38 1 36 1
M  V30 39 1 37 1
M  V30 40 1 2 38 CFG=3
M  V30 41 1 39 3
M  V30 42 1 40 5
M  V30 43 1 41 7
M  V30 44 1 42 7
M  V30 45 1 43 8
M  V30 46 1 44 9
M  V30 47 1 45 9
M  V30 48 1 46 12
M  V30 49 1 47 13
M  V30 50 1 48 13
M  V30 51 1 49 15
M  V30 52 1 50 15
M  V30 53 1 51 16
M  V30 54 1 52 16
M  V30 55 1 53 16
M  V30 56 1 54 17
M  V30 57 1 55 17
M  V30 58 1 18 56 CFG=1
M  V30 59 1 57 19
M  V30 60 1 58 19
M  V30 61 1 59 20
M  V30 62 1 60 20
M  V30 63 1 61 20
M  V30 64 1 62 21
M  V30 65 1 63 21
M  V30 66 1 64 22
M  V30 67 1 65 22
M  V30 68 1 66 22
M  V30 69 1 67 24
M  V30 70 1 68 24
M  V30 71 1 69 24
M  V30 72 1 25 70 CFG=3
M  V30 73 1 71 26
M  V30 74 1 72 27
M  V30 75 1 73 29
M  V30 76 1 31 74 CFG=3
M  V30 77 1 75 34
M  V30 78 1 76 26
M  V30 79 1 33 77 CFG=3
M  V30 END BOND
M  V30 END CTAB
M  END
>  <i_epik_Tot_Q>  (1) 
2

>  <i_epik_Tot_abs_Q>  (1) 
4

>  <i_i_glide_confnum>  (1) 
534

>  <i_i_glide_lignum>  (1) 
44

>  <i_i_glide_posenum>  (1) 
180

>  <i_i_glide_rotatable_bonds>  (1) 
11

>  <i_lp_mmshare_version>  (1) 
72125

>  <i_m_source_file_index>  (1) 
19

>  <i_f3d_flags>  (1) 
0

>  <num_sample>  (1) 
100

>  <b_lp_Chiralities_Consistent>  (1) 
1

>  <r_epik_Charging_Adjusted_Penalty>  (1) 
0.035732071636325656

>  <r_epik_Ionization_Penalty>  (1) 
0.019213783482484162

>  <r_epik_Ionization_Penalty_Charging>  (1) 
0.019186760244236628

>  <r_epik_Ionization_Penalty_Neutral>  (1) 
2.7023238247534635e-05

>  <r_epik_State_Penalty>  (1) 
0.016545311392089028

>  <r_glide_ring_energy>  (1) 
0

>  <r_i_docking_score>  (1) 
-6.3366321000501511

>  <r_i_glide_ecoul>  (1) 
-6.6171587072453937

>  <r_i_glide_eff_state_penalty>  (1) 
0.016545311392089028

>  <r_i_glide_einternal>  (1) 
5.9865697892133198

>  <r_i_glide_emodel>  (1) 
-50.221597056637009

>  <r_i_glide_emodel_strain>  (1) 
1.6521017226078101

>  <r_i_glide_energy>  (1) 
-32.133283800097772

>  <r_i_glide_erotb>  (1) 
0.68654883804919686

>  <r_i_glide_esite>  (1) 
-0.068109951806342925

>  <r_i_glide_evdw>  (1) 
-25.516125092852381

>  <r_i_glide_gscore>  (1) 
-6.3531774114422399

>  <r_i_glide_gscore_strain>  (1) 
0

>  <r_i_glide_hbond>  (1) 
-0.49097221021065607

>  <r_i_glide_ligand_efficiency>  (1) 
-0.1863715323544162

>  <r_i_glide_ligand_efficiency_ln>  (1) 
-1.399939767411148

>  <r_i_glide_ligand_efficiency_sa>  (1) 
-0.60377141563753511

>  <r_i_glide_lipo>  (1) 
-3.5364611768502852

>  <r_i_glide_metal>  (1) 
-0

>  <r_i_glide_rewards>  (1) 
-0.67580284989472561

>  <r_lp_Energy>  (1) 
34.808309999999999

>  <s_epik_Chemistry_Notes>  (1) 
This compound has an imine and may undergo hydrolysis.

>  <s_epik_cmdline>  (1) 
J2VwaWtfcHl0aG9uJywgJy1waHQnLCAnMS4wJywgJy1waCcsICc3LjQnLCAnLXRuJywgJzgnLCAnLW1hJywgJzUwMCcsICctaW1hZScsICc8aW5maWxlLm1hZT4nLCAnLW9tYWUnLCAnPG91dGZpbGUubWFlPic=

>  <s_epik_input>  (1) 
W0hdL049QyhcW0NIM10pW05IXWMxW2NIXVtjSF1bY0hdYyhbY0hdMSlbUEBAK10oW0NIM10pKFtDSDJdW0NIM10pTihbQ0gyXVtDSDNdKVtDSDJdW0NASF0yW0NIMl1bQ0BASF0yW05IXUMzPUM9W0NIXVtDSDJdW0NIMl1bQ0BASF0oQyg9TylbT0hdKVtDSDJdW0NAQEhdM1tDSDNd

>  <s_glide_docking_method>  (1) 
confgen

>  <s_i_glide_gridfile>  (1) 
gpcr_5ht2c_6bqh_protein_autoprepared_prepared

>  <s_lp_Force_Field>  (1) 
S-OPLS

>  <s_lp_Variant>  (1) 
DiffSBDD_18-3

>  <s_m_source_file>  (1) 
generated_GPCR_5HT2C_ligand_DiffSBDD_2026-06-23_prepared.sdf

>  <GenAI_Model>  (1) 
DiffSBDD

>  <Protein>  (1) 
GPCR_5HT2C

$$$$
DiffSBDD_93
     RDKit          3D

  0  0  0  0  0  0  0  0  0  0999 V3000
M  V30 BEGIN CTAB
M  V30 COUNTS 84 85 0 0 1
M  V30 BEGIN ATOM
M  V30 1 C 38.609001 30.243391 59.084710 0
M  V30 2 O 38.636827 30.144746 60.498795 0
M  V30 3 C 39.561922 35.709773 62.798415 0
M  V30 4 C 38.387298 27.787819 52.520000 0
M  V30 5 O 38.045152 33.006670 56.790933 0
M  V30 6 C 38.410187 25.735824 56.989476 0
M  V30 7 N 39.124502 24.677490 57.367770 0
M  V30 8 O 37.710693 26.380035 57.767403 0
M  V30 9 O 35.645281 30.956008 59.893100 0
M  V30 10 C 39.045153 28.404856 51.286907 0
M  V30 11 C 39.011241 34.640816 61.857254 0
M  V30 12 C 37.959737 30.661249 56.312180 0
M  V30 13 C 38.533728 32.730577 59.487940 0
M  V30 14 C 38.647317 27.649475 55.183574 0 CFG=1
M  V30 15 C 38.488431 26.117928 55.495184 0 CFG=2
M  V30 16 C 38.292634 36.795536 61.049398 0 CFG=1
M  V30 17 C 37.009128 34.754511 60.238668 0 CFG=1
M  V30 18 C 36.545953 35.500587 58.968476 0
M  V30 19 C 39.310017 30.037643 55.972924 0
M  V30 20 S 36.248264 32.122046 60.967767 0 CHG=1
M  V30 21 O 41.089214 26.937515 57.231254 0
M  V30 22 N 38.422892 31.617220 58.549557 0
M  V30 23 O 34.845131 32.977528 61.346459 0
M  V30 24 O 39.666758 38.137715 62.567715 0
M  V30 25 F 37.056773 38.750042 61.435467 0
M  V30 26 C 38.801258 26.937704 51.333547 0
M  V30 27 C 40.877945 28.181785 56.617479 0
M  V30 28 C 39.407044 28.517844 56.260110 0 CFG=2
M  V30 29 C 38.149652 31.863760 57.239964 0
M  V30 30 C 37.261632 25.555065 54.736850 0
M  V30 31 C 36.577060 37.132095 63.061918 0
M  V30 32 C 37.116071 33.248455 59.845922 0 CFG=2
M  V30 33 O 36.045169 24.123600 56.165027 0
M  V30 34 C 39.245099 27.844993 53.766334 0
M  V30 35 C 36.974114 37.434442 61.608991 0 CFG=2
M  V30 36 C 36.809936 24.165993 55.192618 0
M  V30 37 C 39.563908 36.929640 61.894536 0 CFG=1
M  V30 38 O 37.245017 23.184332 54.567839 0 CHG=-1
M  V30 39 N 38.274592 35.341174 60.763083 0 CFG=2 CHG=1
M  V30 40 H 37.817766 29.567731 58.759685 0
M  V30 41 H 39.566304 29.854333 58.741306 0
M  V30 42 H 38.913486 29.267221 60.726086 0
M  V30 43 H 38.912741 35.848553 63.660527 0
M  V30 44 H 40.557367 35.465776 63.174275 0
M  V30 45 H 37.327777 27.996330 52.652891 0
M  V30 46 H 39.676766 24.175256 56.690488 0
M  V30 47 H 39.102926 24.377689 58.326315 0
M  V30 48 H 35.357973 31.410887 59.108640 0
M  V30 49 H 38.445235 28.983739 50.596696 0
M  V30 50 H 40.083211 28.726554 51.360004 0
M  V30 51 H 38.443908 33.874397 62.378186 0
M  V30 52 H 39.875123 34.148740 61.411845 0
M  V30 53 H 37.243725 29.950639 56.725796 0
M  V30 54 H 37.492826 31.015528 55.392463 0
M  V30 55 H 39.122929 33.515042 59.013786 0
M  V30 56 H 39.104498 32.455785 60.369302 0
M  V30 57 H 37.645497 28.078954 55.154469 0
M  V30 58 H 39.373863 25.607458 55.109279 0
M  V30 59 H 38.444915 37.283442 60.094123 0
M  V30 60 H 36.250244 34.903674 61.002039 0
M  V30 61 H 35.565716 35.143538 58.646054 0
M  V30 62 H 36.467626 36.582160 59.038375 0
M  V30 63 H 37.245077 35.297079 58.167722 0
M  V30 64 H 39.602458 30.341090 54.973355 0
M  V30 65 H 40.045551 30.541951 56.583288 0
M  V30 66 H 41.988986 26.661412 57.112281 0
M  V30 67 H 34.706951 32.891700 62.277694 0
M  V30 68 H 39.381199 38.029371 63.463589 0
M  V30 69 H 39.645740 26.273552 51.481305 0
M  V30 70 H 38.045133 26.544853 50.662752 0
M  V30 71 H 41.522108 28.295723 55.767783 0
M  V30 72 H 41.244473 28.890427 57.358181 0
M  V30 73 H 38.878202 28.386308 57.193516 0
M  V30 74 H 36.445165 26.233929 54.967748 0
M  V30 75 H 37.403076 25.560843 53.660476 0
M  V30 76 H 36.392630 36.072241 63.210352 0
M  V30 77 H 37.335724 37.450863 63.772840 0
M  V30 78 H 35.655643 37.652713 63.326724 0
M  V30 79 H 36.494395 33.141540 58.956332 0
M  V30 80 H 39.665707 28.831712 53.690527 0
M  V30 81 H 40.045105 27.125564 53.633469 0
M  V30 82 H 36.113516 37.204493 60.991742 0
M  V30 83 H 40.442892 36.843522 61.256211 0
M  V30 84 H 38.916543 35.266031 59.986374 0
M  V30 END ATOM
M  V30 BEGIN BOND
M  V30 1 1 2 1
M  V30 2 1 7 6
M  V30 3 2 8 6
M  V30 4 1 10 4
M  V30 5 1 11 3
M  V30 6 1 15 6
M  V30 7 1 15 14
M  V30 8 1 18 17
M  V30 9 1 19 12
M  V30 10 1 20 9
M  V30 11 1 22 1
M  V30 12 1 22 13
M  V30 13 1 23 20
M  V30 14 1 26 4
M  V30 15 1 26 10
M  V30 16 1 27 21
M  V30 17 1 28 14
M  V30 18 1 28 19
M  V30 19 1 28 27
M  V30 20 2 29 5
M  V30 21 1 29 12
M  V30 22 1 29 22
M  V30 23 1 30 15
M  V30 24 1 32 13
M  V30 25 1 32 17
M  V30 26 1 32 20
M  V30 27 1 34 4
M  V30 28 1 34 14
M  V30 29 1 35 16
M  V30 30 1 35 25
M  V30 31 1 35 31
M  V30 32 1 36 30
M  V30 33 2 36 33
M  V30 34 1 37 3
M  V30 35 1 37 16
M  V30 36 1 37 24
M  V30 37 1 38 36
M  V30 38 1 39 11
M  V30 39 1 39 16
M  V30 40 1 39 17
M  V30 41 1 40 1
M  V30 42 1 41 1
M  V30 43 1 42 2
M  V30 44 1 43 3
M  V30 45 1 44 3
M  V30 46 1 45 4
M  V30 47 1 46 7
M  V30 48 1 47 7
M  V30 49 1 48 9
M  V30 50 1 49 10
M  V30 51 1 50 10
M  V30 52 1 51 11
M  V30 53 1 52 11
M  V30 54 1 53 12
M  V30 55 1 54 12
M  V30 56 1 55 13
M  V30 57 1 56 13
M  V30 58 1 14 57 CFG=3
M  V30 59 1 15 58 CFG=3
M  V30 60 1 16 59 CFG=3
M  V30 61 1 17 60 CFG=1
M  V30 62 1 61 18
M  V30 63 1 62 18
M  V30 64 1 63 18
M  V30 65 1 64 19
M  V30 66 1 65 19
M  V30 67 1 66 21
M  V30 68 1 67 23
M  V30 69 1 68 24
M  V30 70 1 69 26
M  V30 71 1 70 26
M  V30 72 1 71 27
M  V30 73 1 72 27
M  V30 74 1 28 73 CFG=1
M  V30 75 1 74 30
M  V30 76 1 75 30
M  V30 77 1 76 31
M  V30 78 1 77 31
M  V30 79 1 78 31
M  V30 80 1 32 79 CFG=3
M  V30 81 1 80 34
M  V30 82 1 81 34
M  V30 83 1 35 82 CFG=3
M  V30 84 1 37 83 CFG=3
M  V30 85 1 39 84 CFG=3
M  V30 END BOND
M  V30 END CTAB
M  END
>  <i_epik_Tot_Q>  (1) 
1

>  <i_epik_Tot_abs_Q>  (1) 
3

>  <i_i_glide_confnum>  (1) 
7626

>  <i_i_glide_lignum>  (1) 
217

>  <i_i_glide_posenum>  (1) 
6

>  <i_i_glide_rotatable_bonds>  (1) 
24

>  <i_lp_mmshare_version>  (1) 
72125

>  <i_m_source_file_index>  (1) 
94

>  <i_f3d_flags>  (1) 
0

>  <num_sample>  (1) 
100

>  <b_lp_Chiralities_Consistent>  (1) 
1

>  <r_epik_Charging_Adjusted_Penalty>  (1) 
0.90916677635763199

>  <r_epik_Ionization_Penalty>  (1) 
0.45507897092921873

>  <r_epik_Ionization_Penalty_Charging>  (1) 
0.45507471778648678

>  <r_epik_Ionization_Penalty_Neutral>  (1) 
4.2531427319391784e-06

>  <r_epik_State_Penalty>  (1) 
0.45409205857114521

>  <r_glide_ring_energy>  (1) 
0

>  <r_i_docking_score>  (1) 
-6.334863495821546

>  <r_i_glide_ecoul>  (1) 
-4.9102867245015132

>  <r_i_glide_eff_state_penalty>  (1) 
0.45409205857114521

>  <r_i_glide_einternal>  (1) 
43.627353757188231

>  <r_i_glide_emodel>  (1) 
-35.202549025909455

>  <r_i_glide_emodel_strain>  (1) 
7.2789401385630725

>  <r_i_glide_energy>  (1) 
-39.284488215360348

>  <r_i_glide_erotb>  (1) 
0.82188833391367333

>  <r_i_glide_esite>  (1) 
-0.2063916943224153

>  <r_i_glide_evdw>  (1) 
-34.374201490858837

>  <r_i_glide_gscore>  (1) 
-6.7889555543926914

>  <r_i_glide_gscore_strain>  (1) 
0.81973503464076813

>  <r_i_glide_hbond>  (1) 
-0.24015863440721555

>  <r_i_glide_ligand_efficiency>  (1) 
-0.16243239732875758

>  <r_i_glide_ligand_efficiency_ln>  (1) 
-1.3583745592982428

>  <r_i_glide_ligand_efficiency_sa>  (1) 
-0.55084260453750655

>  <r_i_glide_lipo>  (1) 
-3.7506957664106113

>  <r_i_glide_metal>  (1) 
-0

>  <r_i_glide_rewards>  (1) 
-1.7780797445887215

>  <r_lp_Energy>  (1) 
20.226026999999998

>  <s_epik_Chemistry_Notes>  (1) 
This compound contains an acetal/aminal-like group ( X-CH(R)-Y where X, Y are N, S, or O) that may be acid/base labile, releasing an aldehyde.

>  <s_epik_cmdline>  (1) 
J2VwaWtfcHl0aG9uJywgJy1waHQnLCAnMS4wJywgJy1waCcsICc3LjQnLCAnLXRuJywgJzgnLCAnLW1hJywgJzUwMCcsICctaW1hZScsICc8aW5maWxlLm1hZT4nLCAnLW9tYWUnLCAnPG91dGZpbGUubWFlPic=

>  <s_epik_input>  (1) 
W0NIMl0xW0NIMl1bQ0hdMVtDSDJdW0NAQEhdKFtDQEBIXShDKD1PKVtOSDJdKVtDSDJdQyg9TylbT0hdKVtDQEBIXShbQ0gyXVtPSF0pW0NIMl1bQ0gyXUMoPU8pTihbQ0gyXVtPSF0pW0NIMl1bQ0BASF0oW1MrXShbT0hdKVtPSF0pW0NASF0oW0NIM10pTjJbQ0gyXVtDSDJdW0NASF0oW09IXSlbQ0BASF0yW0NASF0oRilbQ0gzXQ==

>  <s_glide_docking_method>  (1) 
confgen

>  <s_i_glide_gridfile>  (1) 
gpcr_5ht2c_6bqh_protein_autoprepared_prepared

>  <s_lp_Force_Field>  (1) 
S-OPLS

>  <s_lp_Variant>  (1) 
DiffSBDD_93-5

>  <s_m_source_file>  (1) 
generated_GPCR_5HT2C_ligand_DiffSBDD_2026-06-23_prepared.sdf

>  <GenAI_Model>  (1) 
DiffSBDD

>  <Protein>  (1) 
GPCR_5HT2C

$$$$
DiffSBDD_26
     RDKit          3D

  0  0  0  0  0  0  0  0  0  0999 V3000
M  V30 BEGIN CTAB
M  V30 COUNTS 63 67 0 0 1
M  V30 BEGIN ATOM
M  V30 1 C 36.568151 30.985788 58.967837 0 CFG=1
M  V30 2 C 38.812856 27.508650 57.249168 0
M  V30 3 O 39.645056 26.137741 58.967823 0
M  V30 4 C 40.281670 29.646402 51.243044 0
M  V30 5 N 37.940887 32.610516 61.263454 0
M  V30 6 C 38.517577 28.692904 57.914652 0
M  V30 7 C 38.211251 28.343186 55.109860 0
M  V30 8 C 37.927394 29.619727 55.693856 0
M  V30 9 C 37.427164 33.187471 60.026169 0 CFG=1
M  V30 10 C 39.340805 26.288932 57.829008 0
M  V30 11 O 42.036614 32.922403 62.167652 0
M  V30 12 O 36.976420 30.150745 60.030334 0
M  V30 13 C 39.789676 31.351630 63.111975 0
M  V30 14 C 39.718723 32.846265 62.730864 0 CFG=1
M  V30 15 C 41.014031 35.077749 62.492006 0
M  V30 16 C 38.845175 31.869827 58.368681 0
M  V30 17 N 38.756102 31.245851 54.051756 0
M  V30 18 C 38.924351 29.076546 52.874832 0
M  V30 19 C 41.053179 33.595646 62.923666 0 CFG=2
M  V30 20 C 39.245128 30.387652 53.038067 0
M  V30 21 C 38.036187 29.785116 57.140179 0
M  V30 22 O 38.976115 25.411003 54.567739 0
M  V30 23 C 38.461016 33.265644 58.877579 0
M  V30 24 C 37.564928 30.780063 54.785227 0
M  V30 25 C 38.649108 27.329412 55.968349 0
M  V30 26 C 36.199174 32.356964 59.601105 0
M  V30 27 C 40.107052 30.771440 52.000397 0
M  V30 28 N 39.433699 25.394002 56.813375 0
M  V30 29 O 40.152235 35.839895 63.311686 0
M  V30 30 C 37.652492 31.114485 57.842050 0 CFG=1
M  V30 31 C 39.027896 25.940395 55.642828 0
M  V30 32 O 39.568915 28.585261 51.766281 0
M  V30 33 C 38.060339 28.127275 53.609926 0
M  V30 34 O 39.308592 33.038854 61.387463 0
M  V30 35 H 35.661071 30.535645 58.567659 0
M  V30 36 H 40.841775 29.426099 50.347868 0
M  V30 37 H 37.987290 31.605733 61.122136 0
M  V30 38 H 38.656916 28.775612 58.980131 0
M  V30 39 H 37.109272 34.202592 60.268967 0
M  V30 40 H 41.681289 32.813976 61.298161 0
M  V30 41 H 37.035962 29.271944 59.687080 0
M  V30 42 H 40.161055 31.229445 64.130233 0
M  V30 43 H 38.810739 30.874067 63.069532 0
M  V30 44 H 40.447252 30.795712 62.444296 0
M  V30 45 H 38.990337 33.335700 63.367615 0
M  V30 46 H 40.700597 35.176544 61.452494 0
M  V30 47 H 42.006764 35.521516 62.565256 0
M  V30 48 H 39.576915 31.963704 57.564763 0
M  V30 49 H 39.245422 31.282702 59.188153 0
M  V30 50 H 38.910031 32.240499 53.972784 0
M  V30 51 H 41.346878 33.536301 63.972327 0
M  V30 52 H 38.023725 33.833630 58.054748 0
M  V30 53 H 39.352961 33.821168 59.164490 0
M  V30 54 H 36.792139 30.432803 54.110819 0
M  V30 55 H 37.107679 31.642049 55.251441 0
M  V30 56 H 35.515635 32.221518 60.441025 0
M  V30 57 H 35.637553 32.947720 58.881350 0
M  V30 58 H 40.541253 31.737739 51.816521 0
M  V30 59 H 39.768863 24.450277 56.915247 0
M  V30 60 H 40.614214 36.073630 64.103301 0
M  V30 61 H 37.245725 31.815475 57.141021 0
M  V30 62 H 38.246192 27.127453 53.242831 0
M  V30 63 H 37.018496 28.315887 53.350778 0
M  V30 END ATOM
M  V30 BEGIN BOND
M  V30 1 2 6 2
M  V30 2 1 8 7
M  V30 3 1 9 5
M  V30 4 1 10 2
M  V30 5 2 10 3
M  V30 6 1 12 1
M  V30 7 1 14 13
M  V30 8 1 19 11
M  V30 9 1 19 14
M  V30 10 1 19 15
M  V30 11 1 20 17
M  V30 12 2 20 18
M  V30 13 1 21 6
M  V30 14 2 21 8
M  V30 15 1 23 9
M  V30 16 1 23 16
M  V30 17 1 24 8
M  V30 18 1 24 17
M  V30 19 1 25 2
M  V30 20 2 25 7
M  V30 21 1 26 1
M  V30 22 1 26 9
M  V30 23 2 27 4
M  V30 24 1 27 20
M  V30 25 1 28 10
M  V30 26 1 29 15
M  V30 27 1 30 1
M  V30 28 1 30 16
M  V30 29 1 30 21
M  V30 30 2 31 22
M  V30 31 1 31 25
M  V30 32 1 31 28
M  V30 33 1 32 4
M  V30 34 1 32 18
M  V30 35 1 33 7
M  V30 36 1 33 18
M  V30 37 1 34 5
M  V30 38 1 34 14
M  V30 39 1 1 35 CFG=3
M  V30 40 1 36 4
M  V30 41 1 37 5
M  V30 42 1 38 6
M  V30 43 1 9 39 CFG=1
M  V30 44 1 40 11
M  V30 45 1 41 12
M  V30 46 1 42 13
M  V30 47 1 43 13
M  V30 48 1 44 13
M  V30 49 1 14 45 CFG=1
M  V30 50 1 46 15
M  V30 51 1 47 15
M  V30 52 1 48 16
M  V30 53 1 49 16
M  V30 54 1 50 17
M  V30 55 1 19 51 CFG=1
M  V30 56 1 52 23
M  V30 57 1 53 23
M  V30 58 1 54 24
M  V30 59 1 55 24
M  V30 60 1 56 26
M  V30 61 1 57 26
M  V30 62 1 58 27
M  V30 63 1 59 28
M  V30 64 1 60 29
M  V30 65 1 30 61 CFG=3
M  V30 66 1 62 33
M  V30 67 1 63 33
M  V30 END BOND
M  V30 END CTAB
M  END
>  <i_epik_Tot_Q>  (1) 
0

>  <i_epik_Tot_abs_Q>  (1) 
0

>  <i_i_glide_confnum>  (1) 
412

>  <i_i_glide_lignum>  (1) 
67

>  <i_i_glide_posenum>  (1) 
380

>  <i_i_glide_rotatable_bonds>  (1) 
9

>  <i_lp_mmshare_version>  (1) 
72125

>  <i_m_source_file_index>  (1) 
27

>  <i_f3d_flags>  (1) 
0

>  <num_sample>  (1) 
100

>  <b_lp_Chiralities_Consistent>  (1) 
1

>  <r_epik_Charging_Adjusted_Penalty>  (1) 
0.011663948100313749

>  <r_epik_Ionization_Penalty>  (1) 
0.013971723249614831

>  <r_epik_Ionization_Penalty_Charging>  (1) 
0

>  <r_epik_Ionization_Penalty_Neutral>  (1) 
0.013971723249614831

>  <r_epik_State_Penalty>  (1) 
0.011663948100313749

>  <r_glide_ring_energy>  (1) 
1.4878355022131675

>  <r_i_docking_score>  (1) 
-6.3303794771626123

>  <r_i_glide_ecoul>  (1) 
-4.3858763322385226

>  <r_i_glide_eff_state_penalty>  (1) 
0.011663948100313749

>  <r_i_glide_einternal>  (1) 
13.082439317551376

>  <r_i_glide_emodel>  (1) 
-48.219763964755359

>  <r_i_glide_emodel_strain>  (1) 
0.58694376057667341

>  <r_i_glide_energy>  (1) 
-43.113967707739029

>  <r_i_glide_erotb>  (1) 
0.54550006929946782

>  <r_i_glide_esite>  (1) 
0

>  <r_i_glide_evdw>  (1) 
-38.728091375500505

>  <r_i_glide_gscore>  (1) 
-6.3420434252629256

>  <r_i_glide_gscore_strain>  (1) 
0

>  <r_i_glide_hbond>  (1) 
0

>  <r_i_glide_ligand_efficiency>  (1) 
-0.1861876316812533

>  <r_i_glide_ligand_efficiency_ln>  (1) 
-1.3985583876351593

>  <r_i_glide_ligand_efficiency_sa>  (1) 
-0.60317564884649366

>  <r_i_glide_lipo>  (1) 
-2.6426836151425621

>  <r_i_glide_metal>  (1) 
-0

>  <r_i_glide_rewards>  (1) 
-1.6505738608090275

>  <r_lp_Energy>  (1) 
55.099730999999998

>  <r_lp_tautomer_probability>  (1) 
0.99894395353395549

>  <s_epik_Chemistry_Notes>  (1) 
This compound has a N-S or N-O group and may undergo hydrolysis at high or low pH.

>  <s_epik_cmdline>  (1) 
J2VwaWtfcHl0aG9uJywgJy1waHQnLCAnMS4wJywgJy1waCcsICc3LjQnLCAnLXRuJywgJzgnLCAnLW1hJywgJzUwMCcsICctaW1hZScsICc8aW5maWxlLm1hZT4nLCAnLW9tYWUnLCAnPG91dGZpbGUubWFlPic=

>  <s_epik_input>  (1) 
W09IXVtDSDJdW0NASF0oW09IXSlbQ0BIXShbQ0gzXSlPW05IXVtDQEhdKFtDSDJdW0NAQEhdMVtPSF0pW0NIMl1bQ0gyXVtDQEhdMWMoW2NIXTIpYyhjM2MoYzI0KUMoPU8pW05IXUM0PU8pW0NIMl1bTkhdYzVjKFtDSDJdMylvW2NIXVtjSF01

>  <s_glide_docking_method>  (1) 
confgen

>  <s_i_glide_gridfile>  (1) 
gpcr_5ht2c_6bqh_protein_autoprepared_prepared

>  <s_lp_Force_Field>  (1) 
S-OPLS

>  <s_lp_Variant>  (1) 
DiffSBDD_26-1

>  <s_m_source_file>  (1) 
generated_GPCR_5HT2C_ligand_DiffSBDD_2026-06-23_prepared.sdf

>  <GenAI_Model>  (1) 
DiffSBDD

>  <Protein>  (1) 
GPCR_5HT2C

$$$$
DiffSBDD_56
     RDKit          3D

  0  0  0  0  0  0  0  0  0  0999 V3000
M  V30 BEGIN CTAB
M  V30 COUNTS 72 77 0 0 1
M  V30 BEGIN ATOM
M  V30 1 C 37.651874 30.238146 57.611356 0 CFG=1
M  V30 2 C 38.812745 30.251389 54.527445 0
M  V30 3 C 38.915078 31.941752 56.474561 0
M  V30 4 C 42.194863 28.694315 63.367745 0
M  V30 5 C 35.790827 30.128288 59.374107 0
M  V30 6 C 39.770804 27.480789 56.432218 0
M  V30 7 C 39.362793 30.559376 55.940738 0 CFG=1
M  V30 8 C 37.105270 29.550720 58.867613 0
M  V30 9 C 39.024267 25.333134 55.530790 0
M  V30 10 C 42.909335 29.526794 64.218772 0
M  V30 11 C 40.799689 32.450128 64.487287 0
M  V30 12 C 40.947736 29.100038 62.843708 0
M  V30 13 C 38.892412 27.288541 57.554891 0
M  V30 14 C 35.889481 31.098543 60.564613 0
M  V30 15 C 42.375870 30.807871 64.568178 0
M  V30 16 C 38.195646 26.064352 57.665960 0
M  V30 17 N 38.600640 28.233927 56.568594 0
M  V30 18 N 38.137946 32.044275 60.310620 0
M  V30 19 F 37.407455 24.037509 56.696960 0
M  V30 20 C 38.068498 31.710594 57.746037 0 CFG=2
M  V30 21 C 38.174902 25.150333 56.614791 0
M  V30 22 C 44.080074 31.912491 66.163142 0
M  V30 23 F 39.080850 24.405660 54.567781 0
M  V30 24 C 38.997157 32.287502 61.466764 0
M  V30 25 C 40.431721 30.323229 63.170729 0
M  V30 26 C 38.911452 29.575899 57.042472 0 CFG=2
M  V30 27 C 39.894330 26.428617 55.500078 0
M  V30 28 S 38.850725 30.863585 62.567761 0
M  V30 29 C 42.812565 31.836524 65.365740 0
M  V30 30 C 41.829795 32.829812 65.298205 0
M  V30 31 C 36.719910 32.383181 60.376135 0
M  V30 32 O 44.131386 29.138282 64.738938 0
M  V30 33 N 41.105880 31.168391 64.003566 0
M  V30 34 C 38.845233 32.017362 59.043164 0
M  V30 35 C 39.376723 31.172796 53.442970 0
M  V30 36 C 44.687627 27.872473 64.409126 0
M  V30 37 O 43.783964 31.380168 67.434651 0
M  V30 38 H 36.871203 30.171247 56.850212 0
M  V30 39 H 39.084355 29.234872 54.246475 0
M  V30 40 H 37.723250 30.286293 54.517877 0
M  V30 41 H 39.764413 32.598440 56.660086 0
M  V30 42 H 38.298853 32.457017 55.736816 0
M  V30 43 H 42.592944 27.723906 63.100567 0
M  V30 44 H 35.245260 29.250005 59.706317 0
M  V30 45 H 35.189423 30.537808 58.567754 0
M  V30 46 H 40.445137 30.521030 55.854356 0
M  V30 47 H 36.863349 28.537754 58.567731 0
M  V30 48 H 37.846139 29.457824 59.662496 0
M  V30 49 H 39.881847 32.935857 64.197714 0
M  V30 50 H 40.390679 28.439088 62.185650 0
M  V30 51 H 34.876854 31.384020 60.848326 0
M  V30 52 H 36.290131 30.538656 61.399410 0
M  V30 53 H 37.660372 25.838724 58.567737 0
M  V30 54 H 37.245150 32.405115 57.686356 0
M  V30 55 H 44.885969 31.342099 65.700520 0
M  V30 56 H 44.422442 32.941614 66.266223 0
M  V30 57 H 40.041020 32.380809 61.164292 0
M  V30 58 H 38.724445 33.208012 61.982195 0
M  V30 59 H 39.679179 29.551303 57.819316 0
M  V30 60 H 40.664255 26.474778 54.746110 0
M  V30 61 H 41.900491 33.768006 65.831281 0
M  V30 62 H 36.384993 32.953778 59.511280 0
M  V30 63 H 36.556666 33.031245 61.238161 0
M  V30 64 H 39.562711 31.217315 59.218094 0
M  V30 65 H 39.382140 32.960498 58.935180 0
M  V30 66 H 39.245158 30.731778 52.456436 0
M  V30 67 H 40.445361 31.337754 53.577849 0
M  V30 68 H 38.870937 32.137817 53.452015 0
M  V30 69 H 45.638346 27.752001 64.928974 0
M  V30 70 H 44.887392 27.789675 63.341791 0
M  V30 71 H 44.043625 27.050823 64.723670 0
M  V30 72 H 44.589564 31.307438 67.922085 0
M  V30 END ATOM
M  V30 BEGIN BOND
M  V30 1 1 7 2
M  V30 2 1 7 3
M  V30 3 1 8 1
M  V30 4 1 8 5
M  V30 5 2 10 4
M  V30 6 1 12 4
M  V30 7 2 13 6
M  V30 8 1 14 5
M  V30 9 1 15 10
M  V30 10 1 16 13
M  V30 11 1 17 6
M  V30 12 1 17 13
M  V30 13 1 20 1
M  V30 14 1 20 3
M  V30 15 1 21 9
M  V30 16 2 21 16
M  V30 17 1 21 19
M  V30 18 1 23 9
M  V30 19 1 24 18
M  V30 20 2 25 12
M  V30 21 1 26 1
M  V30 22 1 26 7
M  V30 23 1 26 17
M  V30 24 1 27 6
M  V30 25 2 27 9
M  V30 26 1 28 24
M  V30 27 1 28 25
M  V30 28 2 29 15
M  V30 29 1 29 22
M  V30 30 2 30 11
M  V30 31 1 30 29
M  V30 32 1 31 14
M  V30 33 1 31 18
M  V30 34 1 32 10
M  V30 35 1 33 11
M  V30 36 1 33 15
M  V30 37 1 33 25
M  V30 38 1 34 18
M  V30 39 1 34 20
M  V30 40 1 35 2
M  V30 41 1 36 32
M  V30 42 1 37 22
M  V30 43 1 1 38 CFG=3
M  V30 44 1 39 2
M  V30 45 1 40 2
M  V30 46 1 41 3
M  V30 47 1 42 3
M  V30 48 1 43 4
M  V30 49 1 44 5
M  V30 50 1 45 5
M  V30 51 1 7 46 CFG=3
M  V30 52 1 47 8
M  V30 53 1 48 8
M  V30 54 1 49 11
M  V30 55 1 50 12
M  V30 56 1 51 14
M  V30 57 1 52 14
M  V30 58 1 53 16
M  V30 59 1 20 54 CFG=3
M  V30 60 1 55 22
M  V30 61 1 56 22
M  V30 62 1 57 24
M  V30 63 1 58 24
M  V30 64 1 26 59 CFG=1
M  V30 65 1 60 27
M  V30 66 1 61 30
M  V30 67 1 62 31
M  V30 68 1 63 31
M  V30 69 1 64 34
M  V30 70 1 65 34
M  V30 71 1 66 35
M  V30 72 1 67 35
M  V30 73 1 68 35
M  V30 74 1 69 36
M  V30 75 1 70 36
M  V30 76 1 71 36
M  V30 77 1 72 37
M  V30 END BOND
M  V30 END CTAB
M  END
>  <i_epik_Tot_Q>  (1) 
0

>  <i_epik_Tot_abs_Q>  (1) 
0

>  <i_i_glide_confnum>  (1) 
401

>  <i_i_glide_lignum>  (1) 
122

>  <i_i_glide_posenum>  (1) 
272

>  <i_i_glide_rotatable_bonds>  (1) 
8

>  <i_lp_mmshare_version>  (1) 
72125

>  <i_m_source_file_index>  (1) 
57

>  <i_f3d_flags>  (1) 
0

>  <num_sample>  (1) 
100

>  <b_lp_Chiralities_Consistent>  (1) 
1

>  <r_epik_Charging_Adjusted_Penalty>  (1) 
0.12519281595075751

>  <r_epik_Ionization_Penalty>  (1) 
0.12878356589467399

>  <r_epik_Ionization_Penalty_Charging>  (1) 
0

>  <r_epik_Ionization_Penalty_Neutral>  (1) 
0.12878356589467399

>  <r_epik_State_Penalty>  (1) 
0.12519281595075751

>  <r_glide_ring_energy>  (1) 
0

>  <r_i_docking_score>  (1) 
-6.3298308537894368

>  <r_i_glide_ecoul>  (1) 
-0.36363068316188829

>  <r_i_glide_eff_state_penalty>  (1) 
0.12519281595075751

>  <r_i_glide_einternal>  (1) 
2.6194219085230692

>  <r_i_glide_emodel>  (1) 
-49.977800989497005

>  <r_i_glide_emodel_strain>  (1) 
3.3226168847115787

>  <r_i_glide_energy>  (1) 
-41.321056681135254

>  <r_i_glide_erotb>  (1) 
0.36984873200181739

>  <r_i_glide_esite>  (1) 
0

>  <r_i_glide_evdw>  (1) 
-40.957425997973367

>  <r_i_glide_gscore>  (1) 
-6.4550236697401946

>  <r_i_glide_gscore_strain>  (1) 
0

>  <r_i_glide_hbond>  (1) 
0

>  <r_i_glide_ligand_efficiency>  (1) 
-0.17107650956187667

>  <r_i_glide_ligand_efficiency_ln>  (1) 
-1.3727919198976735

>  <r_i_glide_ligand_efficiency_sa>  (1) 
-0.5700648834654034

>  <r_i_glide_lipo>  (1) 
-3.5221290010343491

>  <r_i_glide_metal>  (1) 
-0

>  <r_i_glide_rewards>  (1) 
-1.200327498334711

>  <r_lp_Energy>  (1) 
101.182165

>  <s_epik_Chemistry_Notes>  (1) 
This compound contains an acetal/aminal-like group ( X-CH(R)-Y where X, Y are N, S, or O) that may be acid/base labile, releasing an aldehyde.

>  <s_epik_cmdline>  (1) 
J2VwaWtfcHl0aG9uJywgJy1waHQnLCAnMS4wJywgJy1waCcsICc3LjQnLCAnLXRuJywgJzgnLCAnLW1hJywgJzUwMCcsICctaW1hZScsICc8aW5maWxlLm1hZT4nLCAnLW9tYWUnLCAnPG91dGZpbGUubWFlPic=

>  <s_epik_input>  (1) 
RmMoW2NIXTEpYyhGKVtjSF1jKGMxMilOMltDQEhdM1tDQEBIXShbQ0gyXVtDSDNdKVtDSDJdW0NAQEhdKFtDQEBIXTM0KVtDSDJdTihbQ0gyXVtDSDJdW0NIMl1bQ0gyXTQpW0NIMl1TYyhbY0hdW2NIXWM1T1tDSDNdKW4oYzU2KVtjSF1bY0hdYzZbQ0gyXVtPSF0=

>  <s_glide_docking_method>  (1) 
confgen

>  <s_i_glide_gridfile>  (1) 
gpcr_5ht2c_6bqh_protein_autoprepared_prepared

>  <s_lp_Force_Field>  (1) 
S-OPLS

>  <s_lp_Variant>  (1) 
DiffSBDD_56-1

>  <s_m_source_file>  (1) 
generated_GPCR_5HT2C_ligand_DiffSBDD_2026-06-23_prepared.sdf

>  <GenAI_Model>  (1) 
DiffSBDD

>  <Protein>  (1) 
GPCR_5HT2C

$$$$
DiffSBDD_90
     RDKit          3D

  0  0  0  0  0  0  0  0  0  0999 V3000
M  V30 BEGIN CTAB
M  V30 COUNTS 54 56 0 0 1
M  V30 BEGIN ATOM
M  V30 1 Cl 42.839586 30.895783 64.870971 0
M  V30 2 O 35.645126 34.794190 59.814276 0
M  V30 3 C 39.973914 32.096722 61.546213 0
M  V30 4 C 41.755079 31.351023 63.609825 0
M  V30 5 C 38.760968 30.529762 56.985282 0 CFG=1
M  V30 6 C 36.890024 35.219443 59.355443 0 CFG=1
M  V30 7 C 38.104910 28.563719 54.914963 0
M  V30 8 O 37.645384 32.677326 57.428344 0
M  V30 9 C 33.775022 33.337884 59.539252 0
M  V30 10 C 38.323942 31.487949 59.502117 0 CFG=1
M  V30 11 C 41.135905 30.359937 62.823594 0
M  V30 12 O 36.839580 36.573964 58.967766 0
M  V30 13 C 39.213880 32.022653 54.930889 0
M  V30 14 C 40.247539 30.725328 61.791271 0
M  V30 15 C 38.026853 29.221481 57.347278 0
M  V30 16 C 38.671450 33.790286 60.353123 0
M  V30 17 C 36.807338 31.374951 59.769179 0
M  V30 18 C 38.444623 30.838955 55.490410 0 CFG=1
M  V30 19 C 38.040094 34.938976 60.311123 0
M  V30 20 C 38.378195 28.110242 56.352172 0
M  V30 21 F 42.079475 33.662821 64.132069 0
M  V30 22 C 40.603179 33.088005 62.347211 0
M  V30 23 O 38.336627 36.039814 61.011158 0
M  V30 24 C 35.241566 33.473972 59.767939 0
M  V30 25 C 38.564914 31.753861 57.959354 0 CFG=1
M  V30 26 C 41.487486 32.712383 63.371366 0
M  V30 27 C 36.008763 32.413842 59.880214 0
M  V30 28 O 38.835621 29.749520 54.660144 0
M  V30 29 O 36.433835 30.091782 59.766386 0
M  V30 30 C 39.004438 32.519708 60.464206 0
M  V30 31 H 39.826755 30.296309 57.040637 0
M  V30 32 H 37.102854 34.709528 58.420121 0
M  V30 33 H 38.425309 27.792271 54.214555 0
M  V30 34 H 37.046579 28.747963 54.736104 0
M  V30 35 H 36.769813 32.274072 57.312407 0
M  V30 36 H 33.645242 32.389421 59.018804 0
M  V30 37 H 33.233769 33.338004 60.480266 0
M  V30 38 H 33.410779 34.139444 58.896961 0
M  V30 39 H 38.787932 30.527687 59.660327 0
M  V30 40 H 41.338175 29.314560 63.016517 0
M  V30 41 H 36.450090 36.573161 58.096260 0
M  V30 42 H 38.867177 32.981229 55.311020 0
M  V30 43 H 40.276658 31.925577 55.145765 0
M  V30 44 H 39.085003 32.066294 53.850945 0
M  V30 45 H 39.777949 29.953515 61.211700 0
M  V30 46 H 38.293047 28.870536 58.340922 0
M  V30 47 H 36.951051 29.390324 57.331028 0
M  V30 48 H 37.375333 31.025237 55.365757 0
M  V30 49 H 39.434924 27.846817 56.443414 0
M  V30 50 H 37.810141 27.210377 56.587442 0
M  V30 51 H 40.405061 34.136901 62.177430 0
M  V30 52 H 37.763316 36.715062 60.666309 0
M  V30 53 H 39.481180 32.336920 57.870745 0
M  V30 54 H 37.193453 29.572332 59.559742 0
M  V30 END ATOM
M  V30 BEGIN BOND
M  V30 1 1 4 1
M  V30 2 1 6 2
M  V30 3 1 11 4
M  V30 4 1 12 6
M  V30 5 1 14 3
M  V30 6 2 14 11
M  V30 7 1 15 5
M  V30 8 1 17 10
M  V30 9 1 18 5
M  V30 10 1 18 13
M  V30 11 1 19 6
M  V30 12 2 19 16
M  V30 13 1 20 7
M  V30 14 1 20 15
M  V30 15 2 22 3
M  V30 16 1 23 19
M  V30 17 1 24 2
M  V30 18 1 24 9
M  V30 19 1 25 5
M  V30 20 1 25 8
M  V30 21 1 25 10
M  V30 22 2 26 4
M  V30 23 1 26 21
M  V30 24 1 26 22
M  V30 25 2 27 17
M  V30 26 2 27 24
M  V30 27 1 28 7
M  V30 28 1 28 18
M  V30 29 1 29 17
M  V30 30 1 30 3
M  V30 31 1 30 10
M  V30 32 2 30 16
M  V30 33 1 5 31 CFG=3
M  V30 34 1 6 32 CFG=3
M  V30 35 1 33 7
M  V30 36 1 34 7
M  V30 37 1 35 8
M  V30 38 1 36 9
M  V30 39 1 37 9
M  V30 40 1 38 9
M  V30 41 1 10 39 CFG=1
M  V30 42 1 40 11
M  V30 43 1 41 12
M  V30 44 1 42 13
M  V30 45 1 43 13
M  V30 46 1 44 13
M  V30 47 1 45 14
M  V30 48 1 46 15
M  V30 49 1 47 15
M  V30 50 1 18 48 CFG=1
M  V30 51 1 49 20
M  V30 52 1 50 20
M  V30 53 1 51 22
M  V30 54 1 52 23
M  V30 55 1 25 53 CFG=1
M  V30 56 1 54 29
M  V30 END BOND
M  V30 END CTAB
M  END
>  <i_epik_Tot_Q>  (1) 
0

>  <i_epik_Tot_abs_Q>  (1) 
0

>  <i_i_glide_confnum>  (1) 
11

>  <i_i_glide_lignum>  (1) 
210

>  <i_i_glide_posenum>  (1) 
147

>  <i_i_glide_rotatable_bonds>  (1) 
7

>  <i_lp_mmshare_version>  (1) 
72125

>  <i_m_source_file_index>  (1) 
91

>  <i_f3d_flags>  (1) 
0

>  <num_sample>  (1) 
100

>  <b_lp_Chiralities_Consistent>  (1) 
1

>  <r_epik_Charging_Adjusted_Penalty>  (1) 
0

>  <r_epik_Ionization_Penalty>  (1) 
0.00021640466764567947

>  <r_epik_Ionization_Penalty_Charging>  (1) 
0

>  <r_epik_Ionization_Penalty_Neutral>  (1) 
0.00021640466764567947

>  <r_epik_State_Penalty>  (1) 
-0

>  <r_glide_ring_energy>  (1) 
0

>  <r_i_docking_score>  (1) 
-6.3235769515710789

>  <r_i_glide_ecoul>  (1) 
-9.0410468941217736

>  <r_i_glide_eff_state_penalty>  (1) 
-0

>  <r_i_glide_einternal>  (1) 
11.178266242376679

>  <r_i_glide_emodel>  (1) 
-45.016475005799705

>  <r_i_glide_emodel_strain>  (1) 
4.2422678020871842

>  <r_i_glide_energy>  (1) 
-45.433620426516867

>  <r_i_glide_erotb>  (1) 
0.31077181142347338

>  <r_i_glide_esite>  (1) 
0

>  <r_i_glide_evdw>  (1) 
-36.39257353239509

>  <r_i_glide_gscore>  (1) 
-6.3235769515710789

>  <r_i_glide_gscore_strain>  (1) 
0.060566950521796059

>  <r_i_glide_hbond>  (1) 
-0.45599999999999996

>  <r_i_glide_ligand_efficiency>  (1) 
-0.21078589838570264

>  <r_i_glide_ligand_efficiency_ln>  (1) 
-1.4367855842863646

>  <r_i_glide_ligand_efficiency_sa>  (1) 
-0.65496079526074236

>  <r_i_glide_lipo>  (1) 
-1.6933095638688218

>  <r_i_glide_metal>  (1) 
-0

>  <r_i_glide_rewards>  (1) 
-1.3698204389095046

>  <r_lp_Energy>  (1) 
4.0027919999999995

>  <r_lp_tautomer_probability>  (1) 
1

>  <s_epik_Chemistry_Notes>  (1) 
This compound contains an acetal/aminal-like group ( X-CH(R)-Y where X, Y are N, S, or O) that may be acid/base labile, releasing an aldehyde.

>  <s_epik_cmdline>  (1) 
J2VwaWtfcHl0aG9uJywgJy1waHQnLCAnMS4wJywgJy1waCcsICc3LjQnLCAnLXRuJywgJzgnLCAnLW1hJywgJzUwMCcsICctaW1hZScsICc8aW5maWxlLm1hZT4nLCAnLW9tYWUnLCAnPG91dGZpbGUubWFlPic=

>  <s_epik_input>  (1) 
RmMoW2NIXTEpYyhDbClbY0hdW2NIXWMxQyg9Qz1DMltPSF0pW0NAQEhdKEMoW09IXSk9Qz1DKFtDSDNdKU9bQ0BIXTJbT0hdKVtDQEhdKFtPSF0pW0NASF0zW0NIMl1bQ0gyXVtDSDJdT1tDQEBIXTNbQ0gzXQ==

>  <s_glide_docking_method>  (1) 
confgen

>  <s_i_glide_gridfile>  (1) 
gpcr_5ht2c_6bqh_protein_autoprepared_prepared

>  <s_lp_Force_Field>  (1) 
S-OPLS

>  <s_lp_Variant>  (1) 
DiffSBDD_90-1

>  <s_m_source_file>  (1) 
generated_GPCR_5HT2C_ligand_DiffSBDD_2026-06-23_prepared.sdf

>  <GenAI_Model>  (1) 
DiffSBDD

>  <Protein>  (1) 
GPCR_5HT2C

$$$$
DiffSBDD_30
     RDKit          3D

  0  0  0  0  0  0  0  0  0  0999 V3000
M  V30 BEGIN CTAB
M  V30 COUNTS 35 36 0 0 1
M  V30 BEGIN ATOM
M  V30 1 C 39.307631 29.155345 53.862167 0
M  V30 2 N 39.531847 29.794528 52.612055 0
M  V30 3 C 38.302003 27.314654 55.277184 0
M  V30 4 C 40.045129 29.766821 55.005672 0
M  V30 5 C 39.423556 29.053737 51.422278 0
M  V30 6 C 38.890733 26.088142 58.213559 0
M  V30 7 C 38.226959 27.894038 56.558458 0
M  V30 8 C 37.960432 25.871589 55.110582 0
M  V30 9 C 38.561337 28.035459 54.005127 0
M  V30 10 C 39.645138 29.529542 50.184875 0
M  V30 11 N 38.519899 25.042540 56.032121 0
M  V30 12 C 37.810671 27.046955 57.750954 0
M  V30 13 C 38.413853 29.339820 56.812377 0
M  V30 14 O 37.247331 25.434105 54.211516 0
M  V30 15 C 39.178520 30.170968 56.109435 0
M  V30 16 C 39.531387 25.437567 57.007025 0
M  V30 17 C 39.929587 31.202468 52.564945 0
M  V30 18 H 40.701513 28.993071 55.403859 0
M  V30 19 H 40.728453 30.580346 54.772934 0
M  V30 20 H 39.148615 28.026740 51.565081 0
M  V30 21 H 39.651470 26.605898 58.799146 0
M  V30 22 H 38.445299 25.337762 58.866248 0
M  V30 23 H 38.112978 27.614408 53.123910 0
M  V30 24 H 39.928767 30.554367 50.013599 0
M  V30 25 H 39.543990 28.891303 49.327382 0
M  V30 26 H 38.301288 24.060074 55.975124 0
M  V30 27 H 37.645094 27.738777 58.567772 0
M  V30 28 H 36.859991 26.544152 57.563486 0
M  V30 29 H 37.884609 29.762605 57.654791 0
M  V30 30 H 39.226423 31.212000 56.396863 0
M  V30 31 H 40.060517 24.538801 57.321880 0
M  V30 32 H 40.288301 26.080417 56.552497 0
M  V30 33 H 40.998251 31.337748 52.690963 0
M  V30 34 H 39.420662 31.737768 53.365282 0
M  V30 35 H 39.645138 31.713039 51.648957 0
M  V30 END ATOM
M  V30 BEGIN BOND
M  V30 1 1 2 1
M  V30 2 1 4 1
M  V30 3 1 5 2
M  V30 4 2 7 3
M  V30 5 1 8 3
M  V30 6 2 9 1
M  V30 7 1 9 3
M  V30 8 2 10 5
M  V30 9 1 11 8
M  V30 10 1 12 6
M  V30 11 1 12 7
M  V30 12 1 13 7
M  V30 13 2 14 8
M  V30 14 1 15 4
M  V30 15 2 15 13
M  V30 16 1 16 6
M  V30 17 1 16 11
M  V30 18 1 17 2
M  V30 19 1 18 4
M  V30 20 1 19 4
M  V30 21 1 20 5
M  V30 22 1 21 6
M  V30 23 1 22 6
M  V30 24 1 23 9
M  V30 25 1 24 10
M  V30 26 1 25 10
M  V30 27 1 26 11
M  V30 28 1 27 12
M  V30 29 1 28 12
M  V30 30 1 29 13
M  V30 31 1 30 15
M  V30 32 1 31 16
M  V30 33 1 32 16
M  V30 34 1 33 17
M  V30 35 1 34 17
M  V30 36 1 35 17
M  V30 END BOND
M  V30 END CTAB
M  END
>  <i_epik_Tot_Q>  (1) 
0

>  <i_epik_Tot_abs_Q>  (1) 
0

>  <i_i_glide_confnum>  (1) 
2

>  <i_i_glide_lignum>  (1) 
72

>  <i_i_glide_posenum>  (1) 
352

>  <i_i_glide_rotatable_bonds>  (1) 
2

>  <i_lp_mmshare_version>  (1) 
72125

>  <i_m_source_file_index>  (1) 
31

>  <i_f3d_flags>  (1) 
0

>  <num_sample>  (1) 
100

>  <b_lp_Chiralities_Consistent>  (1) 
1

>  <r_epik_Charging_Adjusted_Penalty>  (1) 
0.00013572112653438843

>  <r_epik_Ionization_Penalty>  (1) 
0.00014669493665376082

>  <r_epik_Ionization_Penalty_Charging>  (1) 
0.00013572112653438843

>  <r_epik_Ionization_Penalty_Neutral>  (1) 
1.0973810119372391e-05

>  <r_epik_State_Penalty>  (1) 
-0

>  <r_glide_ring_energy>  (1) 
0

>  <r_i_docking_score>  (1) 
-6.3229179627243619

>  <r_i_glide_ecoul>  (1) 
-0.45902707095366824

>  <r_i_glide_eff_state_penalty>  (1) 
-0

>  <r_i_glide_einternal>  (1) 
7.3289137741816539

>  <r_i_glide_emodel>  (1) 
-31.855028709399363

>  <r_i_glide_emodel_strain>  (1) 
0

>  <r_i_glide_energy>  (1) 
-24.569967890158967

>  <r_i_glide_erotb>  (1) 
0.32205052680496415

>  <r_i_glide_esite>  (1) 
0

>  <r_i_glide_evdw>  (1) 
-24.1109408192053

>  <r_i_glide_gscore>  (1) 
-6.3229179627243619

>  <r_i_glide_gscore_strain>  (1) 
0

>  <r_i_glide_hbond>  (1) 
0

>  <r_i_glide_ligand_efficiency>  (1) 
-0.37193635074849185

>  <r_i_glide_ligand_efficiency_ln>  (1) 
-1.649508492014587

>  <r_i_glide_ligand_efficiency_sa>  (1) 
-0.95635309157620163

>  <r_i_glide_lipo>  (1) 
-2.3367744887640054

>  <r_i_glide_metal>  (1) 
-0

>  <r_i_glide_rewards>  (1) 
-3.0337928991620053

>  <r_lp_Energy>  (1) 
36.162458999999998

>  <r_lp_tautomer_probability>  (1) 
1

>  <s_epik_Chemistry_Notes>  (1) 
This compound has an imine and may undergo hydrolysis.

>  <s_epik_cmdline>  (1) 
J2VwaWtfcHl0aG9uJywgJy1waHQnLCAnMS4wJywgJy1waCcsICc3LjQnLCAnLXRuJywgJzgnLCAnLW1hJywgJzUwMCcsICctaW1hZScsICc8aW5maWxlLm1hZT4nLCAnLW9tYWUnLCAnPG91dGZpbGUubWFlPic=

>  <s_epik_input>  (1) 
W0NIMl09W0NIXU4oW0NIM10pQyg9W0NIXTEpW0NIMl1bQ0hdPVtDSF1DKD1DMTIpW0NIMl1bQ0gyXVtDSDJdW05IXUMyPU8=

>  <s_glide_docking_method>  (1) 
confgen

>  <s_i_glide_gridfile>  (1) 
gpcr_5ht2c_6bqh_protein_autoprepared_prepared

>  <s_lp_Force_Field>  (1) 
S-OPLS

>  <s_lp_Variant>  (1) 
DiffSBDD_30-1

>  <s_m_source_file>  (1) 
generated_GPCR_5HT2C_ligand_DiffSBDD_2026-06-23_prepared.sdf

>  <GenAI_Model>  (1) 
DiffSBDD

>  <Protein>  (1) 
GPCR_5HT2C

$$$$
DiffSBDD_4
     RDKit          3D

  0  0  0  0  0  0  0  0  0  0999 V3000
M  V30 BEGIN CTAB
M  V30 COUNTS 72 75 0 0 1
M  V30 BEGIN ATOM
M  V30 1 C 39.765796 33.759502 62.347858 0
M  V30 2 C 36.351631 23.678895 55.696424 0
M  V30 3 C 39.139307 27.996052 54.809320 0
M  V30 4 N 38.811902 32.844471 61.721316 0
M  V30 5 C 38.985402 30.557851 60.745750 0
M  V30 6 O 39.080365 30.143834 53.769085 0
M  V30 7 C 37.967036 36.499768 61.685215 0
M  V30 8 C 36.338870 32.337101 59.469574 0
M  V30 9 C 39.239599 29.525565 54.822377 0
M  V30 10 O 37.746004 34.458725 60.326330 0
M  V30 11 C 38.600539 35.551927 60.664392 0 CFG=2
M  V30 12 C 35.029990 33.330261 61.268234 0
M  V30 13 C 37.719494 27.910613 57.527910 0
M  V30 14 O 40.458227 28.849847 59.901539 0
M  V30 15 O 38.618451 37.417512 62.172821 0
M  V30 16 C 39.587596 31.629534 56.056075 0
M  V30 17 C 37.810918 25.698179 56.319585 0 CFG=1
M  V30 18 C 37.571128 33.494597 61.329599 0 CFG=1
M  V30 19 C 39.458970 32.022529 60.696690 0
M  V30 20 C 36.365108 32.602154 60.973229 0 CFG=2
M  V30 21 O 39.244712 30.115621 58.380714 0
M  V30 22 N 39.492534 30.161826 56.010393 0
M  V30 23 C 37.342711 26.440330 57.590624 0
M  V30 24 N 35.400391 33.337744 58.967781 0 CHG=1
M  V30 25 C 39.752319 29.400094 57.268602 0 CFG=2
M  V30 26 C 34.299137 33.328182 59.923929 0
M  V30 27 C 39.645510 29.737617 59.645502 0
M  V30 28 C 39.228255 27.958375 57.309598 0 CFG=2
M  V30 29 O 39.206684 25.909212 56.075411 0
M  V30 30 C 37.626584 24.177421 56.377324 0 CFG=1
M  V30 31 S 40.265425 35.038944 61.163355 0
M  V30 32 C 38.226628 32.317405 55.923736 0
M  V30 33 C 39.656405 27.260653 56.037798 0 CFG=1
M  V30 34 O 37.645176 23.737767 57.719320 0
M  V30 35 H 39.309655 34.240293 63.211445 0
M  V30 36 H 40.640649 33.215784 62.709172 0
M  V30 37 H 36.357580 23.920186 54.634068 0
M  V30 38 H 36.246702 22.597772 55.786513 0
M  V30 39 H 35.471617 24.137834 56.132937 0
M  V30 40 H 39.645018 27.615448 53.923329 0
M  V30 41 H 38.086326 27.800017 54.631287 0
M  V30 42 H 37.910940 30.465029 60.619370 0
M  V30 43 H 39.232316 30.115783 61.713453 0
M  V30 44 H 36.923465 36.301848 61.933712 0
M  V30 45 H 37.297823 32.400474 58.961923 0
M  V30 46 H 35.932489 31.345652 59.266464 0
M  V30 47 H 38.701421 36.155421 59.767792 0
M  V30 48 H 34.445194 32.842379 62.049726 0
M  V30 49 H 35.209048 34.355139 61.593100 0
M  V30 50 H 37.422683 28.396978 58.455176 0
M  V30 51 H 37.245184 28.458938 56.723662 0
M  V30 52 H 40.044975 31.978109 56.967734 0
M  V30 53 H 40.245400 31.966212 55.256729 0
M  V30 54 H 37.244946 26.064149 55.464923 0
M  V30 55 H 37.237884 34.067950 62.167755 0
M  V30 56 H 40.538439 32.020395 60.853982 0
M  V30 57 H 39.310215 32.469803 59.713475 0
M  V30 58 H 36.419160 31.679560 61.550713 0
M  V30 59 H 36.280407 26.296939 57.766044 0
M  V30 60 H 37.845116 26.038504 58.470690 0
M  V30 61 H 35.135436 33.021512 58.033975 0
M  V30 62 H 40.837790 29.337765 57.363947 0
M  V30 63 H 33.746112 32.402271 59.767815 0
M  V30 64 H 33.596039 34.138222 59.767755 0
M  V30 65 H 39.717143 27.418538 58.119510 0
M  V30 66 H 38.463257 23.737763 55.846617 0
M  V30 67 H 38.320906 33.401818 55.986384 0
M  V30 68 H 37.727367 32.086241 54.982958 0
M  V30 69 H 37.586228 31.990988 56.734946 0
M  V30 70 H 40.746760 27.230361 55.992686 0
M  V30 71 H 36.884757 24.080198 58.158978 0
M  V30 72 H 35.847063 34.242202 58.923704 0
M  V30 END ATOM
M  V30 BEGIN BOND
M  V30 1 1 4 1
M  V30 2 1 9 3
M  V30 3 2 9 6
M  V30 4 1 11 7
M  V30 5 1 11 10
M  V30 6 2 15 7
M  V30 7 1 18 4
M  V30 8 1 18 10
M  V30 9 1 19 4
M  V30 10 1 19 5
M  V30 11 1 20 8
M  V30 12 1 20 12
M  V30 13 1 20 18
M  V30 14 1 22 9
M  V30 15 1 22 16
M  V30 16 1 23 13
M  V30 17 1 23 17
M  V30 18 1 24 8
M  V30 19 1 25 21
M  V30 20 1 25 22
M  V30 21 1 26 12
M  V30 22 1 26 24
M  V30 23 1 27 5
M  V30 24 2 27 14
M  V30 25 1 27 21
M  V30 26 1 28 13
M  V30 27 1 28 25
M  V30 28 1 29 17
M  V30 29 1 30 2
M  V30 30 1 30 17
M  V30 31 1 31 1
M  V30 32 1 31 11
M  V30 33 1 32 16
M  V30 34 1 33 3
M  V30 35 1 33 28
M  V30 36 1 33 29
M  V30 37 1 34 30
M  V30 38 1 35 1
M  V30 39 1 36 1
M  V30 40 1 37 2
M  V30 41 1 38 2
M  V30 42 1 39 2
M  V30 43 1 40 3
M  V30 44 1 41 3
M  V30 45 1 42 5
M  V30 46 1 43 5
M  V30 47 1 44 7
M  V30 48 1 45 8
M  V30 49 1 46 8
M  V30 50 1 11 47 CFG=3
M  V30 51 1 48 12
M  V30 52 1 49 12
M  V30 53 1 50 13
M  V30 54 1 51 13
M  V30 55 1 52 16
M  V30 56 1 53 16
M  V30 57 1 17 54 CFG=3
M  V30 58 1 18 55 CFG=1
M  V30 59 1 56 19
M  V30 60 1 57 19
M  V30 61 1 20 58 CFG=1
M  V30 62 1 59 23
M  V30 63 1 60 23
M  V30 64 1 61 24
M  V30 65 1 25 62 CFG=1
M  V30 66 1 63 26
M  V30 67 1 64 26
M  V30 68 1 28 65 CFG=1
M  V30 69 1 30 66 CFG=3
M  V30 70 1 67 32
M  V30 71 1 68 32
M  V30 72 1 69 32
M  V30 73 1 33 70 CFG=3
M  V30 74 1 71 34
M  V30 75 1 72 24
M  V30 END BOND
M  V30 END CTAB
M  END
>  <i_epik_Tot_Q>  (1) 
1

>  <i_epik_Tot_abs_Q>  (1) 
1

>  <i_i_glide_confnum>  (1) 
611

>  <i_i_glide_lignum>  (1) 
7

>  <i_i_glide_posenum>  (1) 
342

>  <i_i_glide_rotatable_bonds>  (1) 
10

>  <i_lp_mmshare_version>  (1) 
72125

>  <i_m_source_file_index>  (1) 
5

>  <i_f3d_flags>  (1) 
0

>  <num_sample>  (1) 
100

>  <b_lp_Chiralities_Consistent>  (1) 
1

>  <r_epik_Charging_Adjusted_Penalty>  (1) 
0.68239231030887826

>  <r_epik_Ionization_Penalty>  (1) 
0.68239482879591951

>  <r_epik_Ionization_Penalty_Charging>  (1) 
0.00029009099004162725

>  <r_epik_Ionization_Penalty_Neutral>  (1) 
0.68210473780587788

>  <r_epik_State_Penalty>  (1) 
0.68210221931883663

>  <r_glide_ring_energy>  (1) 
0.17891050555161442

>  <r_i_docking_score>  (1) 
-6.3216895208087127

>  <r_i_glide_ecoul>  (1) 
-1.652514014225777

>  <r_i_glide_eff_state_penalty>  (1) 
0.68210221931883663

>  <r_i_glide_einternal>  (1) 
14.54997719542941

>  <r_i_glide_emodel>  (1) 
-52.860987079403721

>  <r_i_glide_emodel_strain>  (1) 
2.385617231565206

>  <r_i_glide_energy>  (1) 
-40.401298017490369

>  <r_i_glide_erotb>  (1) 
0.570329169500843

>  <r_i_glide_esite>  (1) 
-0.10000000000000001

>  <r_i_glide_evdw>  (1) 
-38.748784003264589

>  <r_i_glide_gscore>  (1) 
-7.0037917401275491

>  <r_i_glide_gscore_strain>  (1) 
0

>  <r_i_glide_hbond>  (1) 
-0.18731181051806381

>  <r_i_glide_ligand_efficiency>  (1) 
-0.18593204472966801

>  <r_i_glide_ligand_efficiency_ln>  (1) 
-1.3966385325315633

>  <r_i_glide_ligand_efficiency_sa>  (1) 
-0.60234764634188553

>  <r_i_glide_lipo>  (1) 
-3.3092158395188527

>  <r_i_glide_metal>  (1) 
-0

>  <r_i_glide_rewards>  (1) 
-1.7922769572943795

>  <r_lp_Energy>  (1) 
42.884645999999996

>  <r_lp_tautomer_probability>  (1) 
0.99990000499974985

>  <s_epik_Chemistry_Notes>  (1) 
This compound has an ester and may undergo hydrolysis at high or low pH. This compound contains an acetal/aminal-like group ( X-CH(R)-Y where X, Y are N, S, or O) that may be acid/base labile, releasing an aldehyde.

>  <s_epik_cmdline>  (1) 
J2VwaWtfcHl0aG9uJywgJy1waHQnLCAnMS4wJywgJy1waCcsICc3LjQnLCAnLXRuJywgJzgnLCAnLW1hJywgJzUwMCcsICctaW1hZScsICc8aW5maWxlLm1hZT4nLCAnLW9tYWUnLCAnPG91dGZpbGUubWFlPic=

>  <s_epik_input>  (1) 
W0NIMl0xW0NIMl1bTkhdW0NIMl1bQ0BIXTFbQ0BASF0yT1tDQEBIXShbQ0hdPU8pU1tDSDJdTjJbQ0gyXVtDSDJdQyg9TylPW0NAQEhdM04oW0NIMl1bQ0gzXSlDKD1PKVtDSDJdW0NAQEhdKFtDQEBIXTM0KU9bQ0BIXShbQ0gyXVtDSDJdNClbQ0BIXShbQ0gzXSlbT0hd

>  <s_glide_docking_method>  (1) 
confgen

>  <s_i_glide_gridfile>  (1) 
gpcr_5ht2c_6bqh_protein_autoprepared_prepared

>  <s_lp_Force_Field>  (1) 
S-OPLS

>  <s_lp_Variant>  (1) 
DiffSBDD_4-2

>  <s_m_source_file>  (1) 
generated_GPCR_5HT2C_ligand_DiffSBDD_2026-06-23_prepared.sdf

>  <GenAI_Model>  (1) 
DiffSBDD

>  <Protein>  (1) 
GPCR_5HT2C

$$$$
DiffSBDD_20
     RDKit          3D

  0  0  0  0  0  0  0  0  0  0999 V3000
M  V30 BEGIN CTAB
M  V30 COUNTS 53 54 0 0 1
M  V30 BEGIN ATOM
M  V30 1 C 38.383696 31.646461 57.650487 0 CFG=2
M  V30 2 O 37.343865 29.444969 57.468802 0
M  V30 3 O 36.045240 31.566220 61.368241 0
M  V30 4 P 35.996296 32.947352 60.838109 0
M  V30 5 C 38.688825 30.335944 55.585619 0 CFG=1
M  V30 6 N 38.786818 37.303577 62.457285 0
M  V30 7 C 38.097086 29.217187 53.318251 0
M  V30 8 C 39.245014 27.414575 51.924976 0
M  V30 9 C 37.448379 31.800383 58.856123 0
M  V30 10 C 38.760631 33.588247 60.186921 0 CFG=2
M  V30 11 N 38.045655 32.465836 56.480676 0 CHG=1
M  V30 12 C 38.496925 30.191446 57.123922 0
M  V30 13 F 40.258890 36.349411 63.985821 0
M  V30 14 C 38.794798 27.847715 53.325537 0
M  V30 15 C 39.520265 36.238043 62.859389 0
M  V30 16 O 35.931416 34.091408 61.767484 0 CHG=-1
M  V30 17 O 34.691960 33.044365 59.767640 0
M  V30 18 C 38.764867 34.894685 60.984637 0
M  V30 19 C 39.541007 35.020733 62.151671 0
M  V30 20 C 37.391485 33.164721 59.571952 0 CFG=2
M  V30 21 C 38.040570 37.172085 61.338383 0
M  V30 22 O 36.498768 30.537758 54.567811 0
M  V30 23 C 38.001182 35.997950 60.568056 0
M  V30 24 C 37.599871 29.655381 54.708331 0 CFG=2
M  V30 25 C 38.786624 31.860985 55.360136 0
M  V30 26 O 39.343335 32.504371 60.892276 0
M  V30 27 O 39.645504 29.602720 57.685370 0
M  V30 28 H 39.360871 32.008580 57.930168 0
M  V30 29 H 36.625376 30.044734 57.627528 0
M  V30 30 H 39.647020 29.895516 55.305060 0
M  V30 31 H 37.245478 29.107929 52.648647 0
M  V30 32 H 38.752233 29.977738 52.893014 0
M  V30 33 H 39.653250 26.405470 51.944543 0
M  V30 34 H 38.410136 27.409674 51.222979 0
M  V30 35 H 40.012398 28.081839 51.531558 0
M  V30 36 H 36.445132 31.515795 58.568252 0
M  V30 37 H 37.743035 31.040824 59.581608 0
M  V30 38 H 39.442705 33.783309 59.359640 0
M  V30 39 H 38.275278 33.439058 56.614014 0
M  V30 40 H 39.644970 27.858786 54.004948 0
M  V30 41 H 38.107581 27.095466 53.715202 0
M  V30 42 H 34.852304 32.432238 59.064804 0
M  V30 43 H 40.142623 34.197890 62.505882 0
M  V30 44 H 37.074707 33.916620 58.849695 0
M  V30 45 H 37.461113 38.035240 61.046397 0
M  V30 46 H 36.065407 30.661231 55.407661 0
M  V30 47 H 37.390555 35.947188 59.679893 0
M  V30 48 H 37.244710 28.740899 55.176537 0
M  V30 49 H 39.829689 32.170946 55.435342 0
M  V30 50 H 38.422851 32.198162 54.388764 0
M  V30 51 H 38.768333 32.270479 61.607730 0
M  V30 52 H 39.669182 28.694749 57.422395 0
M  V30 53 H 37.042971 32.377029 56.316399 0
M  V30 END ATOM
M  V30 BEGIN BOND
M  V30 1 2 4 3
M  V30 2 1 9 1
M  V30 3 1 11 1
M  V30 4 1 12 1
M  V30 5 1 12 2
M  V30 6 1 12 5
M  V30 7 1 14 7
M  V30 8 1 14 8
M  V30 9 2 15 6
M  V30 10 1 15 13
M  V30 11 1 16 4
M  V30 12 1 17 4
M  V30 13 1 18 10
M  V30 14 1 19 15
M  V30 15 2 19 18
M  V30 16 1 20 4
M  V30 17 1 20 9
M  V30 18 1 20 10
M  V30 19 1 21 6
M  V30 20 1 23 18
M  V30 21 2 23 21
M  V30 22 1 24 5
M  V30 23 1 24 7
M  V30 24 1 24 22
M  V30 25 1 25 5
M  V30 26 1 25 11
M  V30 27 1 26 10
M  V30 28 1 27 12
M  V30 29 1 1 28 CFG=1
M  V30 30 1 29 2
M  V30 31 1 5 30 CFG=3
M  V30 32 1 31 7
M  V30 33 1 32 7
M  V30 34 1 33 8
M  V30 35 1 34 8
M  V30 36 1 35 8
M  V30 37 1 36 9
M  V30 38 1 37 9
M  V30 39 1 10 38 CFG=3
M  V30 40 1 39 11
M  V30 41 1 40 14
M  V30 42 1 41 14
M  V30 43 1 42 17
M  V30 44 1 43 19
M  V30 45 1 20 44 CFG=3
M  V30 46 1 45 21
M  V30 47 1 46 22
M  V30 48 1 47 23
M  V30 49 1 24 48 CFG=1
M  V30 50 1 49 25
M  V30 51 1 50 25
M  V30 52 1 51 26
M  V30 53 1 52 27
M  V30 54 1 53 11
M  V30 END BOND
M  V30 END CTAB
M  END
>  <i_epik_Tot_Q>  (1) 
0

>  <i_epik_Tot_abs_Q>  (1) 
2

>  <i_i_glide_confnum>  (1) 
681

>  <i_i_glide_lignum>  (1) 
50

>  <i_i_glide_posenum>  (1) 
107

>  <i_i_glide_rotatable_bonds>  (1) 
13

>  <i_lp_mmshare_version>  (1) 
72125

>  <i_m_source_file_index>  (1) 
21

>  <i_f3d_flags>  (1) 
0

>  <num_sample>  (1) 
100

>  <b_lp_Chiralities_Consistent>  (1) 
1

>  <r_epik_Charging_Adjusted_Penalty>  (1) 
0.5459377507147144

>  <r_epik_Ionization_Penalty>  (1) 
0.54595169612510452

>  <r_epik_Ionization_Penalty_Charging>  (1) 
0.0068991791537532298

>  <r_epik_Ionization_Penalty_Neutral>  (1) 
0.53905251697135126

>  <r_epik_State_Penalty>  (1) 
0.53903857156096113

>  <r_glide_ring_energy>  (1) 
1.9592154643148916

>  <r_i_docking_score>  (1) 
-6.321158026723781

>  <r_i_glide_ecoul>  (1) 
-13.590011109285882

>  <r_i_glide_eff_state_penalty>  (1) 
0.53903857156096113

>  <r_i_glide_einternal>  (1) 
21.816329085638678

>  <r_i_glide_emodel>  (1) 
-55.285982494106143

>  <r_i_glide_emodel_strain>  (1) 
4.3076498323644117

>  <r_i_glide_energy>  (1) 
-44.958522572630031

>  <r_i_glide_erotb>  (1) 
0.70809137694380864

>  <r_i_glide_esite>  (1) 
-0.15558512088017765

>  <r_i_glide_evdw>  (1) 
-31.368511463344145

>  <r_i_glide_gscore>  (1) 
-6.8601965982847419

>  <r_i_glide_gscore_strain>  (1) 
0.07691245809110292

>  <r_i_glide_hbond>  (1) 
-0.66064686332174871

>  <r_i_glide_ligand_efficiency>  (1) 
-0.23411696395273263

>  <r_i_glide_ligand_efficiency_ln>  (1) 
-1.4714613761865813

>  <r_i_glide_ligand_efficiency_sa>  (1) 
-0.70235089185819799

>  <r_i_glide_lipo>  (1) 
-2.0282916742988033

>  <r_i_glide_metal>  (1) 
-0

>  <r_i_glide_rewards>  (1) 
-1.1937495352588328

>  <r_lp_Energy>  (1) 
5.5430529999999996

>  <s_epik_cmdline>  (1) 
J2VwaWtfcHl0aG9uJywgJy1waHQnLCAnMS4wJywgJy1waCcsICc3LjQnLCAnLXRuJywgJzgnLCAnLW1hJywgJzUwMCcsICctaW1hZScsICc8aW5maWxlLm1hZT4nLCAnLW9tYWUnLCAnPG91dGZpbGUubWFlPic=

>  <s_epik_input>  (1) 
W0NIM11bQ0gyXVtDSDJdW0NAQEhdKFtPSF0pW0NASF0xW0NIMl1bTkhdW0NASF0oQzEoW09IXSlbT0hdKVtDSDJdW0NAQEhdKFAoPU8pKFtPSF0pW09IXSlbQ0BIXShbT0hdKWMoW2NIXTIpW2NIXVtjSF1uYzJG

>  <s_glide_docking_method>  (1) 
confgen

>  <s_i_glide_gridfile>  (1) 
gpcr_5ht2c_6bqh_protein_autoprepared_prepared

>  <s_lp_Force_Field>  (1) 
S-OPLS

>  <s_lp_Variant>  (1) 
DiffSBDD_20-4

>  <s_m_source_file>  (1) 
generated_GPCR_5HT2C_ligand_DiffSBDD_2026-06-23_prepared.sdf

>  <GenAI_Model>  (1) 
DiffSBDD

>  <Protein>  (1) 
GPCR_5HT2C

$$$$
DiffSBDD_93
     RDKit          3D

  0  0  0  0  0  0  0  0  0  0999 V3000
M  V30 BEGIN CTAB
M  V30 COUNTS 84 85 0 0 1
M  V30 BEGIN ATOM
M  V30 1 C 39.522783 30.048703 60.926468 0
M  V30 2 O 39.645525 28.780851 61.538779 0
M  V30 3 C 40.308852 34.942199 62.360087 0
M  V30 4 C 37.976771 25.106010 55.172290 0
M  V30 5 O 36.521471 29.657249 58.927474 0
M  V30 6 C 38.059844 29.956532 54.727357 0
M  V30 7 N 38.688872 31.043379 55.175880 0
M  V30 8 O 36.845138 29.831261 54.779072 0
M  V30 9 O 35.018566 34.137770 58.967788 0
M  V30 10 C 37.188055 24.576659 56.352440 0
M  V30 11 C 39.292377 33.844437 62.044358 0
M  V30 12 C 38.533517 28.339916 58.821877 0
M  V30 13 C 37.381237 31.364377 60.926936 0
M  V30 14 C 38.966666 27.473747 54.921613 0 CFG=1
M  V30 15 C 38.930098 28.847707 54.123489 0 CFG=1
M  V30 16 C 38.522061 35.898973 61.082135 0 CFG=1
M  V30 17 C 37.964070 33.742773 59.869330 0 CFG=1
M  V30 18 C 39.245136 33.370877 59.112371 0
M  V30 19 C 38.179225 27.968149 57.367791 0
M  V30 20 S 35.245226 32.905971 60.104508 0 CHG=1
M  V30 21 O 41.476976 27.737801 57.666449 0
M  V30 22 N 38.184100 30.277704 60.344047 0
M  V30 23 O 35.275993 33.737780 61.581507 0
M  V30 24 O 38.870966 36.561771 63.425075 0
M  V30 25 F 36.445239 36.431297 60.093176 0
M  V30 26 C 36.918969 24.048184 54.968063 0
M  V30 27 C 40.660125 28.315239 56.663390 0
M  V30 28 C 39.349441 27.530794 56.442428 0 CFG=2
M  V30 29 C 37.659357 29.486540 59.367894 0
M  V30 30 C 38.510928 28.746988 52.628315 0
M  V30 31 C 37.619913 38.289800 60.770387 0
M  V30 32 C 37.007200 32.500283 59.924427 0 CFG=2
M  V30 33 O 40.044930 28.583538 50.833965 0
M  V30 34 C 37.768203 26.521738 54.648134 0
M  V30 35 C 37.277751 36.818672 61.052875 0 CFG=2
M  V30 36 C 39.482019 27.962892 51.760974 0
M  V30 37 C 39.517089 36.228751 62.209303 0 CFG=1
M  V30 38 O 39.645119 26.760401 52.039664 0 CHG=-1
M  V30 39 N 38.223083 34.436427 61.184594 0 CFG=1 CHG=1
M  V30 40 H 40.301931 30.176130 60.174166 0
M  V30 41 H 39.752014 30.776985 61.701389 0
M  V30 42 H 40.434189 28.355651 61.231744 0
M  V30 43 H 40.776547 34.826741 63.339089 0
M  V30 44 H 41.107574 34.921133 61.615857 0
M  V30 45 H 38.994856 24.739099 55.050097 0
M  V30 46 H 39.691944 31.111735 55.106328 0
M  V30 47 H 38.151949 31.800495 55.573333 0
M  V30 48 H 34.746009 33.694311 58.174093 0
M  V30 49 H 37.708340 23.925892 57.052615 0
M  V30 50 H 36.418270 25.208425 56.789690 0
M  V30 51 H 38.845149 33.487410 62.967786 0
M  V30 52 H 39.804365 32.990142 61.613017 0
M  V30 53 H 39.566423 28.641748 58.878750 0
M  V30 54 H 38.445282 27.463077 59.463437 0
M  V30 55 H 37.809906 31.746238 61.847920 0
M  V30 56 H 36.465530 30.884778 61.275853 0
M  V30 57 H 39.816904 26.947864 54.489116 0
M  V30 58 H 39.940574 29.256121 54.124104 0
M  V30 59 H 39.080826 36.051215 60.167736 0
M  V30 60 H 37.486806 34.476735 59.224432 0
M  V30 61 H 39.043343 33.192465 58.055242 0
M  V30 62 H 40.014578 34.137780 59.177038 0
M  V30 63 H 39.645129 32.452195 59.517366 0
M  V30 64 H 37.428264 27.181078 57.398096 0
M  V30 65 H 37.658929 28.804901 56.927303 0
M  V30 66 H 41.772445 26.887248 57.367846 0
M  V30 67 H 34.450012 33.548398 62.003651 0
M  V30 68 H 38.559942 35.783228 63.860933 0
M  V30 69 H 36.007472 24.356790 54.466760 0
M  V30 70 H 37.246079 23.033949 54.747552 0
M  V30 71 H 41.258164 28.321350 55.767770 0
M  V30 72 H 40.444850 29.356643 56.894288 0
M  V30 73 H 39.578644 26.504973 56.731997 0
M  V30 74 H 37.511144 28.328193 52.510197 0
M  V30 75 H 38.458465 29.737758 52.194649 0
M  V30 76 H 38.434629 38.652607 61.391600 0
M  V30 77 H 37.920123 38.435672 59.732299 0
M  V30 78 H 36.757854 38.928926 60.966738 0
M  V30 79 H 37.014815 32.097492 58.911922 0
M  V30 80 H 36.845154 26.937029 55.041425 0
M  V30 81 H 37.602613 26.415469 53.577273 0
M  V30 82 H 36.719232 36.745531 61.986565 0
M  V30 83 H 40.167774 37.060746 61.936509 0
M  V30 84 H 37.356606 34.386586 61.707197 0
M  V30 END ATOM
M  V30 BEGIN BOND
M  V30 1 1 2 1
M  V30 2 1 7 6
M  V30 3 2 8 6
M  V30 4 1 10 4
M  V30 5 1 11 3
M  V30 6 1 15 6
M  V30 7 1 15 14
M  V30 8 1 18 17
M  V30 9 1 19 12
M  V30 10 1 20 9
M  V30 11 1 22 1
M  V30 12 1 22 13
M  V30 13 1 23 20
M  V30 14 1 26 4
M  V30 15 1 26 10
M  V30 16 1 27 21
M  V30 17 1 28 14
M  V30 18 1 28 19
M  V30 19 1 28 27
M  V30 20 2 29 5
M  V30 21 1 29 12
M  V30 22 1 29 22
M  V30 23 1 30 15
M  V30 24 1 32 13
M  V30 25 1 32 17
M  V30 26 1 32 20
M  V30 27 1 34 4
M  V30 28 1 34 14
M  V30 29 1 35 16
M  V30 30 1 35 25
M  V30 31 1 35 31
M  V30 32 1 36 30
M  V30 33 2 36 33
M  V30 34 1 37 3
M  V30 35 1 37 16
M  V30 36 1 37 24
M  V30 37 1 38 36
M  V30 38 1 39 11
M  V30 39 1 39 16
M  V30 40 1 39 17
M  V30 41 1 40 1
M  V30 42 1 41 1
M  V30 43 1 42 2
M  V30 44 1 43 3
M  V30 45 1 44 3
M  V30 46 1 45 4
M  V30 47 1 46 7
M  V30 48 1 47 7
M  V30 49 1 48 9
M  V30 50 1 49 10
M  V30 51 1 50 10
M  V30 52 1 51 11
M  V30 53 1 52 11
M  V30 54 1 53 12
M  V30 55 1 54 12
M  V30 56 1 55 13
M  V30 57 1 56 13
M  V30 58 1 14 57 CFG=3
M  V30 59 1 15 58 CFG=3
M  V30 60 1 16 59 CFG=3
M  V30 61 1 17 60 CFG=3
M  V30 62 1 61 18
M  V30 63 1 62 18
M  V30 64 1 63 18
M  V30 65 1 64 19
M  V30 66 1 65 19
M  V30 67 1 66 21
M  V30 68 1 67 23
M  V30 69 1 68 24
M  V30 70 1 69 26
M  V30 71 1 70 26
M  V30 72 1 71 27
M  V30 73 1 72 27
M  V30 74 1 28 73 CFG=1
M  V30 75 1 74 30
M  V30 76 1 75 30
M  V30 77 1 76 31
M  V30 78 1 77 31
M  V30 79 1 78 31
M  V30 80 1 32 79 CFG=3
M  V30 81 1 80 34
M  V30 82 1 81 34
M  V30 83 1 35 82 CFG=1
M  V30 84 1 37 83 CFG=3
M  V30 85 1 39 84 CFG=1
M  V30 END BOND
M  V30 END CTAB
M  END
>  <i_epik_Tot_Q>  (1) 
1

>  <i_epik_Tot_abs_Q>  (1) 
3

>  <i_i_glide_confnum>  (1) 
8347

>  <i_i_glide_lignum>  (1) 
222

>  <i_i_glide_posenum>  (1) 
361

>  <i_i_glide_rotatable_bonds>  (1) 
24

>  <i_lp_mmshare_version>  (1) 
72125

>  <i_m_source_file_index>  (1) 
94

>  <i_f3d_flags>  (1) 
0

>  <num_sample>  (1) 
100

>  <b_lp_Chiralities_Consistent>  (1) 
1

>  <r_epik_Charging_Adjusted_Penalty>  (1) 
0.90916677635763199

>  <r_epik_Ionization_Penalty>  (1) 
0.45507897092921873

>  <r_epik_Ionization_Penalty_Charging>  (1) 
0.45507471778648678

>  <r_epik_Ionization_Penalty_Neutral>  (1) 
4.2531427319391784e-06

>  <r_epik_State_Penalty>  (1) 
0.45409205857114521

>  <r_glide_ring_energy>  (1) 
0

>  <r_i_docking_score>  (1) 
-6.3209447734743298

>  <r_i_glide_ecoul>  (1) 
1.0334975701934948

>  <r_i_glide_eff_state_penalty>  (1) 
0.45409205857114521

>  <r_i_glide_einternal>  (1) 
18.704812147154538

>  <r_i_glide_emodel>  (1) 
-57.641187863331254

>  <r_i_glide_emodel_strain>  (1) 
6.5375496119983865

>  <r_i_glide_energy>  (1) 
-50.961133225933189

>  <r_i_glide_erotb>  (1) 
0.82188833391367333

>  <r_i_glide_esite>  (1) 
-0.0059418153087890087

>  <r_i_glide_evdw>  (1) 
-51.994630796126685

>  <r_i_glide_gscore>  (1) 
-6.7750368320454752

>  <r_i_glide_gscore_strain>  (1) 
0.63438740299959662

>  <r_i_glide_hbond>  (1) 
-0.061378171579447423

>  <r_i_glide_ligand_efficiency>  (1) 
-0.16207550701216231

>  <r_i_glide_ligand_efficiency_ln>  (1) 
-1.3553899901205699

>  <r_i_glide_ligand_efficiency_sa>  (1) 
-0.54963231401196766

>  <r_i_glide_lipo>  (1) 
-4.2027702809252316

>  <r_i_glide_metal>  (1) 
-0

>  <r_i_glide_rewards>  (1) 
-1.516515396867967

>  <r_lp_Energy>  (1) 
31.842893

>  <s_epik_Chemistry_Notes>  (1) 
This compound contains an acetal/aminal-like group ( X-CH(R)-Y where X, Y are N, S, or O) that may be acid/base labile, releasing an aldehyde.

>  <s_epik_cmdline>  (1) 
J2VwaWtfcHl0aG9uJywgJy1waHQnLCAnMS4wJywgJy1waCcsICc3LjQnLCAnLXRuJywgJzgnLCAnLW1hJywgJzUwMCcsICctaW1hZScsICc8aW5maWxlLm1hZT4nLCAnLW9tYWUnLCAnPG91dGZpbGUubWFlPic=

>  <s_epik_input>  (1) 
W0NIMl0xW0NIMl1bQ0hdMVtDSDJdW0NAQEhdKFtDQEBIXShDKD1PKVtOSDJdKVtDSDJdQyg9TylbT0hdKVtDQEBIXShbQ0gyXVtPSF0pW0NIMl1bQ0gyXUMoPU8pTihbQ0gyXVtPSF0pW0NIMl1bQ0BASF0oW1MrXShbT0hdKVtPSF0pW0NASF0oW0NIM10pTjJbQ0gyXVtDSDJdW0NASF0oW09IXSlbQ0BASF0yW0NASF0oRilbQ0gzXQ==

>  <s_glide_docking_method>  (1) 
confgen

>  <s_i_glide_gridfile>  (1) 
gpcr_5ht2c_6bqh_protein_autoprepared_prepared

>  <s_lp_Force_Field>  (1) 
S-OPLS

>  <s_lp_Variant>  (1) 
DiffSBDD_93-10

>  <s_m_source_file>  (1) 
generated_GPCR_5HT2C_ligand_DiffSBDD_2026-06-23_prepared.sdf

>  <GenAI_Model>  (1) 
DiffSBDD

>  <Protein>  (1) 
GPCR_5HT2C

$$$$
DiffSBDD_75
     RDKit          3D

  0  0  0  0  0  0  0  0  0  0999 V3000
M  V30 BEGIN CTAB
M  V30 COUNTS 77 78 0 0 1
M  V30 BEGIN ATOM
M  V30 1 C 38.563333 30.342986 60.165641 0
M  V30 2 C 40.669593 28.590262 61.547857 0
M  V30 3 O 37.418052 33.231242 61.767757 0
M  V30 4 C 38.219056 27.543242 58.352618 0
M  V30 5 C 39.019846 36.307861 62.004341 0 CFG=2
M  V30 6 C 38.665344 30.139887 53.916642 0
M  V30 7 C 38.591217 33.782455 61.204031 0 CFG=2
M  V30 8 C 39.639753 30.769120 53.109552 0
M  V30 9 O 39.644749 38.602313 61.767738 0
M  V30 10 C 36.979551 35.695566 60.489490 0 CFG=1
M  V30 11 O 39.864500 28.362537 50.332276 0
M  V30 12 S 39.758167 31.534910 62.430280 0
M  V30 13 C 37.477607 26.541595 57.450522 0
M  V30 14 C 39.479813 28.939596 51.500403 0
M  V30 15 C 39.843570 33.298898 61.975139 0
M  V30 16 C 38.211929 30.793299 55.210726 0
M  V30 17 C 38.109435 28.905981 53.516367 0
M  V30 18 O 37.641175 37.447621 58.977650 0
M  V30 19 C 36.444240 34.841316 59.314143 0
M  V30 20 C 38.425470 35.316123 60.949605 0 CFG=1
M  V30 21 O 38.135964 25.292751 57.476977 0
M  V30 22 O 40.845059 29.717711 60.696207 0
M  V30 23 O 38.442873 32.216543 57.902267 0
M  V30 24 C 36.349930 29.238000 58.644186 0
M  V30 25 N 37.739078 28.944320 58.196967 0 CFG=1 CHG=1
M  V30 26 C 38.781193 31.058695 57.668774 0
M  V30 27 C 40.044682 30.169238 51.899277 0
M  V30 28 C 39.290924 30.663634 56.285376 0
M  V30 29 C 38.749133 29.913543 58.687900 0 CFG=1
M  V30 30 C 38.515344 28.308451 52.309233 0
M  V30 31 C 37.348097 38.126033 61.238327 0
M  V30 32 C 39.893954 30.767172 60.795232 0 CFG=1
M  V30 33 C 38.502554 36.208984 63.412037 0
M  V30 34 C 36.868073 37.190040 60.130640 0 CFG=2
M  V30 35 C 38.760155 37.755289 61.675603 0
M  V30 36 H 37.807831 31.121663 60.250277 0
M  V30 37 H 38.184638 29.511105 60.740054 0
M  V30 38 H 41.416375 27.839310 61.287696 0
M  V30 39 H 40.820122 28.855608 62.596077 0
M  V30 40 H 39.690257 28.125193 61.440157 0
M  V30 41 H 36.682839 33.508722 61.243210 0
M  V30 42 H 39.273991 27.497269 58.067546 0
M  V30 43 H 38.208941 27.237286 59.395120 0
M  V30 44 H 38.660067 33.326252 60.218704 0
M  V30 45 H 40.059812 31.717268 53.414186 0
M  V30 46 H 37.309760 39.167703 60.914524 0
M  V30 47 H 36.312037 35.535474 61.333414 0
M  V30 48 H 39.401850 27.557653 50.147772 0
M  V30 49 H 36.446977 26.391322 57.767564 0
M  V30 50 H 37.456679 26.897428 56.419292 0
M  V30 51 H 39.989323 33.823516 62.908500 0
M  V30 52 H 40.742192 33.490778 61.391964 0
M  V30 53 H 37.998543 31.848336 55.027998 0
M  V30 54 H 37.266324 30.360655 55.544878 0
M  V30 55 H 37.368126 28.421288 54.132113 0
M  V30 56 H 37.958845 38.337127 59.004657 0
M  V30 57 H 37.129605 34.870098 58.466172 0
M  V30 58 H 36.294730 33.792044 59.561471 0
M  V30 59 H 35.480839 35.211179 58.960825 0
M  V30 60 H 39.075715 35.485340 60.098862 0
M  V30 61 H 37.968912 24.861940 58.302297 0
M  V30 62 H 36.239987 29.338535 59.719872 0
M  V30 63 H 36.004993 30.164447 58.200182 0
M  V30 64 H 35.646694 28.474520 58.346954 0
M  V30 65 H 40.779418 30.654192 51.274990 0
M  V30 66 H 39.627861 29.626523 56.319867 0
M  V30 67 H 40.154662 31.269302 56.019472 0
M  V30 68 H 39.727017 29.435714 58.613425 0
M  V30 69 H 38.081970 27.366191 52.000103 0
M  V30 70 H 36.683925 38.045168 62.097061 0
M  V30 71 H 40.102900 36.176664 62.020255 0
M  V30 72 H 40.279690 31.559545 60.167760 0
M  V30 73 H 38.836451 37.029125 64.055052 0
M  V30 74 H 37.416157 36.138038 63.472936 0
M  V30 75 H 38.984027 35.337960 63.768806 0
M  V30 76 H 35.824044 37.425278 59.923837 0
M  V30 77 H 37.721284 29.085173 57.197278 0
M  V30 END ATOM
M  V30 BEGIN BOND
M  V30 1 1 7 3
M  V30 2 1 8 6
M  V30 3 1 13 4
M  V30 4 1 14 11
M  V30 5 1 15 7
M  V30 6 1 15 12
M  V30 7 1 16 6
M  V30 8 2 17 6
M  V30 9 1 19 10
M  V30 10 1 20 5
M  V30 11 1 20 7
M  V30 12 1 20 10
M  V30 13 1 21 13
M  V30 14 1 22 2
M  V30 15 1 25 4
M  V30 16 1 25 24
M  V30 17 2 26 23
M  V30 18 2 27 8
M  V30 19 1 27 14
M  V30 20 1 28 16
M  V30 21 1 28 26
M  V30 22 1 29 1
M  V30 23 1 29 25
M  V30 24 1 29 26
M  V30 25 2 30 14
M  V30 26 1 30 17
M  V30 27 1 32 1
M  V30 28 1 32 12
M  V30 29 1 32 22
M  V30 30 1 33 5
M  V30 31 1 34 10
M  V30 32 1 34 18
M  V30 33 1 34 31
M  V30 34 1 35 5
M  V30 35 2 35 9
M  V30 36 1 35 31
M  V30 37 1 36 1
M  V30 38 1 37 1
M  V30 39 1 38 2
M  V30 40 1 39 2
M  V30 41 1 40 2
M  V30 42 1 41 3
M  V30 43 1 42 4
M  V30 44 1 43 4
M  V30 45 1 7 44 CFG=3
M  V30 46 1 45 8
M  V30 47 1 46 31
M  V30 48 1 10 47 CFG=1
M  V30 49 1 48 11
M  V30 50 1 49 13
M  V30 51 1 50 13
M  V30 52 1 51 15
M  V30 53 1 52 15
M  V30 54 1 53 16
M  V30 55 1 54 16
M  V30 56 1 55 17
M  V30 57 1 56 18
M  V30 58 1 57 19
M  V30 59 1 58 19
M  V30 60 1 59 19
M  V30 61 1 20 60 CFG=3
M  V30 62 1 61 21
M  V30 63 1 62 24
M  V30 64 1 63 24
M  V30 65 1 64 24
M  V30 66 1 65 27
M  V30 67 1 66 28
M  V30 68 1 67 28
M  V30 69 1 29 68 CFG=1
M  V30 70 1 69 30
M  V30 71 1 70 31
M  V30 72 1 5 71 CFG=1
M  V30 73 1 32 72 CFG=3
M  V30 74 1 73 33
M  V30 75 1 74 33
M  V30 76 1 75 33
M  V30 77 1 34 76 CFG=3
M  V30 78 1 25 77 CFG=3
M  V30 END BOND
M  V30 END CTAB
M  END
>  <i_epik_Tot_Q>  (1) 
1

>  <i_epik_Tot_abs_Q>  (1) 
1

>  <i_i_glide_confnum>  (1) 
1578

>  <i_i_glide_lignum>  (1) 
171

>  <i_i_glide_posenum>  (1) 
320

>  <i_i_glide_rotatable_bonds>  (1) 
18

>  <i_lp_mmshare_version>  (1) 
72125

>  <i_m_source_file_index>  (1) 
76

>  <i_f3d_flags>  (1) 
0

>  <num_sample>  (1) 
100

>  <b_lp_Chiralities_Consistent>  (1) 
1

>  <r_epik_Charging_Adjusted_Penalty>  (1) 
0.52789471212939676

>  <r_epik_Ionization_Penalty>  (1) 
0.26592108790513191

>  <r_epik_Ionization_Penalty_Charging>  (1) 
0.26394735606469838

>  <r_epik_Ionization_Penalty_Neutral>  (1) 
0.0019737318404335234

>  <r_epik_State_Penalty>  (1) 
0.26394735606469838

>  <r_glide_ring_energy>  (1) 
0

>  <r_i_docking_score>  (1) 
-6.3169670534322817

>  <r_i_glide_ecoul>  (1) 
-5.0772596826715057

>  <r_i_glide_eff_state_penalty>  (1) 
0.26394735606469838

>  <r_i_glide_einternal>  (1) 
16.211083841810765

>  <r_i_glide_emodel>  (1) 
-50.038453763172285

>  <r_i_glide_emodel_strain>  (1) 
3.5920668574641823

>  <r_i_glide_energy>  (1) 
-35.903530038146556

>  <r_i_glide_erotb>  (1) 
1.0139394581015995

>  <r_i_glide_esite>  (1) 
-0.043231548131054308

>  <r_i_glide_evdw>  (1) 
-30.826270355475053

>  <r_i_glide_gscore>  (1) 
-6.5809144094969803

>  <r_i_glide_gscore_strain>  (1) 
0

>  <r_i_glide_hbond>  (1) 
-0.3023100722112953

>  <r_i_glide_ligand_efficiency>  (1) 
-0.18048477295520804

>  <r_i_glide_ligand_efficiency_ln>  (1) 
-1.3867144657584938

>  <r_i_glide_ligand_efficiency_sa>  (1) 
-0.59037766031581784

>  <r_i_glide_lipo>  (1) 
-4.1766713889670699

>  <r_i_glide_metal>  (1) 
-0

>  <r_i_glide_rewards>  (1) 
-0.76973838811468231

>  <r_lp_Energy>  (1) 
30.750938999999999

>  <r_lp_tautomer_probability>  (1) 
0.99989998499911525

>  <s_epik_Chemistry_Notes>  (1) 
This compound contains an acetal/aminal-like group ( X-CH(R)-Y where X, Y are N, S, or O) that may be acid/base labile, releasing an aldehyde.

>  <s_epik_cmdline>  (1) 
J2VwaWtfcHl0aG9uJywgJy1waHQnLCAnMS4wJywgJy1waCcsICc3LjQnLCAnLXRuJywgJzgnLCAnLW1hJywgJzUwMCcsICctaW1hZScsICc8aW5maWxlLm1hZT4nLCAnLW9tYWUnLCAnPG91dGZpbGUubWFlPic=

>  <s_epik_input>  (1) 
W2NIXTFbY0hdYyhbT0hdKVtjSF1bY0hdYzFbQ0gyXVtDSDJdQyg9TylbQ0BIXShOKFtDSDNdKVtDSDJdW0NIMl1bT0hdKVtDSDJdW0NASF0oT1tDSDNdKVNbQ0gyXVtDQEBIXShbT0hdKVtDQEhdMltDQEBIXShbQ0gzXSlbQ0BIXShbT0hdKVtDSDJdQyhbT0hdKT1DMltDSDNd

>  <s_glide_docking_method>  (1) 
confgen

>  <s_i_glide_gridfile>  (1) 
gpcr_5ht2c_6bqh_protein_autoprepared_prepared

>  <s_lp_Force_Field>  (1) 
S-OPLS

>  <s_lp_Variant>  (1) 
DiffSBDD_75-8

>  <s_m_source_file>  (1) 
generated_GPCR_5HT2C_ligand_DiffSBDD_2026-06-23_prepared.sdf

>  <GenAI_Model>  (1) 
DiffSBDD

>  <Protein>  (1) 
GPCR_5HT2C

$$$$
DiffSBDD_26
     RDKit          3D

  0  0  0  0  0  0  0  0  0  0999 V3000
M  V30 BEGIN CTAB
M  V30 COUNTS 63 67 0 0 1
M  V30 BEGIN ATOM
M  V30 1 C 36.645110 31.029855 59.027119 0 CFG=1
M  V30 2 C 38.151063 27.315742 57.149635 0
M  V30 3 O 38.532812 25.737799 58.890958 0
M  V30 4 C 40.154368 29.551050 51.167526 0
M  V30 5 N 38.471681 32.525041 61.217550 0
M  V30 6 C 38.047066 28.507946 57.843281 0
M  V30 7 C 37.869327 28.332543 55.008412 0
M  V30 8 C 37.772784 29.612845 55.638236 0
M  V30 9 C 37.881553 33.098250 60.003744 0 CFG=1
M  V30 10 C 38.367997 25.991041 57.714440 0
M  V30 11 O 40.816004 35.641095 61.416150 0
M  V30 12 O 36.992521 30.168537 60.084034 0
M  V30 13 C 40.381799 32.566915 63.585491 0
M  V30 14 C 40.031464 33.652759 62.548091 0 CFG=1
M  V30 15 C 41.648415 35.397344 63.590561 0
M  V30 16 C 38.965966 31.605516 58.245403 0
M  V30 17 N 38.887104 31.182525 54.078652 0
M  V30 18 C 38.754955 29.073465 52.795952 0
M  V30 19 C 41.202337 34.635320 62.328578 0 CFG=2
M  V30 20 C 39.245129 30.323554 53.018334 0
M  V30 21 C 37.823243 29.696638 57.093499 0
M  V30 22 O 38.045099 25.337820 54.357379 0
M  V30 23 C 38.819810 33.038576 58.779056 0
M  V30 24 C 37.637414 30.857168 54.773730 0
M  V30 25 C 38.045438 27.218200 55.845645 0
M  V30 26 C 36.516135 32.433396 59.674885 0
M  V30 27 C 40.137983 30.646738 51.985144 0
M  V30 28 N 38.348936 25.128545 56.650967 0
M  V30 29 O 40.570614 36.137732 64.128056 0
M  V30 30 C 37.646080 31.035951 57.829606 0 CFG=1
M  V30 31 C 38.145873 25.799085 55.473376 0
M  V30 32 O 39.318871 28.562842 51.651855 0
M  V30 33 C 37.773393 28.204720 53.490028 0
M  V30 34 O 39.830654 33.012184 61.295520 0
M  V30 35 H 35.677000 30.669450 58.678905 0
M  V30 36 H 40.667395 29.311067 50.248701 0
M  V30 37 H 38.004437 32.884762 62.036431 0
M  V30 38 H 38.126585 28.524150 58.915502 0
M  V30 39 H 37.701756 34.149463 60.230560 0
M  V30 40 H 40.200470 36.193783 61.875496 0
M  V30 41 H 36.223407 30.038499 60.613621 0
M  V30 42 H 40.456548 32.983243 64.589824 0
M  V30 43 H 39.636439 31.775357 63.617816 0
M  V30 44 H 41.335416 32.091709 63.350084 0
M  V30 45 H 39.148311 34.214533 62.858141 0
M  V30 46 H 42.447534 36.097279 63.347559 0
M  V30 47 H 42.048722 34.722396 64.346882 0
M  V30 48 H 39.633794 31.603727 57.377675 0
M  V30 49 H 39.366280 30.937803 59.010617 0
M  V30 50 H 39.168190 32.150903 54.040223 0
M  V30 51 H 42.045137 34.087859 61.905860 0
M  V30 52 H 38.400164 33.668459 57.991754 0
M  V30 53 H 39.792115 33.478546 58.990065 0
M  V30 54 H 36.845137 30.670015 54.058661 0
M  V30 55 H 37.296837 31.756927 55.268611 0
M  V30 56 H 35.875015 32.397779 60.556046 0
M  V30 57 H 35.992327 33.077738 58.967769 0
M  V30 58 H 40.692042 31.560915 51.841217 0
M  V30 59 H 38.463502 24.131160 56.725321 0
M  V30 60 H 40.942944 36.895286 64.567527 0
M  V30 61 H 37.245187 31.788856 57.175765 0
M  V30 62 H 37.871593 27.208043 53.084537 0
M  V30 63 H 36.770489 28.515021 53.198788 0
M  V30 END ATOM
M  V30 BEGIN BOND
M  V30 1 2 6 2
M  V30 2 1 8 7
M  V30 3 1 9 5
M  V30 4 1 10 2
M  V30 5 2 10 3
M  V30 6 1 12 1
M  V30 7 1 14 13
M  V30 8 1 19 11
M  V30 9 1 19 14
M  V30 10 1 19 15
M  V30 11 1 20 17
M  V30 12 2 20 18
M  V30 13 1 21 6
M  V30 14 2 21 8
M  V30 15 1 23 9
M  V30 16 1 23 16
M  V30 17 1 24 8
M  V30 18 1 24 17
M  V30 19 1 25 2
M  V30 20 2 25 7
M  V30 21 1 26 1
M  V30 22 1 26 9
M  V30 23 2 27 4
M  V30 24 1 27 20
M  V30 25 1 28 10
M  V30 26 1 29 15
M  V30 27 1 30 1
M  V30 28 1 30 16
M  V30 29 1 30 21
M  V30 30 2 31 22
M  V30 31 1 31 25
M  V30 32 1 31 28
M  V30 33 1 32 4
M  V30 34 1 32 18
M  V30 35 1 33 7
M  V30 36 1 33 18
M  V30 37 1 34 5
M  V30 38 1 34 14
M  V30 39 1 1 35 CFG=3
M  V30 40 1 36 4
M  V30 41 1 37 5
M  V30 42 1 38 6
M  V30 43 1 9 39 CFG=1
M  V30 44 1 40 11
M  V30 45 1 41 12
M  V30 46 1 42 13
M  V30 47 1 43 13
M  V30 48 1 44 13
M  V30 49 1 14 45 CFG=1
M  V30 50 1 46 15
M  V30 51 1 47 15
M  V30 52 1 48 16
M  V30 53 1 49 16
M  V30 54 1 50 17
M  V30 55 1 19 51 CFG=3
M  V30 56 1 52 23
M  V30 57 1 53 23
M  V30 58 1 54 24
M  V30 59 1 55 24
M  V30 60 1 56 26
M  V30 61 1 57 26
M  V30 62 1 58 27
M  V30 63 1 59 28
M  V30 64 1 60 29
M  V30 65 1 30 61 CFG=3
M  V30 66 1 62 33
M  V30 67 1 63 33
M  V30 END BOND
M  V30 END CTAB
M  END
>  <i_epik_Tot_Q>  (1) 
0

>  <i_epik_Tot_abs_Q>  (1) 
0

>  <i_i_glide_confnum>  (1) 
129

>  <i_i_glide_lignum>  (1) 
67

>  <i_i_glide_posenum>  (1) 
346

>  <i_i_glide_rotatable_bonds>  (1) 
9

>  <i_lp_mmshare_version>  (1) 
72125

>  <i_m_source_file_index>  (1) 
27

>  <i_f3d_flags>  (1) 
0

>  <num_sample>  (1) 
100

>  <b_lp_Chiralities_Consistent>  (1) 
1

>  <r_epik_Charging_Adjusted_Penalty>  (1) 
0.011663948100313749

>  <r_epik_Ionization_Penalty>  (1) 
0.013971723249614831

>  <r_epik_Ionization_Penalty_Charging>  (1) 
0

>  <r_epik_Ionization_Penalty_Neutral>  (1) 
0.013971723249614831

>  <r_epik_State_Penalty>  (1) 
0.011663948100313749

>  <r_glide_ring_energy>  (1) 
1.4878355022131675

>  <r_i_docking_score>  (1) 
-6.3148254261212973

>  <r_i_glide_ecoul>  (1) 
-5.6098166063611048

>  <r_i_glide_eff_state_penalty>  (1) 
0.011663948100313749

>  <r_i_glide_einternal>  (1) 
19.157757313781225

>  <r_i_glide_emodel>  (1) 
-40.223325347382072

>  <r_i_glide_emodel_strain>  (1) 
0.6546271360531648

>  <r_i_glide_energy>  (1) 
-38.252875615692481

>  <r_i_glide_erotb>  (1) 
0.54550006929946782

>  <r_i_glide_esite>  (1) 
0

>  <r_i_glide_evdw>  (1) 
-32.643059009331374

>  <r_i_glide_gscore>  (1) 
-6.3264893742216106

>  <r_i_glide_gscore_strain>  (1) 
0

>  <r_i_glide_hbond>  (1) 
-0.32000000000000001

>  <r_i_glide_ligand_efficiency>  (1) 
-0.18573015959180286

>  <r_i_glide_ligand_efficiency_ln>  (1) 
-1.3951220614837787

>  <r_i_glide_ligand_efficiency_sa>  (1) 
-0.60169361686675504

>  <r_i_glide_lipo>  (1) 
-2.5269071267996464

>  <r_i_glide_metal>  (1) 
-0

>  <r_i_glide_rewards>  (1) 
-1.5514568753006974

>  <r_lp_Energy>  (1) 
55.099730999999998

>  <r_lp_tautomer_probability>  (1) 
0.99894395353395549

>  <s_epik_Chemistry_Notes>  (1) 
This compound has a N-S or N-O group and may undergo hydrolysis at high or low pH.

>  <s_epik_cmdline>  (1) 
J2VwaWtfcHl0aG9uJywgJy1waHQnLCAnMS4wJywgJy1waCcsICc3LjQnLCAnLXRuJywgJzgnLCAnLW1hJywgJzUwMCcsICctaW1hZScsICc8aW5maWxlLm1hZT4nLCAnLW9tYWUnLCAnPG91dGZpbGUubWFlPic=

>  <s_epik_input>  (1) 
W09IXVtDSDJdW0NASF0oW09IXSlbQ0BIXShbQ0gzXSlPW05IXVtDQEhdKFtDSDJdW0NAQEhdMVtPSF0pW0NIMl1bQ0gyXVtDQEhdMWMoW2NIXTIpYyhjM2MoYzI0KUMoPU8pW05IXUM0PU8pW0NIMl1bTkhdYzVjKFtDSDJdMylvW2NIXVtjSF01

>  <s_glide_docking_method>  (1) 
confgen

>  <s_i_glide_gridfile>  (1) 
gpcr_5ht2c_6bqh_protein_autoprepared_prepared

>  <s_lp_Force_Field>  (1) 
S-OPLS

>  <s_lp_Variant>  (1) 
DiffSBDD_26-1

>  <s_m_source_file>  (1) 
generated_GPCR_5HT2C_ligand_DiffSBDD_2026-06-23_prepared.sdf

>  <GenAI_Model>  (1) 
DiffSBDD

>  <Protein>  (1) 
GPCR_5HT2C

$$$$
DiffSBDD_67
     RDKit          3D

  0  0  0  0  0  0  0  0  0  0999 V3000
M  V30 BEGIN CTAB
M  V30 COUNTS 77 78 0 0 1
M  V30 BEGIN ATOM
M  V30 1 C 38.267557 32.062415 58.489408 0
M  V30 2 O 36.845149 27.342065 53.377212 0
M  V30 3 O 37.760827 26.250703 57.765305 0 CHG=-1
M  V30 4 C 37.904866 32.099383 59.972531 0 CFG=1
M  V30 5 O 36.351420 30.937764 61.367756 0
M  V30 6 C 37.727236 28.155682 53.146981 0
M  V30 7 C 38.316858 33.398724 60.784779 0 CFG=1
M  V30 8 C 38.044585 33.190334 57.669066 0
M  V30 9 C 35.391369 31.752043 59.367859 0
M  V30 10 C 37.010817 34.052560 61.359309 0
M  V30 11 N 37.293238 37.792729 61.294244 0 CFG=2 CHG=1
M  V30 12 C 39.892455 29.630759 55.996939 0
M  V30 13 C 37.809626 39.965196 60.967759 0
M  V30 14 C 41.040109 34.016758 63.722288 0
M  V30 15 C 38.405980 33.154380 56.307565 0
M  V30 16 C 40.558342 32.184924 61.317096 0
M  V30 17 C 40.141252 34.354273 62.515220 0
M  V30 18 C 39.217439 30.867559 56.575809 0
M  V30 19 C 38.989019 28.588098 55.322117 0 CFG=2
M  V30 20 C 36.076313 38.558096 61.672660 0
M  V30 21 C 38.248483 38.620166 60.562722 0
M  V30 22 C 36.445124 40.037668 61.603283 0
M  V30 23 C 40.874924 35.280172 61.522269 0
M  V30 24 O 39.628179 26.237166 56.632307 0
M  V30 25 O 38.530558 40.937739 60.853559 0
M  V30 26 C 36.974581 35.496465 61.811256 0
M  V30 27 C 37.073323 36.486840 60.674991 0
M  V30 28 C 38.529658 26.759691 56.924010 0
M  V30 29 C 38.455134 28.175622 51.810359 0
M  V30 30 C 38.140500 29.193689 54.186432 0
M  V30 31 C 39.445177 33.107329 61.866325 0 CFG=1
M  V30 32 C 38.845104 30.896395 57.936078 0
M  V30 33 N 38.160040 27.902046 56.319963 0
M  V30 34 C 36.528883 31.522227 60.324433 0
M  V30 35 C 38.993261 31.997430 55.762197 0
M  V30 36 H 38.503045 31.286190 60.364846 0
M  V30 37 H 38.741789 34.092255 60.063263 0
M  V30 38 H 37.596116 34.082656 58.080878 0
M  V30 39 H 35.380706 30.937739 58.641249 0
M  V30 40 H 34.439332 31.738478 59.896779 0
M  V30 41 H 35.496328 32.730245 58.901758 0
M  V30 42 H 36.236782 34.045550 60.592027 0
M  V30 43 H 36.624223 33.439315 62.167752 0
M  V30 44 H 40.637833 29.962942 55.274197 0
M  V30 45 H 40.452410 29.144328 56.795545 0
M  V30 46 H 42.002187 33.595702 63.434627 0
M  V30 47 H 41.257382 34.916406 64.298779 0
M  V30 48 H 40.549274 33.314541 64.396188 0
M  V30 49 H 38.233905 34.017542 55.681293 0
M  V30 50 H 40.845122 32.537761 60.335064 0
M  V30 51 H 41.456503 32.165816 61.926767 0
M  V30 52 H 40.265384 31.140327 61.244040 0
M  V30 53 H 39.392275 34.947811 62.999973 0
M  V30 54 H 39.659200 27.864147 54.857149 0
M  V30 55 H 35.254088 38.358641 60.984087 0
M  V30 56 H 35.751601 38.275613 62.674547 0
M  V30 57 H 39.244969 38.436388 60.967790 0
M  V30 58 H 38.183883 38.510179 59.479649 0
M  V30 59 H 36.464347 40.524429 62.578190 0
M  V30 60 H 35.741031 40.537756 60.967687 0
M  V30 61 H 41.731783 34.788303 61.068248 0
M  V30 62 H 40.226834 35.624164 60.718591 0
M  V30 63 H 41.255755 36.168196 62.027653 0
M  V30 64 H 36.045138 35.654872 62.346105 0
M  V30 65 H 37.697138 35.738148 62.567938 0
M  V30 66 H 37.925346 36.232635 60.043275 0
M  V30 67 H 36.194651 36.480703 60.027977 0
M  V30 68 H 39.532956 28.145735 51.961745 0
M  V30 69 H 38.163098 27.312903 51.210747 0
M  V30 70 H 38.205870 29.080217 51.259501 0
M  V30 71 H 37.254346 29.686961 54.587246 0
M  V30 72 H 38.715616 29.957834 53.664684 0
M  V30 73 H 38.962105 32.558892 62.676974 0
M  V30 74 H 39.023010 30.030549 58.559422 0
M  V30 75 H 37.276252 28.318989 56.566644 0
M  V30 76 H 39.277195 31.978630 54.721385 0
M  V30 77 H 37.764976 37.604843 62.167202 0
M  V30 END ATOM
M  V30 BEGIN BOND
M  V30 1 1 4 1
M  V30 2 2 6 2
M  V30 3 1 7 4
M  V30 4 2 8 1
M  V30 5 1 10 7
M  V30 6 1 15 8
M  V30 7 1 17 14
M  V30 8 1 18 12
M  V30 9 1 19 12
M  V30 10 1 20 11
M  V30 11 1 21 11
M  V30 12 1 21 13
M  V30 13 1 22 13
M  V30 14 1 22 20
M  V30 15 1 23 17
M  V30 16 2 25 13
M  V30 17 1 26 10
M  V30 18 1 27 11
M  V30 19 1 27 26
M  V30 20 1 28 3
M  V30 21 2 28 24
M  V30 22 1 29 6
M  V30 23 1 30 6
M  V30 24 1 30 19
M  V30 25 1 31 7
M  V30 26 1 31 16
M  V30 27 1 31 17
M  V30 28 1 32 1
M  V30 29 2 32 18
M  V30 30 1 33 19
M  V30 31 1 33 28
M  V30 32 1 34 4
M  V30 33 2 34 5
M  V30 34 1 34 9
M  V30 35 2 35 15
M  V30 36 1 35 18
M  V30 37 1 4 36 CFG=1
M  V30 38 1 7 37 CFG=3
M  V30 39 1 38 8
M  V30 40 1 39 9
M  V30 41 1 40 9
M  V30 42 1 41 9
M  V30 43 1 42 10
M  V30 44 1 43 10
M  V30 45 1 44 12
M  V30 46 1 45 12
M  V30 47 1 46 14
M  V30 48 1 47 14
M  V30 49 1 48 14
M  V30 50 1 49 15
M  V30 51 1 50 16
M  V30 52 1 51 16
M  V30 53 1 52 16
M  V30 54 1 53 17
M  V30 55 1 19 54 CFG=3
M  V30 56 1 55 20
M  V30 57 1 56 20
M  V30 58 1 57 21
M  V30 59 1 58 21
M  V30 60 1 59 22
M  V30 61 1 60 22
M  V30 62 1 61 23
M  V30 63 1 62 23
M  V30 64 1 63 23
M  V30 65 1 64 26
M  V30 66 1 65 26
M  V30 67 1 66 27
M  V30 68 1 67 27
M  V30 69 1 68 29
M  V30 70 1 69 29
M  V30 71 1 70 29
M  V30 72 1 71 30
M  V30 73 1 72 30
M  V30 74 1 31 73 CFG=1
M  V30 75 1 74 32
M  V30 76 1 75 33
M  V30 77 1 76 35
M  V30 78 1 11 77 CFG=1
M  V30 END BOND
M  V30 END CTAB
M  END
>  <i_epik_Tot_Q>  (1) 
0

>  <i_epik_Tot_abs_Q>  (1) 
2

>  <i_i_glide_confnum>  (1) 
1048

>  <i_i_glide_lignum>  (1) 
149

>  <i_i_glide_posenum>  (1) 
112

>  <i_i_glide_rotatable_bonds>  (1) 
15

>  <i_lp_mmshare_version>  (1) 
72125

>  <i_m_source_file_index>  (1) 
68

>  <i_f3d_flags>  (1) 
0

>  <num_sample>  (1) 
100

>  <b_lp_Chiralities_Consistent>  (1) 
1

>  <r_epik_Charging_Adjusted_Penalty>  (1) 
0.5296149838886226

>  <r_epik_Ionization_Penalty>  (1) 
0.26529925199373078

>  <r_epik_Ionization_Penalty_Charging>  (1) 
0.26525061984488274

>  <r_epik_Ionization_Penalty_Neutral>  (1) 
4.8632148848023016e-05

>  <r_epik_State_Penalty>  (1) 
0.26436436404373981

>  <r_glide_ring_energy>  (1) 
0

>  <r_i_docking_score>  (1) 
-6.3118528108600476

>  <r_i_glide_ecoul>  (1) 
-7.0573076444250491

>  <r_i_glide_eff_state_penalty>  (1) 
0.26436436404373981

>  <r_i_glide_einternal>  (1) 
28.872005081528179

>  <r_i_glide_emodel>  (1) 
-40.655649845586574

>  <r_i_glide_emodel_strain>  (1) 
1.2707817618798671

>  <r_i_glide_energy>  (1) 
-34.425868756548688

>  <r_i_glide_erotb>  (1) 
0.8581402996549512

>  <r_i_glide_esite>  (1) 
-0.081322238206969766

>  <r_i_glide_evdw>  (1) 
-27.368561112123636

>  <r_i_glide_gscore>  (1) 
-6.5762171749037872

>  <r_i_glide_gscore_strain>  (1) 
0

>  <r_i_glide_hbond>  (1) 
-0.74061174822097753

>  <r_i_glide_ligand_efficiency>  (1) 
-0.18033865173885849

>  <r_i_glide_ligand_efficiency_ln>  (1) 
-1.3855917760093899

>  <r_i_glide_ligand_efficiency_sa>  (1) 
-0.58989968812781302

>  <r_i_glide_lipo>  (1) 
-2.6066076400914926

>  <r_i_glide_metal>  (1) 
-0

>  <r_i_glide_rewards>  (1) 
-1.5787916457693594

>  <r_lp_Energy>  (1) 
28.989404

>  <r_lp_tautomer_probability>  (1) 
0.99994994000300153

>  <s_epik_cmdline>  (1) 
J2VwaWtfcHl0aG9uJywgJy1waHQnLCAnMS4wJywgJy1waCcsICc3LjQnLCAnLXRuJywgJzgnLCAnLW1hJywgJzUwMCcsICctaW1hZScsICc8aW5maWxlLm1hZT4nLCAnLW9tYWUnLCAnPG91dGZpbGUubWFlPic=

>  <s_epik_input>  (1) 
Tz1DKFtDSDNdKVtDSDJdW0NASF0oW05IXUMoPU8pW09IXSlbQ0gyXWMoW2NIXTEpW2NIXVtjSF1bY0hdYzFbQ0BIXShDKD1PKVtDSDNdKVtDQEhdKFtDQEBIXShbQ0gzXSlbQ0hdKFtDSDNdKVtDSDNdKVtDSDJdW0NIMl1bQ0gyXU4yW0NIMl1bQ0gyXUMoPU8pW0NIMl0y

>  <s_glide_docking_method>  (1) 
confgen

>  <s_i_glide_gridfile>  (1) 
gpcr_5ht2c_6bqh_protein_autoprepared_prepared

>  <s_lp_Force_Field>  (1) 
S-OPLS

>  <s_lp_Variant>  (1) 
DiffSBDD_67-1

>  <s_m_source_file>  (1) 
generated_GPCR_5HT2C_ligand_DiffSBDD_2026-06-23_prepared.sdf

>  <GenAI_Model>  (1) 
DiffSBDD

>  <Protein>  (1) 
GPCR_5HT2C

$$$$
DiffSBDD_93
     RDKit          3D

  0  0  0  0  0  0  0  0  0  0999 V3000
M  V30 BEGIN CTAB
M  V30 COUNTS 83 84 0 0 1
M  V30 BEGIN ATOM
M  V30 1 C 37.517205 30.127813 58.745310 0
M  V30 2 O 36.417901 29.702327 58.007746 0
M  V30 3 C 38.506602 26.959777 52.141052 0
M  V30 4 C 36.869488 36.408652 61.161960 0
M  V30 5 O 39.244166 32.695506 56.851428 0
M  V30 6 C 40.844189 36.123413 62.748014 0
M  V30 7 N 40.069430 37.203343 62.658972 0
M  V30 8 O 41.936222 36.137758 63.305164 0
M  V30 9 O 39.012397 27.207368 58.474318 0
M  V30 10 C 36.452819 37.741616 61.750505 0
M  V30 11 C 38.131808 27.504454 53.501146 0
M  V30 12 C 37.274473 32.946817 58.203092 0
M  V30 13 C 39.582551 29.948546 57.343834 0
M  V30 14 C 39.020707 34.926243 61.236891 0 CFG=1
M  V30 15 C 40.317219 34.821165 62.132398 0 CFG=2
M  V30 16 C 38.942689 29.290844 52.371654 0 CFG=1
M  V30 17 C 38.720839 29.477554 54.886370 0 CFG=1
M  V30 18 C 37.295109 30.077114 54.912379 0
M  V30 19 C 37.603343 33.945367 59.323880 0
M  V30 20 S 38.444984 27.366173 56.882837 0 CHG=1
M  V30 21 O 37.622924 32.104569 61.734728 0
M  V30 22 N 38.493878 30.794976 57.872712 0
M  V30 23 O 39.374253 26.110576 56.207398 0
M  V30 24 O 40.043854 27.915987 50.569303 0
M  V30 25 F 40.045012 31.294416 52.913938 0
M  V30 26 C 37.429163 37.697233 60.609242 0
M  V30 27 C 38.782315 32.325990 60.956623 0
M  V30 28 C 38.812300 33.712092 60.270016 0 CFG=2
M  V30 29 C 38.428167 32.133210 57.582242 0
M  V30 30 C 40.373650 33.754373 63.282252 0
M  V30 31 C 39.934102 30.971576 50.621194 0
M  V30 32 C 39.255626 28.892407 56.245285 0 CFG=2
M  V30 33 O 42.010463 32.333619 64.280924 0
M  V30 34 C 37.723223 35.418149 61.954799 0
M  V30 35 C 40.018575 30.321399 52.017025 0 CFG=2
M  V30 36 C 41.583838 32.795609 63.201819 0
M  V30 37 C 38.872593 28.169038 51.321596 0 CFG=1
M  V30 38 O 42.045424 32.541603 62.064761 0 CHG=-1
M  V30 39 N 39.011506 28.639500 53.691356 0
M  V30 40 H 37.969541 29.281454 59.250658 0
M  V30 41 H 37.124591 30.715057 59.568647 0
M  V30 42 H 35.976515 30.469782 57.630163 0
M  V30 43 H 39.324592 26.241939 52.208315 0
M  V30 44 H 37.645246 26.537857 51.677140 0
M  V30 45 H 36.103120 35.935398 60.551045 0
M  V30 46 H 39.174285 37.145240 62.195454 0
M  V30 47 H 40.379362 38.073129 63.068721 0
M  V30 48 H 38.244497 27.085055 59.012087 0
M  V30 49 H 35.465127 38.137851 61.523441 0
M  V30 50 H 36.838352 37.995958 62.734332 0
M  V30 51 H 38.227766 26.731438 54.248663 0
M  V30 52 H 37.087523 27.818717 53.480297 0
M  V30 53 H 36.846298 33.521816 57.382466 0
M  V30 54 H 36.444960 32.354547 58.567847 0
M  V30 55 H 40.111036 29.493910 58.181978 0
M  V30 56 H 40.311332 30.591627 56.876491 0
M  V30 57 H 39.272184 35.734153 60.549324 0
M  V30 58 H 41.095035 34.606869 61.400552 0
M  V30 59 H 37.968531 29.737756 52.332886 0
M  V30 60 H 39.351666 30.356189 54.793552 0
M  V30 61 H 37.134590 30.758291 55.734119 0
M  V30 62 H 37.123026 30.699938 54.040782 0
M  V30 63 H 36.503663 29.337571 54.967585 0
M  V30 64 H 37.645388 34.939043 58.881903 0
M  V30 65 H 36.707655 33.955369 59.940212 0
M  V30 66 H 37.637815 32.728259 62.444630 0
M  V30 67 H 40.259461 26.235862 56.517049 0
M  V30 68 H 40.185661 28.644454 49.983572 0
M  V30 69 H 38.445261 37.991505 60.837208 0
M  V30 70 H 37.096602 37.951669 59.608867 0
M  V30 71 H 38.912636 31.540828 60.236743 0
M  V30 72 H 39.657543 32.132372 61.548200 0
M  V30 73 H 39.696683 33.702444 59.632867 0
M  V30 74 H 40.445135 34.230492 64.261665 0
M  V30 75 H 39.453099 33.183524 63.362385 0
M  V30 76 H 39.624693 30.291827 49.831779 0
M  V30 77 H 39.245485 31.814318 50.602183 0
M  V30 78 H 40.918860 31.337941 50.336086 0
M  V30 79 H 40.250162 28.524706 55.990060 0
M  V30 80 H 37.070449 34.576934 62.167678 0
M  V30 81 H 37.953588 35.855184 62.924192 0
M  V30 82 H 40.940532 29.767998 52.079335 0
M  V30 83 H 38.079658 28.395442 50.611825 0
M  V30 END ATOM
M  V30 BEGIN BOND
M  V30 1 1 2 1
M  V30 2 1 7 6
M  V30 3 2 8 6
M  V30 4 1 10 4
M  V30 5 1 11 3
M  V30 6 1 15 6
M  V30 7 1 15 14
M  V30 8 1 18 17
M  V30 9 1 19 12
M  V30 10 1 20 9
M  V30 11 1 22 1
M  V30 12 1 22 13
M  V30 13 1 23 20
M  V30 14 1 26 4
M  V30 15 1 26 10
M  V30 16 1 27 21
M  V30 17 1 28 14
M  V30 18 1 28 19
M  V30 19 1 28 27
M  V30 20 2 29 5
M  V30 21 1 29 12
M  V30 22 1 29 22
M  V30 23 1 30 15
M  V30 24 1 32 13
M  V30 25 1 32 17
M  V30 26 1 32 20
M  V30 27 1 34 4
M  V30 28 1 34 14
M  V30 29 1 35 16
M  V30 30 1 35 25
M  V30 31 1 35 31
M  V30 32 1 36 30
M  V30 33 2 36 33
M  V30 34 1 37 3
M  V30 35 1 37 16
M  V30 36 1 37 24
M  V30 37 1 38 36
M  V30 38 1 39 11
M  V30 39 1 39 16
M  V30 40 1 39 17
M  V30 41 1 40 1
M  V30 42 1 41 1
M  V30 43 1 42 2
M  V30 44 1 43 3
M  V30 45 1 44 3
M  V30 46 1 45 4
M  V30 47 1 46 7
M  V30 48 1 47 7
M  V30 49 1 48 9
M  V30 50 1 49 10
M  V30 51 1 50 10
M  V30 52 1 51 11
M  V30 53 1 52 11
M  V30 54 1 53 12
M  V30 55 1 54 12
M  V30 56 1 55 13
M  V30 57 1 56 13
M  V30 58 1 14 57 CFG=3
M  V30 59 1 15 58 CFG=3
M  V30 60 1 16 59 CFG=1
M  V30 61 1 17 60 CFG=3
M  V30 62 1 61 18
M  V30 63 1 62 18
M  V30 64 1 63 18
M  V30 65 1 64 19
M  V30 66 1 65 19
M  V30 67 1 66 21
M  V30 68 1 67 23
M  V30 69 1 68 24
M  V30 70 1 69 26
M  V30 71 1 70 26
M  V30 72 1 71 27
M  V30 73 1 72 27
M  V30 74 1 28 73 CFG=3
M  V30 75 1 74 30
M  V30 76 1 75 30
M  V30 77 1 76 31
M  V30 78 1 77 31
M  V30 79 1 78 31
M  V30 80 1 32 79 CFG=3
M  V30 81 1 80 34
M  V30 82 1 81 34
M  V30 83 1 35 82 CFG=3
M  V30 84 1 37 83 CFG=3
M  V30 END BOND
M  V30 END CTAB
M  END
>  <i_epik_Tot_Q>  (1) 
0

>  <i_epik_Tot_abs_Q>  (1) 
2

>  <i_i_glide_confnum>  (1) 
6125

>  <i_i_glide_lignum>  (1) 
213

>  <i_i_glide_posenum>  (1) 
83

>  <i_i_glide_rotatable_bonds>  (1) 
24

>  <i_lp_mmshare_version>  (1) 
72125

>  <i_m_source_file_index>  (1) 
94

>  <i_f3d_flags>  (1) 
0

>  <num_sample>  (1) 
100

>  <b_lp_Chiralities_Consistent>  (1) 
1

>  <r_epik_Charging_Adjusted_Penalty>  (1) 
0.37121505818338452

>  <r_epik_Ionization_Penalty>  (1) 
0.37121789513022985

>  <r_epik_Ionization_Penalty_Charging>  (1) 
0.00098257200063165957

>  <r_epik_Ionization_Penalty_Neutral>  (1) 
0.37023532312959817

>  <r_epik_State_Penalty>  (1) 
0.37023248618275284

>  <r_glide_ring_energy>  (1) 
0

>  <r_i_docking_score>  (1) 
-6.3115961758768311

>  <r_i_glide_ecoul>  (1) 
-5.8923575754167024

>  <r_i_glide_eff_state_penalty>  (1) 
0.37023248618275284

>  <r_i_glide_einternal>  (1) 
28.880891669612268

>  <r_i_glide_emodel>  (1) 
-40.752122184413885

>  <r_i_glide_emodel_strain>  (1) 
7.8139931496577191

>  <r_i_glide_energy>  (1) 
-39.365577991107351

>  <r_i_glide_erotb>  (1) 
0.82577533054746977

>  <r_i_glide_esite>  (1) 
-0.18900511098505882

>  <r_i_glide_evdw>  (1) 
-33.473220415690648

>  <r_i_glide_gscore>  (1) 
-6.6818286620595844

>  <r_i_glide_gscore_strain>  (1) 
0.95349828741442977

>  <r_i_glide_hbond>  (1) 
-0.20776240565712445

>  <r_i_glide_ligand_efficiency>  (1) 
-0.1618357993814572

>  <r_i_glide_ligand_efficiency_ln>  (1) 
-1.353385385419942

>  <r_i_glide_ligand_efficiency_sa>  (1) 
-0.54881941475174278

>  <r_i_glide_lipo>  (1) 
-3.6941487869257719

>  <r_i_glide_metal>  (1) 
-0

>  <r_i_glide_rewards>  (1) 
-1.8126713193564901

>  <r_lp_Energy>  (1) 
14.863111

>  <s_epik_Chemistry_Notes>  (1) 
This compound contains an acetal/aminal-like group ( X-CH(R)-Y where X, Y are N, S, or O) that may be acid/base labile, releasing an aldehyde.

>  <s_epik_cmdline>  (1) 
J2VwaWtfcHl0aG9uJywgJy1waHQnLCAnMS4wJywgJy1waCcsICc3LjQnLCAnLXRuJywgJzgnLCAnLW1hJywgJzUwMCcsICctaW1hZScsICc8aW5maWxlLm1hZT4nLCAnLW9tYWUnLCAnPG91dGZpbGUubWFlPic=

>  <s_epik_input>  (1) 
W0NIMl0xW0NIMl1bQ0hdMVtDSDJdW0NAQEhdKFtDQEBIXShDKD1PKVtOSDJdKVtDSDJdQyg9TylbT0hdKVtDQEBIXShbQ0gyXVtPSF0pW0NIMl1bQ0gyXUMoPU8pTihbQ0gyXVtPSF0pW0NIMl1bQ0BASF0oW1MrXShbT0hdKVtPSF0pW0NASF0oW0NIM10pTjJbQ0gyXVtDSDJdW0NASF0oW09IXSlbQ0BASF0yW0NASF0oRilbQ0gzXQ==

>  <s_glide_docking_method>  (1) 
confgen

>  <s_i_glide_gridfile>  (1) 
gpcr_5ht2c_6bqh_protein_autoprepared_prepared

>  <s_lp_Force_Field>  (1) 
S-OPLS

>  <s_lp_Variant>  (1) 
DiffSBDD_93-1

>  <s_m_source_file>  (1) 
generated_GPCR_5HT2C_ligand_DiffSBDD_2026-06-23_prepared.sdf

>  <GenAI_Model>  (1) 
DiffSBDD

>  <Protein>  (1) 
GPCR_5HT2C

$$$$
DiffSBDD_42
     RDKit          3D

  0  0  0  0  0  0  0  0  0  0999 V3000
M  V30 BEGIN CTAB
M  V30 COUNTS 89 94 0 0 1
M  V30 BEGIN ATOM
M  V30 1 C 43.935715 28.470583 64.251361 0
M  V30 2 C 38.240663 29.004179 58.239742 0
M  V30 3 C 39.094217 29.032204 52.965960 0
M  V30 4 C 39.412456 26.605862 52.500564 0
M  V30 5 O 38.044631 32.959739 55.785464 0
M  V30 6 C 37.905656 29.926393 54.902025 0
M  V30 7 C 40.031354 30.068388 53.081179 0
M  V30 8 C 38.902024 30.915459 55.042664 0
M  V30 9 C 42.256093 25.984101 66.281590 0 CFG=2
M  V30 10 C 39.845092 28.343533 50.576724 0
M  V30 11 C 41.467565 28.363361 64.614177 0 CFG=1
M  V30 12 C 36.902735 33.729609 60.899842 0 CFG=1
M  V30 13 C 42.421644 30.415308 63.762499 0
M  V30 14 C 37.233837 34.501235 59.621028 0
M  V30 15 C 40.233577 32.070885 62.009335 0
M  V30 16 C 39.183688 30.110665 57.773882 0
M  V30 17 C 35.489734 33.107624 60.964745 0
M  V30 18 O 39.049136 34.076976 62.567627 0
M  V30 19 C 38.458112 30.257362 60.493851 0
M  V30 20 O 43.062875 26.426480 67.353077 0
M  V30 21 C 39.042279 33.054331 61.894383 0
M  V30 22 C 37.812658 29.118169 59.697039 0
M  V30 23 O 41.625516 33.751355 63.014888 0
M  V30 24 C 37.565304 33.578980 58.430679 0
M  V30 25 C 43.861929 29.929473 63.902620 0
M  V30 26 C 41.930919 34.416069 64.230279 0
M  V30 27 N 38.422868 31.357352 57.508225 0
M  V30 28 C 42.947995 26.276521 64.938431 0
M  V30 29 C 38.863524 31.902136 56.194566 0 CFG=2
M  V30 30 C 39.948700 30.982105 54.124015 0
M  V30 31 C 41.210632 32.430905 63.176570 0 CFG=2
M  V30 32 C 40.864935 26.644317 66.374724 0
M  V30 33 C 39.280838 27.991743 51.928977 0 CFG=2
M  V30 34 C 38.009712 28.974298 53.870520 0
M  V30 35 C 37.997861 31.662846 60.038974 0 CFG=2
M  V30 36 C 40.879173 28.150620 66.023648 0
M  V30 37 O 42.355344 31.630831 63.118774 0
M  V30 38 N 41.387677 29.769206 64.166025 0
M  V30 39 C 42.862350 27.747302 64.574969 0
M  V30 40 C 38.461042 32.295700 58.675873 0 CFG=2
M  V30 41 N 38.006176 32.767855 61.038649 0
M  V30 42 O 38.446034 28.138585 50.797777 0
M  V30 43 H 44.914457 28.013140 64.236550 0
M  V30 44 H 37.353528 28.954794 57.609528 0
M  V30 45 H 38.747498 28.048056 58.101470 0
M  V30 46 H 40.213052 26.556364 53.237295 0
M  V30 47 H 38.480125 26.299660 52.972927 0
M  V30 48 H 39.651484 25.925362 51.693068 0
M  V30 49 H 37.130342 32.712931 55.910563 0
M  V30 50 H 37.084635 29.880108 55.601757 0
M  V30 51 H 40.844717 30.125962 52.384301 0
M  V30 52 H 42.148251 24.904434 66.389897 0
M  V30 53 H 40.102178 29.370210 50.324549 0
M  V30 54 H 40.366342 27.554742 50.045080 0
M  V30 55 H 40.861170 27.779761 63.919773 0
M  V30 56 H 36.894145 34.457783 61.711302 0
M  V30 57 H 36.423458 35.178121 59.349315 0
M  V30 58 H 38.097813 35.138640 59.814131 0
M  V30 59 H 40.783290 32.025897 61.070940 0
M  V30 60 H 39.883867 31.089033 62.299585 0
M  V30 61 H 39.654675 29.703586 56.884772 0
M  V30 62 H 40.040560 30.180381 58.437261 0
M  V30 63 H 34.749174 33.869976 61.190678 0
M  V30 64 H 35.183361 32.650890 60.023587 0
M  V30 65 H 35.423196 32.351403 61.747891 0
M  V30 66 H 38.133143 30.134425 61.526951 0
M  V30 67 H 39.537093 30.124058 60.475851 0
M  V30 68 H 43.097244 27.370552 67.333623 0
M  V30 69 H 36.729045 29.233400 59.740685 0
M  V30 70 H 38.047594 28.164279 60.166119 0
M  V30 71 H 36.610067 33.306629 57.991499 0
M  V30 72 H 38.045041 34.238360 57.716012 0
M  V30 73 H 44.363221 30.506949 64.677079 0
M  V30 74 H 44.401423 30.096811 62.974930 0
M  V30 75 H 42.132501 35.467030 64.027617 0
M  V30 76 H 41.091864 34.381824 64.927941 0
M  V30 77 H 42.806224 33.981304 64.713354 0
M  V30 78 H 43.987334 25.947268 64.965237 0
M  V30 79 H 42.455901 25.705357 64.151838 0
M  V30 80 H 39.869508 32.299380 56.332498 0
M  V30 81 H 40.702844 31.735424 54.230406 0
M  V30 82 H 40.699386 32.318200 64.138080 0
M  V30 83 H 40.197369 26.132078 65.680306 0
M  V30 84 H 40.447060 26.486614 67.367158 0
M  V30 85 H 37.271327 28.189094 53.783596 0
M  V30 86 H 36.949154 31.456375 59.851434 0
M  V30 87 H 41.464863 28.697036 66.763577 0
M  V30 88 H 39.868973 28.555472 66.095624 0
M  V30 89 H 39.487015 32.639004 58.801113 0
M  V30 END ATOM
M  V30 BEGIN BOND
M  V30 1 2 7 3
M  V30 2 1 8 6
M  V30 3 1 14 12
M  V30 4 1 16 2
M  V30 5 1 17 12
M  V30 6 1 20 9
M  V30 7 1 21 15
M  V30 8 2 21 18
M  V30 9 1 22 2
M  V30 10 1 22 19
M  V30 11 1 24 14
M  V30 12 1 25 1
M  V30 13 1 25 13
M  V30 14 1 26 23
M  V30 15 1 27 16
M  V30 16 1 28 9
M  V30 17 1 29 5
M  V30 18 1 29 8
M  V30 19 1 29 27
M  V30 20 1 30 7
M  V30 21 2 30 8
M  V30 22 1 31 15
M  V30 23 1 31 23
M  V30 24 1 32 9
M  V30 25 1 33 3
M  V30 26 1 33 4 CFG=1
M  V30 27 1 33 10
M  V30 28 1 34 3
M  V30 29 2 34 6
M  V30 30 1 35 19
M  V30 31 1 36 11
M  V30 32 1 36 32
M  V30 33 1 37 13
M  V30 34 1 37 31
M  V30 35 1 38 11
M  V30 36 2 38 13
M  V30 37 2 39 1
M  V30 38 1 39 11
M  V30 39 1 39 28
M  V30 40 1 40 24
M  V30 41 1 40 27
M  V30 42 1 40 35
M  V30 43 1 41 12
M  V30 44 1 41 21
M  V30 45 1 41 35
M  V30 46 1 42 10
M  V30 47 1 42 33
M  V30 48 1 43 1
M  V30 49 1 44 2
M  V30 50 1 45 2
M  V30 51 1 46 4
M  V30 52 1 47 4
M  V30 53 1 48 4
M  V30 54 1 49 5
M  V30 55 1 50 6
M  V30 56 1 51 7
M  V30 57 1 9 52 CFG=1
M  V30 58 1 53 10
M  V30 59 1 54 10
M  V30 60 1 11 55 CFG=3
M  V30 61 1 12 56 CFG=1
M  V30 62 1 57 14
M  V30 63 1 58 14
M  V30 64 1 59 15
M  V30 65 1 60 15
M  V30 66 1 61 16
M  V30 67 1 62 16
M  V30 68 1 63 17
M  V30 69 1 64 17
M  V30 70 1 65 17
M  V30 71 1 66 19
M  V30 72 1 67 19
M  V30 73 1 68 20
M  V30 74 1 69 22
M  V30 75 1 70 22
M  V30 76 1 71 24
M  V30 77 1 72 24
M  V30 78 1 73 25
M  V30 79 1 74 25
M  V30 80 1 75 26
M  V30 81 1 76 26
M  V30 82 1 77 26
M  V30 83 1 78 28
M  V30 84 1 79 28
M  V30 85 1 29 80 CFG=1
M  V30 86 1 81 30
M  V30 87 1 31 82 CFG=1
M  V30 88 1 83 32
M  V30 89 1 84 32
M  V30 90 1 85 34
M  V30 91 1 35 86 CFG=3
M  V30 92 1 87 36
M  V30 93 1 88 36
M  V30 94 1 40 89 CFG=1
M  V30 END BOND
M  V30 END CTAB
M  END
>  <i_epik_Tot_Q>  (1) 
0

>  <i_epik_Tot_abs_Q>  (1) 
0

>  <i_i_glide_confnum>  (1) 
275

>  <i_i_glide_lignum>  (1) 
94

>  <i_i_glide_posenum>  (1) 
243

>  <i_i_glide_rotatable_bonds>  (1) 
11

>  <i_lp_mmshare_version>  (1) 
72125

>  <i_m_source_file_index>  (1) 
43

>  <i_f3d_flags>  (1) 
0

>  <num_sample>  (1) 
100

>  <b_lp_Chiralities_Consistent>  (1) 
1

>  <r_epik_Charging_Adjusted_Penalty>  (1) 
1.2329990640451991

>  <r_epik_Ionization_Penalty>  (1) 
0.090641377566339693

>  <r_epik_Ionization_Penalty_Charging>  (1) 
0

>  <r_epik_Ionization_Penalty_Neutral>  (1) 
0.090641377566339693

>  <r_epik_State_Penalty>  (1) 
1.2329990640451991

>  <r_glide_ring_energy>  (1) 
0

>  <r_i_docking_score>  (1) 
-6.3045951701810861

>  <r_i_glide_ecoul>  (1) 
-0.94817369566560927

>  <r_i_glide_eff_state_penalty>  (1) 
1.2329990640451991

>  <r_i_glide_einternal>  (1) 
6.8275464362430895

>  <r_i_glide_emodel>  (1) 
-50.492143631238264

>  <r_i_glide_emodel_strain>  (1) 
3.7721422471647514

>  <r_i_glide_energy>  (1) 
-42.89581831436238

>  <r_i_glide_erotb>  (1) 
0.39316795176799535

>  <r_i_glide_esite>  (1) 
-0.036137791250595512

>  <r_i_glide_evdw>  (1) 
-41.947644618696771

>  <r_i_glide_gscore>  (1) 
-7.5375942342262849

>  <r_i_glide_gscore_strain>  (1) 
0

>  <r_i_glide_hbond>  (1) 
-0.21103329146788238

>  <r_i_glide_ligand_efficiency>  (1) 
-0.15010940881383539

>  <r_i_glide_ligand_efficiency_ln>  (1) 
-1.3307376153564445

>  <r_i_glide_ligand_efficiency_sa>  (1) 
-0.52178430468504478

>  <r_i_glide_lipo>  (1) 
-3.7935036731459335

>  <r_i_glide_metal>  (1) 
-0

>  <r_i_glide_rewards>  (1) 
-1.6504791448451885

>  <r_lp_Energy>  (1) 
72.264139999999998

>  <s_epik_Chemistry_Notes>  (1) 
This compound has an imine and may undergo hydrolysis. This compound contains an acetal/aminal-like group ( X-CH(R)-Y where X, Y are N, S, or O) that may be acid/base labile, releasing an aldehyde.

>  <s_epik_cmdline>  (1) 
J2VwaWtfcHl0aG9uJywgJy1waHQnLCAnMS4wJywgJy1waCcsICc3LjQnLCAnLXRuJywgJzgnLCAnLW1hJywgJzUwMCcsICctaW1hZScsICc8aW5maWxlLm1hZT4nLCAnLW9tYWUnLCAnPG91dGZpbGUubWFlPic=

>  <s_epik_input>  (1) 
W0NIMl0xW0NIMl1bQ0BIXShbT0hdKVtDSDJdQyhbQ0BASF0xMik9W0NIXVtDSDJdQyg9TjIpT1tDQEBIXShPW0NIM10pW0NIMl1DKD1PKU4zW0NASF0oW0NIM10pW0NIMl1bQ0gyXVtDQEBIXShbQ0BIXTM0KU4oW0NIMl1bQ0gyXVtDSDJdW0NIMl00KVtDQEhdKFtPSF0pYyhbY0hdW2NIXTUpW2NIXVtjSF1jNUM2KFtDSDNdKVtDSDJdTzY=

>  <s_glide_docking_method>  (1) 
confgen

>  <s_i_glide_gridfile>  (1) 
gpcr_5ht2c_6bqh_protein_autoprepared_prepared

>  <s_lp_Force_Field>  (1) 
S-OPLS

>  <s_lp_Variant>  (1) 
DiffSBDD_42-3

>  <s_m_source_file>  (1) 
generated_GPCR_5HT2C_ligand_DiffSBDD_2026-06-23_prepared.sdf

>  <GenAI_Model>  (1) 
DiffSBDD

>  <Protein>  (1) 
GPCR_5HT2C

$$$$
DiffSBDD_36
     RDKit          3D

  0  0  0  0  0  0  0  0  0  0999 V3000
M  V30 BEGIN CTAB
M  V30 COUNTS 49 49 0 0 1
M  V30 BEGIN ATOM
M  V30 1 C 39.621067 26.248491 54.480507 0
M  V30 2 C 37.738744 26.417843 57.769755 0
M  V30 3 C 38.099649 24.842752 55.928592 0
M  V30 4 C 38.552604 28.522525 56.597973 0
M  V30 5 C 39.850964 29.965354 60.760070 0
M  V30 6 C 38.800930 27.015308 56.827102 0 CFG=1
M  V30 7 C 37.373723 25.015338 57.260642 0
M  V30 8 C 39.910293 28.927962 51.052546 0
M  V30 9 C 39.583342 26.811491 53.254751 0
M  V30 10 C 38.407358 27.573086 52.662811 0
M  V30 11 O 40.845133 30.218472 61.431195 0
M  V30 12 C 41.019731 27.323214 58.152702 0
M  V30 13 C 40.724989 28.695896 58.737514 0
M  V30 14 C 40.203307 26.602067 57.341109 0
M  V30 15 C 38.483278 26.263587 55.500504 0 CFG=1
M  V30 16 C 40.162614 30.271530 50.351512 0
M  V30 17 S 38.417998 30.937738 60.567771 0 CHG=-1
M  V30 18 C 39.834239 28.648698 59.993294 0
M  V30 19 C 39.123487 29.947636 53.282237 0
M  V30 20 C 38.804334 28.969069 52.134474 0 CFG=1
M  V30 21 H 40.520519 25.737762 54.784712 0
M  V30 22 H 38.087903 26.378282 58.800944 0
M  V30 23 H 36.844884 27.040599 57.767761 0
M  V30 24 H 38.988222 24.229619 56.079587 0
M  V30 25 H 37.482907 24.338952 55.183174 0
M  V30 26 H 38.364733 29.058436 57.526491 0
M  V30 27 H 37.659002 28.695177 55.998136 0
M  V30 28 H 39.382915 28.989710 56.069445 0
M  V30 29 H 37.665783 24.239297 57.969400 0
M  V30 30 H 36.296477 24.938994 57.117996 0
M  V30 31 H 40.852279 28.586795 51.479121 0
M  V30 32 H 39.634162 28.193469 50.294589 0
M  V30 33 H 40.445136 26.726767 52.624412 0
M  V30 34 H 38.045228 26.974811 51.826647 0
M  V30 35 H 37.559357 27.683703 53.331036 0
M  V30 36 H 41.975506 26.899875 58.426499 0
M  V30 37 H 40.400427 29.429017 58.008439 0
M  V30 38 H 41.699252 29.080117 59.038551 0
M  V30 39 H 40.548295 25.637132 57.009556 0
M  V30 40 H 37.570088 26.674912 55.082192 0
M  V30 41 H 40.873475 30.151654 49.533832 0
M  V30 42 H 39.245270 30.685199 49.934359 0
M  V30 43 H 40.582726 31.009073 51.035314 0
M  V30 44 H 38.822236 28.336574 59.734998 0
M  V30 45 H 40.209955 27.879355 60.669613 0
M  V30 46 H 40.038356 29.681420 53.809651 0
M  V30 47 H 39.245296 30.969037 52.923431 0
M  V30 48 H 38.311725 29.970886 54.009155 0
M  V30 49 H 37.909728 29.337759 51.641757 0
M  V30 END ATOM
M  V30 BEGIN BOND
M  V30 1 1 6 2
M  V30 2 1 6 4 CFG=3
M  V30 3 1 7 2
M  V30 4 1 7 3
M  V30 5 2 9 1
M  V30 6 1 10 9
M  V30 7 2 11 5
M  V30 8 1 13 12
M  V30 9 1 14 6
M  V30 10 2 14 12
M  V30 11 1 15 1
M  V30 12 1 15 3
M  V30 13 1 15 6
M  V30 14 1 16 8
M  V30 15 1 17 5
M  V30 16 1 18 5
M  V30 17 1 18 13
M  V30 18 1 20 8
M  V30 19 1 20 10
M  V30 20 1 20 19
M  V30 21 1 21 1
M  V30 22 1 22 2
M  V30 23 1 23 2
M  V30 24 1 24 3
M  V30 25 1 25 3
M  V30 26 1 26 4
M  V30 27 1 27 4
M  V30 28 1 28 4
M  V30 29 1 29 7
M  V30 30 1 30 7
M  V30 31 1 31 8
M  V30 32 1 32 8
M  V30 33 1 33 9
M  V30 34 1 34 10
M  V30 35 1 35 10
M  V30 36 1 36 12
M  V30 37 1 37 13
M  V30 38 1 38 13
M  V30 39 1 39 14
M  V30 40 1 15 40 CFG=3
M  V30 41 1 41 16
M  V30 42 1 42 16
M  V30 43 1 43 16
M  V30 44 1 44 18
M  V30 45 1 45 18
M  V30 46 1 46 19
M  V30 47 1 47 19
M  V30 48 1 48 19
M  V30 49 1 20 49 CFG=3
M  V30 END BOND
M  V30 END CTAB
M  END
>  <i_epik_Tot_Q>  (1) 
-1

>  <i_epik_Tot_abs_Q>  (1) 
1

>  <i_i_glide_confnum>  (1) 
153

>  <i_i_glide_lignum>  (1) 
83

>  <i_i_glide_posenum>  (1) 
63

>  <i_i_glide_rotatable_bonds>  (1) 
8

>  <i_lp_mmshare_version>  (1) 
72125

>  <i_m_source_file_index>  (1) 
37

>  <i_f3d_flags>  (1) 
0

>  <num_sample>  (1) 
100

>  <b_lp_Chiralities_Consistent>  (1) 
1

>  <r_epik_Charging_Adjusted_Penalty>  (1) 
9.4165288777969193e-05

>  <r_epik_Ionization_Penalty>  (1) 
9.4165288777969193e-05

>  <r_epik_Ionization_Penalty_Charging>  (1) 
9.4165288777969193e-05

>  <r_epik_Ionization_Penalty_Neutral>  (1) 
0

>  <r_epik_State_Penalty>  (1) 
-0

>  <r_glide_ring_energy>  (1) 
0

>  <r_i_docking_score>  (1) 
-6.3020513010203789

>  <r_i_glide_ecoul>  (1) 
-3.0636775296460206

>  <r_i_glide_eff_state_penalty>  (1) 
-0

>  <r_i_glide_einternal>  (1) 
7.5761652125757646

>  <r_i_glide_emodel>  (1) 
-42.986699112700201

>  <r_i_glide_emodel_strain>  (1) 
0.029983179001277449

>  <r_i_glide_energy>  (1) 
-33.741691572532424

>  <r_i_glide_erotb>  (1) 
2.5456975872200465

>  <r_i_glide_esite>  (1) 
0

>  <r_i_glide_evdw>  (1) 
-30.678014042886403

>  <r_i_glide_gscore>  (1) 
-6.3020513010203789

>  <r_i_glide_gscore_strain>  (1) 
0

>  <r_i_glide_hbond>  (1) 
-0.32000000000000001

>  <r_i_glide_ligand_efficiency>  (1) 
-0.31510256505101897

>  <r_i_glide_ligand_efficiency_ln>  (1) 
-1.5771955850823409

>  <r_i_glide_ligand_efficiency_sa>  (1) 
-0.85531995360872837

>  <r_i_glide_lipo>  (1) 
-4.4155494892598846

>  <r_i_glide_metal>  (1) 
-0

>  <r_i_glide_rewards>  (1) 
-2.1187470673893163

>  <r_lp_Energy>  (1) 
18.646117

>  <r_lp_tautomer_probability>  (1) 
1

>  <s_epik_cmdline>  (1) 
J2VwaWtfcHl0aG9uJywgJy1waHQnLCAnMS4wJywgJy1waCcsICc3LjQnLCAnLXRuJywgJzgnLCAnLW1hJywgJzUwMCcsICctaW1hZScsICc8aW5maWxlLm1hZT4nLCAnLW9tYWUnLCAnPG91dGZpbGUubWFlPic=

>  <s_epik_input>  (1) 
W0NIM11bQ0gyXVtDQEhdKFtDSDNdKVtDSDJdL1tDSF09W0NIXVxbQ0BIXTFbQ0gyXVtDSDJdW0NIMl1bQ0BAXTEoW0NIM10pL1tDSF09W0NIXVxbQ0gyXVtDSDJdQyg9TylbU0hd

>  <s_glide_docking_method>  (1) 
confgen

>  <s_i_glide_gridfile>  (1) 
gpcr_5ht2c_6bqh_protein_autoprepared_prepared

>  <s_lp_Force_Field>  (1) 
S-OPLS

>  <s_lp_Variant>  (1) 
DiffSBDD_36-4

>  <s_m_source_file>  (1) 
generated_GPCR_5HT2C_ligand_DiffSBDD_2026-06-23_prepared.sdf

>  <GenAI_Model>  (1) 
DiffSBDD

>  <Protein>  (1) 
GPCR_5HT2C

$$$$
DiffSBDD_83
     RDKit          3D

  0  0  0  0  0  0  0  0  0  0999 V3000
M  V30 BEGIN CTAB
M  V30 COUNTS 54 55 0 0 1
M  V30 BEGIN ATOM
M  V30 1 C 40.568958 35.353660 63.367332 0
M  V30 2 C 38.244224 30.932577 56.727598 0
M  V30 3 N 38.138305 30.265914 57.912468 0
M  V30 4 O 37.211980 27.704787 53.701304 0
M  V30 5 O 41.671578 34.992604 64.043620 0
M  V30 6 C 38.963897 34.358192 61.728874 0
M  V30 7 C 38.130411 35.634267 61.630349 0
M  V30 8 C 38.865821 27.530433 52.227694 0
M  V30 9 C 38.267405 24.860790 56.850737 0
M  V30 10 C 40.069822 34.239170 62.514602 0
M  V30 11 C 38.142227 30.237892 55.410200 0
M  V30 12 C 38.642597 33.463341 59.368036 0
M  V30 13 N 38.263058 31.053337 58.992120 0
M  V30 14 O 41.867872 35.737755 65.281004 0
M  V30 15 C 38.838862 27.735133 55.545373 0 CFG=1
M  V30 16 C 41.023651 27.609347 56.985474 0
M  V30 17 C 37.667250 27.937433 52.470500 0
M  V30 18 O 40.045137 36.465014 63.456820 0
M  V30 19 C 38.369058 27.014680 54.244911 0 CFG=2
M  V30 20 C 38.445137 32.244383 57.032114 0
M  V30 21 O 39.453239 26.937747 53.272956 0
M  V30 22 C 39.252401 25.921487 57.360192 0
M  V30 23 C 39.895435 26.830836 56.278523 0 CFG=1
M  V30 24 C 38.445136 32.271417 58.465079 0
M  V30 25 Cl 39.644758 27.737757 50.703055 0
M  V30 26 C 38.473681 33.197340 60.875818 0
M  V30 27 C 39.256792 29.198395 55.181918 0
M  V30 28 H 37.979721 29.273132 58.001217 0
M  V30 29 H 37.264275 35.484074 60.985451 0
M  V30 30 H 37.741832 35.942383 62.599632 0
M  V30 31 H 38.715327 36.448637 61.201837 0
M  V30 32 H 37.987910 24.180331 57.655843 0
M  V30 33 H 37.346870 25.310956 56.480412 0
M  V30 34 H 38.706286 24.261271 56.053146 0
M  V30 35 H 40.618250 33.308479 62.536196 0
M  V30 36 H 37.151509 29.796296 55.295447 0
M  V30 37 H 38.208512 30.992449 54.625590 0
M  V30 38 H 37.958411 34.253973 59.060854 0
M  V30 39 H 39.645144 33.852713 59.195705 0
M  V30 40 H 42.045135 36.618421 64.954924 0
M  V30 41 H 37.969800 27.797814 56.200499 0
M  V30 42 H 40.630187 28.323891 57.709751 0
M  V30 43 H 41.696495 26.937802 57.520051 0
M  V30 44 H 41.645136 28.147872 56.273666 0
M  V30 45 H 36.977669 28.443435 51.813870 0
M  V30 46 H 38.051294 25.991541 54.438458 0
M  V30 47 H 38.573014 33.064902 56.342172 0
M  V30 48 H 40.045092 25.387948 57.887239 0
M  V30 49 H 38.760613 26.534297 58.117027 0
M  V30 50 H 40.389487 26.189211 55.546859 0
M  V30 51 H 39.045962 32.312100 61.156357 0
M  V30 52 H 37.431914 32.976584 61.112033 0
M  V30 53 H 39.579839 29.257248 54.144839 0
M  V30 54 H 40.123893 29.558340 55.726605 0
M  V30 END ATOM
M  V30 BEGIN BOND
M  V30 1 1 3 2
M  V30 2 1 5 1
M  V30 3 1 7 6
M  V30 4 1 10 1
M  V30 5 2 10 6
M  V30 6 1 11 2
M  V30 7 1 13 3
M  V30 8 1 14 5
M  V30 9 1 17 4
M  V30 10 2 17 8
M  V30 11 2 18 1
M  V30 12 1 19 4
M  V30 13 1 19 15
M  V30 14 2 20 2
M  V30 15 1 21 8
M  V30 16 1 21 19
M  V30 17 1 22 9
M  V30 18 1 23 15
M  V30 19 1 23 16
M  V30 20 1 23 22
M  V30 21 1 24 12
M  V30 22 2 24 13
M  V30 23 1 24 20
M  V30 24 1 25 8
M  V30 25 1 26 6
M  V30 26 1 26 12
M  V30 27 1 27 11
M  V30 28 1 27 15
M  V30 29 1 28 3
M  V30 30 1 29 7
M  V30 31 1 30 7
M  V30 32 1 31 7
M  V30 33 1 32 9
M  V30 34 1 33 9
M  V30 35 1 34 9
M  V30 36 1 35 10
M  V30 37 1 36 11
M  V30 38 1 37 11
M  V30 39 1 38 12
M  V30 40 1 39 12
M  V30 41 1 40 14
M  V30 42 1 15 41 CFG=1
M  V30 43 1 42 16
M  V30 44 1 43 16
M  V30 45 1 44 16
M  V30 46 1 45 17
M  V30 47 1 19 46 CFG=1
M  V30 48 1 47 20
M  V30 49 1 48 22
M  V30 50 1 49 22
M  V30 51 1 23 50 CFG=3
M  V30 52 1 51 26
M  V30 53 1 52 26
M  V30 54 1 53 27
M  V30 55 1 54 27
M  V30 END BOND
M  V30 END CTAB
M  END
>  <i_epik_Tot_Q>  (1) 
0

>  <i_epik_Tot_abs_Q>  (1) 
0

>  <i_i_glide_confnum>  (1) 
1744

>  <i_i_glide_lignum>  (1) 
193

>  <i_i_glide_posenum>  (1) 
169

>  <i_i_glide_rotatable_bonds>  (1) 
12

>  <i_lp_mmshare_version>  (1) 
72125

>  <i_m_source_file_index>  (1) 
84

>  <i_f3d_flags>  (1) 
0

>  <num_sample>  (1) 
100

>  <b_lp_Chiralities_Consistent>  (1) 
1

>  <r_epik_Charging_Adjusted_Penalty>  (1) 
0.41067983895260396

>  <r_epik_Ionization_Penalty>  (1) 
0.00076996626271645392

>  <r_epik_Ionization_Penalty_Charging>  (1) 
0

>  <r_epik_Ionization_Penalty_Neutral>  (1) 
0.00076996626271645392

>  <r_epik_State_Penalty>  (1) 
0.41067983895260396

>  <r_glide_ring_energy>  (1) 
0

>  <r_i_docking_score>  (1) 
-6.295425586507907

>  <r_i_glide_ecoul>  (1) 
-4.1144827445719496

>  <r_i_glide_eff_state_penalty>  (1) 
0.41067983895260396

>  <r_i_glide_einternal>  (1) 
13.287919362622828

>  <r_i_glide_emodel>  (1) 
-54.833737631450994

>  <r_i_glide_emodel_strain>  (1) 
2.712014506292256

>  <r_i_glide_energy>  (1) 
-46.459753992318731

>  <r_i_glide_erotb>  (1) 
1.1080255732668134

>  <r_i_glide_esite>  (1) 
-0.091923605945329528

>  <r_i_glide_evdw>  (1) 
-42.34527124774678

>  <r_i_glide_gscore>  (1) 
-6.7061054254605112

>  <r_i_glide_gscore_strain>  (1) 
0

>  <r_i_glide_hbond>  (1) 
-0.32000000000000001

>  <r_i_glide_ligand_efficiency>  (1) 
-0.23316391061140396

>  <r_i_glide_ligand_efficiency_ln>  (1) 
-1.4654712883367584

>  <r_i_glide_ligand_efficiency_sa>  (1) 
-0.69949173183421198

>  <r_i_glide_lipo>  (1) 
-3.0172914630093399

>  <r_i_glide_metal>  (1) 
-0

>  <r_i_glide_rewards>  (1) 
-1.6504799556995229

>  <r_lp_Energy>  (1) 
16.144891999999999

>  <r_lp_tautomer_probability>  (1) 
0.5

>  <s_epik_Chemistry_Notes>  (1) 
This compound contains an acetal/aminal-like group ( X-CH(R)-Y where X, Y are N, S, or O) that may be acid/base labile, releasing an aldehyde.

>  <s_epik_cmdline>  (1) 
J2VwaWtfcHl0aG9uJywgJy1waHQnLCAnMS4wJywgJy1waCcsICc3LjQnLCAnLXRuJywgJzgnLCAnLW1hJywgJzUwMCcsICctaW1hZScsICc8aW5maWxlLm1hZT4nLCAnLW9tYWUnLCAnPG91dGZpbGUubWFlPic=

>  <s_epik_input>  (1) 
W09IXU9DKD1PKS9bQ0hdPUMoXFtDSDNdKVtDSDJdW0NIMl1jKFtjSF0xKW5bbkhdYzFbQ0gyXVtDSDJdW0NASF0oW0NAQEhdKFtDSDNdKVtDSDJdW0NIM10pW0NAQEhdKE8yKU9bQ0hdPUMyQ2w=

>  <s_glide_docking_method>  (1) 
confgen

>  <s_i_glide_gridfile>  (1) 
gpcr_5ht2c_6bqh_protein_autoprepared_prepared

>  <s_lp_Force_Field>  (1) 
S-OPLS

>  <s_lp_Variant>  (1) 
DiffSBDD_83-4

>  <s_m_source_file>  (1) 
generated_GPCR_5HT2C_ligand_DiffSBDD_2026-06-23_prepared.sdf

>  <GenAI_Model>  (1) 
DiffSBDD

>  <Protein>  (1) 
GPCR_5HT2C

$$$$
DiffSBDD_75
     RDKit          3D

  0  0  0  0  0  0  0  0  0  0999 V3000
M  V30 BEGIN CTAB
M  V30 COUNTS 76 77 0 0 1
M  V30 BEGIN ATOM
M  V30 1 C 39.402203 31.038075 62.106920 0
M  V30 2 C 36.367272 33.039488 61.436919 0
M  V30 3 O 38.845135 32.146170 58.069474 0
M  V30 4 C 40.073707 30.817432 65.153168 0
M  V30 5 C 38.650876 28.924100 57.325101 0 CFG=2
M  V30 6 C 38.803515 36.291450 62.400544 0
M  V30 7 C 37.769436 31.404696 57.582540 0 CFG=2
M  V30 8 C 38.405887 36.619780 61.087973 0
M  V30 9 O 38.198088 26.731925 56.441436 0
M  V30 10 C 39.038934 30.634448 55.415906 0 CFG=1
M  V30 11 O 35.341076 38.537756 61.767749 0
M  V30 12 S 37.654260 30.235072 60.167843 0
M  V30 13 C 40.627701 29.632201 65.957847 0
M  V30 14 C 36.460673 37.789933 61.969380 0
M  V30 15 C 36.843544 31.009798 58.744779 0
M  V30 16 C 40.066713 35.480711 62.636442 0
M  V30 17 C 38.018189 36.704055 63.491542 0
M  V30 18 O 37.927490 29.277188 53.726917 0
M  V30 19 C 38.576310 31.920246 54.698633 0
M  V30 20 C 38.152035 30.233011 56.633585 0 CFG=1
M  V30 21 O 39.692194 29.337895 66.967990 0
M  V30 22 O 37.310367 32.185125 62.071440 0
M  V30 23 O 42.046203 32.926074 61.768322 0
M  V30 24 C 42.024025 32.127543 64.686325 0
M  V30 25 N 40.940489 31.333421 64.082993 0
M  V30 26 C 40.892762 33.076136 62.166110 0
M  V30 27 C 37.241138 37.377993 60.873823 0
M  V30 28 C 40.098509 34.284804 61.681444 0
M  V30 29 C 40.138666 32.046272 63.046432 0 CFG=1
M  V30 30 C 36.838260 37.433302 63.273815 0
M  V30 31 C 39.572581 28.122417 55.038489 0
M  V30 32 C 38.271173 31.588443 61.207622 0 CFG=1
M  V30 33 C 40.001870 29.022210 58.069451 0
M  V30 34 C 39.156126 29.465153 54.402786 0 CFG=2
M  V30 35 C 38.751886 27.817672 56.283490 0
M  V30 36 H 40.147055 30.556240 61.471559 0
M  V30 37 H 38.967951 30.222668 62.681713 0
M  V30 38 H 35.936576 33.720151 62.168034 0
M  V30 39 H 36.813715 33.653187 60.651391 0
M  V30 40 H 35.540473 32.461546 61.024298 0
M  V30 41 H 39.286987 31.604088 58.702316 0
M  V30 42 H 39.840806 31.630330 65.838868 0
M  V30 43 H 39.113186 30.498816 64.761990 0
M  V30 44 H 37.245437 32.152952 56.992911 0
M  V30 45 H 38.996281 36.294133 60.246494 0
M  V30 46 H 39.487858 27.308216 54.318662 0
M  V30 47 H 40.042851 30.837131 55.793435 0
M  V30 48 H 35.308049 38.913925 60.896871 0
M  V30 49 H 40.756105 28.761370 65.314566 0
M  V30 50 H 41.586572 29.846767 66.425994 0
M  V30 51 H 36.107790 30.290166 58.384493 0
M  V30 52 H 36.277949 31.879907 59.061361 0
M  V30 53 H 40.936315 36.119488 62.479261 0
M  V30 54 H 40.094692 35.152988 63.677128 0
M  V30 55 H 38.314905 36.451724 64.499348 0
M  V30 56 H 37.243245 29.158056 54.368369 0
M  V30 57 H 37.518760 31.882204 54.438606 0
M  V30 58 H 38.727580 32.806877 55.313332 0
M  V30 59 H 39.130807 32.076066 53.775027 0
M  V30 60 H 37.184948 29.967215 56.205305 0
M  V30 61 H 39.995646 28.605512 67.490198 0
M  V30 62 H 42.481381 31.614585 65.530074 0
M  V30 63 H 42.843225 32.296931 63.991836 0
M  V30 64 H 41.661047 33.089639 65.051151 0
M  V30 65 H 36.945379 37.639647 59.869684 0
M  V30 66 H 39.065229 33.975102 61.579216 0
M  V30 67 H 40.438361 34.585070 60.690700 0
M  V30 68 H 39.377242 32.621088 63.572948 0
M  V30 69 H 36.230371 37.737333 64.111855 0
M  V30 70 H 40.611099 28.165043 55.367769 0
M  V30 71 H 37.891874 28.596951 58.033674 0
M  V30 72 H 38.686359 32.322550 60.526691 0
M  V30 73 H 40.183495 28.120745 58.655476 0
M  V30 74 H 40.843592 29.132839 57.390047 0
M  V30 75 H 40.039105 29.851036 58.768681 0
M  V30 76 H 39.892532 29.733327 53.645276 0
M  V30 END ATOM
M  V30 BEGIN BOND
M  V30 1 1 7 3
M  V30 2 1 8 6
M  V30 3 1 13 4
M  V30 4 1 14 11
M  V30 5 1 15 7
M  V30 6 1 15 12
M  V30 7 1 16 6
M  V30 8 2 17 6
M  V30 9 1 19 10
M  V30 10 1 20 5
M  V30 11 1 20 7
M  V30 12 1 20 10
M  V30 13 1 21 13
M  V30 14 1 22 2
M  V30 15 1 25 4
M  V30 16 1 25 24
M  V30 17 2 26 23
M  V30 18 2 27 8
M  V30 19 1 27 14
M  V30 20 1 28 16
M  V30 21 1 28 26
M  V30 22 1 29 1
M  V30 23 1 29 25
M  V30 24 1 29 26
M  V30 25 2 30 14
M  V30 26 1 30 17
M  V30 27 1 32 1
M  V30 28 1 32 12
M  V30 29 1 32 22
M  V30 30 1 33 5
M  V30 31 1 34 10
M  V30 32 1 34 18
M  V30 33 1 34 31
M  V30 34 1 35 5
M  V30 35 2 35 9
M  V30 36 1 35 31
M  V30 37 1 36 1
M  V30 38 1 37 1
M  V30 39 1 38 2
M  V30 40 1 39 2
M  V30 41 1 40 2
M  V30 42 1 41 3
M  V30 43 1 42 4
M  V30 44 1 43 4
M  V30 45 1 7 44 CFG=3
M  V30 46 1 45 8
M  V30 47 1 46 31
M  V30 48 1 10 47 CFG=1
M  V30 49 1 48 11
M  V30 50 1 49 13
M  V30 51 1 50 13
M  V30 52 1 51 15
M  V30 53 1 52 15
M  V30 54 1 53 16
M  V30 55 1 54 16
M  V30 56 1 55 17
M  V30 57 1 56 18
M  V30 58 1 57 19
M  V30 59 1 58 19
M  V30 60 1 59 19
M  V30 61 1 20 60 CFG=3
M  V30 62 1 61 21
M  V30 63 1 62 24
M  V30 64 1 63 24
M  V30 65 1 64 24
M  V30 66 1 65 27
M  V30 67 1 66 28
M  V30 68 1 67 28
M  V30 69 1 29 68 CFG=1
M  V30 70 1 69 30
M  V30 71 1 70 31
M  V30 72 1 5 71 CFG=1
M  V30 73 1 32 72 CFG=3
M  V30 74 1 73 33
M  V30 75 1 74 33
M  V30 76 1 75 33
M  V30 77 1 34 76 CFG=3
M  V30 END BOND
M  V30 END CTAB
M  END
>  <i_epik_Tot_Q>  (1) 
0

>  <i_epik_Tot_abs_Q>  (1) 
0

>  <i_i_glide_confnum>  (1) 
7176

>  <i_i_glide_lignum>  (1) 
175

>  <i_i_glide_posenum>  (1) 
196

>  <i_i_glide_rotatable_bonds>  (1) 
18

>  <i_lp_mmshare_version>  (1) 
72125

>  <i_m_source_file_index>  (1) 
76

>  <i_f3d_flags>  (1) 
0

>  <num_sample>  (1) 
100

>  <b_lp_Chiralities_Consistent>  (1) 
1

>  <r_epik_Charging_Adjusted_Penalty>  (1) 
0.60615279515584763

>  <r_epik_Ionization_Penalty>  (1) 
0.6077244911787385

>  <r_epik_Ionization_Penalty_Charging>  (1) 
0

>  <r_epik_Ionization_Penalty_Neutral>  (1) 
0.6077244911787385

>  <r_epik_State_Penalty>  (1) 
0.60615279515584763

>  <r_glide_ring_energy>  (1) 
0

>  <r_i_docking_score>  (1) 
-6.29139981413112

>  <r_i_glide_ecoul>  (1) 
-8.242681015775533

>  <r_i_glide_eff_state_penalty>  (1) 
0.60615279515584763

>  <r_i_glide_einternal>  (1) 
9.7233748957850352

>  <r_i_glide_emodel>  (1) 
-57.34086788763306

>  <r_i_glide_emodel_strain>  (1) 
1.4775161810315254

>  <r_i_glide_energy>  (1) 
-43.425087461640601

>  <r_i_glide_erotb>  (1) 
1.0176109525924779

>  <r_i_glide_esite>  (1) 
0

>  <r_i_glide_evdw>  (1) 
-35.18240644586507

>  <r_i_glide_gscore>  (1) 
-6.8975526092869677

>  <r_i_glide_gscore_strain>  (1) 
0

>  <r_i_glide_hbond>  (1) 
-0.61347949718283612

>  <r_i_glide_ligand_efficiency>  (1) 
-0.17975428040374627

>  <r_i_glide_ligand_efficiency_ln>  (1) 
-1.381101889297585

>  <r_i_glide_ligand_efficiency_sa>  (1) 
-0.58798817074088761

>  <r_i_glide_lipo>  (1) 
-3.1729073469748941

>  <r_i_glide_metal>  (1) 
-0

>  <r_i_glide_rewards>  (1) 
-1.1332542430621322

>  <r_lp_Energy>  (1) 
27.707881

>  <r_lp_tautomer_probability>  (1) 
0.99999993999736703

>  <s_epik_Chemistry_Notes>  (1) 
This compound contains an acetal/aminal-like group ( X-CH(R)-Y where X, Y are N, S, or O) that may be acid/base labile, releasing an aldehyde.

>  <s_epik_cmdline>  (1) 
J2VwaWtfcHl0aG9uJywgJy1waHQnLCAnMS4wJywgJy1waCcsICc3LjQnLCAnLXRuJywgJzgnLCAnLW1hJywgJzUwMCcsICctaW1hZScsICc8aW5maWxlLm1hZT4nLCAnLW9tYWUnLCAnPG91dGZpbGUubWFlPic=

>  <s_epik_input>  (1) 
W2NIXTFbY0hdYyhbT0hdKVtjSF1bY0hdYzFbQ0gyXVtDSDJdQyg9TylbQ0BIXShOKFtDSDNdKVtDSDJdW0NIMl1bT0hdKVtDSDJdW0NASF0oT1tDSDNdKVNbQ0gyXVtDQEBIXShbT0hdKVtDQEhdMltDQEBIXShbQ0gzXSlbQ0BIXShbT0hdKVtDSDJdQyhbT0hdKT1DMltDSDNd

>  <s_glide_docking_method>  (1) 
confgen

>  <s_i_glide_gridfile>  (1) 
gpcr_5ht2c_6bqh_protein_autoprepared_prepared

>  <s_lp_Force_Field>  (1) 
S-OPLS

>  <s_lp_Variant>  (1) 
DiffSBDD_75-12

>  <s_m_source_file>  (1) 
generated_GPCR_5HT2C_ligand_DiffSBDD_2026-06-23_prepared.sdf

>  <GenAI_Model>  (1) 
DiffSBDD

>  <Protein>  (1) 
GPCR_5HT2C

$$$$
DiffSBDD_46
     RDKit          3D

  0  0  0  0  0  0  0  0  0  0999 V3000
M  V30 BEGIN CTAB
M  V30 COUNTS 55 56 0 0 1
M  V30 BEGIN ATOM
M  V30 1 C 39.645231 32.001039 55.520263 0
M  V30 2 C 34.763334 32.828138 59.767616 0
M  V30 3 C 39.536701 30.144749 53.428934 0
M  V30 4 O 37.131085 30.937755 61.767759 0
M  V30 5 C 38.808197 29.883845 54.620855 0
M  V30 6 C 39.088119 33.690428 58.690011 0
M  V30 7 C 36.079496 29.839946 59.102317 0
M  V30 8 P 37.920549 31.344558 60.607985 0
M  V30 9 C 37.958473 28.749112 54.672388 0
M  V30 10 C 37.316230 33.114308 60.343232 0 CFG=1
M  V30 11 C 39.409219 29.291591 52.316479 0
M  V30 12 O 38.454429 28.637199 57.904639 0
M  V30 13 O 38.445157 27.337760 51.311946 0
M  V30 14 N 39.447317 34.005351 61.144675 0 CHG=1
M  V30 15 C 35.124463 34.262754 59.476842 0
M  V30 16 C 37.885757 30.692208 56.769104 0
M  V30 17 C 37.838695 27.899866 53.557715 0
M  V30 18 C 40.188900 29.584055 51.048798 0
M  V30 19 C 38.468014 34.065861 60.033979 0 CFG=1
M  V30 20 S 40.515780 35.338890 61.251154 0 CHG=-1
M  V30 21 O 39.399577 31.342996 60.727818 0 CHG=-1
M  V30 22 N 37.444818 30.346054 59.204512 0
M  V30 23 C 38.348965 30.035865 58.087665 0 CFG=1
M  V30 24 C 38.562123 28.167755 52.383475 0
M  V30 25 C 36.171158 33.197033 59.356518 0
M  V30 26 N 38.941210 30.747972 55.749183 0
M  V30 27 H 40.702039 31.800015 55.349404 0
M  V30 28 H 39.226715 32.537730 54.668533 0
M  V30 29 H 39.585720 32.660959 56.378164 0
M  V30 30 H 34.131574 32.323567 59.038639 0
M  V30 31 H 34.606040 32.542498 60.804754 0
M  V30 32 H 40.193133 30.998224 53.365018 0
M  V30 33 H 38.445104 34.008149 57.867808 0
M  V30 34 H 40.057707 34.137754 58.568037 0
M  V30 35 H 39.245175 32.625728 58.574994 0
M  V30 36 H 35.444291 30.535845 58.567754 0
M  V30 37 H 36.025595 28.882339 58.587542 0
M  V30 38 H 35.645150 29.737751 60.091545 0
M  V30 39 H 37.404011 28.522860 55.564096 0
M  V30 40 H 36.915894 33.440380 61.304630 0
M  V30 41 H 39.117717 28.489979 57.247687 0
M  V30 42 H 37.703055 26.748584 51.367744 0
M  V30 43 H 38.907901 33.939696 61.995295 0
M  V30 44 H 35.245133 34.937753 60.312961 0
M  V30 45 H 34.744614 34.704123 58.557681 0
M  V30 46 H 37.645129 31.730421 56.988392 0
M  V30 47 H 36.937893 30.289358 56.415517 0
M  V30 48 H 37.190407 27.036958 53.607581 0
M  V30 49 H 40.582030 30.601511 51.049390 0
M  V30 50 H 41.026559 28.894144 50.967845 0
M  V30 51 H 39.557219 29.469094 50.167749 0
M  V30 52 H 38.082116 35.085922 59.987419 0
M  V30 53 H 39.348027 30.395155 58.329204 0
M  V30 54 H 36.452453 32.945050 58.343103 0
M  V30 55 H 39.917427 33.104884 61.048990 0
M  V30 END ATOM
M  V30 BEGIN BOND
M  V30 1 2 5 3
M  V30 2 2 8 4
M  V30 3 1 9 5
M  V30 4 1 10 8
M  V30 5 1 11 3
M  V30 6 1 15 2
M  V30 7 2 17 9
M  V30 8 1 18 11
M  V30 9 1 19 6
M  V30 10 1 19 10
M  V30 11 1 19 14
M  V30 12 1 20 14
M  V30 13 1 21 8
M  V30 14 1 22 7
M  V30 15 1 22 8
M  V30 16 1 23 12
M  V30 17 1 23 16
M  V30 18 1 23 22
M  V30 19 2 24 11
M  V30 20 1 24 13
M  V30 21 1 24 17
M  V30 22 1 25 2
M  V30 23 1 25 10
M  V30 24 1 25 15
M  V30 25 1 26 1
M  V30 26 1 26 5
M  V30 27 1 26 16
M  V30 28 1 27 1
M  V30 29 1 28 1
M  V30 30 1 29 1
M  V30 31 1 30 2
M  V30 32 1 31 2
M  V30 33 1 32 3
M  V30 34 1 33 6
M  V30 35 1 34 6
M  V30 36 1 35 6
M  V30 37 1 36 7
M  V30 38 1 37 7
M  V30 39 1 38 7
M  V30 40 1 39 9
M  V30 41 1 10 40 CFG=1
M  V30 42 1 41 12
M  V30 43 1 42 13
M  V30 44 1 43 14
M  V30 45 1 44 15
M  V30 46 1 45 15
M  V30 47 1 46 16
M  V30 48 1 47 16
M  V30 49 1 48 17
M  V30 50 1 49 18
M  V30 51 1 50 18
M  V30 52 1 51 18
M  V30 53 1 19 52 CFG=3
M  V30 54 1 23 53 CFG=1
M  V30 55 1 54 25
M  V30 56 1 55 14
M  V30 END BOND
M  V30 END CTAB
M  END
>  <i_epik_Tot_Q>  (1) 
-1

>  <i_epik_Tot_abs_Q>  (1) 
3

>  <i_i_glide_confnum>  (1) 
490

>  <i_i_glide_lignum>  (1) 
98

>  <i_i_glide_posenum>  (1) 
59

>  <i_i_glide_rotatable_bonds>  (1) 
11

>  <i_lp_mmshare_version>  (1) 
72125

>  <i_m_source_file_index>  (1) 
47

>  <i_f3d_flags>  (1) 
0

>  <num_sample>  (1) 
100

>  <b_lp_Chiralities_Consistent>  (1) 
1

>  <r_epik_Charging_Adjusted_Penalty>  (1) 
3.3730423186562179e-05

>  <r_epik_Ionization_Penalty>  (1) 
0.037967810470841745

>  <r_epik_Ionization_Penalty_Charging>  (1) 
3.3730423186562179e-05

>  <r_epik_Ionization_Penalty_Neutral>  (1) 
0.03793408004765518

>  <r_epik_State_Penalty>  (1) 
-0

>  <r_glide_ring_energy>  (1) 
0

>  <r_i_docking_score>  (1) 
-6.2848643431856503

>  <r_i_glide_ecoul>  (1) 
-9.9084405172651078

>  <r_i_glide_eff_state_penalty>  (1) 
-0

>  <r_i_glide_einternal>  (1) 
12.279644510512714

>  <r_i_glide_emodel>  (1) 
-59.003826768837882

>  <r_i_glide_emodel_strain>  (1) 
0.77287121547407622

>  <r_i_glide_energy>  (1) 
-45.056004129675927

>  <r_i_glide_erotb>  (1) 
0.84802462455657757

>  <r_i_glide_esite>  (1) 
-0.078973674491788437

>  <r_i_glide_evdw>  (1) 
-35.147563612410821

>  <r_i_glide_gscore>  (1) 
-6.2848643431856503

>  <r_i_glide_gscore_strain>  (1) 
0

>  <r_i_glide_hbond>  (1) 
-0.47999999999999998

>  <r_i_glide_ligand_efficiency>  (1) 
-0.24172555166098655

>  <r_i_glide_ligand_efficiency_ln>  (1) 
-1.4759797686752079

>  <r_i_glide_ligand_efficiency_sa>  (1) 
-0.71611099642927556

>  <r_i_glide_lipo>  (1) 
-2.3731359157724965

>  <r_i_glide_metal>  (1) 
-0

>  <r_i_glide_rewards>  (1) 
-0.95713511926763517

>  <r_lp_Energy>  (1) 
26.114241

>  <r_lp_tautomer_probability>  (1) 
1

>  <s_epik_Chemistry_Notes>  (1) 
This compound contains an acetal/aminal-like group ( X-CH(R)-Y where X, Y are N, S, or O) that may be acid/base labile, releasing an aldehyde.

>  <s_epik_cmdline>  (1) 
J2VwaWtfcHl0aG9uJywgJy1waHQnLCAnMS4wJywgJy1waCcsICc3LjQnLCAnLXRuJywgJzgnLCAnLW1hJywgJzUwMCcsICctaW1hZScsICc8aW5maWxlLm1hZT4nLCAnLW9tYWUnLCAnPG91dGZpbGUubWFlPic=

>  <s_epik_input>  (1) 
W2NIXTFbY0hdYyhbT0hdKWMoW0NIM10pW2NIXWMxTihbQ0gzXSlbQ0gyXVtDQEhdKFtPSF0pTihbQ0gzXSlbUEBAXSg9TykoW09IXSlbQ0BASF0oW0NASF0oW0NIM10pW05IXVtTSF0pW0NIXTJbQ0gyXVtDSDJdMg==

>  <s_glide_docking_method>  (1) 
confgen

>  <s_i_glide_gridfile>  (1) 
gpcr_5ht2c_6bqh_protein_autoprepared_prepared

>  <s_lp_Force_Field>  (1) 
S-OPLS

>  <s_lp_Variant>  (1) 
DiffSBDD_46-1

>  <s_m_source_file>  (1) 
generated_GPCR_5HT2C_ligand_DiffSBDD_2026-06-23_prepared.sdf

>  <GenAI_Model>  (1) 
DiffSBDD

>  <Protein>  (1) 
GPCR_5HT2C

$$$$
DiffSBDD_50
     RDKit          3D

  0  0  0  0  0  0  0  0  0  0999 V3000
M  V30 BEGIN CTAB
M  V30 COUNTS 65 68 0 0 1
M  V30 BEGIN ATOM
M  V30 1 C 38.526819 30.936847 58.984409 0 CFG=1
M  V30 2 F 40.097279 27.868242 58.020192 0
M  V30 3 C 38.255704 33.204425 61.626235 0
M  V30 4 O 40.623408 30.536574 61.630763 0 CHG=-1
M  V30 5 O 36.972377 36.537880 62.946275 0
M  V30 6 O 38.845007 34.272228 62.299509 0
M  V30 7 S 36.295318 31.684461 60.559083 0
M  V30 8 C 37.881612 29.809012 58.168269 0
M  V30 9 C 40.410638 35.951995 61.758575 0 CFG=2
M  V30 10 O 39.377193 30.879370 54.902751 0
M  V30 11 C 38.330712 36.680051 62.596651 0 CFG=1
M  V30 12 C 41.479429 35.522224 64.118006 0
M  V30 13 C 38.959201 32.214128 56.792953 0
M  V30 14 C 38.636019 29.676970 56.816385 0 CFG=2
M  V30 15 C 39.589194 25.566488 57.757498 0
M  V30 16 C 40.393345 31.819185 61.513011 0
M  V30 17 C 38.489877 30.980313 56.009011 0 CFG=2
M  V30 18 C 38.843109 31.407859 53.710999 0
M  V30 19 F 37.197323 23.865014 55.556773 0
M  V30 20 C 37.675185 26.192214 55.790019 0
M  V30 21 C 40.660568 36.441537 63.194670 0 CFG=2
M  V30 22 C 38.379856 32.275347 58.208707 0
M  V30 23 C 38.853438 24.542698 57.137971 0
M  V30 24 C 39.288007 36.806056 63.776461 0
M  V30 25 C 38.071665 31.041725 60.472006 0 CFG=2
M  V30 26 C 38.398157 27.234778 56.408492 0
M  V30 27 C 38.928927 35.559585 61.707785 0 CFG=2
M  V30 28 C 38.893379 32.100249 61.247038 0
M  V30 29 N 38.129800 28.569924 56.008149 0
M  V30 30 C 39.373523 26.907924 57.406982 0
M  V30 31 C 37.900110 24.854510 56.154818 0
M  V30 32 O 38.408381 35.672734 60.406198 0
M  V30 33 O 36.088797 34.138712 61.558875 0
M  V30 34 O 41.283026 34.940131 61.367748 0
M  V30 35 C 36.855995 33.209781 61.325221 0
M  V30 36 H 39.573366 30.640844 59.014102 0
M  V30 37 H 36.746707 37.187025 63.593947 0
M  V30 38 H 37.921434 28.879962 58.736081 0
M  V30 39 H 36.823124 30.017230 57.997138 0
M  V30 40 H 40.575854 36.788525 61.082582 0
M  V30 41 H 38.401580 37.609467 62.028511 0
M  V30 42 H 41.021904 34.538274 64.220556 0
M  V30 43 H 42.488900 35.387328 63.736204 0
M  V30 44 H 41.572244 35.956355 65.114888 0
M  V30 45 H 38.694086 33.121434 56.250348 0
M  V30 46 H 40.045137 32.214404 56.838200 0
M  V30 47 H 39.710797 29.603477 56.954370 0
M  V30 48 H 40.324295 25.323426 58.507860 0
M  V30 49 H 40.872960 32.352292 60.693993 0
M  V30 50 H 40.656775 32.462682 62.352596 0
M  V30 51 H 37.446264 31.103785 55.707018 0
M  V30 52 H 39.605430 31.439841 52.931567 0
M  V30 53 H 38.044434 30.752221 53.371291 0
M  V30 54 H 38.435585 32.410971 53.851121 0
M  V30 55 H 36.941451 26.423329 55.033093 0
M  V30 56 H 41.245140 37.337797 63.046108 0
M  V30 57 H 37.326633 32.544593 58.124755 0
M  V30 58 H 38.861432 33.094303 58.742287 0
M  V30 59 H 39.026049 23.515249 57.416959 0
M  V30 60 H 38.998455 36.137429 64.578525 0
M  V30 61 H 39.289110 37.803293 64.209467 0
M  V30 62 H 38.113354 30.074562 60.970777 0
M  V30 63 H 37.379073 28.754967 55.360160 0
M  V30 64 H 37.468243 35.573203 60.478683 0
M  V30 65 H 41.004391 34.144155 61.799044 0
M  V30 END ATOM
M  V30 BEGIN BOND
M  V30 1 1 6 3
M  V30 2 1 8 1
M  V30 3 1 11 5
M  V30 4 1 14 8
M  V30 5 1 16 4
M  V30 6 1 17 10
M  V30 7 1 17 13
M  V30 8 1 17 14
M  V30 9 1 18 10
M  V30 10 1 21 9
M  V30 11 1 21 12
M  V30 12 1 22 1
M  V30 13 1 22 13
M  V30 14 2 23 15
M  V30 15 1 24 11
M  V30 16 1 24 21
M  V30 17 1 25 1
M  V30 18 1 25 7
M  V30 19 1 26 20
M  V30 20 1 27 6 CFG=1
M  V30 21 1 27 9
M  V30 22 1 27 11
M  V30 23 2 28 3
M  V30 24 1 28 16
M  V30 25 1 28 25
M  V30 26 1 29 14
M  V30 27 1 29 26
M  V30 28 1 30 2
M  V30 29 1 30 15
M  V30 30 2 30 26
M  V30 31 1 31 19
M  V30 32 2 31 20
M  V30 33 1 31 23
M  V30 34 1 32 27
M  V30 35 1 34 9
M  V30 36 1 35 3
M  V30 37 1 35 7
M  V30 38 2 35 33
M  V30 39 1 1 36 CFG=1
M  V30 40 1 37 5
M  V30 41 1 38 8
M  V30 42 1 39 8
M  V30 43 1 9 40 CFG=3
M  V30 44 1 11 41 CFG=3
M  V30 45 1 42 12
M  V30 46 1 43 12
M  V30 47 1 44 12
M  V30 48 1 45 13
M  V30 49 1 46 13
M  V30 50 1 14 47 CFG=1
M  V30 51 1 48 15
M  V30 52 1 49 16
M  V30 53 1 50 16
M  V30 54 1 17 51 CFG=3
M  V30 55 1 52 18
M  V30 56 1 53 18
M  V30 57 1 54 18
M  V30 58 1 55 20
M  V30 59 1 21 56 CFG=3
M  V30 60 1 57 22
M  V30 61 1 58 22
M  V30 62 1 59 23
M  V30 63 1 60 24
M  V30 64 1 61 24
M  V30 65 1 25 62 CFG=1
M  V30 66 1 63 29
M  V30 67 1 64 32
M  V30 68 1 65 34
M  V30 END BOND
M  V30 END CTAB
M  END
>  <i_epik_Tot_Q>  (1) 
-1

>  <i_epik_Tot_abs_Q>  (1) 
1

>  <i_i_glide_confnum>  (1) 
2

>  <i_i_glide_lignum>  (1) 
105

>  <i_i_glide_posenum>  (1) 
86

>  <i_i_glide_rotatable_bonds>  (1) 
10

>  <i_lp_mmshare_version>  (1) 
72125

>  <i_m_source_file_index>  (1) 
51

>  <i_f3d_flags>  (1) 
0

>  <num_sample>  (1) 
100

>  <b_lp_Chiralities_Consistent>  (1) 
1

>  <r_epik_Charging_Adjusted_Penalty>  (1) 
1.033121990919972

>  <r_epik_Ionization_Penalty>  (1) 
0.51659959183111048

>  <r_epik_Ionization_Penalty_Charging>  (1) 
0.51656099545998602

>  <r_epik_Ionization_Penalty_Neutral>  (1) 
3.8596371124435187e-05

>  <r_epik_State_Penalty>  (1) 
0.51656099545998602

>  <r_glide_ring_energy>  (1) 
0

>  <r_i_docking_score>  (1) 
-6.2783622932993204

>  <r_i_glide_ecoul>  (1) 
-1.8412684384460956

>  <r_i_glide_eff_state_penalty>  (1) 
0.51656099545998602

>  <r_i_glide_einternal>  (1) 
7.3743409542912346

>  <r_i_glide_emodel>  (1) 
-59.456537424612549

>  <r_i_glide_emodel_strain>  (1) 
1.3579355983196137

>  <r_i_glide_energy>  (1) 
-45.403363528262545

>  <r_i_glide_erotb>  (1) 
0.38736490325272716

>  <r_i_glide_esite>  (1) 
0

>  <r_i_glide_evdw>  (1) 
-43.562095089816452

>  <r_i_glide_gscore>  (1) 
-6.7949232887593061

>  <r_i_glide_gscore_strain>  (1) 
0

>  <r_i_glide_hbond>  (1) 
-0.10332448515100769

>  <r_i_glide_ligand_efficiency>  (1) 
-0.17938177980855202

>  <r_i_glide_ligand_efficiency_ln>  (1) 
-1.37823986412282

>  <r_i_glide_ligand_efficiency_sa>  (1) 
-0.58676969659342237

>  <r_i_glide_lipo>  (1) 
-3.0365043491353183

>  <r_i_glide_metal>  (1) 
-0

>  <r_i_glide_rewards>  (1) 
-1.5881643374679699

>  <r_lp_Energy>  (1) 
65.937855999999996

>  <r_lp_tautomer_probability>  (1) 
0.99999998906363929

>  <s_epik_cmdline>  (1) 
J2VwaWtfcHl0aG9uJywgJy1waHQnLCAnMS4wJywgJy1waCcsICc3LjQnLCAnLXRuJywgJzgnLCAnLW1hJywgJzUwMCcsICctaW1hZScsICc8aW5maWxlLm1hZT4nLCAnLW9tYWUnLCAnPG91dGZpbGUubWFlPic=

>  <s_epik_input>  (1) 
W09IXVtDQEhdMVtDSDJdW0NAQEhdKFtDSDNdKVtDQEBIXShbT0hdKVtDQEBdMShbT0hdKU9DMj1DKFtDSDJdW09IXSlbQ0BASF0oU0MyPU8pW0NASF0zW0NIMl1bQ0BIXShbQ0BIXShPW0NIM10pW0NIMl1bQ0gyXTMpW05IXWM0W2NIXWMoRilbY0hdW2NIXWM0Rg==

>  <s_glide_docking_method>  (1) 
confgen

>  <s_i_glide_gridfile>  (1) 
gpcr_5ht2c_6bqh_protein_autoprepared_prepared

>  <s_lp_Force_Field>  (1) 
S-OPLS

>  <s_lp_Variant>  (1) 
DiffSBDD_50-3

>  <s_m_source_file>  (1) 
generated_GPCR_5HT2C_ligand_DiffSBDD_2026-06-23_prepared.sdf

>  <GenAI_Model>  (1) 
DiffSBDD

>  <Protein>  (1) 
GPCR_5HT2C

$$$$
DiffSBDD_12
     RDKit          3D

  0  0  0  0  0  0  0  0  0  0999 V3000
M  V30 BEGIN CTAB
M  V30 COUNTS 67 69 0 0 1
M  V30 BEGIN ATOM
M  V30 1 C 39.126224 29.042690 51.122265 0 CFG=1
M  V30 2 C 38.622628 28.288022 59.600871 0
M  V30 3 N 38.422949 28.937880 52.394783 0
M  V30 4 C 37.183934 24.975165 56.804766 0
M  V30 5 O 37.454267 30.722522 54.572261 0
M  V30 6 O 41.113445 30.461278 50.567544 0
M  V30 7 N 40.542419 31.061339 61.666899 0 CHG=-1
M  V30 8 C 41.161017 31.326131 62.849966 0
M  V30 9 O 38.045231 30.641627 61.986871 0
M  V30 10 C 39.243634 29.638296 53.355073 0 CFG=1
M  V30 11 C 40.296488 30.208947 66.253479 0
M  V30 12 S 39.557897 27.492005 55.954405 0
M  V30 13 C 38.774852 27.588323 58.505343 0
M  V30 14 C 38.055980 27.611933 52.873448 0
M  V30 15 C 41.308813 30.709562 65.246208 0 CFG=1
M  V30 16 C 38.126573 28.489450 55.293885 0 CFG=1
M  V30 17 O 39.846909 26.363402 55.056008 0
M  V30 18 O 42.434047 29.586733 66.927244 0
M  V30 19 C 39.844455 30.845207 52.635330 0
M  V30 20 C 42.424628 29.709699 65.511019 0 CFG=2
M  V30 21 C 39.106768 29.720978 59.744395 0
M  V30 22 N 41.091493 29.875413 67.420545 0
M  V30 23 O 42.049794 32.161090 63.008838 0
M  V30 24 O 39.659095 28.716483 62.125915 0
M  V30 25 C 38.570299 29.858870 54.724508 0 CFG=2
M  V30 26 C 37.339481 27.706549 54.221470 0
M  V30 27 C 38.483581 25.311107 57.540186 0
M  V30 28 C 38.884360 26.779475 57.478568 0
M  V30 29 O 40.636128 28.411062 56.347966 0
M  V30 30 C 39.823437 30.433351 51.148003 0 CFG=2
M  V30 31 C 40.054780 27.895442 50.821596 0
M  V30 32 C 43.810113 30.138803 65.015764 0
M  V30 33 S 39.304905 30.022739 61.549833 0
M  V30 34 N 40.748966 30.591900 63.904226 0
M  V30 35 H 38.445062 29.001857 50.290996 0
M  V30 36 H 38.138846 27.855548 60.463363 0
M  V30 37 H 36.845443 23.974627 57.074642 0
M  V30 38 H 36.388013 25.677732 57.055953 0
M  V30 39 H 37.334814 24.976694 55.728870 0
M  V30 40 H 37.106814 30.968039 55.421659 0
M  V30 41 H 41.024560 30.354815 49.632368 0
M  V30 42 H 40.045132 28.964680 53.566562 0
M  V30 43 H 39.529092 30.938516 66.493039 0
M  V30 44 H 39.792753 29.309530 65.897576 0
M  V30 45 H 37.398776 27.129699 52.162250 0
M  V30 46 H 38.934345 26.975804 52.957793 0
M  V30 47 H 41.612025 31.729368 65.492579 0
M  V30 48 H 37.493817 28.697396 56.153623 0
M  V30 49 H 39.244449 31.737836 52.797737 0
M  V30 50 H 40.844357 31.057262 53.008795 0
M  V30 51 H 42.165947 28.736278 65.088212 0
M  V30 52 H 40.068169 29.854172 59.252576 0
M  V30 53 H 38.389959 30.442947 59.354129 0
M  V30 54 H 40.757335 29.011733 67.829916 0
M  V30 55 H 39.267670 30.349843 55.403753 0
M  V30 56 H 36.445182 28.266711 54.026097 0
M  V30 57 H 37.029024 26.727990 54.572758 0
M  V30 58 H 39.304376 24.702658 57.160182 0
M  V30 59 H 38.365110 25.025613 58.584454 0
M  V30 60 H 39.245192 31.154690 50.573908 0
M  V30 61 H 40.445134 28.027364 49.819867 0
M  V30 62 H 40.845151 27.932175 51.562721 0
M  V30 63 H 39.564185 26.923946 50.834604 0
M  V30 64 H 43.832437 30.215355 63.929337 0
M  V30 65 H 44.092992 31.107565 65.429465 0
M  V30 66 H 44.568309 29.413473 65.312150 0
M  V30 67 H 40.023803 29.898154 63.760319 0
M  V30 END ATOM
M  V30 BEGIN BOND
M  V30 1 1 3 1
M  V30 2 1 8 7
M  V30 3 1 10 3
M  V30 4 2 13 2
M  V30 5 1 14 3
M  V30 6 1 15 11
M  V30 7 1 16 12
M  V30 8 2 17 12
M  V30 9 1 19 10
M  V30 10 1 20 15
M  V30 11 1 20 18
M  V30 12 1 21 2
M  V30 13 1 22 11
M  V30 14 1 22 18
M  V30 15 2 23 8
M  V30 16 1 25 5
M  V30 17 1 25 10
M  V30 18 1 25 16
M  V30 19 1 26 14
M  V30 20 1 26 16
M  V30 21 1 27 4
M  V30 22 1 28 12
M  V30 23 2 28 13
M  V30 24 1 28 27
M  V30 25 2 29 12
M  V30 26 1 30 1
M  V30 27 1 30 6
M  V30 28 1 30 19
M  V30 29 1 31 1
M  V30 30 1 32 20
M  V30 31 1 33 7
M  V30 32 2 33 9
M  V30 33 1 33 21
M  V30 34 2 33 24
M  V30 35 1 34 8
M  V30 36 1 34 15
M  V30 37 1 1 35 CFG=3
M  V30 38 1 36 2
M  V30 39 1 37 4
M  V30 40 1 38 4
M  V30 41 1 39 4
M  V30 42 1 40 5
M  V30 43 1 41 6
M  V30 44 1 10 42 CFG=1
M  V30 45 1 43 11
M  V30 46 1 44 11
M  V30 47 1 45 14
M  V30 48 1 46 14
M  V30 49 1 15 47 CFG=1
M  V30 50 1 16 48 CFG=1
M  V30 51 1 49 19
M  V30 52 1 50 19
M  V30 53 1 20 51 CFG=3
M  V30 54 1 52 21
M  V30 55 1 53 21
M  V30 56 1 54 22
M  V30 57 1 25 55 CFG=1
M  V30 58 1 56 26
M  V30 59 1 57 26
M  V30 60 1 58 27
M  V30 61 1 59 27
M  V30 62 1 30 60 CFG=3
M  V30 63 1 61 31
M  V30 64 1 62 31
M  V30 65 1 63 31
M  V30 66 1 64 32
M  V30 67 1 65 32
M  V30 68 1 66 32
M  V30 69 1 67 34
M  V30 END BOND
M  V30 END CTAB
M  END
>  <i_epik_Tot_Q>  (1) 
-1

>  <i_epik_Tot_abs_Q>  (1) 
1

>  <i_i_glide_confnum>  (1) 
138

>  <i_i_glide_lignum>  (1) 
21

>  <i_i_glide_posenum>  (1) 
85

>  <i_i_glide_rotatable_bonds>  (1) 
11

>  <i_lp_mmshare_version>  (1) 
72125

>  <i_m_source_file_index>  (1) 
13

>  <i_f3d_flags>  (1) 
0

>  <num_sample>  (1) 
100

>  <b_lp_Chiralities_Consistent>  (1) 
1

>  <r_epik_Charging_Adjusted_Penalty>  (1) 
0.54032877013992786

>  <r_epik_Ionization_Penalty>  (1) 
0.54134665641143098

>  <r_epik_Ionization_Penalty_Charging>  (1) 
0.00017066470294595392

>  <r_epik_Ionization_Penalty_Neutral>  (1) 
0.54117599170848507

>  <r_epik_State_Penalty>  (1) 
0.54015810543698195

>  <r_glide_ring_energy>  (1) 
0

>  <r_i_docking_score>  (1) 
-6.2757034055197192

>  <r_i_glide_ecoul>  (1) 
-4.8135508401985145

>  <r_i_glide_eff_state_penalty>  (1) 
0.54015810543698195

>  <r_i_glide_einternal>  (1) 
4.3569665563321784

>  <r_i_glide_emodel>  (1) 
-56.304279338023058

>  <r_i_glide_emodel_strain>  (1) 
2.2388626879453568

>  <r_i_glide_energy>  (1) 
-46.548682645437928

>  <r_i_glide_erotb>  (1) 
0.6799936626702181

>  <r_i_glide_esite>  (1) 
0

>  <r_i_glide_evdw>  (1) 
-41.735131805239412

>  <r_i_glide_gscore>  (1) 
-6.8158615109567009

>  <r_i_glide_gscore_strain>  (1) 
0

>  <r_i_glide_hbond>  (1) 
-0.00087838288251722188

>  <r_i_glide_ligand_efficiency>  (1) 
-0.18457951192705058

>  <r_i_glide_ligand_efficiency_ln>  (1) 
-1.3864789097973815

>  <r_i_glide_ligand_efficiency_sa>  (1) 
-0.59796596511291111

>  <r_i_glide_lipo>  (1) 
-4.0836679056386558

>  <r_i_glide_metal>  (1) 
-0

>  <r_i_glide_rewards>  (1) 
-0.60251966881399865

>  <r_lp_Energy>  (1) 
-18.368317999999999

>  <s_epik_Chemistry_Notes>  (1) 
This compound has a N-S or N-O group and may undergo hydrolysis at high or low pH.

>  <s_epik_cmdline>  (1) 
J2VwaWtfcHl0aG9uJywgJy1waHQnLCAnMS4wJywgJy1waCcsICc3LjQnLCAnLXRuJywgJzgnLCAnLW1hJywgJzUwMCcsICctaW1hZScsICc8aW5maWxlLm1hZT4nLCAnLW9tYWUnLCAnPG91dGZpbGUubWFlPic=

>  <s_epik_input>  (1) 
W0NIM11bQ0BASF0xW0NASF0oW09IXSlbQ0gyXVtDQEhdKE4xMilbQ0BASF0oW09IXSlbQ0BASF0oW0NIMl1bQ0gyXTIpUyg9TykoPU8pQyhbQ0gyXVtDSDNdKT1DPVtDSF1bQ0gyXVMoPU8pKD1PKVtOSF1DKD1PKVtOSF1bQ0BIXTNbQ0gyXVtOSF1PW0NAQEhdM1tDSDNd

>  <s_glide_docking_method>  (1) 
confgen

>  <s_i_glide_gridfile>  (1) 
gpcr_5ht2c_6bqh_protein_autoprepared_prepared

>  <s_lp_Force_Field>  (1) 
S-OPLS

>  <s_lp_Variant>  (1) 
DiffSBDD_12-3

>  <s_m_source_file>  (1) 
generated_GPCR_5HT2C_ligand_DiffSBDD_2026-06-23_prepared.sdf

>  <GenAI_Model>  (1) 
DiffSBDD

>  <Protein>  (1) 
GPCR_5HT2C

$$$$
DiffSBDD_83
     RDKit          3D

  0  0  0  0  0  0  0  0  0  0999 V3000
M  V30 BEGIN CTAB
M  V30 COUNTS 54 55 0 0 1
M  V30 BEGIN ATOM
M  V30 1 C 36.854834 37.218999 62.201370 0
M  V30 2 C 39.939791 29.784025 60.217944 0
M  V30 3 N 40.403576 29.545966 61.447626 0
M  V30 4 O 38.045150 25.329681 58.195559 0
M  V30 5 O 35.970402 37.658510 63.114036 0
M  V30 6 C 37.734229 35.051885 61.315264 0
M  V30 7 C 38.865665 35.732902 60.566469 0
M  V30 8 C 37.423530 24.638108 56.188054 0
M  V30 9 C 39.345483 29.912224 54.268512 0
M  V30 10 C 36.823158 35.727760 62.063279 0
M  V30 11 C 40.187465 28.790614 59.117209 0
M  V30 12 C 38.809940 32.825953 61.968663 0
M  V30 13 N 40.014803 30.632835 62.137850 0
M  V30 14 O 36.043025 36.937771 64.385072 0
M  V30 15 C 38.733400 27.509454 57.327782 0 CFG=1
M  V30 16 C 37.434063 29.725638 56.822434 0
M  V30 17 C 37.829378 24.317604 57.364790 0
M  V30 18 O 37.580231 37.968934 61.550532 0
M  V30 19 C 37.619757 26.429683 57.345562 0 CFG=1
M  V30 20 C 39.235986 31.030118 60.136958 0
M  V30 21 O 37.294719 25.954384 56.005801 0
M  V30 22 C 39.624507 29.274595 55.638085 0
M  V30 23 C 38.376147 28.627587 56.283225 0 CFG=1
M  V30 24 C 39.318376 31.541161 61.392510 0
M  V30 25 Cl 37.063758 23.481451 54.967681 0
M  V30 26 C 37.687138 33.535394 61.175561 0
M  V30 27 C 38.915908 27.990866 58.798376 0
M  V30 28 H 40.233216 30.738450 63.119411 0
M  V30 29 H 39.533143 34.995203 60.122562 0
M  V30 30 H 38.445536 36.349257 59.769560 0
M  V30 31 H 39.475748 36.344954 61.231976 0
M  V30 32 H 40.252098 30.356107 53.855162 0
M  V30 33 H 38.983060 29.171549 53.554810 0
M  V30 34 H 38.600376 30.705388 54.337073 0
M  V30 35 H 36.044231 35.187786 62.581710 0
M  V30 36 H 40.538109 29.327197 58.242174 0
M  V30 37 H 40.998588 28.109537 59.379886 0
M  V30 38 H 39.662587 33.495962 62.084914 0
M  V30 39 H 38.444535 32.637638 62.967756 0
M  V30 40 H 35.359463 36.282994 64.286307 0
M  V30 41 H 39.637978 26.990780 57.007339 0
M  V30 42 H 37.952315 30.406144 57.493365 0
M  V30 43 H 37.028675 30.327093 56.009307 0
M  V30 44 H 36.582324 29.319753 57.367457 0
M  V30 45 H 38.011274 23.337838 57.777662 0
M  V30 46 H 36.700126 26.835960 57.766829 0
M  V30 47 H 38.759468 31.477723 59.278690 0
M  V30 48 H 40.036778 30.044124 56.288863 0
M  V30 49 H 40.406849 28.526182 55.509910 0
M  V30 50 H 37.852154 28.152379 55.455573 0
M  V30 51 H 36.713706 33.141827 61.471394 0
M  V30 52 H 37.776108 33.332705 60.108162 0
M  V30 53 H 38.908961 27.148620 59.485881 0
M  V30 54 H 38.040020 28.570235 59.088827 0
M  V30 END ATOM
M  V30 BEGIN BOND
M  V30 1 2 3 2
M  V30 2 1 5 1
M  V30 3 1 7 6
M  V30 4 1 10 1
M  V30 5 2 10 6
M  V30 6 1 11 2
M  V30 7 1 13 3
M  V30 8 1 14 5
M  V30 9 1 17 4
M  V30 10 2 17 8
M  V30 11 2 18 1
M  V30 12 1 19 4
M  V30 13 1 19 15
M  V30 14 1 20 2
M  V30 15 1 21 8
M  V30 16 1 21 19
M  V30 17 1 22 9
M  V30 18 1 23 15
M  V30 19 1 23 16
M  V30 20 1 23 22
M  V30 21 1 24 12
M  V30 22 1 24 13
M  V30 23 2 24 20
M  V30 24 1 25 8
M  V30 25 1 26 6
M  V30 26 1 26 12
M  V30 27 1 27 11
M  V30 28 1 27 15
M  V30 29 1 28 13
M  V30 30 1 29 7
M  V30 31 1 30 7
M  V30 32 1 31 7
M  V30 33 1 32 9
M  V30 34 1 33 9
M  V30 35 1 34 9
M  V30 36 1 35 10
M  V30 37 1 36 11
M  V30 38 1 37 11
M  V30 39 1 38 12
M  V30 40 1 39 12
M  V30 41 1 40 14
M  V30 42 1 15 41 CFG=3
M  V30 43 1 42 16
M  V30 44 1 43 16
M  V30 45 1 44 16
M  V30 46 1 45 17
M  V30 47 1 19 46 CFG=1
M  V30 48 1 47 20
M  V30 49 1 48 22
M  V30 50 1 49 22
M  V30 51 1 23 50 CFG=3
M  V30 52 1 51 26
M  V30 53 1 52 26
M  V30 54 1 53 27
M  V30 55 1 54 27
M  V30 END BOND
M  V30 END CTAB
M  END
>  <i_epik_Tot_Q>  (1) 
0

>  <i_epik_Tot_abs_Q>  (1) 
0

>  <i_i_glide_confnum>  (1) 
1892

>  <i_i_glide_lignum>  (1) 
195

>  <i_i_glide_posenum>  (1) 
224

>  <i_i_glide_rotatable_bonds>  (1) 
12

>  <i_lp_mmshare_version>  (1) 
72125

>  <i_m_source_file_index>  (1) 
84

>  <i_f3d_flags>  (1) 
0

>  <num_sample>  (1) 
100

>  <b_lp_Chiralities_Consistent>  (1) 
1

>  <r_epik_Charging_Adjusted_Penalty>  (1) 
0.41067983895260396

>  <r_epik_Ionization_Penalty>  (1) 
0.00090540554532319911

>  <r_epik_Ionization_Penalty_Charging>  (1) 
0

>  <r_epik_Ionization_Penalty_Neutral>  (1) 
0.00090540554532319911

>  <r_epik_State_Penalty>  (1) 
0.41067983895260396

>  <r_glide_ring_energy>  (1) 
0

>  <r_i_docking_score>  (1) 
-6.275127105629462

>  <r_i_glide_ecoul>  (1) 
-6.2296004104332869

>  <r_i_glide_eff_state_penalty>  (1) 
0.41067983895260396

>  <r_i_glide_einternal>  (1) 
13.884236343615708

>  <r_i_glide_emodel>  (1) 
-50.0069434769173

>  <r_i_glide_emodel_strain>  (1) 
0.61216795991496298

>  <r_i_glide_energy>  (1) 
-40.868735328858506

>  <r_i_glide_erotb>  (1) 
1.1080255732668134

>  <r_i_glide_esite>  (1) 
-0.0018656695431655502

>  <r_i_glide_evdw>  (1) 
-34.639134918425221

>  <r_i_glide_gscore>  (1) 
-6.6858069445820663

>  <r_i_glide_gscore_strain>  (1) 
0

>  <r_i_glide_hbond>  (1) 
-0.39626005830025812

>  <r_i_glide_ligand_efficiency>  (1) 
-0.23241211502331341

>  <r_i_glide_ligand_efficiency_ln>  (1) 
-1.4607461366348677

>  <r_i_glide_ligand_efficiency_sa>  (1) 
-0.69723634506994037

>  <r_i_glide_lipo>  (1) 
-2.948451017085175

>  <r_i_glide_metal>  (1) 
-0

>  <r_i_glide_rewards>  (1) 
-1.7808589654340268

>  <r_lp_Energy>  (1) 
13.076443999999999

>  <r_lp_tautomer_probability>  (1) 
0.5

>  <s_epik_Chemistry_Notes>  (1) 
This compound contains an acetal/aminal-like group ( X-CH(R)-Y where X, Y are N, S, or O) that may be acid/base labile, releasing an aldehyde.

>  <s_epik_cmdline>  (1) 
J2VwaWtfcHl0aG9uJywgJy1waHQnLCAnMS4wJywgJy1waCcsICc3LjQnLCAnLXRuJywgJzgnLCAnLW1hJywgJzUwMCcsICctaW1hZScsICc8aW5maWxlLm1hZT4nLCAnLW9tYWUnLCAnPG91dGZpbGUubWFlPic=

>  <s_epik_input>  (1) 
W09IXU9DKD1PKS9bQ0hdPUMoXFtDSDNdKVtDSDJdW0NIMl1jKFtjSF0xKW5bbkhdYzFbQ0gyXVtDSDJdW0NASF0oW0NAQEhdKFtDSDNdKVtDSDJdW0NIM10pW0NAQEhdKE8yKU9bQ0hdPUMyQ2w=

>  <s_glide_docking_method>  (1) 
confgen

>  <s_i_glide_gridfile>  (1) 
gpcr_5ht2c_6bqh_protein_autoprepared_prepared

>  <s_lp_Force_Field>  (1) 
S-OPLS

>  <s_lp_Variant>  (1) 
DiffSBDD_83-6

>  <s_m_source_file>  (1) 
generated_GPCR_5HT2C_ligand_DiffSBDD_2026-06-23_prepared.sdf

>  <GenAI_Model>  (1) 
DiffSBDD

>  <Protein>  (1) 
GPCR_5HT2C

$$$$
DiffSBDD_75
     RDKit          3D

  0  0  0  0  0  0  0  0  0  0999 V3000
M  V30 BEGIN CTAB
M  V30 COUNTS 77 78 0 0 1
M  V30 BEGIN ATOM
M  V30 1 C 37.312829 31.734325 59.910290 0
M  V30 2 C 38.728340 31.732868 56.547032 0
M  V30 3 O 41.092535 27.812186 57.090804 0
M  V30 4 C 36.393944 35.062708 59.945227 0
M  V30 5 C 38.472941 26.166995 56.714960 0 CFG=2
M  V30 6 C 41.245155 33.993043 63.730739 0
M  V30 7 C 39.800530 28.380789 57.078122 0 CFG=2
M  V30 8 C 41.302041 35.168315 64.509237 0
M  V30 9 O 36.445131 24.937736 56.335220 0
M  V30 10 C 39.127434 27.628300 54.647405 0 CFG=1
M  V30 11 O 41.451043 33.737751 67.901829 0
M  V30 12 S 37.711056 29.405352 58.609684 0
M  V30 13 C 37.072843 36.372981 60.353786 0
M  V30 14 C 41.384798 33.820513 66.541504 0
M  V30 15 C 39.311876 28.544033 58.526051 0
M  V30 16 C 41.169758 34.088055 62.217432 0
M  V30 17 C 41.260647 32.731315 64.361078 0
M  V30 18 O 36.866152 27.737751 53.737525 0
M  V30 19 C 39.350810 29.054436 54.084835 0
M  V30 20 C 38.805185 27.594023 56.172313 0 CFG=1
M  V30 21 O 36.845138 37.337754 59.369165 0
M  V30 22 O 38.045140 32.024923 57.744293 0
M  V30 23 O 39.129708 32.004926 62.132180 0
M  V30 24 C 35.590223 33.337777 61.529920 0
M  V30 25 N 36.761022 34.005564 60.914460 0 CFG=1 CHG=1
M  V30 26 C 38.926253 33.013374 61.459935 0
M  V30 27 C 41.371846 35.081254 65.913058 0
M  V30 28 C 39.745420 34.290976 61.677512 0
M  V30 29 C 37.826368 33.108149 60.390854 0 CFG=1
M  V30 30 C 41.329561 32.645498 65.764932 0
M  V30 31 C 37.645115 25.529338 54.340784 0
M  V30 32 C 38.215069 31.133644 58.839568 0 CFG=1
M  V30 33 C 39.663796 25.202320 56.889883 0
M  V30 34 C 38.022992 26.925819 53.814900 0 CFG=2
M  V30 35 C 37.420906 25.494876 55.844446 0
M  V30 36 H 37.198126 31.043328 60.746946 0
M  V30 37 H 36.323538 31.827364 59.459457 0
M  V30 38 H 38.573659 32.544229 55.836030 0
M  V30 39 H 39.798645 31.625567 56.704251 0
M  V30 40 H 38.322439 30.828594 56.100492 0
M  V30 41 H 41.418265 27.763533 56.204892 0
M  V30 42 H 36.675004 34.783077 58.927687 0
M  V30 43 H 35.313823 35.196714 59.897221 0
M  V30 44 H 39.944118 29.379434 56.688513 0
M  V30 45 H 41.292086 36.136895 64.030323 0
M  V30 46 H 36.782999 25.125840 53.810659 0
M  V30 47 H 40.045118 27.060706 54.499034 0
M  V30 48 H 41.468897 32.849603 68.223691 0
M  V30 49 H 36.683864 36.730082 61.307832 0
M  V30 50 H 38.149921 36.254204 60.460729 0
M  V30 51 H 40.049852 29.079929 59.122963 0
M  V30 52 H 39.203697 27.570648 59.003673 0
M  V30 53 H 41.751918 34.953936 61.907111 0
M  V30 54 H 41.647519 33.218528 61.763086 0
M  V30 55 H 41.218492 31.829297 63.768190 0
M  V30 56 H 36.544373 27.896724 54.611364 0
M  V30 57 H 38.465848 29.680260 54.190522 0
M  V30 58 H 40.173246 29.579634 54.567777 0
M  V30 59 H 39.584538 29.017272 53.020346 0
M  V30 60 H 37.866613 28.142906 56.235137 0
M  V30 61 H 36.915762 38.196679 59.767767 0
M  V30 62 H 34.895417 32.952602 60.782234 0
M  V30 63 H 35.920848 32.506364 62.152585 0
M  V30 64 H 35.046318 34.038867 62.163937 0
M  V30 65 H 41.415239 35.982788 66.507696 0
M  V30 66 H 39.195821 34.987929 62.310296 0
M  V30 67 H 39.836264 34.765580 60.700391 0
M  V30 68 H 38.286773 33.606954 59.537563 0
M  V30 69 H 41.340204 31.677880 66.244663 0
M  V30 70 H 38.468787 24.846932 54.167792 0
M  V30 71 H 38.002482 26.276768 57.691874 0
M  V30 72 H 39.245129 31.160889 59.184169 0
M  V30 73 H 39.334597 24.172900 57.042508 0
M  V30 74 H 40.324149 25.210328 56.022820 0
M  V30 75 H 40.257433 25.463546 57.765658 0
M  V30 76 H 38.381174 26.811240 52.790691 0
M  V30 77 H 37.197673 34.501219 61.678383 0
M  V30 END ATOM
M  V30 BEGIN BOND
M  V30 1 1 7 3
M  V30 2 1 8 6
M  V30 3 1 13 4
M  V30 4 1 14 11
M  V30 5 1 15 7
M  V30 6 1 15 12
M  V30 7 1 16 6
M  V30 8 2 17 6
M  V30 9 1 19 10
M  V30 10 1 20 5
M  V30 11 1 20 7
M  V30 12 1 20 10
M  V30 13 1 21 13
M  V30 14 1 22 2
M  V30 15 1 25 4
M  V30 16 1 25 24
M  V30 17 2 26 23
M  V30 18 2 27 8
M  V30 19 1 27 14
M  V30 20 1 28 16
M  V30 21 1 28 26
M  V30 22 1 29 1
M  V30 23 1 29 25
M  V30 24 1 29 26
M  V30 25 2 30 14
M  V30 26 1 30 17
M  V30 27 1 32 1
M  V30 28 1 32 12
M  V30 29 1 32 22
M  V30 30 1 33 5
M  V30 31 1 34 10
M  V30 32 1 34 18
M  V30 33 1 34 31
M  V30 34 1 35 5
M  V30 35 2 35 9
M  V30 36 1 35 31
M  V30 37 1 36 1
M  V30 38 1 37 1
M  V30 39 1 38 2
M  V30 40 1 39 2
M  V30 41 1 40 2
M  V30 42 1 41 3
M  V30 43 1 42 4
M  V30 44 1 43 4
M  V30 45 1 7 44 CFG=3
M  V30 46 1 45 8
M  V30 47 1 46 31
M  V30 48 1 10 47 CFG=1
M  V30 49 1 48 11
M  V30 50 1 49 13
M  V30 51 1 50 13
M  V30 52 1 51 15
M  V30 53 1 52 15
M  V30 54 1 53 16
M  V30 55 1 54 16
M  V30 56 1 55 17
M  V30 57 1 56 18
M  V30 58 1 57 19
M  V30 59 1 58 19
M  V30 60 1 59 19
M  V30 61 1 20 60 CFG=3
M  V30 62 1 61 21
M  V30 63 1 62 24
M  V30 64 1 63 24
M  V30 65 1 64 24
M  V30 66 1 65 27
M  V30 67 1 66 28
M  V30 68 1 67 28
M  V30 69 1 29 68 CFG=3
M  V30 70 1 69 30
M  V30 71 1 70 31
M  V30 72 1 5 71 CFG=1
M  V30 73 1 32 72 CFG=1
M  V30 74 1 73 33
M  V30 75 1 74 33
M  V30 76 1 75 33
M  V30 77 1 34 76 CFG=3
M  V30 78 1 25 77 CFG=1
M  V30 END BOND
M  V30 END CTAB
M  END
>  <i_epik_Tot_Q>  (1) 
1

>  <i_epik_Tot_abs_Q>  (1) 
1

>  <i_i_glide_confnum>  (1) 
1854

>  <i_i_glide_lignum>  (1) 
171

>  <i_i_glide_posenum>  (1) 
98

>  <i_i_glide_rotatable_bonds>  (1) 
18

>  <i_lp_mmshare_version>  (1) 
72125

>  <i_m_source_file_index>  (1) 
76

>  <i_f3d_flags>  (1) 
0

>  <num_sample>  (1) 
100

>  <b_lp_Chiralities_Consistent>  (1) 
1

>  <r_epik_Charging_Adjusted_Penalty>  (1) 
0.52789471212939676

>  <r_epik_Ionization_Penalty>  (1) 
0.26592108790513191

>  <r_epik_Ionization_Penalty_Charging>  (1) 
0.26394735606469838

>  <r_epik_Ionization_Penalty_Neutral>  (1) 
0.0019737318404335234

>  <r_epik_State_Penalty>  (1) 
0.26394735606469838

>  <r_glide_ring_energy>  (1) 
0

>  <r_i_docking_score>  (1) 
-6.2750366990075035

>  <r_i_glide_ecoul>  (1) 
-0.84157284891122375

>  <r_i_glide_eff_state_penalty>  (1) 
0.26394735606469838

>  <r_i_glide_einternal>  (1) 
11.205590997336731

>  <r_i_glide_emodel>  (1) 
-66.109805410954095

>  <r_i_glide_emodel_strain>  (1) 
2.0662368192213805

>  <r_i_glide_energy>  (1) 
-48.110897435004389

>  <r_i_glide_erotb>  (1) 
1.0139394581015995

>  <r_i_glide_esite>  (1) 
0

>  <r_i_glide_evdw>  (1) 
-47.269324586093163

>  <r_i_glide_gscore>  (1) 
-6.538984055072202

>  <r_i_glide_gscore_strain>  (1) 
0

>  <r_i_glide_hbond>  (1) 
-0.1340683398113891

>  <r_i_glide_ligand_efficiency>  (1) 
-0.17928676282878581

>  <r_i_glide_ligand_efficiency_ln>  (1) 
-1.3775098223681776

>  <r_i_glide_ligand_efficiency_sa>  (1) 
-0.58645888975201332

>  <r_i_glide_lipo>  (1) 
-3.874471983011917

>  <r_i_glide_metal>  (1) 
-0

>  <r_i_glide_rewards>  (1) 
-1.0546810337091546

>  <r_lp_Energy>  (1) 
30.750938999999999

>  <r_lp_tautomer_probability>  (1) 
0.99989998499911525

>  <s_epik_Chemistry_Notes>  (1) 
This compound contains an acetal/aminal-like group ( X-CH(R)-Y where X, Y are N, S, or O) that may be acid/base labile, releasing an aldehyde.

>  <s_epik_cmdline>  (1) 
J2VwaWtfcHl0aG9uJywgJy1waHQnLCAnMS4wJywgJy1waCcsICc3LjQnLCAnLXRuJywgJzgnLCAnLW1hJywgJzUwMCcsICctaW1hZScsICc8aW5maWxlLm1hZT4nLCAnLW9tYWUnLCAnPG91dGZpbGUubWFlPic=

>  <s_epik_input>  (1) 
W2NIXTFbY0hdYyhbT0hdKVtjSF1bY0hdYzFbQ0gyXVtDSDJdQyg9TylbQ0BIXShOKFtDSDNdKVtDSDJdW0NIMl1bT0hdKVtDSDJdW0NASF0oT1tDSDNdKVNbQ0gyXVtDQEBIXShbT0hdKVtDQEhdMltDQEBIXShbQ0gzXSlbQ0BIXShbT0hdKVtDSDJdQyhbT0hdKT1DMltDSDNd

>  <s_glide_docking_method>  (1) 
confgen

>  <s_i_glide_gridfile>  (1) 
gpcr_5ht2c_6bqh_protein_autoprepared_prepared

>  <s_lp_Force_Field>  (1) 
S-OPLS

>  <s_lp_Variant>  (1) 
DiffSBDD_75-8

>  <s_m_source_file>  (1) 
generated_GPCR_5HT2C_ligand_DiffSBDD_2026-06-23_prepared.sdf

>  <GenAI_Model>  (1) 
DiffSBDD

>  <Protein>  (1) 
GPCR_5HT2C

$$$$
DiffSBDD_83
     RDKit          3D

  0  0  0  0  0  0  0  0  0  0999 V3000
M  V30 BEGIN CTAB
M  V30 COUNTS 54 55 0 0 1
M  V30 BEGIN ATOM
M  V30 1 C 41.333110 34.439977 63.371124 0
M  V30 2 C 37.699580 30.882493 58.350011 0
M  V30 3 N 37.275710 30.547434 59.601897 0
M  V30 4 O 39.450779 31.131343 53.303997 0
M  V30 5 O 42.232560 34.838506 64.321192 0
M  V30 6 C 39.325752 35.313146 62.141791 0
M  V30 7 C 38.319494 36.413371 61.845131 0
M  V30 8 C 39.751997 29.693414 51.637081 0
M  V30 9 C 39.346532 25.771575 55.940293 0
M  V30 10 C 40.318799 35.502988 63.055000 0
M  V30 11 C 37.707190 29.889076 57.225431 0
M  V30 12 C 37.930693 33.938997 60.390964 0
M  V30 13 N 37.318620 31.560132 60.482507 0
M  V30 14 O 41.745470 35.737657 65.363611 0
M  V30 15 C 38.377774 29.416366 54.720519 0 CFG=1
M  V30 16 C 37.389819 27.200636 53.844988 0
M  V30 17 C 39.645137 30.921762 52.000007 0
M  V30 18 O 41.381671 33.338545 62.828473 0
M  V30 19 C 39.547966 29.761935 53.763312 0 CFG=1
M  V30 20 C 38.044703 32.203384 58.395100 0
M  V30 21 O 39.644559 28.830369 52.643167 0
M  V30 22 C 39.559840 27.116183 55.227879 0
M  V30 23 C 38.244967 27.871558 54.938784 0 CFG=1
M  V30 24 C 37.775493 32.584183 59.753023 0
M  V30 25 Cl 40.021345 29.207511 50.004801 0
M  V30 26 C 39.137142 34.003438 61.350214 0
M  V30 27 C 38.603602 30.244720 56.023281 0
M  V30 28 H 36.944948 29.631910 59.869191 0
M  V30 29 H 37.314216 36.106422 62.134129 0
M  V30 30 H 38.561194 37.320233 62.402165 0
M  V30 31 H 38.319134 36.675115 60.787711 0
M  V30 32 H 40.299892 25.296612 56.170321 0
M  V30 33 H 38.812065 25.898632 56.881652 0
M  V30 34 H 38.777735 25.075763 55.323763 0
M  V30 35 H 40.390373 36.446441 63.573212 0
M  V30 36 H 38.028302 28.929685 57.630517 0
M  V30 37 H 36.683435 29.746553 56.879641 0
M  V30 38 H 37.007556 34.177873 60.923609 0
M  V30 39 H 38.043189 34.686734 59.606248 0
M  V30 40 H 41.984999 36.595083 65.014498 0
M  V30 41 H 37.458519 29.778613 54.257821 0
M  V30 42 H 37.897014 27.161108 52.882623 0
M  V30 43 H 37.140370 26.174814 54.116501 0
M  V30 44 H 36.451867 27.737093 53.697597 0
M  V30 45 H 39.693436 31.808718 51.393910 0
M  V30 46 H 40.483320 29.737778 54.310858 0
M  V30 47 H 38.411629 32.813710 57.583880 0
M  V30 48 H 40.091789 26.933976 54.294630 0
M  V30 49 H 40.209456 27.732168 55.849022 0
M  V30 50 H 37.646130 27.734381 55.833572 0
M  V30 51 H 40.038785 33.801161 60.769148 0
M  V30 52 H 39.017294 33.192039 62.067375 0
M  V30 53 H 38.433375 31.291455 55.766607 0
M  V30 54 H 39.641168 30.185585 56.352034 0
M  V30 END ATOM
M  V30 BEGIN BOND
M  V30 1 1 3 2
M  V30 2 1 5 1
M  V30 3 1 7 6
M  V30 4 1 10 1
M  V30 5 2 10 6
M  V30 6 1 11 2
M  V30 7 1 13 3
M  V30 8 1 14 5
M  V30 9 1 17 4
M  V30 10 2 17 8
M  V30 11 2 18 1
M  V30 12 1 19 4
M  V30 13 1 19 15
M  V30 14 2 20 2
M  V30 15 1 21 8
M  V30 16 1 21 19
M  V30 17 1 22 9
M  V30 18 1 23 15
M  V30 19 1 23 16
M  V30 20 1 23 22
M  V30 21 1 24 12
M  V30 22 2 24 13
M  V30 23 1 24 20
M  V30 24 1 25 8
M  V30 25 1 26 6
M  V30 26 1 26 12
M  V30 27 1 27 11
M  V30 28 1 27 15
M  V30 29 1 28 3
M  V30 30 1 29 7
M  V30 31 1 30 7
M  V30 32 1 31 7
M  V30 33 1 32 9
M  V30 34 1 33 9
M  V30 35 1 34 9
M  V30 36 1 35 10
M  V30 37 1 36 11
M  V30 38 1 37 11
M  V30 39 1 38 12
M  V30 40 1 39 12
M  V30 41 1 40 14
M  V30 42 1 15 41 CFG=3
M  V30 43 1 42 16
M  V30 44 1 43 16
M  V30 45 1 44 16
M  V30 46 1 45 17
M  V30 47 1 19 46 CFG=1
M  V30 48 1 47 20
M  V30 49 1 48 22
M  V30 50 1 49 22
M  V30 51 1 23 50 CFG=1
M  V30 52 1 51 26
M  V30 53 1 52 26
M  V30 54 1 53 27
M  V30 55 1 54 27
M  V30 END BOND
M  V30 END CTAB
M  END
>  <i_epik_Tot_Q>  (1) 
0

>  <i_epik_Tot_abs_Q>  (1) 
0

>  <i_i_glide_confnum>  (1) 
2015

>  <i_i_glide_lignum>  (1) 
190

>  <i_i_glide_posenum>  (1) 
231

>  <i_i_glide_rotatable_bonds>  (1) 
12

>  <i_lp_mmshare_version>  (1) 
72125

>  <i_m_source_file_index>  (1) 
84

>  <i_f3d_flags>  (1) 
0

>  <num_sample>  (1) 
100

>  <b_lp_Chiralities_Consistent>  (1) 
1

>  <r_epik_Charging_Adjusted_Penalty>  (1) 
0.41067983895260396

>  <r_epik_Ionization_Penalty>  (1) 
0.00076996626271645392

>  <r_epik_Ionization_Penalty_Charging>  (1) 
0

>  <r_epik_Ionization_Penalty_Neutral>  (1) 
0.00076996626271645392

>  <r_epik_State_Penalty>  (1) 
0.41067983895260396

>  <r_glide_ring_energy>  (1) 
0

>  <r_i_docking_score>  (1) 
-6.2741048917621134

>  <r_i_glide_ecoul>  (1) 
-5.8160202498814622

>  <r_i_glide_eff_state_penalty>  (1) 
0.41067983895260396

>  <r_i_glide_einternal>  (1) 
17.694099123054553

>  <r_i_glide_emodel>  (1) 
-51.197609392599077

>  <r_i_glide_emodel_strain>  (1) 
0.15815076066751033

>  <r_i_glide_energy>  (1) 
-42.834661854274749

>  <r_i_glide_erotb>  (1) 
1.1080255732668134

>  <r_i_glide_esite>  (1) 
-0.066141927678409831

>  <r_i_glide_evdw>  (1) 
-37.018641604393288

>  <r_i_glide_gscore>  (1) 
-6.6847847307147177

>  <r_i_glide_gscore_strain>  (1) 
0

>  <r_i_glide_hbond>  (1) 
-0.32000000000000001

>  <r_i_glide_ligand_efficiency>  (1) 
-0.23237425525044864

>  <r_i_glide_ligand_efficiency_ln>  (1) 
-1.4605081820990617

>  <r_i_glide_ligand_efficiency_sa>  (1) 
-0.69712276575134602

>  <r_i_glide_lipo>  (1) 
-2.7772190679126374

>  <r_i_glide_metal>  (1) 
-0

>  <r_i_glide_rewards>  (1) 
-1.9061141906885997

>  <r_lp_Energy>  (1) 
15.920629999999999

>  <r_lp_tautomer_probability>  (1) 
0.5

>  <s_epik_Chemistry_Notes>  (1) 
This compound contains an acetal/aminal-like group ( X-CH(R)-Y where X, Y are N, S, or O) that may be acid/base labile, releasing an aldehyde.

>  <s_epik_cmdline>  (1) 
J2VwaWtfcHl0aG9uJywgJy1waHQnLCAnMS4wJywgJy1waCcsICc3LjQnLCAnLXRuJywgJzgnLCAnLW1hJywgJzUwMCcsICctaW1hZScsICc8aW5maWxlLm1hZT4nLCAnLW9tYWUnLCAnPG91dGZpbGUubWFlPic=

>  <s_epik_input>  (1) 
W09IXU9DKD1PKVxbQ0hdPUMoXFtDSDNdKVtDSDJdW0NIMl1jKFtjSF0xKW5bbkhdYzFbQ0gyXVtDSDJdW0NASF0oW0NAQEhdKFtDSDNdKVtDSDJdW0NIM10pW0NAQEhdKE8yKU9bQ0hdPUMyQ2w=

>  <s_glide_docking_method>  (1) 
confgen

>  <s_i_glide_gridfile>  (1) 
gpcr_5ht2c_6bqh_protein_autoprepared_prepared

>  <s_lp_Force_Field>  (1) 
S-OPLS

>  <s_lp_Variant>  (1) 
DiffSBDD_83-1

>  <s_m_source_file>  (1) 
generated_GPCR_5HT2C_ligand_DiffSBDD_2026-06-23_prepared.sdf

>  <GenAI_Model>  (1) 
DiffSBDD

>  <Protein>  (1) 
GPCR_5HT2C

$$$$
DiffSBDD_80
     RDKit          3D

  0  0  0  0  0  0  0  0  0  0999 V3000
M  V30 BEGIN CTAB
M  V30 COUNTS 52 52 0 0 1
M  V30 BEGIN ATOM
M  V30 1 O 39.525021 37.129324 65.540306 0
M  V30 2 C 39.910338 36.377335 64.406637 0
M  V30 3 C 39.027008 28.321162 52.268974 0
M  V30 4 C 37.980241 26.793596 53.934948 0
M  V30 5 C 38.224080 30.764300 57.953354 0
M  V30 6 C 37.110283 32.965157 58.555710 0
M  V30 7 O 37.149226 33.189884 61.350871 0
M  V30 8 C 38.374650 32.291563 57.961406 0 CFG=2
M  V30 9 C 39.510894 30.340284 54.174837 0
M  V30 10 N 37.405041 34.161777 59.325954 0
M  V30 11 O 40.520034 36.902112 66.569088 0
M  V30 12 C 39.645240 29.520336 51.885657 0
M  V30 13 O 37.603303 26.443713 55.046408 0
M  V30 14 C 38.640199 28.106615 53.611549 0
M  V30 15 C 39.887147 30.522639 52.833418 0
M  V30 16 C 38.462689 29.996441 56.906989 0
M  V30 17 C 38.880693 29.142542 54.599192 0
M  V30 18 C 38.483482 28.994581 56.046402 0
M  V30 19 C 37.391073 34.183159 60.662721 0
M  V30 20 Cl 40.103224 29.763847 50.242609 0
M  V30 21 C 38.852954 36.546990 63.316998 0
M  V30 22 C 40.250641 35.537341 61.418375 0
M  V30 23 C 38.831171 32.989190 56.659022 0
M  V30 24 C 38.938866 35.467708 62.225182 0 CFG=2
M  V30 25 C 37.689588 35.525311 61.324412 0
M  V30 26 C 37.913938 32.897273 55.436842 0
M  V30 27 H 40.867540 36.695771 64.013562 0
M  V30 28 H 40.045681 35.336669 64.685584 0
M  V30 29 H 38.844008 27.554961 51.527306 0
M  V30 30 H 37.857957 26.145913 53.067476 0
M  V30 31 H 37.898780 30.324160 58.884525 0
M  V30 32 H 36.505387 32.257823 59.126047 0
M  V30 33 H 36.462626 33.337797 57.767926 0
M  V30 34 H 39.179210 32.453331 58.680885 0
M  V30 35 H 39.714082 31.119162 54.885201 0
M  V30 36 H 37.605562 35.011415 58.819628 0
M  V30 37 H 41.210382 37.477772 66.261724 0
M  V30 38 H 40.365446 31.440903 52.530930 0
M  V30 39 H 38.204469 28.024199 56.381863 0
M  V30 40 H 37.871360 36.505322 63.789442 0
M  V30 41 H 38.928933 37.542456 62.877439 0
M  V30 42 H 40.390710 36.517650 60.967612 0
M  V30 43 H 41.119030 35.348597 62.049617 0
M  V30 44 H 40.271747 34.793893 60.621369 0
M  V30 45 H 38.845130 34.051629 56.875937 0
M  V30 46 H 39.850509 32.698722 56.408204 0
M  V30 47 H 38.943038 34.503163 62.732267 0
M  V30 48 H 36.808130 35.770689 61.918448 0
M  V30 49 H 37.784172 36.321488 60.583721 0
M  V30 50 H 37.247952 33.754883 55.430931 0
M  V30 51 H 38.472530 32.937641 54.505906 0
M  V30 52 H 37.300047 31.997958 55.416784 0
M  V30 END ATOM
M  V30 BEGIN BOND
M  V30 1 1 2 1
M  V30 2 1 8 5
M  V30 3 1 8 6
M  V30 4 1 10 6
M  V30 5 1 11 1
M  V30 6 2 12 3
M  V30 7 2 13 4
M  V30 8 1 14 3
M  V30 9 1 14 4
M  V30 10 2 15 9
M  V30 11 1 15 12
M  V30 12 2 16 5
M  V30 13 1 17 9
M  V30 14 2 17 14
M  V30 15 2 18 16
M  V30 16 1 18 17
M  V30 17 2 19 7
M  V30 18 1 19 10
M  V30 19 1 20 12
M  V30 20 1 21 2
M  V30 21 1 23 8
M  V30 22 1 24 21
M  V30 23 1 24 22
M  V30 24 1 25 19
M  V30 25 1 25 24
M  V30 26 1 26 23
M  V30 27 1 27 2
M  V30 28 1 28 2
M  V30 29 1 29 3
M  V30 30 1 30 4
M  V30 31 1 31 5
M  V30 32 1 32 6
M  V30 33 1 33 6
M  V30 34 1 8 34 CFG=1
M  V30 35 1 35 9
M  V30 36 1 36 10
M  V30 37 1 37 11
M  V30 38 1 38 15
M  V30 39 1 39 18
M  V30 40 1 40 21
M  V30 41 1 41 21
M  V30 42 1 42 22
M  V30 43 1 43 22
M  V30 44 1 44 22
M  V30 45 1 45 23
M  V30 46 1 46 23
M  V30 47 1 24 47 CFG=1
M  V30 48 1 48 25
M  V30 49 1 49 25
M  V30 50 1 50 26
M  V30 51 1 51 26
M  V30 52 1 52 26
M  V30 END BOND
M  V30 END CTAB
M  END
>  <i_epik_Tot_Q>  (1) 
0

>  <i_epik_Tot_abs_Q>  (1) 
0

>  <i_i_glide_confnum>  (1) 
250

>  <i_i_glide_lignum>  (1) 
186

>  <i_i_glide_posenum>  (1) 
102

>  <i_i_glide_rotatable_bonds>  (1) 
13

>  <i_lp_mmshare_version>  (1) 
72125

>  <i_m_source_file_index>  (1) 
81

>  <i_f3d_flags>  (1) 
0

>  <num_sample>  (1) 
100

>  <b_lp_Chiralities_Consistent>  (1) 
1

>  <r_epik_Charging_Adjusted_Penalty>  (1) 
0

>  <r_epik_Ionization_Penalty>  (1) 
8.3445448322163385e-06

>  <r_epik_Ionization_Penalty_Charging>  (1) 
0

>  <r_epik_Ionization_Penalty_Neutral>  (1) 
8.3445448322163385e-06

>  <r_epik_State_Penalty>  (1) 
-0

>  <r_glide_ring_energy>  (1) 
0

>  <r_i_docking_score>  (1) 
-6.2694538718414865

>  <r_i_glide_ecoul>  (1) 
-4.9265411248599609

>  <r_i_glide_eff_state_penalty>  (1) 
-0

>  <r_i_glide_einternal>  (1) 
21.500061742557953

>  <r_i_glide_emodel>  (1) 
-47.805610591579999

>  <r_i_glide_emodel_strain>  (1) 
1.4609149842591975

>  <r_i_glide_energy>  (1) 
-42.367347141969084

>  <r_i_glide_erotb>  (1) 
1.3439143837633358

>  <r_i_glide_esite>  (1) 
-0.0099667308425124366

>  <r_i_glide_evdw>  (1) 
-37.440806017109125

>  <r_i_glide_gscore>  (1) 
-6.2694538718414865

>  <r_i_glide_gscore_strain>  (1) 
0

>  <r_i_glide_hbond>  (1) 
-0.3082739520940917

>  <r_i_glide_ligand_efficiency>  (1) 
-0.24113284122467254

>  <r_i_glide_ligand_efficiency_ln>  (1) 
-1.472360670045912

>  <r_i_glide_ligand_efficiency_sa>  (1) 
-0.71435509409199127

>  <r_i_glide_lipo>  (1) 
-2.7975034380926718

>  <r_i_glide_metal>  (1) 
-0

>  <r_i_glide_rewards>  (1) 
-1.8866026649910959

>  <r_lp_Energy>  (1) 
-6.8237489999999994

>  <r_lp_tautomer_probability>  (1) 
1

>  <s_epik_cmdline>  (1) 
J2VwaWtfcHl0aG9uJywgJy1waHQnLCAnMS4wJywgJy1waCcsICc3LjQnLCAnLXRuJywgJzgnLCAnLW1hJywgJzUwMCcsICctaW1hZScsICc8aW5maWxlLm1hZT4nLCAnLW9tYWUnLCAnPG91dGZpbGUubWFlPic=

>  <s_epik_input>  (1) 
W09IXU9bQ0gyXVtDSDJdW0NASF0oW0NIM10pW0NIMl1DKD1PKVtOSF1bQ0gyXVtDQEhdKFtDSDJdW0NIM10pW0NIXT1DPVtDSF1jKFtjSF1bY0hdMSljKFtDSF09TylbY0hdYzFDbA==

>  <s_glide_docking_method>  (1) 
confgen

>  <s_i_glide_gridfile>  (1) 
gpcr_5ht2c_6bqh_protein_autoprepared_prepared

>  <s_lp_Force_Field>  (1) 
S-OPLS

>  <s_lp_Variant>  (1) 
DiffSBDD_80-1

>  <s_m_source_file>  (1) 
generated_GPCR_5HT2C_ligand_DiffSBDD_2026-06-23_prepared.sdf

>  <GenAI_Model>  (1) 
DiffSBDD

>  <Protein>  (1) 
GPCR_5HT2C

$$$$
DiffSBDD_62
     RDKit          3D

  0  0  0  0  0  0  0  0  0  0999 V3000
M  V30 BEGIN CTAB
M  V30 COUNTS 79 83 0 0 1
M  V30 BEGIN ATOM
M  V30 1 C 38.359983 27.101527 56.973975 0
M  V30 2 C 41.814228 31.955510 65.621867 0
M  V30 3 C 36.878862 34.160381 60.816071 0
M  V30 4 C 40.835172 27.078382 57.685356 0
M  V30 5 C 38.663428 27.552675 51.384497 0
M  V30 6 C 40.784668 29.534696 65.534786 0
M  V30 7 C 37.838194 33.320126 59.924836 0 CFG=2
M  V30 8 C 40.556302 31.310283 63.800457 0
M  V30 9 C 39.358907 31.224565 61.775054 0
M  V30 10 O 37.641143 27.851712 54.186281 0
M  V30 11 C 39.305732 27.060116 52.663132 0
M  V30 12 C 40.964450 34.583388 62.122229 0
M  V30 13 C 39.599501 27.908207 57.388633 0
M  V30 14 C 38.462021 26.981465 53.891400 0
M  V30 15 C 40.523078 33.202068 62.382209 0
M  V30 16 N 40.916789 32.557758 63.529684 0
M  V30 17 C 37.489405 35.522230 61.089053 0
M  V30 18 O 39.077645 32.938345 56.582326 0
M  V30 19 C 39.645214 28.432744 52.111548 0
M  V30 20 N 37.577127 25.384579 55.412708 0
M  V30 21 N 41.750448 33.169919 64.569426 0
M  V30 22 N 39.610308 29.181045 57.491647 0
M  V30 23 C 38.487426 30.043131 57.160316 0
M  V30 24 C 41.004730 30.896922 64.911288 0
M  V30 25 C 39.777555 32.621124 61.517743 0
M  V30 26 C 40.223515 34.703356 60.702028 0
M  V30 27 N 38.707447 25.892908 54.657750 0
M  V30 28 C 38.050858 32.436397 57.405205 0 CFG=2
M  V30 29 C 38.669424 25.859813 56.128042 0 CFG=1
M  V30 30 C 36.045230 37.337778 60.279424 0
M  V30 31 C 36.697458 36.715161 61.512121 0
M  V30 32 C 39.378612 33.358347 60.293258 0 CFG=2
M  V30 33 C 37.595012 37.759985 62.137623 0
M  V30 34 C 37.588408 33.544283 58.405422 0
M  V30 35 N 38.581449 31.217893 58.013732 0
M  V30 36 N 39.731324 30.605835 62.854146 0
M  V30 37 H 37.884774 26.751462 57.891308 0
M  V30 38 H 37.614799 27.720664 56.503861 0
M  V30 39 H 41.339271 32.241413 66.560306 0
M  V30 40 H 42.844243 31.646088 65.802776 0
M  V30 41 H 35.901257 34.257979 60.344609 0
M  V30 42 H 36.703434 33.649076 61.763570 0
M  V30 43 H 40.577295 26.202776 58.281496 0
M  V30 44 H 41.283957 26.743474 56.749838 0
M  V30 45 H 41.581921 27.659134 58.232823 0
M  V30 46 H 38.987996 27.086089 50.456095 0
M  V30 47 H 37.619799 27.851003 51.409109 0
M  V30 48 H 41.714088 29.155112 65.958255 0
M  V30 49 H 40.038763 29.590867 66.326959 0
M  V30 50 H 40.444951 28.815076 64.792113 0
M  V30 51 H 37.479332 32.306118 60.086502 0
M  V30 52 H 38.734348 30.756629 61.013483 0
M  V30 53 H 40.045175 26.273379 52.551172 0
M  V30 54 H 40.564820 35.275781 62.863686 0
M  V30 55 H 42.045137 34.671392 62.055682 0
M  V30 56 H 38.193132 35.360518 61.901769 0
M  V30 57 H 37.948464 35.836646 60.152990 0
M  V30 58 H 39.249284 29.310038 52.621375 0
M  V30 59 H 40.632593 28.564854 51.675075 0
M  V30 60 H 36.752449 25.966935 55.368503 0
M  V30 61 H 42.671893 33.341770 64.175950 0
M  V30 62 H 37.510831 29.593736 57.332497 0
M  V30 63 H 38.547614 30.321073 56.108279 0
M  V30 64 H 40.845047 34.937821 59.869641 0
M  V30 65 H 39.808417 35.693187 60.679825 0
M  V30 66 H 37.245131 32.182313 56.726439 0
M  V30 67 H 39.283327 25.103022 56.610050 0
M  V30 68 H 36.811721 37.779450 59.644447 0
M  V30 69 H 35.556770 36.584324 59.664132 0
M  V30 70 H 35.346331 38.128294 60.565466 0
M  V30 71 H 36.045224 36.391274 62.307291 0
M  V30 72 H 39.927892 32.937463 59.459877 0
M  V30 73 H 38.487724 37.943560 61.537472 0
M  V30 74 H 37.039737 38.696920 62.168288 0
M  V30 75 H 37.899715 37.477461 63.146232 0
M  V30 76 H 37.985057 34.512526 58.100888 0
M  V30 77 H 36.512115 33.647679 58.253311 0
M  V30 78 H 38.071582 31.018903 58.860202 0
M  V30 79 H 38.664858 33.313252 55.818673 0
M  V30 END ATOM
M  V30 BEGIN BOND
M  V30 1 1 7 3
M  V30 2 1 11 5
M  V30 3 1 13 1
M  V30 4 1 13 4
M  V30 5 2 14 10
M  V30 6 1 14 11
M  V30 7 1 15 12
M  V30 8 1 16 8
M  V30 9 1 16 15
M  V30 10 1 17 3
M  V30 11 1 19 5
M  V30 12 1 19 11
M  V30 13 1 21 2
M  V30 14 1 21 16
M  V30 15 2 22 13
M  V30 16 1 23 22
M  V30 17 1 24 2
M  V30 18 1 24 6
M  V30 19 2 24 8
M  V30 20 1 25 9
M  V30 21 2 25 15
M  V30 22 1 26 12
M  V30 23 1 27 14
M  V30 24 1 27 20
M  V30 25 1 28 18
M  V30 26 1 29 1
M  V30 27 1 29 20
M  V30 28 1 29 27
M  V30 29 1 31 17
M  V30 30 1 31 30
M  V30 31 1 32 7
M  V30 32 1 32 25
M  V30 33 1 32 26
M  V30 34 1 33 31
M  V30 35 1 34 7
M  V30 36 1 34 28
M  V30 37 1 35 23
M  V30 38 1 35 28
M  V30 39 1 36 8
M  V30 40 2 36 9
M  V30 41 1 37 1
M  V30 42 1 38 1
M  V30 43 1 39 2
M  V30 44 1 40 2
M  V30 45 1 41 3
M  V30 46 1 42 3
M  V30 47 1 43 4
M  V30 48 1 44 4
M  V30 49 1 45 4
M  V30 50 1 46 5
M  V30 51 1 47 5
M  V30 52 1 48 6
M  V30 53 1 49 6
M  V30 54 1 50 6
M  V30 55 1 7 51 CFG=3
M  V30 56 1 52 9
M  V30 57 1 53 11
M  V30 58 1 54 12
M  V30 59 1 55 12
M  V30 60 1 56 17
M  V30 61 1 57 17
M  V30 62 1 58 19
M  V30 63 1 59 19
M  V30 64 1 60 20
M  V30 65 1 61 21
M  V30 66 1 62 23
M  V30 67 1 63 23
M  V30 68 1 64 26
M  V30 69 1 65 26
M  V30 70 1 28 66 CFG=3
M  V30 71 1 29 67 CFG=1
M  V30 72 1 68 30
M  V30 73 1 69 30
M  V30 74 1 70 30
M  V30 75 1 71 31
M  V30 76 1 32 72 CFG=3
M  V30 77 1 73 33
M  V30 78 1 74 33
M  V30 79 1 75 33
M  V30 80 1 76 34
M  V30 81 1 77 34
M  V30 82 1 78 35
M  V30 83 1 79 18
M  V30 END BOND
M  V30 END CTAB
M  END
>  <i_epik_Tot_Q>  (1) 
0

>  <i_epik_Tot_abs_Q>  (1) 
0

>  <i_i_glide_confnum>  (1) 
3258

>  <i_i_glide_lignum>  (1) 
135

>  <i_i_glide_posenum>  (1) 
171

>  <i_i_glide_rotatable_bonds>  (1) 
14

>  <i_lp_mmshare_version>  (1) 
72125

>  <i_m_source_file_index>  (1) 
63

>  <i_f3d_flags>  (1) 
0

>  <num_sample>  (1) 
100

>  <b_lp_Chiralities_Consistent>  (1) 
1

>  <r_epik_Charging_Adjusted_Penalty>  (1) 
0.66759273229091232

>  <r_epik_Ionization_Penalty>  (1) 
2.307606927441598

>  <r_epik_Ionization_Penalty_Charging>  (1) 
0

>  <r_epik_Ionization_Penalty_Neutral>  (1) 
2.307606927441598

>  <r_epik_State_Penalty>  (1) 
0.66759273229091232

>  <r_glide_ring_energy>  (1) 
0

>  <r_i_docking_score>  (1) 
-6.2683752324237796

>  <r_i_glide_ecoul>  (1) 
-1.6702385505438229

>  <r_i_glide_eff_state_penalty>  (1) 
0.66759273229091232

>  <r_i_glide_einternal>  (1) 
13.594383833074666

>  <r_i_glide_emodel>  (1) 
-57.097875395967591

>  <r_i_glide_emodel_strain>  (1) 
3.8770240477342668

>  <r_i_glide_energy>  (1) 
-43.922880578718967

>  <r_i_glide_erotb>  (1) 
0.98835574197518972

>  <r_i_glide_esite>  (1) 
-0.13595902920790093

>  <r_i_glide_evdw>  (1) 
-42.252642028175146

>  <r_i_glide_gscore>  (1) 
-6.9359679647146919

>  <r_i_glide_gscore_strain>  (1) 
0

>  <r_i_glide_hbond>  (1) 
0

>  <r_i_glide_ligand_efficiency>  (1) 
-0.17412153423399387

>  <r_i_glide_ligand_efficiency_ln>  (1) 
-1.3675901237871155

>  <r_i_glide_ligand_efficiency_sa>  (1) 
-0.57493663850656307

>  <r_i_glide_lipo>  (1) 
-3.2432676672516187

>  <r_i_glide_metal>  (1) 
-0

>  <r_i_glide_rewards>  (1) 
-2.1819291262400307

>  <r_lp_Energy>  (1) 
30.718252999999997

>  <r_lp_tautomer_probability>  (1) 
0.49999399997599986

>  <s_epik_Chemistry_Notes>  (1) 
This compound has an imine and may undergo hydrolysis. This compound contains an acetal/aminal-like group ( X-CH(R)-Y where X, Y are N, S, or O) that may be acid/base labile, releasing an aldehyde.

>  <s_epik_cmdline>  (1) 
J2VwaWtfcHl0aG9uJywgJy1waHQnLCAnMS4wJywgJy1waCcsICc3LjQnLCAnLXRuJywgJzgnLCAnLW1hJywgJzUwMCcsICctaW1hZScsICc8aW5maWxlLm1hZT4nLCAnLW9tYWUnLCAnPG91dGZpbGUubWFlPic=

>  <s_epik_input>  (1) 
W0NIMl0xW0NIMl1bQ0hdMUMoPU8pTjJbTkhdW0NAQEhdMltDSDJdL0MoW0NIM10pPU5cW0NIMl1bTkhdW0NASF0oW09IXSlbQ0gyXVtDQEhdKFtDSDJdW0NIMl1bQ0hdKFtDSDNdKVtDSDNdKVtDQEBIXShbQ0gyXVtDSDJdMylDKFtDSF09TjQpPUMzTihDND01KVtOSF1bQ0gyXUM1W0NIM10=

>  <s_glide_docking_method>  (1) 
confgen

>  <s_i_glide_gridfile>  (1) 
gpcr_5ht2c_6bqh_protein_autoprepared_prepared

>  <s_lp_Force_Field>  (1) 
S-OPLS

>  <s_lp_Variant>  (1) 
DiffSBDD_62-1

>  <s_m_source_file>  (1) 
generated_GPCR_5HT2C_ligand_DiffSBDD_2026-06-23_prepared.sdf

>  <GenAI_Model>  (1) 
DiffSBDD

>  <Protein>  (1) 
GPCR_5HT2C

$$$$
DiffSBDD_32
     RDKit          3D

  0  0  0  0  0  0  0  0  0  0999 V3000
M  V30 BEGIN CTAB
M  V30 COUNTS 65 67 0 0 1
M  V30 BEGIN ATOM
M  V30 1 C 41.212250 33.820706 61.554080 0
M  V30 2 O 41.399841 31.843271 65.526845 0
M  V30 3 O 42.115057 33.738158 63.738249 0
M  V30 4 O 37.639896 37.795185 60.409317 0
M  V30 5 C 41.287603 33.261579 62.967256 0
M  V30 6 C 38.427536 27.591896 53.030201 0
M  V30 7 N 38.115843 31.584114 55.189978 0 CHG=1
M  V30 8 C 37.996040 31.937354 60.233135 0 CFG=2
M  V30 9 C 39.220860 30.604135 55.215586 0
M  V30 10 C 37.846913 32.601573 58.812280 0
M  V30 11 C 40.486458 31.437518 64.775107 0
M  V30 12 C 39.401848 31.764697 62.461342 0
M  V30 13 C 38.160497 32.544299 56.300618 0
M  V30 14 C 38.056179 37.237626 61.450316 0
M  V30 15 O 36.244089 35.637979 59.718352 0
M  V30 16 O 39.020538 37.619024 62.148149 0 CHG=-1
M  V30 17 C 39.644891 30.124024 52.800371 0
M  V30 18 O 36.845138 32.938152 62.167766 0
M  V30 19 O 39.654435 30.537744 65.007856 0 CHG=-1
M  V30 20 C 39.125547 29.702430 54.030292 0
M  V30 21 C 38.513938 28.436888 54.149388 0
M  V30 22 C 40.084063 29.720481 50.367105 0
M  V30 23 C 38.288710 31.784522 57.623741 0
M  V30 24 C 39.199417 32.381063 61.137885 0
M  V30 25 C 39.554536 29.283061 51.675600 0
M  V30 26 C 36.961485 35.012696 60.757440 0 CFG=1
M  V30 27 C 37.324328 35.969423 61.909756 0
M  V30 28 O 40.045091 29.034181 49.367761 0
M  V30 29 C 40.045129 33.337433 60.738763 0
M  V30 30 C 40.364823 32.144905 63.353526 0
M  V30 31 C 38.053797 30.392212 60.104900 0
M  V30 32 C 40.694135 31.104571 50.304677 0
M  V30 33 C 38.946431 28.011734 51.792609 0
M  V30 34 C 36.211800 33.750831 61.180230 0 CFG=1
M  V30 35 C 36.686009 32.318160 60.912564 0 CFG=1
M  V30 36 H 42.140822 33.522073 61.066698 0
M  V30 37 H 41.189582 34.910296 61.597173 0
M  V30 38 H 37.958459 26.621819 53.119302 0
M  V30 39 H 37.233607 31.092032 55.263068 0
M  V30 40 H 40.183407 31.117696 55.204124 0
M  V30 41 H 39.201166 29.968743 56.099302 0
M  V30 42 H 36.788880 32.790120 58.615897 0
M  V30 43 H 38.277768 33.588923 58.698726 0
M  V30 44 H 38.732979 30.971303 62.755827 0
M  V30 45 H 37.245138 33.134646 56.275813 0
M  V30 46 H 38.987795 33.243106 56.164160 0
M  V30 47 H 36.624103 36.512415 59.633988 0
M  V30 48 H 40.104636 31.097015 52.724683 0
M  V30 49 H 38.110208 28.115761 55.100022 0
M  V30 50 H 39.311182 31.453068 57.766218 0
M  V30 51 H 37.655099 30.898857 57.571631 0
M  V30 52 H 37.919651 34.750994 60.341186 0
M  V30 53 H 36.444961 36.245321 62.490188 0
M  V30 54 H 38.011515 35.441598 62.567765 0
M  V30 55 H 39.921450 33.806650 59.781662 0
M  V30 56 H 37.200867 29.989687 59.556907 0
M  V30 57 H 38.962204 30.061212 59.601269 0
M  V30 58 H 38.046048 29.897362 61.070071 0
M  V30 59 H 41.362385 31.300708 51.140528 0
M  V30 60 H 41.284311 31.206786 49.394882 0
M  V30 61 H 39.897638 31.848241 50.273737 0
M  V30 62 H 38.874410 27.360172 50.930690 0
M  V30 63 H 35.152155 33.894905 61.372485 0
M  V30 64 H 35.898346 31.567984 60.870941 0
M  V30 65 H 38.125937 32.095501 54.319374 0
M  V30 END ATOM
M  V30 BEGIN BOND
M  V30 1 1 5 1
M  V30 2 2 5 3
M  V30 3 1 9 7
M  V30 4 1 8 10 CFG=3
M  V30 5 2 11 2
M  V30 6 1 13 7
M  V30 7 2 14 4
M  V30 8 1 16 14
M  V30 9 1 19 11
M  V30 10 1 20 9
M  V30 11 2 20 17
M  V30 12 2 21 6
M  V30 13 1 21 20
M  V30 14 1 23 10
M  V30 15 1 23 13
M  V30 16 1 24 8
M  V30 17 1 24 12
M  V30 18 1 25 17
M  V30 19 1 25 22
M  V30 20 1 26 15
M  V30 21 1 27 14
M  V30 22 1 27 26
M  V30 23 2 28 22
M  V30 24 1 29 1
M  V30 25 2 29 24
M  V30 26 1 30 5
M  V30 27 1 30 11
M  V30 28 2 30 12
M  V30 29 1 31 8
M  V30 30 1 32 22
M  V30 31 1 33 6
M  V30 32 2 33 25
M  V30 33 1 34 18
M  V30 34 1 34 26
M  V30 35 1 35 8
M  V30 36 1 35 18
M  V30 37 1 35 34
M  V30 38 1 36 1
M  V30 39 1 37 1
M  V30 40 1 38 6
M  V30 41 1 39 7
M  V30 42 1 40 9
M  V30 43 1 41 9
M  V30 44 1 42 10
M  V30 45 1 43 10
M  V30 46 1 44 12
M  V30 47 1 45 13
M  V30 48 1 46 13
M  V30 49 1 47 15
M  V30 50 1 48 17
M  V30 51 1 49 21
M  V30 52 1 50 23
M  V30 53 1 51 23
M  V30 54 1 26 52 CFG=3
M  V30 55 1 53 27
M  V30 56 1 54 27
M  V30 57 1 55 29
M  V30 58 1 56 31
M  V30 59 1 57 31
M  V30 60 1 58 31
M  V30 61 1 59 32
M  V30 62 1 60 32
M  V30 63 1 61 32
M  V30 64 1 62 33
M  V30 65 1 34 63 CFG=1
M  V30 66 1 35 64 CFG=1
M  V30 67 1 65 7
M  V30 END BOND
M  V30 END CTAB
M  END
>  <i_epik_Tot_Q>  (1) 
-1

>  <i_epik_Tot_abs_Q>  (1) 
3

>  <i_i_glide_confnum>  (1) 
1585

>  <i_i_glide_lignum>  (1) 
76

>  <i_i_glide_posenum>  (1) 
89

>  <i_i_glide_rotatable_bonds>  (1) 
14

>  <i_lp_mmshare_version>  (1) 
72125

>  <i_m_source_file_index>  (1) 
33

>  <i_f3d_flags>  (1) 
0

>  <num_sample>  (1) 
100

>  <b_lp_Chiralities_Consistent>  (1) 
1

>  <r_epik_Charging_Adjusted_Penalty>  (1) 
0.080349275114026383

>  <r_epik_Ionization_Penalty>  (1) 
0.040587732583292166

>  <r_epik_Ionization_Penalty_Charging>  (1) 
0.040587694316789436

>  <r_epik_Ionization_Penalty_Neutral>  (1) 
3.8266502729817704e-08

>  <r_epik_State_Penalty>  (1) 
0.039761580797236948

>  <r_glide_ring_energy>  (1) 
0

>  <r_i_docking_score>  (1) 
-6.2683433355007017

>  <r_i_glide_ecoul>  (1) 
-1.4757235533080588

>  <r_i_glide_eff_state_penalty>  (1) 
0.039761580797236948

>  <r_i_glide_einternal>  (1) 
28.435394150740059

>  <r_i_glide_emodel>  (1) 
-41.105182903380488

>  <r_i_glide_emodel_strain>  (1) 
4.7502230020900029

>  <r_i_glide_energy>  (1) 
-37.554747891884922

>  <r_i_glide_erotb>  (1) 
0.86504187564476209

>  <r_i_glide_esite>  (1) 
-0.051428698503871141

>  <r_i_glide_evdw>  (1) 
-36.079024338576865

>  <r_i_glide_gscore>  (1) 
-6.308104916297939

>  <r_i_glide_gscore_strain>  (1) 
0.18755575052250073

>  <r_i_glide_hbond>  (1) 
0

>  <r_i_glide_ligand_efficiency>  (1) 
-0.17909552387144861

>  <r_i_glide_ligand_efficiency_ln>  (1) 
-1.3760404805272353

>  <r_i_glide_ligand_efficiency_sa>  (1) 
-0.58583333444147201

>  <r_i_glide_lipo>  (1) 
-3.3739235279791351

>  <r_i_glide_metal>  (1) 
-0

>  <r_i_glide_rewards>  (1) 
-1.9100405660571427

>  <r_lp_Energy>  (1) 
50.449213

>  <r_lp_tautomer_probability>  (1) 
0.99995000000000001

>  <s_epik_cmdline>  (1) 
J2VwaWtfcHl0aG9uJywgJy1waHQnLCAnMS4wJywgJy1waCcsICc3LjQnLCAnLXRuJywgJzgnLCAnLW1hJywgJzUwMCcsICctaW1hZScsICc8aW5maWxlLm1hZT4nLCAnLW9tYWUnLCAnPG91dGZpbGUubWFlPic=

>  <s_epik_input>  (1) 
Tz1DKFtPSF0pW0NIMl1bQ0BIXShbT0hdKVtDQEBIXTFPW0NAQEhdMVtDQF0oW0NIM10pKEMoPVtDSF1bQ0gyXUMyPU8pW0NIXT1DMkMoPU8pW09IXSlbQ0gyXVtDSDJdW0NIMl1bTkhdW0NIMl1jM1tjSF1jKEMoPU8pW0NIM10pW2NIXVtjSF1bY0hdMw==

>  <s_glide_docking_method>  (1) 
confgen

>  <s_i_glide_gridfile>  (1) 
gpcr_5ht2c_6bqh_protein_autoprepared_prepared

>  <s_lp_Force_Field>  (1) 
S-OPLS

>  <s_lp_Variant>  (1) 
DiffSBDD_32-1

>  <s_m_source_file>  (1) 
generated_GPCR_5HT2C_ligand_DiffSBDD_2026-06-23_prepared.sdf

>  <GenAI_Model>  (1) 
DiffSBDD

>  <Protein>  (1) 
GPCR_5HT2C

$$$$
DiffSBDD_78
     RDKit          3D

  0  0  0  0  0  0  0  0  0  0999 V3000
M  V30 BEGIN CTAB
M  V30 COUNTS 104 109 0 0 1
M  V30 BEGIN ATOM
M  V30 1 O 39.211562 36.564973 65.182039 0
M  V30 2 C 38.723582 26.086295 54.858758 0
M  V30 3 C 39.318503 28.137773 60.944268 0 CFG=1
M  V30 4 C 35.993206 38.493720 61.712315 0
M  V30 5 O 33.585827 37.737805 66.040717 0
M  V30 6 C 39.998201 26.860328 57.021947 0 CFG=2
M  V30 7 C 39.486672 37.241331 63.963026 0
M  V30 8 O 37.049967 36.949003 63.450897 0
M  V30 9 C 39.916003 26.012425 55.771525 0 CFG=1
M  V30 10 O 37.245120 34.137672 57.767632 0
M  V30 11 C 43.350898 27.492583 67.617746 0
M  V30 12 N 39.919878 27.866891 59.661751 0
M  V30 13 N 39.663982 25.439141 57.105975 0
M  V30 14 C 45.526853 28.048764 66.813301 0
M  V30 15 C 37.649477 25.030416 55.026811 0
M  V30 16 C 40.096744 28.551797 62.160107 0 CFG=1
M  V30 17 N 39.013939 28.449927 58.746720 0
M  V30 18 C 40.196433 36.751491 66.184691 0
M  V30 19 C 38.929138 27.891368 57.401035 0 CFG=1
M  V30 20 C 44.617075 27.391497 65.822549 0
M  V30 21 C 37.584800 29.921745 56.505214 0
M  V30 22 C 36.129230 38.030653 63.178034 0 CFG=2
M  V30 23 C 39.244987 30.839200 59.198690 0
M  V30 24 C 42.284645 26.444323 65.542568 0
M  V30 25 C 34.844887 37.805033 65.402899 0
M  V30 26 C 38.388544 36.918987 62.911020 0 CFG=2
M  V30 27 C 39.775130 30.745710 60.635344 0
M  V30 28 C 39.786935 35.964196 67.430806 0
M  V30 29 O 38.619622 26.957373 53.998617 0
M  V30 30 C 38.965768 29.363931 56.894770 0
M  V30 31 C 43.445131 27.105769 66.269835 0
M  V30 32 C 39.868051 29.672127 55.692959 0
M  V30 33 C 37.509188 34.781338 61.697751 0
M  V30 34 C 38.309078 25.010251 57.507932 0
M  V30 35 C 41.505003 27.395290 64.617851 0
M  V30 36 C 42.324140 27.926578 63.415199 0
M  V30 37 O 44.586354 28.053959 67.986991 0
M  V30 38 N 38.237466 33.010285 59.506699 0
M  V30 39 S 37.243770 35.448587 60.058567 0
M  V30 40 C 38.565139 31.898086 58.741973 0
M  V30 41 C 34.774371 37.715997 63.859584 0
M  V30 42 C 37.578057 34.074360 58.931770 0
M  V30 43 C 37.163458 25.093516 56.470499 0
M  V30 44 C 41.592797 28.750012 62.315814 0
M  V30 45 O 42.372331 27.364663 68.347752 0
M  V30 46 C 39.609657 29.668203 58.282289 0 CFG=2
M  V30 47 C 39.229884 29.572181 61.436077 0 CFG=1
M  V30 48 C 38.686822 35.494695 62.380668 0
M  V30 49 H 38.445120 27.553569 61.178822 0
M  V30 50 H 35.276887 39.315064 61.649338 0
M  V30 51 H 35.645943 37.737749 61.021464 0
M  V30 52 H 36.929498 38.888597 61.318345 0
M  V30 53 H 33.671192 38.173648 66.881667 0
M  V30 54 H 41.010735 27.138295 57.309356 0
M  V30 55 H 40.448401 36.900390 63.575427 0
M  V30 56 H 39.644458 38.299453 64.138355 0
M  V30 57 H 40.859349 25.757626 55.293763 0
M  V30 58 H 39.999533 26.862598 59.505427 0
M  V30 59 H 45.756447 29.065481 66.500471 0
M  V30 60 H 38.075846 24.050103 54.809528 0
M  V30 61 H 36.839940 25.202281 54.319984 0
M  V30 62 H 39.646201 28.084907 62.997736 0
M  V30 63 H 41.170681 36.410642 65.832569 0
M  V30 64 H 40.283530 37.809483 66.435829 0
M  V30 65 H 37.916325 27.520346 57.275633 0
M  V30 66 H 44.944642 27.194122 64.813599 0
M  V30 67 H 37.636301 30.926289 56.087319 0
M  V30 68 H 36.889992 29.933504 57.345507 0
M  V30 69 H 37.128061 29.334614 55.712536 0
M  V30 70 H 36.445022 38.936418 63.655703 0
M  V30 71 H 41.596364 26.007161 66.268114 0
M  V30 72 H 42.671518 25.604188 64.964100 0
M  V30 73 H 35.244877 38.770204 65.700423 0
M  V30 74 H 35.504232 37.038963 65.812651 0
M  V30 75 H 38.490889 37.604243 62.071297 0
M  V30 76 H 40.856369 30.658776 60.569696 0
M  V30 77 H 39.597722 31.655909 61.207400 0
M  V30 78 H 40.535878 36.050746 68.217528 0
M  V30 79 H 39.662665 34.905604 67.204134 0
M  V30 80 H 38.845352 36.338845 67.826805 0
M  V30 81 H 46.432863 27.469887 67.002139 0
M  V30 82 H 40.040527 30.744662 55.595161 0
M  V30 83 H 39.431815 29.328550 54.756856 0
M  V30 84 H 40.843714 29.194122 55.773436 0
M  V30 85 H 36.554280 34.954156 62.185811 0
M  V30 86 H 37.635945 33.702662 61.738513 0
M  V30 87 H 38.423048 23.956245 57.761762 0
M  V30 88 H 38.024605 25.487253 58.446308 0
M  V30 89 H 40.670840 26.799793 64.256992 0
M  V30 90 H 41.073243 28.221795 65.186276 0
M  V30 91 H 42.848395 27.088101 62.968489 0
M  V30 92 H 43.127000 28.559274 63.793155 0
M  V30 93 H 38.488760 33.056843 60.481538 0
M  V30 94 H 38.228462 31.972063 57.727350 0
M  V30 95 H 34.033164 38.430206 63.503246 0
M  V30 96 H 34.415090 36.734759 63.552523 0
M  V30 97 H 36.582531 26.005839 56.616777 0
M  V30 98 H 36.460020 24.279180 56.645884 0
M  V30 99 H 42.045107 28.538521 61.353399 0
M  V30 100 H 41.758240 29.804286 62.539337 0
M  V30 101 H 40.697031 29.578153 58.214962 0
M  V30 102 H 38.328507 29.845445 61.973016 0
M  V30 103 H 39.538041 35.533237 61.697874 0
M  V30 104 H 39.040101 34.871103 63.197739 0
M  V30 END ATOM
M  V30 BEGIN BOND
M  V30 1 1 7 1
M  V30 2 1 9 2
M  V30 3 1 9 6
M  V30 4 1 12 3
M  V30 5 1 13 6
M  V30 6 1 13 9
M  V30 7 1 15 2
M  V30 8 1 16 3
M  V30 9 1 17 12
M  V30 10 1 18 1
M  V30 11 1 19 6
M  V30 12 1 19 17
M  V30 13 1 20 14
M  V30 14 1 22 4
M  V30 15 1 22 8
M  V30 16 1 25 5
M  V30 17 1 26 7
M  V30 18 1 26 8
M  V30 19 1 27 23
M  V30 20 1 28 18
M  V30 21 2 29 2
M  V30 22 1 30 19
M  V30 23 1 30 21
M  V30 24 1 31 11
M  V30 25 2 31 20
M  V30 26 1 31 24
M  V30 27 1 32 30
M  V30 28 1 34 13
M  V30 29 1 35 24
M  V30 30 1 36 35
M  V30 31 1 37 11
M  V30 32 1 37 14
M  V30 33 1 39 33
M  V30 34 2 40 23
M  V30 35 1 40 38
M  V30 36 1 41 22
M  V30 37 1 41 25
M  V30 38 2 42 10
M  V30 39 1 42 38
M  V30 40 1 42 39
M  V30 41 1 43 15
M  V30 42 1 43 34
M  V30 43 1 44 16
M  V30 44 1 44 36
M  V30 45 2 45 11
M  V30 46 1 46 17
M  V30 47 1 46 23
M  V30 48 1 46 30
M  V30 49 1 47 3
M  V30 50 1 47 16
M  V30 51 1 47 27
M  V30 52 1 48 26
M  V30 53 1 48 33
M  V30 54 1 3 49 CFG=1
M  V30 55 1 50 4
M  V30 56 1 51 4
M  V30 57 1 52 4
M  V30 58 1 53 5
M  V30 59 1 6 54 CFG=1
M  V30 60 1 55 7
M  V30 61 1 56 7
M  V30 62 1 9 57 CFG=3
M  V30 63 1 58 12
M  V30 64 1 59 14
M  V30 65 1 60 15
M  V30 66 1 61 15
M  V30 67 1 16 62 CFG=1
M  V30 68 1 63 18
M  V30 69 1 64 18
M  V30 70 1 19 65 CFG=1
M  V30 71 1 66 20
M  V30 72 1 67 21
M  V30 73 1 68 21
M  V30 74 1 69 21
M  V30 75 1 22 70 CFG=1
M  V30 76 1 71 24
M  V30 77 1 72 24
M  V30 78 1 73 25
M  V30 79 1 74 25
M  V30 80 1 26 75 CFG=3
M  V30 81 1 76 27
M  V30 82 1 77 27
M  V30 83 1 78 28
M  V30 84 1 79 28
M  V30 85 1 80 28
M  V30 86 1 81 14
M  V30 87 1 82 32
M  V30 88 1 83 32
M  V30 89 1 84 32
M  V30 90 1 85 33
M  V30 91 1 86 33
M  V30 92 1 87 34
M  V30 93 1 88 34
M  V30 94 1 89 35
M  V30 95 1 90 35
M  V30 96 1 91 36
M  V30 97 1 92 36
M  V30 98 1 93 38
M  V30 99 1 94 40
M  V30 100 1 95 41
M  V30 101 1 96 41
M  V30 102 1 97 43
M  V30 103 1 98 43
M  V30 104 1 99 44
M  V30 105 1 100 44
M  V30 106 1 46 101 CFG=3
M  V30 107 1 47 102 CFG=1
M  V30 108 1 103 48
M  V30 109 1 104 48
M  V30 END BOND
M  V30 END CTAB
M  END
>  <i_epik_Tot_Q>  (1) 
0

>  <i_epik_Tot_abs_Q>  (1) 
0

>  <i_i_glide_confnum>  (1) 
3669

>  <i_i_glide_lignum>  (1) 
183

>  <i_i_glide_posenum>  (1) 
2

>  <i_i_glide_rotatable_bonds>  (1) 
20

>  <i_lp_mmshare_version>  (1) 
72125

>  <i_m_source_file_index>  (1) 
79

>  <i_f3d_flags>  (1) 
0

>  <num_sample>  (1) 
100

>  <b_lp_Chiralities_Consistent>  (1) 
1

>  <r_epik_Charging_Adjusted_Penalty>  (1) 
0.92354502945683503

>  <r_epik_Ionization_Penalty>  (1) 
0.93156090309964268

>  <r_epik_Ionization_Penalty_Charging>  (1) 
0

>  <r_epik_Ionization_Penalty_Neutral>  (1) 
0.93156090309964268

>  <r_epik_State_Penalty>  (1) 
0.92354502945683503

>  <r_glide_ring_energy>  (1) 
0

>  <r_i_docking_score>  (1) 
-6.2673135222990402

>  <r_i_glide_ecoul>  (1) 
-3.0402748005715443

>  <r_i_glide_eff_state_penalty>  (1) 
0.92354502945683503

>  <r_i_glide_einternal>  (1) 
12.346228550974594

>  <r_i_glide_emodel>  (1) 
-42.087460638161431

>  <r_i_glide_emodel_strain>  (1) 
8.3937635635784034

>  <r_i_glide_energy>  (1) 
-48.720558294955623

>  <r_i_glide_erotb>  (1) 
0.59596673808410561

>  <r_i_glide_esite>  (1) 
-0.037777072067480051

>  <r_i_glide_evdw>  (1) 
-45.680283494384078

>  <r_i_glide_gscore>  (1) 
-7.1908585517558752

>  <r_i_glide_gscore_strain>  (1) 
1.0984408908946008

>  <r_i_glide_hbond>  (1) 
-0.54669541199035809

>  <r_i_glide_ligand_efficiency>  (1) 
-0.13056903171456333

>  <r_i_glide_ligand_efficiency_ln>  (1) 
-1.2866053994209825

>  <r_i_glide_ligand_efficiency_sa>  (1) 
-0.47451935262937162

>  <r_i_glide_lipo>  (1) 
-4.6015709229159905

>  <r_i_glide_metal>  (1) 
-0

>  <r_i_glide_rewards>  (1) 
-0.95916737895581727

>  <r_lp_Energy>  (1) 
40.557254

>  <r_lp_tautomer_probability>  (1) 
0.99984117342658263

>  <s_epik_Chemistry_Notes>  (1) 
This compound has an ester and may undergo hydrolysis at high or low pH.

>  <s_epik_cmdline>  (1) 
J2VwaWtfcHl0aG9uJywgJy1waHQnLCAnMS4wJywgJy1waCcsICc3LjQnLCAnLXRuJywgJzgnLCAnLW1hJywgJzUwMCcsICctaW1hZScsICc8aW5maWxlLm1hZT4nLCAnLW9tYWUnLCAnPG91dGZpbGUubWFlPic=

>  <s_epik_input>  (1) 
W09IXVtDSDJdW0NIMl1bQ0BIXShbQ0gzXSlPW0NAQEhdKFtDSDJdT1tDSDJdW0NIM10pW0NIMl1bQ0gyXVNDKD1PKVtOSF0vW0NIXT1DKFtDQEhdMU4oW05IXTIpW0NAQEhdKEMxKFtDSDNdKVtDSDNdKVtDQEhdM04oW0NASF0zNClbQ0gyXVtDSDJdW0NIMl1DND1PKVxbQ0gyXVtDQEBIXShbQ0BASF0yNSlbQ0BASF01W0NIMl1bQ0gyXVtDSDJdW0NIMl1bQ0BASF0oQzY9TylbQ0hdPVtDSF1PNg==

>  <s_glide_docking_method>  (1) 
confgen

>  <s_i_glide_gridfile>  (1) 
gpcr_5ht2c_6bqh_protein_autoprepared_prepared

>  <s_lp_Force_Field>  (1) 
S-OPLS

>  <s_lp_Variant>  (1) 
DiffSBDD_78-5

>  <s_m_source_file>  (1) 
generated_GPCR_5HT2C_ligand_DiffSBDD_2026-06-23_prepared.sdf

>  <GenAI_Model>  (1) 
DiffSBDD

>  <Protein>  (1) 
GPCR_5HT2C

$$$$
DiffSBDD_20
     RDKit          3D

  0  0  0  0  0  0  0  0  0  0999 V3000
M  V30 BEGIN CTAB
M  V30 COUNTS 52 53 0 0 1
M  V30 BEGIN ATOM
M  V30 1 C 38.606874 31.868050 57.555664 0 CFG=2
M  V30 2 O 37.245125 30.111874 56.584406 0
M  V30 3 O 37.245293 34.488955 58.968178 0
M  V30 4 P 37.725969 34.065999 60.342513 0
M  V30 5 C 39.005342 31.226844 55.312237 0 CFG=1
M  V30 6 N 41.778975 32.583079 64.397485 0
M  V30 7 C 39.644636 30.765017 52.862323 0
M  V30 8 C 40.244843 30.376717 50.402648 0
M  V30 9 C 37.988972 31.669648 58.947654 0
M  V30 10 C 38.849873 31.595379 61.325682 0 CFG=2
M  V30 11 N 38.026768 32.935791 56.740660 0 CHG=1
M  V30 12 C 38.559348 30.634757 56.656026 0
M  V30 13 F 41.148521 30.682454 65.584881 0
M  V30 14 C 39.653945 29.768411 51.682037 0
M  V30 15 C 40.999553 31.479738 64.501122 0
M  V30 16 O 36.591863 33.675686 61.273744 0 CHG=-1
M  V30 17 O 38.674396 35.074293 60.951843 0 CHG=-1
M  V30 18 C 39.882039 31.955938 62.399148 0
M  V30 19 C 40.044567 31.131341 63.526284 0
M  V30 20 C 38.676097 32.496128 60.069619 0 CFG=2
M  V30 21 C 41.619538 33.368044 63.308043 0
M  V30 22 O 39.013954 28.994604 54.350136 0
M  V30 23 C 40.694212 33.096370 62.285222 0
M  V30 24 C 38.748573 30.353485 54.051641 0 CFG=1
M  V30 25 C 38.372538 32.640279 55.329508 0
M  V30 26 O 37.567416 31.337712 61.848861 0
M  V30 27 O 39.496239 29.676690 57.104011 0
M  V30 28 H 39.644539 32.161771 57.652155 0
M  V30 29 H 36.591907 30.794829 56.767442 0
M  V30 30 H 40.085412 31.373374 55.387983 0
M  V30 31 H 39.306277 31.738259 52.514375 0
M  V30 32 H 40.669198 30.919336 53.197742 0
M  V30 33 H 40.245251 29.649693 49.589182 0
M  V30 34 H 39.666755 31.241053 50.073143 0
M  V30 35 H 41.273920 30.703571 50.558610 0
M  V30 36 H 36.911832 31.849328 58.929440 0
M  V30 37 H 38.073466 30.607694 59.177644 0
M  V30 38 H 39.224975 30.627753 60.989417 0
M  V30 39 H 38.276616 33.855751 57.086291 0
M  V30 40 H 40.246115 28.894240 51.954898 0
M  V30 41 H 38.650561 29.388816 51.482175 0
M  V30 42 H 39.440595 30.242350 63.645848 0
M  V30 43 H 39.669783 32.763847 59.727052 0
M  V30 44 H 42.253231 34.239787 63.252427 0
M  V30 45 H 38.279293 28.662887 54.850885 0
M  V30 46 H 40.611852 33.755582 61.437409 0
M  V30 47 H 37.696588 30.415414 53.768112 0
M  V30 48 H 39.085906 33.374853 54.967788 0
M  V30 49 H 37.475557 32.698675 54.712281 0
M  V30 50 H 37.077456 32.169990 61.769480 0
M  V30 51 H 39.662455 29.081872 56.385683 0
M  V30 52 H 37.016035 32.856683 56.837542 0
M  V30 END ATOM
M  V30 BEGIN BOND
M  V30 1 2 4 3
M  V30 2 1 9 1
M  V30 3 1 11 1
M  V30 4 1 12 1
M  V30 5 1 12 2
M  V30 6 1 12 5
M  V30 7 1 14 7
M  V30 8 1 14 8
M  V30 9 2 15 6
M  V30 10 1 15 13
M  V30 11 1 16 4
M  V30 12 1 17 4
M  V30 13 1 18 10
M  V30 14 1 19 15
M  V30 15 2 19 18
M  V30 16 1 20 4
M  V30 17 1 20 9
M  V30 18 1 20 10
M  V30 19 1 21 6
M  V30 20 1 23 18
M  V30 21 2 23 21
M  V30 22 1 24 5
M  V30 23 1 24 7
M  V30 24 1 24 22
M  V30 25 1 25 5
M  V30 26 1 25 11
M  V30 27 1 26 10
M  V30 28 1 27 12
M  V30 29 1 1 28 CFG=1
M  V30 30 1 29 2
M  V30 31 1 5 30 CFG=1
M  V30 32 1 31 7
M  V30 33 1 32 7
M  V30 34 1 33 8
M  V30 35 1 34 8
M  V30 36 1 35 8
M  V30 37 1 36 9
M  V30 38 1 37 9
M  V30 39 1 10 38 CFG=3
M  V30 40 1 39 11
M  V30 41 1 40 14
M  V30 42 1 41 14
M  V30 43 1 42 19
M  V30 44 1 20 43 CFG=3
M  V30 45 1 44 21
M  V30 46 1 45 22
M  V30 47 1 46 23
M  V30 48 1 24 47 CFG=3
M  V30 49 1 48 25
M  V30 50 1 49 25
M  V30 51 1 50 26
M  V30 52 1 51 27
M  V30 53 1 52 11
M  V30 END BOND
M  V30 END CTAB
M  END
>  <i_epik_Tot_Q>  (1) 
-1

>  <i_epik_Tot_abs_Q>  (1) 
3

>  <i_i_glide_confnum>  (1) 
210

>  <i_i_glide_lignum>  (1) 
47

>  <i_i_glide_posenum>  (1) 
126

>  <i_i_glide_rotatable_bonds>  (1) 
12

>  <i_lp_mmshare_version>  (1) 
72125

>  <i_m_source_file_index>  (1) 
21

>  <i_f3d_flags>  (1) 
0

>  <num_sample>  (1) 
100

>  <b_lp_Chiralities_Consistent>  (1) 
1

>  <r_epik_Charging_Adjusted_Penalty>  (1) 
0.6119073465235404

>  <r_epik_Ionization_Penalty>  (1) 
0.30667552727884728

>  <r_epik_Ionization_Penalty_Charging>  (1) 
0.30666936404430589

>  <r_epik_Ionization_Penalty_Neutral>  (1) 
6.1632345413695363e-06

>  <r_epik_State_Penalty>  (1) 
0.3052379824792345

>  <r_glide_ring_energy>  (1) 
1.9592154643148372

>  <r_i_docking_score>  (1) 
-6.2653373236036503

>  <r_i_glide_ecoul>  (1) 
-9.3515796378599276

>  <r_i_glide_eff_state_penalty>  (1) 
0.3052379824792345

>  <r_i_glide_einternal>  (1) 
20.777361605169229

>  <r_i_glide_emodel>  (1) 
-49.806826023421038

>  <r_i_glide_emodel_strain>  (1) 
3.6896011520984118

>  <r_i_glide_energy>  (1) 
-40.464497383473983

>  <r_i_glide_erotb>  (1) 
0.59271143775516177

>  <r_i_glide_esite>  (1) 
-0.1508727863886008

>  <r_i_glide_evdw>  (1) 
-31.112917745614059

>  <r_i_glide_gscore>  (1) 
-6.5705753060828851

>  <r_i_glide_gscore_strain>  (1) 
0

>  <r_i_glide_hbond>  (1) 
-0.68291868571740377

>  <r_i_glide_ligand_efficiency>  (1) 
-0.23204953050383889

>  <r_i_glide_ligand_efficiency_ln>  (1) 
-1.4584672367764293

>  <r_i_glide_ligand_efficiency_sa>  (1) 
-0.69614859151151687

>  <r_i_glide_lipo>  (1) 
-2.2589344922868801

>  <r_i_glide_metal>  (1) 
-0

>  <r_i_glide_rewards>  (1) 
-1.1121779464854691

>  <r_lp_Energy>  (1) 
8.2369690000000002

>  <s_epik_cmdline>  (1) 
J2VwaWtfcHl0aG9uJywgJy1waHQnLCAnMS4wJywgJy1waCcsICc3LjQnLCAnLXRuJywgJzgnLCAnLW1hJywgJzUwMCcsICctaW1hZScsICc8aW5maWxlLm1hZT4nLCAnLW9tYWUnLCAnPG91dGZpbGUubWFlPic=

>  <s_epik_input>  (1) 
W0NIM11bQ0gyXVtDSDJdW0NAQEhdKFtPSF0pW0NASF0xW0NIMl1bTkhdW0NASF0oQzEoW09IXSlbT0hdKVtDSDJdW0NAQEhdKFAoPU8pKFtPSF0pW09IXSlbQ0BIXShbT0hdKWMoW2NIXTIpW2NIXVtjSF1uYzJG

>  <s_glide_docking_method>  (1) 
confgen

>  <s_i_glide_gridfile>  (1) 
gpcr_5ht2c_6bqh_protein_autoprepared_prepared

>  <s_lp_Force_Field>  (1) 
S-OPLS

>  <s_lp_Variant>  (1) 
DiffSBDD_20-1

>  <s_m_source_file>  (1) 
generated_GPCR_5HT2C_ligand_DiffSBDD_2026-06-23_prepared.sdf

>  <GenAI_Model>  (1) 
DiffSBDD

>  <Protein>  (1) 
GPCR_5HT2C

$$$$
DiffSBDD_9
     RDKit          3D

  0  0  0  0  0  0  0  0  0  0999 V3000
M  V30 BEGIN CTAB
M  V30 COUNTS 67 68 0 0 1
M  V30 BEGIN ATOM
M  V30 1 C 37.500205 32.539881 59.803435 0 CFG=1
M  V30 2 C 36.672045 25.434725 56.727401 0
M  V30 3 C 37.555372 37.348837 61.184605 0
M  V30 4 C 39.499191 29.652980 51.201876 0
M  V30 5 O 36.445526 36.924517 60.553028 0
M  V30 6 O 38.760004 27.443917 51.147048 0
M  V30 7 C 36.241402 33.130013 60.388956 0 CFG=1
M  V30 8 C 36.903529 31.945071 61.063450 0
M  V30 9 N 37.245139 31.704388 58.617547 0 CHG=1
M  V30 10 C 38.251022 28.795004 56.629283 0
M  V30 11 C 38.967486 26.765257 55.322635 0 CFG=2
M  V30 12 C 38.369663 27.096822 53.944689 0
M  V30 13 C 38.790794 28.470963 53.372166 0 CFG=1
M  V30 14 C 37.619628 29.462112 57.814040 0
M  V30 15 C 38.529019 28.644615 51.856342 0 CFG=1
M  V30 16 C 37.563233 26.439138 57.462037 0
M  V30 17 C 38.937171 29.732230 55.628179 0
M  V30 18 C 40.993606 26.935731 56.635757 0
M  V30 19 C 36.184183 34.491686 61.033060 0
M  V30 20 C 38.851284 33.238828 59.813082 0
M  V30 21 O 36.608858 29.051092 58.368435 0
M  V30 22 C 38.291296 30.711939 58.366456 0
M  V30 23 O 38.565295 36.667235 61.366035 0
M  V30 24 C 36.368090 35.619033 59.988758 0
M  V30 25 C 38.234743 27.427988 56.478097 0
M  V30 26 C 38.291882 29.650164 54.227654 0
M  V30 27 O 35.030441 32.729133 59.769396 0
M  V30 28 O 40.361227 27.072482 55.367387 0
M  V30 29 C 38.562367 25.654537 58.317735 0
M  V30 30 H 36.045159 25.927960 55.993601 0
M  V30 31 H 37.228047 24.647479 56.218255 0
M  V30 32 H 36.044598 24.938679 57.453851 0
M  V30 33 H 37.417506 38.381894 61.514134 0
M  V30 34 H 39.508897 30.620880 51.696613 0
M  V30 35 H 40.524700 29.277387 51.223321 0
M  V30 36 H 39.245416 29.827519 50.156759 0
M  V30 37 H 38.007256 26.878952 51.266238 0
M  V30 38 H 37.432858 32.119586 61.999332 0
M  V30 39 H 36.424183 30.969608 60.983355 0
M  V30 40 H 36.372853 31.210670 58.775360 0
M  V30 41 H 38.926636 25.685277 55.441209 0
M  V30 42 H 38.722236 26.305035 53.289671 0
M  V30 43 H 37.283752 27.000993 53.959493 0
M  V30 44 H 39.854029 28.534421 53.435759 0
M  V30 45 H 37.491750 28.934881 51.709903 0
M  V30 46 H 36.889837 26.879048 58.165923 0
M  V30 47 H 38.823882 30.780241 55.887596 0
M  V30 48 H 40.011188 29.551409 55.598060 0
M  V30 49 H 42.055530 27.133654 56.567852 0
M  V30 50 H 40.622322 27.638779 57.379736 0
M  V30 51 H 40.846199 25.929442 57.010048 0
M  V30 52 H 35.249669 34.540266 61.591412 0
M  V30 53 H 36.980964 34.556403 61.768703 0
M  V30 54 H 38.935974 33.935024 60.647264 0
M  V30 55 H 39.647406 32.508731 59.925420 0
M  V30 56 H 39.010468 33.783577 58.884202 0
M  V30 57 H 39.119710 31.118842 57.793590 0
M  V30 58 H 38.720806 30.410516 59.322470 0
M  V30 59 H 37.260701 35.440048 59.385763 0
M  V30 60 H 35.526786 35.605958 59.293602 0
M  V30 61 H 38.533760 30.581462 53.717726 0
M  V30 62 H 37.202872 29.639059 54.303655 0
M  V30 63 H 34.916780 33.198088 58.953904 0
M  V30 64 H 39.204916 26.306075 58.912271 0
M  V30 65 H 38.045073 24.980760 58.992451 0
M  V30 66 H 39.175576 24.991068 57.712971 0
M  V30 67 H 37.067946 32.254542 57.784386 0
M  V30 END ATOM
M  V30 BEGIN BOND
M  V30 1 1 5 3
M  V30 2 1 7 1
M  V30 3 1 8 1
M  V30 4 1 8 7
M  V30 5 1 9 1
M  V30 6 1 12 11
M  V30 7 1 13 12
M  V30 8 1 14 10
M  V30 9 1 15 4
M  V30 10 1 15 6
M  V30 11 1 15 13
M  V30 12 1 16 2
M  V30 13 1 17 10
M  V30 14 1 19 7
M  V30 15 1 1 20 CFG=1
M  V30 16 2 21 14
M  V30 17 1 22 9
M  V30 18 1 22 14
M  V30 19 2 23 3
M  V30 20 1 24 5
M  V30 21 1 24 19
M  V30 22 2 25 10
M  V30 23 1 25 11
M  V30 24 1 25 16
M  V30 25 1 26 13
M  V30 26 1 26 17
M  V30 27 1 7 27 CFG=3
M  V30 28 1 28 11
M  V30 29 1 28 18
M  V30 30 1 29 16
M  V30 31 1 30 2
M  V30 32 1 31 2
M  V30 33 1 32 2
M  V30 34 1 33 3
M  V30 35 1 34 4
M  V30 36 1 35 4
M  V30 37 1 36 4
M  V30 38 1 37 6
M  V30 39 1 38 8
M  V30 40 1 39 8
M  V30 41 1 40 9
M  V30 42 1 11 41 CFG=1
M  V30 43 1 42 12
M  V30 44 1 43 12
M  V30 45 1 13 44 CFG=3
M  V30 46 1 15 45 CFG=1
M  V30 47 1 46 16
M  V30 48 1 47 17
M  V30 49 1 48 17
M  V30 50 1 49 18
M  V30 51 1 50 18
M  V30 52 1 51 18
M  V30 53 1 52 19
M  V30 54 1 53 19
M  V30 55 1 54 20
M  V30 56 1 55 20
M  V30 57 1 56 20
M  V30 58 1 57 22
M  V30 59 1 58 22
M  V30 60 1 59 24
M  V30 61 1 60 24
M  V30 62 1 61 26
M  V30 63 1 62 26
M  V30 64 1 63 27
M  V30 65 1 64 29
M  V30 66 1 65 29
M  V30 67 1 66 29
M  V30 68 1 67 9
M  V30 END BOND
M  V30 END CTAB
M  END
>  <i_epik_Tot_Q>  (1) 
1

>  <i_epik_Tot_abs_Q>  (1) 
1

>  <i_i_glide_confnum>  (1) 
68

>  <i_i_glide_lignum>  (1) 
13

>  <i_i_glide_posenum>  (1) 
339

>  <i_i_glide_rotatable_bonds>  (1) 
13

>  <i_lp_mmshare_version>  (1) 
72125

>  <i_m_source_file_index>  (1) 
10

>  <i_f3d_flags>  (1) 
0

>  <num_sample>  (1) 
100

>  <b_lp_Chiralities_Consistent>  (1) 
1

>  <r_epik_Charging_Adjusted_Penalty>  (1) 
0.43257487955488089

>  <r_epik_Ionization_Penalty>  (1) 
0.21628819114950359

>  <r_epik_Ionization_Penalty_Charging>  (1) 
0.21628743977744047

>  <r_epik_Ionization_Penalty_Neutral>  (1) 
7.5137206312442099e-07

>  <r_epik_State_Penalty>  (1) 
0.21628743977744042

>  <r_glide_ring_energy>  (1) 
0

>  <r_i_docking_score>  (1) 
-6.2628613044984238

>  <r_i_glide_ecoul>  (1) 
-5.8336111373561792

>  <r_i_glide_eff_state_penalty>  (1) 
0.21628743977744042

>  <r_i_glide_einternal>  (1) 
18.3687960296323

>  <r_i_glide_emodel>  (1) 
-42.943897859597996

>  <r_i_glide_emodel_strain>  (1) 
2.6165645430221787

>  <r_i_glide_energy>  (1) 
-37.135170383285754

>  <r_i_glide_erotb>  (1) 
0.92691700141960698

>  <r_i_glide_esite>  (1) 
-0.14712697922075377

>  <r_i_glide_evdw>  (1) 
-31.301559245929578

>  <r_i_glide_gscore>  (1) 
-6.4791487442758644

>  <r_i_glide_gscore_strain>  (1) 
0

>  <r_i_glide_hbond>  (1) 
-0.15245049560260429

>  <r_i_glide_ligand_efficiency>  (1) 
-0.21596073463787668

>  <r_i_glide_ligand_efficiency_ln>  (1) 
-1.4340364262701708

>  <r_i_glide_ligand_efficiency_sa>  (1) 
-0.66349979871542497

>  <r_i_glide_lipo>  (1) 
-3.1015970086224351

>  <r_i_glide_metal>  (1) 
-0

>  <r_i_glide_rewards>  (1) 
-1.5647716293497713

>  <r_lp_Energy>  (1) 
43.017908999999996

>  <s_epik_Chemistry_Notes>  (1) 
This compound has an ester and may undergo hydrolysis at high or low pH.

>  <s_epik_cmdline>  (1) 
J2VwaWtfcHl0aG9uJywgJy1waHQnLCAnMS4wJywgJy1waCcsICc3LjQnLCAnLXRuJywgJzgnLCAnLW1hJywgJzUwMCcsICctaW1hZScsICc8aW5maWxlLm1hZT4nLCAnLW9tYWUnLCAnPG91dGZpbGUubWFlPic=

>  <s_epik_input>  (1) 
Tz1bQ0hdT1tDSDJdW0NIMl1bQ0BAXShbQ0gyXTEpKFtPSF0pW0NAXTEoW0NIM10pW05IXVtDSDJdQyg9TylDMj1DKFtDSF0oW0NIM10pW0NIM10pW0NASF0oT1tDSDNdKVtDSDJdW0NAQEhdKFtDQEBIXShbQ0gzXSlbT0hdKVtDSDJdW0NIMl0y

>  <s_glide_docking_method>  (1) 
confgen

>  <s_i_glide_gridfile>  (1) 
gpcr_5ht2c_6bqh_protein_autoprepared_prepared

>  <s_lp_Force_Field>  (1) 
S-OPLS

>  <s_lp_Variant>  (1) 
DiffSBDD_9-1

>  <s_m_source_file>  (1) 
generated_GPCR_5HT2C_ligand_DiffSBDD_2026-06-23_prepared.sdf

>  <GenAI_Model>  (1) 
DiffSBDD

>  <Protein>  (1) 
GPCR_5HT2C

$$$$
DiffSBDD_50
     RDKit          3D

  0  0  0  0  0  0  0  0  0  0999 V3000
M  V30 BEGIN CTAB
M  V30 COUNTS 65 68 0 0 1
M  V30 BEGIN ATOM
M  V30 1 C 38.589384 30.685726 58.644508 0 CFG=1
M  V30 2 F 40.180239 27.635826 57.662832 0
M  V30 3 C 38.314025 32.822188 61.501145 0
M  V30 4 O 40.627747 30.082268 61.088407 0 CHG=-1
M  V30 5 O 37.573094 36.255548 61.577320 0
M  V30 6 O 38.901620 33.787537 62.310867 0
M  V30 7 S 36.354555 31.537972 60.171337 0
M  V30 8 C 37.908461 29.534359 57.892853 0
M  V30 9 C 40.948573 35.059055 62.551894 0 CFG=2
M  V30 10 O 38.834208 30.272225 54.377959 0
M  V30 11 C 38.926843 36.210985 61.967146 0 CFG=1
M  V30 12 C 40.975367 35.737565 65.092419 0
M  V30 13 C 38.965258 31.823180 56.361396 0
M  V30 14 C 38.560322 29.350908 56.502726 0 CFG=2
M  V30 15 C 39.533601 25.357146 57.767723 0
M  V30 16 C 40.387762 31.339805 61.356290 0
M  V30 17 C 38.306575 30.608055 55.661251 0 CFG=2
M  V30 18 C 39.140503 31.337097 53.518003 0
M  V30 19 F 36.844947 23.540282 56.057521 0
M  V30 20 C 37.460905 25.838630 55.929156 0
M  V30 21 C 40.639659 36.113571 63.636408 0 CFG=2
M  V30 22 C 38.477511 31.994353 57.815361 0
M  V30 23 C 38.686195 24.311601 57.367752 0
M  V30 24 C 39.200800 36.592545 63.416365 0
M  V30 25 C 38.092404 30.792898 60.123763 0 CFG=2
M  V30 26 C 38.290520 26.902956 56.332395 0
M  V30 27 C 39.638166 34.856422 61.741728 0 CFG=2
M  V30 28 C 38.924818 31.732044 61.032162 0
M  V30 29 N 38.045183 28.185865 55.793094 0
M  V30 30 C 39.348047 26.649836 57.263039 0
M  V30 31 C 37.654471 24.551285 56.446759 0
M  V30 32 O 39.914364 34.723593 60.369899 0
M  V30 33 O 36.209882 33.866838 61.450539 0
M  V30 34 O 41.515849 33.887183 63.088117 0
M  V30 35 C 36.944373 32.933296 61.137580 0
M  V30 36 H 39.640365 30.402854 58.668388 0
M  V30 37 H 37.134028 35.465999 61.874427 0
M  V30 38 H 37.990271 28.628309 58.491288 0
M  V30 39 H 36.840455 29.730414 57.782350 0
M  V30 40 H 41.682904 35.492358 61.871962 0
M  V30 41 H 39.448208 36.956239 61.367553 0
M  V30 42 H 40.445188 34.843443 65.415552 0
M  V30 43 H 42.043111 35.549131 65.209525 0
M  V30 44 H 40.710629 36.542037 65.777355 0
M  V30 45 H 38.755050 32.741107 55.811987 0
M  V30 46 H 40.045120 31.699336 56.356212 0
M  V30 47 H 39.644302 29.310841 56.555640 0
M  V30 48 H 40.332215 25.167396 58.468500 0
M  V30 49 H 40.972295 32.109728 60.853602 0
M  V30 50 H 40.503938 31.653383 62.390527 0
M  V30 51 H 37.237609 30.793010 55.551129 0
M  V30 52 H 39.354735 30.959806 52.520289 0
M  V30 53 H 38.348716 32.084534 53.464438 0
M  V30 54 H 40.046713 31.776797 53.898069 0
M  V30 55 H 36.665642 26.015682 55.224862 0
M  V30 56 H 41.291357 36.937817 63.367766 0
M  V30 57 H 37.444093 32.336678 57.776119 0
M  V30 58 H 39.042577 32.792674 58.296656 0
M  V30 59 H 38.832728 23.322021 57.767765 0
M  V30 60 H 38.494152 36.137733 64.103599 0
M  V30 61 H 39.120344 37.668907 63.568844 0
M  V30 62 H 38.044676 29.801107 60.575310 0
M  V30 63 H 37.235860 28.319026 55.206170 0
M  V30 64 H 39.103024 34.865443 59.905172 0
M  V30 65 H 40.807268 33.324853 63.365956 0
M  V30 END ATOM
M  V30 BEGIN BOND
M  V30 1 1 6 3
M  V30 2 1 8 1
M  V30 3 1 11 5
M  V30 4 1 14 8
M  V30 5 1 16 4
M  V30 6 1 17 10
M  V30 7 1 17 13
M  V30 8 1 17 14
M  V30 9 1 18 10
M  V30 10 1 21 9
M  V30 11 1 21 12
M  V30 12 1 22 1
M  V30 13 1 22 13
M  V30 14 2 23 15
M  V30 15 1 24 11
M  V30 16 1 24 21
M  V30 17 1 25 1
M  V30 18 1 25 7
M  V30 19 1 26 20
M  V30 20 1 27 6 CFG=1
M  V30 21 1 27 9
M  V30 22 1 27 11
M  V30 23 2 28 3
M  V30 24 1 28 16
M  V30 25 1 28 25
M  V30 26 1 29 14
M  V30 27 1 29 26
M  V30 28 1 30 2
M  V30 29 1 30 15
M  V30 30 2 30 26
M  V30 31 1 31 19
M  V30 32 2 31 20
M  V30 33 1 31 23
M  V30 34 1 32 27
M  V30 35 1 34 9
M  V30 36 1 35 3
M  V30 37 1 35 7
M  V30 38 2 35 33
M  V30 39 1 1 36 CFG=1
M  V30 40 1 37 5
M  V30 41 1 38 8
M  V30 42 1 39 8
M  V30 43 1 9 40 CFG=3
M  V30 44 1 11 41 CFG=3
M  V30 45 1 42 12
M  V30 46 1 43 12
M  V30 47 1 44 12
M  V30 48 1 45 13
M  V30 49 1 46 13
M  V30 50 1 14 47 CFG=1
M  V30 51 1 48 15
M  V30 52 1 49 16
M  V30 53 1 50 16
M  V30 54 1 17 51 CFG=3
M  V30 55 1 52 18
M  V30 56 1 53 18
M  V30 57 1 54 18
M  V30 58 1 55 20
M  V30 59 1 21 56 CFG=3
M  V30 60 1 57 22
M  V30 61 1 58 22
M  V30 62 1 59 23
M  V30 63 1 60 24
M  V30 64 1 61 24
M  V30 65 1 25 62 CFG=1
M  V30 66 1 63 29
M  V30 67 1 64 32
M  V30 68 1 65 34
M  V30 END BOND
M  V30 END CTAB
M  END
>  <i_epik_Tot_Q>  (1) 
-1

>  <i_epik_Tot_abs_Q>  (1) 
1

>  <i_i_glide_confnum>  (1) 
13

>  <i_i_glide_lignum>  (1) 
105

>  <i_i_glide_posenum>  (1) 
166

>  <i_i_glide_rotatable_bonds>  (1) 
10

>  <i_lp_mmshare_version>  (1) 
72125

>  <i_m_source_file_index>  (1) 
51

>  <i_f3d_flags>  (1) 
0

>  <num_sample>  (1) 
100

>  <b_lp_Chiralities_Consistent>  (1) 
1

>  <r_epik_Charging_Adjusted_Penalty>  (1) 
1.033121990919972

>  <r_epik_Ionization_Penalty>  (1) 
0.51659959183111048

>  <r_epik_Ionization_Penalty_Charging>  (1) 
0.51656099545998602

>  <r_epik_Ionization_Penalty_Neutral>  (1) 
3.8596371124435187e-05

>  <r_epik_State_Penalty>  (1) 
0.51656099545998602

>  <r_glide_ring_energy>  (1) 
0

>  <r_i_docking_score>  (1) 
-6.2581986955218669

>  <r_i_glide_ecoul>  (1) 
-2.8082305937283394

>  <r_i_glide_eff_state_penalty>  (1) 
0.51656099545998602

>  <r_i_glide_einternal>  (1) 
10.208266748421995

>  <r_i_glide_emodel>  (1) 
-57.333056409037106

>  <r_i_glide_emodel_strain>  (1) 
3.496178137174013

>  <r_i_glide_energy>  (1) 
-46.891761146997503

>  <r_i_glide_erotb>  (1) 
0.38736490325272716

>  <r_i_glide_esite>  (1) 
0

>  <r_i_glide_evdw>  (1) 
-44.083530553269163

>  <r_i_glide_gscore>  (1) 
-6.7747596909818526

>  <r_i_glide_gscore_strain>  (1) 
0

>  <r_i_glide_hbond>  (1) 
-0.15667209275940092

>  <r_i_glide_ligand_efficiency>  (1) 
-0.17880567701491049

>  <r_i_glide_ligand_efficiency_ln>  (1) 
-1.3738135069037274

>  <r_i_glide_ligand_efficiency_sa>  (1) 
-0.58488522615393601

>  <r_i_glide_lipo>  (1) 
-2.8896033809454318

>  <r_i_glide_metal>  (1) 
-0

>  <r_i_glide_rewards>  (1) 
-1.4904380038070393

>  <r_lp_Energy>  (1) 
65.937855999999996

>  <r_lp_tautomer_probability>  (1) 
0.99999998906363929

>  <s_epik_cmdline>  (1) 
J2VwaWtfcHl0aG9uJywgJy1waHQnLCAnMS4wJywgJy1waCcsICc3LjQnLCAnLXRuJywgJzgnLCAnLW1hJywgJzUwMCcsICctaW1hZScsICc8aW5maWxlLm1hZT4nLCAnLW9tYWUnLCAnPG91dGZpbGUubWFlPic=

>  <s_epik_input>  (1) 
W09IXVtDQEhdMVtDSDJdW0NAQEhdKFtDSDNdKVtDQEBIXShbT0hdKVtDQEBdMShbT0hdKU9DMj1DKFtDSDJdW09IXSlbQ0BASF0oU0MyPU8pW0NASF0zW0NIMl1bQ0BIXShbQ0BIXShPW0NIM10pW0NIMl1bQ0gyXTMpW05IXWM0W2NIXWMoRilbY0hdW2NIXWM0Rg==

>  <s_glide_docking_method>  (1) 
confgen

>  <s_i_glide_gridfile>  (1) 
gpcr_5ht2c_6bqh_protein_autoprepared_prepared

>  <s_lp_Force_Field>  (1) 
S-OPLS

>  <s_lp_Variant>  (1) 
DiffSBDD_50-3

>  <s_m_source_file>  (1) 
generated_GPCR_5HT2C_ligand_DiffSBDD_2026-06-23_prepared.sdf

>  <GenAI_Model>  (1) 
DiffSBDD

>  <Protein>  (1) 
GPCR_5HT2C

$$$$
DiffSBDD_75
     RDKit          3D

  0  0  0  0  0  0  0  0  0  0999 V3000
M  V30 BEGIN CTAB
M  V30 COUNTS 76 77 0 0 1
M  V30 BEGIN ATOM
M  V30 1 C 40.503915 30.332332 62.683570 0
M  V30 2 C 37.431970 31.178369 60.886402 0
M  V30 3 O 41.138547 27.828006 58.247561 0
M  V30 4 C 40.841643 31.071959 65.634985 0
M  V30 5 C 39.181172 30.121352 56.066178 0 CFG=2
M  V30 6 C 39.406751 35.781279 61.899604 0
M  V30 7 C 40.097131 28.768442 58.070012 0 CFG=2
M  V30 8 C 38.400699 36.017281 60.942331 0
M  V30 9 O 39.267227 30.814517 53.759931 0
M  V30 10 C 38.600237 27.579566 56.227496 0 CFG=1
M  V30 11 O 35.941266 37.853026 62.968585 0
M  V30 12 S 39.645090 28.537762 60.849389 0
M  V30 13 C 41.617586 30.966472 66.964857 0
M  V30 14 C 37.073207 37.177765 62.619942 0
M  V30 15 C 39.003241 28.559728 59.145940 0
M  V30 16 C 40.647725 35.012350 61.517340 0
M  V30 17 C 39.245963 36.245889 63.217749 0
M  V30 18 O 39.245117 27.095352 53.911052 0
M  V30 19 C 39.076412 26.159007 56.616920 0
M  V30 20 C 39.621012 28.716289 56.583134 0 CFG=1
M  V30 21 O 41.245201 32.000570 67.854516 0
M  V30 22 O 38.332651 30.732369 61.885824 0
M  V30 23 O 42.446538 32.555635 61.767759 0
M  V30 24 C 41.842805 33.174274 64.944563 0
M  V30 25 N 41.508715 31.797509 64.535943 0
M  V30 26 C 41.278735 32.621236 62.136834 0
M  V30 27 C 37.238678 36.719704 61.300898 0
M  V30 28 C 40.299460 33.522585 61.395884 0
M  V30 29 C 40.712063 31.753692 63.276681 0 CFG=1
M  V30 30 C 38.077301 36.937764 63.579845 0
M  V30 31 C 37.776296 28.977924 54.202397 0
M  V30 32 C 39.596391 30.249987 61.434757 0 CFG=1
M  V30 33 C 38.053904 30.808907 56.859339 0
M  V30 34 C 38.196624 27.592157 54.724366 0 CFG=2
M  V30 35 C 38.789968 30.046526 54.592180 0
M  V30 36 H 41.477312 29.891472 62.464181 0
M  V30 37 H 40.045008 29.672213 63.415526 0
M  V30 38 H 36.648072 31.771698 61.356957 0
M  V30 39 H 37.920558 31.808344 60.142218 0
M  V30 40 H 36.940081 30.342905 60.393068 0
M  V30 41 H 40.814590 26.966866 58.032530 0
M  V30 42 H 39.837076 31.461456 65.800636 0
M  V30 43 H 40.699714 30.035698 65.338816 0
M  V30 44 H 40.558944 29.737761 58.249528 0
M  V30 45 H 38.518473 35.655648 59.934190 0
M  V30 46 H 37.640871 28.966884 53.120847 0
M  V30 47 H 37.685598 27.774516 56.788515 0
M  V30 48 H 35.840389 37.962434 63.901031 0
M  V30 49 H 41.371628 30.024316 67.456875 0
M  V30 50 H 42.696686 30.961862 66.803935 0
M  V30 51 H 38.503258 27.604401 59.009592 0
M  V30 52 H 38.222823 29.303263 59.055578 0
M  V30 53 H 41.029803 35.390591 60.568856 0
M  V30 54 H 41.430339 35.195671 62.256081 0
M  V30 55 H 40.015247 36.063621 63.954366 0
M  V30 56 H 38.921055 26.997012 53.027793 0
M  V30 57 H 40.039435 25.923698 56.161842 0
M  V30 58 H 39.183246 26.020057 57.690320 0
M  V30 59 H 38.364571 25.405316 56.278651 0
M  V30 60 H 40.516650 28.494658 55.997665 0
M  V30 61 H 41.457945 32.829925 67.455831 0
M  V30 62 H 42.455213 33.192208 65.844123 0
M  V30 63 H 42.444663 33.699495 64.203759 0
M  V30 64 H 40.942382 33.761536 65.132226 0
M  V30 65 H 36.468791 36.901311 60.564763 0
M  V30 66 H 39.308430 33.341024 61.812176 0
M  V30 67 H 40.238518 33.227924 60.348941 0
M  V30 68 H 39.723507 32.146885 63.515780 0
M  V30 69 H 37.952555 37.288880 64.593606 0
M  V30 70 H 36.822230 29.264704 54.640709 0
M  V30 71 H 40.045124 30.783592 56.112675 0
M  V30 72 H 39.985013 30.864010 60.622897 0
M  V30 73 H 37.651594 31.669688 56.321292 0
M  V30 74 H 37.217982 30.137639 57.054665 0
M  V30 75 H 38.418154 31.190312 57.811921 0
M  V30 76 H 37.353130 26.913553 54.589217 0
M  V30 END ATOM
M  V30 BEGIN BOND
M  V30 1 1 7 3
M  V30 2 1 8 6
M  V30 3 1 13 4
M  V30 4 1 14 11
M  V30 5 1 15 7
M  V30 6 1 15 12
M  V30 7 1 16 6
M  V30 8 2 17 6
M  V30 9 1 19 10
M  V30 10 1 20 5
M  V30 11 1 20 7
M  V30 12 1 20 10
M  V30 13 1 21 13
M  V30 14 1 22 2
M  V30 15 1 25 4
M  V30 16 1 25 24
M  V30 17 2 26 23
M  V30 18 2 27 8
M  V30 19 1 27 14
M  V30 20 1 28 16
M  V30 21 1 28 26
M  V30 22 1 29 1
M  V30 23 1 29 25
M  V30 24 1 29 26
M  V30 25 2 30 14
M  V30 26 1 30 17
M  V30 27 1 32 1
M  V30 28 1 32 12
M  V30 29 1 32 22
M  V30 30 1 33 5
M  V30 31 1 34 10
M  V30 32 1 34 18
M  V30 33 1 34 31
M  V30 34 1 35 5
M  V30 35 2 35 9
M  V30 36 1 35 31
M  V30 37 1 36 1
M  V30 38 1 37 1
M  V30 39 1 38 2
M  V30 40 1 39 2
M  V30 41 1 40 2
M  V30 42 1 41 3
M  V30 43 1 42 4
M  V30 44 1 43 4
M  V30 45 1 7 44 CFG=1
M  V30 46 1 45 8
M  V30 47 1 46 31
M  V30 48 1 10 47 CFG=1
M  V30 49 1 48 11
M  V30 50 1 49 13
M  V30 51 1 50 13
M  V30 52 1 51 15
M  V30 53 1 52 15
M  V30 54 1 53 16
M  V30 55 1 54 16
M  V30 56 1 55 17
M  V30 57 1 56 18
M  V30 58 1 57 19
M  V30 59 1 58 19
M  V30 60 1 59 19
M  V30 61 1 20 60 CFG=3
M  V30 62 1 61 21
M  V30 63 1 62 24
M  V30 64 1 63 24
M  V30 65 1 64 24
M  V30 66 1 65 27
M  V30 67 1 66 28
M  V30 68 1 67 28
M  V30 69 1 29 68 CFG=1
M  V30 70 1 69 30
M  V30 71 1 70 31
M  V30 72 1 5 71 CFG=3
M  V30 73 1 32 72 CFG=3
M  V30 74 1 73 33
M  V30 75 1 74 33
M  V30 76 1 75 33
M  V30 77 1 34 76 CFG=1
M  V30 END BOND
M  V30 END CTAB
M  END
>  <i_epik_Tot_Q>  (1) 
0

>  <i_epik_Tot_abs_Q>  (1) 
0

>  <i_i_glide_confnum>  (1) 
2897

>  <i_i_glide_lignum>  (1) 
175

>  <i_i_glide_posenum>  (1) 
399

>  <i_i_glide_rotatable_bonds>  (1) 
18

>  <i_lp_mmshare_version>  (1) 
72125

>  <i_m_source_file_index>  (1) 
76

>  <i_f3d_flags>  (1) 
0

>  <num_sample>  (1) 
100

>  <b_lp_Chiralities_Consistent>  (1) 
1

>  <r_epik_Charging_Adjusted_Penalty>  (1) 
0.60615279515584763

>  <r_epik_Ionization_Penalty>  (1) 
0.6077244911787385

>  <r_epik_Ionization_Penalty_Charging>  (1) 
0

>  <r_epik_Ionization_Penalty_Neutral>  (1) 
0.6077244911787385

>  <r_epik_State_Penalty>  (1) 
0.60615279515584763

>  <r_glide_ring_energy>  (1) 
0

>  <r_i_docking_score>  (1) 
-6.2513862521665731

>  <r_i_glide_ecoul>  (1) 
-1.0688673323533766

>  <r_i_glide_eff_state_penalty>  (1) 
0.60615279515584763

>  <r_i_glide_einternal>  (1) 
19.800660475323109

>  <r_i_glide_emodel>  (1) 
-59.890060848978806

>  <r_i_glide_emodel_strain>  (1) 
2.2853613601605431

>  <r_i_glide_energy>  (1) 
-51.938270077696998

>  <r_i_glide_erotb>  (1) 
1.0176109525924779

>  <r_i_glide_esite>  (1) 
0

>  <r_i_glide_evdw>  (1) 
-50.869402745343621

>  <r_i_glide_gscore>  (1) 
-6.8575390473224207

>  <r_i_glide_gscore_strain>  (1) 
0

>  <r_i_glide_hbond>  (1) 
-0.0099065833851990862

>  <r_i_glide_ligand_efficiency>  (1) 
-0.17861103577618781

>  <r_i_glide_ligand_efficiency_ln>  (1) 
-1.3723180243932063

>  <r_i_glide_ligand_efficiency_sa>  (1) 
-0.58424854175537688

>  <r_i_glide_lipo>  (1) 
-4.271981155549768

>  <r_i_glide_metal>  (1) 
-0

>  <r_i_glide_rewards>  (1) 
-0.88946202385974305

>  <r_lp_Energy>  (1) 
27.707881

>  <r_lp_tautomer_probability>  (1) 
0.99999993999736703

>  <s_epik_Chemistry_Notes>  (1) 
This compound contains an acetal/aminal-like group ( X-CH(R)-Y where X, Y are N, S, or O) that may be acid/base labile, releasing an aldehyde.

>  <s_epik_cmdline>  (1) 
J2VwaWtfcHl0aG9uJywgJy1waHQnLCAnMS4wJywgJy1waCcsICc3LjQnLCAnLXRuJywgJzgnLCAnLW1hJywgJzUwMCcsICctaW1hZScsICc8aW5maWxlLm1hZT4nLCAnLW9tYWUnLCAnPG91dGZpbGUubWFlPic=

>  <s_epik_input>  (1) 
W2NIXTFbY0hdYyhbT0hdKVtjSF1bY0hdYzFbQ0gyXVtDSDJdQyg9TylbQ0BIXShOKFtDSDNdKVtDSDJdW0NIMl1bT0hdKVtDSDJdW0NASF0oT1tDSDNdKVNbQ0gyXVtDQEBIXShbT0hdKVtDQEhdMltDQEBIXShbQ0gzXSlbQ0BIXShbT0hdKVtDSDJdQyhbT0hdKT1DMltDSDNd

>  <s_glide_docking_method>  (1) 
confgen

>  <s_i_glide_gridfile>  (1) 
gpcr_5ht2c_6bqh_protein_autoprepared_prepared

>  <s_lp_Force_Field>  (1) 
S-OPLS

>  <s_lp_Variant>  (1) 
DiffSBDD_75-12

>  <s_m_source_file>  (1) 
generated_GPCR_5HT2C_ligand_DiffSBDD_2026-06-23_prepared.sdf

>  <GenAI_Model>  (1) 
DiffSBDD

>  <Protein>  (1) 
GPCR_5HT2C

$$$$
DiffSBDD_23
     RDKit          3D

  0  0  0  0  0  0  0  0  0  0999 V3000
M  V30 BEGIN CTAB
M  V30 COUNTS 68 70 0 0 1
M  V30 BEGIN ATOM
M  V30 1 C 40.943982 31.086476 66.242497 0
M  V30 2 C 41.871612 31.781610 67.059450 0
M  V30 3 C 36.682018 23.736240 55.989519 0
M  V30 4 O 39.647537 29.724300 57.229670 0 CHG=-1
M  V30 5 C 42.437763 33.120736 66.618888 0
M  V30 6 N 40.541216 31.626291 65.005644 0
M  V30 7 C 40.129694 30.724237 63.929846 0 CFG=1
M  V30 8 C 38.380469 30.141880 59.629704 0 CFG=2
M  V30 9 C 40.438030 29.841951 66.693533 0
M  V30 10 C 40.190494 26.783389 58.000996 0
M  V30 11 C 39.537979 26.955027 55.555413 0
M  V30 12 C 39.615882 31.509751 62.710014 0
M  V30 13 C 41.299203 29.811519 63.537568 0
M  V30 14 C 38.759987 26.550407 54.455410 0
M  V30 15 C 38.112782 33.698515 60.437525 0
M  V30 16 C 41.726391 29.968096 68.678251 0
M  V30 17 C 38.450154 25.270348 56.946371 0
M  V30 18 O 41.245244 28.609780 63.875956 0
M  V30 19 P 38.709232 29.040888 58.146596 0
M  V30 20 N 40.845042 29.337902 67.876205 0 CHG=1
M  V30 21 C 35.456264 33.118725 61.181503 0
M  V30 22 C 37.410197 34.569624 61.291496 0
M  V30 23 O 37.384783 28.605964 57.663959 0
M  V30 24 C 36.085962 34.275168 61.665507 0
M  V30 25 C 42.266100 31.212387 68.292575 0
M  V30 26 C 37.825412 25.508954 54.600932 0
M  V30 27 C 39.378142 26.320701 56.804977 0
M  V30 28 C 37.675459 24.863227 55.842376 0
M  V30 29 C 36.145437 32.246320 60.324782 0
M  V30 30 C 38.212674 31.560514 59.033641 0
M  V30 31 C 39.435971 30.086039 60.745838 0
M  V30 32 O 42.262244 30.364833 62.967760 0 CHG=-1
M  V30 33 C 37.476108 32.525275 59.951733 0
M  V30 34 O 39.481150 27.690203 58.834302 0
M  V30 35 C 39.544181 34.019792 60.050746 0
M  V30 36 O 38.810142 30.699412 61.868500 0
M  V30 37 H 36.798143 23.022868 55.173291 0
M  V30 38 H 36.840803 23.206460 56.929145 0
M  V30 39 H 35.664908 24.125335 55.964379 0
M  V30 40 H 43.140280 33.516026 67.353368 0
M  V30 41 H 42.967315 33.016139 65.671684 0
M  V30 42 H 41.636531 33.849731 66.491997 0
M  V30 43 H 41.080921 32.412990 64.676073 0
M  V30 44 H 39.291635 30.131818 64.286702 0
M  V30 45 H 37.432826 29.801941 60.046170 0
M  V30 46 H 39.728557 29.239153 66.144639 0
M  V30 47 H 41.130373 27.231487 57.675550 0
M  V30 48 H 40.444713 25.891370 58.567770 0
M  V30 49 H 40.248515 27.761457 55.446448 0
M  V30 50 H 40.429236 31.995149 62.171967 0
M  V30 51 H 38.967198 32.323232 63.032399 0
M  V30 52 H 38.876708 27.042519 53.500550 0
M  V30 53 H 41.971673 29.462391 69.600914 0
M  V30 54 H 38.327707 24.783085 57.902636 0
M  V30 55 H 34.444892 32.900532 61.470692 0
M  V30 56 H 37.889498 35.461553 61.667928 0
M  V30 57 H 35.554707 34.937546 62.329836 0
M  V30 58 H 42.972243 31.722575 68.930792 0
M  V30 59 H 37.225094 25.202152 53.759985 0
M  V30 60 H 35.655310 31.357000 59.953732 0
M  V30 61 H 37.610295 31.501367 58.124776 0
M  V30 62 H 39.189149 31.926604 58.710564 0
M  V30 63 H 39.694825 29.060051 61.007621 0
M  V30 64 H 40.351147 30.591504 60.438927 0
M  V30 65 H 39.885121 34.944161 60.517933 0
M  V30 66 H 40.209674 33.220284 60.367961 0
M  V30 67 H 39.634352 34.137627 58.972484 0
M  V30 68 H 40.460825 28.436167 68.182210 0
M  V30 END ATOM
M  V30 BEGIN BOND
M  V30 1 2 2 1
M  V30 2 1 5 2
M  V30 3 1 6 1
M  V30 4 1 7 6
M  V30 5 1 9 1
M  V30 6 1 12 7
M  V30 7 1 13 7
M  V30 8 1 14 11
M  V30 9 2 18 13
M  V30 10 1 19 4
M  V30 11 1 19 8
M  V30 12 2 20 9
M  V30 13 1 20 16
M  V30 14 2 22 15
M  V30 15 2 23 19
M  V30 16 2 24 21
M  V30 17 1 24 22
M  V30 18 1 25 2
M  V30 19 2 25 16
M  V30 20 2 26 14
M  V30 21 1 27 10
M  V30 22 2 27 11
M  V30 23 1 27 17
M  V30 24 1 28 3
M  V30 25 2 28 17
M  V30 26 1 28 26
M  V30 27 1 29 21
M  V30 28 1 30 8
M  V30 29 1 31 8
M  V30 30 1 32 13
M  V30 31 1 33 15
M  V30 32 2 33 29
M  V30 33 1 33 30
M  V30 34 1 34 10
M  V30 35 1 34 19
M  V30 36 1 35 15
M  V30 37 1 36 12
M  V30 38 1 36 31
M  V30 39 1 37 3
M  V30 40 1 38 3
M  V30 41 1 39 3
M  V30 42 1 40 5
M  V30 43 1 41 5
M  V30 44 1 42 5
M  V30 45 1 43 6
M  V30 46 1 7 44 CFG=1
M  V30 47 1 8 45 CFG=1
M  V30 48 1 46 9
M  V30 49 1 47 10
M  V30 50 1 48 10
M  V30 51 1 49 11
M  V30 52 1 50 12
M  V30 53 1 51 12
M  V30 54 1 52 14
M  V30 55 1 53 16
M  V30 56 1 54 17
M  V30 57 1 55 21
M  V30 58 1 56 22
M  V30 59 1 57 24
M  V30 60 1 58 25
M  V30 61 1 59 26
M  V30 62 1 60 29
M  V30 63 1 61 30
M  V30 64 1 62 30
M  V30 65 1 63 31
M  V30 66 1 64 31
M  V30 67 1 65 35
M  V30 68 1 66 35
M  V30 69 1 67 35
M  V30 70 1 68 20
M  V30 END BOND
M  V30 END CTAB
M  END
>  <i_epik_Tot_Q>  (1) 
-1

>  <i_epik_Tot_abs_Q>  (1) 
3

>  <i_i_glide_confnum>  (1) 
4146

>  <i_i_glide_lignum>  (1) 
58

>  <i_i_glide_posenum>  (1) 
354

>  <i_i_glide_rotatable_bonds>  (1) 
13

>  <i_lp_mmshare_version>  (1) 
72125

>  <i_m_source_file_index>  (1) 
24

>  <i_f3d_flags>  (1) 
0

>  <num_sample>  (1) 
100

>  <b_lp_Chiralities_Consistent>  (1) 
1

>  <r_epik_Charging_Adjusted_Penalty>  (1) 
1.2797278025130083

>  <r_epik_Ionization_Penalty>  (1) 
0.64011743969219936

>  <r_epik_Ionization_Penalty_Charging>  (1) 
0.64011720958933516

>  <r_epik_Ionization_Penalty_Neutral>  (1) 
2.3010286421690967e-07

>  <r_epik_State_Penalty>  (1) 
0.63961059292367306

>  <r_glide_ring_energy>  (1) 
0

>  <r_i_docking_score>  (1) 
-6.2448252785262968

>  <r_i_glide_ecoul>  (1) 
-5.1283673506604508

>  <r_i_glide_eff_state_penalty>  (1) 
0.63961059292367306

>  <r_i_glide_einternal>  (1) 
16.500348770226942

>  <r_i_glide_emodel>  (1) 
-64.161092020269905

>  <r_i_glide_emodel_strain>  (1) 
2.7073880703610147

>  <r_i_glide_energy>  (1) 
-49.675569113340174

>  <r_i_glide_erotb>  (1) 
0.93981710635313198

>  <r_i_glide_esite>  (1) 
-0.046458564657264015

>  <r_i_glide_evdw>  (1) 
-44.547201762679727

>  <r_i_glide_gscore>  (1) 
-6.8844358714499698

>  <r_i_glide_gscore_strain>  (1) 
0

>  <r_i_glide_hbond>  (1) 
-0.095390539579032707

>  <r_i_glide_ligand_efficiency>  (1) 
-0.17346736884795269

>  <r_i_glide_ligand_efficiency_ln>  (1) 
-1.3624521600929118

>  <r_i_glide_ligand_efficiency_sa>  (1) 
-0.57277663199311002

>  <r_i_glide_lipo>  (1) 
-4.1009812431712298

>  <r_i_glide_metal>  (1) 
-0

>  <r_i_glide_rewards>  (1) 
-0.5848074396625208

>  <r_lp_Energy>  (1) 
41.185898999999999

>  <r_lp_tautomer_probability>  (1) 
0.99984579293731657

>  <s_epik_cmdline>  (1) 
J2VwaWtfcHl0aG9uJywgJy1waHQnLCAnMS4wJywgJy1waCcsICc3LjQnLCAnLXRuJywgJzgnLCAnLW1hJywgJzUwMCcsICctaW1hZScsICc8aW5maWxlLm1hZT4nLCAnLW9tYWUnLCAnPG91dGZpbGUubWFlPic=

>  <s_epik_input>  (1) 
W2NIXTFuW2NIXVtjSF1jKFtDSDNdKWMxW05IXVtDQEhdKEMoPU8pW09IXSlbQ0gyXU9bQ0gyXVtDQEBIXShbQ0gyXWMyW2NIXVtjSF1bY0hdW2NIXWMyW0NIM10pW1BAQF0oPU8pKFtPSF0pT1tDSDJdYzNbY0hdW2NIXVtjSF1jKFtDSDNdKVtjSF0z

>  <s_glide_docking_method>  (1) 
confgen

>  <s_i_glide_gridfile>  (1) 
gpcr_5ht2c_6bqh_protein_autoprepared_prepared

>  <s_lp_Force_Field>  (1) 
S-OPLS

>  <s_lp_Variant>  (1) 
DiffSBDD_23-2

>  <s_m_source_file>  (1) 
generated_GPCR_5HT2C_ligand_DiffSBDD_2026-06-23_prepared.sdf

>  <GenAI_Model>  (1) 
DiffSBDD

>  <Protein>  (1) 
GPCR_5HT2C

$$$$
DiffSBDD_53
     RDKit          3D

  0  0  0  0  0  0  0  0  0  0999 V3000
M  V30 BEGIN CTAB
M  V30 COUNTS 82 86 0 0 1
M  V30 BEGIN ATOM
M  V30 1 C 38.948309 28.371470 58.044971 0
M  V30 2 C 37.468414 32.585783 62.131664 0
M  V30 3 C 41.234883 33.399989 64.748170 0
M  V30 4 C 40.036279 27.492489 58.683118 0
M  V30 5 C 40.388526 33.347165 61.775615 0
M  V30 6 C 37.592074 27.676068 53.494852 0
M  V30 7 C 40.684440 30.818999 54.770673 0
M  V30 8 N 39.534078 29.350764 57.122854 0
M  V30 9 N 42.045307 36.137751 66.167760 0 CHG=1
M  V30 10 C 36.628472 32.980882 59.386721 0
M  V30 11 C 38.602018 30.163561 56.323523 0 CFG=1
M  V30 12 N 40.927852 28.233963 59.595564 0 CHG=1
M  V30 13 C 40.660348 32.333248 62.618572 0
M  V30 14 C 39.460910 33.112164 60.618628 0
M  V30 15 C 39.384943 31.153948 55.474739 0 CFG=1
M  V30 16 C 39.124761 30.803268 61.483724 0 CFG=1
M  V30 17 C 37.695256 29.314207 55.427316 0 CFG=2
M  V30 18 C 40.784497 35.630943 65.654566 0
M  V30 19 O 39.245143 32.501513 55.868650 0
M  V30 20 C 40.205839 28.869920 60.849625 0
M  V30 21 C 36.563812 33.776628 61.751756 0
M  V30 22 C 35.723451 33.438729 60.527517 0
M  V30 23 C 38.386128 32.084093 60.986275 0
M  V30 24 O 39.724310 30.113738 60.427899 0
M  V30 25 C 37.494130 31.767422 59.774156 0
M  V30 26 C 38.454097 28.733826 54.216120 0 CFG=2
M  V30 27 O 36.641510 30.137871 54.967761 0
M  V30 28 C 41.248619 35.289916 63.156615 0
M  V30 29 N 38.845124 29.853212 53.319200 0 CFG=2 CHG=1
M  V30 30 O 40.084969 31.093020 62.462293 0
M  V30 31 C 39.505393 29.487974 52.038273 0
M  V30 32 C 39.444062 31.057703 53.954804 0 CFG=2
M  V30 33 C 40.944260 34.692205 61.967076 0
M  V30 34 C 41.609811 32.385663 63.746946 0
M  V30 35 C 41.103070 34.713606 64.506308 0
M  V30 36 H 38.332067 28.864237 58.797552 0
M  V30 37 H 38.286497 27.685304 57.521152 0
M  V30 38 H 36.845150 31.765512 62.477671 0
M  V30 39 H 38.088495 32.873786 62.967760 0
M  V30 40 H 41.108666 33.037000 65.759020 0
M  V30 41 H 39.569950 26.680284 59.240864 0
M  V30 42 H 40.642125 27.021886 57.907395 0
M  V30 43 H 37.239769 26.919266 54.197022 0
M  V30 44 H 36.713444 28.121425 53.026557 0
M  V30 45 H 38.150136 27.145175 52.723493 0
M  V30 46 H 41.459124 31.575001 54.709434 0
M  V30 47 H 41.044046 29.814478 54.967625 0
M  V30 48 H 40.114257 29.996285 57.648408 0
M  V30 49 H 41.892652 36.572042 67.066140 0
M  V30 50 H 42.714238 35.387678 66.251978 0
M  V30 51 H 37.242283 33.806594 59.027963 0
M  V30 52 H 35.988615 32.727914 58.567761 0
M  V30 53 H 37.953744 30.726988 56.992063 0
M  V30 54 H 41.625102 27.576845 59.921966 0
M  V30 55 H 39.023057 34.066212 60.327819 0
M  V30 56 H 40.045137 32.781458 59.767758 0
M  V30 57 H 38.397001 30.137150 61.952224 0
M  V30 58 H 37.245139 28.517640 55.998920 0
M  V30 59 H 40.151105 36.458151 65.330783 0
M  V30 60 H 40.252447 35.099251 66.445169 0
M  V30 61 H 39.669568 32.626780 56.703720 0
M  V30 62 H 39.406279 28.215095 61.203077 0
M  V30 63 H 40.949295 28.983910 61.640270 0
M  V30 64 H 37.168187 34.660883 61.549680 0
M  V30 65 H 35.894882 34.052513 62.567757 0
M  V30 66 H 35.141598 34.305013 60.212975 0
M  V30 67 H 35.007218 32.653183 60.771906 0
M  V30 68 H 38.118025 31.485612 58.931125 0
M  V30 69 H 36.848733 30.914758 59.987363 0
M  V30 70 H 39.353699 28.229858 54.570096 0
M  V30 71 H 36.257151 30.628316 55.695935 0
M  V30 72 H 41.567086 36.322121 63.104950 0
M  V30 73 H 40.445131 28.954210 52.167774 0
M  V30 74 H 38.852696 28.873131 51.418663 0
M  V30 75 H 39.722837 30.386417 51.458626 0
M  V30 76 H 39.323668 31.960892 53.364210 0
M  V30 77 H 41.047356 35.304478 61.081977 0
M  V30 78 H 41.654691 31.410256 64.233941 0
M  V30 79 H 42.609391 32.592190 63.365281 0
M  V30 80 H 37.935792 30.206102 53.054775 0
M  V30 81 H 42.389971 36.844246 65.521820 0
M  V30 82 H 41.411648 28.950062 59.076251 0
M  V30 END ATOM
M  V30 BEGIN BOND
M  V30 1 1 4 1
M  V30 2 1 8 1
M  V30 3 1 11 8
M  V30 4 1 12 4
M  V30 5 2 13 5
M  V30 6 1 14 5
M  V30 7 1 15 7
M  V30 8 1 15 11
M  V30 9 1 17 11
M  V30 10 1 18 9
M  V30 11 1 15 19 CFG=3
M  V30 12 1 20 12
M  V30 13 1 21 2
M  V30 14 1 22 10
M  V30 15 1 22 21
M  V30 16 1 23 2
M  V30 17 1 23 14
M  V30 18 1 23 16
M  V30 19 1 24 16
M  V30 20 1 24 20
M  V30 21 1 25 10
M  V30 22 1 25 23
M  V30 23 1 26 6
M  V30 24 1 26 17
M  V30 25 1 27 17
M  V30 26 1 29 26
M  V30 27 1 30 13
M  V30 28 1 30 16
M  V30 29 1 31 29
M  V30 30 1 32 7
M  V30 31 1 32 15
M  V30 32 1 32 29
M  V30 33 1 33 5
M  V30 34 2 33 28
M  V30 35 1 34 3
M  V30 36 1 34 13
M  V30 37 2 35 3
M  V30 38 1 35 18
M  V30 39 1 35 28
M  V30 40 1 36 1
M  V30 41 1 37 1
M  V30 42 1 38 2
M  V30 43 1 39 2
M  V30 44 1 40 3
M  V30 45 1 41 4
M  V30 46 1 42 4
M  V30 47 1 43 6
M  V30 48 1 44 6
M  V30 49 1 45 6
M  V30 50 1 46 7
M  V30 51 1 47 7
M  V30 52 1 48 8
M  V30 53 1 49 9
M  V30 54 1 50 9
M  V30 55 1 51 10
M  V30 56 1 52 10
M  V30 57 1 11 53 CFG=1
M  V30 58 1 54 12
M  V30 59 1 55 14
M  V30 60 1 56 14
M  V30 61 1 16 57 CFG=1
M  V30 62 1 17 58 CFG=1
M  V30 63 1 59 18
M  V30 64 1 60 18
M  V30 65 1 61 19
M  V30 66 1 62 20
M  V30 67 1 63 20
M  V30 68 1 64 21
M  V30 69 1 65 21
M  V30 70 1 66 22
M  V30 71 1 67 22
M  V30 72 1 68 25
M  V30 73 1 69 25
M  V30 74 1 26 70 CFG=1
M  V30 75 1 71 27
M  V30 76 1 72 28
M  V30 77 1 73 31
M  V30 78 1 74 31
M  V30 79 1 75 31
M  V30 80 1 32 76 CFG=3
M  V30 81 1 77 33
M  V30 82 1 78 34
M  V30 83 1 79 34
M  V30 84 1 29 80 CFG=3
M  V30 85 1 81 9
M  V30 86 1 82 12
M  V30 END BOND
M  V30 END CTAB
M  END
>  <i_epik_Tot_Q>  (1) 
3

>  <i_epik_Tot_abs_Q>  (1) 
3

>  <i_i_glide_confnum>  (1) 
635

>  <i_i_glide_lignum>  (1) 
113

>  <i_i_glide_posenum>  (1) 
397

>  <i_i_glide_rotatable_bonds>  (1) 
10

>  <i_lp_mmshare_version>  (1) 
72125

>  <i_m_source_file_index>  (1) 
54

>  <i_f3d_flags>  (1) 
0

>  <num_sample>  (1) 
100

>  <b_lp_Chiralities_Consistent>  (1) 
1

>  <r_epik_Charging_Adjusted_Penalty>  (1) 
1.5449594399157651

>  <r_epik_Ionization_Penalty>  (1) 
0.47240059175592303

>  <r_epik_Ionization_Penalty_Charging>  (1) 
0.40568266018177357

>  <r_epik_Ionization_Penalty_Neutral>  (1) 
0.066717931574149458

>  <r_epik_State_Penalty>  (1) 
1.1392767797339916

>  <r_glide_ring_energy>  (1) 
0.00062895299044794274

>  <r_i_docking_score>  (1) 
-6.2439965090536536

>  <r_i_glide_ecoul>  (1) 
-8.4625954615429571

>  <r_i_glide_eff_state_penalty>  (1) 
1.1392767797339916

>  <r_i_glide_einternal>  (1) 
5.4347261831704374

>  <r_i_glide_emodel>  (1) 
-58.76235771957095

>  <r_i_glide_emodel_strain>  (1) 
0.5298369386755013

>  <r_i_glide_energy>  (1) 
-43.379976179452484

>  <r_i_glide_erotb>  (1) 
0.58947078011706677

>  <r_i_glide_esite>  (1) 
-0.053555299374054899

>  <r_i_glide_evdw>  (1) 
-34.917380717909531

>  <r_i_glide_gscore>  (1) 
-7.3832732887876453

>  <r_i_glide_gscore_strain>  (1) 
0

>  <r_i_glide_hbond>  (1) 
-0.16

>  <r_i_glide_ligand_efficiency>  (1) 
-0.1783999002586758

>  <r_i_glide_ligand_efficiency_ln>  (1) 
-1.3706958117734085

>  <r_i_glide_ligand_efficiency_sa>  (1) 
-0.58355790347715919

>  <r_i_glide_lipo>  (1) 
-3.6694774077711649

>  <r_i_glide_metal>  (1) 
-0

>  <r_i_glide_rewards>  (1) 
-1.0744530066325717

>  <r_lp_Energy>  (1) 
57.515115999999999

>  <s_epik_Chemistry_Notes>  (1) 
This compound contains an acetal/aminal-like group ( X-CH(R)-Y where X, Y are N, S, or O) that may be acid/base labile, releasing an aldehyde.

>  <s_epik_cmdline>  (1) 
J2VwaWtfcHl0aG9uJywgJy1waHQnLCAnMS4wJywgJy1waCcsICc3LjQnLCAnLXRuJywgJzgnLCAnLW1hJywgJzUwMCcsICctaW1hZScsICc8aW5maWxlLm1hZT4nLCAnLW9tYWUnLCAnPG91dGZpbGUubWFlPic=

>  <s_epik_input>  (1) 
W09IXVtDQEBdMTJbQ0BASF0oW0NIMl0xKU4oW0NIM10pW0NASF0oW0NIM10pW0NASF0oW09IXSlbQ0BIXTJbTkhdW0NIMl1bQ0gyXVtOSF1bQ0gyXU9bQ0BIXTNPQyhbQ0gyXVtDSF09QyhbQ0gyXVtOSDJdKVtDSF09W0NIXTQpPUM0W0NIMl1DMzVbQ0gyXVtDSDJdW0NIMl1bQ0gyXVtDSDJdNQ==

>  <s_glide_docking_method>  (1) 
confgen

>  <s_i_glide_gridfile>  (1) 
gpcr_5ht2c_6bqh_protein_autoprepared_prepared

>  <s_lp_Force_Field>  (1) 
S-OPLS

>  <s_lp_Variant>  (1) 
DiffSBDD_53-5

>  <s_m_source_file>  (1) 
generated_GPCR_5HT2C_ligand_DiffSBDD_2026-06-23_prepared.sdf

>  <GenAI_Model>  (1) 
DiffSBDD

>  <Protein>  (1) 
GPCR_5HT2C

$$$$
DiffSBDD_42
     RDKit          3D

  0  0  0  0  0  0  0  0  0  0999 V3000
M  V30 BEGIN CTAB
M  V30 COUNTS 89 94 0 0 1
M  V30 BEGIN ATOM
M  V30 1 C 42.548641 28.093584 64.911030 0
M  V30 2 C 38.032540 28.936983 58.315392 0
M  V30 3 C 39.263677 28.881690 52.976135 0
M  V30 4 C 40.424375 28.635974 50.783134 0
M  V30 5 O 39.513411 32.514319 56.330431 0 CHG=-1
M  V30 6 C 39.215350 31.045771 54.091415 0
M  V30 7 C 39.242683 28.243164 54.229887 0
M  V30 8 C 39.240422 30.413572 55.344749 0
M  V30 9 C 42.244549 28.058357 68.515640 0 CFG=2
M  V30 10 C 38.448220 26.972294 51.356384 0
M  V30 11 C 41.183624 29.706860 66.249334 0 CFG=1
M  V30 12 C 36.869251 33.777197 60.875168 0 CFG=1
M  V30 13 C 41.973757 30.395717 64.071490 0
M  V30 14 C 37.244161 34.516308 59.586510 0
M  V30 15 C 40.134615 31.949852 61.888752 0
M  V30 16 C 37.282653 30.041806 57.565963 0
M  V30 17 C 35.409217 33.282241 60.923927 0
M  V30 18 O 39.106697 34.024213 62.454057 0
M  V30 19 C 38.336707 30.205022 60.460214 0
M  V30 20 O 43.646369 28.248746 68.489343 0
M  V30 21 C 39.001440 32.986851 61.809955 0
M  V30 22 C 37.719721 28.994479 59.767744 0
M  V30 23 O 41.805987 33.524862 62.514938 0
M  V30 24 C 37.429032 33.546757 58.398091 0
M  V30 25 C 42.652370 29.062099 63.756936 0
M  V30 26 C 41.999392 34.499514 63.540475 0
M  V30 27 N 38.046216 31.320332 57.452267 0 CFG=2 CHG=1
M  V30 28 C 41.796789 27.394899 67.198322 0
M  V30 29 C 39.292187 31.256476 56.633271 0 CFG=2
M  V30 30 C 39.256411 28.999186 55.403760 0
M  V30 31 C 41.186764 32.351989 62.944468 0 CFG=2
M  V30 32 C 41.545711 29.415205 68.750379 0
M  V30 33 C 39.377908 28.081378 51.716026 0 CFG=2
M  V30 34 C 39.245405 30.285755 52.924469 0
M  V30 35 C 37.764960 31.587472 60.062335 0 CFG=2
M  V30 36 C 41.676072 30.365971 67.549215 0
M  V30 37 O 42.118797 31.305882 63.046935 0
M  V30 38 N 41.341009 30.657840 65.154012 0
M  V30 39 C 41.888481 28.372492 66.042378 0
M  V30 40 C 38.176523 32.193905 58.680700 0 CFG=2
M  V30 41 N 37.901990 32.735733 61.014919 0
M  V30 42 O 39.645166 26.701817 52.035916 0
M  V30 43 H 43.039703 27.138762 64.791613 0
M  V30 44 H 39.115264 28.995049 58.242614 0
M  V30 45 H 37.729880 27.960091 57.935454 0
M  V30 46 H 40.190423 29.646761 50.454377 0
M  V30 47 H 41.377833 28.637832 51.314614 0
M  V30 48 H 40.445034 28.012904 49.894174 0
M  V30 49 H 39.204157 32.122780 54.022160 0
M  V30 50 H 39.269362 27.164626 54.290716 0
M  V30 51 H 42.020907 27.393468 69.349706 0
M  V30 52 H 37.644970 26.759426 52.026323 0
M  V30 53 H 38.448780 26.540534 50.358767 0
M  V30 54 H 40.119325 29.486086 66.356107 0
M  V30 55 H 36.925517 34.495868 61.693482 0
M  V30 56 H 36.507728 35.285086 59.342715 0
M  V30 57 H 38.179627 35.048556 59.767160 0
M  V30 58 H 40.632833 31.819901 60.928747 0
M  V30 59 H 39.772123 31.008553 62.283313 0
M  V30 60 H 37.031990 29.711272 56.560650 0
M  V30 61 H 36.300162 30.140527 58.023696 0
M  V30 62 H 34.745085 34.135795 61.037568 0
M  V30 63 H 35.091664 32.773843 60.014822 0
M  V30 64 H 35.227250 32.620655 61.766543 0
M  V30 65 H 39.410624 30.137356 60.298619 0
M  V30 66 H 38.124476 30.069736 61.518651 0
M  V30 67 H 43.863416 28.766812 67.728971 0
M  V30 68 H 38.131558 28.092840 60.223261 0
M  V30 69 H 36.640556 28.978488 59.900724 0
M  V30 70 H 36.443910 33.337795 58.011444 0
M  V30 71 H 37.928735 34.090606 57.597443 0
M  V30 72 H 43.702416 29.238711 63.522229 0
M  V30 73 H 42.189279 28.618229 62.874572 0
M  V30 74 H 42.211018 35.470895 63.093965 0
M  V30 75 H 41.104140 34.654116 64.145781 0
M  V30 76 H 42.824682 34.226754 64.199788 0
M  V30 77 H 42.377672 26.493530 67.000089 0
M  V30 78 H 40.755074 27.084820 67.283717 0
M  V30 79 H 40.005518 30.699846 57.237935 0
M  V30 80 H 39.300062 28.492477 56.338669 0
M  V30 81 H 40.660997 32.557966 63.881795 0
M  V30 82 H 40.484412 29.250321 68.936843 0
M  V30 83 H 41.931952 29.892326 69.650817 0
M  V30 84 H 39.262062 30.786286 51.972341 0
M  V30 85 H 36.702527 31.378100 59.991617 0
M  V30 86 H 42.715917 30.675764 67.437102 0
M  V30 87 H 41.106946 31.276606 67.741614 0
M  V30 88 H 39.228291 32.455733 58.807760 0
M  V30 89 H 37.433158 31.870489 56.862821 0
M  V30 END ATOM
M  V30 BEGIN BOND
M  V30 1 2 7 3
M  V30 2 1 8 6
M  V30 3 1 14 12
M  V30 4 1 16 2
M  V30 5 1 17 12
M  V30 6 1 20 9
M  V30 7 1 21 15
M  V30 8 2 21 18
M  V30 9 1 22 2
M  V30 10 1 22 19
M  V30 11 1 24 14
M  V30 12 1 25 1
M  V30 13 1 25 13
M  V30 14 1 26 23
M  V30 15 1 27 16
M  V30 16 1 28 9
M  V30 17 1 29 5
M  V30 18 1 29 8
M  V30 19 1 29 27
M  V30 20 1 30 7
M  V30 21 2 30 8
M  V30 22 1 31 15
M  V30 23 1 31 23
M  V30 24 1 32 9
M  V30 25 1 33 3
M  V30 26 1 33 4 CFG=3
M  V30 27 1 33 10
M  V30 28 1 34 3
M  V30 29 2 34 6
M  V30 30 1 35 19
M  V30 31 1 36 11
M  V30 32 1 36 32
M  V30 33 1 37 13
M  V30 34 1 37 31
M  V30 35 1 38 11
M  V30 36 2 38 13
M  V30 37 2 39 1
M  V30 38 1 39 11
M  V30 39 1 39 28
M  V30 40 1 40 24
M  V30 41 1 40 27
M  V30 42 1 40 35
M  V30 43 1 41 12
M  V30 44 1 41 21
M  V30 45 1 41 35
M  V30 46 1 42 10
M  V30 47 1 42 33
M  V30 48 1 43 1
M  V30 49 1 44 2
M  V30 50 1 45 2
M  V30 51 1 46 4
M  V30 52 1 47 4
M  V30 53 1 48 4
M  V30 54 1 49 6
M  V30 55 1 50 7
M  V30 56 1 9 51 CFG=1
M  V30 57 1 52 10
M  V30 58 1 53 10
M  V30 59 1 11 54 CFG=1
M  V30 60 1 12 55 CFG=1
M  V30 61 1 56 14
M  V30 62 1 57 14
M  V30 63 1 58 15
M  V30 64 1 59 15
M  V30 65 1 60 16
M  V30 66 1 61 16
M  V30 67 1 62 17
M  V30 68 1 63 17
M  V30 69 1 64 17
M  V30 70 1 65 19
M  V30 71 1 66 19
M  V30 72 1 67 20
M  V30 73 1 68 22
M  V30 74 1 69 22
M  V30 75 1 70 24
M  V30 76 1 71 24
M  V30 77 1 72 25
M  V30 78 1 73 25
M  V30 79 1 74 26
M  V30 80 1 75 26
M  V30 81 1 76 26
M  V30 82 1 77 28
M  V30 83 1 78 28
M  V30 84 1 29 79 CFG=1
M  V30 85 1 80 30
M  V30 86 1 31 81 CFG=1
M  V30 87 1 82 32
M  V30 88 1 83 32
M  V30 89 1 84 34
M  V30 90 1 35 85 CFG=3
M  V30 91 1 86 36
M  V30 92 1 87 36
M  V30 93 1 40 88 CFG=1
M  V30 94 1 27 89 CFG=3
M  V30 END BOND
M  V30 END CTAB
M  END
>  <i_epik_Tot_Q>  (1) 
0

>  <i_epik_Tot_abs_Q>  (1) 
2

>  <i_i_glide_confnum>  (1) 
246

>  <i_i_glide_lignum>  (1) 
92

>  <i_i_glide_posenum>  (1) 
142

>  <i_i_glide_rotatable_bonds>  (1) 
10

>  <i_lp_mmshare_version>  (1) 
72125

>  <i_m_source_file_index>  (1) 
43

>  <i_f3d_flags>  (1) 
0

>  <num_sample>  (1) 
100

>  <b_lp_Chiralities_Consistent>  (1) 
1

>  <r_epik_Charging_Adjusted_Penalty>  (1) 
0.10762157237222084

>  <r_epik_Ionization_Penalty>  (1) 
0.015049648649627746

>  <r_epik_Ionization_Penalty_Charging>  (1) 
0.014590701191951229

>  <r_epik_Ionization_Penalty_Neutral>  (1) 
0.0004589474576765184

>  <r_epik_State_Penalty>  (1) 
0.093030871180269606

>  <r_glide_ring_energy>  (1) 
0

>  <r_i_docking_score>  (1) 
-6.236115492899045

>  <r_i_glide_ecoul>  (1) 
-5.0906799072458959

>  <r_i_glide_eff_state_penalty>  (1) 
0.093030871180269606

>  <r_i_glide_einternal>  (1) 
5.6148875801594542

>  <r_i_glide_emodel>  (1) 
-33.678160626092094

>  <r_i_glide_emodel_strain>  (1) 
7.0257150103450527

>  <r_i_glide_energy>  (1) 
-38.614552570184884

>  <r_i_glide_erotb>  (1) 
0.39316795176799535

>  <r_i_glide_esite>  (1) 
-0.11763752280257467

>  <r_i_glide_evdw>  (1) 
-33.523872662938992

>  <r_i_glide_gscore>  (1) 
-6.3291463640793149

>  <r_i_glide_gscore_strain>  (1) 
0.75642875258626319

>  <r_i_glide_hbond>  (1) 
-0.11917856556743295

>  <r_i_glide_ligand_efficiency>  (1) 
-0.14847894030712011

>  <r_i_glide_ligand_efficiency_ln>  (1) 
-1.3162833197217789

>  <r_i_glide_ligand_efficiency_sa>  (1) 
-0.51611675271205426

>  <r_i_glide_lipo>  (1) 
-3.2291971117583751

>  <r_i_glide_metal>  (1) 
-0

>  <r_i_glide_rewards>  (1) 
-1.5729342490713569

>  <r_lp_Energy>  (1) 
81.408011000000002

>  <s_epik_Chemistry_Notes>  (1) 
This compound has an imine and may undergo hydrolysis. This compound contains an acetal/aminal-like group ( X-CH(R)-Y where X, Y are N, S, or O) that may be acid/base labile, releasing an aldehyde.

>  <s_epik_cmdline>  (1) 
J2VwaWtfcHl0aG9uJywgJy1waHQnLCAnMS4wJywgJy1waCcsICc3LjQnLCAnLXRuJywgJzgnLCAnLW1hJywgJzUwMCcsICctaW1hZScsICc8aW5maWxlLm1hZT4nLCAnLW9tYWUnLCAnPG91dGZpbGUubWFlPic=

>  <s_epik_input>  (1) 
W0NIMl0xW0NIMl1bQ0BIXShbT0hdKVtDSDJdQyhbQ0BASF0xMik9W0NIXVtDSDJdQyg9TjIpT1tDQEBIXShPW0NIM10pW0NIMl1DKD1PKU4zW0NASF0oW0NIM10pW0NIMl1bQ0gyXVtDQEBIXShbQ0BIXTM0KU4oW0NIMl1bQ0gyXVtDSDJdW0NIMl00KVtDQEhdKFtPSF0pYyhbY0hdW2NIXTUpW2NIXVtjSF1jNUM2KFtDSDNdKVtDSDJdTzY=

>  <s_glide_docking_method>  (1) 
confgen

>  <s_i_glide_gridfile>  (1) 
gpcr_5ht2c_6bqh_protein_autoprepared_prepared

>  <s_lp_Force_Field>  (1) 
S-OPLS

>  <s_lp_Variant>  (1) 
DiffSBDD_42-1

>  <s_m_source_file>  (1) 
generated_GPCR_5HT2C_ligand_DiffSBDD_2026-06-23_prepared.sdf

>  <GenAI_Model>  (1) 
DiffSBDD

>  <Protein>  (1) 
GPCR_5HT2C

$$$$
DiffSBDD_17
     RDKit          3D

  0  0  0  0  0  0  0  0  0  0999 V3000
M  V30 BEGIN CTAB
M  V30 COUNTS 82 87 0 0 1
M  V30 BEGIN ATOM
M  V30 1 C 38.225746 28.832321 53.510584 0 CFG=1
M  V30 2 C 39.106254 29.704058 54.441945 0 CFG=1
M  V30 3 C 39.074423 32.396883 56.462824 0
M  V30 4 C 39.911905 35.868672 62.342779 0
M  V30 5 N 40.836899 34.198082 63.871981 0
M  V30 6 C 40.602431 32.858264 64.079108 0
M  V30 7 O 38.200888 30.646503 55.089916 0
M  V30 8 C 40.026973 28.849980 55.399819 0
M  V30 9 C 35.580374 29.321525 58.765504 0
M  V30 10 C 41.758855 30.080213 63.776425 0
M  V30 11 C 39.444453 32.469983 61.819562 0
M  V30 12 O 36.615796 28.547744 58.169179 0
M  V30 13 C 40.304403 32.004551 62.846771 0
M  V30 14 O 39.563280 28.272297 56.595629 0
M  V30 15 C 39.245104 31.640466 60.713380 0
M  V30 16 C 41.021096 35.117763 65.007163 0
M  V30 17 C 38.364963 31.994122 59.555844 0
M  V30 18 N 38.116792 30.282428 57.374328 0 CHG=1
M  V30 19 N 40.667574 29.918331 61.601440 0
M  V30 20 C 38.508118 30.572601 58.812715 0 CFG=1
M  V30 21 C 43.097771 30.807054 63.845564 0
M  V30 22 C 39.874404 30.439226 60.643473 0
M  V30 23 C 40.858384 30.689435 62.705482 0
M  V30 24 C 39.999688 30.544583 53.524670 0
M  V30 25 C 38.327517 26.670390 57.698106 0
M  V30 26 C 40.209693 30.295716 52.212146 0
M  V30 27 C 41.009264 34.810725 62.544305 0
M  V30 28 C 37.358872 29.014016 57.127617 0 CFG=1
M  V30 29 C 38.988445 28.095575 52.401150 0
M  V30 30 C 37.208496 27.956640 54.201453 0
M  V30 31 C 39.619661 29.122009 51.458117 0
M  V30 32 C 40.070640 36.338463 64.875330 0
M  V30 33 C 39.658345 29.665631 59.407097 0
M  V30 34 C 40.056750 36.918572 63.444884 0
M  V30 35 C 37.704380 27.095017 55.361262 0
M  V30 36 C 38.445352 31.049900 56.369759 0
M  V30 37 O 40.626275 32.345318 65.197778 0
M  V30 38 C 38.238657 27.805918 56.642639 0 CFG=1
M  V30 39 H 37.624835 29.554445 52.969779 0
M  V30 40 H 38.299210 33.164174 56.459098 0
M  V30 41 H 39.656828 32.507277 57.354049 0
M  V30 42 H 38.909107 35.448076 62.379911 0
M  V30 43 H 40.029862 36.338709 61.364890 0
M  V30 44 H 40.445138 27.955695 54.967413 0
M  V30 45 H 40.845904 29.476308 55.708186 0
M  V30 46 H 34.781895 28.610815 58.968148 0
M  V30 47 H 35.827055 29.720295 59.749462 0
M  V30 48 H 35.189865 30.137474 58.166750 0
M  V30 49 H 41.267220 30.015802 64.748610 0
M  V30 50 H 41.954591 29.043811 63.498914 0
M  V30 51 H 38.957843 33.424948 61.883880 0
M  V30 52 H 40.866647 34.646445 65.979291 0
M  V30 53 H 42.057038 35.462604 65.003938 0
M  V30 54 H 38.736085 32.893082 59.077167 0
M  V30 55 H 37.340818 32.183300 59.879808 0
M  V30 56 H 37.725607 30.103664 59.373297 0
M  V30 57 H 43.923531 30.124559 64.046161 0
M  V30 58 H 43.245123 31.305847 62.888762 0
M  V30 59 H 43.107228 31.573126 64.619924 0
M  V30 60 H 40.474782 31.396144 53.974670 0
M  V30 61 H 37.366704 26.174454 57.841641 0
M  V30 62 H 39.029056 25.899921 57.373138 0
M  V30 63 H 38.657635 26.996862 58.676264 0
M  V30 64 H 40.849017 30.956182 51.644828 0
M  V30 65 H 41.971908 35.327048 62.573871 0
M  V30 66 H 41.148710 34.154165 61.691263 0
M  V30 67 H 36.644218 29.337756 56.386932 0
M  V30 68 H 39.743140 27.434519 52.822410 0
M  V30 69 H 38.318414 27.453167 51.828250 0
M  V30 70 H 36.714675 27.320129 53.465506 0
M  V30 71 H 36.445618 28.634282 54.540105 0
M  V30 72 H 38.880224 29.509988 50.757064 0
M  V30 73 H 40.401580 28.647507 50.864362 0
M  V30 74 H 39.047683 36.137366 65.179843 0
M  V30 75 H 40.396415 37.094127 65.589400 0
M  V30 76 H 39.348068 28.657094 59.654290 0
M  V30 77 H 40.558253 29.653059 58.792079 0
M  V30 78 H 39.318144 37.714348 63.344642 0
M  V30 79 H 41.032613 37.338775 63.256656 0
M  V30 80 H 38.460134 26.401177 54.991644 0
M  V30 81 H 36.855345 26.466553 55.637709 0
M  V30 82 H 39.727805 32.577984 55.614421 0
M  V30 END ATOM
M  V30 BEGIN BOND
M  V30 1 1 2 1
M  V30 2 1 6 5
M  V30 3 1 2 7 CFG=1
M  V30 4 1 8 2
M  V30 5 1 12 9
M  V30 6 1 13 6
M  V30 7 1 13 11
M  V30 8 1 14 8
M  V30 9 2 15 11
M  V30 10 1 16 5
M  V30 11 1 17 15
M  V30 12 1 20 17
M  V30 13 1 20 18
M  V30 14 1 21 10
M  V30 15 1 22 15
M  V30 16 2 22 19
M  V30 17 1 23 10
M  V30 18 2 23 13
M  V30 19 1 23 19
M  V30 20 1 24 2
M  V30 21 2 26 24
M  V30 22 1 27 4
M  V30 23 1 27 5
M  V30 24 1 28 12
M  V30 25 1 28 18
M  V30 26 1 29 1
M  V30 27 1 30 1
M  V30 28 1 31 26
M  V30 29 1 31 29
M  V30 30 1 32 16
M  V30 31 1 33 20
M  V30 32 1 33 22
M  V30 33 1 34 4
M  V30 34 1 34 32
M  V30 35 1 35 30
M  V30 36 1 36 3
M  V30 37 1 36 7
M  V30 38 2 36 18
M  V30 39 2 37 6
M  V30 40 1 38 14
M  V30 41 1 38 25 CFG=1
M  V30 42 1 38 28
M  V30 43 1 38 35
M  V30 44 1 1 39 CFG=3
M  V30 45 1 40 3
M  V30 46 1 41 3
M  V30 47 1 42 4
M  V30 48 1 43 4
M  V30 49 1 44 8
M  V30 50 1 45 8
M  V30 51 1 46 9
M  V30 52 1 47 9
M  V30 53 1 48 9
M  V30 54 1 49 10
M  V30 55 1 50 10
M  V30 56 1 51 11
M  V30 57 1 52 16
M  V30 58 1 53 16
M  V30 59 1 54 17
M  V30 60 1 55 17
M  V30 61 1 20 56 CFG=1
M  V30 62 1 57 21
M  V30 63 1 58 21
M  V30 64 1 59 21
M  V30 65 1 60 24
M  V30 66 1 61 25
M  V30 67 1 62 25
M  V30 68 1 63 25
M  V30 69 1 64 26
M  V30 70 1 65 27
M  V30 71 1 66 27
M  V30 72 1 28 67 CFG=3
M  V30 73 1 68 29
M  V30 74 1 69 29
M  V30 75 1 70 30
M  V30 76 1 71 30
M  V30 77 1 72 31
M  V30 78 1 73 31
M  V30 79 1 74 32
M  V30 80 1 75 32
M  V30 81 1 76 33
M  V30 82 1 77 33
M  V30 83 1 78 34
M  V30 84 1 79 34
M  V30 85 1 80 35
M  V30 86 1 81 35
M  V30 87 1 82 3
M  V30 END BOND
M  V30 END CTAB
M  END
>  <i_epik_Tot_Q>  (1) 
1

>  <i_epik_Tot_abs_Q>  (1) 
1

>  <i_i_glide_confnum>  (1) 
4

>  <i_i_glide_lignum>  (1) 
41

>  <i_i_glide_posenum>  (1) 
98

>  <i_i_glide_rotatable_bonds>  (1) 
5

>  <i_lp_mmshare_version>  (1) 
72125

>  <i_m_source_file_index>  (1) 
18

>  <i_f3d_flags>  (1) 
0

>  <num_sample>  (1) 
100

>  <b_lp_Chiralities_Consistent>  (1) 
1

>  <r_epik_Charging_Adjusted_Penalty>  (1) 
0

>  <r_epik_Ionization_Penalty>  (1) 
0.00083164263378673008

>  <r_epik_Ionization_Penalty_Charging>  (1) 
0

>  <r_epik_Ionization_Penalty_Neutral>  (1) 
0.00083164263378673008

>  <r_epik_State_Penalty>  (1) 
-0

>  <r_glide_ring_energy>  (1) 
0.024669712861687145

>  <r_i_docking_score>  (1) 
-6.2349882921834183

>  <r_i_glide_ecoul>  (1) 
-2.7918895633598324

>  <r_i_glide_eff_state_penalty>  (1) 
-0

>  <r_i_glide_einternal>  (1) 
11.742791345304767

>  <r_i_glide_emodel>  (1) 
-29.702752703963981

>  <r_i_glide_emodel_strain>  (1) 
7.7549673562778025

>  <r_i_glide_energy>  (1) 
-32.966502952697176

>  <r_i_glide_erotb>  (1) 
0.22580550804498301

>  <r_i_glide_esite>  (1) 
-0.16355730419868536

>  <r_i_glide_evdw>  (1) 
-30.174613389337342

>  <r_i_glide_gscore>  (1) 
-6.2349882921834183

>  <r_i_glide_gscore_strain>  (1) 
0.93874183906945063

>  <r_i_glide_hbond>  (1) 
-0.29440317407501099

>  <r_i_glide_ligand_efficiency>  (1) 
-0.16407863926798469

>  <r_i_glide_ligand_efficiency_ln>  (1) 
-1.3444468905675875

>  <r_i_glide_ligand_efficiency_sa>  (1) 
-0.55162835000000332

>  <r_i_glide_lipo>  (1) 
-3.7816926726168867

>  <r_i_glide_metal>  (1) 
-0

>  <r_i_glide_rewards>  (1) 
-1.2323683844364259

>  <r_lp_Energy>  (1) 
80.436117999999993

>  <r_lp_tautomer_probability>  (1) 
1

>  <s_epik_Chemistry_Notes>  (1) 
This compound has an imine and may undergo hydrolysis. This compound contains an acetal/aminal-like group ( X-CH(R)-Y where X, Y are N, S, or O) that may be acid/base labile, releasing an aldehyde.

>  <s_epik_cmdline>  (1) 
J2VwaWtfcHl0aG9uJywgJy1waHQnLCAnMS4wJywgJy1waCcsICc3LjQnLCAnLXRuJywgJzgnLCAnLW1hJywgJzUwMCcsICctaW1hZScsICc8aW5maWxlLm1hZT4nLCAnLW9tYWUnLCAnPG91dGZpbGUubWFlPic=

>  <s_epik_input>  (1) 
W0NIXTE9W0NIXVtDSDJdW0NIMl1bQ0BIXShbQ0BAXTEyMylbQ0gyXVtDSDJdW0NAQF0oW0NIM10pKE9bQ0gyXTMpW0NAQEhdKE9bQ0gzXSlOKEMoTzIpPVtDSDJdKVtDQEhdKFtDSDJdNClbQ0gyXWMoYzQ1KW5jKFtDSDJdW0NIM10pYyhbY0hdNSlDKD1PKU42W0NIMl1bQ0gyXVtDSDJdW0NIMl1bQ0gyXTY=

>  <s_glide_docking_method>  (1) 
confgen

>  <s_i_glide_gridfile>  (1) 
gpcr_5ht2c_6bqh_protein_autoprepared_prepared

>  <s_lp_Force_Field>  (1) 
S-OPLS

>  <s_lp_Variant>  (1) 
DiffSBDD_17-1

>  <s_m_source_file>  (1) 
generated_GPCR_5HT2C_ligand_DiffSBDD_2026-06-23_prepared.sdf

>  <GenAI_Model>  (1) 
DiffSBDD

>  <Protein>  (1) 
GPCR_5HT2C

$$$$
DiffSBDD_16
     RDKit          3D

  0  0  0  0  0  0  0  0  0  0999 V3000
M  V30 BEGIN CTAB
M  V30 COUNTS 69 73 0 0 1
M  V30 BEGIN ATOM
M  V30 1 C 40.518343 31.333834 63.737681 0
M  V30 2 C 37.788108 27.174983 55.961985 0
M  V30 3 C 38.694864 32.626555 59.617136 0 CFG=1
M  V30 4 C 38.314570 32.618556 58.124769 0
M  V30 5 C 41.379800 29.132594 64.377491 0
M  V30 6 C 42.365989 29.737748 65.174973 0
M  V30 7 C 41.042106 35.634621 62.668676 0
M  V30 8 C 40.547829 36.409379 61.457647 0
M  V30 9 C 38.353641 33.992977 60.250378 0
M  V30 10 C 42.428046 31.134168 65.272809 0
M  V30 11 O 42.045128 33.491608 62.419370 0
M  V30 12 C 38.185445 28.799742 57.729282 0
M  V30 13 C 38.423225 30.049247 58.232869 0
M  V30 14 C 38.543069 30.265982 59.742560 0
M  V30 15 C 38.059473 28.414458 56.298683 0
M  V30 16 C 40.454039 29.927314 63.669033 0
M  V30 17 N 37.675458 26.926467 54.617522 0
M  V30 18 C 39.130897 29.395835 52.461652 0
M  V30 19 N 37.969424 31.520357 60.223636 0
M  V30 20 C 39.645124 30.302042 53.533745 0
M  V30 21 C 41.316091 27.628431 64.273897 0
M  V30 22 C 39.058414 36.734219 61.555121 0
M  V30 23 C 36.731754 36.035847 62.101958 0
M  V30 24 C 38.214261 35.655645 62.244371 0 CFG=1
M  V30 25 C 39.506972 32.149090 62.967770 0
M  V30 26 C 38.485785 34.183183 61.786763 0 CFG=2
M  V30 27 C 40.987150 34.110961 62.514957 0
M  V30 28 C 38.172071 29.332706 55.126246 0 CFG=2
M  V30 29 C 39.651228 33.425402 62.477937 0
M  V30 30 C 38.035809 28.083431 54.169089 0
M  V30 31 N 39.365312 30.133576 54.780691 0
M  V30 32 C 41.513038 31.933087 64.564620 0
M  V30 33 C 38.614357 31.304171 57.381498 0
M  V30 34 C 38.383065 28.322447 52.775439 0
M  V30 35 H 37.650841 26.358436 56.656230 0
M  V30 36 H 39.760884 32.473213 59.767723 0
M  V30 37 H 37.244953 32.815872 58.040642 0
M  V30 38 H 38.802744 33.441660 57.602867 0
M  V30 39 H 43.072524 29.127281 65.718036 0
M  V30 40 H 40.540422 35.944311 63.585311 0
M  V30 41 H 42.087227 35.895995 62.827682 0
M  V30 42 H 41.111062 37.337734 61.367579 0
M  V30 43 H 40.765589 35.842517 60.556347 0
M  V30 44 H 38.994345 34.721136 59.767665 0
M  V30 45 H 37.338049 34.260733 59.956995 0
M  V30 46 H 43.177650 31.597768 65.897065 0
M  V30 47 H 38.077572 28.003459 58.451509 0
M  V30 48 H 38.059182 29.438718 60.262065 0
M  V30 49 H 39.598588 30.227335 60.016654 0
M  V30 50 H 39.697911 29.454403 63.058460 0
M  V30 51 H 39.428042 29.618574 51.447308 0
M  V30 52 H 38.079785 31.571242 61.223658 0
M  V30 53 H 40.297983 31.109099 53.191490 0
M  V30 54 H 41.846484 27.325443 63.373034 0
M  V30 55 H 41.784318 27.148632 65.133554 0
M  V30 56 H 40.285659 27.284213 64.210405 0
M  V30 57 H 38.944867 37.663902 62.115054 0
M  V30 58 H 38.651674 36.937025 60.567748 0
M  V30 59 H 36.445265 36.108917 61.052770 0
M  V30 60 H 36.062693 35.312065 62.568116 0
M  V30 61 H 36.530127 37.003739 62.562194 0
M  V30 62 H 38.439027 35.737742 63.308336 0
M  V30 63 H 38.550551 31.668715 62.834820 0
M  V30 64 H 37.626121 33.629119 62.166337 0
M  V30 65 H 37.262338 29.928511 55.034818 0
M  V30 66 H 41.562358 33.001316 64.675049 0
M  V30 67 H 39.644483 31.328998 57.029749 0
M  V30 68 H 37.937681 31.327805 56.535780 0
M  V30 69 H 38.039100 27.606709 52.042073 0
M  V30 END ATOM
M  V30 BEGIN BOND
M  V30 1 1 4 3
M  V30 2 1 6 5
M  V30 3 1 8 7
M  V30 4 1 9 3
M  V30 5 2 10 6
M  V30 6 2 13 12
M  V30 7 1 14 13
M  V30 8 2 15 2
M  V30 9 1 15 12
M  V30 10 1 16 1
M  V30 11 2 16 5
M  V30 12 1 17 2
M  V30 13 1 19 3
M  V30 14 1 19 14
M  V30 15 1 20 18
M  V30 16 1 21 5
M  V30 17 1 22 8
M  V30 18 1 24 22
M  V30 19 1 24 23
M  V30 20 1 25 1
M  V30 21 1 26 9
M  V30 22 1 26 24
M  V30 23 1 27 7
M  V30 24 2 27 11
M  V30 25 1 28 15
M  V30 26 2 29 25
M  V30 27 1 29 26
M  V30 28 1 29 27
M  V30 29 2 30 17
M  V30 30 1 30 28
M  V30 31 2 31 20
M  V30 32 1 31 28
M  V30 33 2 32 1
M  V30 34 1 32 10
M  V30 35 1 33 4
M  V30 36 1 33 13
M  V30 37 2 34 18
M  V30 38 1 34 30
M  V30 39 1 35 2
M  V30 40 1 3 36 CFG=3
M  V30 41 1 37 4
M  V30 42 1 38 4
M  V30 43 1 39 6
M  V30 44 1 40 7
M  V30 45 1 41 7
M  V30 46 1 42 8
M  V30 47 1 43 8
M  V30 48 1 44 9
M  V30 49 1 45 9
M  V30 50 1 46 10
M  V30 51 1 47 12
M  V30 52 1 48 14
M  V30 53 1 49 14
M  V30 54 1 50 16
M  V30 55 1 51 18
M  V30 56 1 52 19
M  V30 57 1 53 20
M  V30 58 1 54 21
M  V30 59 1 55 21
M  V30 60 1 56 21
M  V30 61 1 57 22
M  V30 62 1 58 22
M  V30 63 1 59 23
M  V30 64 1 60 23
M  V30 65 1 61 23
M  V30 66 1 24 62 CFG=1
M  V30 67 1 63 25
M  V30 68 1 26 64 CFG=1
M  V30 69 1 28 65 CFG=3
M  V30 70 1 66 32
M  V30 71 1 67 33
M  V30 72 1 68 33
M  V30 73 1 69 34
M  V30 END BOND
M  V30 END CTAB
M  END
>  <i_epik_Tot_Q>  (1) 
0

>  <i_epik_Tot_abs_Q>  (1) 
0

>  <i_i_glide_confnum>  (1) 
14

>  <i_i_glide_lignum>  (1) 
38

>  <i_i_glide_posenum>  (1) 
392

>  <i_i_glide_rotatable_bonds>  (1) 
4

>  <i_lp_mmshare_version>  (1) 
72125

>  <i_m_source_file_index>  (1) 
17

>  <i_f3d_flags>  (1) 
0

>  <num_sample>  (1) 
100

>  <b_lp_Chiralities_Consistent>  (1) 
1

>  <r_epik_Charging_Adjusted_Penalty>  (1) 
0.56391873878667209

>  <r_epik_Ionization_Penalty>  (1) 
0.56391873878667209

>  <r_epik_Ionization_Penalty_Charging>  (1) 
0

>  <r_epik_Ionization_Penalty_Neutral>  (1) 
0.56391873878667209

>  <r_epik_State_Penalty>  (1) 
0.56391873878667209

>  <r_glide_ring_energy>  (1) 
0

>  <r_i_docking_score>  (1) 
-6.2340749013896577

>  <r_i_glide_ecoul>  (1) 
-0.56110963114084922

>  <r_i_glide_eff_state_penalty>  (1) 
0.56391873878667209

>  <r_i_glide_einternal>  (1) 
10.705284065796288

>  <r_i_glide_emodel>  (1) 
-47.091208077879443

>  <r_i_glide_emodel_strain>  (1) 
0

>  <r_i_glide_energy>  (1) 
-39.616770674541911

>  <r_i_glide_erotb>  (1) 
0.29265828080580603

>  <r_i_glide_esite>  (1) 
0

>  <r_i_glide_evdw>  (1) 
-39.055661043401059

>  <r_i_glide_gscore>  (1) 
-6.7979936401763297

>  <r_i_glide_gscore_strain>  (1) 
0

>  <r_i_glide_hbond>  (1) 
0

>  <r_i_glide_ligand_efficiency>  (1) 
-0.18335514415851933

>  <r_i_glide_ligand_efficiency_ln>  (1) 
-1.3772820055950605

>  <r_i_glide_ligand_efficiency_sa>  (1) 
-0.5939994888408735

>  <r_i_glide_lipo>  (1) 
-2.9165436210131883

>  <r_i_glide_metal>  (1) 
-0

>  <r_i_glide_rewards>  (1) 
-2.1371588031277673

>  <r_lp_Energy>  (1) 
60.789839000000001

>  <s_epik_Chemistry_Notes>  (1) 
This compound has an imine and may undergo hydrolysis.

>  <s_epik_cmdline>  (1) 
J2VwaWtfcHl0aG9uJywgJy1waHQnLCAnMS4wJywgJy1waCcsICc3LjQnLCAnLXRuJywgJzgnLCAnLW1hJywgJzUwMCcsICctaW1hZScsICc8aW5maWxlLm1hZT4nLCAnLW9tYWUnLCAnPG91dGZpbGUubWFlPic=

>  <s_epik_input>  (1) 
W2NIXTFbY0hdW2NIXWMoW0NIM10pW2NIXWMxL1tDSF09QyhDKD1PKVtDSDJdW0NIMl1bQ0gyXVtDQEhdMltDSDNdKS9bQ0BASF0yW0NIMl1bQ0BASF0zW0NIMl1bQ0gyXUMoL1tDSDJdW05IXTMpPVtDSF1cQzQ9W0NIXU49QyhbQ0BASF00NSlbQ0hdPVtDSF1bQ0hdPU41

>  <s_glide_docking_method>  (1) 
confgen

>  <s_i_glide_gridfile>  (1) 
gpcr_5ht2c_6bqh_protein_autoprepared_prepared

>  <s_lp_Force_Field>  (1) 
S-OPLS

>  <s_lp_Variant>  (1) 
DiffSBDD_16-6

>  <s_m_source_file>  (1) 
generated_GPCR_5HT2C_ligand_DiffSBDD_2026-06-23_prepared.sdf

>  <GenAI_Model>  (1) 
DiffSBDD

>  <Protein>  (1) 
GPCR_5HT2C

$$$$
DiffSBDD_53
     RDKit          3D

  0  0  0  0  0  0  0  0  0  0999 V3000
M  V30 BEGIN CTAB
M  V30 COUNTS 82 86 0 0 1
M  V30 BEGIN ATOM
M  V30 1 C 37.874244 30.747785 58.536585 0
M  V30 2 C 40.247958 29.733734 64.263415 0
M  V30 3 C 40.127440 35.712670 61.926490 0
M  V30 4 C 36.824776 31.111265 59.606744 0
M  V30 5 C 41.206677 33.375351 63.704847 0
M  V30 6 C 39.848554 30.264673 53.584211 0
M  V30 7 C 38.285538 27.148225 56.258566 0
M  V30 8 N 37.275126 30.137758 57.321165 0 CHG=1
M  V30 9 N 37.749929 36.937815 63.597243 0 CHG=1
M  V30 10 C 43.184376 29.532418 64.180449 0
M  V30 11 C 38.261192 29.860398 56.241171 0 CFG=1
M  V30 12 N 37.351638 30.937723 60.957529 0
M  V30 13 C 41.047731 33.424806 62.367708 0
M  V30 14 C 41.229687 32.038342 64.402457 0
M  V30 15 C 38.937894 28.500884 56.426033 0 CFG=1
M  V30 16 C 40.219995 31.226072 62.235149 0 CFG=1
M  V30 17 C 37.610587 29.953379 54.851214 0 CFG=2
M  V30 18 C 39.116175 37.424112 63.335284 0
M  V30 19 O 39.966472 28.520339 57.394219 0
M  V30 20 C 38.144921 32.017827 61.466076 0
M  V30 21 C 41.029265 29.124787 65.441753 0
M  V30 22 C 42.349014 28.506760 64.958978 0
M  V30 23 C 41.023759 30.808454 63.506135 0
M  V30 24 O 38.915342 31.623238 62.567620 0
M  V30 25 C 42.361090 30.187388 63.053269 0
M  V30 26 C 38.547545 29.446774 53.731960 0 CFG=2
M  V30 27 O 37.245414 31.283797 54.567783 0
M  V30 28 C 40.844942 35.811323 64.289010 0
M  V30 29 N 38.845215 28.001772 53.905696 0 CFG=2 CHG=1
M  V30 30 O 40.896242 32.276693 61.632131 0
M  V30 31 C 37.827361 27.100492 53.313804 0
M  V30 32 C 39.343622 27.605236 55.260453 0 CFG=2
M  V30 33 C 41.345594 34.572340 64.527988 0
M  V30 34 C 41.049603 34.640540 61.530829 0
M  V30 35 C 40.046335 36.266700 63.140677 0
M  V30 36 H 38.593373 30.042458 58.952427 0
M  V30 37 H 38.436237 31.643085 58.266539 0
M  V30 38 H 39.294637 30.137749 64.611489 0
M  V30 39 H 40.045131 28.931408 63.555337 0
M  V30 40 H 39.512465 36.112169 61.131902 0
M  V30 41 H 36.439260 32.121054 59.460333 0
M  V30 42 H 35.970495 30.439712 59.518268 0
M  V30 43 H 39.639962 31.322070 53.421126 0
M  V30 44 H 40.490648 30.190044 54.462230 0
M  V30 45 H 40.426677 29.929898 52.722183 0
M  V30 46 H 38.567036 26.367313 56.963364 0
M  V30 47 H 37.245812 27.109756 55.948925 0
M  V30 48 H 36.587382 30.817772 56.967895 0
M  V30 49 H 37.115198 37.713542 63.716146 0
M  V30 50 H 37.437991 36.366527 62.825471 0
M  V30 51 H 44.058793 29.039450 63.753834 0
M  V30 52 H 43.574522 30.285961 64.863912 0
M  V30 53 H 39.041101 30.623034 56.281267 0
M  V30 54 H 37.835534 30.054040 61.035973 0
M  V30 55 H 42.139972 31.962741 64.994181 0
M  V30 56 H 40.419258 32.092888 65.130960 0
M  V30 57 H 40.156127 30.401135 61.524559 0
M  V30 58 H 36.694159 29.366914 54.839995 0
M  V30 59 H 39.466471 38.023578 64.177034 0
M  V30 60 H 39.137626 38.059007 62.447266 0
M  V30 61 H 40.348319 27.657593 57.478376 0
M  V30 62 H 38.769763 32.438863 60.676704 0
M  V30 63 H 37.479657 32.815553 61.797589 0
M  V30 64 H 40.422420 28.361856 65.931465 0
M  V30 65 H 41.229626 29.886038 66.195778 0
M  V30 66 H 42.136808 27.648401 64.319502 0
M  V30 67 H 42.918535 28.126228 65.807770 0
M  V30 68 H 42.130676 29.407004 62.325833 0
M  V30 69 H 42.963330 30.952615 62.567831 0
M  V30 70 H 38.030275 29.546625 52.778573 0
M  V30 71 H 37.992728 31.859832 54.636377 0
M  V30 72 H 41.000489 36.537580 65.073839 0
M  V30 73 H 36.837975 27.268591 53.734717 0
M  V30 74 H 37.758358 27.259822 52.236668 0
M  V30 75 H 38.096287 26.058542 53.477363 0
M  V30 76 H 40.306598 27.094906 55.249365 0
M  V30 77 H 41.845788 34.441245 65.476337 0
M  V30 78 H 42.045140 35.043858 61.368819 0
M  V30 79 H 40.657401 34.337445 60.568020 0
M  V30 80 H 39.642677 27.852249 53.303153 0
M  V30 81 H 36.776301 29.297063 57.567264 0
M  V30 82 H 37.751376 36.378053 64.438890 0
M  V30 END ATOM
M  V30 BEGIN BOND
M  V30 1 1 4 1
M  V30 2 1 8 1
M  V30 3 1 11 8
M  V30 4 1 12 4
M  V30 5 2 13 5
M  V30 6 1 14 5
M  V30 7 1 15 7
M  V30 8 1 15 11
M  V30 9 1 17 11
M  V30 10 1 18 9
M  V30 11 1 15 19 CFG=1
M  V30 12 1 20 12
M  V30 13 1 21 2
M  V30 14 1 22 10
M  V30 15 1 22 21
M  V30 16 1 23 2
M  V30 17 1 23 14
M  V30 18 1 23 16
M  V30 19 1 24 16
M  V30 20 1 24 20
M  V30 21 1 25 10
M  V30 22 1 25 23
M  V30 23 1 26 6
M  V30 24 1 26 17
M  V30 25 1 27 17
M  V30 26 1 29 26
M  V30 27 1 30 13
M  V30 28 1 30 16
M  V30 29 1 31 29
M  V30 30 1 32 7
M  V30 31 1 32 15
M  V30 32 1 32 29
M  V30 33 1 33 5
M  V30 34 2 33 28
M  V30 35 1 34 3
M  V30 36 1 34 13
M  V30 37 2 35 3
M  V30 38 1 35 18
M  V30 39 1 35 28
M  V30 40 1 36 1
M  V30 41 1 37 1
M  V30 42 1 38 2
M  V30 43 1 39 2
M  V30 44 1 40 3
M  V30 45 1 41 4
M  V30 46 1 42 4
M  V30 47 1 43 6
M  V30 48 1 44 6
M  V30 49 1 45 6
M  V30 50 1 46 7
M  V30 51 1 47 7
M  V30 52 1 48 8
M  V30 53 1 49 9
M  V30 54 1 50 9
M  V30 55 1 51 10
M  V30 56 1 52 10
M  V30 57 1 11 53 CFG=3
M  V30 58 1 54 12
M  V30 59 1 55 14
M  V30 60 1 56 14
M  V30 61 1 16 57 CFG=3
M  V30 62 1 17 58 CFG=1
M  V30 63 1 59 18
M  V30 64 1 60 18
M  V30 65 1 61 19
M  V30 66 1 62 20
M  V30 67 1 63 20
M  V30 68 1 64 21
M  V30 69 1 65 21
M  V30 70 1 66 22
M  V30 71 1 67 22
M  V30 72 1 68 25
M  V30 73 1 69 25
M  V30 74 1 26 70 CFG=3
M  V30 75 1 71 27
M  V30 76 1 72 28
M  V30 77 1 73 31
M  V30 78 1 74 31
M  V30 79 1 75 31
M  V30 80 1 32 76 CFG=3
M  V30 81 1 77 33
M  V30 82 1 78 34
M  V30 83 1 79 34
M  V30 84 1 29 80 CFG=3
M  V30 85 1 81 8
M  V30 86 1 82 9
M  V30 END BOND
M  V30 END CTAB
M  END
>  <i_epik_Tot_Q>  (1) 
3

>  <i_epik_Tot_abs_Q>  (1) 
3

>  <i_i_glide_confnum>  (1) 
117

>  <i_i_glide_lignum>  (1) 
109

>  <i_i_glide_posenum>  (1) 
196

>  <i_i_glide_rotatable_bonds>  (1) 
10

>  <i_lp_mmshare_version>  (1) 
72125

>  <i_m_source_file_index>  (1) 
54

>  <i_f3d_flags>  (1) 
0

>  <num_sample>  (1) 
100

>  <b_lp_Chiralities_Consistent>  (1) 
1

>  <r_epik_Charging_Adjusted_Penalty>  (1) 
0.52217566130243886

>  <r_epik_Ionization_Penalty>  (1) 
0.30399825412207077

>  <r_epik_Ionization_Penalty_Charging>  (1) 
0.29355179195135561

>  <r_epik_Ionization_Penalty_Neutral>  (1) 
0.010446462170715176

>  <r_epik_State_Penalty>  (1) 
0.22862386935108323

>  <r_glide_ring_energy>  (1) 
0.00054235002800224672

>  <r_i_docking_score>  (1) 
-6.2313294310585743

>  <r_i_glide_ecoul>  (1) 
-8.1327046196776784

>  <r_i_glide_eff_state_penalty>  (1) 
0.22862386935108323

>  <r_i_glide_einternal>  (1) 
3.1451655706472645

>  <r_i_glide_emodel>  (1) 
-61.094185693088747

>  <r_i_glide_emodel_strain>  (1) 
0.69914357785356174

>  <r_i_glide_energy>  (1) 
-41.914729821212504

>  <r_i_glide_erotb>  (1) 
0.58947078011706677

>  <r_i_glide_esite>  (1) 
-0.10000000000000001

>  <r_i_glide_evdw>  (1) 
-33.782025201534822

>  <r_i_glide_gscore>  (1) 
-6.4599533004096577

>  <r_i_glide_gscore_strain>  (1) 
0

>  <r_i_glide_hbond>  (1) 
-0.28396943553334114

>  <r_i_glide_ligand_efficiency>  (1) 
-0.1780379837445307

>  <r_i_glide_ligand_efficiency_ln>  (1) 
-1.3679151070228392

>  <r_i_glide_ligand_efficiency_sa>  (1) 
-0.58237405056063818

>  <r_i_glide_lipo>  (1) 
-2.9606291031238086

>  <r_i_glide_metal>  (1) 
-0

>  <r_i_glide_rewards>  (1) 
-0.79581858884118217

>  <r_lp_Energy>  (1) 
66.56347199999999

>  <s_epik_Chemistry_Notes>  (1) 
This compound contains an acetal/aminal-like group ( X-CH(R)-Y where X, Y are N, S, or O) that may be acid/base labile, releasing an aldehyde.

>  <s_epik_cmdline>  (1) 
J2VwaWtfcHl0aG9uJywgJy1waHQnLCAnMS4wJywgJy1waCcsICc3LjQnLCAnLXRuJywgJzgnLCAnLW1hJywgJzUwMCcsICctaW1hZScsICc8aW5maWxlLm1hZT4nLCAnLW9tYWUnLCAnPG91dGZpbGUubWFlPic=

>  <s_epik_input>  (1) 
W09IXVtDQEBdMTJbQ0BASF0oW0NIMl0xKU4oW0NIM10pW0NASF0oW0NIM10pW0NASF0oW09IXSlbQ0BIXTJbTkhdW0NIMl1bQ0gyXVtOSF1bQ0gyXU9bQ0BIXTNPQyhbQ0gyXVtDSF09QyhbQ0gyXVtOSDJdKVtDSF09W0NIXTQpPUM0W0NIMl1DMzVbQ0gyXVtDSDJdW0NIMl1bQ0gyXVtDSDJdNQ==

>  <s_glide_docking_method>  (1) 
confgen

>  <s_i_glide_gridfile>  (1) 
gpcr_5ht2c_6bqh_protein_autoprepared_prepared

>  <s_lp_Force_Field>  (1) 
S-OPLS

>  <s_lp_Variant>  (1) 
DiffSBDD_53-1

>  <s_m_source_file>  (1) 
generated_GPCR_5HT2C_ligand_DiffSBDD_2026-06-23_prepared.sdf

>  <GenAI_Model>  (1) 
DiffSBDD

>  <Protein>  (1) 
GPCR_5HT2C

$$$$
DiffSBDD_75
     RDKit          3D

  0  0  0  0  0  0  0  0  0  0999 V3000
M  V30 BEGIN CTAB
M  V30 COUNTS 76 77 0 0 1
M  V30 BEGIN ATOM
M  V30 1 C 40.284572 29.778855 62.467055 0
M  V30 2 C 37.245911 31.059931 60.788313 0
M  V30 3 O 38.845118 30.841290 58.047778 0
M  V30 4 C 40.725497 29.530835 65.501293 0
M  V30 5 C 39.828055 30.857664 55.455040 0 CFG=1
M  V30 6 C 39.142230 35.341823 61.226746 0
M  V30 7 C 39.197927 29.534665 57.633841 0 CFG=2
M  V30 8 C 37.910040 35.457510 60.547822 0
M  V30 9 O 38.044696 32.420111 55.130415 0
M  V30 10 C 39.131126 28.405214 55.284645 0 CFG=2
M  V30 11 O 37.245204 39.061786 60.969303 0
M  V30 12 S 39.245616 28.537752 60.247641 0
M  V30 13 C 41.408749 28.176452 65.235152 0
M  V30 14 C 37.849590 37.840529 61.069762 0
M  V30 15 C 40.127737 28.931836 58.705794 0
M  V30 16 C 39.865026 34.016122 61.272712 0
M  V30 17 C 39.714400 36.469682 61.843413 0
M  V30 18 O 37.150919 27.894834 54.040781 0
M  V30 19 C 39.207319 26.988122 55.893317 0
M  V30 20 C 39.805772 29.479324 56.182045 0 CFG=1
M  V30 21 O 40.845137 27.169190 66.050967 0
M  V30 22 O 38.139779 30.537841 61.758368 0
M  V30 23 O 41.968775 32.291584 62.176708 0
M  V30 24 C 41.473897 31.825572 65.543947 0
M  V30 25 N 41.251979 30.644774 64.693354 0
M  V30 26 C 40.866560 32.199672 62.720150 0
M  V30 27 C 37.264804 36.708362 60.466962 0
M  V30 28 C 39.870553 33.359797 62.656990 0
M  V30 29 C 40.424415 30.941106 63.488592 0 CFG=1
M  V30 30 C 39.070430 37.714888 61.767762 0
M  V30 31 C 37.633780 30.224353 54.231559 0
M  V30 32 C 39.378385 30.058884 61.242386 0 CFG=1
M  V30 33 C 40.760219 30.937751 54.248248 0
M  V30 34 C 37.712340 28.852634 54.916621 0 CFG=2
M  V30 35 C 38.455182 31.277248 54.966595 0
M  V30 36 H 41.272515 29.464740 62.130285 0
M  V30 37 H 39.852005 28.917248 62.967748 0
M  V30 38 H 36.340618 31.411846 61.282621 0
M  V30 39 H 37.679848 31.904600 60.255356 0
M  V30 40 H 36.949702 30.300835 60.064149 0
M  V30 41 H 38.100671 31.141292 57.541839 0
M  V30 42 H 40.858767 29.731669 66.565533 0
M  V30 43 H 39.645420 29.454625 65.382590 0
M  V30 44 H 38.268467 28.970160 57.674784 0
M  V30 45 H 37.468706 34.591852 60.074477 0
M  V30 46 H 38.035843 30.137794 53.222792 0
M  V30 47 H 39.645160 28.337054 54.332752 0
M  V30 48 H 36.546259 39.135775 60.325676 0
M  V30 49 H 41.324422 27.864228 64.196414 0
M  V30 50 H 42.474611 28.250663 65.454260 0
M  V30 51 H 40.990539 29.564537 58.910972 0
M  V30 52 H 40.526775 27.986465 58.339170 0
M  V30 53 H 39.459996 33.337484 60.522349 0
M  V30 54 H 40.886751 34.231321 60.967894 0
M  V30 55 H 40.658267 36.382184 62.362401 0
M  V30 56 H 37.683579 27.833432 53.262698 0
M  V30 57 H 38.610845 26.892245 56.800364 0
M  V30 58 H 38.847358 26.234511 55.192931 0
M  V30 59 H 40.236472 26.723142 56.138908 0
M  V30 60 H 40.840364 29.150239 56.271364 0
M  V30 61 H 40.848127 27.461067 66.951360 0
M  V30 62 H 42.061170 31.570216 66.427473 0
M  V30 63 H 42.049931 32.599444 65.035988 0
M  V30 64 H 40.528754 32.257348 65.879902 0
M  V30 65 H 36.329592 36.799300 59.933437 0
M  V30 66 H 40.163398 34.085757 63.415053 0
M  V30 67 H 38.868181 33.015103 62.910190 0
M  V30 68 H 39.415115 31.137750 63.844980 0
M  V30 69 H 39.525447 38.576696 62.222485 0
M  V30 70 H 36.598821 30.559582 54.167779 0
M  V30 71 H 40.152833 31.629492 56.151326 0
M  V30 72 H 39.823338 30.832198 60.615804 0
M  V30 73 H 40.449776 31.737756 53.584369 0
M  V30 74 H 41.784972 31.111221 54.567757 0
M  V30 75 H 40.709553 30.075809 53.603479 0
M  V30 76 H 37.164117 28.937761 55.841319 0
M  V30 END ATOM
M  V30 BEGIN BOND
M  V30 1 1 7 3
M  V30 2 1 8 6
M  V30 3 1 13 4
M  V30 4 1 14 11
M  V30 5 1 15 7
M  V30 6 1 15 12
M  V30 7 1 16 6
M  V30 8 2 17 6
M  V30 9 1 19 10
M  V30 10 1 20 5
M  V30 11 1 20 7
M  V30 12 1 20 10
M  V30 13 1 21 13
M  V30 14 1 22 2
M  V30 15 1 25 4
M  V30 16 1 25 24
M  V30 17 2 26 23
M  V30 18 2 27 8
M  V30 19 1 27 14
M  V30 20 1 28 16
M  V30 21 1 28 26
M  V30 22 1 29 1
M  V30 23 1 29 25
M  V30 24 1 29 26
M  V30 25 2 30 14
M  V30 26 1 30 17
M  V30 27 1 32 1
M  V30 28 1 32 12
M  V30 29 1 32 22
M  V30 30 1 33 5
M  V30 31 1 34 10
M  V30 32 1 34 18
M  V30 33 1 34 31
M  V30 34 1 35 5
M  V30 35 2 35 9
M  V30 36 1 35 31
M  V30 37 1 36 1
M  V30 38 1 37 1
M  V30 39 1 38 2
M  V30 40 1 39 2
M  V30 41 1 40 2
M  V30 42 1 41 3
M  V30 43 1 42 4
M  V30 44 1 43 4
M  V30 45 1 7 44 CFG=3
M  V30 46 1 45 8
M  V30 47 1 46 31
M  V30 48 1 10 47 CFG=3
M  V30 49 1 48 11
M  V30 50 1 49 13
M  V30 51 1 50 13
M  V30 52 1 51 15
M  V30 53 1 52 15
M  V30 54 1 53 16
M  V30 55 1 54 16
M  V30 56 1 55 17
M  V30 57 1 56 18
M  V30 58 1 57 19
M  V30 59 1 58 19
M  V30 60 1 59 19
M  V30 61 1 20 60 CFG=1
M  V30 62 1 61 21
M  V30 63 1 62 24
M  V30 64 1 63 24
M  V30 65 1 64 24
M  V30 66 1 65 27
M  V30 67 1 66 28
M  V30 68 1 67 28
M  V30 69 1 29 68 CFG=1
M  V30 70 1 69 30
M  V30 71 1 70 31
M  V30 72 1 5 71 CFG=1
M  V30 73 1 32 72 CFG=3
M  V30 74 1 73 33
M  V30 75 1 74 33
M  V30 76 1 75 33
M  V30 77 1 34 76 CFG=1
M  V30 END BOND
M  V30 END CTAB
M  END
>  <i_epik_Tot_Q>  (1) 
0

>  <i_epik_Tot_abs_Q>  (1) 
0

>  <i_i_glide_confnum>  (1) 
70

>  <i_i_glide_lignum>  (1) 
172

>  <i_i_glide_posenum>  (1) 
88

>  <i_i_glide_rotatable_bonds>  (1) 
18

>  <i_lp_mmshare_version>  (1) 
72125

>  <i_m_source_file_index>  (1) 
76

>  <i_f3d_flags>  (1) 
0

>  <num_sample>  (1) 
100

>  <b_lp_Chiralities_Consistent>  (1) 
1

>  <r_epik_Charging_Adjusted_Penalty>  (1) 
0.60615279515584763

>  <r_epik_Ionization_Penalty>  (1) 
0.6077244911787385

>  <r_epik_Ionization_Penalty_Charging>  (1) 
0

>  <r_epik_Ionization_Penalty_Neutral>  (1) 
0.6077244911787385

>  <r_epik_State_Penalty>  (1) 
0.60615279515584763

>  <r_glide_ring_energy>  (1) 
0

>  <r_i_docking_score>  (1) 
-6.2312536573388533

>  <r_i_glide_ecoul>  (1) 
-8.0395580248064462

>  <r_i_glide_eff_state_penalty>  (1) 
0.60615279515584763

>  <r_i_glide_einternal>  (1) 
9.6498709416347417

>  <r_i_glide_emodel>  (1) 
-63.7968792827035

>  <r_i_glide_emodel_strain>  (1) 
0.60055205426232305

>  <r_i_glide_energy>  (1) 
-47.734387077299992

>  <r_i_glide_erotb>  (1) 
1.0176109525924779

>  <r_i_glide_esite>  (1) 
0

>  <r_i_glide_evdw>  (1) 
-39.694829052493546

>  <r_i_glide_gscore>  (1) 
-6.8374064524947009

>  <r_i_glide_gscore_strain>  (1) 
0

>  <r_i_glide_hbond>  (1) 
-0.38796167123982567

>  <r_i_glide_ligand_efficiency>  (1) 
-0.17803581878111011

>  <r_i_glide_ligand_efficiency_ln>  (1) 
-1.3678984730096535

>  <r_i_glide_ligand_efficiency_sa>  (1) 
-0.58236696882173034

>  <r_i_glide_lipo>  (1) 
-3.4481181152476488

>  <r_i_glide_metal>  (1) 
-0

>  <r_i_glide_rewards>  (1) 
-0.82826246225406042

>  <r_lp_Energy>  (1) 
23.098794999999999

>  <r_lp_tautomer_probability>  (1) 
0.99999993999736703

>  <s_epik_Chemistry_Notes>  (1) 
This compound contains an acetal/aminal-like group ( X-CH(R)-Y where X, Y are N, S, or O) that may be acid/base labile, releasing an aldehyde.

>  <s_epik_cmdline>  (1) 
J2VwaWtfcHl0aG9uJywgJy1waHQnLCAnMS4wJywgJy1waCcsICc3LjQnLCAnLXRuJywgJzgnLCAnLW1hJywgJzUwMCcsICctaW1hZScsICc8aW5maWxlLm1hZT4nLCAnLW9tYWUnLCAnPG91dGZpbGUubWFlPic=

>  <s_epik_input>  (1) 
W2NIXTFbY0hdYyhbT0hdKVtjSF1bY0hdYzFbQ0gyXVtDSDJdQyg9TylbQ0BIXShOKFtDSDNdKVtDSDJdW0NIMl1bT0hdKVtDSDJdW0NASF0oT1tDSDNdKVNbQ0gyXVtDQEBIXShbT0hdKVtDQEhdMltDQEBIXShbQ0gzXSlbQ0BIXShbT0hdKVtDSDJdQyhbT0hdKT1DMltDSDNd

>  <s_glide_docking_method>  (1) 
confgen

>  <s_i_glide_gridfile>  (1) 
gpcr_5ht2c_6bqh_protein_autoprepared_prepared

>  <s_lp_Force_Field>  (1) 
S-OPLS

>  <s_lp_Variant>  (1) 
DiffSBDD_75-9

>  <s_m_source_file>  (1) 
generated_GPCR_5HT2C_ligand_DiffSBDD_2026-06-23_prepared.sdf

>  <GenAI_Model>  (1) 
DiffSBDD

>  <Protein>  (1) 
GPCR_5HT2C

$$$$
DiffSBDD_75
     RDKit          3D

  0  0  0  0  0  0  0  0  0  0999 V3000
M  V30 BEGIN CTAB
M  V30 COUNTS 76 77 0 0 1
M  V30 BEGIN ATOM
M  V30 1 C 38.129173 33.222751 61.558003 0
M  V30 2 C 35.170815 33.365704 61.367402 0
M  V30 3 O 37.245139 30.137719 56.589728 0
M  V30 4 C 40.359731 34.778660 63.059987 0
M  V30 5 C 39.805076 29.635712 55.529954 0 CFG=2
M  V30 6 C 41.441028 30.363884 65.342566 0
M  V30 7 C 38.163423 29.886088 57.615016 0 CFG=2
M  V30 8 C 40.708843 29.605501 66.277565 0
M  V30 9 O 38.380956 29.246001 53.600864 0
M  V30 10 C 39.674543 27.791994 57.268718 0 CFG=2
M  V30 11 O 42.312954 30.659606 69.422658 0
M  V30 12 S 37.100423 31.275830 59.787022 0
M  V30 13 C 41.682475 35.341765 63.590076 0
M  V30 14 C 42.032129 30.561562 68.091361 0
M  V30 15 C 38.291323 31.185553 58.422257 0
M  V30 16 C 41.112565 30.272095 63.864641 0
M  V30 17 C 42.474185 31.219002 65.785110 0
M  V30 18 O 38.861336 25.603197 56.591190 0
M  V30 19 C 39.636739 27.395370 58.760363 0
M  V30 20 C 39.505775 29.321511 57.034376 0 CFG=1
M  V30 21 O 41.540233 35.737741 64.932005 0
M  V30 22 O 36.049288 33.721004 60.314025 0
M  V30 23 O 40.415927 30.747602 61.167767 0
M  V30 24 C 40.322506 35.324589 60.708561 0
M  V30 25 N 40.473054 34.254619 61.690612 0
M  V30 26 C 40.211735 31.717040 61.898287 0
M  V30 27 C 41.006251 29.704099 67.650148 0
M  V30 28 C 40.539504 31.612822 63.388420 0
M  V30 29 C 39.662799 33.063157 61.345389 0 CFG=1
M  V30 30 C 42.767285 31.317931 67.158993 0
M  V30 31 C 38.876288 27.269304 54.889488 0
M  V30 32 C 37.284420 33.019742 60.273873 0 CFG=1
M  V30 33 C 39.799852 31.132603 55.140596 0
M  V30 34 C 38.679234 26.992113 56.393018 0 CFG=2
M  V30 35 C 38.956631 28.764627 54.576862 0
M  V30 36 H 37.766751 32.567463 62.351779 0
M  V30 37 H 37.929852 34.234855 61.906946 0
M  V30 38 H 34.167616 33.689060 61.097853 0
M  V30 39 H 35.129965 32.291480 61.548419 0
M  V30 40 H 35.455329 33.879402 62.284349 0
M  V30 41 H 36.563684 30.750926 56.888109 0
M  V30 42 H 39.584606 35.545538 63.112475 0
M  V30 43 H 40.031780 34.020586 63.759108 0
M  V30 44 H 37.697601 29.146234 58.261691 0
M  V30 45 H 39.916801 28.950343 65.942803 0
M  V30 46 H 39.805436 26.812378 54.547386 0
M  V30 47 H 40.679096 27.531928 56.927384 0
M  V30 48 H 41.773088 30.093277 69.952715 0
M  V30 49 H 42.445133 34.566124 63.550834 0
M  V30 50 H 42.035154 36.186587 62.997739 0
M  V30 51 H 38.224821 32.060296 57.774073 0
M  V30 52 H 39.245119 31.225377 58.914981 0
M  V30 53 H 42.022370 30.022428 63.316571 0
M  V30 54 H 40.400178 29.465064 63.686069 0
M  V30 55 H 43.037424 31.801708 65.071152 0
M  V30 56 H 38.202638 25.139468 56.097198 0
M  V30 57 H 38.631264 27.423984 59.177310 0
M  V30 58 H 40.004700 26.378477 58.895688 0
M  V30 59 H 40.270535 28.048036 59.361296 0
M  V30 60 H 40.315362 29.766906 57.610962 0
M  V30 61 H 41.645237 36.686386 64.968034 0
M  V30 62 H 41.070312 36.104397 60.857798 0
M  V30 63 H 40.445111 34.937760 59.701339 0
M  V30 64 H 39.335947 35.786462 60.761171 0
M  V30 65 H 40.445316 29.123325 68.364734 0
M  V30 66 H 39.645175 31.853368 63.961486 0
M  V30 67 H 41.287816 32.371612 63.606527 0
M  V30 68 H 39.787410 32.946235 60.269761 0
M  V30 69 H 43.555292 31.975129 67.497426 0
M  V30 70 H 38.068640 26.821563 54.309180 0
M  V30 71 H 40.829847 29.302962 55.367833 0
M  V30 72 H 37.806303 33.523416 59.460306 0
M  V30 73 H 40.168404 31.270036 54.123642 0
M  V30 74 H 38.805377 31.576182 55.180853 0
M  V30 75 H 40.444914 31.722612 55.785917 0
M  V30 76 H 37.654216 27.234692 56.677972 0
M  V30 END ATOM
M  V30 BEGIN BOND
M  V30 1 1 7 3
M  V30 2 1 8 6
M  V30 3 1 13 4
M  V30 4 1 14 11
M  V30 5 1 15 7
M  V30 6 1 15 12
M  V30 7 1 16 6
M  V30 8 2 17 6
M  V30 9 1 19 10
M  V30 10 1 20 5
M  V30 11 1 20 7
M  V30 12 1 20 10
M  V30 13 1 21 13
M  V30 14 1 22 2
M  V30 15 1 25 4
M  V30 16 1 25 24
M  V30 17 2 26 23
M  V30 18 2 27 8
M  V30 19 1 27 14
M  V30 20 1 28 16
M  V30 21 1 28 26
M  V30 22 1 29 1
M  V30 23 1 29 25
M  V30 24 1 29 26
M  V30 25 2 30 14
M  V30 26 1 30 17
M  V30 27 1 32 1
M  V30 28 1 32 12
M  V30 29 1 32 22
M  V30 30 1 33 5
M  V30 31 1 34 10
M  V30 32 1 34 18
M  V30 33 1 34 31
M  V30 34 1 35 5
M  V30 35 2 35 9
M  V30 36 1 35 31
M  V30 37 1 36 1
M  V30 38 1 37 1
M  V30 39 1 38 2
M  V30 40 1 39 2
M  V30 41 1 40 2
M  V30 42 1 41 3
M  V30 43 1 42 4
M  V30 44 1 43 4
M  V30 45 1 7 44 CFG=1
M  V30 46 1 45 8
M  V30 47 1 46 31
M  V30 48 1 10 47 CFG=3
M  V30 49 1 48 11
M  V30 50 1 49 13
M  V30 51 1 50 13
M  V30 52 1 51 15
M  V30 53 1 52 15
M  V30 54 1 53 16
M  V30 55 1 54 16
M  V30 56 1 55 17
M  V30 57 1 56 18
M  V30 58 1 57 19
M  V30 59 1 58 19
M  V30 60 1 59 19
M  V30 61 1 20 60 CFG=1
M  V30 62 1 61 21
M  V30 63 1 62 24
M  V30 64 1 63 24
M  V30 65 1 64 24
M  V30 66 1 65 27
M  V30 67 1 66 28
M  V30 68 1 67 28
M  V30 69 1 29 68 CFG=3
M  V30 70 1 69 30
M  V30 71 1 70 31
M  V30 72 1 5 71 CFG=3
M  V30 73 1 32 72 CFG=3
M  V30 74 1 73 33
M  V30 75 1 74 33
M  V30 76 1 75 33
M  V30 77 1 34 76 CFG=1
M  V30 END BOND
M  V30 END CTAB
M  END
>  <i_epik_Tot_Q>  (1) 
0

>  <i_epik_Tot_abs_Q>  (1) 
0

>  <i_i_glide_confnum>  (1) 
4914

>  <i_i_glide_lignum>  (1) 
173

>  <i_i_glide_posenum>  (1) 
81

>  <i_i_glide_rotatable_bonds>  (1) 
18

>  <i_lp_mmshare_version>  (1) 
72125

>  <i_m_source_file_index>  (1) 
76

>  <i_f3d_flags>  (1) 
0

>  <num_sample>  (1) 
100

>  <b_lp_Chiralities_Consistent>  (1) 
1

>  <r_epik_Charging_Adjusted_Penalty>  (1) 
0.60615279515584763

>  <r_epik_Ionization_Penalty>  (1) 
0.6077244911787385

>  <r_epik_Ionization_Penalty_Charging>  (1) 
0

>  <r_epik_Ionization_Penalty_Neutral>  (1) 
0.6077244911787385

>  <r_epik_State_Penalty>  (1) 
0.60615279515584763

>  <r_glide_ring_energy>  (1) 
0

>  <r_i_docking_score>  (1) 
-6.227138027381911

>  <r_i_glide_ecoul>  (1) 
-11.148781630036902

>  <r_i_glide_eff_state_penalty>  (1) 
0.60615279515584763

>  <r_i_glide_einternal>  (1) 
17.570437437397924

>  <r_i_glide_emodel>  (1) 
-66.596998030648763

>  <r_i_glide_emodel_strain>  (1) 
3.4319151342340533

>  <r_i_glide_energy>  (1) 
-55.986182180090566

>  <r_i_glide_erotb>  (1) 
1.0176109525924779

>  <r_i_glide_esite>  (1) 
0

>  <r_i_glide_evdw>  (1) 
-44.837400550053665

>  <r_i_glide_gscore>  (1) 
-6.8332908225377587

>  <r_i_glide_gscore_strain>  (1) 
0

>  <r_i_glide_hbond>  (1) 
-0.4978354738041802

>  <r_i_glide_ligand_efficiency>  (1) 
-0.17791822935376889

>  <r_i_glide_ligand_efficiency_ln>  (1) 
-1.366995000892619

>  <r_i_glide_ligand_efficiency_sa>  (1) 
-0.58198232600752009

>  <r_i_glide_lipo>  (1) 
-2.9367672581474284

>  <r_i_glide_metal>  (1) 
-0

>  <r_i_glide_rewards>  (1) 
-0.5021117711704095

>  <r_lp_Energy>  (1) 
28.00357

>  <r_lp_tautomer_probability>  (1) 
0.99999993999736703

>  <s_epik_Chemistry_Notes>  (1) 
This compound contains an acetal/aminal-like group ( X-CH(R)-Y where X, Y are N, S, or O) that may be acid/base labile, releasing an aldehyde.

>  <s_epik_cmdline>  (1) 
J2VwaWtfcHl0aG9uJywgJy1waHQnLCAnMS4wJywgJy1waCcsICc3LjQnLCAnLXRuJywgJzgnLCAnLW1hJywgJzUwMCcsICctaW1hZScsICc8aW5maWxlLm1hZT4nLCAnLW9tYWUnLCAnPG91dGZpbGUubWFlPic=

>  <s_epik_input>  (1) 
W2NIXTFbY0hdYyhbT0hdKVtjSF1bY0hdYzFbQ0gyXVtDSDJdQyg9TylbQ0BIXShOKFtDSDNdKVtDSDJdW0NIMl1bT0hdKVtDSDJdW0NASF0oT1tDSDNdKVNbQ0gyXVtDQEBIXShbT0hdKVtDQEhdMltDQEBIXShbQ0gzXSlbQ0BIXShbT0hdKVtDSDJdQyhbT0hdKT1DMltDSDNd

>  <s_glide_docking_method>  (1) 
confgen

>  <s_i_glide_gridfile>  (1) 
gpcr_5ht2c_6bqh_protein_autoprepared_prepared

>  <s_lp_Force_Field>  (1) 
S-OPLS

>  <s_lp_Variant>  (1) 
DiffSBDD_75-10

>  <s_m_source_file>  (1) 
generated_GPCR_5HT2C_ligand_DiffSBDD_2026-06-23_prepared.sdf

>  <GenAI_Model>  (1) 
DiffSBDD

>  <Protein>  (1) 
GPCR_5HT2C

$$$$
DiffSBDD_83
     RDKit          3D

  0  0  0  0  0  0  0  0  0  0999 V3000
M  V30 BEGIN CTAB
M  V30 COUNTS 54 55 0 0 1
M  V30 BEGIN ATOM
M  V30 1 C 39.808039 31.458279 62.197143 0
M  V30 2 C 38.723961 32.009527 56.021387 0
M  V30 3 N 38.365413 33.270568 55.779710 0
M  V30 4 O 39.082042 26.158630 54.649269 0
M  V30 5 O 40.079183 30.736066 63.300973 0
M  V30 6 C 39.183621 33.824073 61.617587 0
M  V30 7 C 38.804847 35.234570 62.028179 0
M  V30 8 C 39.180751 26.485164 56.842457 0
M  V30 9 C 40.166155 29.180971 50.627622 0
M  V30 10 C 39.442027 32.861669 62.550880 0
M  V30 11 C 39.135672 31.125491 54.885022 0
M  V30 12 C 37.950512 33.158310 59.431946 0
M  V30 13 N 38.045131 33.737604 56.997379 0
M  V30 14 O 40.445129 29.348873 63.034787 0
M  V30 15 C 38.980019 28.595124 54.360821 0 CFG=1
M  V30 16 C 37.705763 28.103311 52.167472 0
M  V30 17 C 39.516123 25.749568 55.840775 0
M  V30 18 O 39.855814 31.003190 61.053766 0
M  V30 19 C 38.359537 27.354686 55.061924 0 CFG=2
M  V30 20 C 38.653335 31.682146 57.415946 0
M  V30 21 O 38.444664 27.544328 56.504886 0
M  V30 22 C 39.817452 29.509810 52.082694 0
M  V30 23 C 39.071521 28.373220 52.818664 0 CFG=1
M  V30 24 C 38.215307 32.828974 58.000052 0
M  V30 25 Cl 39.636287 26.137709 58.468209 0
M  V30 26 C 39.254964 33.597787 60.109958 0
M  V30 27 C 38.228452 29.880327 54.792979 0
M  V30 28 H 37.713510 34.684891 57.126457 0
M  V30 29 H 39.491956 35.955578 61.583765 0
M  V30 30 H 37.794780 35.469957 61.692217 0
M  V30 31 H 38.845554 35.368149 63.108101 0
M  V30 32 H 40.855785 29.918463 50.215548 0
M  V30 33 H 40.634959 28.200788 50.567754 0
M  V30 34 H 39.282767 29.170056 49.989873 0
M  V30 35 H 39.384866 33.106490 63.599081 0
M  V30 36 H 39.110891 31.679516 53.947214 0
M  V30 37 H 40.176765 30.840091 55.037802 0
M  V30 38 H 37.546945 32.278272 59.933747 0
M  V30 39 H 37.192246 33.937990 59.513266 0
M  V30 40 H 39.622880 28.911312 63.227671 0
M  V30 41 H 39.990162 28.650113 54.765037 0
M  V30 42 H 37.018094 28.937011 52.279825 0
M  V30 43 H 37.805719 27.894511 51.104325 0
M  V30 44 H 37.245169 27.216889 52.595558 0
M  V30 45 H 40.101366 24.844007 55.830861 0
M  V30 46 H 37.304906 27.228471 54.814048 0
M  V30 47 H 38.889220 30.747687 57.902740 0
M  V30 48 H 39.245150 30.431372 52.104180 0
M  V30 49 H 40.743884 29.737725 52.599403 0
M  V30 50 H 39.668974 27.474696 52.663066 0
M  V30 51 H 39.576446 34.537707 59.669494 0
M  V30 52 H 40.062642 32.937765 59.832659 0
M  V30 53 H 37.799661 29.711121 55.779903 0
M  V30 54 H 37.361272 30.089217 54.169222 0
M  V30 END ATOM
M  V30 BEGIN BOND
M  V30 1 2 3 2
M  V30 2 1 5 1
M  V30 3 1 7 6
M  V30 4 1 10 1
M  V30 5 2 10 6
M  V30 6 1 11 2
M  V30 7 1 13 3
M  V30 8 1 14 5
M  V30 9 1 17 4
M  V30 10 2 17 8
M  V30 11 2 18 1
M  V30 12 1 19 4
M  V30 13 1 19 15
M  V30 14 1 20 2
M  V30 15 1 21 8
M  V30 16 1 21 19
M  V30 17 1 22 9
M  V30 18 1 23 15
M  V30 19 1 23 16
M  V30 20 1 23 22
M  V30 21 1 24 12
M  V30 22 1 24 13
M  V30 23 2 24 20
M  V30 24 1 25 8
M  V30 25 1 26 6
M  V30 26 1 26 12
M  V30 27 1 27 11
M  V30 28 1 27 15
M  V30 29 1 28 13
M  V30 30 1 29 7
M  V30 31 1 30 7
M  V30 32 1 31 7
M  V30 33 1 32 9
M  V30 34 1 33 9
M  V30 35 1 34 9
M  V30 36 1 35 10
M  V30 37 1 36 11
M  V30 38 1 37 11
M  V30 39 1 38 12
M  V30 40 1 39 12
M  V30 41 1 40 14
M  V30 42 1 15 41 CFG=1
M  V30 43 1 42 16
M  V30 44 1 43 16
M  V30 45 1 44 16
M  V30 46 1 45 17
M  V30 47 1 19 46 CFG=3
M  V30 48 1 47 20
M  V30 49 1 48 22
M  V30 50 1 49 22
M  V30 51 1 23 50 CFG=1
M  V30 52 1 51 26
M  V30 53 1 52 26
M  V30 54 1 53 27
M  V30 55 1 54 27
M  V30 END BOND
M  V30 END CTAB
M  END
>  <i_epik_Tot_Q>  (1) 
0

>  <i_epik_Tot_abs_Q>  (1) 
0

>  <i_i_glide_confnum>  (1) 
1217

>  <i_i_glide_lignum>  (1) 
196

>  <i_i_glide_posenum>  (1) 
330

>  <i_i_glide_rotatable_bonds>  (1) 
12

>  <i_lp_mmshare_version>  (1) 
72125

>  <i_m_source_file_index>  (1) 
84

>  <i_f3d_flags>  (1) 
0

>  <num_sample>  (1) 
100

>  <b_lp_Chiralities_Consistent>  (1) 
1

>  <r_epik_Charging_Adjusted_Penalty>  (1) 
0.41067983895260396

>  <r_epik_Ionization_Penalty>  (1) 
0.00090540554532319911

>  <r_epik_Ionization_Penalty_Charging>  (1) 
0

>  <r_epik_Ionization_Penalty_Neutral>  (1) 
0.00090540554532319911

>  <r_epik_State_Penalty>  (1) 
0.41067983895260396

>  <r_glide_ring_energy>  (1) 
0

>  <r_i_docking_score>  (1) 
-6.2258946309893188

>  <r_i_glide_ecoul>  (1) 
-4.1363690946912488

>  <r_i_glide_eff_state_penalty>  (1) 
0.41067983895260396

>  <r_i_glide_einternal>  (1) 
6.7308745544033926

>  <r_i_glide_emodel>  (1) 
-53.905282597684014

>  <r_i_glide_emodel_strain>  (1) 
1.2513129617094805

>  <r_i_glide_energy>  (1) 
-41.218651991219936

>  <r_i_glide_erotb>  (1) 
1.1080255732668134

>  <r_i_glide_esite>  (1) 
-0.10689300420596921

>  <r_i_glide_evdw>  (1) 
-37.082282896528689

>  <r_i_glide_gscore>  (1) 
-6.6365744699419231

>  <r_i_glide_gscore_strain>  (1) 
0

>  <r_i_glide_hbond>  (1) 
-0.4786302295871393

>  <r_i_glide_ligand_efficiency>  (1) 
-0.23058869003664142

>  <r_i_glide_ligand_efficiency_ln>  (1) 
-1.4492856281994217

>  <r_i_glide_ligand_efficiency_sa>  (1) 
-0.69176607010992441

>  <r_i_glide_lipo>  (1) 
-3.0790163375127499

>  <r_i_glide_metal>  (1) 
-0

>  <r_i_glide_rewards>  (1) 
-1.6054909628727558

>  <r_lp_Energy>  (1) 
14.869823999999999

>  <r_lp_tautomer_probability>  (1) 
0.5

>  <s_epik_Chemistry_Notes>  (1) 
This compound contains an acetal/aminal-like group ( X-CH(R)-Y where X, Y are N, S, or O) that may be acid/base labile, releasing an aldehyde.

>  <s_epik_cmdline>  (1) 
J2VwaWtfcHl0aG9uJywgJy1waHQnLCAnMS4wJywgJy1waCcsICc3LjQnLCAnLXRuJywgJzgnLCAnLW1hJywgJzUwMCcsICctaW1hZScsICc8aW5maWxlLm1hZT4nLCAnLW9tYWUnLCAnPG91dGZpbGUubWFlPic=

>  <s_epik_input>  (1) 
W09IXU9DKD1PKVxbQ0hdPUMoXFtDSDNdKVtDSDJdW0NIMl1jKFtjSF0xKW5bbkhdYzFbQ0gyXVtDSDJdW0NASF0oW0NAQEhdKFtDSDNdKVtDSDJdW0NIM10pW0NAQEhdKE8yKU9bQ0hdPUMyQ2w=

>  <s_glide_docking_method>  (1) 
confgen

>  <s_i_glide_gridfile>  (1) 
gpcr_5ht2c_6bqh_protein_autoprepared_prepared

>  <s_lp_Force_Field>  (1) 
S-OPLS

>  <s_lp_Variant>  (1) 
DiffSBDD_83-7

>  <s_m_source_file>  (1) 
generated_GPCR_5HT2C_ligand_DiffSBDD_2026-06-23_prepared.sdf

>  <GenAI_Model>  (1) 
DiffSBDD

>  <Protein>  (1) 
GPCR_5HT2C

$$$$
DiffSBDD_60
     RDKit          3D

  0  0  0  0  0  0  0  0  0  0999 V3000
M  V30 BEGIN CTAB
M  V30 COUNTS 34 34 0 0 1
M  V30 BEGIN ATOM
M  V30 1 C 38.955394 28.613181 51.764811 0 CFG=2
M  V30 2 C 39.598300 26.061265 57.758230 0
M  V30 3 C 39.820100 29.652676 52.465450 0
M  V30 4 C 39.144960 27.972889 55.532939 0 CFG=2
M  V30 5 S 37.409809 24.537772 57.076332 0
M  V30 6 C 40.051484 28.335538 56.716377 0
M  V30 7 C 39.645734 30.064335 53.736521 0
M  V30 8 C 38.700069 25.697251 56.563404 0 CFG=1
M  V30 9 S 38.370253 29.442245 54.792760 0
M  V30 10 O 39.069057 27.338355 52.362988 0
M  V30 11 C 38.074225 26.969067 55.969149 0
M  V30 12 C 39.393377 28.440916 50.311790 0
M  V30 13 C 40.673320 27.081296 57.351428 0
M  V30 14 C 36.832078 23.905695 55.476105 0
M  V30 15 H 37.912748 28.934807 51.804298 0
M  V30 16 H 40.074803 25.165536 58.155119 0
M  V30 17 H 38.988788 26.476637 58.563371 0
M  V30 18 H 40.623374 30.077155 51.880810 0
M  V30 19 H 39.764559 27.501027 54.772351 0
M  V30 20 H 40.845246 28.987326 56.366395 0
M  V30 21 H 39.486655 28.893476 57.463688 0
M  V30 22 H 40.297867 30.809709 54.169001 0
M  V30 23 H 39.311026 25.203723 55.805691 0
M  V30 24 H 38.349251 26.807587 52.053410 0
M  V30 25 H 37.433056 27.432774 56.718766 0
M  V30 26 H 37.441833 26.727493 55.116069 0
M  V30 27 H 39.245139 29.361120 49.750038 0
M  V30 28 H 40.445179 28.173816 50.248898 0
M  V30 29 H 38.845232 27.643234 49.820088 0
M  V30 30 H 41.357471 26.617510 56.641104 0
M  V30 31 H 41.269322 27.361447 58.220610 0
M  V30 32 H 36.034443 23.176161 55.620955 0
M  V30 33 H 36.444321 24.710599 54.855052 0
M  V30 34 H 37.644885 23.417807 54.941245 0
M  V30 END ATOM
M  V30 BEGIN BOND
M  V30 1 1 3 1
M  V30 2 1 6 4
M  V30 3 2 7 3
M  V30 4 1 8 2
M  V30 5 1 8 5
M  V30 6 1 9 4
M  V30 7 1 9 7
M  V30 8 1 10 1
M  V30 9 1 11 4
M  V30 10 1 11 8
M  V30 11 1 12 1
M  V30 12 1 13 2
M  V30 13 1 13 6
M  V30 14 1 14 5
M  V30 15 1 1 15 CFG=3
M  V30 16 1 16 2
M  V30 17 1 17 2
M  V30 18 1 18 3
M  V30 19 1 4 19 CFG=3
M  V30 20 1 20 6
M  V30 21 1 21 6
M  V30 22 1 22 7
M  V30 23 1 8 23 CFG=3
M  V30 24 1 24 10
M  V30 25 1 25 11
M  V30 26 1 26 11
M  V30 27 1 27 12
M  V30 28 1 28 12
M  V30 29 1 29 12
M  V30 30 1 30 13
M  V30 31 1 31 13
M  V30 32 1 32 14
M  V30 33 1 33 14
M  V30 34 1 34 14
M  V30 END BOND
M  V30 END CTAB
M  END
>  <i_epik_Tot_Q>  (1) 
0

>  <i_epik_Tot_abs_Q>  (1) 
0

>  <i_i_glide_confnum>  (1) 
6

>  <i_i_glide_lignum>  (1) 
133

>  <i_i_glide_posenum>  (1) 
292

>  <i_i_glide_rotatable_bonds>  (1) 
5

>  <i_lp_mmshare_version>  (1) 
72125

>  <i_m_source_file_index>  (1) 
61

>  <i_f3d_flags>  (1) 
0

>  <num_sample>  (1) 
100

>  <b_lp_Chiralities_Consistent>  (1) 
1

>  <r_epik_Charging_Adjusted_Penalty>  (1) 
0

>  <r_epik_Ionization_Penalty>  (1) 
3.7959940703639166e-07

>  <r_epik_Ionization_Penalty_Charging>  (1) 
0

>  <r_epik_Ionization_Penalty_Neutral>  (1) 
3.7959940703639166e-07

>  <r_epik_State_Penalty>  (1) 
-0

>  <r_glide_ring_energy>  (1) 
0

>  <r_i_docking_score>  (1) 
-6.2235458372450294

>  <r_i_glide_ecoul>  (1) 
-1.5176489557916737

>  <r_i_glide_eff_state_penalty>  (1) 
-0

>  <r_i_glide_einternal>  (1) 
2.0646377630086374

>  <r_i_glide_emodel>  (1) 
-37.284398852922166

>  <r_i_glide_emodel_strain>  (1) 
2.1480137587760773

>  <r_i_glide_energy>  (1) 
-29.584992813137095

>  <r_i_glide_erotb>  (1) 
0.95139353164667573

>  <r_i_glide_esite>  (1) 
0

>  <r_i_glide_evdw>  (1) 
-28.067343857345421

>  <r_i_glide_gscore>  (1) 
-6.2235458372450294

>  <r_i_glide_gscore_strain>  (1) 
0

>  <r_i_glide_hbond>  (1) 
0

>  <r_i_glide_ligand_efficiency>  (1) 
-0.44453898837464495

>  <r_i_glide_ligand_efficiency_ln>  (1) 
-1.7102082417324866

>  <r_i_glide_ligand_efficiency_sa>  (1) 
-1.0714022039554332

>  <r_i_glide_lipo>  (1) 
-3.3692993393758304

>  <r_i_glide_metal>  (1) 
-0

>  <r_i_glide_rewards>  (1) 
-2.1746254932798523

>  <r_lp_Energy>  (1) 
9.9139400000000002

>  <r_lp_tautomer_probability>  (1) 
1

>  <s_epik_cmdline>  (1) 
J2VwaWtfcHl0aG9uJywgJy1waHQnLCAnMS4wJywgJy1waCcsICc3LjQnLCAnLXRuJywgJzgnLCAnLW1hJywgJzUwMCcsICctaW1hZScsICc8aW5maWxlLm1hZT4nLCAnLW9tYWUnLCAnPG91dGZpbGUubWFlPic=

>  <s_epik_input>  (1) 
W09IXVtDQEhdKFtDSDNdKS9bQ0hdPVtDSF1cU1tDQEhdMVtDSDJdW0NIMl1bQ0gyXVtDQEhdKFtDSDJdMSlTW0NIM10=

>  <s_glide_docking_method>  (1) 
confgen

>  <s_i_glide_gridfile>  (1) 
gpcr_5ht2c_6bqh_protein_autoprepared_prepared

>  <s_lp_Force_Field>  (1) 
S-OPLS

>  <s_lp_Variant>  (1) 
DiffSBDD_60-2

>  <s_m_source_file>  (1) 
generated_GPCR_5HT2C_ligand_DiffSBDD_2026-06-23_prepared.sdf

>  <GenAI_Model>  (1) 
DiffSBDD

>  <Protein>  (1) 
GPCR_5HT2C

$$$$
DiffSBDD_43
     RDKit          3D

  0  0  0  0  0  0  0  0  0  0999 V3000
M  V30 BEGIN CTAB
M  V30 COUNTS 83 85 0 0 1
M  V30 BEGIN ATOM
M  V30 1 C 38.314527 27.746719 55.372158 0
M  V30 2 C 40.914249 33.690141 65.690306 0
M  V30 3 C 40.845103 35.521639 62.146699 0
M  V30 4 C 37.801528 32.006606 59.272741 0 CFG=2
M  V30 5 C 39.404613 31.516432 61.368535 0 CFG=2
M  V30 6 O 36.624676 36.845246 60.304070 0
M  V30 7 O 40.317935 31.855713 64.244330 0
M  V30 8 N 38.532801 30.621326 54.531437 0 CHG=1
M  V30 9 C 39.955443 36.546424 61.778275 0
M  V30 10 C 42.007793 34.382639 66.503416 0
M  V30 11 C 38.116105 32.134558 57.781391 0
M  V30 12 C 40.531929 28.436993 57.928145 0
M  V30 13 N 38.045154 38.623498 60.890124 0
M  V30 14 C 38.621563 36.238272 61.424433 0
M  V30 15 C 41.364374 32.360367 65.071663 0
M  V30 16 N 37.735963 37.269659 61.044150 0
M  V30 17 C 38.755419 31.018160 60.030417 0 CFG=1
M  V30 18 O 40.845049 29.599922 64.320210 0
M  V30 19 C 37.334566 29.828552 54.167712 0 CFG=1
M  V30 20 C 39.564738 30.424687 62.464248 0
M  V30 21 C 39.484298 30.026623 55.498999 0
M  V30 22 C 39.184749 28.161111 58.613086 0 CFG=1
M  V30 23 C 40.408066 34.185058 62.179516 0
M  V30 24 O 38.171278 29.721182 60.099600 0
M  V30 25 C 38.880935 26.663327 58.707457 0
M  V30 26 C 39.647895 28.505780 55.412985 0 CFG=1
M  V30 27 O 36.445603 31.602732 59.367786 0
M  V30 28 C 40.666910 30.733256 63.501409 0 CFG=1
M  V30 29 C 38.183341 34.894087 61.462772 0
M  V30 30 N 40.845046 26.537758 56.338379 0 CHG=1
M  V30 31 C 37.690193 28.898690 53.012497 0
M  V30 32 C 40.682212 27.990920 56.453479 0 CFG=2
M  V30 33 O 39.253647 28.679082 59.928393 0
M  V30 34 C 37.362215 28.329453 54.365658 0 CFG=1
M  V30 35 O 38.612788 32.567165 61.913618 0
M  V30 36 O 37.645164 33.337864 57.230799 0
M  V30 37 C 39.070576 33.867989 61.846103 0
M  V30 38 H 38.468920 26.697525 55.117401 0
M  V30 39 H 37.791850 27.760130 56.321700 0
M  V30 40 H 40.595918 34.369072 64.902010 0
M  V30 41 H 40.045166 33.524203 66.321367 0
M  V30 42 H 41.863966 35.763306 62.412239 0
M  V30 43 H 37.879233 33.009092 59.672705 0
M  V30 44 H 40.400026 31.867076 61.095781 0
M  V30 45 H 36.954963 36.605227 59.450860 0
M  V30 46 H 39.031322 30.823581 53.677262 0
M  V30 47 H 40.298529 37.570520 61.759718 0
M  V30 48 H 41.629000 35.301858 66.950460 0
M  V30 49 H 42.375576 33.745497 67.306983 0
M  V30 50 H 42.845157 34.649014 65.860220 0
M  V30 51 H 39.192348 32.127078 57.612180 0
M  V30 52 H 37.645113 31.318195 57.241676 0
M  V30 53 H 40.728516 29.503979 57.990301 0
M  V30 54 H 41.332574 27.986304 58.516708 0
M  V30 55 H 38.609118 38.919771 61.683570 0
M  V30 56 H 38.589168 38.749800 60.038168 0
M  V30 57 H 41.610003 31.645291 65.858246 0
M  V30 58 H 42.268920 32.522181 64.482657 0
M  V30 59 H 39.609902 30.876343 59.379360 0
M  V30 60 H 39.983778 29.284490 64.567838 0
M  V30 61 H 36.398948 30.382853 54.168055 0
M  V30 62 H 38.617056 30.244809 62.971252 0
M  V30 63 H 39.866149 29.481673 62.019015 0
M  V30 64 H 39.166036 30.230187 56.502300 0
M  V30 65 H 40.444946 30.527726 55.371488 0
M  V30 66 H 38.376770 28.678289 58.099769 0
M  V30 67 H 41.094180 33.408254 62.475313 0
M  V30 68 H 38.605306 26.219652 57.754018 0
M  V30 69 H 39.722993 26.103152 59.108096 0
M  V30 70 H 38.045144 26.507301 59.367667 0
M  V30 71 H 40.045137 28.300302 54.436783 0
M  V30 72 H 36.029427 31.737728 58.511568 0
M  V30 73 H 41.617809 30.913226 62.998049 0
M  V30 74 H 37.162339 34.648221 61.210994 0
M  V30 75 H 40.061546 26.064035 56.762379 0
M  V30 76 H 40.898673 26.275354 55.365080 0
M  V30 77 H 38.720829 28.826917 52.671952 0
M  V30 78 H 36.947154 28.725897 52.235840 0
M  V30 79 H 41.646263 28.402232 56.167397 0
M  V30 80 H 36.444814 27.761095 54.316690 0
M  V30 81 H 36.725287 33.201068 57.009627 0
M  V30 82 H 41.701255 26.224772 56.790157 0
M  V30 83 H 38.217507 31.505785 54.910892 0
M  V30 END ATOM
M  V30 BEGIN BOND
M  V30 1 1 9 3
M  V30 2 1 10 2
M  V30 3 1 11 4
M  V30 4 2 14 9
M  V30 5 1 15 2
M  V30 6 1 15 7
M  V30 7 1 16 6
M  V30 8 1 16 13
M  V30 9 1 16 14
M  V30 10 1 17 4
M  V30 11 1 17 5
M  V30 12 1 19 8
M  V30 13 1 20 5
M  V30 14 1 21 8
M  V30 15 1 22 12
M  V30 16 2 23 3
M  V30 17 1 24 17
M  V30 18 1 25 22
M  V30 19 1 26 1
M  V30 20 1 26 21
M  V30 21 1 27 4
M  V30 22 1 28 7
M  V30 23 1 28 18
M  V30 24 1 28 20
M  V30 25 1 29 14
M  V30 26 1 31 19
M  V30 27 1 32 12
M  V30 28 1 32 26
M  V30 29 1 32 30
M  V30 30 1 33 22
M  V30 31 1 33 24
M  V30 32 1 34 1
M  V30 33 1 34 19
M  V30 34 1 34 31
M  V30 35 1 35 5
M  V30 36 1 36 11
M  V30 37 1 37 23
M  V30 38 2 37 29
M  V30 39 1 37 35
M  V30 40 1 38 1
M  V30 41 1 39 1
M  V30 42 1 40 2
M  V30 43 1 41 2
M  V30 44 1 42 3
M  V30 45 1 4 43 CFG=1
M  V30 46 1 5 44 CFG=3
M  V30 47 1 45 6
M  V30 48 1 46 8
M  V30 49 1 47 9
M  V30 50 1 48 10
M  V30 51 1 49 10
M  V30 52 1 50 10
M  V30 53 1 51 11
M  V30 54 1 52 11
M  V30 55 1 53 12
M  V30 56 1 54 12
M  V30 57 1 55 13
M  V30 58 1 56 13
M  V30 59 1 57 15
M  V30 60 1 58 15
M  V30 61 1 17 59 CFG=3
M  V30 62 1 60 18
M  V30 63 1 19 61 CFG=3
M  V30 64 1 62 20
M  V30 65 1 63 20
M  V30 66 1 64 21
M  V30 67 1 65 21
M  V30 68 1 22 66 CFG=3
M  V30 69 1 67 23
M  V30 70 1 68 25
M  V30 71 1 69 25
M  V30 72 1 70 25
M  V30 73 1 26 71 CFG=3
M  V30 74 1 72 27
M  V30 75 1 28 73 CFG=3
M  V30 76 1 74 29
M  V30 77 1 75 30
M  V30 78 1 76 30
M  V30 79 1 77 31
M  V30 80 1 78 31
M  V30 81 1 32 79 CFG=3
M  V30 82 1 34 80 CFG=3
M  V30 83 1 81 36
M  V30 84 1 82 30
M  V30 85 1 83 8
M  V30 END BOND
M  V30 END CTAB
M  END
>  <i_epik_Tot_Q>  (1) 
2

>  <i_epik_Tot_abs_Q>  (1) 
2

>  <i_i_glide_confnum>  (1) 
6606

>  <i_i_glide_lignum>  (1) 
95

>  <i_i_glide_posenum>  (1) 
360

>  <i_i_glide_rotatable_bonds>  (1) 
21

>  <i_lp_mmshare_version>  (1) 
72125

>  <i_m_source_file_index>  (1) 
44

>  <i_f3d_flags>  (1) 
0

>  <num_sample>  (1) 
100

>  <b_lp_Chiralities_Consistent>  (1) 
1

>  <r_epik_Charging_Adjusted_Penalty>  (1) 
0.054628322637716921

>  <r_epik_Ionization_Penalty>  (1) 
0.057286365922034427

>  <r_epik_Ionization_Penalty_Charging>  (1) 
0.054628322637716921

>  <r_epik_Ionization_Penalty_Neutral>  (1) 
0.0026580432843175059

>  <r_epik_State_Penalty>  (1) 
-0

>  <r_glide_ring_energy>  (1) 
0

>  <r_i_docking_score>  (1) 
-6.2232332613436618

>  <r_i_glide_ecoul>  (1) 
-10.821620885896836

>  <r_i_glide_eff_state_penalty>  (1) 
-0

>  <r_i_glide_einternal>  (1) 
34.230541976680541

>  <r_i_glide_emodel>  (1) 
-50.329995900667782

>  <r_i_glide_emodel_strain>  (1) 
7.2321047173745683

>  <r_i_glide_energy>  (1) 
-47.818807316412411

>  <r_i_glide_erotb>  (1) 
1.0980815572756908

>  <r_i_glide_esite>  (1) 
0

>  <r_i_glide_evdw>  (1) 
-36.997186430515576

>  <r_i_glide_gscore>  (1) 
-6.2232332613436618

>  <r_i_glide_gscore_strain>  (1) 
0.80802617934364207

>  <r_i_glide_hbond>  (1) 
-0.59022965923294946

>  <r_i_glide_ligand_efficiency>  (1) 
-0.16819549354982871

>  <r_i_glide_ligand_efficiency_ln>  (1) 
-1.3496734010983127

>  <r_i_glide_ligand_efficiency_sa>  (1) 
-0.5604646989551153

>  <r_i_glide_lipo>  (1) 
-3.6977610602184523

>  <r_i_glide_metal>  (1) 
-0

>  <r_i_glide_rewards>  (1) 
-0.36824782410128909

>  <r_lp_Energy>  (1) 
48.925089999999997

>  <r_lp_tautomer_probability>  (1) 
1

>  <s_epik_Chemistry_Notes>  (1) 
This compound contains an acetal/aminal-like group ( X-CH(R)-Y where X, Y are N, S, or O) that may be acid/base labile, releasing an aldehyde. This compound has a N-S or N-O group and may undergo hydrolysis at high or low pH.

>  <s_epik_cmdline>  (1) 
J2VwaWtfcHl0aG9uJywgJy1waHQnLCAnMS4wJywgJy1waCcsICc3LjQnLCAnLXRuJywgJzgnLCAnLW1hJywgJzUwMCcsICctaW1hZScsICc8aW5maWxlLm1hZT4nLCAnLW9tYWUnLCAnPG91dGZpbGUubWFlPic=

>  <s_epik_input>  (1) 
W0NASF0xMltDQEBIXShbQ0gyXTIpW0NIMl1bQ0BASF0oW0NIMl1bTkhdMSlbQ0BIXShbTkgyXSlbQ0gyXVtDQEBIXShbQ0gzXSlPT1tDQEBIXShbQ0BIXShbT0hdKVtDSDJdW09IXSlbQ0BIXShbQ0gyXVtDQEhdKFtPSF0pT1tDSDJdW0NIMl1bQ0gzXSlPYyhbY0hdMylbY0hdW2NIXVtjSF1jM04oW09IXSlbTkgyXQ==

>  <s_glide_docking_method>  (1) 
confgen

>  <s_i_glide_gridfile>  (1) 
gpcr_5ht2c_6bqh_protein_autoprepared_prepared

>  <s_lp_Force_Field>  (1) 
S-OPLS

>  <s_lp_Variant>  (1) 
DiffSBDD_43-1

>  <s_m_source_file>  (1) 
generated_GPCR_5HT2C_ligand_DiffSBDD_2026-06-23_prepared.sdf

>  <GenAI_Model>  (1) 
DiffSBDD

>  <Protein>  (1) 
GPCR_5HT2C

$$$$
DiffSBDD_75
     RDKit          3D

  0  0  0  0  0  0  0  0  0  0999 V3000
M  V30 BEGIN CTAB
M  V30 COUNTS 77 78 0 0 1
M  V30 BEGIN ATOM
M  V30 1 C 38.722574 31.008303 58.554937 0
M  V30 2 C 38.333050 33.257041 55.628325 0
M  V30 3 O 41.275053 26.986993 57.066217 0
M  V30 4 C 36.430991 33.443518 59.341470 0
M  V30 5 C 38.257692 26.325670 57.351444 0 CFG=2
M  V30 6 C 40.898001 33.165716 63.895964 0
M  V30 7 C 40.279381 27.622344 56.298541 0 CFG=2
M  V30 8 C 41.228059 34.446329 63.413099 0
M  V30 9 O 36.083531 25.337806 57.589339 0
M  V30 10 C 39.460807 25.464136 55.200908 0 CFG=1
M  V30 11 O 41.645119 36.284421 66.567754 0
M  V30 12 S 38.974377 30.075731 56.003873 0
M  V30 13 C 35.102124 33.836378 59.989774 0
M  V30 14 C 41.417808 35.261138 65.699543 0
M  V30 15 C 39.917047 28.888713 57.027103 0
M  V30 16 C 40.580928 32.058192 62.922540 0
M  V30 17 C 40.845127 32.927679 65.285480 0
M  V30 18 O 37.245141 25.359754 54.167867 0
M  V30 19 C 40.253589 25.825049 53.923955 0
M  V30 20 C 39.070128 26.693417 56.056651 0 CFG=1
M  V30 21 O 35.245143 33.737755 61.397920 0
M  V30 22 O 38.045137 32.531000 56.812375 0
M  V30 23 O 39.140254 30.220242 61.255676 0
M  V30 24 C 36.082845 31.032383 59.915466 0
M  V30 25 N 36.976046 32.222444 59.979928 0 CFG=1 CHG=1
M  V30 26 C 38.995165 31.422791 61.035685 0
M  V30 27 C 41.486307 35.490280 64.311966 0
M  V30 28 C 39.314924 32.429078 62.128132 0
M  V30 29 C 38.422093 31.981166 59.714457 0 CFG=1
M  V30 30 C 41.106436 33.977379 66.187600 0
M  V30 31 C 37.570025 24.124941 56.198417 0
M  V30 32 C 38.974496 31.516386 57.116303 0 CFG=1
M  V30 33 C 39.088936 25.794675 58.526350 0
M  V30 34 C 38.199144 24.624227 54.912516 0 CFG=2
M  V30 35 C 37.190145 25.272118 57.084561 0
M  V30 36 H 39.645109 30.516323 58.843284 0
M  V30 37 H 37.975392 30.219639 58.518115 0
M  V30 38 H 37.645258 34.096108 55.539059 0
M  V30 39 H 39.341016 33.668901 55.646141 0
M  V30 40 H 38.219320 32.632631 54.742274 0
M  V30 41 H 41.656153 26.260374 56.586041 0
M  V30 42 H 37.138120 34.261955 59.487719 0
M  V30 43 H 36.309769 33.337589 58.266757 0
M  V30 44 H 40.729521 27.943948 55.367785 0
M  V30 45 H 41.270341 34.630205 62.349087 0
M  V30 46 H 36.714948 23.474636 56.013116 0
M  V30 47 H 40.124292 24.846967 55.803974 0
M  V30 48 H 41.815465 37.093310 66.094118 0
M  V30 49 H 34.846480 34.854645 59.700684 0
M  V30 50 H 34.284141 33.197924 59.651925 0
M  V30 51 H 40.840429 29.337738 57.379159 0
M  V30 52 H 39.362074 28.614639 57.918692 0
M  V30 53 H 41.435450 31.920409 62.257790 0
M  V30 54 H 40.436920 31.118965 63.459475 0
M  V30 55 H 40.592134 31.946145 65.658486 0
M  V30 56 H 36.561463 24.777112 53.872143 0
M  V30 57 H 39.682418 26.476489 53.260652 0
M  V30 58 H 41.201930 26.298718 54.145034 0
M  V30 59 H 40.568219 24.952406 53.367761 0
M  V30 60 H 38.385405 27.278371 55.441307 0
M  V30 61 H 34.462470 34.087822 61.803355 0
M  V30 62 H 35.791467 30.792863 58.896615 0
M  V30 63 H 36.548044 30.147832 60.349521 0
M  V30 64 H 35.177609 31.208690 60.491760 0
M  V30 65 H 41.729364 36.472643 63.935652 0
M  V30 66 H 38.459860 32.504874 62.799022 0
M  V30 67 H 39.436773 33.406458 61.662253 0
M  V30 68 H 38.922676 32.928810 59.513443 0
M  V30 69 H 41.055805 33.800792 67.251897 0
M  V30 70 H 38.306918 23.581767 56.780688 0
M  V30 71 H 37.723630 27.214011 57.687928 0
M  V30 72 H 39.961269 31.957469 57.001556 0
M  V30 73 H 38.445167 25.337949 59.279531 0
M  V30 74 H 39.802698 25.049412 58.167975 0
M  V30 75 H 39.640946 26.588417 59.027625 0
M  V30 76 H 38.445137 23.737755 54.347439 0
M  V30 77 H 36.938411 32.494622 60.953897 0
M  V30 END ATOM
M  V30 BEGIN BOND
M  V30 1 1 7 3
M  V30 2 1 8 6
M  V30 3 1 13 4
M  V30 4 1 14 11
M  V30 5 1 15 7
M  V30 6 1 15 12
M  V30 7 1 16 6
M  V30 8 2 17 6
M  V30 9 1 19 10
M  V30 10 1 20 5
M  V30 11 1 20 7
M  V30 12 1 20 10
M  V30 13 1 21 13
M  V30 14 1 22 2
M  V30 15 1 25 4
M  V30 16 1 25 24
M  V30 17 2 26 23
M  V30 18 2 27 8
M  V30 19 1 27 14
M  V30 20 1 28 16
M  V30 21 1 28 26
M  V30 22 1 29 1
M  V30 23 1 29 25
M  V30 24 1 29 26
M  V30 25 2 30 14
M  V30 26 1 30 17
M  V30 27 1 32 1
M  V30 28 1 32 12
M  V30 29 1 32 22
M  V30 30 1 33 5
M  V30 31 1 34 10
M  V30 32 1 34 18
M  V30 33 1 34 31
M  V30 34 1 35 5
M  V30 35 2 35 9
M  V30 36 1 35 31
M  V30 37 1 36 1
M  V30 38 1 37 1
M  V30 39 1 38 2
M  V30 40 1 39 2
M  V30 41 1 40 2
M  V30 42 1 41 3
M  V30 43 1 42 4
M  V30 44 1 43 4
M  V30 45 1 7 44 CFG=3
M  V30 46 1 45 8
M  V30 47 1 46 31
M  V30 48 1 10 47 CFG=1
M  V30 49 1 48 11
M  V30 50 1 49 13
M  V30 51 1 50 13
M  V30 52 1 51 15
M  V30 53 1 52 15
M  V30 54 1 53 16
M  V30 55 1 54 16
M  V30 56 1 55 17
M  V30 57 1 56 18
M  V30 58 1 57 19
M  V30 59 1 58 19
M  V30 60 1 59 19
M  V30 61 1 20 60 CFG=3
M  V30 62 1 61 21
M  V30 63 1 62 24
M  V30 64 1 63 24
M  V30 65 1 64 24
M  V30 66 1 65 27
M  V30 67 1 66 28
M  V30 68 1 67 28
M  V30 69 1 29 68 CFG=3
M  V30 70 1 69 30
M  V30 71 1 70 31
M  V30 72 1 5 71 CFG=1
M  V30 73 1 32 72 CFG=1
M  V30 74 1 73 33
M  V30 75 1 74 33
M  V30 76 1 75 33
M  V30 77 1 34 76 CFG=3
M  V30 78 1 25 77 CFG=1
M  V30 END BOND
M  V30 END CTAB
M  END
>  <i_epik_Tot_Q>  (1) 
1

>  <i_epik_Tot_abs_Q>  (1) 
1

>  <i_i_glide_confnum>  (1) 
3182

>  <i_i_glide_lignum>  (1) 
171

>  <i_i_glide_posenum>  (1) 
147

>  <i_i_glide_rotatable_bonds>  (1) 
18

>  <i_lp_mmshare_version>  (1) 
72125

>  <i_m_source_file_index>  (1) 
76

>  <i_f3d_flags>  (1) 
0

>  <num_sample>  (1) 
100

>  <b_lp_Chiralities_Consistent>  (1) 
1

>  <r_epik_Charging_Adjusted_Penalty>  (1) 
0.52789471212939676

>  <r_epik_Ionization_Penalty>  (1) 
0.26592108790513191

>  <r_epik_Ionization_Penalty_Charging>  (1) 
0.26394735606469838

>  <r_epik_Ionization_Penalty_Neutral>  (1) 
0.0019737318404335234

>  <r_epik_State_Penalty>  (1) 
0.26394735606469838

>  <r_glide_ring_energy>  (1) 
0

>  <r_i_docking_score>  (1) 
-6.2225672140104331

>  <r_i_glide_ecoul>  (1) 
-7.2577599086985387

>  <r_i_glide_eff_state_penalty>  (1) 
0.26394735606469838

>  <r_i_glide_einternal>  (1) 
8.0946834412176614

>  <r_i_glide_emodel>  (1) 
-54.934490609661765

>  <r_i_glide_emodel_strain>  (1) 
1.7125382667956615

>  <r_i_glide_energy>  (1) 
-35.232392513382152

>  <r_i_glide_erotb>  (1) 
1.0139394581015995

>  <r_i_glide_esite>  (1) 
-0.050251250907385053

>  <r_i_glide_evdw>  (1) 
-27.974632604683617

>  <r_i_glide_gscore>  (1) 
-6.4865145700751317

>  <r_i_glide_gscore_strain>  (1) 
0

>  <r_i_glide_hbond>  (1) 
-0.56142291774246678

>  <r_i_glide_ligand_efficiency>  (1) 
-0.17778763468601239

>  <r_i_glide_ligand_efficiency_ln>  (1) 
-1.3659916059138426

>  <r_i_glide_ligand_efficiency_sa>  (1) 
-0.58155514218953153

>  <r_i_glide_lipo>  (1) 
-3.4597606989116723

>  <r_i_glide_metal>  (1) 
-0

>  <r_i_glide_rewards>  (1) 
-0.94162354407624504

>  <r_lp_Energy>  (1) 
30.750938999999999

>  <r_lp_tautomer_probability>  (1) 
0.99989998499911525

>  <s_epik_Chemistry_Notes>  (1) 
This compound contains an acetal/aminal-like group ( X-CH(R)-Y where X, Y are N, S, or O) that may be acid/base labile, releasing an aldehyde.

>  <s_epik_cmdline>  (1) 
J2VwaWtfcHl0aG9uJywgJy1waHQnLCAnMS4wJywgJy1waCcsICc3LjQnLCAnLXRuJywgJzgnLCAnLW1hJywgJzUwMCcsICctaW1hZScsICc8aW5maWxlLm1hZT4nLCAnLW9tYWUnLCAnPG91dGZpbGUubWFlPic=

>  <s_epik_input>  (1) 
W2NIXTFbY0hdYyhbT0hdKVtjSF1bY0hdYzFbQ0gyXVtDSDJdQyg9TylbQ0BIXShOKFtDSDNdKVtDSDJdW0NIMl1bT0hdKVtDSDJdW0NASF0oT1tDSDNdKVNbQ0gyXVtDQEBIXShbT0hdKVtDQEhdMltDQEBIXShbQ0gzXSlbQ0BIXShbT0hdKVtDSDJdQyhbT0hdKT1DMltDSDNd

>  <s_glide_docking_method>  (1) 
confgen

>  <s_i_glide_gridfile>  (1) 
gpcr_5ht2c_6bqh_protein_autoprepared_prepared

>  <s_lp_Force_Field>  (1) 
S-OPLS

>  <s_lp_Variant>  (1) 
DiffSBDD_75-8

>  <s_m_source_file>  (1) 
generated_GPCR_5HT2C_ligand_DiffSBDD_2026-06-23_prepared.sdf

>  <GenAI_Model>  (1) 
DiffSBDD

>  <Protein>  (1) 
GPCR_5HT2C

$$$$
DiffSBDD_60
     RDKit          3D

  0  0  0  0  0  0  0  0  0  0999 V3000
M  V30 BEGIN CTAB
M  V30 COUNTS 34 34 0 0 1
M  V30 BEGIN ATOM
M  V30 1 C 39.633393 29.682514 51.348836 0 CFG=2
M  V30 2 C 39.511513 26.229108 57.286101 0
M  V30 3 C 39.964247 30.572105 52.535359 0
M  V30 4 C 38.978129 27.963680 54.922533 0 CFG=2
M  V30 5 S 37.422608 24.537796 56.733315 0
M  V30 6 C 39.820344 28.456479 56.114505 0
M  V30 7 C 39.362160 30.499190 53.737299 0
M  V30 8 C 38.664162 25.707888 56.110259 0 CFG=1
M  V30 9 S 38.085589 29.331697 54.119621 0
M  V30 10 O 40.445154 28.537755 51.367722 0
M  V30 11 C 37.986211 26.875692 55.369480 0
M  V30 12 C 39.877925 30.413562 50.023887 0
M  V30 13 C 40.519891 27.291864 56.832232 0
M  V30 14 C 36.824802 23.776101 55.198943 0
M  V30 15 H 38.599574 29.337754 51.387746 0
M  V30 16 H 40.041702 25.402224 57.760130 0
M  V30 17 H 38.861651 26.656257 58.050795 0
M  V30 18 H 40.738739 31.309062 52.378968 0
M  V30 19 H 39.645096 27.533482 54.174838 0
M  V30 20 H 40.570882 29.168417 55.772847 0
M  V30 21 H 39.182130 28.992411 56.819103 0
M  V30 22 H 39.646567 31.168616 54.536097 0
M  V30 23 H 39.318503 25.172407 55.419954 0
M  V30 24 H 41.350825 28.808676 51.344716 0
M  V30 25 H 37.245138 27.314530 56.032848 0
M  V30 26 H 37.441303 26.512549 54.498949 0
M  V30 27 H 39.245011 31.297118 49.939554 0
M  V30 28 H 40.915089 30.738397 49.927091 0
M  V30 29 H 39.651106 29.765472 49.176382 0
M  V30 30 H 41.245087 26.828554 56.166819 0
M  V30 31 H 41.082845 27.666218 57.687796 0
M  V30 32 H 36.086765 23.007390 55.430062 0
M  V30 33 H 36.352326 24.513428 54.551868 0
M  V30 34 H 37.645142 23.314221 54.651782 0
M  V30 END ATOM
M  V30 BEGIN BOND
M  V30 1 1 3 1
M  V30 2 1 6 4
M  V30 3 2 7 3
M  V30 4 1 8 2
M  V30 5 1 8 5
M  V30 6 1 9 4
M  V30 7 1 9 7
M  V30 8 1 10 1
M  V30 9 1 11 4
M  V30 10 1 11 8
M  V30 11 1 12 1
M  V30 12 1 13 2
M  V30 13 1 13 6
M  V30 14 1 14 5
M  V30 15 1 1 15 CFG=1
M  V30 16 1 16 2
M  V30 17 1 17 2
M  V30 18 1 18 3
M  V30 19 1 4 19 CFG=3
M  V30 20 1 20 6
M  V30 21 1 21 6
M  V30 22 1 22 7
M  V30 23 1 8 23 CFG=3
M  V30 24 1 24 10
M  V30 25 1 25 11
M  V30 26 1 26 11
M  V30 27 1 27 12
M  V30 28 1 28 12
M  V30 29 1 29 12
M  V30 30 1 30 13
M  V30 31 1 31 13
M  V30 32 1 32 14
M  V30 33 1 33 14
M  V30 34 1 34 14
M  V30 END BOND
M  V30 END CTAB
M  END
>  <i_epik_Tot_Q>  (1) 
0

>  <i_epik_Tot_abs_Q>  (1) 
0

>  <i_i_glide_confnum>  (1) 
5

>  <i_i_glide_lignum>  (1) 
133

>  <i_i_glide_posenum>  (1) 
370

>  <i_i_glide_rotatable_bonds>  (1) 
5

>  <i_lp_mmshare_version>  (1) 
72125

>  <i_m_source_file_index>  (1) 
61

>  <i_f3d_flags>  (1) 
0

>  <num_sample>  (1) 
100

>  <b_lp_Chiralities_Consistent>  (1) 
1

>  <r_epik_Charging_Adjusted_Penalty>  (1) 
0

>  <r_epik_Ionization_Penalty>  (1) 
3.7959940703639166e-07

>  <r_epik_Ionization_Penalty_Charging>  (1) 
0

>  <r_epik_Ionization_Penalty_Neutral>  (1) 
3.7959940703639166e-07

>  <r_epik_State_Penalty>  (1) 
-0

>  <r_glide_ring_energy>  (1) 
0

>  <r_i_docking_score>  (1) 
-6.2214062487738548

>  <r_i_glide_ecoul>  (1) 
-1.1427863938581846

>  <r_i_glide_eff_state_penalty>  (1) 
-0

>  <r_i_glide_einternal>  (1) 
3.1299099212330117

>  <r_i_glide_emodel>  (1) 
-38.514078425025154

>  <r_i_glide_emodel_strain>  (1) 
0.80722418776492333

>  <r_i_glide_energy>  (1) 
-30.010259231093578

>  <r_i_glide_erotb>  (1) 
0.95139353164667573

>  <r_i_glide_esite>  (1) 
0

>  <r_i_glide_evdw>  (1) 
-28.867472837235393

>  <r_i_glide_gscore>  (1) 
-6.2214062487738548

>  <r_i_glide_gscore_strain>  (1) 
0

>  <r_i_glide_hbond>  (1) 
0

>  <r_i_glide_ligand_efficiency>  (1) 
-0.44438616062670394

>  <r_i_glide_ligand_efficiency_ln>  (1) 
-1.7096202904370339

>  <r_i_glide_ligand_efficiency_sa>  (1) 
-1.0710338673409818

>  <r_i_glide_lipo>  (1) 
-3.3049768776567219

>  <r_i_glide_metal>  (1) 
-0

>  <r_i_glide_rewards>  (1) 
-2.2530313018233112

>  <r_lp_Energy>  (1) 
9.9139400000000002

>  <r_lp_tautomer_probability>  (1) 
1

>  <s_epik_cmdline>  (1) 
J2VwaWtfcHl0aG9uJywgJy1waHQnLCAnMS4wJywgJy1waCcsICc3LjQnLCAnLXRuJywgJzgnLCAnLW1hJywgJzUwMCcsICctaW1hZScsICc8aW5maWxlLm1hZT4nLCAnLW9tYWUnLCAnPG91dGZpbGUubWFlPic=

>  <s_epik_input>  (1) 
W09IXVtDQEhdKFtDSDNdKS9bQ0hdPVtDSF1cU1tDQEhdMVtDSDJdW0NIMl1bQ0gyXVtDQEhdKFtDSDJdMSlTW0NIM10=

>  <s_glide_docking_method>  (1) 
confgen

>  <s_i_glide_gridfile>  (1) 
gpcr_5ht2c_6bqh_protein_autoprepared_prepared

>  <s_lp_Force_Field>  (1) 
S-OPLS

>  <s_lp_Variant>  (1) 
DiffSBDD_60-2

>  <s_m_source_file>  (1) 
generated_GPCR_5HT2C_ligand_DiffSBDD_2026-06-23_prepared.sdf

>  <GenAI_Model>  (1) 
DiffSBDD

>  <Protein>  (1) 
GPCR_5HT2C

$$$$
DiffSBDD_53
     RDKit          3D

  0  0  0  0  0  0  0  0  0  0999 V3000
M  V30 BEGIN CTAB
M  V30 COUNTS 81 85 0 0 1
M  V30 BEGIN ATOM
M  V30 1 C 39.973662 29.018383 57.830959 0
M  V30 2 C 41.398610 32.995041 61.730790 0
M  V30 3 C 43.352545 29.544372 65.942541 0
M  V30 4 C 40.278926 28.261845 59.130945 0
M  V30 5 C 41.749739 31.971992 64.764938 0
M  V30 6 C 37.195689 27.960218 53.068159 0
M  V30 7 C 40.045344 30.877852 55.006187 0
M  V30 8 N 38.625191 28.689669 57.320077 0 CHG=1
M  V30 9 N 42.215052 29.979447 69.279482 0
M  V30 10 C 38.810303 34.403019 62.011082 0
M  V30 11 C 38.323885 29.018228 55.905721 0 CFG=1
M  V30 12 N 39.255553 28.539021 60.129178 0
M  V30 13 C 42.202616 30.861377 64.148718 0
M  V30 14 C 40.592649 32.749910 64.146895 0
M  V30 15 C 38.685620 30.434897 55.515436 0 CFG=1
M  V30 16 C 40.353797 30.849378 62.629329 0 CFG=1
M  V30 17 C 38.968887 28.013724 54.939005 0 CFG=2
M  V30 18 C 43.312151 29.607080 68.403870 0
M  V30 19 O 38.045138 31.437141 56.287002 0
M  V30 20 C 39.768178 29.002245 61.385248 0
M  V30 21 C 41.270255 34.530416 61.608686 0
M  V30 22 C 39.895311 34.931894 61.072215 0
M  V30 23 C 40.316860 32.397710 62.665972 0
M  V30 24 O 40.006695 30.373189 61.364633 0
M  V30 25 C 38.913233 32.876130 62.196050 0
M  V30 26 C 38.636857 28.321124 53.456573 0 CFG=2
M  V30 27 O 38.552590 26.708219 55.296538 0
M  V30 28 C 42.965139 31.748506 67.003496 0
M  V30 29 N 38.883833 29.738088 53.050533 0 CFG=2 CHG=1
M  V30 30 O 41.622845 30.403250 62.990087 0
M  V30 31 C 39.868110 29.926638 51.954410 0
M  V30 32 C 38.857029 30.838498 54.067170 0 CFG=2
M  V30 33 C 42.338919 32.471019 66.020689 0
M  V30 34 C 43.376353 30.059020 64.557130 0
M  V30 35 C 43.208646 30.289433 67.049068 0
M  V30 36 H 40.733602 28.747682 57.099520 0
M  V30 37 H 40.043646 30.093858 57.985857 0
M  V30 38 H 42.403609 32.745162 62.072524 0
M  V30 39 H 41.294861 32.537567 60.747106 0
M  V30 40 H 43.529773 28.483988 66.048771 0
M  V30 41 H 40.321614 27.186914 58.952303 0
M  V30 42 H 41.266420 28.555263 59.491689 0
M  V30 43 H 36.965686 26.913160 53.267208 0
M  V30 44 H 36.473334 28.559737 53.612086 0
M  V30 45 H 37.026762 28.137462 52.006525 0
M  V30 46 H 40.402214 31.851455 55.334634 0
M  V30 47 H 40.829260 30.139083 54.865654 0
M  V30 48 H 37.970934 29.185075 57.911193 0
M  V30 49 H 41.343270 29.664918 68.874247 0
M  V30 50 H 42.300547 29.490225 70.159240 0
M  V30 51 H 37.825318 34.663600 61.622034 0
M  V30 52 H 38.905077 34.913779 62.967759 0
M  V30 53 H 37.245208 28.938806 55.807926 0
M  V30 54 H 38.712227 27.698751 60.273126 0
M  V30 55 H 39.720323 32.519880 64.754170 0
M  V30 56 H 40.765640 33.816312 64.281031 0
M  V30 57 H 39.641671 30.460080 63.363413 0
M  V30 58 H 40.047183 28.030171 55.056820 0
M  V30 59 H 43.312796 28.522173 68.287813 0
M  V30 60 H 44.259912 29.884098 68.867059 0
M  V30 61 H 37.094543 31.437997 56.178724 0
M  V30 62 H 39.014990 28.794035 62.147499 0
M  V30 63 H 40.672573 28.457042 61.665129 0
M  V30 64 H 42.044863 34.937902 60.967712 0
M  V30 65 H 41.436673 35.008428 62.573085 0
M  V30 66 H 39.751510 34.536107 60.066059 0
M  V30 67 H 39.825994 36.017562 60.993176 0
M  V30 68 H 38.668302 32.418448 61.237192 0
M  V30 69 H 38.144851 32.535733 62.887368 0
M  V30 70 H 39.279308 27.681835 52.847911 0
M  V30 71 H 38.938529 26.078634 54.703474 0
M  V30 72 H 43.258986 32.305335 67.882197 0
M  V30 73 H 40.840096 29.490860 52.168846 0
M  V30 74 H 39.501334 29.450442 51.043743 0
M  V30 75 H 40.015324 30.984877 51.731024 0
M  V30 76 H 38.451423 31.781221 53.703743 0
M  V30 77 H 42.203522 33.522778 66.223410 0
M  V30 78 H 43.470641 29.207113 63.881910 0
M  V30 79 H 44.281462 30.650663 64.421394 0
M  V30 80 H 38.021345 29.931856 52.565223 0
M  V30 81 H 38.472945 27.695464 57.422380 0
M  V30 END ATOM
M  V30 BEGIN BOND
M  V30 1 1 4 1
M  V30 2 1 8 1
M  V30 3 1 11 8
M  V30 4 1 12 4
M  V30 5 2 13 5
M  V30 6 1 14 5
M  V30 7 1 15 7
M  V30 8 1 15 11
M  V30 9 1 17 11
M  V30 10 1 18 9
M  V30 11 1 15 19 CFG=1
M  V30 12 1 20 12
M  V30 13 1 21 2
M  V30 14 1 22 10
M  V30 15 1 22 21
M  V30 16 1 23 2
M  V30 17 1 23 14
M  V30 18 1 23 16
M  V30 19 1 24 16
M  V30 20 1 24 20
M  V30 21 1 25 10
M  V30 22 1 25 23
M  V30 23 1 26 6
M  V30 24 1 26 17
M  V30 25 1 27 17
M  V30 26 1 29 26
M  V30 27 1 30 13
M  V30 28 1 30 16
M  V30 29 1 31 29
M  V30 30 1 32 7
M  V30 31 1 32 15
M  V30 32 1 32 29
M  V30 33 1 33 5
M  V30 34 2 33 28
M  V30 35 1 34 3
M  V30 36 1 34 13
M  V30 37 2 35 3
M  V30 38 1 35 18
M  V30 39 1 35 28
M  V30 40 1 36 1
M  V30 41 1 37 1
M  V30 42 1 38 2
M  V30 43 1 39 2
M  V30 44 1 40 3
M  V30 45 1 41 4
M  V30 46 1 42 4
M  V30 47 1 43 6
M  V30 48 1 44 6
M  V30 49 1 45 6
M  V30 50 1 46 7
M  V30 51 1 47 7
M  V30 52 1 48 8
M  V30 53 1 49 9
M  V30 54 1 50 9
M  V30 55 1 51 10
M  V30 56 1 52 10
M  V30 57 1 11 53 CFG=1
M  V30 58 1 54 12
M  V30 59 1 55 14
M  V30 60 1 56 14
M  V30 61 1 16 57 CFG=1
M  V30 62 1 17 58 CFG=3
M  V30 63 1 59 18
M  V30 64 1 60 18
M  V30 65 1 61 19
M  V30 66 1 62 20
M  V30 67 1 63 20
M  V30 68 1 64 21
M  V30 69 1 65 21
M  V30 70 1 66 22
M  V30 71 1 67 22
M  V30 72 1 68 25
M  V30 73 1 69 25
M  V30 74 1 26 70 CFG=3
M  V30 75 1 71 27
M  V30 76 1 72 28
M  V30 77 1 73 31
M  V30 78 1 74 31
M  V30 79 1 75 31
M  V30 80 1 32 76 CFG=3
M  V30 81 1 77 33
M  V30 82 1 78 34
M  V30 83 1 79 34
M  V30 84 1 29 80 CFG=3
M  V30 85 1 81 8
M  V30 END BOND
M  V30 END CTAB
M  END
>  <i_epik_Tot_Q>  (1) 
2

>  <i_epik_Tot_abs_Q>  (1) 
2

>  <i_i_glide_confnum>  (1) 
447

>  <i_i_glide_lignum>  (1) 
111

>  <i_i_glide_posenum>  (1) 
256

>  <i_i_glide_rotatable_bonds>  (1) 
10

>  <i_lp_mmshare_version>  (1) 
72125

>  <i_m_source_file_index>  (1) 
54

>  <i_f3d_flags>  (1) 
0

>  <num_sample>  (1) 
100

>  <b_lp_Chiralities_Consistent>  (1) 
1

>  <r_epik_Charging_Adjusted_Penalty>  (1) 
1.1947924258661535

>  <r_epik_Ionization_Penalty>  (1) 
1.111601378610803

>  <r_epik_Ionization_Penalty_Charging>  (1) 
0.15856543202638063

>  <r_epik_Ionization_Penalty_Neutral>  (1) 
0.95303594658442226

>  <r_epik_State_Penalty>  (1) 
1.036226993839773

>  <r_glide_ring_energy>  (1) 
0.00054242717464313866

>  <r_i_docking_score>  (1) 
-6.2173604141976995

>  <r_i_glide_ecoul>  (1) 
-4.5657344573519616

>  <r_i_glide_eff_state_penalty>  (1) 
1.036226993839773

>  <r_i_glide_einternal>  (1) 
8.2015763019925743

>  <r_i_glide_emodel>  (1) 
-57.610787621768949

>  <r_i_glide_emodel_strain>  (1) 
1.7334862795738673

>  <r_i_glide_energy>  (1) 
-43.885085904481826

>  <r_i_glide_erotb>  (1) 
0.59168961163588141

>  <r_i_glide_esite>  (1) 
0

>  <r_i_glide_evdw>  (1) 
-39.319351447129861

>  <r_i_glide_gscore>  (1) 
-7.2535874080374727

>  <r_i_glide_gscore_strain>  (1) 
0

>  <r_i_glide_hbond>  (1) 
-0.33890419094615426

>  <r_i_glide_ligand_efficiency>  (1) 
-0.17763886897707712

>  <r_i_glide_ligand_efficiency_ln>  (1) 
-1.3648485977962519

>  <r_i_glide_ligand_efficiency_sa>  (1) 
-0.5810685196909221

>  <r_i_glide_lipo>  (1) 
-4.0050523503702031

>  <r_i_glide_metal>  (1) 
-0

>  <r_i_glide_rewards>  (1) 
-0.85049273739770903

>  <r_lp_Energy>  (1) 
67.197417000000002

>  <s_epik_Chemistry_Notes>  (1) 
This compound contains an acetal/aminal-like group ( X-CH(R)-Y where X, Y are N, S, or O) that may be acid/base labile, releasing an aldehyde.

>  <s_epik_cmdline>  (1) 
J2VwaWtfcHl0aG9uJywgJy1waHQnLCAnMS4wJywgJy1waCcsICc3LjQnLCAnLXRuJywgJzgnLCAnLW1hJywgJzUwMCcsICctaW1hZScsICc8aW5maWxlLm1hZT4nLCAnLW9tYWUnLCAnPG91dGZpbGUubWFlPic=

>  <s_epik_input>  (1) 
W09IXVtDQEBdMTJbQ0BASF0oW0NIMl0xKU4oW0NIM10pW0NASF0oW0NIM10pW0NASF0oW09IXSlbQ0BIXTJbTkhdW0NIMl1bQ0gyXVtOSF1bQ0gyXU9bQ0BIXTNPQyhbQ0gyXVtDSF09QyhbQ0gyXVtOSDJdKVtDSF09W0NIXTQpPUM0W0NIMl1DMzVbQ0gyXVtDSDJdW0NIMl1bQ0gyXVtDSDJdNQ==

>  <s_glide_docking_method>  (1) 
confgen

>  <s_i_glide_gridfile>  (1) 
gpcr_5ht2c_6bqh_protein_autoprepared_prepared

>  <s_lp_Force_Field>  (1) 
S-OPLS

>  <s_lp_Variant>  (1) 
DiffSBDD_53-3

>  <s_m_source_file>  (1) 
generated_GPCR_5HT2C_ligand_DiffSBDD_2026-06-23_prepared.sdf

>  <GenAI_Model>  (1) 
DiffSBDD

>  <Protein>  (1) 
GPCR_5HT2C

$$$$
DiffSBDD_35
     RDKit          3D

  0  0  0  0  0  0  0  0  0  0999 V3000
M  V30 BEGIN CTAB
M  V30 COUNTS 52 54 0 0 1
M  V30 BEGIN ATOM
M  V30 1 N 39.000218 31.717023 61.590716 0
M  V30 2 C 38.621132 27.299957 53.012972 0
M  V30 3 C 37.402641 30.707978 60.107707 0
M  V30 4 C 38.450155 26.471077 57.809425 0
M  V30 5 N 39.717481 30.082651 59.949458 0
M  V30 6 C 37.737503 31.587803 61.139729 0
M  V30 7 C 38.839076 27.678043 54.493867 0 CFG=2
M  V30 8 O 39.244587 31.337761 53.769524 0
M  V30 9 C 39.638097 25.556396 55.720329 0
M  V30 10 C 39.576772 28.024928 52.048571 0
M  V30 11 C 39.460795 29.531155 52.231406 0
M  V30 12 C 38.441220 29.961333 59.536497 0
M  V30 13 C 39.678001 30.007555 53.684483 0 CFG=2
M  V30 14 C 39.489194 25.502527 57.246181 0
M  V30 15 C 37.956281 29.578391 56.996536 0
M  V30 16 C 38.822239 29.222685 54.693567 0 CFG=2
M  V30 17 N 39.127575 29.636064 56.093790 0 CHG=1
M  V30 18 C 39.904447 30.944293 60.967755 0
M  V30 19 C 38.171619 28.960214 58.404605 0 CFG=1
M  V30 20 C 40.041235 26.899519 55.089459 0
M  V30 21 C 39.088928 27.720697 58.439548 0
M  V30 22 C 35.975307 30.569331 59.631746 0
M  V30 23 H 38.712326 26.222531 52.893669 0
M  V30 24 H 37.595308 27.539935 52.728644 0
M  V30 25 H 37.869169 25.953513 58.567845 0
M  V30 26 H 37.716831 26.722957 57.048863 0
M  V30 27 H 36.982364 32.192240 61.621813 0
M  V30 28 H 37.947482 27.317164 55.002035 0
M  V30 29 H 39.717496 31.865154 53.139305 0
M  V30 30 H 38.758409 25.136775 55.228826 0
M  V30 31 H 40.445127 24.880516 55.498895 0
M  V30 32 H 40.612110 27.737688 52.167466 0
M  V30 33 H 39.320475 27.760240 51.020984 0
M  V30 34 H 40.124228 30.056587 51.543240 0
M  V30 35 H 38.445187 29.737744 51.926163 0
M  V30 36 H 40.727930 30.033921 53.965138 0
M  V30 37 H 39.193773 24.486120 57.509481 0
M  V30 38 H 40.454783 25.652572 57.730262 0
M  V30 39 H 37.484356 30.559931 57.040701 0
M  V30 40 H 37.245027 28.932226 56.506702 0
M  V30 41 H 37.796483 29.532530 54.474413 0
M  V30 42 H 39.876926 29.066359 56.457470 0
M  V30 43 H 40.921183 31.035237 61.321808 0
M  V30 44 H 37.202995 28.538333 58.652814 0
M  V30 45 H 40.720841 26.621373 54.284176 0
M  V30 46 H 40.637004 27.488291 55.785493 0
M  V30 47 H 39.316756 27.462423 59.475362 0
M  V30 48 H 40.054056 27.960431 57.993756 0
M  V30 49 H 35.906758 30.781953 58.569304 0
M  V30 50 H 35.299628 31.237423 60.167485 0
M  V30 51 H 35.645259 29.543621 59.767835 0
M  V30 52 H 39.428102 30.601145 56.051905 0
M  V30 END ATOM
M  V30 BEGIN BOND
M  V30 1 1 6 1
M  V30 2 2 6 3
M  V30 3 1 7 2
M  V30 4 1 10 2
M  V30 5 1 11 10
M  V30 6 1 12 3
M  V30 7 2 12 5
M  V30 8 1 13 8
M  V30 9 1 13 11
M  V30 10 1 14 4
M  V30 11 1 14 9
M  V30 12 1 16 7
M  V30 13 1 16 13
M  V30 14 1 17 15
M  V30 15 1 17 16
M  V30 16 2 18 1
M  V30 17 1 18 5
M  V30 18 1 19 12
M  V30 19 1 19 15
M  V30 20 1 20 7
M  V30 21 1 20 9
M  V30 22 1 21 4
M  V30 23 1 21 19
M  V30 24 1 22 3
M  V30 25 1 23 2
M  V30 26 1 24 2
M  V30 27 1 25 4
M  V30 28 1 26 4
M  V30 29 1 27 6
M  V30 30 1 7 28 CFG=1
M  V30 31 1 29 8
M  V30 32 1 30 9
M  V30 33 1 31 9
M  V30 34 1 32 10
M  V30 35 1 33 10
M  V30 36 1 34 11
M  V30 37 1 35 11
M  V30 38 1 13 36 CFG=1
M  V30 39 1 37 14
M  V30 40 1 38 14
M  V30 41 1 39 15
M  V30 42 1 40 15
M  V30 43 1 16 41 CFG=3
M  V30 44 1 42 17
M  V30 45 1 43 18
M  V30 46 1 19 44 CFG=1
M  V30 47 1 45 20
M  V30 48 1 46 20
M  V30 49 1 47 21
M  V30 50 1 48 21
M  V30 51 1 49 22
M  V30 52 1 50 22
M  V30 53 1 51 22
M  V30 54 1 52 17
M  V30 END BOND
M  V30 END CTAB
M  END
>  <i_epik_Tot_Q>  (1) 
1

>  <i_epik_Tot_abs_Q>  (1) 
1

>  <i_i_glide_confnum>  (1) 
2

>  <i_i_glide_lignum>  (1) 
79

>  <i_i_glide_posenum>  (1) 
20

>  <i_i_glide_rotatable_bonds>  (1) 
2

>  <i_lp_mmshare_version>  (1) 
72125

>  <i_m_source_file_index>  (1) 
36

>  <i_f3d_flags>  (1) 
0

>  <num_sample>  (1) 
100

>  <b_lp_Chiralities_Consistent>  (1) 
1

>  <r_epik_Charging_Adjusted_Penalty>  (1) 
0.039208821755369223

>  <r_epik_Ionization_Penalty>  (1) 
0.019605249659357914

>  <r_epik_Ionization_Penalty_Charging>  (1) 
0.019604410877684601

>  <r_epik_Ionization_Penalty_Neutral>  (1) 
8.3878167331114202e-07

>  <r_epik_State_Penalty>  (1) 
0.019604410877684622

>  <r_glide_ring_energy>  (1) 
0

>  <r_i_docking_score>  (1) 
-6.215614203148359

>  <r_i_glide_ecoul>  (1) 
-0.88873405458130739

>  <r_i_glide_eff_state_penalty>  (1) 
0.019604410877684622

>  <r_i_glide_einternal>  (1) 
0.30153773199500877

>  <r_i_glide_emodel>  (1) 
-29.886601784108301

>  <r_i_glide_emodel_strain>  (1) 
1.3293025944075296

>  <r_i_glide_energy>  (1) 
-24.405083453982858

>  <r_i_glide_erotb>  (1) 
0.1989582782383891

>  <r_i_glide_esite>  (1) 
0

>  <r_i_glide_evdw>  (1) 
-23.516349399401552

>  <r_i_glide_gscore>  (1) 
-6.2352186140260439

>  <r_i_glide_gscore_strain>  (1) 
0

>  <r_i_glide_hbond>  (1) 
0

>  <r_i_glide_ligand_efficiency>  (1) 
-0.28252791832492541

>  <r_i_glide_ligand_efficiency_ln>  (1) 
-1.5193228312861904

>  <r_i_glide_ligand_efficiency_sa>  (1) 
-0.7916543391546339

>  <r_i_glide_lipo>  (1) 
-3.1734499528879936

>  <r_i_glide_metal>  (1) 
-0

>  <r_i_glide_rewards>  (1) 
-1.9515993612191647

>  <r_lp_Energy>  (1) 
40.847864000000001

>  <r_lp_tautomer_probability>  (1) 
1

>  <s_epik_Chemistry_Notes>  (1) 
This compound contains an electron-poor aromatic ring that is susceptible to covalent hydrolysis at low pH, typically resulting in measured values for nitrogen ring protonation that are around two units higher than predicted values.

>  <s_epik_cmdline>  (1) 
J2VwaWtfcHl0aG9uJywgJy1waHQnLCAnMS4wJywgJy1waCcsICc3LjQnLCAnLXRuJywgJzgnLCAnLW1hJywgJzUwMCcsICctaW1hZScsICc8aW5maWxlLm1hZT4nLCAnLW9tYWUnLCAnPG91dGZpbGUubWFlPic=

>  <s_epik_input>  (1) 
W0NIM11jMVtjSF1uW2NIXW5jMVtDQEhdKFtDSDJdW0NIMl1bQ0gyXVtDSDJdW0NIMl0yKVtDSDJdW05IXVtDQEhdKFtDQEhdMjMpW0NASF0oW09IXSlbQ0gyXVtDSDJdW0NIMl0z

>  <s_glide_docking_method>  (1) 
confgen

>  <s_i_glide_gridfile>  (1) 
gpcr_5ht2c_6bqh_protein_autoprepared_prepared

>  <s_lp_Force_Field>  (1) 
S-OPLS

>  <s_lp_Variant>  (1) 
DiffSBDD_35-1

>  <s_m_source_file>  (1) 
generated_GPCR_5HT2C_ligand_DiffSBDD_2026-06-23_prepared.sdf

>  <GenAI_Model>  (1) 
DiffSBDD

>  <Protein>  (1) 
GPCR_5HT2C

$$$$
DiffSBDD_60
     RDKit          3D

  0  0  0  0  0  0  0  0  0  0999 V3000
M  V30 BEGIN CTAB
M  V30 COUNTS 34 34 0 0 1
M  V30 BEGIN ATOM
M  V30 1 C 39.528646 29.438548 51.253618 0 CFG=2
M  V30 2 C 39.520276 26.120435 57.338229 0
M  V30 3 C 40.030629 30.313110 52.391562 0
M  V30 4 C 39.030831 27.861066 54.967760 0 CFG=2
M  V30 5 S 37.341969 24.537755 56.814045 0
M  V30 6 C 39.933065 28.319629 56.131646 0
M  V30 7 C 39.530413 30.305398 53.641334 0
M  V30 8 C 38.625895 25.646262 56.180821 0 CFG=1
M  V30 9 S 38.197841 29.257175 54.151029 0
M  V30 10 O 40.045137 28.137756 51.367689 0
M  V30 11 C 37.988291 26.849476 55.469653 0
M  V30 12 C 39.968851 30.008413 49.898212 0
M  V30 13 C 40.575047 27.120208 56.849002 0
M  V30 14 C 36.779818 23.748920 55.281147 0
M  V30 15 H 38.445071 29.338172 51.293430 0
M  V30 16 H 40.012393 25.264742 57.802277 0
M  V30 17 H 38.910488 26.586208 58.113848 0
M  V30 18 H 40.845125 30.981082 52.156409 0
M  V30 19 H 39.645134 27.373012 54.211096 0
M  V30 20 H 40.721615 28.977277 55.767750 0
M  V30 21 H 39.346667 28.900937 56.844546 0
M  V30 22 H 39.937783 30.957409 54.400256 0
M  V30 23 H 39.237935 25.085119 55.472326 0
M  V30 24 H 39.605650 27.584727 50.738508 0
M  V30 25 H 37.323547 27.337757 56.179264 0
M  V30 26 H 37.371464 26.520418 54.633472 0
M  V30 27 H 39.545208 31.000422 49.738594 0
M  V30 28 H 41.054121 30.102301 49.836216 0
M  V30 29 H 39.645242 29.373541 49.073617 0
M  V30 30 H 41.245136 26.604216 56.165637 0
M  V30 31 H 41.186405 27.463394 57.683946 0
M  V30 32 H 36.057801 22.964461 55.509191 0
M  V30 33 H 36.300965 24.472806 54.623473 0
M  V30 34 H 37.620285 23.304020 54.749980 0
M  V30 END ATOM
M  V30 BEGIN BOND
M  V30 1 1 3 1
M  V30 2 1 6 4
M  V30 3 2 7 3
M  V30 4 1 8 2
M  V30 5 1 8 5
M  V30 6 1 9 4
M  V30 7 1 9 7
M  V30 8 1 10 1
M  V30 9 1 11 4
M  V30 10 1 11 8
M  V30 11 1 12 1
M  V30 12 1 13 2
M  V30 13 1 13 6
M  V30 14 1 14 5
M  V30 15 1 1 15 CFG=3
M  V30 16 1 16 2
M  V30 17 1 17 2
M  V30 18 1 18 3
M  V30 19 1 4 19 CFG=3
M  V30 20 1 20 6
M  V30 21 1 21 6
M  V30 22 1 22 7
M  V30 23 1 8 23 CFG=3
M  V30 24 1 24 10
M  V30 25 1 25 11
M  V30 26 1 26 11
M  V30 27 1 27 12
M  V30 28 1 28 12
M  V30 29 1 29 12
M  V30 30 1 30 13
M  V30 31 1 31 13
M  V30 32 1 32 14
M  V30 33 1 33 14
M  V30 34 1 34 14
M  V30 END BOND
M  V30 END CTAB
M  END
>  <i_epik_Tot_Q>  (1) 
0

>  <i_epik_Tot_abs_Q>  (1) 
0

>  <i_i_glide_confnum>  (1) 
6

>  <i_i_glide_lignum>  (1) 
133

>  <i_i_glide_posenum>  (1) 
292

>  <i_i_glide_rotatable_bonds>  (1) 
5

>  <i_lp_mmshare_version>  (1) 
72125

>  <i_m_source_file_index>  (1) 
61

>  <i_f3d_flags>  (1) 
0

>  <num_sample>  (1) 
100

>  <b_lp_Chiralities_Consistent>  (1) 
1

>  <r_epik_Charging_Adjusted_Penalty>  (1) 
0

>  <r_epik_Ionization_Penalty>  (1) 
3.7959940703639166e-07

>  <r_epik_Ionization_Penalty_Charging>  (1) 
0

>  <r_epik_Ionization_Penalty_Neutral>  (1) 
3.7959940703639166e-07

>  <r_epik_State_Penalty>  (1) 
-0

>  <r_glide_ring_energy>  (1) 
0

>  <r_i_docking_score>  (1) 
-6.21338747227278

>  <r_i_glide_ecoul>  (1) 
-1.4133805336155569

>  <r_i_glide_eff_state_penalty>  (1) 
-0

>  <r_i_glide_einternal>  (1) 
4.6638767616708048

>  <r_i_glide_emodel>  (1) 
-38.128272886340127

>  <r_i_glide_emodel_strain>  (1) 
1.3171746281536585

>  <r_i_glide_energy>  (1) 
-30.915405637745867

>  <r_i_glide_erotb>  (1) 
0.95139353164667573

>  <r_i_glide_esite>  (1) 
0

>  <r_i_glide_evdw>  (1) 
-29.502025104130311

>  <r_i_glide_gscore>  (1) 
-6.21338747227278

>  <r_i_glide_gscore_strain>  (1) 
0

>  <r_i_glide_hbond>  (1) 
0

>  <r_i_glide_ligand_efficiency>  (1) 
-0.44381339087662713

>  <r_i_glide_ligand_efficiency_ln>  (1) 
-1.7074167591994749

>  <r_i_glide_ligand_efficiency_sa>  (1) 
-1.0696534107586806

>  <r_i_glide_lipo>  (1) 
-3.2769731088979999

>  <r_i_glide_metal>  (1) 
-0

>  <r_i_glide_rewards>  (1) 
-2.2006995597726053

>  <r_lp_Energy>  (1) 
9.9139400000000002

>  <r_lp_tautomer_probability>  (1) 
1

>  <s_epik_cmdline>  (1) 
J2VwaWtfcHl0aG9uJywgJy1waHQnLCAnMS4wJywgJy1waCcsICc3LjQnLCAnLXRuJywgJzgnLCAnLW1hJywgJzUwMCcsICctaW1hZScsICc8aW5maWxlLm1hZT4nLCAnLW9tYWUnLCAnPG91dGZpbGUubWFlPic=

>  <s_epik_input>  (1) 
W09IXVtDQEhdKFtDSDNdKS9bQ0hdPVtDSF1cU1tDQEhdMVtDSDJdW0NIMl1bQ0gyXVtDQEhdKFtDSDJdMSlTW0NIM10=

>  <s_glide_docking_method>  (1) 
confgen

>  <s_i_glide_gridfile>  (1) 
gpcr_5ht2c_6bqh_protein_autoprepared_prepared

>  <s_lp_Force_Field>  (1) 
S-OPLS

>  <s_lp_Variant>  (1) 
DiffSBDD_60-2

>  <s_m_source_file>  (1) 
generated_GPCR_5HT2C_ligand_DiffSBDD_2026-06-23_prepared.sdf

>  <GenAI_Model>  (1) 
DiffSBDD

>  <Protein>  (1) 
GPCR_5HT2C

$$$$
DiffSBDD_83
     RDKit          3D

  0  0  0  0  0  0  0  0  0  0999 V3000
M  V30 BEGIN CTAB
M  V30 COUNTS 54 55 0 0 1
M  V30 BEGIN ATOM
M  V30 1 C 41.327729 30.468393 65.684465 0
M  V30 2 C 38.161943 30.135452 58.451375 0
M  V30 3 N 37.168173 30.937919 58.932199 0
M  V30 4 O 38.095767 25.875438 54.559869 0
M  V30 5 O 40.706959 29.706457 66.633962 0
M  V30 6 C 40.903870 31.385552 63.386993 0
M  V30 7 C 42.242489 32.114019 63.341701 0
M  V30 8 C 38.408418 24.856846 56.500077 0
M  V30 9 C 38.730385 31.271219 54.068154 0
M  V30 10 C 40.489284 30.642474 64.449086 0
M  V30 11 C 38.260234 29.762185 57.015195 0
M  V30 12 C 38.846975 30.578585 62.018232 0
M  V30 13 N 37.263313 31.187945 60.250295 0
M  V30 14 O 39.245146 29.737747 66.652931 0
M  V30 15 C 39.180754 27.911027 55.452815 0 CFG=1
M  V30 16 C 37.245001 28.660905 53.865778 0
M  V30 17 C 37.685525 24.974032 55.443180 0
M  V30 18 O 42.456414 30.933654 65.833596 0
M  V30 19 C 39.278374 26.363527 55.248105 0 CFG=1
M  V30 20 C 38.962262 29.828164 59.504780 0
M  V30 21 O 39.466410 25.678899 56.523121 0
M  V30 22 C 39.464174 29.943803 53.773795 0
M  V30 23 C 38.763804 28.589723 54.101190 0 CFG=1
M  V30 24 C 38.366531 30.521267 60.605327 0
M  V30 25 Cl 38.045202 23.750689 57.767759 0
M  V30 26 C 40.043209 31.546301 62.139587 0
M  V30 27 C 38.348304 28.256788 56.719176 0
M  V30 28 H 36.416426 31.337754 58.363495 0
M  V30 29 H 42.346798 32.678525 62.414764 0
M  V30 30 H 42.336381 32.829438 64.159285 0
M  V30 31 H 43.068507 31.402697 63.380380 0
M  V30 32 H 39.204952 32.077761 53.514519 0
M  V30 33 H 37.685668 31.267403 53.767845 0
M  V30 34 H 38.768585 31.573968 55.109358 0
M  V30 35 H 39.531663 30.156036 64.414081 0
M  V30 36 H 37.443824 30.218945 56.456581 0
M  V30 37 H 39.185924 30.215131 56.667557 0
M  V30 38 H 39.151544 29.570385 62.300182 0
M  V30 39 H 38.045139 30.866498 62.697479 0
M  V30 40 H 39.036451 29.046791 66.036289 0
M  V30 41 H 40.204298 28.215081 55.674823 0
M  V30 42 H 36.769475 29.385310 54.522245 0
M  V30 43 H 37.030652 28.937685 52.835009 0
M  V30 44 H 36.742874 27.712392 54.034983 0
M  V30 45 H 36.785571 24.441344 55.172884 0
M  V30 46 H 40.136210 26.117148 54.618327 0
M  V30 47 H 39.853238 29.218126 59.494711 0
M  V30 48 H 40.445094 29.987840 54.241394 0
M  V30 49 H 39.662765 29.941350 52.700722 0
M  V30 50 H 39.141173 27.921691 53.324732 0
M  V30 51 H 39.707194 32.580117 62.054154 0
M  V30 52 H 40.707242 31.369657 61.291925 0
M  V30 53 H 38.845739 27.788841 57.568441 0
M  V30 54 H 37.358790 27.807930 56.696865 0
M  V30 END ATOM
M  V30 BEGIN BOND
M  V30 1 1 3 2
M  V30 2 1 5 1
M  V30 3 1 7 6
M  V30 4 1 10 1
M  V30 5 2 10 6
M  V30 6 1 11 2
M  V30 7 1 13 3
M  V30 8 1 14 5
M  V30 9 1 17 4
M  V30 10 2 17 8
M  V30 11 2 18 1
M  V30 12 1 19 4
M  V30 13 1 19 15
M  V30 14 2 20 2
M  V30 15 1 21 8
M  V30 16 1 21 19
M  V30 17 1 22 9
M  V30 18 1 23 15
M  V30 19 1 23 16
M  V30 20 1 23 22
M  V30 21 1 24 12
M  V30 22 2 24 13
M  V30 23 1 24 20
M  V30 24 1 25 8
M  V30 25 1 26 6
M  V30 26 1 26 12
M  V30 27 1 27 11
M  V30 28 1 27 15
M  V30 29 1 28 3
M  V30 30 1 29 7
M  V30 31 1 30 7
M  V30 32 1 31 7
M  V30 33 1 32 9
M  V30 34 1 33 9
M  V30 35 1 34 9
M  V30 36 1 35 10
M  V30 37 1 36 11
M  V30 38 1 37 11
M  V30 39 1 38 12
M  V30 40 1 39 12
M  V30 41 1 40 14
M  V30 42 1 15 41 CFG=1
M  V30 43 1 42 16
M  V30 44 1 43 16
M  V30 45 1 44 16
M  V30 46 1 45 17
M  V30 47 1 19 46 CFG=3
M  V30 48 1 47 20
M  V30 49 1 48 22
M  V30 50 1 49 22
M  V30 51 1 23 50 CFG=3
M  V30 52 1 51 26
M  V30 53 1 52 26
M  V30 54 1 53 27
M  V30 55 1 54 27
M  V30 END BOND
M  V30 END CTAB
M  END
>  <i_epik_Tot_Q>  (1) 
0

>  <i_epik_Tot_abs_Q>  (1) 
0

>  <i_i_glide_confnum>  (1) 
1541

>  <i_i_glide_lignum>  (1) 
191

>  <i_i_glide_posenum>  (1) 
301

>  <i_i_glide_rotatable_bonds>  (1) 
12

>  <i_lp_mmshare_version>  (1) 
72125

>  <i_m_source_file_index>  (1) 
84

>  <i_f3d_flags>  (1) 
0

>  <num_sample>  (1) 
100

>  <b_lp_Chiralities_Consistent>  (1) 
1

>  <r_epik_Charging_Adjusted_Penalty>  (1) 
0.41067983895260396

>  <r_epik_Ionization_Penalty>  (1) 
0.00076996626271645392

>  <r_epik_Ionization_Penalty_Charging>  (1) 
0

>  <r_epik_Ionization_Penalty_Neutral>  (1) 
0.00076996626271645392

>  <r_epik_State_Penalty>  (1) 
0.41067983895260396

>  <r_glide_ring_energy>  (1) 
0

>  <r_i_docking_score>  (1) 
-6.2124340747142854

>  <r_i_glide_ecoul>  (1) 
-7.1828528459403262

>  <r_i_glide_eff_state_penalty>  (1) 
0.41067983895260396

>  <r_i_glide_einternal>  (1) 
12.233761826620436

>  <r_i_glide_emodel>  (1) 
-55.547149508375171

>  <r_i_glide_emodel_strain>  (1) 
1.2692569107353506

>  <r_i_glide_energy>  (1) 
-44.264268090066402

>  <r_i_glide_erotb>  (1) 
1.1080255732668134

>  <r_i_glide_esite>  (1) 
-0.099594103867768832

>  <r_i_glide_evdw>  (1) 
-37.081415244126077

>  <r_i_glide_gscore>  (1) 
-6.6231139136668897

>  <r_i_glide_gscore_strain>  (1) 
0

>  <r_i_glide_hbond>  (1) 
-0.45599999999999996

>  <r_i_glide_ligand_efficiency>  (1) 
-0.23009015091534391

>  <r_i_glide_ligand_efficiency_ln>  (1) 
-1.4461522326132077

>  <r_i_glide_ligand_efficiency_sa>  (1) 
-0.69027045274603183

>  <r_i_glide_lipo>  (1) 
-2.7126416145053374

>  <r_i_glide_metal>  (1) 
-0

>  <r_i_glide_rewards>  (1) 
-1.5314050794632448

>  <r_lp_Energy>  (1) 
13.026332

>  <r_lp_tautomer_probability>  (1) 
0.5

>  <s_epik_Chemistry_Notes>  (1) 
This compound contains an acetal/aminal-like group ( X-CH(R)-Y where X, Y are N, S, or O) that may be acid/base labile, releasing an aldehyde.

>  <s_epik_cmdline>  (1) 
J2VwaWtfcHl0aG9uJywgJy1waHQnLCAnMS4wJywgJy1waCcsICc3LjQnLCAnLXRuJywgJzgnLCAnLW1hJywgJzUwMCcsICctaW1hZScsICc8aW5maWxlLm1hZT4nLCAnLW9tYWUnLCAnPG91dGZpbGUubWFlPic=

>  <s_epik_input>  (1) 
W09IXU9DKD1PKS9bQ0hdPUMoXFtDSDNdKVtDSDJdW0NIMl1jKFtjSF0xKW5bbkhdYzFbQ0gyXVtDSDJdW0NASF0oW0NAQEhdKFtDSDNdKVtDSDJdW0NIM10pW0NAQEhdKE8yKU9bQ0hdPUMyQ2w=

>  <s_glide_docking_method>  (1) 
confgen

>  <s_i_glide_gridfile>  (1) 
gpcr_5ht2c_6bqh_protein_autoprepared_prepared

>  <s_lp_Force_Field>  (1) 
S-OPLS

>  <s_lp_Variant>  (1) 
DiffSBDD_83-2

>  <s_m_source_file>  (1) 
generated_GPCR_5HT2C_ligand_DiffSBDD_2026-06-23_prepared.sdf

>  <GenAI_Model>  (1) 
DiffSBDD

>  <Protein>  (1) 
GPCR_5HT2C

$$$$
DiffSBDD_16
     RDKit          3D

  0  0  0  0  0  0  0  0  0  0999 V3000
M  V30 BEGIN CTAB
M  V30 COUNTS 69 73 0 0 1
M  V30 BEGIN ATOM
M  V30 1 C 40.345920 31.198491 61.790336 0
M  V30 2 C 38.194958 28.302657 53.233202 0
M  V30 3 C 38.418139 32.534023 58.060239 0 CFG=1
M  V30 4 C 38.039785 33.259953 56.742154 0
M  V30 5 C 41.449062 29.384852 63.014005 0
M  V30 6 C 40.712056 28.439022 62.288376 0
M  V30 7 C 38.080907 35.706137 60.545282 0
M  V30 8 C 36.984969 35.706383 61.602974 0
M  V30 9 C 37.356955 32.846435 59.127859 0
M  V30 10 C 39.807845 28.857907 61.303017 0
M  V30 11 O 40.337424 35.435766 61.229557 0
M  V30 12 C 38.395515 30.396944 54.445228 0
M  V30 13 C 38.746997 31.173069 55.509384 0
M  V30 14 C 39.293887 30.654601 56.812270 0
M  V30 15 C 38.459528 28.917480 54.358955 0
M  V30 16 C 41.270922 30.757924 62.763444 0
M  V30 17 N 38.297213 26.937756 53.258185 0
M  V30 18 C 38.212091 25.432608 56.513633 0
M  V30 19 N 38.445118 31.077267 57.906272 0
M  V30 20 C 38.045123 26.693595 57.295579 0
M  V30 21 C 42.436055 28.926486 64.067504 0
M  V30 22 C 36.006016 34.537733 61.455723 0
M  V30 23 C 35.381399 32.130463 61.369875 0
M  V30 24 C 36.567814 33.111406 61.559928 0 CFG=1
M  V30 25 C 40.195156 32.676975 61.581153 0
M  V30 26 C 37.754346 32.763260 60.626143 0 CFG=2
M  V30 27 C 39.278773 34.862345 60.967696 0
M  V30 28 C 38.842513 27.987005 55.463816 0 CFG=2
M  V30 29 C 39.128223 33.369992 61.059239 0
M  V30 30 C 38.506635 26.771430 54.521494 0
M  V30 31 N 38.131455 27.862121 56.757591 0
M  V30 32 C 39.623431 30.226829 61.048442 0
M  V30 33 C 38.638666 32.682726 55.452923 0
M  V30 34 C 38.405108 25.476295 55.183001 0
M  V30 35 H 37.910627 28.787600 52.310275 0
M  V30 36 H 39.396983 32.893210 58.376342 0
M  V30 37 H 36.964070 33.295491 56.650112 0
M  V30 38 H 38.310951 34.309914 56.814483 0
M  V30 39 H 40.845142 27.387302 62.483506 0
M  V30 40 H 38.445130 36.729955 60.466722 0
M  V30 41 H 37.718440 35.479784 59.549638 0
M  V30 42 H 37.423362 35.737758 62.597432 0
M  V30 43 H 36.445136 36.647276 61.514242 0
M  V30 44 H 36.918882 33.813207 58.908737 0
M  V30 45 H 36.515498 32.173289 58.962607 0
M  V30 46 H 39.254667 28.126204 60.733365 0
M  V30 47 H 38.040865 30.915147 53.571046 0
M  V30 48 H 39.641067 29.643973 56.906330 0
M  V30 49 H 40.203470 31.213121 56.919717 0
M  V30 50 H 41.838023 31.482719 63.329854 0
M  V30 51 H 38.118747 24.502878 57.055602 0
M  V30 52 H 38.741359 30.634588 58.759382 0
M  V30 53 H 37.823023 26.560420 58.356531 0
M  V30 54 H 43.097494 29.736219 64.375751 0
M  V30 55 H 41.905017 28.561668 64.946665 0
M  V30 56 H 43.054970 28.116856 63.678290 0
M  V30 57 H 35.245229 34.633040 62.231367 0
M  V30 58 H 35.481537 34.640658 60.504840 0
M  V30 59 H 34.850452 32.307403 60.433646 0
M  V30 60 H 35.693699 31.086279 61.367818 0
M  V30 61 H 34.648879 32.249053 62.167755 0
M  V30 62 H 36.936253 32.937757 62.567755 0
M  V30 63 H 41.049788 33.255853 61.901100 0
M  V30 64 H 37.739629 31.736470 60.899053 0
M  V30 65 H 39.924248 28.011467 55.608729 0
M  V30 66 H 38.960668 30.511250 60.272249 0
M  V30 67 H 39.645121 33.075809 55.362897 0
M  V30 68 H 38.071075 33.014131 54.582345 0
M  V30 69 H 38.468877 24.591779 54.567763 0
M  V30 END ATOM
M  V30 BEGIN BOND
M  V30 1 1 4 3
M  V30 2 1 6 5
M  V30 3 1 8 7
M  V30 4 1 9 3
M  V30 5 2 10 6
M  V30 6 2 13 12
M  V30 7 1 14 13
M  V30 8 2 15 2
M  V30 9 1 15 12
M  V30 10 1 16 1
M  V30 11 2 16 5
M  V30 12 1 17 2
M  V30 13 1 19 3
M  V30 14 1 19 14
M  V30 15 1 20 18
M  V30 16 1 21 5
M  V30 17 1 22 8
M  V30 18 1 24 22
M  V30 19 1 24 23
M  V30 20 1 25 1
M  V30 21 1 26 9
M  V30 22 1 26 24
M  V30 23 1 27 7
M  V30 24 2 27 11
M  V30 25 1 28 15
M  V30 26 2 29 25
M  V30 27 1 29 26
M  V30 28 1 29 27
M  V30 29 2 30 17
M  V30 30 1 30 28
M  V30 31 2 31 20
M  V30 32 1 31 28
M  V30 33 2 32 1
M  V30 34 1 32 10
M  V30 35 1 33 4
M  V30 36 1 33 13
M  V30 37 2 34 18
M  V30 38 1 34 30
M  V30 39 1 35 2
M  V30 40 1 3 36 CFG=1
M  V30 41 1 37 4
M  V30 42 1 38 4
M  V30 43 1 39 6
M  V30 44 1 40 7
M  V30 45 1 41 7
M  V30 46 1 42 8
M  V30 47 1 43 8
M  V30 48 1 44 9
M  V30 49 1 45 9
M  V30 50 1 46 10
M  V30 51 1 47 12
M  V30 52 1 48 14
M  V30 53 1 49 14
M  V30 54 1 50 16
M  V30 55 1 51 18
M  V30 56 1 52 19
M  V30 57 1 53 20
M  V30 58 1 54 21
M  V30 59 1 55 21
M  V30 60 1 56 21
M  V30 61 1 57 22
M  V30 62 1 58 22
M  V30 63 1 59 23
M  V30 64 1 60 23
M  V30 65 1 61 23
M  V30 66 1 24 62 CFG=1
M  V30 67 1 63 25
M  V30 68 1 26 64 CFG=1
M  V30 69 1 28 65 CFG=1
M  V30 70 1 66 32
M  V30 71 1 67 33
M  V30 72 1 68 33
M  V30 73 1 69 34
M  V30 END BOND
M  V30 END CTAB
M  END
>  <i_epik_Tot_Q>  (1) 
0

>  <i_epik_Tot_abs_Q>  (1) 
0

>  <i_i_glide_confnum>  (1) 
16

>  <i_i_glide_lignum>  (1) 
39

>  <i_i_glide_posenum>  (1) 
181

>  <i_i_glide_rotatable_bonds>  (1) 
4

>  <i_lp_mmshare_version>  (1) 
72125

>  <i_m_source_file_index>  (1) 
17

>  <i_f3d_flags>  (1) 
0

>  <num_sample>  (1) 
100

>  <b_lp_Chiralities_Consistent>  (1) 
1

>  <r_epik_Charging_Adjusted_Penalty>  (1) 
0.56391873878667209

>  <r_epik_Ionization_Penalty>  (1) 
0.56391873878667209

>  <r_epik_Ionization_Penalty_Charging>  (1) 
0

>  <r_epik_Ionization_Penalty_Neutral>  (1) 
0.56391873878667209

>  <r_epik_State_Penalty>  (1) 
0.56391873878667209

>  <r_glide_ring_energy>  (1) 
0

>  <r_i_docking_score>  (1) 
-6.2120293910760545

>  <r_i_glide_ecoul>  (1) 
1.6872728623715374

>  <r_i_glide_eff_state_penalty>  (1) 
0.56391873878667209

>  <r_i_glide_einternal>  (1) 
13.332813016410345

>  <r_i_glide_emodel>  (1) 
-46.340792660435483

>  <r_i_glide_emodel_strain>  (1) 
0.4576973340536199

>  <r_i_glide_energy>  (1) 
-39.653482052111727

>  <r_i_glide_erotb>  (1) 
0.29265828080580603

>  <r_i_glide_esite>  (1) 
0

>  <r_i_glide_evdw>  (1) 
-41.340754914483263

>  <r_i_glide_gscore>  (1) 
-6.7759481298627264

>  <r_i_glide_gscore_strain>  (1) 
0

>  <r_i_glide_hbond>  (1) 
0

>  <r_i_glide_ligand_efficiency>  (1) 
-0.18270674679635454

>  <r_i_glide_ligand_efficiency_ln>  (1) 
-1.3724115340111664

>  <r_i_glide_ligand_efficiency_sa>  (1) 
-0.59189893309448727

>  <r_i_glide_lipo>  (1) 
-3.1812165988422549

>  <r_i_glide_metal>  (1) 
-0

>  <r_i_glide_rewards>  (1) 
-2.0734429954578455

>  <r_lp_Energy>  (1) 
57.867013

>  <s_epik_Chemistry_Notes>  (1) 
This compound has an imine and may undergo hydrolysis.

>  <s_epik_cmdline>  (1) 
J2VwaWtfcHl0aG9uJywgJy1waHQnLCAnMS4wJywgJy1waCcsICc3LjQnLCAnLXRuJywgJzgnLCAnLW1hJywgJzUwMCcsICctaW1hZScsICc8aW5maWxlLm1hZT4nLCAnLW9tYWUnLCAnPG91dGZpbGUubWFlPic=

>  <s_epik_input>  (1) 
W2NIXTFbY0hdW2NIXWMoW0NIM10pW2NIXWMxL1tDSF09QyhDKD1PKVtDSDJdW0NIMl1bQ0gyXVtDQEhdMltDSDNdKVxbQ0BASF0yW0NIMl1bQ0BASF0zW0NIMl1bQ0gyXUMoXFtDSDJdW05IXTMpPVtDSF1cQzQ9W0NIXU49QyhbQ0BASF00NSlbQ0hdPVtDSF1bQ0hdPU41

>  <s_glide_docking_method>  (1) 
confgen

>  <s_i_glide_gridfile>  (1) 
gpcr_5ht2c_6bqh_protein_autoprepared_prepared

>  <s_lp_Force_Field>  (1) 
S-OPLS

>  <s_lp_Variant>  (1) 
DiffSBDD_16-7

>  <s_m_source_file>  (1) 
generated_GPCR_5HT2C_ligand_DiffSBDD_2026-06-23_prepared.sdf

>  <GenAI_Model>  (1) 
DiffSBDD

>  <Protein>  (1) 
GPCR_5HT2C

$$$$
DiffSBDD_62
     RDKit          3D

  0  0  0  0  0  0  0  0  0  0999 V3000
M  V30 BEGIN CTAB
M  V30 COUNTS 80 84 0 0 1
M  V30 BEGIN ATOM
M  V30 1 C 39.596164 34.151908 61.999644 0
M  V30 2 C 40.267415 29.793635 50.849361 0
M  V30 3 C 39.180915 29.302967 57.738923 0
M  V30 4 C 40.401990 32.037802 63.266039 0
M  V30 5 C 40.201058 37.393219 66.567966 0
M  V30 6 C 39.497863 27.311836 50.568771 0
M  V30 7 C 37.679160 29.448998 57.422880 0 CFG=2
M  V30 8 C 39.155363 28.722788 52.555922 0
M  V30 9 C 37.872230 28.219324 54.453261 0
M  V30 10 O 39.167137 36.537595 63.859559 0
M  V30 11 C 40.596790 36.171687 65.755632 0
M  V30 12 C 38.900401 31.801463 54.546888 0
M  V30 13 C 39.316948 32.693796 62.428309 0
M  V30 14 C 40.250654 36.137518 64.295253 0
M  V30 15 C 38.749595 30.399894 54.146484 0
M  V30 16 N 39.365309 29.944642 53.017045 0
M  V30 17 C 39.446195 28.521777 59.031085 0
M  V30 18 O 37.245136 32.470500 58.567723 0
M  V30 19 C 39.469101 36.099627 66.769998 0
M  V30 20 N 41.202659 36.034738 62.131522 0
M  V30 21 N 40.045194 30.819133 52.059978 0
M  V30 22 N 38.248277 32.065461 62.115900 0
M  V30 23 C 37.159752 32.676126 61.374894 0
M  V30 24 C 39.607615 28.552146 51.393963 0
M  V30 25 C 38.036159 29.624955 54.871480 0
M  V30 26 C 38.031773 31.644205 55.873779 0
M  V30 27 N 41.212084 35.593449 63.513739 0
M  V30 28 C 37.375563 31.290786 59.308460 0 CFG=2
M  V30 29 C 40.988303 34.685965 62.373420 0 CFG=1
M  V30 30 C 41.794909 27.686753 58.609792 0
M  V30 31 C 40.905333 28.587109 59.487156 0
M  V30 32 C 37.393328 30.164648 56.077691 0 CFG=2
M  V30 33 C 40.960050 28.267582 60.991190 0
M  V30 34 C 36.832112 30.025329 58.592315 0
M  V30 35 N 36.556098 31.661546 60.477049 0 CHG=1
M  V30 36 N 38.429146 27.783343 53.370812 0
M  V30 37 H 39.552777 34.185497 60.910340 0
M  V30 38 H 38.786785 34.788755 62.339303 0
M  V30 39 H 41.330721 29.647641 50.668561 0
M  V30 40 H 39.779701 30.154902 49.942535 0
M  V30 41 H 39.684005 28.800424 56.912225 0
M  V30 42 H 39.644845 30.284495 57.806687 0
M  V30 43 H 41.294765 31.854653 62.669119 0
M  V30 44 H 40.659034 32.658412 64.125319 0
M  V30 45 H 40.055999 31.076596 63.648517 0
M  V30 46 H 40.896403 37.721011 67.337997 0
M  V30 47 H 39.664648 38.194111 66.061560 0
M  V30 48 H 38.845146 27.552588 49.753609 0
M  V30 49 H 40.445175 26.986696 50.167806 0
M  V30 50 H 39.048200 26.502327 51.133416 0
M  V30 51 H 37.308525 28.430328 57.300793 0
M  V30 52 H 37.256950 27.586522 55.097631 0
M  V30 53 H 41.540176 35.703982 66.031368 0
M  V30 54 H 39.937364 32.061380 54.754731 0
M  V30 55 H 38.445109 32.485571 53.829668 0
M  V30 56 H 38.841777 28.924380 59.839968 0
M  V30 57 H 39.124249 27.486504 58.915324 0
M  V30 58 H 38.440471 36.096902 66.425724 0
M  V30 59 H 39.656988 35.537467 67.682476 0
M  V30 60 H 40.405843 36.610588 61.892873 0
M  V30 61 H 39.404890 31.562154 51.785107 0
M  V30 62 H 37.439182 33.560338 60.802584 0
M  V30 63 H 36.393493 33.003816 62.075720 0
M  V30 64 H 37.245770 32.398154 55.862207 0
M  V30 65 H 38.698395 31.901647 56.691541 0
M  V30 66 H 38.414923 31.162979 59.608869 0
M  V30 67 H 41.815839 34.037615 62.095023 0
M  V30 68 H 41.413016 26.668021 58.565321 0
M  V30 69 H 41.833738 28.056821 57.585381 0
M  V30 70 H 42.822372 27.641628 58.967610 0
M  V30 71 H 41.264534 29.609663 59.373635 0
M  V30 72 H 36.325288 30.137779 55.863382 0
M  V30 73 H 40.445125 27.337764 61.214272 0
M  V30 74 H 41.970632 28.187925 61.379742 0
M  V30 75 H 40.461896 29.047764 61.569245 0
M  V30 76 H 36.749697 29.248643 59.349019 0
M  V30 77 H 35.799613 30.138132 58.262034 0
M  V30 78 H 35.685867 32.024516 60.113722 0
M  V30 79 H 36.371120 30.823081 61.002125 0
M  V30 80 H 36.633216 32.291138 57.845376 0
M  V30 END ATOM
M  V30 BEGIN BOND
M  V30 1 1 7 3
M  V30 2 1 11 5
M  V30 3 1 13 1
M  V30 4 1 13 4
M  V30 5 2 14 10
M  V30 6 1 14 11
M  V30 7 1 15 12
M  V30 8 1 16 8
M  V30 9 1 16 15
M  V30 10 1 17 3
M  V30 11 1 19 5
M  V30 12 1 19 11
M  V30 13 1 21 2
M  V30 14 1 21 16
M  V30 15 2 22 13
M  V30 16 1 23 22
M  V30 17 1 24 2
M  V30 18 1 24 6
M  V30 19 2 24 8
M  V30 20 1 25 9
M  V30 21 2 25 15
M  V30 22 1 26 12
M  V30 23 1 27 14
M  V30 24 1 27 20
M  V30 25 1 28 18
M  V30 26 1 29 1
M  V30 27 1 29 20
M  V30 28 1 29 27
M  V30 29 1 31 17
M  V30 30 1 31 30
M  V30 31 1 32 7
M  V30 32 1 32 25
M  V30 33 1 32 26
M  V30 34 1 33 31
M  V30 35 1 34 7
M  V30 36 1 34 28
M  V30 37 1 35 23
M  V30 38 1 35 28
M  V30 39 1 36 8
M  V30 40 2 36 9
M  V30 41 1 37 1
M  V30 42 1 38 1
M  V30 43 1 39 2
M  V30 44 1 40 2
M  V30 45 1 41 3
M  V30 46 1 42 3
M  V30 47 1 43 4
M  V30 48 1 44 4
M  V30 49 1 45 4
M  V30 50 1 46 5
M  V30 51 1 47 5
M  V30 52 1 48 6
M  V30 53 1 49 6
M  V30 54 1 50 6
M  V30 55 1 7 51 CFG=3
M  V30 56 1 52 9
M  V30 57 1 53 11
M  V30 58 1 54 12
M  V30 59 1 55 12
M  V30 60 1 56 17
M  V30 61 1 57 17
M  V30 62 1 58 19
M  V30 63 1 59 19
M  V30 64 1 60 20
M  V30 65 1 61 21
M  V30 66 1 62 23
M  V30 67 1 63 23
M  V30 68 1 64 26
M  V30 69 1 65 26
M  V30 70 1 28 66 CFG=1
M  V30 71 1 29 67 CFG=3
M  V30 72 1 68 30
M  V30 73 1 69 30
M  V30 74 1 70 30
M  V30 75 1 71 31
M  V30 76 1 32 72 CFG=3
M  V30 77 1 73 33
M  V30 78 1 74 33
M  V30 79 1 75 33
M  V30 80 1 76 34
M  V30 81 1 77 34
M  V30 82 1 78 35
M  V30 83 1 79 35
M  V30 84 1 80 18
M  V30 END BOND
M  V30 END CTAB
M  END
>  <i_epik_Tot_Q>  (1) 
1

>  <i_epik_Tot_abs_Q>  (1) 
1

>  <i_i_glide_confnum>  (1) 
984

>  <i_i_glide_lignum>  (1) 
137

>  <i_i_glide_posenum>  (1) 
111

>  <i_i_glide_rotatable_bonds>  (1) 
14

>  <i_lp_mmshare_version>  (1) 
72125

>  <i_m_source_file_index>  (1) 
63

>  <i_f3d_flags>  (1) 
0

>  <num_sample>  (1) 
100

>  <b_lp_Chiralities_Consistent>  (1) 
1

>  <r_epik_Charging_Adjusted_Penalty>  (1) 
1.9108014557952604

>  <r_epik_Ionization_Penalty>  (1) 
0.8812751426241725

>  <r_epik_Ionization_Penalty_Charging>  (1) 
0.72483633588800112

>  <r_epik_Ionization_Penalty_Neutral>  (1) 
0.15643880673617139

>  <r_epik_State_Penalty>  (1) 
1.1859651199072592

>  <r_glide_ring_energy>  (1) 
0

>  <r_i_docking_score>  (1) 
-6.207186345011154

>  <r_i_glide_ecoul>  (1) 
-4.325247520176176

>  <r_i_glide_eff_state_penalty>  (1) 
1.1859651199072592

>  <r_i_glide_einternal>  (1) 
8.503534582865484

>  <r_i_glide_emodel>  (1) 
-72.659207894398008

>  <r_i_glide_emodel_strain>  (1) 
0.84342564256854757

>  <r_i_glide_energy>  (1) 
-53.593044015289934

>  <r_i_glide_erotb>  (1) 
0.98469743448682379

>  <r_i_glide_esite>  (1) 
-0.15495940943761899

>  <r_i_glide_evdw>  (1) 
-49.267796495113757

>  <r_i_glide_gscore>  (1) 
-7.3931514649184136

>  <r_i_glide_gscore_strain>  (1) 
0

>  <r_i_glide_hbond>  (1) 
-0.16

>  <r_i_glide_ligand_efficiency>  (1) 
-0.17242184291697649

>  <r_i_glide_ligand_efficiency_ln>  (1) 
-1.3542403616863754

>  <r_i_glide_ligand_efficiency_sa>  (1) 
-0.56932438143219377

>  <r_i_glide_lipo>  (1) 
-3.13597381855738

>  <r_i_glide_metal>  (1) 
-0

>  <r_i_glide_rewards>  (1) 
-1.8147387186281243

>  <r_lp_Energy>  (1) 
37.126494999999998

>  <r_lp_tautomer_probability>  (1) 
0.49999399997599986

>  <s_epik_Chemistry_Notes>  (1) 
This compound has an imine and may undergo hydrolysis. This compound contains an acetal/aminal-like group ( X-CH(R)-Y where X, Y are N, S, or O) that may be acid/base labile, releasing an aldehyde.

>  <s_epik_cmdline>  (1) 
J2VwaWtfcHl0aG9uJywgJy1waHQnLCAnMS4wJywgJy1waCcsICc3LjQnLCAnLXRuJywgJzgnLCAnLW1hJywgJzUwMCcsICctaW1hZScsICc8aW5maWxlLm1hZT4nLCAnLW9tYWUnLCAnPG91dGZpbGUubWFlPic=

>  <s_epik_input>  (1) 
W0NIMl0xW0NIMl1bQ0hdMUMoPU8pTjJbTkhdW0NAQEhdMltDSDJdL0MoW0NIM10pPU5cW0NIMl1bTkhdW0NASF0oW09IXSlbQ0gyXVtDQEhdKFtDSDJdW0NIMl1bQ0hdKFtDSDNdKVtDSDNdKVtDQEBIXShbQ0gyXVtDSDJdMylDKFtDSF09TjQpPUMzTihDND01KVtOSF1bQ0gyXUM1W0NIM10=

>  <s_glide_docking_method>  (1) 
confgen

>  <s_i_glide_gridfile>  (1) 
gpcr_5ht2c_6bqh_protein_autoprepared_prepared

>  <s_lp_Force_Field>  (1) 
S-OPLS

>  <s_lp_Variant>  (1) 
DiffSBDD_62-3

>  <s_m_source_file>  (1) 
generated_GPCR_5HT2C_ligand_DiffSBDD_2026-06-23_prepared.sdf

>  <GenAI_Model>  (1) 
DiffSBDD

>  <Protein>  (1) 
GPCR_5HT2C

$$$$
DiffSBDD_75
     RDKit          3D

  0  0  0  0  0  0  0  0  0  0999 V3000
M  V30 BEGIN CTAB
M  V30 COUNTS 77 78 0 0 1
M  V30 BEGIN ATOM
M  V30 1 C 38.547025 33.506521 61.946258 0
M  V30 2 C 35.722302 33.881308 59.624718 0
M  V30 3 O 37.645138 31.774953 57.856998 0
M  V30 4 C 40.703544 35.034425 63.539227 0
M  V30 5 C 38.882001 30.420279 55.737241 0 CFG=1
M  V30 6 C 41.758628 30.392372 65.497690 0
M  V30 7 C 38.036835 30.462284 58.207747 0 CFG=2
M  V30 8 C 42.967413 30.938276 65.980935 0
M  V30 9 O 36.845350 29.953937 54.567778 0
M  V30 10 C 39.539787 28.466594 57.253647 0 CFG=2
M  V30 11 O 42.629609 30.256670 69.587192 0
M  V30 12 S 37.269940 31.288232 60.835191 0
M  V30 13 C 42.068808 35.342833 64.171362 0
M  V30 14 C 42.347490 30.300251 68.252482 0
M  V30 15 C 38.488471 30.563784 59.688461 0
M  V30 16 C 41.439436 30.452167 64.018537 0
M  V30 17 C 40.845905 29.800609 66.394301 0
M  V30 18 O 38.825302 26.227224 56.613281 0
M  V30 19 C 40.026715 27.931350 58.610511 0
M  V30 20 C 39.161358 29.990474 57.212618 0 CFG=1
M  V30 21 O 41.902028 35.737737 65.512024 0
M  V30 22 O 36.479500 33.882250 60.828668 0
M  V30 23 O 41.243881 31.333621 61.367527 0
M  V30 24 C 40.754877 35.743664 61.196426 0
M  V30 25 N 40.864806 34.598587 62.126674 0 CFG=2 CHG=1
M  V30 26 C 40.740070 32.115662 62.163610 0
M  V30 27 C 43.260866 30.891766 67.357214 0
M  V30 28 C 40.854117 31.828811 63.663434 0
M  V30 29 C 40.067818 33.417641 61.670595 0 CFG=1
M  V30 30 C 41.141974 29.754887 67.770257 0
M  V30 31 C 38.105187 28.002778 55.186829 0
M  V30 32 C 37.644737 33.071120 60.768191 0 CFG=1
M  V30 33 C 40.125146 30.547847 54.835461 0
M  V30 34 C 38.427091 27.584160 56.633355 0 CFG=2
M  V30 35 C 37.844902 29.504396 55.108754 0
M  V30 36 H 38.281568 32.937811 62.836034 0
M  V30 37 H 38.302531 34.545992 62.167707 0
M  V30 38 H 34.857527 34.535195 59.730475 0
M  V30 39 H 36.310732 34.244871 58.780947 0
M  V30 40 H 35.351417 32.885182 59.381478 0
M  V30 41 H 36.750187 31.738803 57.474917 0
M  V30 42 H 40.049109 35.905953 63.602515 0
M  V30 43 H 40.214254 34.269464 64.131801 0
M  V30 44 H 37.157806 29.822879 58.131379 0
M  V30 45 H 43.667941 31.394976 65.296193 0
M  V30 46 H 38.945245 27.773137 54.530974 0
M  V30 47 H 40.411396 28.356232 56.608998 0
M  V30 48 H 43.481065 30.604537 69.800873 0
M  V30 49 H 42.718102 34.466997 64.149589 0
M  V30 50 H 42.580161 36.140187 63.632541 0
M  V30 51 H 39.401821 31.142743 59.757337 0
M  V30 52 H 38.702976 29.583878 60.098718 0
M  V30 53 H 42.358198 30.256736 63.462467 0
M  V30 54 H 40.739507 29.656692 63.756454 0
M  V30 55 H 39.918023 29.384107 66.026931 0
M  V30 56 H 39.665790 26.158065 56.186027 0
M  V30 57 H 39.197596 27.664409 59.266265 0
M  V30 58 H 40.614715 27.024157 58.472348 0
M  V30 59 H 40.670831 28.648787 59.120185 0
M  V30 60 H 40.045146 30.537484 57.499110 0
M  V30 61 H 41.820021 36.687253 65.524000 0
M  V30 62 H 39.789721 36.242786 61.292134 0
M  V30 63 H 41.539380 36.476881 61.386075 0
M  V30 64 H 40.847518 35.408898 60.167813 0
M  V30 65 H 44.185428 31.311937 67.725338 0
M  V30 66 H 39.883189 31.953933 64.140449 0
M  V30 67 H 41.522270 32.575236 64.085281 0
M  V30 68 H 40.183910 33.405525 60.586745 0
M  V30 69 H 40.443935 29.304600 68.456860 0
M  V30 70 H 37.245283 27.454225 54.801585 0
M  V30 71 H 38.434696 31.413346 55.710236 0
M  V30 72 H 38.155503 33.309718 59.835463 0
M  V30 73 H 39.854047 30.569085 53.777976 0
M  V30 74 H 40.650146 31.479577 55.041210 0
M  V30 75 H 40.836709 29.737806 54.970387 0
M  V30 76 H 37.524330 27.647055 57.242002 0
M  V30 77 H 41.821433 34.282879 62.051411 0
M  V30 END ATOM
M  V30 BEGIN BOND
M  V30 1 1 7 3
M  V30 2 1 8 6
M  V30 3 1 13 4
M  V30 4 1 14 11
M  V30 5 1 15 7
M  V30 6 1 15 12
M  V30 7 1 16 6
M  V30 8 2 17 6
M  V30 9 1 19 10
M  V30 10 1 20 5
M  V30 11 1 20 7
M  V30 12 1 20 10
M  V30 13 1 21 13
M  V30 14 1 22 2
M  V30 15 1 25 4
M  V30 16 1 25 24
M  V30 17 2 26 23
M  V30 18 2 27 8
M  V30 19 1 27 14
M  V30 20 1 28 16
M  V30 21 1 28 26
M  V30 22 1 29 1
M  V30 23 1 29 25
M  V30 24 1 29 26
M  V30 25 2 30 14
M  V30 26 1 30 17
M  V30 27 1 32 1
M  V30 28 1 32 12
M  V30 29 1 32 22
M  V30 30 1 33 5
M  V30 31 1 34 10
M  V30 32 1 34 18
M  V30 33 1 34 31
M  V30 34 1 35 5
M  V30 35 2 35 9
M  V30 36 1 35 31
M  V30 37 1 36 1
M  V30 38 1 37 1
M  V30 39 1 38 2
M  V30 40 1 39 2
M  V30 41 1 40 2
M  V30 42 1 41 3
M  V30 43 1 42 4
M  V30 44 1 43 4
M  V30 45 1 7 44 CFG=1
M  V30 46 1 45 8
M  V30 47 1 46 31
M  V30 48 1 10 47 CFG=3
M  V30 49 1 48 11
M  V30 50 1 49 13
M  V30 51 1 50 13
M  V30 52 1 51 15
M  V30 53 1 52 15
M  V30 54 1 53 16
M  V30 55 1 54 16
M  V30 56 1 55 17
M  V30 57 1 56 18
M  V30 58 1 57 19
M  V30 59 1 58 19
M  V30 60 1 59 19
M  V30 61 1 20 60 CFG=1
M  V30 62 1 61 21
M  V30 63 1 62 24
M  V30 64 1 63 24
M  V30 65 1 64 24
M  V30 66 1 65 27
M  V30 67 1 66 28
M  V30 68 1 67 28
M  V30 69 1 29 68 CFG=3
M  V30 70 1 69 30
M  V30 71 1 70 31
M  V30 72 1 5 71 CFG=1
M  V30 73 1 32 72 CFG=3
M  V30 74 1 73 33
M  V30 75 1 74 33
M  V30 76 1 75 33
M  V30 77 1 34 76 CFG=1
M  V30 78 1 25 77 CFG=1
M  V30 END BOND
M  V30 END CTAB
M  END
>  <i_epik_Tot_Q>  (1) 
1

>  <i_epik_Tot_abs_Q>  (1) 
1

>  <i_i_glide_confnum>  (1) 
1966

>  <i_i_glide_lignum>  (1) 
164

>  <i_i_glide_posenum>  (1) 
355

>  <i_i_glide_rotatable_bonds>  (1) 
18

>  <i_lp_mmshare_version>  (1) 
72125

>  <i_m_source_file_index>  (1) 
76

>  <i_f3d_flags>  (1) 
0

>  <num_sample>  (1) 
100

>  <b_lp_Chiralities_Consistent>  (1) 
1

>  <r_epik_Charging_Adjusted_Penalty>  (1) 
0.52789471212939676

>  <r_epik_Ionization_Penalty>  (1) 
0.26592108790513191

>  <r_epik_Ionization_Penalty_Charging>  (1) 
0.26394735606469838

>  <r_epik_Ionization_Penalty_Neutral>  (1) 
0.0019737318404335234

>  <r_epik_State_Penalty>  (1) 
0.26394735606469838

>  <r_glide_ring_energy>  (1) 
0

>  <r_i_docking_score>  (1) 
-6.2043499612783606

>  <r_i_glide_ecoul>  (1) 
-14.278468545151753

>  <r_i_glide_eff_state_penalty>  (1) 
0.26394735606469838

>  <r_i_glide_einternal>  (1) 
10.546015468329093

>  <r_i_glide_emodel>  (1) 
-69.818507439123266

>  <r_i_glide_emodel_strain>  (1) 
3.2474861204407901

>  <r_i_glide_energy>  (1) 
-54.158709475097019

>  <r_i_glide_erotb>  (1) 
1.0139394581015995

>  <r_i_glide_esite>  (1) 
0

>  <r_i_glide_evdw>  (1) 
-39.880240929945266

>  <r_i_glide_gscore>  (1) 
-6.4682973173430591

>  <r_i_glide_gscore_strain>  (1) 
0

>  <r_i_glide_hbond>  (1) 
-0.62018055152021212

>  <r_i_glide_ligand_efficiency>  (1) 
-0.17726714175081029

>  <r_i_glide_ligand_efficiency_ln>  (1) 
-1.3619925146290119

>  <r_i_glide_ligand_efficiency_sa>  (1) 
-0.57985257528450085

>  <r_i_glide_lipo>  (1) 
-2.3038256626751061

>  <r_i_glide_metal>  (1) 
-0

>  <r_i_glide_rewards>  (1) 
-0.42244823297931411

>  <r_lp_Energy>  (1) 
29.106935999999997

>  <r_lp_tautomer_probability>  (1) 
0.99989998499911525

>  <s_epik_Chemistry_Notes>  (1) 
This compound contains an acetal/aminal-like group ( X-CH(R)-Y where X, Y are N, S, or O) that may be acid/base labile, releasing an aldehyde.

>  <s_epik_cmdline>  (1) 
J2VwaWtfcHl0aG9uJywgJy1waHQnLCAnMS4wJywgJy1waCcsICc3LjQnLCAnLXRuJywgJzgnLCAnLW1hJywgJzUwMCcsICctaW1hZScsICc8aW5maWxlLm1hZT4nLCAnLW9tYWUnLCAnPG91dGZpbGUubWFlPic=

>  <s_epik_input>  (1) 
W2NIXTFbY0hdYyhbT0hdKVtjSF1bY0hdYzFbQ0gyXVtDSDJdQyg9TylbQ0BIXShOKFtDSDNdKVtDSDJdW0NIMl1bT0hdKVtDSDJdW0NASF0oT1tDSDNdKVNbQ0gyXVtDQEBIXShbT0hdKVtDQEhdMltDQEBIXShbQ0gzXSlbQ0BIXShbT0hdKVtDSDJdQyhbT0hdKT1DMltDSDNd

>  <s_glide_docking_method>  (1) 
confgen

>  <s_i_glide_gridfile>  (1) 
gpcr_5ht2c_6bqh_protein_autoprepared_prepared

>  <s_lp_Force_Field>  (1) 
S-OPLS

>  <s_lp_Variant>  (1) 
DiffSBDD_75-1

>  <s_m_source_file>  (1) 
generated_GPCR_5HT2C_ligand_DiffSBDD_2026-06-23_prepared.sdf

>  <GenAI_Model>  (1) 
DiffSBDD

>  <Protein>  (1) 
GPCR_5HT2C

$$$$
DiffSBDD_58
     RDKit          3D

  0  0  0  0  0  0  0  0  0  0999 V3000
M  V30 BEGIN CTAB
M  V30 COUNTS 76 76 0 0 1
M  V30 BEGIN ATOM
M  V30 1 C 39.165354 34.202078 60.919866 0
M  V30 2 C 40.450950 32.456975 62.464230 0 CFG=1
M  V30 3 C 41.030499 27.473988 57.595008 0
M  V30 4 C 39.555276 30.788510 60.698419 0 CFG=1
M  V30 5 C 36.843258 35.961458 59.639374 0
M  V30 6 C 38.139751 28.899034 53.749815 0
M  V30 7 O 39.178669 39.711732 60.967724 0
M  V30 8 C 38.709906 27.856557 58.615002 0
M  V30 9 N 37.916183 27.577070 53.926829 0
M  V30 10 C 37.777442 37.704370 61.397159 0 CFG=2
M  V30 11 C 36.292632 37.067859 63.485255 0
M  V30 12 C 41.165951 31.467195 64.723518 0
M  V30 13 C 41.517237 33.908493 64.326140 0
M  V30 14 C 38.076598 38.941590 60.502434 0
M  V30 15 N 39.242330 29.225275 55.890690 0
M  V30 16 C 39.508170 27.318222 57.409059 0 CFG=1
M  V30 17 N 38.957936 29.291150 58.869623 0 CHG=1
M  V30 18 O 40.754567 30.040065 60.776607 0
M  V30 19 C 38.787962 29.705689 54.710516 0
M  V30 20 C 40.439309 33.726208 61.565621 0
M  V30 21 O 36.045188 35.796239 62.967752 0
M  V30 22 C 38.489964 29.808758 60.176893 0 CFG=2
M  V30 23 C 40.614667 32.709193 63.989101 0
M  V30 24 O 35.372872 38.537757 61.773642 0
M  V30 25 C 37.784396 36.298650 60.696807 0
M  V30 26 C 35.905249 36.780034 59.195447 0
M  V30 27 C 36.568125 38.035977 62.338171 0 CFG=2
M  V30 28 C 38.363467 27.085418 55.103460 0
M  V30 29 C 39.333326 31.432350 62.091637 0
M  V30 30 C 39.019801 27.900658 56.075215 0
M  V30 31 N 38.148617 25.726796 55.335025 0
M  V30 32 C 38.669968 35.406798 61.073859 0
M  V30 33 C 37.100782 30.446724 60.024860 0
M  V30 34 H 38.661271 33.488761 60.288043 0
M  V30 35 H 41.400846 31.985599 62.212062 0
M  V30 36 H 41.576636 26.970632 56.796510 0
M  V30 37 H 41.342074 28.519338 57.599953 0
M  V30 38 H 41.359327 27.034298 58.536538 0
M  V30 39 H 39.645235 31.568849 59.948455 0
M  V30 40 H 36.914783 34.983064 59.183908 0
M  V30 41 H 37.793084 29.324167 52.819938 0
M  V30 42 H 39.881373 39.647132 60.334453 0
M  V30 43 H 38.991453 27.285684 59.499600 0
M  V30 44 H 37.644981 27.704241 58.451659 0
M  V30 45 H 38.623217 37.654849 62.088973 0
M  V30 46 H 35.441942 37.399441 64.081578 0
M  V30 47 H 37.152038 37.006537 64.152591 0
M  V30 48 H 42.142679 31.181355 64.331117 0
M  V30 49 H 41.297891 31.664290 65.788393 0
M  V30 50 H 40.513408 30.598837 64.641823 0
M  V30 51 H 42.476643 33.833902 63.814457 0
M  V30 52 H 41.047546 34.851418 64.045100 0
M  V30 53 H 41.714998 33.969638 65.396725 0
M  V30 54 H 38.181224 38.686633 59.449481 0
M  V30 55 H 37.253631 39.649151 60.560206 0
M  V30 56 H 39.341363 26.243244 57.416678 0
M  V30 57 H 38.599248 29.849194 58.105501 0
M  V30 58 H 40.679658 29.440735 61.507124 0
M  V30 59 H 38.944401 30.758565 54.527509 0
M  V30 60 H 40.845312 33.346583 60.642476 0
M  V30 61 H 41.100409 34.536840 61.866865 0
M  V30 62 H 35.488766 35.337352 63.592041 0
M  V30 63 H 38.445836 28.984175 60.884932 0
M  V30 64 H 39.645351 32.937693 64.401545 0
M  V30 65 H 35.587739 39.248619 61.185458 0
M  V30 66 H 35.244228 36.480605 58.406532 0
M  V30 67 H 35.782493 37.737855 59.605193 0
M  V30 68 H 36.845102 38.937744 62.834225 0
M  V30 69 H 39.275027 30.636505 62.833078 0
M  V30 70 H 38.365701 31.932480 62.137568 0
M  V30 71 H 38.467964 25.274883 56.177687 0
M  V30 72 H 37.696177 25.143207 54.645434 0
M  V30 73 H 36.722982 30.807768 60.979712 0
M  V30 74 H 37.117941 31.294056 59.337984 0
M  V30 75 H 36.377937 29.727011 59.641252 0
M  V30 76 H 39.963330 29.403348 58.892640 0
M  V30 END ATOM
M  V30 BEGIN BOND
M  V30 1 1 9 6
M  V30 2 1 14 7
M  V30 3 1 14 10
M  V30 4 1 16 3
M  V30 5 1 16 8
M  V30 6 1 17 8
M  V30 7 1 18 4
M  V30 8 2 19 6
M  V30 9 1 19 15
M  V30 10 1 20 1
M  V30 11 1 20 2
M  V30 12 1 21 11
M  V30 13 1 22 4
M  V30 14 1 22 17
M  V30 15 1 23 2
M  V30 16 1 23 12
M  V30 17 1 23 13
M  V30 18 1 25 5
M  V30 19 1 25 10
M  V30 20 2 26 5
M  V30 21 1 27 10
M  V30 22 1 27 11
M  V30 23 1 27 24
M  V30 24 2 28 9
M  V30 25 1 29 2
M  V30 26 1 29 4
M  V30 27 2 30 15
M  V30 28 1 30 16
M  V30 29 1 30 28
M  V30 30 1 31 28
M  V30 31 2 32 1
M  V30 32 2 32 25
M  V30 33 1 33 22
M  V30 34 1 34 1
M  V30 35 1 2 35 CFG=3
M  V30 36 1 36 3
M  V30 37 1 37 3
M  V30 38 1 38 3
M  V30 39 1 4 39 CFG=3
M  V30 40 1 40 5
M  V30 41 1 41 6
M  V30 42 1 42 7
M  V30 43 1 43 8
M  V30 44 1 44 8
M  V30 45 1 10 45 CFG=1
M  V30 46 1 46 11
M  V30 47 1 47 11
M  V30 48 1 48 12
M  V30 49 1 49 12
M  V30 50 1 50 12
M  V30 51 1 51 13
M  V30 52 1 52 13
M  V30 53 1 53 13
M  V30 54 1 54 14
M  V30 55 1 55 14
M  V30 56 1 16 56 CFG=3
M  V30 57 1 57 17
M  V30 58 1 58 18
M  V30 59 1 59 19
M  V30 60 1 60 20
M  V30 61 1 61 20
M  V30 62 1 62 21
M  V30 63 1 22 63 CFG=1
M  V30 64 1 64 23
M  V30 65 1 65 24
M  V30 66 1 66 26
M  V30 67 1 67 26
M  V30 68 1 27 68 CFG=1
M  V30 69 1 69 29
M  V30 70 1 70 29
M  V30 71 1 71 31
M  V30 72 1 72 31
M  V30 73 1 73 33
M  V30 74 1 74 33
M  V30 75 1 75 33
M  V30 76 1 76 17
M  V30 END BOND
M  V30 END CTAB
M  END
>  <i_epik_Tot_Q>  (1) 
1

>  <i_epik_Tot_abs_Q>  (1) 
1

>  <i_i_glide_confnum>  (1) 
9051

>  <i_i_glide_lignum>  (1) 
130

>  <i_i_glide_posenum>  (1) 
77

>  <i_i_glide_rotatable_bonds>  (1) 
19

>  <i_lp_mmshare_version>  (1) 
72125

>  <i_m_source_file_index>  (1) 
59

>  <i_f3d_flags>  (1) 
0

>  <num_sample>  (1) 
100

>  <b_lp_Chiralities_Consistent>  (1) 
1

>  <r_epik_Charging_Adjusted_Penalty>  (1) 
0.031800499123457865

>  <r_epik_Ionization_Penalty>  (1) 
0.015929061655920795

>  <r_epik_Ionization_Penalty_Charging>  (1) 
0.015900249561728946

>  <r_epik_Ionization_Penalty_Neutral>  (1) 
2.8812094191846713e-05

>  <r_epik_State_Penalty>  (1) 
0.015900249561728919

>  <r_glide_ring_energy>  (1) 
0

>  <r_i_docking_score>  (1) 
-6.2025951455650103

>  <r_i_glide_ecoul>  (1) 
-12.661252796960735

>  <r_i_glide_eff_state_penalty>  (1) 
0.015900249561728919

>  <r_i_glide_einternal>  (1) 
17.697892024847146

>  <r_i_glide_emodel>  (1) 
-39.373144618313745

>  <r_i_glide_emodel_strain>  (1) 
9.3128352499603722

>  <r_i_glide_energy>  (1) 
-36.018368710579516

>  <r_i_glide_erotb>  (1) 
1.3125063474323406

>  <r_i_glide_esite>  (1) 
0

>  <r_i_glide_evdw>  (1) 
-23.357115913618781

>  <r_i_glide_gscore>  (1) 
-6.2184953951267392

>  <r_i_glide_gscore_strain>  (1) 
1.328208812490093

>  <r_i_glide_hbond>  (1) 
-0.80275507116879052

>  <r_i_glide_ligand_efficiency>  (1) 
-0.18795742865348516

>  <r_i_glide_ligand_efficiency_ln>  (1) 
-1.3794250450547694

>  <r_i_glide_ligand_efficiency_sa>  (1) 
-0.60287990498379496

>  <r_i_glide_lipo>  (1) 
-4.3345063957210703

>  <r_i_glide_metal>  (1) 
-0

>  <r_i_glide_rewards>  (1) 
-0.65490537293426077

>  <r_lp_Energy>  (1) 
12.855034999999999

>  <r_lp_tautomer_probability>  (1) 
0.99999990128000804

>  <s_epik_cmdline>  (1) 
J2VwaWtfcHl0aG9uJywgJy1waHQnLCAnMS4wJywgJy1waCcsICc3LjQnLCAnLXRuJywgJzgnLCAnLW1hJywgJzUwMCcsICctaW1hZScsICc8aW5maWxlLm1hZT4nLCAnLW9tYWUnLCAnPG91dGZpbGUubWFlPic=

>  <s_epik_input>  (1) 
W09IXVtDSDJdW0NASF0oW09IXSlbQ0BIXShbQ0gyXVtPSF0pQyhbQ0hdPVtDSDJdKT1DPVtDSF1bQ0gyXVtDQEBIXShbQ0hdKFtDSDNdKVtDSDNdKVtDSDJdW0NAQEhdKFtPSF0pW0NAQEhdKFtDSDNdKVtOSF1bQ0gyXVtDQEBIXShbQ0gzXSljMW5bY0hdW2NIXW5jMVtOSDJd

>  <s_glide_docking_method>  (1) 
confgen

>  <s_i_glide_gridfile>  (1) 
gpcr_5ht2c_6bqh_protein_autoprepared_prepared

>  <s_lp_Force_Field>  (1) 
S-OPLS

>  <s_lp_Variant>  (1) 
DiffSBDD_58-2

>  <s_m_source_file>  (1) 
generated_GPCR_5HT2C_ligand_DiffSBDD_2026-06-23_prepared.sdf

>  <GenAI_Model>  (1) 
DiffSBDD

>  <Protein>  (1) 
GPCR_5HT2C

$$$$
DiffSBDD_32
     RDKit          3D

  0  0  0  0  0  0  0  0  0  0999 V3000
M  V30 BEGIN CTAB
M  V30 COUNTS 65 67 0 0 1
M  V30 BEGIN ATOM
M  V30 1 C 41.088777 33.946113 61.546722 0
M  V30 2 O 41.428914 31.801102 65.417379 0
M  V30 3 O 42.133719 33.716348 63.655364 0
M  V30 4 O 37.643851 38.198720 60.852047 0
M  V30 5 C 41.235138 33.312986 62.921228 0
M  V30 6 C 38.140045 27.811877 52.971184 0
M  V30 7 N 38.045201 31.714251 55.308287 0 CHG=1
M  V30 8 C 37.772072 32.191293 60.304660 0 CFG=2
M  V30 9 C 39.053407 30.635423 55.362829 0
M  V30 10 C 37.675090 32.825632 58.873841 0
M  V30 11 C 40.473824 31.440816 64.695619 0
M  V30 12 C 39.260003 31.909734 62.468245 0
M  V30 13 C 38.181968 32.708634 56.384264 0
M  V30 14 C 36.849898 37.812385 61.739641 0
M  V30 15 O 36.444923 35.959890 59.647849 0
M  V30 16 O 36.042858 38.533000 62.366639 0 CHG=-1
M  V30 17 C 39.645105 30.194904 52.967797 0
M  V30 18 O 36.546676 33.315620 62.167756 0
M  V30 19 O 39.645729 30.537865 64.926791 0 CHG=-1
M  V30 20 C 38.968933 29.792291 54.127785 0
M  V30 21 C 38.214023 28.601341 54.132221 0
M  V30 22 C 40.296777 29.861426 50.588144 0
M  V30 23 C 38.235610 31.999107 57.738440 0
M  V30 24 C 39.016269 32.578378 61.178928 0
M  V30 25 C 39.576697 29.411913 51.805493 0
M  V30 26 C 36.857709 35.365403 60.861101 0 CFG=1
M  V30 27 C 36.869185 36.321393 62.087763 0
M  V30 28 O 40.921093 30.912901 50.514213 0
M  V30 29 C 39.876971 33.520298 60.770217 0
M  V30 30 C 40.290337 32.216030 63.316811 0
M  V30 31 C 37.727836 30.642531 60.204598 0
M  V30 32 C 40.233838 28.938042 49.403229 0
M  V30 33 C 38.819421 28.211734 51.805966 0
M  V30 34 C 36.030915 34.106832 61.106322 0 CFG=1
M  V30 35 C 36.463842 32.648015 60.935904 0 CFG=1
M  V30 36 H 41.974354 33.649936 60.991027 0
M  V30 37 H 41.101517 35.032219 61.641299 0
M  V30 38 H 37.560346 26.898793 52.973313 0
M  V30 39 H 37.117472 31.316494 55.403058 0
M  V30 40 H 40.055455 31.063353 55.431697 0
M  V30 41 H 38.923409 29.987802 56.230818 0
M  V30 42 H 36.620783 32.936916 58.606610 0
M  V30 43 H 38.027280 33.850048 58.808542 0
M  V30 44 H 38.579472 31.128670 62.769566 0
M  V30 45 H 37.327644 33.384133 56.332194 0
M  V30 46 H 39.074710 33.315310 56.230651 0
M  V30 47 H 36.848565 36.821839 59.621348 0
M  V30 48 H 40.221618 31.110649 52.969350 0
M  V30 49 H 37.693054 28.293875 55.026818 0
M  V30 50 H 39.245153 31.675238 57.964115 0
M  V30 51 H 37.621629 31.102450 57.667005 0
M  V30 52 H 37.890150 35.093184 60.693675 0
M  V30 53 H 36.043914 36.103326 62.763228 0
M  V30 54 H 37.767997 36.134165 62.674599 0
M  V30 55 H 39.727892 34.019414 59.832966 0
M  V30 56 H 36.894031 30.299707 59.591536 0
M  V30 57 H 38.649958 30.235752 59.786357 0
M  V30 58 H 37.590748 30.167677 61.172026 0
M  V30 59 H 39.245184 28.962623 48.977558 0
M  V30 60 H 40.942511 29.239779 48.631961 0
M  V30 61 H 40.445131 27.932265 49.767665 0
M  V30 62 H 38.753186 27.602149 50.918832 0
M  V30 63 H 34.957905 34.257172 61.171489 0
M  V30 64 H 35.644593 31.933200 60.874183 0
M  V30 65 H 38.103473 32.184456 54.416946 0
M  V30 END ATOM
M  V30 BEGIN BOND
M  V30 1 1 5 1
M  V30 2 2 5 3
M  V30 3 1 9 7
M  V30 4 1 8 10 CFG=3
M  V30 5 2 11 2
M  V30 6 1 13 7
M  V30 7 2 14 4
M  V30 8 1 16 14
M  V30 9 1 19 11
M  V30 10 1 20 9
M  V30 11 2 20 17
M  V30 12 2 21 6
M  V30 13 1 21 20
M  V30 14 1 23 10
M  V30 15 1 23 13
M  V30 16 1 24 8
M  V30 17 1 24 12
M  V30 18 1 25 17
M  V30 19 1 25 22
M  V30 20 1 26 15
M  V30 21 1 27 14
M  V30 22 1 27 26
M  V30 23 2 28 22
M  V30 24 1 29 1
M  V30 25 2 29 24
M  V30 26 1 30 5
M  V30 27 1 30 11
M  V30 28 2 30 12
M  V30 29 1 31 8
M  V30 30 1 32 22
M  V30 31 1 33 6
M  V30 32 2 33 25
M  V30 33 1 34 18
M  V30 34 1 34 26
M  V30 35 1 35 8
M  V30 36 1 35 18
M  V30 37 1 35 34
M  V30 38 1 36 1
M  V30 39 1 37 1
M  V30 40 1 38 6
M  V30 41 1 39 7
M  V30 42 1 40 9
M  V30 43 1 41 9
M  V30 44 1 42 10
M  V30 45 1 43 10
M  V30 46 1 44 12
M  V30 47 1 45 13
M  V30 48 1 46 13
M  V30 49 1 47 15
M  V30 50 1 48 17
M  V30 51 1 49 21
M  V30 52 1 50 23
M  V30 53 1 51 23
M  V30 54 1 26 52 CFG=3
M  V30 55 1 53 27
M  V30 56 1 54 27
M  V30 57 1 55 29
M  V30 58 1 56 31
M  V30 59 1 57 31
M  V30 60 1 58 31
M  V30 61 1 59 32
M  V30 62 1 60 32
M  V30 63 1 61 32
M  V30 64 1 62 33
M  V30 65 1 34 63 CFG=1
M  V30 66 1 35 64 CFG=1
M  V30 67 1 65 7
M  V30 END BOND
M  V30 END CTAB
M  END
>  <i_epik_Tot_Q>  (1) 
-1

>  <i_epik_Tot_abs_Q>  (1) 
3

>  <i_i_glide_confnum>  (1) 
1062

>  <i_i_glide_lignum>  (1) 
76

>  <i_i_glide_posenum>  (1) 
109

>  <i_i_glide_rotatable_bonds>  (1) 
14

>  <i_lp_mmshare_version>  (1) 
72125

>  <i_m_source_file_index>  (1) 
33

>  <i_f3d_flags>  (1) 
0

>  <num_sample>  (1) 
100

>  <b_lp_Chiralities_Consistent>  (1) 
1

>  <r_epik_Charging_Adjusted_Penalty>  (1) 
0.080349275114026383

>  <r_epik_Ionization_Penalty>  (1) 
0.040587732583292166

>  <r_epik_Ionization_Penalty_Charging>  (1) 
0.040587694316789436

>  <r_epik_Ionization_Penalty_Neutral>  (1) 
3.8266502729817704e-08

>  <r_epik_State_Penalty>  (1) 
0.039761580797236948

>  <r_glide_ring_energy>  (1) 
0

>  <r_i_docking_score>  (1) 
-6.2015911056547486

>  <r_i_glide_ecoul>  (1) 
-0.14461940490816172

>  <r_i_glide_eff_state_penalty>  (1) 
0.039761580797236948

>  <r_i_glide_einternal>  (1) 
25.852208254806115

>  <r_i_glide_emodel>  (1) 
-42.233360210788376

>  <r_i_glide_emodel_strain>  (1) 
2.6009035686813746

>  <r_i_glide_energy>  (1) 
-35.480301564632107

>  <r_i_glide_erotb>  (1) 
0.86504187564476209

>  <r_i_glide_esite>  (1) 
-0.070649523234424708

>  <r_i_glide_evdw>  (1) 
-35.335682159723945

>  <r_i_glide_gscore>  (1) 
-6.2413526864519859

>  <r_i_glide_gscore_strain>  (1) 
0

>  <r_i_glide_hbond>  (1) 
-0.025499584539599957

>  <r_i_glide_ligand_efficiency>  (1) 
-0.17718831730442139

>  <r_i_glide_ligand_efficiency_ln>  (1) 
-1.3613868845901276

>  <r_i_glide_ligand_efficiency_sa>  (1) 
-0.57959473529349881

>  <r_i_glide_lipo>  (1) 
-3.1630332934291903

>  <r_i_glide_metal>  (1) 
-0

>  <r_i_glide_rewards>  (1) 
-2.0587351421711118

>  <r_lp_Energy>  (1) 
50.449213

>  <r_lp_tautomer_probability>  (1) 
0.99995000000000001

>  <s_epik_cmdline>  (1) 
J2VwaWtfcHl0aG9uJywgJy1waHQnLCAnMS4wJywgJy1waCcsICc3LjQnLCAnLXRuJywgJzgnLCAnLW1hJywgJzUwMCcsICctaW1hZScsICc8aW5maWxlLm1hZT4nLCAnLW9tYWUnLCAnPG91dGZpbGUubWFlPic=

>  <s_epik_input>  (1) 
Tz1DKFtPSF0pW0NIMl1bQ0BIXShbT0hdKVtDQEBIXTFPW0NAQEhdMVtDQF0oW0NIM10pKEMoPVtDSF1bQ0gyXUMyPU8pW0NIXT1DMkMoPU8pW09IXSlbQ0gyXVtDSDJdW0NIMl1bTkhdW0NIMl1jM1tjSF1jKEMoPU8pW0NIM10pW2NIXVtjSF1bY0hdMw==

>  <s_glide_docking_method>  (1) 
confgen

>  <s_i_glide_gridfile>  (1) 
gpcr_5ht2c_6bqh_protein_autoprepared_prepared

>  <s_lp_Force_Field>  (1) 
S-OPLS

>  <s_lp_Variant>  (1) 
DiffSBDD_32-1

>  <s_m_source_file>  (1) 
generated_GPCR_5HT2C_ligand_DiffSBDD_2026-06-23_prepared.sdf

>  <GenAI_Model>  (1) 
DiffSBDD

>  <Protein>  (1) 
GPCR_5HT2C

$$$$
DiffSBDD_81
     RDKit          3D

  0  0  0  0  0  0  0  0  0  0999 V3000
M  V30 BEGIN CTAB
M  V30 COUNTS 67 68 0 0 1
M  V30 BEGIN ATOM
M  V30 1 C 39.596662 25.612256 56.092551 0
M  V30 2 C 38.526042 31.661652 56.633509 0
M  V30 3 C 39.965570 34.769279 61.812358 0 CFG=2
M  V30 4 C 38.484437 28.621011 53.100736 0
M  V30 5 C 37.762957 35.140869 60.994846 0
M  V30 6 C 37.712533 27.366116 53.502591 0
M  V30 7 C 38.794670 35.734654 61.937408 0
M  V30 8 C 38.054449 33.096880 56.904113 0
M  V30 9 C 39.445413 31.593612 55.407883 0
M  V30 10 C 38.293276 29.826829 54.000351 0
M  V30 11 C 38.666209 33.365764 59.380493 0
M  V30 12 C 39.530871 27.515796 51.070137 0
M  V30 13 C 37.074109 32.695048 61.299170 0
M  V30 14 C 39.555489 30.190704 54.799140 0
M  V30 15 O 39.309540 33.516799 61.683865 0
M  V30 16 O 39.444053 26.342462 54.886310 0
M  V30 17 C 39.285062 28.671447 52.015578 0
M  V30 18 C 41.579303 36.133024 63.227082 0
M  V30 19 C 40.931366 34.763749 63.004997 0
M  V30 20 C 38.181923 33.662742 60.819083 0 CFG=2
M  V30 21 C 37.402553 31.199087 61.157529 0
M  V30 22 C 37.314680 25.606056 55.339491 0
M  V30 23 C 37.542059 33.331128 58.327306 0
M  V30 24 C 38.112700 26.828816 54.886030 0 CFG=2
M  V30 25 C 38.272162 24.867024 56.260576 0
M  V30 26 H 40.445132 24.937750 56.045513 0
M  V30 27 H 39.760180 26.308161 56.916818 0
M  V30 28 H 37.645139 31.034860 56.499353 0
M  V30 29 H 39.058674 31.246115 57.487404 0
M  V30 30 H 40.519917 34.980307 60.896408 0
M  V30 31 H 37.778989 35.674679 60.044091 0
M  V30 32 H 36.757073 35.250429 61.401882 0
M  V30 33 H 36.654372 27.629061 53.514824 0
M  V30 34 H 37.798526 26.573238 52.763122 0
M  V30 35 H 38.416489 35.737770 62.959530 0
M  V30 36 H 39.064198 36.758094 61.675299 0
M  V30 37 H 38.845137 33.802519 56.682741 0
M  V30 38 H 37.258426 33.333392 56.200074 0
M  V30 39 H 40.434729 31.947173 55.696998 0
M  V30 40 H 39.098441 32.288108 54.641519 0
M  V30 41 H 38.045135 30.672957 53.367761 0
M  V30 42 H 37.431443 29.685108 54.653319 0
M  V30 43 H 39.206147 32.420974 59.378462 0
M  V30 44 H 39.409189 34.105159 59.087687 0
M  V30 45 H 40.445134 27.708854 50.512498 0
M  V30 46 H 39.645126 26.565968 51.592025 0
M  V30 47 H 38.722454 27.431578 50.350745 0
M  V30 48 H 36.845140 32.907274 62.341183 0
M  V30 49 H 36.153640 32.903414 60.752755 0
M  V30 50 H 39.758790 29.445238 55.568858 0
M  V30 51 H 40.418356 30.183037 54.132620 0
M  V30 52 H 39.797303 29.593823 51.781345 0
M  V30 53 H 42.340209 36.095155 64.007300 0
M  V30 54 H 42.045136 36.491815 62.312599 0
M  V30 55 H 40.836137 36.873069 63.522627 0
M  V30 56 H 40.416922 34.452531 63.913418 0
M  V30 57 H 41.708508 34.019991 62.827949 0
M  V30 58 H 36.524942 30.591640 61.367785 0
M  V30 59 H 37.704804 30.935376 60.145301 0
M  V30 60 H 38.202366 30.901683 61.836298 0
M  V30 61 H 36.389963 25.880676 55.843108 0
M  V30 62 H 37.062035 24.972508 54.487831 0
M  V30 63 H 36.993842 34.272941 58.344992 0
M  V30 64 H 36.817027 32.555220 58.567770 0
M  V30 65 H 38.025070 27.609156 55.644185 0
M  V30 66 H 38.361698 23.827806 55.947502 0
M  V30 67 H 37.941391 24.877977 57.299464 0
M  V30 END ATOM
M  V30 BEGIN BOND
M  V30 1 1 6 4
M  V30 2 1 7 3
M  V30 3 1 7 5
M  V30 4 1 8 2
M  V30 5 1 9 2
M  V30 6 1 10 4
M  V30 7 1 14 9
M  V30 8 1 14 10
M  V30 9 1 15 3
M  V30 10 1 16 1
M  V30 11 2 17 4
M  V30 12 1 17 12
M  V30 13 1 19 3
M  V30 14 1 19 18
M  V30 15 1 20 5
M  V30 16 1 20 11 CFG=3
M  V30 17 1 20 13
M  V30 18 1 20 15
M  V30 19 1 21 13
M  V30 20 1 23 8
M  V30 21 1 23 11
M  V30 22 1 24 6
M  V30 23 1 24 16
M  V30 24 1 24 22
M  V30 25 1 25 1
M  V30 26 1 25 22
M  V30 27 1 26 1
M  V30 28 1 27 1
M  V30 29 1 28 2
M  V30 30 1 29 2
M  V30 31 1 3 30 CFG=3
M  V30 32 1 31 5
M  V30 33 1 32 5
M  V30 34 1 33 6
M  V30 35 1 34 6
M  V30 36 1 35 7
M  V30 37 1 36 7
M  V30 38 1 37 8
M  V30 39 1 38 8
M  V30 40 1 39 9
M  V30 41 1 40 9
M  V30 42 1 41 10
M  V30 43 1 42 10
M  V30 44 1 43 11
M  V30 45 1 44 11
M  V30 46 1 45 12
M  V30 47 1 46 12
M  V30 48 1 47 12
M  V30 49 1 48 13
M  V30 50 1 49 13
M  V30 51 1 50 14
M  V30 52 1 51 14
M  V30 53 1 52 17
M  V30 54 1 53 18
M  V30 55 1 54 18
M  V30 56 1 55 18
M  V30 57 1 56 19
M  V30 58 1 57 19
M  V30 59 1 58 21
M  V30 60 1 59 21
M  V30 61 1 60 21
M  V30 62 1 61 22
M  V30 63 1 62 22
M  V30 64 1 63 23
M  V30 65 1 64 23
M  V30 66 1 24 65 CFG=1
M  V30 67 1 66 25
M  V30 68 1 67 25
M  V30 END BOND
M  V30 END CTAB
M  END
>  <i_epik_Tot_Q>  (1) 
0

>  <i_epik_Tot_abs_Q>  (1) 
0

>  <i_i_glide_confnum>  (1) 
1147

>  <i_i_glide_lignum>  (1) 
188

>  <i_i_glide_posenum>  (1) 
291

>  <i_i_glide_rotatable_bonds>  (1) 
12

>  <i_lp_mmshare_version>  (1) 
72125

>  <i_m_source_file_index>  (1) 
82

>  <i_f3d_flags>  (1) 
0

>  <num_sample>  (1) 
100

>  <b_lp_Chiralities_Consistent>  (1) 
1

>  <r_epik_Charging_Adjusted_Penalty>  (1) 
0

>  <r_epik_Ionization_Penalty>  (1) 
4.3050601408714213e-11

>  <r_epik_Ionization_Penalty_Charging>  (1) 
0

>  <r_epik_Ionization_Penalty_Neutral>  (1) 
4.3050601408714213e-11

>  <r_epik_State_Penalty>  (1) 
-0

>  <r_glide_ring_energy>  (1) 
0

>  <r_i_docking_score>  (1) 
-6.1952531556248989

>  <r_i_glide_ecoul>  (1) 
-0.40018973755385057

>  <r_i_glide_eff_state_penalty>  (1) 
-0

>  <r_i_glide_einternal>  (1) 
8.7178035218305059

>  <r_i_glide_emodel>  (1) 
-45.172170663364554

>  <r_i_glide_emodel_strain>  (1) 
0.35499453778350443

>  <r_i_glide_energy>  (1) 
-37.246879511726668

>  <r_i_glide_erotb>  (1) 
1.3958139752623098

>  <r_i_glide_esite>  (1) 
0

>  <r_i_glide_evdw>  (1) 
-36.846689774172816

>  <r_i_glide_gscore>  (1) 
-6.1952531556248989

>  <r_i_glide_gscore_strain>  (1) 
0

>  <r_i_glide_hbond>  (1) 
0

>  <r_i_glide_ligand_efficiency>  (1) 
-0.24781012622499596

>  <r_i_glide_ligand_efficiency_ln>  (1) 
-1.4684606546385945

>  <r_i_glide_ligand_efficiency_sa>  (1) 
-0.72460120479065759

>  <r_i_glide_lipo>  (1) 
-4.1215723831831843

>  <r_i_glide_metal>  (1) 
-0

>  <r_i_glide_rewards>  (1) 
-1.5671317983623059

>  <r_lp_Energy>  (1) 
-0.19809599999999999

>  <r_lp_tautomer_probability>  (1) 
1

>  <s_epik_cmdline>  (1) 
J2VwaWtfcHl0aG9uJywgJy1waHQnLCAnMS4wJywgJy1waCcsICc3LjQnLCAnLXRuJywgJzgnLCAnLW1hJywgJzUwMCcsICctaW1hZScsICc8aW5maWxlLm1hZT4nLCAnLW9tYWUnLCAnPG91dGZpbGUubWFlPic=

>  <s_epik_input>  (1) 
W0NIMl0xW0NIMl1bQ0gyXU9bQ0BIXTFbQ0gyXS9DKD1bQ0hdXFtDSDNdKVtDSDJdW0NIMl1bQ0gyXVtDSDJdW0NIMl1bQ0gyXVtDSDJdW0NAXTIoW0NIMl1bQ0gzXSlbQ0gyXVtDSDJdW0NASF0oTzIpW0NIMl1bQ0gzXQ==

>  <s_glide_docking_method>  (1) 
confgen

>  <s_i_glide_gridfile>  (1) 
gpcr_5ht2c_6bqh_protein_autoprepared_prepared

>  <s_lp_Force_Field>  (1) 
S-OPLS

>  <s_lp_Variant>  (1) 
DiffSBDD_81-2

>  <s_m_source_file>  (1) 
generated_GPCR_5HT2C_ligand_DiffSBDD_2026-06-23_prepared.sdf

>  <GenAI_Model>  (1) 
DiffSBDD

>  <Protein>  (1) 
GPCR_5HT2C

$$$$
DiffSBDD_85
     RDKit          3D

  0  0  0  0  0  0  0  0  0  0999 V3000
M  V30 BEGIN CTAB
M  V30 COUNTS 62 65 0 0 1
M  V30 BEGIN ATOM
M  V30 1 C 37.794587 27.899875 54.567744 0
M  V30 2 C 38.128351 31.503423 56.733183 0
M  V30 3 N 37.013050 33.280471 61.208470 0
M  V30 4 C 40.391149 27.261844 57.274356 0
M  V30 5 C 40.043993 29.014818 50.283980 0
M  V30 6 C 37.487880 32.059602 60.592917 0 CFG=2
M  V30 7 O 36.845134 27.731586 53.812249 0
M  V30 8 F 40.420161 31.337732 50.632308 0
M  V30 9 C 39.645117 27.765099 50.787890 0
M  V30 10 O 38.870556 28.645522 54.285764 0
M  V30 11 O 42.045144 35.737749 63.784324 0
M  V30 12 C 38.412145 32.912077 61.426932 0 CFG=1
M  V30 13 C 40.045172 26.147068 56.442356 0
M  V30 14 C 36.977454 33.679353 58.893250 0
M  V30 15 C 40.168977 34.654590 61.514385 0
M  V30 16 C 37.223804 32.188112 59.120503 0 CFG=1
M  V30 17 C 41.136472 34.669489 63.900196 0
M  V30 18 N 39.448528 33.722840 60.841498 0
M  V30 19 O 36.931963 34.315476 60.168355 0
M  V30 20 C 38.343257 31.525053 58.270965 0 CFG=1
M  V30 21 O 38.045133 32.782598 56.148133 0
M  V30 22 C 37.871766 27.222212 55.939563 0 CFG=1
M  V30 23 C 39.753720 29.477651 58.345814 0
M  V30 24 C 39.884162 34.847910 63.017192 0 CFG=1
M  V30 25 N 38.515044 30.143368 58.744361 0
M  V30 26 Cl 41.958030 27.337755 58.000327 0
M  V30 27 C 39.250447 27.638650 52.121506 0
M  V30 28 C 39.497508 28.252603 57.490617 0
M  V30 29 C 39.245133 28.770173 52.970559 0
M  V30 30 C 38.876601 26.105987 55.824731 0
M  V30 31 C 39.181636 36.195738 63.266764 0
M  V30 32 C 40.044563 30.141712 51.120947 0
M  V30 33 O 38.224190 28.223823 56.926104 0
M  V30 34 O 41.027325 35.337761 60.967760 0
M  V30 35 C 39.645208 30.022715 52.467132 0
M  V30 36 H 38.968312 31.011333 56.243380 0
M  V30 37 H 37.245510 30.924107 56.463829 0
M  V30 38 H 40.348782 29.109039 49.252526 0
M  V30 39 H 37.177547 31.115542 61.036311 0
M  V30 40 H 39.648164 26.900121 50.154855 0
M  V30 41 H 41.668404 36.527027 64.152939 0
M  V30 42 H 38.674376 32.379519 62.338424 0
M  V30 43 H 40.742373 25.337658 56.315094 0
M  V30 44 H 36.050089 33.853899 58.345932 0
M  V30 45 H 37.785562 34.137681 58.325117 0
M  V30 46 H 36.281963 31.661937 58.967759 0
M  V30 47 H 41.655498 33.744085 63.644525 0
M  V30 48 H 40.846693 34.584492 64.949328 0
M  V30 49 H 39.629120 33.597876 59.857775 0
M  V30 50 H 39.245140 32.094584 58.469950 0
M  V30 51 H 37.114430 32.968627 56.038556 0
M  V30 52 H 36.921141 26.763717 56.208004 0
M  V30 53 H 40.401668 30.137561 57.773074 0
M  V30 54 H 40.305439 29.184072 59.239618 0
M  V30 55 H 39.245135 34.060867 63.367763 0
M  V30 56 H 37.738992 29.585815 58.394852 0
M  V30 57 H 38.953467 26.670987 52.501046 0
M  V30 58 H 38.617974 25.265839 55.196230 0
M  V30 59 H 38.215573 36.233411 62.762431 0
M  V30 60 H 39.003638 36.359743 64.328793 0
M  V30 61 H 39.776013 37.035169 62.903235 0
M  V30 62 H 39.646128 30.891237 53.110510 0
M  V30 END ATOM
M  V30 BEGIN BOND
M  V30 1 1 6 3
M  V30 2 2 7 1
M  V30 3 2 9 5
M  V30 4 1 10 1
M  V30 5 1 12 3
M  V30 6 1 12 6
M  V30 7 1 13 4
M  V30 8 1 16 6
M  V30 9 1 16 14
M  V30 10 1 17 11
M  V30 11 1 18 12
M  V30 12 1 18 15
M  V30 13 1 19 3
M  V30 14 1 19 14
M  V30 15 1 20 2
M  V30 16 1 20 16
M  V30 17 1 21 2
M  V30 18 1 22 1
M  V30 19 1 24 15
M  V30 20 1 24 17
M  V30 21 1 25 20
M  V30 22 1 25 23
M  V30 23 1 26 4
M  V30 24 1 27 9
M  V30 25 2 28 4
M  V30 26 1 28 23
M  V30 27 1 29 10
M  V30 28 2 29 27
M  V30 29 2 30 13
M  V30 30 1 30 22
M  V30 31 1 31 24
M  V30 32 1 32 5
M  V30 33 1 32 8
M  V30 34 1 33 22
M  V30 35 1 33 28
M  V30 36 2 34 15
M  V30 37 1 35 29
M  V30 38 2 35 32
M  V30 39 1 36 2
M  V30 40 1 37 2
M  V30 41 1 38 5
M  V30 42 1 6 39 CFG=1
M  V30 43 1 40 9
M  V30 44 1 41 11
M  V30 45 1 12 42 CFG=1
M  V30 46 1 43 13
M  V30 47 1 44 14
M  V30 48 1 45 14
M  V30 49 1 16 46 CFG=1
M  V30 50 1 47 17
M  V30 51 1 48 17
M  V30 52 1 49 18
M  V30 53 1 20 50 CFG=3
M  V30 54 1 51 21
M  V30 55 1 22 52 CFG=1
M  V30 56 1 53 23
M  V30 57 1 54 23
M  V30 58 1 24 55 CFG=1
M  V30 59 1 56 25
M  V30 60 1 57 27
M  V30 61 1 58 30
M  V30 62 1 59 31
M  V30 63 1 60 31
M  V30 64 1 61 31
M  V30 65 1 62 35
M  V30 END BOND
M  V30 END CTAB
M  END
>  <i_epik_Tot_Q>  (1) 
0

>  <i_epik_Tot_abs_Q>  (1) 
0

>  <i_i_glide_confnum>  (1) 
2500

>  <i_i_glide_lignum>  (1) 
203

>  <i_i_glide_posenum>  (1) 
92

>  <i_i_glide_rotatable_bonds>  (1) 
14

>  <i_lp_mmshare_version>  (1) 
72125

>  <i_m_source_file_index>  (1) 
86

>  <i_f3d_flags>  (1) 
0

>  <num_sample>  (1) 
100

>  <b_lp_Chiralities_Consistent>  (1) 
1

>  <r_epik_Charging_Adjusted_Penalty>  (1) 
0

>  <r_epik_Ionization_Penalty>  (1) 
0.002846787164494627

>  <r_epik_Ionization_Penalty_Charging>  (1) 
0

>  <r_epik_Ionization_Penalty_Neutral>  (1) 
0.002846787164494627

>  <r_epik_State_Penalty>  (1) 
-0

>  <r_glide_ring_energy>  (1) 
0

>  <r_i_docking_score>  (1) 
-6.1911954553525135

>  <r_i_glide_ecoul>  (1) 
-5.081537910365105

>  <r_i_glide_eff_state_penalty>  (1) 
-0

>  <r_i_glide_einternal>  (1) 
16.78082281227535

>  <r_i_glide_emodel>  (1) 
-61.502729190567521

>  <r_i_glide_emodel_strain>  (1) 
1.3252624805056001

>  <r_i_glide_energy>  (1) 
-52.368967792115093

>  <r_i_glide_erotb>  (1) 
0.93847147272533338

>  <r_i_glide_esite>  (1) 
0

>  <r_i_glide_evdw>  (1) 
-47.287429881749986

>  <r_i_glide_gscore>  (1) 
-6.1911954553525135

>  <r_i_glide_gscore_strain>  (1) 
0

>  <r_i_glide_hbond>  (1) 
-0.47269815288195627

>  <r_i_glide_ligand_efficiency>  (1) 
-0.17689129872435752

>  <r_i_glide_ligand_efficiency_ln>  (1) 
-1.3591048086297592

>  <r_i_glide_ligand_efficiency_sa>  (1) 
-0.5786231678227518

>  <r_i_glide_lipo>  (1) 
-3.4568764142149835

>  <r_i_glide_metal>  (1) 
-0

>  <r_i_glide_rewards>  (1) 
-0.073490180338641409

>  <r_lp_Energy>  (1) 
30.891655999999998

>  <r_lp_tautomer_probability>  (1) 
1

>  <s_epik_Chemistry_Notes>  (1) 
This compound contains an acetal/aminal-like group ( X-CH(R)-Y where X, Y are N, S, or O) that may be acid/base labile, releasing an aldehyde. This compound has a N-S or N-O group and may undergo hydrolysis at high or low pH.

>  <s_epik_cmdline>  (1) 
J2VwaWtfcHl0aG9uJywgJy1waHQnLCAnMS4wJywgJy1waCcsICc3LjQnLCAnLXRuJywgJzgnLCAnLW1hJywgJzUwMCcsICctaW1hZScsICc8aW5maWxlLm1hZT4nLCAnLW9tYWUnLCAnPG91dGZpbGUubWFlPic=

>  <s_epik_input>  (1) 
RmMoW2NIXTEpW2NIXVtjSF1bY0hdYzFPQyg9TylbQ0BASF0oW0NIXT1bQ0hdMilPQyg9QzJDbClbQ0gyXVtOSF1bQ0BASF0oW0NIMl1bT0hdKVtDQEBIXShbQ0gyXU8zKVtDSF0oW05AQF0zNClbQ0BIXTRbTkhdQyg9TylbQ0BIXShbQ0gzXSlbQ0gyXVtPSF0=

>  <s_glide_docking_method>  (1) 
confgen

>  <s_i_glide_gridfile>  (1) 
gpcr_5ht2c_6bqh_protein_autoprepared_prepared

>  <s_lp_Force_Field>  (1) 
S-OPLS

>  <s_lp_Variant>  (1) 
DiffSBDD_85-2

>  <s_m_source_file>  (1) 
generated_GPCR_5HT2C_ligand_DiffSBDD_2026-06-23_prepared.sdf

>  <GenAI_Model>  (1) 
DiffSBDD

>  <Protein>  (1) 
GPCR_5HT2C

$$$$
DiffSBDD_86
     RDKit          3D

  0  0  0  0  0  0  0  0  0  0999 V3000
M  V30 BEGIN CTAB
M  V30 COUNTS 78 80 0 0 1
M  V30 BEGIN ATOM
M  V30 1 C 38.463419 28.274532 54.919317 0
M  V30 2 C 39.749539 37.478351 67.622155 0
M  V30 3 C 39.642133 31.027117 60.989201 0 CFG=2
M  V30 4 C 40.225759 38.823232 68.171855 0
M  V30 5 N 38.346848 31.226815 60.277072 0
M  V30 6 C 42.357727 32.485583 68.132157 0
M  V30 7 N 38.223667 28.229942 56.292522 0
M  V30 8 C 40.556823 32.426610 63.996970 0
M  V30 9 O 39.335255 34.097984 60.207947 0
M  V30 10 O 42.029117 29.322952 65.564633 0
M  V30 11 C 42.318316 31.688378 65.671686 0 CFG=2
M  V30 12 C 41.306244 32.331379 62.643626 0
M  V30 13 C 37.207242 31.564373 60.934948 0
M  V30 14 N 41.393733 32.777296 65.199470 0 CFG=1 CHG=1
M  V30 15 C 41.531057 30.394811 65.968129 0
M  V30 16 C 38.289083 27.235345 53.972636 0
M  V30 17 C 39.062803 28.693784 52.165144 0
M  V30 18 O 36.143344 31.694488 60.293277 0
M  V30 19 C 38.361945 31.070186 58.813045 0
M  V30 20 C 39.245327 29.737194 53.084861 0
M  V30 21 C 39.574745 29.899275 62.047891 0
M  V30 22 S 39.073390 30.648038 55.794704 0
M  V30 23 O 40.447162 30.515659 66.585221 0 CHG=-1
M  V30 24 C 42.058887 34.118273 65.116614 0
M  V30 25 C 40.377416 32.354206 61.396334 0 CFG=2
M  V30 26 C 44.381476 31.168430 67.210889 0
M  V30 27 O 39.540042 33.501749 61.523015 0
M  V30 28 N 40.725282 36.912833 66.665351 0 CHG=1
M  V30 29 C 38.328096 29.597322 58.373325 0
M  V30 30 C 38.947145 29.530358 54.441272 0
M  V30 31 O 37.829125 26.020304 54.387708 0
M  V30 32 C 41.146816 35.313710 64.765748 0
M  V30 33 C 38.489440 29.391495 56.896543 0
M  V30 34 C 44.595214 32.580078 66.762227 0
M  V30 35 C 43.176229 32.050953 66.914510 0
M  V30 36 O 37.245438 31.737825 62.167795 0 CHG=-1
M  V30 37 C 38.585884 27.445784 52.606470 0
M  V30 38 C 40.193382 35.777832 65.888451 0
M  V30 39 H 38.781833 37.618177 67.136977 0
M  V30 40 H 39.593548 36.769468 68.436213 0
M  V30 41 H 40.306037 30.574837 60.251938 0
M  V30 42 H 39.574333 39.158759 68.980017 0
M  V30 43 H 41.239021 38.764530 68.567665 0
M  V30 44 H 40.203294 39.587939 67.396804 0
M  V30 45 H 43.005465 32.922459 68.891908 0
M  V30 46 H 41.600664 33.224740 67.873436 0
M  V30 47 H 41.859184 31.629563 68.586721 0
M  V30 48 H 39.753713 33.148960 63.907644 0
M  V30 49 H 40.014846 31.504944 64.173433 0
M  V30 50 H 39.985723 34.781928 60.212889 0
M  V30 51 H 43.006911 31.480761 64.850560 0
M  V30 52 H 41.957971 31.458427 62.624419 0
M  V30 53 H 41.969454 33.187897 62.540887 0
M  V30 54 H 39.288075 28.847452 51.119234 0
M  V30 55 H 37.537384 31.605827 58.336365 0
M  V30 56 H 39.245120 31.570830 58.432883 0
M  V30 57 H 39.611460 30.697795 52.751027 0
M  V30 58 H 40.559375 29.645946 62.439514 0
M  V30 59 H 38.936005 30.137322 62.895720 0
M  V30 60 H 39.175380 28.986905 61.606214 0
M  V30 61 H 42.558316 34.365438 66.051351 0
M  V30 62 H 42.850559 34.061665 64.372352 0
M  V30 63 H 41.059838 32.537868 60.567525 0
M  V30 64 H 44.602792 30.936935 68.250544 0
M  V30 65 H 44.632648 30.380108 66.501533 0
M  V30 66 H 41.548420 36.620158 67.171445 0
M  V30 67 H 39.117334 29.035952 58.873413 0
M  V30 68 H 37.383803 29.149697 58.685869 0
M  V30 69 H 37.673669 26.018489 55.322010 0
M  V30 70 H 41.799351 36.137600 64.482919 0
M  V30 71 H 40.579935 35.120215 63.856333 0
M  V30 72 H 45.000566 32.721902 65.767775 0
M  V30 73 H 44.963890 33.282830 67.507650 0
M  V30 74 H 38.446134 26.645331 51.897047 0
M  V30 75 H 39.270684 36.138079 65.427569 0
M  V30 76 H 39.940344 34.960717 66.568125 0
M  V30 77 H 41.008056 37.628728 65.997750 0
M  V30 78 H 40.724487 32.815875 65.956550 0
M  V30 END ATOM
M  V30 BEGIN BOND
M  V30 1 1 4 2
M  V30 2 1 5 3
M  V30 3 1 7 1
M  V30 4 1 12 8
M  V30 5 1 13 5
M  V30 6 1 14 8
M  V30 7 1 14 11
M  V30 8 2 15 10
M  V30 9 1 15 11
M  V30 10 2 16 1
M  V30 11 2 18 13
M  V30 12 1 19 5
M  V30 13 1 20 17
M  V30 14 1 21 3
M  V30 15 1 23 15
M  V30 16 1 24 14
M  V30 17 1 25 3
M  V30 18 1 25 12
M  V30 19 1 27 9
M  V30 20 1 27 25
M  V30 21 1 28 2
M  V30 22 1 29 19
M  V30 23 1 30 1
M  V30 24 2 30 20
M  V30 25 1 30 22
M  V30 26 1 31 16
M  V30 27 1 32 24
M  V30 28 2 33 7
M  V30 29 1 33 22
M  V30 30 1 33 29
M  V30 31 1 34 26
M  V30 32 1 35 6
M  V30 33 1 35 11
M  V30 34 1 35 26
M  V30 35 1 35 34
M  V30 36 1 36 13
M  V30 37 1 37 16
M  V30 38 2 37 17
M  V30 39 1 38 28
M  V30 40 1 38 32
M  V30 41 1 39 2
M  V30 42 1 40 2
M  V30 43 1 3 41 CFG=3
M  V30 44 1 42 4
M  V30 45 1 43 4
M  V30 46 1 44 4
M  V30 47 1 45 6
M  V30 48 1 46 6
M  V30 49 1 47 6
M  V30 50 1 48 8
M  V30 51 1 49 8
M  V30 52 1 50 9
M  V30 53 1 11 51 CFG=3
M  V30 54 1 52 12
M  V30 55 1 53 12
M  V30 56 1 54 17
M  V30 57 1 55 19
M  V30 58 1 56 19
M  V30 59 1 57 20
M  V30 60 1 58 21
M  V30 61 1 59 21
M  V30 62 1 60 21
M  V30 63 1 61 24
M  V30 64 1 62 24
M  V30 65 1 25 63 CFG=3
M  V30 66 1 64 26
M  V30 67 1 65 26
M  V30 68 1 66 28
M  V30 69 1 67 29
M  V30 70 1 68 29
M  V30 71 1 69 31
M  V30 72 1 70 32
M  V30 73 1 71 32
M  V30 74 1 72 34
M  V30 75 1 73 34
M  V30 76 1 74 37
M  V30 77 1 75 38
M  V30 78 1 76 38
M  V30 79 1 77 28
M  V30 80 1 14 78 CFG=1
M  V30 END BOND
M  V30 END CTAB
M  END
>  <i_epik_Tot_Q>  (1) 
0

>  <i_epik_Tot_abs_Q>  (1) 
4

>  <i_i_glide_confnum>  (1) 
3640

>  <i_i_glide_lignum>  (1) 
205

>  <i_i_glide_posenum>  (1) 
62

>  <i_i_glide_rotatable_bonds>  (1) 
20

>  <i_lp_mmshare_version>  (1) 
72125

>  <i_m_source_file_index>  (1) 
87

>  <i_f3d_flags>  (1) 
0

>  <num_sample>  (1) 
100

>  <b_lp_Chiralities_Consistent>  (1) 
1

>  <r_epik_Charging_Adjusted_Penalty>  (1) 
0.22044164317972559

>  <r_epik_Ionization_Penalty>  (1) 
0.19516572318186753

>  <r_epik_Ionization_Penalty_Charging>  (1) 
0.026579669222116228

>  <r_epik_Ionization_Penalty_Neutral>  (1) 
0.16858605395975129

>  <r_epik_State_Penalty>  (1) 
0.19386197395760935

>  <r_glide_ring_energy>  (1) 
0

>  <r_i_docking_score>  (1) 
-6.1864004078304262

>  <r_i_glide_ecoul>  (1) 
-4.9701488209308993

>  <r_i_glide_eff_state_penalty>  (1) 
0.19386197395760935

>  <r_i_glide_einternal>  (1) 
23.159337211448328

>  <r_i_glide_emodel>  (1) 
-64.335899047151884

>  <r_i_glide_emodel_strain>  (1) 
1.1189424338865948

>  <r_i_glide_energy>  (1) 
-53.359682554234034

>  <r_i_glide_erotb>  (1) 
0.94715796475939662

>  <r_i_glide_esite>  (1) 
-0.030699678151750377

>  <r_i_glide_evdw>  (1) 
-48.389533733303132

>  <r_i_glide_gscore>  (1) 
-6.380262381788036

>  <r_i_glide_gscore_strain>  (1) 
0

>  <r_i_glide_hbond>  (1) 
-0.15654506553810751

>  <r_i_glide_ligand_efficiency>  (1) 
-0.16280001073237962

>  <r_i_glide_ligand_efficiency_ln>  (1) 
-1.3339699133903358

>  <r_i_glide_ligand_efficiency_sa>  (1) 
-0.54732963230886778

>  <r_i_glide_lipo>  (1) 
-3.5349459886882215

>  <r_i_glide_metal>  (1) 
-0

>  <r_i_glide_rewards>  (1) 
-0.44023060436456191

>  <r_lp_Energy>  (1) 
38.677337999999999

>  <s_epik_cmdline>  (1) 
J2VwaWtfcHl0aG9uJywgJy1waHQnLCAnMS4wJywgJy1waCcsICc3LjQnLCAnLXRuJywgJzgnLCAnLW1hJywgJzUwMCcsICctaW1hZScsICc8aW5maWxlLm1hZT4nLCAnLW9tYWUnLCAnPG91dGZpbGUubWFlPic=

>  <s_epik_input>  (1) 
W09IXWMxW2NIXVtjSF1bY0hdYyhjMTIpc2MobjIpW0NIMl1bQ0gyXU4oQyg9TylbT0hdKVtDQEhdKFtDSDNdKVtDQEBIXShPW09IXSlbQ0gyXVtDSDJdTihbQ0BIXShDKD1PKVtPSF0pQzMoW0NIM10pW0NIMl1bQ0gyXTMpW0NIMl1bQ0gyXVtDSDJdW05IXVtDSDJdW0NIM10=

>  <s_glide_docking_method>  (1) 
confgen

>  <s_i_glide_gridfile>  (1) 
gpcr_5ht2c_6bqh_protein_autoprepared_prepared

>  <s_lp_Force_Field>  (1) 
S-OPLS

>  <s_lp_Variant>  (1) 
DiffSBDD_86-2

>  <s_m_source_file>  (1) 
generated_GPCR_5HT2C_ligand_DiffSBDD_2026-06-23_prepared.sdf

>  <GenAI_Model>  (1) 
DiffSBDD

>  <Protein>  (1) 
GPCR_5HT2C

$$$$
DiffSBDD_62
     RDKit          3D

  0  0  0  0  0  0  0  0  0  0999 V3000
M  V30 BEGIN CTAB
M  V30 COUNTS 79 83 0 0 1
M  V30 BEGIN ATOM
M  V30 1 C 38.719351 28.610320 55.958047 0
M  V30 2 C 41.888928 31.435245 67.132754 0
M  V30 3 C 38.570616 33.720535 61.843533 0
M  V30 4 C 39.197599 27.336029 58.153752 0
M  V30 5 C 39.142356 29.291749 51.144965 0
M  V30 6 C 40.943709 28.984744 66.957770 0
M  V30 7 C 39.348198 32.824775 60.850171 0 CFG=2
M  V30 8 C 41.055652 30.669708 65.123929 0
M  V30 9 C 40.389428 30.426678 62.878658 0
M  V30 10 O 37.245398 28.537147 53.490144 0
M  V30 11 C 38.602981 27.956915 51.622804 0
M  V30 12 C 41.842903 33.824317 63.368099 0
M  V30 13 C 38.920189 28.667981 57.481712 0
M  V30 14 C 38.207300 27.902569 53.054788 0
M  V30 15 C 41.352205 32.462398 63.618423 0
M  V30 16 N 41.445686 31.911235 64.870233 0
M  V30 17 C 38.711787 35.251565 61.642663 0
M  V30 18 O 37.994360 33.737726 57.378681 0
M  V30 19 C 40.043892 28.095244 51.172303 0
M  V30 20 N 38.335216 26.425829 54.913019 0
M  V30 21 N 42.027951 32.596569 66.029268 0
M  V30 22 N 38.849652 29.750812 58.152413 0
M  V30 23 C 38.509672 31.018351 57.534128 0
M  V30 24 C 41.259013 30.324344 66.325551 0
M  V30 25 C 40.853172 31.805846 62.640090 0
M  V30 26 C 41.728277 33.662339 61.767797 0
M  V30 27 N 38.996422 27.119562 53.826035 0
M  V30 28 C 37.948469 33.157085 58.662230 0 CFG=2
M  V30 29 C 39.296582 27.373506 55.247901 0 CFG=1
M  V30 30 C 36.338838 35.737768 62.335656 0
M  V30 31 C 37.805229 36.137882 62.495237 0
M  V30 32 C 40.784356 32.443308 61.308486 0 CFG=2
M  V30 33 C 37.948801 37.587441 62.036323 0
M  V30 34 C 39.284155 33.367991 59.400120 0
M  V30 35 N 37.645128 31.747172 58.453353 0
M  V30 36 N 40.482350 29.891546 64.056249 0
M  V30 37 H 37.646503 28.693001 55.805300 0
M  V30 38 H 39.184311 29.480356 55.493979 0
M  V30 39 H 41.239083 31.755355 67.947363 0
M  V30 40 H 42.868878 31.154272 67.519700 0
M  V30 41 H 37.527696 33.432053 61.735541 0
M  V30 42 H 38.844892 33.467478 62.866501 0
M  V30 43 H 38.503829 26.572915 57.800390 0
M  V30 44 H 40.219769 27.009962 57.962487 0
M  V30 45 H 39.066161 27.425476 59.232637 0
M  V30 46 H 38.845527 29.651486 50.168217 0
M  V30 47 H 39.331905 30.068455 51.883931 0
M  V30 48 H 41.852814 28.527255 67.348086 0
M  V30 49 H 40.244147 29.122780 67.779916 0
M  V30 50 H 40.493510 28.294361 66.244177 0
M  V30 51 H 38.821206 31.869190 60.831983 0
M  V30 52 H 39.976907 29.895629 62.017086 0
M  V30 53 H 37.931785 27.419987 50.967754 0
M  V30 54 H 41.145389 34.564559 63.760036 0
M  V30 55 H 42.845011 34.014429 63.742365 0
M  V30 56 H 39.737818 35.570614 61.802692 0
M  V30 57 H 38.454439 35.515298 60.620319 0
M  V30 58 H 40.845246 28.137886 51.891316 0
M  V30 59 H 40.301030 27.628569 50.223554 0
M  V30 60 H 37.365636 26.680800 55.044637 0
M  V30 61 H 43.009442 32.781261 65.832408 0
M  V30 62 H 37.946838 30.911120 56.606683 0
M  V30 63 H 39.416849 31.567099 57.286257 0
M  V30 64 H 42.713762 33.337838 61.423264 0
M  V30 65 H 41.540003 34.603553 61.256229 0
M  V30 66 H 37.132394 33.613663 59.223897 0
M  V30 67 H 40.278438 27.039595 55.577391 0
M  V30 68 H 36.074023 35.843736 61.281767 0
M  V30 69 H 36.045781 34.716956 62.567785 0
M  V30 70 H 35.705759 36.369303 62.967519 0
M  V30 71 H 38.097695 36.121768 63.545363 0
M  V30 72 H 41.279137 31.814349 60.567989 0
M  V30 73 H 37.753625 37.705951 60.969379 0
M  V30 74 H 37.209914 38.179741 62.567056 0
M  V30 75 H 38.947629 37.976245 62.237120 0
M  V30 76 H 40.045126 32.937810 58.795675 0
M  V30 77 H 39.600760 34.402576 59.368504 0
M  V30 78 H 36.715906 31.727781 58.015793 0
M  V30 79 H 37.279797 34.355048 57.299930 0
M  V30 END ATOM
M  V30 BEGIN BOND
M  V30 1 1 7 3
M  V30 2 1 11 5
M  V30 3 1 13 1
M  V30 4 1 13 4
M  V30 5 2 14 10
M  V30 6 1 14 11
M  V30 7 1 15 12
M  V30 8 1 16 8
M  V30 9 1 16 15
M  V30 10 1 17 3
M  V30 11 1 19 5
M  V30 12 1 19 11
M  V30 13 1 21 2
M  V30 14 1 21 16
M  V30 15 2 22 13
M  V30 16 1 23 22
M  V30 17 1 24 2
M  V30 18 1 24 6
M  V30 19 2 24 8
M  V30 20 1 25 9
M  V30 21 2 25 15
M  V30 22 1 26 12
M  V30 23 1 27 14
M  V30 24 1 27 20
M  V30 25 1 28 18
M  V30 26 1 29 1
M  V30 27 1 29 20
M  V30 28 1 29 27
M  V30 29 1 31 17
M  V30 30 1 31 30
M  V30 31 1 32 7
M  V30 32 1 32 25
M  V30 33 1 32 26
M  V30 34 1 33 31
M  V30 35 1 34 7
M  V30 36 1 34 28
M  V30 37 1 35 23
M  V30 38 1 35 28
M  V30 39 1 36 8
M  V30 40 2 36 9
M  V30 41 1 37 1
M  V30 42 1 38 1
M  V30 43 1 39 2
M  V30 44 1 40 2
M  V30 45 1 41 3
M  V30 46 1 42 3
M  V30 47 1 43 4
M  V30 48 1 44 4
M  V30 49 1 45 4
M  V30 50 1 46 5
M  V30 51 1 47 5
M  V30 52 1 48 6
M  V30 53 1 49 6
M  V30 54 1 50 6
M  V30 55 1 7 51 CFG=3
M  V30 56 1 52 9
M  V30 57 1 53 11
M  V30 58 1 54 12
M  V30 59 1 55 12
M  V30 60 1 56 17
M  V30 61 1 57 17
M  V30 62 1 58 19
M  V30 63 1 59 19
M  V30 64 1 60 20
M  V30 65 1 61 21
M  V30 66 1 62 23
M  V30 67 1 63 23
M  V30 68 1 64 26
M  V30 69 1 65 26
M  V30 70 1 28 66 CFG=1
M  V30 71 1 29 67 CFG=3
M  V30 72 1 68 30
M  V30 73 1 69 30
M  V30 74 1 70 30
M  V30 75 1 71 31
M  V30 76 1 32 72 CFG=3
M  V30 77 1 73 33
M  V30 78 1 74 33
M  V30 79 1 75 33
M  V30 80 1 76 34
M  V30 81 1 77 34
M  V30 82 1 78 35
M  V30 83 1 79 18
M  V30 END BOND
M  V30 END CTAB
M  END
>  <i_epik_Tot_Q>  (1) 
0

>  <i_epik_Tot_abs_Q>  (1) 
0

>  <i_i_glide_confnum>  (1) 
1208

>  <i_i_glide_lignum>  (1) 
135

>  <i_i_glide_posenum>  (1) 
283

>  <i_i_glide_rotatable_bonds>  (1) 
14

>  <i_lp_mmshare_version>  (1) 
72125

>  <i_m_source_file_index>  (1) 
63

>  <i_f3d_flags>  (1) 
0

>  <num_sample>  (1) 
100

>  <b_lp_Chiralities_Consistent>  (1) 
1

>  <r_epik_Charging_Adjusted_Penalty>  (1) 
0.66759273229091232

>  <r_epik_Ionization_Penalty>  (1) 
2.307606927441598

>  <r_epik_Ionization_Penalty_Charging>  (1) 
0

>  <r_epik_Ionization_Penalty_Neutral>  (1) 
2.307606927441598

>  <r_epik_State_Penalty>  (1) 
0.66759273229091232

>  <r_glide_ring_energy>  (1) 
0

>  <r_i_docking_score>  (1) 
-6.1860233030885112

>  <r_i_glide_ecoul>  (1) 
-3.5709991874300551

>  <r_i_glide_eff_state_penalty>  (1) 
0.66759273229091232

>  <r_i_glide_einternal>  (1) 
14.026832842398868

>  <r_i_glide_emodel>  (1) 
-55.545669277167704

>  <r_i_glide_emodel_strain>  (1) 
0.6949333683775194

>  <r_i_glide_energy>  (1) 
-39.687974028055621

>  <r_i_glide_erotb>  (1) 
0.98835574197518972

>  <r_i_glide_esite>  (1) 
-0.13104126694697019

>  <r_i_glide_evdw>  (1) 
-36.116974840625566

>  <r_i_glide_gscore>  (1) 
-6.8536160353794235

>  <r_i_glide_gscore_strain>  (1) 
0

>  <r_i_glide_hbond>  (1) 
-0.39438311378266383

>  <r_i_glide_ligand_efficiency>  (1) 
-0.17183398064134753

>  <r_i_glide_ligand_efficiency_ln>  (1) 
-1.3496231576981725

>  <r_i_glide_ligand_efficiency_sa>  (1) 
-0.56738330296569728

>  <r_i_glide_lipo>  (1) 
-3.1513471086898468

>  <r_i_glide_metal>  (1) 
-0

>  <r_i_glide_rewards>  (1) 
-1.8237016677893467

>  <r_lp_Energy>  (1) 
30.718252999999997

>  <r_lp_tautomer_probability>  (1) 
0.49999399997599986

>  <s_epik_Chemistry_Notes>  (1) 
This compound has an imine and may undergo hydrolysis. This compound contains an acetal/aminal-like group ( X-CH(R)-Y where X, Y are N, S, or O) that may be acid/base labile, releasing an aldehyde.

>  <s_epik_cmdline>  (1) 
J2VwaWtfcHl0aG9uJywgJy1waHQnLCAnMS4wJywgJy1waCcsICc3LjQnLCAnLXRuJywgJzgnLCAnLW1hJywgJzUwMCcsICctaW1hZScsICc8aW5maWxlLm1hZT4nLCAnLW9tYWUnLCAnPG91dGZpbGUubWFlPic=

>  <s_epik_input>  (1) 
W0NIMl0xW0NIMl1bQ0hdMUMoPU8pTjJbTkhdW0NAQEhdMltDSDJdL0MoW0NIM10pPU5cW0NIMl1bTkhdW0NASF0oW09IXSlbQ0gyXVtDQEhdKFtDSDJdW0NIMl1bQ0hdKFtDSDNdKVtDSDNdKVtDQEBIXShbQ0gyXVtDSDJdMylDKFtDSF09TjQpPUMzTihDND01KVtOSF1bQ0gyXUM1W0NIM10=

>  <s_glide_docking_method>  (1) 
confgen

>  <s_i_glide_gridfile>  (1) 
gpcr_5ht2c_6bqh_protein_autoprepared_prepared

>  <s_lp_Force_Field>  (1) 
S-OPLS

>  <s_lp_Variant>  (1) 
DiffSBDD_62-1

>  <s_m_source_file>  (1) 
generated_GPCR_5HT2C_ligand_DiffSBDD_2026-06-23_prepared.sdf

>  <GenAI_Model>  (1) 
DiffSBDD

>  <Protein>  (1) 
GPCR_5HT2C

$$$$
DiffSBDD_73
     RDKit          3D

  0  0  0  0  0  0  0  0  0  0999 V3000
M  V30 BEGIN CTAB
M  V30 COUNTS 64 65 0 0 1
M  V30 BEGIN ATOM
M  V30 1 C 36.583066 33.296447 61.051436 0 CFG=1
M  V30 2 C 37.350122 28.818587 57.886907 0
M  V30 3 N 39.129604 28.882265 54.556914 0
M  V30 4 C 38.553777 36.394128 62.293545 0
M  V30 5 C 37.695611 35.575812 61.615506 0
M  V30 6 C 36.741049 31.771561 60.967282 0
M  V30 7 C 38.804149 27.721413 53.712158 0 CFG=2
M  V30 8 N 38.045144 31.104966 57.071343 0
M  V30 9 O 37.049823 29.807017 54.567849 0
M  V30 10 C 34.407770 33.227568 59.421901 0
M  V30 11 C 38.745526 30.975168 55.777097 0 CFG=1
M  V30 12 C 40.456555 34.642637 62.936124 0
M  V30 13 C 39.863579 36.028638 62.989717 0 CFG=1
M  V30 14 C 38.232323 29.826361 54.899414 0
M  V30 15 O 37.127760 31.327622 59.672912 0
M  V30 16 C 39.408447 28.940279 51.519165 0
M  V30 17 C 37.844450 34.115806 61.333741 0
M  V30 18 C 40.378969 34.162772 61.524955 0
M  V30 19 C 38.294524 30.022114 58.049182 0 CFG=1
M  V30 20 C 35.424853 33.947549 60.281520 0 CFG=1
M  V30 21 O 40.845131 36.937750 62.567761 0
M  V30 22 C 38.369176 28.099469 52.276306 0
M  V30 23 C 38.181112 30.498776 59.503014 0
M  V30 24 O 38.929173 30.103640 60.397928 0
M  V30 25 C 38.648768 32.287170 54.992757 0
M  V30 26 C 39.057062 33.501355 61.314715 0
M  V30 27 C 37.825578 26.756292 54.401346 0
M  V30 28 C 35.319626 33.737648 61.767760 0
M  V30 29 H 37.645125 28.022658 58.567752 0
M  V30 30 H 36.312112 29.082934 58.094216 0
M  V30 31 H 37.395050 28.369037 56.902906 0
M  V30 32 H 40.076826 28.966406 54.893281 0
M  V30 33 H 38.268689 37.430062 62.399409 0
M  V30 34 H 36.794833 36.044663 61.258176 0
M  V30 35 H 37.398086 31.420655 61.763593 0
M  V30 36 H 35.777304 31.305452 61.172802 0
M  V30 37 H 39.737059 27.166985 53.613801 0
M  V30 38 H 37.049143 31.337776 56.967763 0
M  V30 39 H 34.603770 32.158552 59.356059 0
M  V30 40 H 33.404310 33.370369 59.822669 0
M  V30 41 H 34.424647 33.662193 58.426156 0
M  V30 42 H 39.804669 30.806833 55.978786 0
M  V30 43 H 41.495051 34.667499 63.271314 0
M  V30 44 H 39.948955 33.953669 63.610602 0
M  V30 45 H 39.696851 36.258227 64.042507 0
M  V30 46 H 39.070637 29.147187 50.503925 0
M  V30 47 H 39.586552 29.898474 52.007616 0
M  V30 48 H 40.362362 28.417296 51.449028 0
M  V30 49 H 41.151356 33.409466 61.367770 0
M  V30 50 H 40.550787 34.948361 60.786787 0
M  V30 51 H 39.318433 29.671162 57.913813 0
M  V30 52 H 35.575401 34.967373 59.941413 0
M  V30 53 H 41.295286 37.276924 63.332983 0
M  V30 54 H 38.187606 27.185870 51.708927 0
M  V30 55 H 37.413829 28.623791 52.287870 0
M  V30 56 H 39.107766 32.167592 54.010792 0
M  V30 57 H 37.612610 32.592806 54.841354 0
M  V30 58 H 39.162464 33.097017 55.512044 0
M  V30 59 H 39.109469 32.452806 61.107967 0
M  V30 60 H 37.691230 25.847705 53.813746 0
M  V30 61 H 38.188752 26.462872 55.386399 0
M  V30 62 H 36.845169 27.207494 54.528730 0
M  V30 63 H 34.612708 32.978185 62.096040 0
M  V30 64 H 35.360193 34.605135 62.420520 0
M  V30 END ATOM
M  V30 BEGIN BOND
M  V30 1 2 5 4
M  V30 2 1 1 6 CFG=3
M  V30 3 1 7 3
M  V30 4 1 11 8
M  V30 5 1 13 4
M  V30 6 1 13 12
M  V30 7 1 14 3
M  V30 8 2 14 9
M  V30 9 1 14 11
M  V30 10 1 15 6
M  V30 11 1 17 1
M  V30 12 1 17 5
M  V30 13 1 18 12
M  V30 14 1 19 2
M  V30 15 1 19 8
M  V30 16 1 20 1
M  V30 17 1 20 10
M  V30 18 1 21 13
M  V30 19 1 22 7
M  V30 20 1 22 16
M  V30 21 1 23 15
M  V30 22 1 23 19
M  V30 23 2 24 23
M  V30 24 1 25 11
M  V30 25 2 26 17
M  V30 26 1 26 18
M  V30 27 1 27 7
M  V30 28 1 28 1
M  V30 29 1 28 20
M  V30 30 1 29 2
M  V30 31 1 30 2
M  V30 32 1 31 2
M  V30 33 1 32 3
M  V30 34 1 33 4
M  V30 35 1 34 5
M  V30 36 1 35 6
M  V30 37 1 36 6
M  V30 38 1 7 37 CFG=3
M  V30 39 1 38 8
M  V30 40 1 39 10
M  V30 41 1 40 10
M  V30 42 1 41 10
M  V30 43 1 11 42 CFG=1
M  V30 44 1 43 12
M  V30 45 1 44 12
M  V30 46 1 13 45 CFG=1
M  V30 47 1 46 16
M  V30 48 1 47 16
M  V30 49 1 48 16
M  V30 50 1 49 18
M  V30 51 1 50 18
M  V30 52 1 19 51 CFG=1
M  V30 53 1 20 52 CFG=1
M  V30 54 1 53 21
M  V30 55 1 54 22
M  V30 56 1 55 22
M  V30 57 1 56 25
M  V30 58 1 57 25
M  V30 59 1 58 25
M  V30 60 1 59 26
M  V30 61 1 60 27
M  V30 62 1 61 27
M  V30 63 1 62 27
M  V30 64 1 63 28
M  V30 65 1 64 28
M  V30 END BOND
M  V30 END CTAB
M  END
>  <i_epik_Tot_Q>  (1) 
0

>  <i_epik_Tot_abs_Q>  (1) 
0

>  <i_i_glide_confnum>  (1) 
1528

>  <i_i_glide_lignum>  (1) 
158

>  <i_i_glide_posenum>  (1) 
268

>  <i_i_glide_rotatable_bonds>  (1) 
12

>  <i_lp_mmshare_version>  (1) 
72125

>  <i_m_source_file_index>  (1) 
74

>  <i_f3d_flags>  (1) 
0

>  <num_sample>  (1) 
100

>  <b_lp_Chiralities_Consistent>  (1) 
1

>  <r_epik_Charging_Adjusted_Penalty>  (1) 
0.088841992990236665

>  <r_epik_Ionization_Penalty>  (1) 
0.088842122646257599

>  <r_epik_Ionization_Penalty_Charging>  (1) 
0

>  <r_epik_Ionization_Penalty_Neutral>  (1) 
0.088842122646257599

>  <r_epik_State_Penalty>  (1) 
0.088841992990236665

>  <r_glide_ring_energy>  (1) 
0

>  <r_i_docking_score>  (1) 
-6.1858686629720427

>  <r_i_glide_ecoul>  (1) 
-5.7376356507259931

>  <r_i_glide_eff_state_penalty>  (1) 
0.088841992990236665

>  <r_i_glide_einternal>  (1) 
16.408801588208238

>  <r_i_glide_emodel>  (1) 
-54.502610135160879

>  <r_i_glide_emodel_strain>  (1) 
2.0353274346560823

>  <r_i_glide_energy>  (1) 
-48.08541142750898

>  <r_i_glide_erotb>  (1) 
1.2671681791471729

>  <r_i_glide_esite>  (1) 
-0.0035411919900328287

>  <r_i_glide_evdw>  (1) 
-42.347775776782989

>  <r_i_glide_gscore>  (1) 
-6.2747106559622798

>  <r_i_glide_gscore_strain>  (1) 
0

>  <r_i_glide_hbond>  (1) 
-0.45599999999999996

>  <r_i_glide_ligand_efficiency>  (1) 
-0.2209238808204301

>  <r_i_glide_ligand_efficiency_ln>  (1) 
-1.4278801124099916

>  <r_i_glide_ligand_efficiency_sa>  (1) 
-0.67085502012329135

>  <r_i_glide_lipo>  (1) 
-3.0770986933149498

>  <r_i_glide_metal>  (1) 
-0

>  <r_i_glide_rewards>  (1) 
-1.0272048133564211

>  <r_lp_Energy>  (1) 
23.544556

>  <s_epik_Chemistry_Notes>  (1) 
This compound has an ester and may undergo hydrolysis at high or low pH.

>  <s_epik_cmdline>  (1) 
J2VwaWtfcHl0aG9uJywgJy1waHQnLCAnMS4wJywgJy1waCcsICc3LjQnLCAnLXRuJywgJzgnLCAnLW1hJywgJzUwMCcsICctaW1hZScsICc8aW5maWxlLm1hZT4nLCAnLW9tYWUnLCAnPG91dGZpbGUubWFlPic=

>  <s_epik_input>  (1) 
W09IXVtDQEhdMVtDSF09W0NIXUMoPVtDSF1bQ0gyXVtDSDJdMSlbQ0BAXTIoW0NAQEhdKFtDSDNdKVtDSDJdMilbQ0gyXU9DKD1PKVtDQEBIXShbQ0gzXSlbTkhdW0NASF0oW0NIM10pQyg9TylbTkhdW0NAQEhdKFtDSDNdKVtDSDJdW0NIM10=

>  <s_glide_docking_method>  (1) 
confgen

>  <s_i_glide_gridfile>  (1) 
gpcr_5ht2c_6bqh_protein_autoprepared_prepared

>  <s_lp_Force_Field>  (1) 
S-OPLS

>  <s_lp_Variant>  (1) 
DiffSBDD_73-1

>  <s_m_source_file>  (1) 
generated_GPCR_5HT2C_ligand_DiffSBDD_2026-06-23_prepared.sdf

>  <GenAI_Model>  (1) 
DiffSBDD

>  <Protein>  (1) 
GPCR_5HT2C

$$$$
DiffSBDD_25
     RDKit          3D

  0  0  0  0  0  0  0  0  0  0999 V3000
M  V30 BEGIN CTAB
M  V30 COUNTS 67 70 0 0 1
M  V30 BEGIN ATOM
M  V30 1 C 39.406783 35.015520 61.367672 0
M  V30 2 C 37.517500 28.530375 53.128476 0
M  V30 3 O 39.706301 36.165949 61.762384 0 CHG=-1
M  V30 4 C 38.845114 32.674465 56.865700 0
M  V30 5 N 38.178763 31.123705 60.132240 0
M  V30 6 C 38.801641 27.807197 52.723853 0
M  V30 7 C 37.221387 35.900427 60.294058 0
M  V30 8 C 35.519685 34.537603 59.524199 0
M  V30 9 C 40.230898 25.872307 55.740217 0
M  V30 10 C 39.133114 26.615524 53.620846 0
M  V30 11 C 39.112617 26.784522 55.173154 0 CFG=2
M  V30 12 C 35.413424 32.031269 59.813167 0
M  V30 13 O 37.604842 24.947518 55.202320 0
M  V30 14 O 38.648874 32.141492 62.167840 0
M  V30 15 N 38.411811 30.390373 56.444416 0
M  V30 16 C 37.431383 33.459303 60.579635 0
M  V30 17 O 40.207312 34.060514 61.423829 0
M  V30 18 C 37.584898 26.281200 57.129426 0
M  V30 19 C 38.002337 34.786660 60.753104 0
M  V30 20 C 39.376148 28.249958 55.628349 0
M  V30 21 C 38.194620 29.255134 55.536261 0 CFG=2
M  V30 22 C 38.156785 32.185389 61.042652 0
M  V30 23 C 38.266697 30.119597 57.877766 0
M  V30 24 N 36.045138 35.762283 59.672393 0
M  V30 25 C 36.663003 25.093796 57.277783 0
M  V30 26 C 38.701047 31.664114 56.023390 0
M  V30 27 N 37.663184 37.206968 60.454233 0
M  V30 28 N 37.806308 26.311210 55.683201 0
M  V30 29 C 37.816827 29.677446 54.096342 0
M  V30 30 C 38.389916 31.321157 58.859091 0
M  V30 31 C 36.373113 23.004609 55.786229 0
M  V30 32 N 38.725685 32.554388 58.239699 0
M  V30 33 C 37.282220 24.128555 56.297599 0 CFG=1
M  V30 34 C 36.141434 33.367492 59.965442 0
M  V30 35 H 36.777728 27.840688 53.536003 0
M  V30 36 H 37.075224 28.937734 52.221935 0
M  V30 37 H 39.064558 33.675162 56.530158 0
M  V30 38 H 38.679156 27.428239 51.707414 0
M  V30 39 H 39.645138 28.496094 52.670952 0
M  V30 40 H 34.545462 34.493162 59.059589 0
M  V30 41 H 41.192096 26.116698 55.299040 0
M  V30 42 H 40.371773 25.965332 56.815752 0
M  V30 43 H 40.045132 24.821569 55.524554 0
M  V30 44 H 38.422803 25.851856 53.339163 0
M  V30 45 H 40.101400 26.235521 53.294175 0
M  V30 46 H 34.350606 32.204164 59.644500 0
M  V30 47 H 35.760345 31.448052 58.967762 0
M  V30 48 H 35.487433 31.425518 60.715920 0
M  V30 49 H 38.495699 26.101477 57.695581 0
M  V30 50 H 37.143283 27.205202 57.500391 0
M  V30 51 H 40.231483 28.670077 55.106241 0
M  V30 52 H 39.709281 28.189643 56.661222 0
M  V30 53 H 37.302826 28.780638 55.933365 0
M  V30 54 H 37.287184 29.666627 58.032607 0
M  V30 55 H 38.997229 29.379163 58.195144 0
M  V30 56 H 35.645140 25.337775 56.977877 0
M  V30 57 H 36.649029 24.699015 58.289671 0
M  V30 58 H 38.796625 31.784484 54.960871 0
M  V30 59 H 38.527954 37.400264 60.955388 0
M  V30 60 H 37.103688 37.995515 60.168239 0
M  V30 61 H 36.938809 30.321086 54.167759 0
M  V30 62 H 38.606225 30.268172 53.634492 0
M  V30 63 H 36.165535 22.272246 56.565170 0
M  V30 64 H 35.422438 23.396959 55.424140 0
M  V30 65 H 36.844997 22.477329 54.957680 0
M  V30 66 H 38.209828 23.737758 56.714943 0
M  V30 67 H 38.838965 33.402353 58.778462 0
M  V30 END ATOM
M  V30 BEGIN BOND
M  V30 1 1 3 1
M  V30 2 1 6 2
M  V30 3 1 10 6
M  V30 4 1 11 9 CFG=1
M  V30 5 1 11 10
M  V30 6 2 17 1
M  V30 7 1 19 1
M  V30 8 2 19 7
M  V30 9 1 19 16
M  V30 10 1 20 11
M  V30 11 1 21 15
M  V30 12 1 21 20
M  V30 13 1 22 5
M  V30 14 2 22 14
M  V30 15 1 22 16
M  V30 16 1 23 15
M  V30 17 1 24 7
M  V30 18 2 24 8
M  V30 19 1 25 18
M  V30 20 2 26 4
M  V30 21 1 26 15
M  V30 22 1 27 7
M  V30 23 1 28 11
M  V30 24 1 28 13
M  V30 25 1 28 18
M  V30 26 1 29 2
M  V30 27 1 29 21
M  V30 28 2 30 5
M  V30 29 1 30 23
M  V30 30 1 32 4
M  V30 31 1 32 30
M  V30 32 1 33 13
M  V30 33 1 33 25
M  V30 34 1 33 31
M  V30 35 1 34 8
M  V30 36 1 34 12
M  V30 37 2 34 16
M  V30 38 1 35 2
M  V30 39 1 36 2
M  V30 40 1 37 4
M  V30 41 1 38 6
M  V30 42 1 39 6
M  V30 43 1 40 8
M  V30 44 1 41 9
M  V30 45 1 42 9
M  V30 46 1 43 9
M  V30 47 1 44 10
M  V30 48 1 45 10
M  V30 49 1 46 12
M  V30 50 1 47 12
M  V30 51 1 48 12
M  V30 52 1 49 18
M  V30 53 1 50 18
M  V30 54 1 51 20
M  V30 55 1 52 20
M  V30 56 1 21 53 CFG=1
M  V30 57 1 54 23
M  V30 58 1 55 23
M  V30 59 1 56 25
M  V30 60 1 57 25
M  V30 61 1 58 26
M  V30 62 1 59 27
M  V30 63 1 60 27
M  V30 64 1 61 29
M  V30 65 1 62 29
M  V30 66 1 63 31
M  V30 67 1 64 31
M  V30 68 1 65 31
M  V30 69 1 33 66 CFG=1
M  V30 70 1 67 32
M  V30 END BOND
M  V30 END CTAB
M  END
>  <i_epik_Tot_Q>  (1) 
-1

>  <i_epik_Tot_abs_Q>  (1) 
1

>  <i_i_glide_confnum>  (1) 
183

>  <i_i_glide_lignum>  (1) 
62

>  <i_i_glide_posenum>  (1) 
13

>  <i_i_glide_rotatable_bonds>  (1) 
5

>  <i_lp_mmshare_version>  (1) 
72125

>  <i_m_source_file_index>  (1) 
26

>  <i_f3d_flags>  (1) 
0

>  <num_sample>  (1) 
100

>  <b_lp_Chiralities_Consistent>  (1) 
1

>  <r_epik_Charging_Adjusted_Penalty>  (1) 
0.31558791334810349

>  <r_epik_Ionization_Penalty>  (1) 
0.22690283062159758

>  <r_epik_Ionization_Penalty_Charging>  (1) 
2.1847890769935955e-05

>  <r_epik_Ionization_Penalty_Neutral>  (1) 
0.22688098273082763

>  <r_epik_State_Penalty>  (1) 
0.31556606545733357

>  <r_glide_ring_energy>  (1) 
0.46074122313067051

>  <r_i_docking_score>  (1) 
-6.1853071344619606

>  <r_i_glide_ecoul>  (1) 
0.88224910836500081

>  <r_i_glide_eff_state_penalty>  (1) 
0.31556606545733357

>  <r_i_glide_einternal>  (1) 
3.1601898106999471

>  <r_i_glide_emodel>  (1) 
-58.867187393062601

>  <r_i_glide_emodel_strain>  (1) 
0.48998590614857562

>  <r_i_glide_energy>  (1) 
-44.954704026895726

>  <r_i_glide_erotb>  (1) 
0.36642180475109298

>  <r_i_glide_esite>  (1) 
-0.13660491145726808

>  <r_i_glide_evdw>  (1) 
-45.836953135260728

>  <r_i_glide_gscore>  (1) 
-6.5008731999192939

>  <r_i_glide_gscore_strain>  (1) 
0

>  <r_i_glide_hbond>  (1) 
0

>  <r_i_glide_ligand_efficiency>  (1) 
-0.1819207980724106

>  <r_i_glide_ligand_efficiency_ln>  (1) 
-1.3665078379912035

>  <r_i_glide_ligand_efficiency_sa>  (1) 
-0.5893527643331995

>  <r_i_glide_lipo>  (1) 
-3.1386580352828566

>  <r_i_glide_metal>  (1) 
-0

>  <r_i_glide_rewards>  (1) 
-1.4325217674219763

>  <r_lp_Energy>  (1) 
74.56592599999999

>  <s_epik_Chemistry_Notes>  (1) 
This compound has an imine and may undergo hydrolysis. This compound has a N-S or N-O group and may undergo hydrolysis at high or low pH.

>  <s_epik_cmdline>  (1) 
J2VwaWtfcHl0aG9uJywgJy1waHQnLCAnMS4wJywgJy1waCcsICc3LjQnLCAnLXRuJywgJzgnLCAnLW1hJywgJzUwMCcsICctaW1hZScsICc8aW5maWxlLm1hZT4nLCAnLW9tYWUnLCAnPG91dGZpbGUubWFlPic=

>  <s_epik_input>  (1) 
W09IXUMoPU8pYyhjMVtOSDJdKWMoYyhbY0hdbjEpW0NIM10pQyg9TylbTkhdQyg9TltDSF09W0NIXTIpW0NIMl1OMltDQEhdKFtDSDJdMylbQ0gyXVtDSDJdW0NIMl1bQ0gyXVtDQF0zKFtDSDNdKU40T1tDQEBIXShbQ0gzXSlbQ0gyXVtDSDJdNA==

>  <s_glide_docking_method>  (1) 
confgen

>  <s_i_glide_gridfile>  (1) 
gpcr_5ht2c_6bqh_protein_autoprepared_prepared

>  <s_lp_Force_Field>  (1) 
S-OPLS

>  <s_lp_Variant>  (1) 
DiffSBDD_25-2

>  <s_m_source_file>  (1) 
generated_GPCR_5HT2C_ligand_DiffSBDD_2026-06-23_prepared.sdf

>  <GenAI_Model>  (1) 
DiffSBDD

>  <Protein>  (1) 
GPCR_5HT2C

$$$$
DiffSBDD_4
     RDKit          3D

  0  0  0  0  0  0  0  0  0  0999 V3000
M  V30 BEGIN CTAB
M  V30 COUNTS 71 74 0 0 1
M  V30 BEGIN ATOM
M  V30 1 C 40.743854 27.102178 57.270171 0
M  V30 2 C 42.770868 29.049866 68.838152 0
M  V30 3 C 41.676053 31.988010 65.298317 0
M  V30 4 N 39.968196 28.313942 57.483683 0
M  V30 5 C 40.647741 28.869833 59.780848 0
M  V30 6 O 41.719614 34.077441 64.136095 0
M  V30 7 C 37.228332 25.375695 55.900316 0
M  V30 8 C 37.547073 30.157655 55.085311 0
M  V30 9 C 41.420175 32.884847 64.077085 0
M  V30 10 O 37.958579 27.593283 56.450776 0
M  V30 11 C 38.158800 26.230625 56.452714 0
M  V30 12 C 39.310594 31.055300 56.388882 0
M  V30 13 C 42.522112 29.499150 63.756871 0
M  V30 14 O 39.245142 28.739479 61.737052 0
M  V30 15 O 37.126229 24.137735 55.767099 0 CHG=-1
M  V30 16 C 40.570705 33.160098 61.771101 0
M  V30 17 C 42.734300 29.305342 66.288667 0 CFG=1
M  V30 18 C 38.993714 28.523119 56.435915 0 CFG=1
M  V30 19 C 39.486588 28.464475 58.857665 0
M  V30 20 C 38.306822 29.909206 56.388054 0 CFG=2
M  V30 21 O 40.845242 30.386938 61.633282 0
M  V30 22 N 40.866470 32.327857 62.954133 0
M  V30 23 C 42.943870 28.604234 64.927730 0
M  V30 24 N 37.476448 31.625958 54.967761 0 CHG=1
M  V30 25 C 40.496528 30.894049 62.900179 0 CFG=2
M  V30 26 C 38.549898 32.225820 55.775339 0
M  V30 27 C 40.160797 29.314492 61.155697 0
M  V30 28 C 41.070244 29.955547 63.998599 0 CFG=2
M  V30 29 O 41.390616 29.798589 66.384473 0
M  V30 30 C 42.968060 28.355403 67.482224 0 CFG=1
M  V30 31 S 39.645143 25.666964 57.239152 0
M  V30 32 C 39.284198 33.976858 61.962933 0
M  V30 33 C 40.930865 30.655622 65.334007 0 CFG=1
M  V30 34 O 44.289034 27.847595 67.446915 0
M  V30 35 H 41.245186 27.166182 56.304934 0
M  V30 36 H 41.520062 26.966176 58.022768 0
M  V30 37 H 41.746977 29.408800 68.948148 0
M  V30 38 H 42.962281 28.361521 69.662088 0
M  V30 39 H 43.436125 29.905240 68.952436 0
M  V30 40 H 41.422992 32.554138 66.194946 0
M  V30 41 H 42.754969 31.857215 65.333136 0
M  V30 42 H 41.208122 29.688989 59.330585 0
M  V30 43 H 41.346560 28.045160 59.915446 0
M  V30 44 H 36.445952 26.068663 55.525605 0
M  V30 45 H 38.094682 29.761315 54.228808 0
M  V30 46 H 36.549228 29.720204 55.087616 0
M  V30 47 H 39.645114 31.282294 57.393773 0
M  V30 48 H 40.172217 30.808647 55.767771 0
M  V30 49 H 42.599702 28.922073 62.837256 0
M  V30 50 H 43.201331 30.344923 63.651245 0
M  V30 51 H 41.406661 33.835736 61.581126 0
M  V30 52 H 40.467622 32.578152 60.856871 0
M  V30 53 H 43.437587 30.132213 66.379436 0
M  V30 54 H 39.507669 28.370512 55.484890 0
M  V30 55 H 39.010098 27.547773 59.206022 0
M  V30 56 H 38.722593 29.238893 58.907335 0
M  V30 57 H 37.615129 30.012336 57.225671 0
M  V30 58 H 43.985843 28.307116 64.805832 0
M  V30 59 H 42.358075 27.684433 64.901070 0
M  V30 60 H 36.601181 31.938561 55.392020 0
M  V30 61 H 39.407274 30.917332 62.993111 0
M  V30 62 H 38.093253 32.842204 56.551028 0
M  V30 63 H 39.196842 32.864497 55.174021 0
M  V30 64 H 40.445220 29.061990 64.025932 0
M  V30 65 H 42.279501 27.512354 67.415209 0
M  V30 66 H 39.078497 34.586037 61.082440 0
M  V30 67 H 38.425384 33.325124 62.123140 0
M  V30 68 H 39.357693 34.650764 62.817388 0
M  V30 69 H 39.874544 30.851840 65.526519 0
M  V30 70 H 44.898322 28.570641 67.436101 0
M  V30 71 H 37.516825 31.932624 54.007112 0
M  V30 END ATOM
M  V30 BEGIN BOND
M  V30 1 1 4 1
M  V30 2 1 9 3
M  V30 3 2 9 6
M  V30 4 2 11 7
M  V30 5 1 11 10
M  V30 6 1 15 7
M  V30 7 1 18 4
M  V30 8 1 18 10
M  V30 9 1 19 4
M  V30 10 1 19 5
M  V30 11 1 20 8
M  V30 12 1 20 12
M  V30 13 1 20 18
M  V30 14 1 22 9
M  V30 15 1 22 16
M  V30 16 1 23 13
M  V30 17 1 23 17
M  V30 18 1 24 8
M  V30 19 1 25 21
M  V30 20 1 25 22
M  V30 21 1 26 12
M  V30 22 1 26 24
M  V30 23 1 27 5
M  V30 24 2 27 14
M  V30 25 1 27 21
M  V30 26 1 28 13
M  V30 27 1 28 25
M  V30 28 1 29 17
M  V30 29 1 30 2
M  V30 30 1 30 17
M  V30 31 1 31 1
M  V30 32 1 31 11
M  V30 33 1 32 16
M  V30 34 1 33 3
M  V30 35 1 33 28
M  V30 36 1 33 29
M  V30 37 1 34 30
M  V30 38 1 35 1
M  V30 39 1 36 1
M  V30 40 1 37 2
M  V30 41 1 38 2
M  V30 42 1 39 2
M  V30 43 1 40 3
M  V30 44 1 41 3
M  V30 45 1 42 5
M  V30 46 1 43 5
M  V30 47 1 44 7
M  V30 48 1 45 8
M  V30 49 1 46 8
M  V30 50 1 47 12
M  V30 51 1 48 12
M  V30 52 1 49 13
M  V30 53 1 50 13
M  V30 54 1 51 16
M  V30 55 1 52 16
M  V30 56 1 17 53 CFG=1
M  V30 57 1 18 54 CFG=3
M  V30 58 1 55 19
M  V30 59 1 56 19
M  V30 60 1 20 57 CFG=1
M  V30 61 1 58 23
M  V30 62 1 59 23
M  V30 63 1 60 24
M  V30 64 1 25 61 CFG=3
M  V30 65 1 62 26
M  V30 66 1 63 26
M  V30 67 1 28 64 CFG=1
M  V30 68 1 30 65 CFG=3
M  V30 69 1 66 32
M  V30 70 1 67 32
M  V30 71 1 68 32
M  V30 72 1 33 69 CFG=1
M  V30 73 1 70 34
M  V30 74 1 71 24
M  V30 END BOND
M  V30 END CTAB
M  END
>  <i_epik_Tot_Q>  (1) 
0

>  <i_epik_Tot_abs_Q>  (1) 
2

>  <i_i_glide_confnum>  (1) 
875

>  <i_i_glide_lignum>  (1) 
6

>  <i_i_glide_posenum>  (1) 
266

>  <i_i_glide_rotatable_bonds>  (1) 
9

>  <i_lp_mmshare_version>  (1) 
72125

>  <i_m_source_file_index>  (1) 
5

>  <i_f3d_flags>  (1) 
0

>  <num_sample>  (1) 
100

>  <b_lp_Chiralities_Consistent>  (1) 
1

>  <r_epik_Charging_Adjusted_Penalty>  (1) 
0.4511966576135748

>  <r_epik_Ionization_Penalty>  (1) 
0.22596636941758144

>  <r_epik_Ionization_Penalty_Charging>  (1) 
0.2259645209400469

>  <r_epik_Ionization_Penalty_Neutral>  (1) 
1.8484775345295036e-06

>  <r_epik_State_Penalty>  (1) 
0.2252321366735279

>  <r_glide_ring_energy>  (1) 
1.7395171629556041

>  <r_i_docking_score>  (1) 
-6.1839478539833284

>  <r_i_glide_ecoul>  (1) 
-3.3303532769291575

>  <r_i_glide_eff_state_penalty>  (1) 
0.2252321366735279

>  <r_i_glide_einternal>  (1) 
8.9813226204831818

>  <r_i_glide_emodel>  (1) 
-60.487266470918598

>  <r_i_glide_emodel_strain>  (1) 
0.084541846402771625

>  <r_i_glide_energy>  (1) 
-45.204998941196543

>  <r_i_glide_erotb>  (1) 
0.57244041532536438

>  <r_i_glide_esite>  (1) 
-0.093576884670482738

>  <r_i_glide_evdw>  (1) 
-41.874645664267383

>  <r_i_glide_gscore>  (1) 
-6.4091799906568561

>  <r_i_glide_gscore_strain>  (1) 
0

>  <r_i_glide_hbond>  (1) 
-0.68910877929788805

>  <r_i_glide_ligand_efficiency>  (1) 
-0.18188081923480379

>  <r_i_glide_ligand_efficiency_ln>  (1) 
-1.3662075348069476

>  <r_i_glide_ligand_efficiency_sa>  (1) 
-0.58922324841908702

>  <r_i_glide_lipo>  (1) 
-2.4901590519089831

>  <r_i_glide_metal>  (1) 
-0

>  <r_i_glide_rewards>  (1) 
-1.1154904153521237

>  <r_lp_Energy>  (1) 
57.065157999999997

>  <s_epik_Chemistry_Notes>  (1) 
This compound has an ester and may undergo hydrolysis at high or low pH. This compound contains an acetal/aminal-like group ( X-CH(R)-Y where X, Y are N, S, or O) that may be acid/base labile, releasing an aldehyde.

>  <s_epik_cmdline>  (1) 
J2VwaWtfcHl0aG9uJywgJy1waHQnLCAnMS4wJywgJy1waCcsICc3LjQnLCAnLXRuJywgJzgnLCAnLW1hJywgJzUwMCcsICctaW1hZScsICc8aW5maWxlLm1hZT4nLCAnLW9tYWUnLCAnPG91dGZpbGUubWFlPic=

>  <s_epik_input>  (1) 
W0NIMl0xW0NIMl1bTkhdW0NIMl1bQ0BIXTFbQ0BASF0yT1tDQEBIXShbQ0hdPU8pU1tDSDJdTjJbQ0gyXVtDSDJdQyg9TylPW0NAQEhdM04oW0NIMl1bQ0gzXSlDKD1PKVtDSDJdW0NAQEhdKFtDQEBIXTM0KU9bQ0BIXShbQ0gyXVtDSDJdNClbQ0BIXShbQ0gzXSlbT0hd

>  <s_glide_docking_method>  (1) 
confgen

>  <s_i_glide_gridfile>  (1) 
gpcr_5ht2c_6bqh_protein_autoprepared_prepared

>  <s_lp_Force_Field>  (1) 
S-OPLS

>  <s_lp_Variant>  (1) 
DiffSBDD_4-1

>  <s_m_source_file>  (1) 
generated_GPCR_5HT2C_ligand_DiffSBDD_2026-06-23_prepared.sdf

>  <GenAI_Model>  (1) 
DiffSBDD

>  <Protein>  (1) 
GPCR_5HT2C

$$$$
DiffSBDD_86
     RDKit          3D

  0  0  0  0  0  0  0  0  0  0999 V3000
M  V30 BEGIN CTAB
M  V30 COUNTS 78 80 0 0 1
M  V30 BEGIN ATOM
M  V30 1 C 42.809395 30.924489 64.726325 0
M  V30 2 C 38.099713 32.693624 56.231909 0
M  V30 3 C 38.245839 31.603770 60.048696 0 CFG=2
M  V30 4 C 38.555374 34.051387 55.757327 0
M  V30 5 N 39.003933 32.725728 60.682383 0
M  V30 6 C 40.050562 25.861152 54.819659 0
M  V30 7 N 41.760791 30.856100 63.808775 0
M  V30 8 C 39.709123 29.098950 57.697716 0
M  V30 9 O 40.118838 28.524109 60.910928 0
M  V30 10 O 38.445134 25.737762 58.567759 0
M  V30 11 C 38.671036 27.046158 56.611863 0 CFG=2
M  V30 12 C 38.516160 29.446732 58.616531 0
M  V30 13 C 38.643735 34.020291 60.471319 0
M  V30 14 N 39.403779 28.338622 56.440529 0 CFG=1 CHG=1
M  V30 15 C 39.250368 26.232217 57.769392 0
M  V30 16 C 43.854527 29.985687 64.929698 0
M  V30 17 C 44.814008 31.377788 66.700684 0
M  V30 18 O 39.302852 34.934476 61.014673 0
M  V30 19 C 40.170251 32.393032 61.537013 0
M  V30 20 C 43.791145 32.320669 66.517668 0
M  V30 21 C 36.891577 31.365136 60.745498 0
M  V30 22 S 41.430865 33.103502 65.095436 0
M  V30 23 O 40.486501 26.137734 57.833706 0 CHG=-1
M  V30 24 C 38.756218 29.173323 55.401470 0
M  V30 25 C 39.021467 30.278891 59.823202 0 CFG=2
M  V30 26 C 37.620365 25.069878 55.247928 0
M  V30 27 O 39.042341 29.501930 61.010993 0
M  V30 28 N 37.645136 31.895184 55.084392 0 CHG=1
M  V30 29 C 39.767640 32.104266 62.986209 0
M  V30 30 C 42.805142 32.097577 65.543381 0
M  V30 31 O 43.903932 28.852035 64.168260 0
M  V30 32 C 39.590460 30.350802 54.867165 0
M  V30 33 C 40.954306 31.922155 63.874513 0
M  V30 34 C 37.500450 26.266885 54.351937 0
M  V30 35 C 38.654331 26.182401 55.332108 0
M  V30 36 O 37.662582 34.269380 59.735844 0 CHG=-1
M  V30 37 C 44.846315 30.213414 65.909498 0
M  V30 38 C 38.667763 31.343605 54.168746 0
M  V30 39 H 37.245332 32.847436 56.891376 0
M  V30 40 H 38.860808 32.194698 56.829745 0
M  V30 41 H 38.011011 31.957658 59.045852 0
M  V30 42 H 38.445124 34.753837 56.567760 0
M  V30 43 H 39.572858 34.046718 55.367768 0
M  V30 44 H 37.918557 34.410012 54.967747 0
M  V30 45 H 40.045138 25.592625 53.767771 0
M  V30 46 H 40.734037 26.698247 54.938492 0
M  V30 47 H 40.445135 25.025235 55.392992 0
M  V30 48 H 40.210159 30.024022 57.450912 0
M  V30 49 H 40.470913 28.579188 58.275391 0
M  V30 50 H 39.654311 27.764822 60.585146 0
M  V30 51 H 37.637417 27.290545 56.865699 0
M  V30 52 H 38.011006 28.550190 58.973984 0
M  V30 53 H 37.767035 30.001990 58.053810 0
M  V30 54 H 45.577530 31.545082 67.447004 0
M  V30 55 H 40.778108 31.572179 61.173186 0
M  V30 56 H 40.882433 33.219888 61.539702 0
M  V30 57 H 43.763853 33.216209 67.121065 0
M  V30 58 H 36.313750 30.594352 60.234747 0
M  V30 59 H 37.038382 31.045986 61.772843 0
M  V30 60 H 36.280134 32.268043 60.761996 0
M  V30 61 H 38.522362 28.586148 54.518330 0
M  V30 62 H 37.793570 29.487261 55.802715 0
M  V30 63 H 40.045138 30.537748 59.604921 0
M  V30 64 H 37.923678 24.130578 54.791467 0
M  V30 65 H 36.903778 24.977193 56.061439 0
M  V30 66 H 37.008993 32.502138 54.581804 0
M  V30 67 H 39.181163 32.937779 63.367763 0
M  V30 68 H 39.141859 31.213317 63.044992 0
M  V30 69 H 43.194589 28.802431 63.541846 0
M  V30 70 H 40.165108 30.887303 55.614371 0
M  V30 71 H 40.329010 29.984019 54.154290 0
M  V30 72 H 36.740737 27.009821 54.567803 0
M  V30 73 H 37.721068 26.137760 53.295719 0
M  V30 74 H 45.636836 29.489492 66.051856 0
M  V30 75 H 39.245154 32.137738 53.707971 0
M  V30 76 H 38.148930 30.823428 53.367763 0
M  V30 77 H 37.067997 31.159778 55.470218 0
M  V30 78 H 40.307116 28.048140 56.092739 0
M  V30 END ATOM
M  V30 BEGIN BOND
M  V30 1 1 4 2
M  V30 2 1 5 3
M  V30 3 1 7 1
M  V30 4 1 12 8
M  V30 5 1 13 5
M  V30 6 1 14 8
M  V30 7 1 14 11
M  V30 8 2 15 10
M  V30 9 1 15 11
M  V30 10 2 16 1
M  V30 11 2 18 13
M  V30 12 1 19 5
M  V30 13 1 20 17
M  V30 14 1 21 3
M  V30 15 1 23 15
M  V30 16 1 24 14
M  V30 17 1 25 3
M  V30 18 1 25 12
M  V30 19 1 27 9
M  V30 20 1 27 25
M  V30 21 1 28 2
M  V30 22 1 29 19
M  V30 23 1 30 1
M  V30 24 2 30 20
M  V30 25 1 30 22
M  V30 26 1 31 16
M  V30 27 1 32 24
M  V30 28 2 33 7
M  V30 29 1 33 22
M  V30 30 1 33 29
M  V30 31 1 34 26
M  V30 32 1 35 6
M  V30 33 1 35 11
M  V30 34 1 35 26
M  V30 35 1 35 34
M  V30 36 1 36 13
M  V30 37 1 37 16
M  V30 38 2 37 17
M  V30 39 1 38 28
M  V30 40 1 38 32
M  V30 41 1 39 2
M  V30 42 1 40 2
M  V30 43 1 3 41 CFG=3
M  V30 44 1 42 4
M  V30 45 1 43 4
M  V30 46 1 44 4
M  V30 47 1 45 6
M  V30 48 1 46 6
M  V30 49 1 47 6
M  V30 50 1 48 8
M  V30 51 1 49 8
M  V30 52 1 50 9
M  V30 53 1 11 51 CFG=1
M  V30 54 1 52 12
M  V30 55 1 53 12
M  V30 56 1 54 17
M  V30 57 1 55 19
M  V30 58 1 56 19
M  V30 59 1 57 20
M  V30 60 1 58 21
M  V30 61 1 59 21
M  V30 62 1 60 21
M  V30 63 1 61 24
M  V30 64 1 62 24
M  V30 65 1 25 63 CFG=3
M  V30 66 1 64 26
M  V30 67 1 65 26
M  V30 68 1 66 28
M  V30 69 1 67 29
M  V30 70 1 68 29
M  V30 71 1 69 31
M  V30 72 1 70 32
M  V30 73 1 71 32
M  V30 74 1 72 34
M  V30 75 1 73 34
M  V30 76 1 74 37
M  V30 77 1 75 38
M  V30 78 1 76 38
M  V30 79 1 77 28
M  V30 80 1 14 78 CFG=3
M  V30 END BOND
M  V30 END CTAB
M  END
>  <i_epik_Tot_Q>  (1) 
0

>  <i_epik_Tot_abs_Q>  (1) 
4

>  <i_i_glide_confnum>  (1) 
2265

>  <i_i_glide_lignum>  (1) 
205

>  <i_i_glide_posenum>  (1) 
331

>  <i_i_glide_rotatable_bonds>  (1) 
20

>  <i_lp_mmshare_version>  (1) 
72125

>  <i_m_source_file_index>  (1) 
87

>  <i_f3d_flags>  (1) 
0

>  <num_sample>  (1) 
100

>  <b_lp_Chiralities_Consistent>  (1) 
1

>  <r_epik_Charging_Adjusted_Penalty>  (1) 
0.22044164317972559

>  <r_epik_Ionization_Penalty>  (1) 
0.19516572318186753

>  <r_epik_Ionization_Penalty_Charging>  (1) 
0.026579669222116228

>  <r_epik_Ionization_Penalty_Neutral>  (1) 
0.16858605395975129

>  <r_epik_State_Penalty>  (1) 
0.19386197395760935

>  <r_glide_ring_energy>  (1) 
0

>  <r_i_docking_score>  (1) 
-6.1826686463565119

>  <r_i_glide_ecoul>  (1) 
-1.5470093677838896

>  <r_i_glide_eff_state_penalty>  (1) 
0.19386197395760935

>  <r_i_glide_einternal>  (1) 
14.049173531125742

>  <r_i_glide_emodel>  (1) 
-57.936262993879033

>  <r_i_glide_emodel_strain>  (1) 
1.4817786491635516

>  <r_i_glide_energy>  (1) 
-42.78164808235158

>  <r_i_glide_erotb>  (1) 
0.94715796475939662

>  <r_i_glide_esite>  (1) 
-0.10000000000000001

>  <r_i_glide_evdw>  (1) 
-41.234638714567694

>  <r_i_glide_gscore>  (1) 
-6.3765306203141217

>  <r_i_glide_gscore_strain>  (1) 
0

>  <r_i_glide_hbond>  (1) 
-0.11358192671489838

>  <r_i_glide_ligand_efficiency>  (1) 
-0.16270180648306609

>  <r_i_glide_ligand_efficiency_ln>  (1) 
-1.3331652358392594

>  <r_i_glide_ligand_efficiency_sa>  (1) 
-0.5469994720378325

>  <r_i_glide_lipo>  (1) 
-3.6914995965048463

>  <r_i_glide_metal>  (1) 
-0

>  <r_i_glide_rewards>  (1) 
-1.1248237209578051

>  <r_lp_Energy>  (1) 
38.677337999999999

>  <s_epik_cmdline>  (1) 
J2VwaWtfcHl0aG9uJywgJy1waHQnLCAnMS4wJywgJy1waCcsICc3LjQnLCAnLXRuJywgJzgnLCAnLW1hJywgJzUwMCcsICctaW1hZScsICc8aW5maWxlLm1hZT4nLCAnLW9tYWUnLCAnPG91dGZpbGUubWFlPic=

>  <s_epik_input>  (1) 
W09IXWMxW2NIXVtjSF1bY0hdYyhjMTIpc2MobjIpW0NIMl1bQ0gyXU4oQyg9TylbT0hdKVtDQEhdKFtDSDNdKVtDQEBIXShPW09IXSlbQ0gyXVtDSDJdTihbQ0BIXShDKD1PKVtPSF0pQzMoW0NIM10pW0NIMl1bQ0gyXTMpW0NIMl1bQ0gyXVtDSDJdW05IXVtDSDJdW0NIM10=

>  <s_glide_docking_method>  (1) 
confgen

>  <s_i_glide_gridfile>  (1) 
gpcr_5ht2c_6bqh_protein_autoprepared_prepared

>  <s_lp_Force_Field>  (1) 
S-OPLS

>  <s_lp_Variant>  (1) 
DiffSBDD_86-2

>  <s_m_source_file>  (1) 
generated_GPCR_5HT2C_ligand_DiffSBDD_2026-06-23_prepared.sdf

>  <GenAI_Model>  (1) 
DiffSBDD

>  <Protein>  (1) 
GPCR_5HT2C

$$$$
DiffSBDD_83
     RDKit          3D

  0  0  0  0  0  0  0  0  0  0999 V3000
M  V30 BEGIN CTAB
M  V30 COUNTS 54 55 0 0 1
M  V30 BEGIN ATOM
M  V30 1 C 40.552840 35.058225 62.415974 0
M  V30 2 C 38.918814 29.753010 58.563819 0
M  V30 3 N 39.899552 29.167503 59.259426 0
M  V30 4 O 40.045182 25.578552 56.105653 0
M  V30 5 O 40.993196 36.336606 62.431571 0
M  V30 6 C 38.499889 33.760961 61.768505 0
M  V30 7 C 37.085933 33.702265 61.211841 0
M  V30 8 C 38.032000 24.778775 55.610410 0
M  V30 9 C 38.693620 31.201073 54.091423 0
M  V30 10 C 39.159509 34.949458 61.869085 0
M  V30 11 C 38.823691 29.530549 57.082201 0
M  V30 12 C 38.298535 31.118492 61.927927 0
M  V30 13 N 39.711497 29.625805 60.504943 0
M  V30 14 O 40.045140 37.312238 62.967616 0
M  V30 15 C 39.362417 27.793961 55.261791 0 CFG=1
M  V30 16 C 37.245316 28.595994 53.967535 0
M  V30 17 C 39.073234 24.702923 56.366516 0
M  V30 18 O 41.236174 34.109090 62.793667 0
M  V30 19 C 39.434370 26.265271 54.979186 0 CFG=2
M  V30 20 C 38.093704 30.585592 59.388807 0
M  V30 21 O 38.110543 25.738016 54.687200 0
M  V30 22 C 39.431295 29.911873 53.676542 0
M  V30 23 C 38.781610 28.533166 54.007323 0 CFG=1
M  V30 24 C 38.654281 30.478822 60.626188 0
M  V30 25 Cl 36.665650 23.738661 55.769357 0
M  V30 26 C 39.107753 32.410420 62.203679 0
M  V30 27 C 38.688083 28.068725 56.632889 0
M  V30 28 H 40.317781 29.349122 61.264045 0
M  V30 29 H 37.030459 33.064187 60.332373 0
M  V30 30 H 36.386421 33.340298 61.964269 0
M  V30 31 H 36.744716 34.692878 60.908978 0
M  V30 32 H 39.174062 32.063947 53.634692 0
M  V30 33 H 37.654337 31.218943 53.768098 0
M  V30 34 H 38.714288 31.385265 55.159997 0
M  V30 35 H 38.673497 35.858081 61.546157 0
M  V30 36 H 37.966909 30.085274 56.701805 0
M  V30 37 H 39.711628 29.969896 56.628704 0
M  V30 38 H 38.528118 30.404771 62.720964 0
M  V30 39 H 37.225607 31.266270 62.000922 0
M  V30 40 H 40.412635 37.456167 63.831366 0
M  V30 41 H 40.407432 28.085588 55.368293 0
M  V30 42 H 36.845061 29.267470 54.726573 0
M  V30 43 H 36.899490 28.937720 52.993302 0
M  V30 44 H 36.786271 27.623658 54.126523 0
M  V30 45 H 39.272060 24.024642 57.183451 0
M  V30 46 H 40.063253 26.062086 54.110036 0
M  V30 47 H 37.239685 31.182218 59.101880 0
M  V30 48 H 40.444649 29.963891 54.068897 0
M  V30 49 H 39.546361 29.961839 52.592974 0
M  V30 50 H 39.062780 27.912685 53.154772 0
M  V30 51 H 40.097026 32.275034 61.766757 0
M  V30 52 H 39.245795 32.480045 63.283324 0
M  V30 53 H 39.183062 27.447733 57.378737 0
M  V30 54 H 37.645817 27.755771 56.645616 0
M  V30 END ATOM
M  V30 BEGIN BOND
M  V30 1 2 3 2
M  V30 2 1 5 1
M  V30 3 1 7 6
M  V30 4 1 10 1
M  V30 5 2 10 6
M  V30 6 1 11 2
M  V30 7 1 13 3
M  V30 8 1 14 5
M  V30 9 1 17 4
M  V30 10 2 17 8
M  V30 11 2 18 1
M  V30 12 1 19 4
M  V30 13 1 19 15
M  V30 14 1 20 2
M  V30 15 1 21 8
M  V30 16 1 21 19
M  V30 17 1 22 9
M  V30 18 1 23 15
M  V30 19 1 23 16
M  V30 20 1 23 22
M  V30 21 1 24 12
M  V30 22 1 24 13
M  V30 23 2 24 20
M  V30 24 1 25 8
M  V30 25 1 26 6
M  V30 26 1 26 12
M  V30 27 1 27 11
M  V30 28 1 27 15
M  V30 29 1 28 13
M  V30 30 1 29 7
M  V30 31 1 30 7
M  V30 32 1 31 7
M  V30 33 1 32 9
M  V30 34 1 33 9
M  V30 35 1 34 9
M  V30 36 1 35 10
M  V30 37 1 36 11
M  V30 38 1 37 11
M  V30 39 1 38 12
M  V30 40 1 39 12
M  V30 41 1 40 14
M  V30 42 1 15 41 CFG=1
M  V30 43 1 42 16
M  V30 44 1 43 16
M  V30 45 1 44 16
M  V30 46 1 45 17
M  V30 47 1 19 46 CFG=3
M  V30 48 1 47 20
M  V30 49 1 48 22
M  V30 50 1 49 22
M  V30 51 1 23 50 CFG=3
M  V30 52 1 51 26
M  V30 53 1 52 26
M  V30 54 1 53 27
M  V30 55 1 54 27
M  V30 END BOND
M  V30 END CTAB
M  END
>  <i_epik_Tot_Q>  (1) 
0

>  <i_epik_Tot_abs_Q>  (1) 
0

>  <i_i_glide_confnum>  (1) 
1719

>  <i_i_glide_lignum>  (1) 
196

>  <i_i_glide_posenum>  (1) 
128

>  <i_i_glide_rotatable_bonds>  (1) 
12

>  <i_lp_mmshare_version>  (1) 
72125

>  <i_m_source_file_index>  (1) 
84

>  <i_f3d_flags>  (1) 
0

>  <num_sample>  (1) 
100

>  <b_lp_Chiralities_Consistent>  (1) 
1

>  <r_epik_Charging_Adjusted_Penalty>  (1) 
0.41067983895260396

>  <r_epik_Ionization_Penalty>  (1) 
0.00090540554532319911

>  <r_epik_Ionization_Penalty_Charging>  (1) 
0

>  <r_epik_Ionization_Penalty_Neutral>  (1) 
0.00090540554532319911

>  <r_epik_State_Penalty>  (1) 
0.41067983895260396

>  <r_glide_ring_energy>  (1) 
0

>  <r_i_docking_score>  (1) 
-6.178500720306503

>  <r_i_glide_ecoul>  (1) 
-2.2584844884609936

>  <r_i_glide_eff_state_penalty>  (1) 
0.41067983895260396

>  <r_i_glide_einternal>  (1) 
12.096861946354203

>  <r_i_glide_emodel>  (1) 
-52.875941837004973

>  <r_i_glide_emodel_strain>  (1) 
2.1803181909338605

>  <r_i_glide_energy>  (1) 
-43.924879158094328

>  <r_i_glide_erotb>  (1) 
1.1080255732668134

>  <r_i_glide_esite>  (1) 
0

>  <r_i_glide_evdw>  (1) 
-41.666394669633334

>  <r_i_glide_gscore>  (1) 
-6.5891805592591073

>  <r_i_glide_gscore_strain>  (1) 
0

>  <r_i_glide_hbond>  (1) 
-0.25663890453437704

>  <r_i_glide_ligand_efficiency>  (1) 
-0.22883336001135196

>  <r_i_glide_ligand_efficiency_ln>  (1) 
-1.4382531071421456

>  <r_i_glide_ligand_efficiency_sa>  (1) 
-0.68650008003405605

>  <r_i_glide_lipo>  (1) 
-3.019275117031988

>  <r_i_glide_metal>  (1) 
-0

>  <r_i_glide_rewards>  (1) 
-1.9991997042087415

>  <r_lp_Energy>  (1) 
14.869823999999999

>  <r_lp_tautomer_probability>  (1) 
0.5

>  <s_epik_Chemistry_Notes>  (1) 
This compound contains an acetal/aminal-like group ( X-CH(R)-Y where X, Y are N, S, or O) that may be acid/base labile, releasing an aldehyde.

>  <s_epik_cmdline>  (1) 
J2VwaWtfcHl0aG9uJywgJy1waHQnLCAnMS4wJywgJy1waCcsICc3LjQnLCAnLXRuJywgJzgnLCAnLW1hJywgJzUwMCcsICctaW1hZScsICc8aW5maWxlLm1hZT4nLCAnLW9tYWUnLCAnPG91dGZpbGUubWFlPic=

>  <s_epik_input>  (1) 
W09IXU9DKD1PKVxbQ0hdPUMoXFtDSDNdKVtDSDJdW0NIMl1jKFtjSF0xKW5bbkhdYzFbQ0gyXVtDSDJdW0NASF0oW0NAQEhdKFtDSDNdKVtDSDJdW0NIM10pW0NAQEhdKE8yKU9bQ0hdPUMyQ2w=

>  <s_glide_docking_method>  (1) 
confgen

>  <s_i_glide_gridfile>  (1) 
gpcr_5ht2c_6bqh_protein_autoprepared_prepared

>  <s_lp_Force_Field>  (1) 
S-OPLS

>  <s_lp_Variant>  (1) 
DiffSBDD_83-7

>  <s_m_source_file>  (1) 
generated_GPCR_5HT2C_ligand_DiffSBDD_2026-06-23_prepared.sdf

>  <GenAI_Model>  (1) 
DiffSBDD

>  <Protein>  (1) 
GPCR_5HT2C

$$$$
DiffSBDD_83
     RDKit          3D

  0  0  0  0  0  0  0  0  0  0999 V3000
M  V30 BEGIN CTAB
M  V30 COUNTS 54 55 0 0 1
M  V30 BEGIN ATOM
M  V30 1 C 40.095316 35.414447 62.536991 0
M  V30 2 C 37.701701 30.871035 59.976706 0
M  V30 3 N 37.904011 31.040922 61.315902 0
M  V30 4 O 39.737640 26.510119 56.689670 0
M  V30 5 O 39.646309 36.207281 63.511994 0
M  V30 6 C 37.776445 35.586829 61.509376 0
M  V30 7 C 37.229626 36.569892 62.548192 0
M  V30 8 C 37.785725 25.479573 56.444750 0
M  V30 9 C 38.809887 28.244081 52.862260 0
M  V30 10 C 39.052557 35.087783 61.504901 0
M  V30 11 C 38.290001 29.716749 59.217171 0
M  V30 12 C 35.939459 33.967373 60.899849 0
M  V30 13 N 37.304254 32.133895 61.820949 0
M  V30 14 O 40.444477 36.137741 64.729343 0
M  V30 15 C 38.574069 28.697133 56.806565 0 CFG=1
M  V30 16 C 37.427124 30.108198 54.939732 0
M  V30 17 C 39.053082 25.471351 56.212760 0
M  V30 18 O 41.244652 34.977079 62.495341 0
M  V30 19 C 38.644928 27.226905 57.323706 0 CFG=1
M  V30 20 C 36.926861 31.913775 59.566008 0
M  V30 21 O 37.371746 26.548341 57.136392 0
M  V30 22 C 39.246215 28.513321 54.313729 0
M  V30 23 C 38.089876 28.763328 55.307016 0 CFG=1
M  V30 24 C 36.708052 32.678647 60.754674 0
M  V30 25 Cl 36.722708 24.232138 55.912116 0
M  V30 26 C 36.781894 35.173293 60.440445 0
M  V30 27 C 37.699884 29.518160 57.800760 0
M  V30 28 H 38.452007 30.422828 61.899848 0
M  V30 29 H 36.212353 36.870606 62.307491 0
M  V30 30 H 37.180711 36.140037 63.547253 0
M  V30 31 H 37.810229 37.491836 62.557662 0
M  V30 32 H 39.657582 27.911103 52.262381 0
M  V30 33 H 38.050446 27.462155 52.813534 0
M  V30 34 H 38.409343 29.132805 52.376018 0
M  V30 35 H 39.344742 34.406655 60.718656 0
M  V30 36 H 39.366062 29.877615 59.140238 0
M  V30 37 H 38.160345 28.804520 59.798411 0
M  V30 38 H 35.596235 34.113334 61.925790 0
M  V30 39 H 35.040043 33.911764 60.286630 0
M  V30 40 H 41.096600 36.811081 64.562931 0
M  V30 41 H 39.582819 29.108032 56.857828 0
M  V30 42 H 38.064858 30.951303 55.204694 0
M  V30 43 H 37.225942 30.189834 53.875715 0
M  V30 44 H 36.466740 30.228861 55.442444 0
M  V30 45 H 39.641390 24.737575 55.680815 0
M  V30 46 H 38.871598 27.193093 58.389067 0
M  V30 47 H 36.573994 32.114235 58.567797 0
M  V30 48 H 39.973027 29.334881 54.349236 0
M  V30 49 H 39.799465 27.631172 54.621534 0
M  V30 50 H 37.339170 27.993412 55.127783 0
M  V30 51 H 36.138736 36.020953 60.201742 0
M  V30 52 H 37.299064 34.931699 59.510011 0
M  V30 53 H 36.685313 29.121861 57.858745 0
M  V30 54 H 37.606619 30.521591 57.392648 0
M  V30 END ATOM
M  V30 BEGIN BOND
M  V30 1 1 3 2
M  V30 2 1 5 1
M  V30 3 1 7 6
M  V30 4 1 10 1
M  V30 5 2 10 6
M  V30 6 1 11 2
M  V30 7 1 13 3
M  V30 8 1 14 5
M  V30 9 1 17 4
M  V30 10 2 17 8
M  V30 11 2 18 1
M  V30 12 1 19 4
M  V30 13 1 19 15
M  V30 14 2 20 2
M  V30 15 1 21 8
M  V30 16 1 21 19
M  V30 17 1 22 9
M  V30 18 1 23 15
M  V30 19 1 23 16
M  V30 20 1 23 22
M  V30 21 1 24 12
M  V30 22 2 24 13
M  V30 23 1 24 20
M  V30 24 1 25 8
M  V30 25 1 26 6
M  V30 26 1 26 12
M  V30 27 1 27 11
M  V30 28 1 27 15
M  V30 29 1 28 3
M  V30 30 1 29 7
M  V30 31 1 30 7
M  V30 32 1 31 7
M  V30 33 1 32 9
M  V30 34 1 33 9
M  V30 35 1 34 9
M  V30 36 1 35 10
M  V30 37 1 36 11
M  V30 38 1 37 11
M  V30 39 1 38 12
M  V30 40 1 39 12
M  V30 41 1 40 14
M  V30 42 1 15 41 CFG=3
M  V30 43 1 42 16
M  V30 44 1 43 16
M  V30 45 1 44 16
M  V30 46 1 45 17
M  V30 47 1 19 46 CFG=1
M  V30 48 1 47 20
M  V30 49 1 48 22
M  V30 50 1 49 22
M  V30 51 1 23 50 CFG=1
M  V30 52 1 51 26
M  V30 53 1 52 26
M  V30 54 1 53 27
M  V30 55 1 54 27
M  V30 END BOND
M  V30 END CTAB
M  END
>  <i_epik_Tot_Q>  (1) 
0

>  <i_epik_Tot_abs_Q>  (1) 
0

>  <i_i_glide_confnum>  (1) 
224

>  <i_i_glide_lignum>  (1) 
191

>  <i_i_glide_posenum>  (1) 
336

>  <i_i_glide_rotatable_bonds>  (1) 
12

>  <i_lp_mmshare_version>  (1) 
72125

>  <i_m_source_file_index>  (1) 
84

>  <i_f3d_flags>  (1) 
0

>  <num_sample>  (1) 
100

>  <b_lp_Chiralities_Consistent>  (1) 
1

>  <r_epik_Charging_Adjusted_Penalty>  (1) 
0.41067983895260396

>  <r_epik_Ionization_Penalty>  (1) 
0.00076996626271645392

>  <r_epik_Ionization_Penalty_Charging>  (1) 
0

>  <r_epik_Ionization_Penalty_Neutral>  (1) 
0.00076996626271645392

>  <r_epik_State_Penalty>  (1) 
0.41067983895260396

>  <r_glide_ring_energy>  (1) 
0

>  <r_i_docking_score>  (1) 
-6.177241674888017

>  <r_i_glide_ecoul>  (1) 
-7.5757353809364414

>  <r_i_glide_eff_state_penalty>  (1) 
0.41067983895260396

>  <r_i_glide_einternal>  (1) 
14.913156086538793

>  <r_i_glide_emodel>  (1) 
-56.303413445531056

>  <r_i_glide_emodel_strain>  (1) 
0.17716404848863476

>  <r_i_glide_energy>  (1) 
-45.367335493092199

>  <r_i_glide_erotb>  (1) 
1.1080255732668134

>  <r_i_glide_esite>  (1) 
-0.051160039604096146

>  <r_i_glide_evdw>  (1) 
-37.791600112155756

>  <r_i_glide_gscore>  (1) 
-6.5879215138406213

>  <r_i_glide_gscore_strain>  (1) 
0

>  <r_i_glide_hbond>  (1) 
-0.4779192881314886

>  <r_i_glide_ligand_efficiency>  (1) 
-0.22878672869955619

>  <r_i_glide_ligand_efficiency_ln>  (1) 
-1.4379600221257081

>  <r_i_glide_ligand_efficiency_sa>  (1) 
-0.68636018609866867

>  <r_i_glide_lipo>  (1) 
-2.5029974264152983

>  <r_i_glide_metal>  (1) 
-0

>  <r_i_glide_rewards>  (1) 
-1.6379300202082976

>  <r_lp_Energy>  (1) 
13.026332

>  <r_lp_tautomer_probability>  (1) 
0.5

>  <s_epik_Chemistry_Notes>  (1) 
This compound contains an acetal/aminal-like group ( X-CH(R)-Y where X, Y are N, S, or O) that may be acid/base labile, releasing an aldehyde.

>  <s_epik_cmdline>  (1) 
J2VwaWtfcHl0aG9uJywgJy1waHQnLCAnMS4wJywgJy1waCcsICc3LjQnLCAnLXRuJywgJzgnLCAnLW1hJywgJzUwMCcsICctaW1hZScsICc8aW5maWxlLm1hZT4nLCAnLW9tYWUnLCAnPG91dGZpbGUubWFlPic=

>  <s_epik_input>  (1) 
W09IXU9DKD1PKS9bQ0hdPUMoXFtDSDNdKVtDSDJdW0NIMl1jKFtjSF0xKW5bbkhdYzFbQ0gyXVtDSDJdW0NASF0oW0NAQEhdKFtDSDNdKVtDSDJdW0NIM10pW0NAQEhdKE8yKU9bQ0hdPUMyQ2w=

>  <s_glide_docking_method>  (1) 
confgen

>  <s_i_glide_gridfile>  (1) 
gpcr_5ht2c_6bqh_protein_autoprepared_prepared

>  <s_lp_Force_Field>  (1) 
S-OPLS

>  <s_lp_Variant>  (1) 
DiffSBDD_83-2

>  <s_m_source_file>  (1) 
generated_GPCR_5HT2C_ligand_DiffSBDD_2026-06-23_prepared.sdf

>  <GenAI_Model>  (1) 
DiffSBDD

>  <Protein>  (1) 
GPCR_5HT2C

$$$$
DiffSBDD_58
     RDKit          3D

  0  0  0  0  0  0  0  0  0  0999 V3000
M  V30 BEGIN CTAB
M  V30 COUNTS 76 76 0 0 1
M  V30 BEGIN ATOM
M  V30 1 C 38.153211 28.852231 56.502953 0
M  V30 2 C 38.633939 31.352068 56.279883 0 CFG=1
M  V30 3 C 40.365928 31.258521 62.110197 0
M  V30 4 C 37.848626 32.072173 58.647191 0 CFG=1
M  V30 5 C 37.266837 26.972494 53.523973 0
M  V30 6 C 41.962744 34.945609 65.089011 0
M  V30 7 O 40.445184 26.266371 56.462272 0
M  V30 8 C 38.546610 33.090562 62.096593 0
M  V30 9 N 41.857349 35.578439 63.898499 0
M  V30 10 C 38.327448 25.497046 55.331586 0 CFG=2
M  V30 11 C 38.007459 24.729137 57.826529 0
M  V30 12 C 39.697813 30.883538 53.990344 0
M  V30 13 C 37.788921 32.567562 54.169748 0
M  V30 14 C 39.853694 25.361723 55.551577 0
M  V30 15 N 40.851291 32.915780 64.353538 0
M  V30 16 C 40.054091 32.769641 62.040018 0 CFG=1
M  V30 17 N 37.757208 32.542805 60.989349 0 CHG=1
M  V30 18 O 38.677488 31.007297 59.082323 0
M  V30 19 C 41.470929 33.640870 65.311582 0
M  V30 20 C 37.581893 30.218950 56.252492 0
M  V30 21 O 38.489069 25.943811 58.356189 0
M  V30 22 C 37.934844 33.194175 59.684291 0 CFG=2
M  V30 23 C 38.967681 31.902987 54.881221 0
M  V30 24 O 36.842331 23.737762 56.015364 0
M  V30 25 C 37.876189 26.859292 54.836528 0
M  V30 26 C 36.887055 28.140158 52.976208 0
M  V30 27 C 37.379329 24.965141 56.446869 0 CFG=2
M  V30 28 C 41.245301 34.861914 62.934303 0
M  V30 29 C 38.271020 32.509156 57.238868 0
M  V30 30 C 40.757163 33.544274 63.154564 0
M  V30 31 N 41.104634 35.476141 61.690075 0
M  V30 32 C 38.053219 27.886339 55.631912 0
M  V30 33 C 36.883674 34.296231 59.482864 0
M  V30 34 H 38.648871 28.697721 57.449178 0
M  V30 35 H 39.566146 30.933449 56.662083 0
M  V30 36 H 41.441377 31.084079 62.114993 0
M  V30 37 H 39.957692 30.801331 63.012518 0
M  V30 38 H 39.958534 30.713696 61.263014 0
M  V30 39 H 36.824915 31.705497 58.632161 0
M  V30 40 H 37.113065 26.071897 52.964740 0
M  V30 41 H 42.448641 35.493505 65.883332 0
M  V30 42 H 41.357569 26.010272 56.568175 0
M  V30 43 H 38.375166 34.166035 62.167005 0
M  V30 44 H 38.125791 32.618845 62.967736 0
M  V30 45 H 38.162920 24.841853 54.477169 0
M  V30 46 H 38.808926 23.992792 57.767598 0
M  V30 47 H 37.267219 24.326988 58.514830 0
M  V30 48 H 39.068351 30.028875 53.751024 0
M  V30 49 H 40.008063 31.336536 53.048917 0
M  V30 50 H 40.594716 30.506794 54.482058 0
M  V30 51 H 36.890718 31.955470 54.167811 0
M  V30 52 H 37.540995 33.516753 54.638911 0
M  V30 53 H 38.045455 32.808267 53.144319 0
M  V30 54 H 40.044985 24.368218 55.928484 0
M  V30 55 H 40.376668 25.458006 54.600517 0
M  V30 56 H 40.468001 33.102483 61.089872 0
M  V30 57 H 36.774894 32.539993 61.219609 0
M  V30 58 H 38.622607 30.322714 58.429698 0
M  V30 59 H 41.574763 33.171485 66.278943 0
M  V30 60 H 36.990400 30.220914 55.341790 0
M  V30 61 H 36.845269 30.317528 57.038930 0
M  V30 62 H 39.173523 26.251304 57.764979 0
M  V30 63 H 38.926003 33.643626 59.622994 0
M  V30 64 H 39.645135 32.726538 55.049927 0
M  V30 65 H 36.307487 23.893319 55.251642 0
M  V30 66 H 36.443676 28.169930 51.998472 0
M  V30 67 H 37.016198 29.073276 53.495997 0
M  V30 68 H 36.526813 25.636117 56.573274 0
M  V30 69 H 39.131195 33.175871 57.309974 0
M  V30 70 H 37.464355 33.111811 56.824485 0
M  V30 71 H 40.676962 35.004371 60.910224 0
M  V30 72 H 41.472787 36.401450 61.518653 0
M  V30 73 H 37.044502 34.823791 58.543961 0
M  V30 74 H 35.871540 33.890467 59.460953 0
M  V30 75 H 36.926588 35.041970 60.276847 0
M  V30 76 H 38.063877 31.588673 60.828564 0
M  V30 END ATOM
M  V30 BEGIN BOND
M  V30 1 1 9 6
M  V30 2 1 14 7
M  V30 3 1 14 10
M  V30 4 1 16 3
M  V30 5 1 16 8
M  V30 6 1 17 8
M  V30 7 1 18 4
M  V30 8 2 19 6
M  V30 9 1 19 15
M  V30 10 1 20 1
M  V30 11 1 20 2
M  V30 12 1 21 11
M  V30 13 1 22 4
M  V30 14 1 22 17
M  V30 15 1 23 2
M  V30 16 1 23 12
M  V30 17 1 23 13
M  V30 18 1 25 5
M  V30 19 1 25 10
M  V30 20 2 26 5
M  V30 21 1 27 10
M  V30 22 1 27 11
M  V30 23 1 27 24
M  V30 24 2 28 9
M  V30 25 1 29 2
M  V30 26 1 29 4
M  V30 27 2 30 15
M  V30 28 1 30 16
M  V30 29 1 30 28
M  V30 30 1 31 28
M  V30 31 2 32 1
M  V30 32 2 32 25
M  V30 33 1 33 22
M  V30 34 1 34 1
M  V30 35 1 2 35 CFG=1
M  V30 36 1 36 3
M  V30 37 1 37 3
M  V30 38 1 38 3
M  V30 39 1 4 39 CFG=3
M  V30 40 1 40 5
M  V30 41 1 41 6
M  V30 42 1 42 7
M  V30 43 1 43 8
M  V30 44 1 44 8
M  V30 45 1 10 45 CFG=3
M  V30 46 1 46 11
M  V30 47 1 47 11
M  V30 48 1 48 12
M  V30 49 1 49 12
M  V30 50 1 50 12
M  V30 51 1 51 13
M  V30 52 1 52 13
M  V30 53 1 53 13
M  V30 54 1 54 14
M  V30 55 1 55 14
M  V30 56 1 16 56 CFG=3
M  V30 57 1 57 17
M  V30 58 1 58 18
M  V30 59 1 59 19
M  V30 60 1 60 20
M  V30 61 1 61 20
M  V30 62 1 62 21
M  V30 63 1 22 63 CFG=1
M  V30 64 1 64 23
M  V30 65 1 65 24
M  V30 66 1 66 26
M  V30 67 1 67 26
M  V30 68 1 27 68 CFG=1
M  V30 69 1 69 29
M  V30 70 1 70 29
M  V30 71 1 71 31
M  V30 72 1 72 31
M  V30 73 1 73 33
M  V30 74 1 74 33
M  V30 75 1 75 33
M  V30 76 1 76 17
M  V30 END BOND
M  V30 END CTAB
M  END
>  <i_epik_Tot_Q>  (1) 
1

>  <i_epik_Tot_abs_Q>  (1) 
1

>  <i_i_glide_confnum>  (1) 
3579

>  <i_i_glide_lignum>  (1) 
130

>  <i_i_glide_posenum>  (1) 
57

>  <i_i_glide_rotatable_bonds>  (1) 
19

>  <i_lp_mmshare_version>  (1) 
72125

>  <i_m_source_file_index>  (1) 
59

>  <i_f3d_flags>  (1) 
0

>  <num_sample>  (1) 
100

>  <b_lp_Chiralities_Consistent>  (1) 
1

>  <r_epik_Charging_Adjusted_Penalty>  (1) 
0.031800499123457865

>  <r_epik_Ionization_Penalty>  (1) 
0.015929061655920795

>  <r_epik_Ionization_Penalty_Charging>  (1) 
0.015900249561728946

>  <r_epik_Ionization_Penalty_Neutral>  (1) 
2.8812094191846713e-05

>  <r_epik_State_Penalty>  (1) 
0.015900249561728919

>  <r_glide_ring_energy>  (1) 
0

>  <r_i_docking_score>  (1) 
-6.1748421989084266

>  <r_i_glide_ecoul>  (1) 
-3.8266474757066202

>  <r_i_glide_eff_state_penalty>  (1) 
0.015900249561728919

>  <r_i_glide_einternal>  (1) 
14.555089491520658

>  <r_i_glide_emodel>  (1) 
-57.094038406683005

>  <r_i_glide_emodel_strain>  (1) 
2.3085821163703031

>  <r_i_glide_energy>  (1) 
-45.259635807237885

>  <r_i_glide_erotb>  (1) 
1.3125063474323406

>  <r_i_glide_esite>  (1) 
0

>  <r_i_glide_evdw>  (1) 
-41.432988331531263

>  <r_i_glide_gscore>  (1) 
-6.1907424484701554

>  <r_i_glide_gscore_strain>  (1) 
0

>  <r_i_glide_hbond>  (1) 
-0.32000000000000001

>  <r_i_glide_ligand_efficiency>  (1) 
-0.18711643026995231

>  <r_i_glide_ligand_efficiency_ln>  (1) 
-1.3732529334154124

>  <r_i_glide_ligand_efficiency_sa>  (1) 
-0.60018237379714234

>  <r_i_glide_lipo>  (1) 
-3.8037932679141031

>  <r_i_glide_metal>  (1) 
-0

>  <r_i_glide_rewards>  (1) 
-0.73380899005583688

>  <r_lp_Energy>  (1) 
12.855034999999999

>  <r_lp_tautomer_probability>  (1) 
0.99999990128000804

>  <s_epik_cmdline>  (1) 
J2VwaWtfcHl0aG9uJywgJy1waHQnLCAnMS4wJywgJy1waCcsICc3LjQnLCAnLXRuJywgJzgnLCAnLW1hJywgJzUwMCcsICctaW1hZScsICc8aW5maWxlLm1hZT4nLCAnLW9tYWUnLCAnPG91dGZpbGUubWFlPic=

>  <s_epik_input>  (1) 
W09IXVtDSDJdW0NASF0oW09IXSlbQ0BIXShbQ0gyXVtPSF0pQyhbQ0hdPVtDSDJdKT1DPVtDSF1bQ0gyXVtDQEBIXShbQ0hdKFtDSDNdKVtDSDNdKVtDSDJdW0NAQEhdKFtPSF0pW0NAQEhdKFtDSDNdKVtOSF1bQ0gyXVtDQEBIXShbQ0gzXSljMW5bY0hdW2NIXW5jMVtOSDJd

>  <s_glide_docking_method>  (1) 
confgen

>  <s_i_glide_gridfile>  (1) 
gpcr_5ht2c_6bqh_protein_autoprepared_prepared

>  <s_lp_Force_Field>  (1) 
S-OPLS

>  <s_lp_Variant>  (1) 
DiffSBDD_58-2

>  <s_m_source_file>  (1) 
generated_GPCR_5HT2C_ligand_DiffSBDD_2026-06-23_prepared.sdf

>  <GenAI_Model>  (1) 
DiffSBDD

>  <Protein>  (1) 
GPCR_5HT2C

$$$$
DiffSBDD_91
     RDKit          3D

  0  0  0  0  0  0  0  0  0  0999 V3000
M  V30 BEGIN CTAB
M  V30 COUNTS 47 48 0 0 1
M  V30 BEGIN ATOM
M  V30 1 N 37.653259 31.480274 60.625670 0
M  V30 2 C 39.646495 30.156891 60.569478 0
M  V30 3 C 39.364809 29.205011 59.643587 0
M  V30 4 C 38.306559 27.128211 54.519660 0 CFG=1
M  V30 5 O 40.445121 26.095224 54.432547 0
M  V30 6 C 38.912324 27.103129 57.811580 0
M  V30 7 C 40.214114 27.251524 58.472176 0
M  V30 8 C 38.070605 29.039946 58.897316 0
M  V30 9 C 38.932902 29.642196 53.900374 0 CFG=2
M  V30 10 C 38.540550 31.081186 54.257727 0
M  V30 11 O 39.627332 26.937886 52.550078 0 CHG=-1
M  V30 12 C 36.963761 29.826366 58.965858 0
M  V30 13 C 39.568270 26.676218 53.771976 0
M  V30 14 C 36.609842 23.801468 55.797775 0
M  V30 15 C 36.829225 30.996540 59.787098 0
M  V30 16 O 38.445174 29.337755 52.615750 0
M  V30 17 C 37.824445 26.114740 55.626130 0 CFG=1
M  V30 18 C 37.501860 24.741140 54.973010 0
M  V30 19 N 38.869908 31.201738 61.063970 0
M  V30 20 N 37.971260 27.939682 58.017940 0
M  V30 21 C 40.413309 28.245096 59.344414 0
M  V30 22 N 39.440395 32.021627 62.033187 0
M  V30 23 C 38.734226 25.908049 56.886035 0
M  V30 24 C 38.413366 28.625062 54.941076 0
M  V30 25 H 40.620499 30.156453 61.037752 0
M  V30 26 H 37.519398 27.114802 53.763874 0
M  V30 27 H 40.977206 26.525610 58.231050 0
M  V30 28 H 40.020693 29.589015 53.851490 0
M  V30 29 H 38.936482 31.363351 55.233878 0
M  V30 30 H 37.457003 31.201905 54.294014 0
M  V30 31 H 38.931173 31.786930 53.525214 0
M  V30 32 H 36.112993 29.566210 58.350891 0
M  V30 33 H 36.416757 22.882222 55.244484 0
M  V30 34 H 35.648595 24.262828 56.016464 0
M  V30 35 H 37.065934 23.512031 56.743176 0
M  V30 36 H 35.870006 31.493250 59.637829 0
M  V30 37 H 38.800358 28.475028 52.388435 0
M  V30 38 H 36.868332 26.497016 55.981038 0
M  V30 39 H 38.429271 24.221496 54.729661 0
M  V30 40 H 36.992921 24.909418 54.023023 0
M  V30 41 H 41.374384 28.334417 59.831141 0
M  V30 42 H 40.013952 32.713023 61.554772 0
M  V30 43 H 38.681288 32.508725 62.504846 0
M  V30 44 H 39.708182 25.504473 56.617359 0
M  V30 45 H 38.296615 25.135555 57.514092 0
M  V30 46 H 37.428739 28.944158 55.283841 0
M  V30 47 H 39.084016 28.735229 55.786965 0
M  V30 END ATOM
M  V30 BEGIN BOND
M  V30 1 2 3 2
M  V30 2 1 7 6
M  V30 3 1 8 3
M  V30 4 1 10 9
M  V30 5 2 12 8
M  V30 6 1 13 4
M  V30 7 2 13 5
M  V30 8 1 13 11
M  V30 9 2 15 1
M  V30 10 1 15 12
M  V30 11 1 16 9
M  V30 12 1 17 4
M  V30 13 1 18 14
M  V30 14 1 18 17
M  V30 15 1 19 1
M  V30 16 1 19 2
M  V30 17 2 20 6
M  V30 18 1 20 8
M  V30 19 1 21 3
M  V30 20 2 21 7
M  V30 21 1 22 19
M  V30 22 1 23 6
M  V30 23 1 23 17
M  V30 24 1 24 4
M  V30 25 1 24 9
M  V30 26 1 25 2
M  V30 27 1 4 26 CFG=3
M  V30 28 1 27 7
M  V30 29 1 9 28 CFG=3
M  V30 30 1 29 10
M  V30 31 1 30 10
M  V30 32 1 31 10
M  V30 33 1 32 12
M  V30 34 1 33 14
M  V30 35 1 34 14
M  V30 36 1 35 14
M  V30 37 1 36 15
M  V30 38 1 37 16
M  V30 39 1 17 38 CFG=1
M  V30 40 1 39 18
M  V30 41 1 40 18
M  V30 42 1 41 21
M  V30 43 1 42 22
M  V30 44 1 43 22
M  V30 45 1 44 23
M  V30 46 1 45 23
M  V30 47 1 46 24
M  V30 48 1 47 24
M  V30 END BOND
M  V30 END CTAB
M  END
>  <i_epik_Tot_Q>  (1) 
-1

>  <i_epik_Tot_abs_Q>  (1) 
1

>  <i_i_glide_confnum>  (1) 
50

>  <i_i_glide_lignum>  (1) 
211

>  <i_i_glide_posenum>  (1) 
180

>  <i_i_glide_rotatable_bonds>  (1) 
8

>  <i_lp_mmshare_version>  (1) 
72125

>  <i_m_source_file_index>  (1) 
92

>  <i_f3d_flags>  (1) 
0

>  <num_sample>  (1) 
100

>  <b_lp_Chiralities_Consistent>  (1) 
1

>  <r_epik_Charging_Adjusted_Penalty>  (1) 
0.00040007819211634345

>  <r_epik_Ionization_Penalty>  (1) 
0.00040449686215294139

>  <r_epik_Ionization_Penalty_Charging>  (1) 
0.00040007819211634345

>  <r_epik_Ionization_Penalty_Neutral>  (1) 
4.4186700365979628e-06

>  <r_epik_State_Penalty>  (1) 
-0

>  <r_glide_ring_energy>  (1) 
0

>  <r_i_docking_score>  (1) 
-6.1731322191755087

>  <r_i_glide_ecoul>  (1) 
-1.7708072508707726

>  <r_i_glide_eff_state_penalty>  (1) 
-0

>  <r_i_glide_einternal>  (1) 
5.267880831669089

>  <r_i_glide_emodel>  (1) 
-48.050019653470613

>  <r_i_glide_emodel_strain>  (1) 
3.0983601203745792

>  <r_i_glide_energy>  (1) 
-35.628756057752028

>  <r_i_glide_erotb>  (1) 
0.85685710586464559

>  <r_i_glide_esite>  (1) 
-0.062185866079495479

>  <r_i_glide_evdw>  (1) 
-33.857948806881254

>  <r_i_glide_gscore>  (1) 
-6.1731322191755087

>  <r_i_glide_gscore_strain>  (1) 
0

>  <r_i_glide_hbond>  (1) 
0

>  <r_i_glide_ligand_efficiency>  (1) 
-0.25721384246564621

>  <r_i_glide_ligand_efficiency_ln>  (1) 
-1.4775138066283398

>  <r_i_glide_ligand_efficiency_sa>  (1) 
-0.7419331075463913

>  <r_i_glide_lipo>  (1) 
-3.228171809886605

>  <r_i_glide_metal>  (1) 
-0

>  <r_i_glide_rewards>  (1) 
-1.7811131210993745

>  <r_lp_Energy>  (1) 
41.094901

>  <r_lp_tautomer_probability>  (1) 
1

>  <s_epik_Chemistry_Notes>  (1) 
This compound has an imine and may undergo hydrolysis.

>  <s_epik_cmdline>  (1) 
J2VwaWtfcHl0aG9uJywgJy1waHQnLCAnMS4wJywgJy1waCcsICc3LjQnLCAnLXRuJywgJzgnLCAnLW1hJywgJzUwMCcsICctaW1hZScsICc8aW5maWxlLm1hZT4nLCAnLW9tYWUnLCAnPG91dGZpbGUubWFlPic=

>  <s_epik_input>  (1) 
W0NIXT0xTihbTkgyXSlOPVtDSF1bQ0hdPWMoYzEyKW5jKFtjSF1bY0hdMilbQ0gyXVtDQEhdKFtDSDJdW0NIM10pW0NASF0oQyg9TylbT0hdKVtDSDJdW0NASF0oW0NIM10pW09IXQ==

>  <s_glide_docking_method>  (1) 
confgen

>  <s_i_glide_gridfile>  (1) 
gpcr_5ht2c_6bqh_protein_autoprepared_prepared

>  <s_lp_Force_Field>  (1) 
S-OPLS

>  <s_lp_Variant>  (1) 
DiffSBDD_91-1

>  <s_m_source_file>  (1) 
generated_GPCR_5HT2C_ligand_DiffSBDD_2026-06-23_prepared.sdf

>  <GenAI_Model>  (1) 
DiffSBDD

>  <Protein>  (1) 
GPCR_5HT2C

$$$$
DiffSBDD_69
     RDKit          3D

  0  0  0  0  0  0  0  0  0  0999 V3000
M  V30 BEGIN CTAB
M  V30 COUNTS 57 57 0 0 1
M  V30 BEGIN ATOM
M  V30 1 C 38.087070 33.590751 58.783979 0
M  V30 2 N 37.504448 27.776906 53.582308 0 CHG=1
M  V30 3 C 38.618747 32.081392 56.881773 0
M  V30 4 C 39.003412 28.771877 51.879602 0 CFG=1
M  V30 5 C 37.929660 33.269977 57.519939 0
M  V30 6 C 38.682463 28.653558 53.404206 0 CFG=1
M  V30 7 C 38.169741 33.978021 60.037042 0
M  V30 8 C 40.394097 30.100744 50.146299 0
M  V30 9 C 38.047738 30.019254 55.573572 0
M  V30 10 C 38.429589 30.032062 54.080223 0
M  V30 11 C 38.294878 32.196152 61.783845 0
M  V30 12 C 40.967659 34.097557 62.760045 0 CFG=1
M  V30 13 C 39.648586 34.391318 62.006745 0
M  V30 14 C 41.465883 35.351898 63.507639 0
M  V30 15 N 37.645138 31.370920 56.026816 0 CHG=1
M  V30 16 C 41.487204 33.760600 65.363497 0
M  V30 17 C 40.316634 29.535777 51.573625 0
M  V30 18 C 39.033968 27.385888 51.192903 0
M  V30 19 S 40.845117 32.767883 63.995450 0
M  V30 20 C 42.268556 34.906465 64.732919 0
M  V30 21 C 39.080359 33.305041 61.055195 0 CFG=2
M  V30 22 H 36.690259 28.203269 53.165456 0
M  V30 23 H 37.677731 26.899057 53.111046 0
M  V30 24 H 39.459824 32.421784 56.276550 0
M  V30 25 H 39.008070 31.416099 57.654613 0
M  V30 26 H 38.192920 29.337448 51.420707 0
M  V30 27 H 37.286572 33.853665 56.878160 0
M  V30 28 H 39.518552 28.165573 53.906378 0
M  V30 29 H 37.581929 34.810580 60.396963 0
M  V30 30 H 41.322498 30.655470 50.002866 0
M  V30 31 H 40.360076 29.320324 49.387525 0
M  V30 32 H 39.571994 30.790238 49.950909 0
M  V30 33 H 38.861831 29.621829 56.182107 0
M  V30 34 H 37.195729 29.363272 55.738340 0
M  V30 35 H 37.645142 30.547029 53.536933 0
M  V30 36 H 39.311246 30.663957 53.990648 0
M  V30 37 H 37.829611 31.514050 61.071002 0
M  V30 38 H 38.934490 31.586281 62.418796 0
M  V30 39 H 37.500933 32.608132 62.406714 0
M  V30 40 H 41.730714 33.789405 62.044560 0
M  V30 41 H 39.844809 35.281317 61.406010 0
M  V30 42 H 38.876266 34.697252 62.711071 0
M  V30 43 H 42.045129 36.009112 62.858596 0
M  V30 44 H 40.614016 35.937218 63.857250 0
M  V30 45 H 36.746903 31.337753 56.538606 0
M  V30 46 H 40.646564 34.150143 65.937681 0
M  V30 47 H 42.101367 33.158642 66.034105 0
M  V30 48 H 40.445196 30.383245 52.241698 0
M  V30 49 H 41.172429 28.885500 51.752835 0
M  V30 50 H 39.666140 26.682970 51.731543 0
M  V30 51 H 38.045134 26.937993 51.130380 0
M  V30 52 H 39.398508 27.439883 50.167765 0
M  V30 53 H 42.433361 35.726872 65.432635 0
M  V30 54 H 43.245117 34.537629 64.431073 0
M  V30 55 H 39.909059 32.841896 60.516469 0
M  V30 56 H 37.336348 27.594845 54.560831 0
M  V30 57 H 37.444042 31.954284 55.227150 0
M  V30 END ATOM
M  V30 BEGIN BOND
M  V30 1 2 5 1
M  V30 2 1 5 3
M  V30 3 1 6 2
M  V30 4 1 6 4
M  V30 5 2 7 1
M  V30 6 1 10 6
M  V30 7 1 10 9
M  V30 8 1 13 12
M  V30 9 1 14 12
M  V30 10 1 15 3
M  V30 11 1 15 9
M  V30 12 1 17 4
M  V30 13 1 17 8
M  V30 14 1 18 4
M  V30 15 1 19 12
M  V30 16 1 19 16
M  V30 17 1 20 14
M  V30 18 1 20 16
M  V30 19 1 21 7
M  V30 20 1 21 11
M  V30 21 1 21 13
M  V30 22 1 22 2
M  V30 23 1 23 2
M  V30 24 1 24 3
M  V30 25 1 25 3
M  V30 26 1 4 26 CFG=3
M  V30 27 1 27 5
M  V30 28 1 6 28 CFG=1
M  V30 29 1 29 7
M  V30 30 1 30 8
M  V30 31 1 31 8
M  V30 32 1 32 8
M  V30 33 1 33 9
M  V30 34 1 34 9
M  V30 35 1 35 10
M  V30 36 1 36 10
M  V30 37 1 37 11
M  V30 38 1 38 11
M  V30 39 1 39 11
M  V30 40 1 12 40 CFG=3
M  V30 41 1 41 13
M  V30 42 1 42 13
M  V30 43 1 43 14
M  V30 44 1 44 14
M  V30 45 1 45 15
M  V30 46 1 46 16
M  V30 47 1 47 16
M  V30 48 1 48 17
M  V30 49 1 49 17
M  V30 50 1 50 18
M  V30 51 1 51 18
M  V30 52 1 52 18
M  V30 53 1 53 20
M  V30 54 1 54 20
M  V30 55 1 21 55 CFG=3
M  V30 56 1 56 2
M  V30 57 1 57 15
M  V30 END BOND
M  V30 END CTAB
M  END
>  <i_epik_Tot_Q>  (1) 
2

>  <i_epik_Tot_abs_Q>  (1) 
2

>  <i_i_glide_confnum>  (1) 
141

>  <i_i_glide_lignum>  (1) 
154

>  <i_i_glide_posenum>  (1) 
112

>  <i_i_glide_rotatable_bonds>  (1) 
10

>  <i_lp_mmshare_version>  (1) 
72125

>  <i_m_source_file_index>  (1) 
70

>  <i_f3d_flags>  (1) 
0

>  <num_sample>  (1) 
100

>  <b_lp_Chiralities_Consistent>  (1) 
1

>  <r_epik_Charging_Adjusted_Penalty>  (1) 
0.029112061252425856

>  <r_epik_Ionization_Penalty>  (1) 
0.014593894863530521

>  <r_epik_Ionization_Penalty_Charging>  (1) 
0.014593894863530521

>  <r_epik_Ionization_Penalty_Neutral>  (1) 
0

>  <r_epik_State_Penalty>  (1) 
0.014518166388895335

>  <r_glide_ring_energy>  (1) 
0

>  <r_i_docking_score>  (1) 
-6.1675692172580554

>  <r_i_glide_ecoul>  (1) 
-5.7363203665239322

>  <r_i_glide_eff_state_penalty>  (1) 
0.014518166388895335

>  <r_i_glide_einternal>  (1) 
9.7871582721552652

>  <r_i_glide_emodel>  (1) 
-53.63271678560541

>  <r_i_glide_emodel_strain>  (1) 
1.4133635713477091

>  <r_i_glide_energy>  (1) 
-36.392016222446784

>  <r_i_glide_erotb>  (1) 
1.5199289784806138

>  <r_i_glide_esite>  (1) 
-0.10000000000000001

>  <r_i_glide_evdw>  (1) 
-30.655695855922851

>  <r_i_glide_gscore>  (1) 
-6.1820873836469508

>  <r_i_glide_gscore_strain>  (1) 
0

>  <r_i_glide_hbond>  (1) 
-0.19687324939866374

>  <r_i_glide_ligand_efficiency>  (1) 
-0.29369377225038357

>  <r_i_glide_ligand_efficiency_ln>  (1) 
-1.5249190262199785

>  <r_i_glide_ligand_efficiency_sa>  (1) 
-0.81027884871415412

>  <r_i_glide_lipo>  (1) 
-3.3453406483130421

>  <r_i_glide_metal>  (1) 
-0

>  <r_i_glide_rewards>  (1) 
-1.6665696166411261

>  <r_lp_Energy>  (1) 
2.2558279999999997

>  <s_epik_cmdline>  (1) 
J2VwaWtfcHl0aG9uJywgJy1waHQnLCAnMS4wJywgJy1waCcsICc3LjQnLCAnLXRuJywgJzgnLCAnLW1hJywgJzUwMCcsICctaW1hZScsICc8aW5maWxlLm1hZT4nLCAnLW9tYWUnLCAnPG91dGZpbGUubWFlPic=

>  <s_epik_input>  (1) 
UzFbQ0gyXVtDSDJdW0NIMl1bQ0BASF0xW0NIMl1bQ0BIXShbQ0gzXSlbQ0hdPUM9W0NIXVtDSDJdW05IXVtDSDJdW0NIMl1bQ0BASF0oW05IMl0pW0NASF0oW0NIM10pW0NIMl1bQ0gzXQ==

>  <s_glide_docking_method>  (1) 
confgen

>  <s_i_glide_gridfile>  (1) 
gpcr_5ht2c_6bqh_protein_autoprepared_prepared

>  <s_lp_Force_Field>  (1) 
S-OPLS

>  <s_lp_Variant>  (1) 
DiffSBDD_69-2

>  <s_m_source_file>  (1) 
generated_GPCR_5HT2C_ligand_DiffSBDD_2026-06-23_prepared.sdf

>  <GenAI_Model>  (1) 
DiffSBDD

>  <Protein>  (1) 
GPCR_5HT2C

$$$$
DiffSBDD_73
     RDKit          3D

  0  0  0  0  0  0  0  0  0  0999 V3000
M  V30 BEGIN CTAB
M  V30 COUNTS 64 65 0 0 1
M  V30 BEGIN ATOM
M  V30 1 C 39.496522 27.352579 57.475294 0 CFG=1
M  V30 2 C 38.555321 32.073150 57.150693 0
M  V30 3 N 37.554310 35.367421 61.116052 0
M  V30 4 C 37.645089 26.537351 54.195245 0
M  V30 5 C 38.324246 26.487414 55.379312 0
M  V30 6 C 38.509442 27.986684 58.443766 0
M  V30 7 C 36.945569 36.660669 61.439935 0 CFG=2
M  V30 8 N 37.399542 32.701085 59.212978 0
M  V30 9 O 35.645424 34.137777 61.269615 0
M  V30 10 C 41.540982 27.987656 59.060128 0
M  V30 11 C 37.621374 32.963873 60.644290 0 CFG=1
M  V30 12 C 37.773753 29.100952 53.768768 0
M  V30 13 C 37.450009 27.722965 53.271447 0 CFG=1
M  V30 14 C 36.850096 34.222274 61.043663 0
M  V30 15 O 38.756300 29.384382 58.478416 0
M  V30 16 C 39.291890 37.730162 61.776958 0
M  V30 17 C 39.101986 27.565264 56.058783 0
M  V30 18 C 39.216682 29.149502 54.068829 0
M  V30 19 C 38.288330 31.696517 58.616832 0 CFG=1
M  V30 20 C 40.984710 27.358183 57.802442 0 CFG=1
M  V30 21 O 38.045331 27.461561 52.015265 0
M  V30 22 C 37.911084 37.811007 61.099981 0
M  V30 23 C 37.760608 30.248808 58.714693 0
M  V30 24 O 36.599893 29.935927 58.987439 0
M  V30 25 C 37.218779 31.778630 61.541384 0
M  V30 26 C 39.481960 28.727007 55.469180 0
M  V30 27 C 36.475948 36.735723 62.909625 0
M  V30 28 C 40.202653 26.075294 57.876411 0
M  V30 29 H 39.292646 31.416951 56.692541 0
M  V30 30 H 37.646032 32.023557 56.550194 0
M  V30 31 H 38.941036 33.090189 57.074790 0
M  V30 32 H 38.543613 35.348631 60.918167 0
M  V30 33 H 37.146102 25.634802 53.871892 0
M  V30 34 H 38.291194 25.539463 55.895058 0
M  V30 35 H 37.493335 27.761708 58.112532 0
M  V30 36 H 38.633561 27.571254 59.443458 0
M  V30 37 H 36.089702 36.796823 60.776645 0
M  V30 38 H 36.428726 32.511977 58.984050 0
M  V30 39 H 40.832955 27.930685 59.886679 0
M  V30 40 H 42.445145 27.459397 59.354658 0
M  V30 41 H 41.782808 29.034586 58.880105 0
M  V30 42 H 38.680581 33.167054 60.806979 0
M  V30 43 H 37.645170 29.805234 52.968083 0
M  V30 44 H 37.148991 29.416455 54.607109 0
M  V30 45 H 36.379640 27.735155 53.069538 0
M  V30 46 H 39.896890 38.595147 61.505938 0
M  V30 47 H 39.218872 37.715565 62.863629 0
M  V30 48 H 39.840846 36.840216 61.471035 0
M  V30 49 H 39.559882 30.181928 53.984383 0
M  V30 50 H 39.761453 28.592816 53.319632 0
M  V30 51 H 39.245151 31.748462 59.135496 0
M  V30 52 H 41.669267 27.435350 56.959177 0
M  V30 53 H 37.447630 26.909442 51.521331 0
M  V30 54 H 38.045168 37.838680 60.018911 0
M  V30 55 H 37.436833 38.760240 61.356377 0
M  V30 56 H 37.250003 32.068327 62.588224 0
M  V30 57 H 36.207583 31.430887 61.322056 0
M  V30 58 H 37.905921 30.939915 61.428889 0
M  V30 59 H 40.049211 29.432299 56.057019 0
M  V30 60 H 36.063565 37.717968 63.138932 0
M  V30 61 H 35.695518 36.007695 63.126690 0
M  V30 62 H 37.293066 36.548380 63.605450 0
M  V30 63 H 39.971413 25.677892 58.859390 0
M  V30 64 H 40.403782 25.328569 57.110643 0
M  V30 END ATOM
M  V30 BEGIN BOND
M  V30 1 2 5 4
M  V30 2 1 1 6 CFG=1
M  V30 3 1 7 3
M  V30 4 1 11 8
M  V30 5 1 13 4
M  V30 6 1 13 12
M  V30 7 1 14 3
M  V30 8 2 14 9
M  V30 9 1 14 11
M  V30 10 1 15 6
M  V30 11 1 17 1
M  V30 12 1 17 5
M  V30 13 1 18 12
M  V30 14 1 19 2
M  V30 15 1 19 8
M  V30 16 1 20 1
M  V30 17 1 20 10
M  V30 18 1 21 13
M  V30 19 1 22 7
M  V30 20 1 22 16
M  V30 21 1 23 15
M  V30 22 1 23 19
M  V30 23 2 24 23
M  V30 24 1 25 11
M  V30 25 2 26 17
M  V30 26 1 26 18
M  V30 27 1 27 7
M  V30 28 1 28 1
M  V30 29 1 28 20
M  V30 30 1 29 2
M  V30 31 1 30 2
M  V30 32 1 31 2
M  V30 33 1 32 3
M  V30 34 1 33 4
M  V30 35 1 34 5
M  V30 36 1 35 6
M  V30 37 1 36 6
M  V30 38 1 7 37 CFG=3
M  V30 39 1 38 8
M  V30 40 1 39 10
M  V30 41 1 40 10
M  V30 42 1 41 10
M  V30 43 1 11 42 CFG=3
M  V30 44 1 43 12
M  V30 45 1 44 12
M  V30 46 1 13 45 CFG=3
M  V30 47 1 46 16
M  V30 48 1 47 16
M  V30 49 1 48 16
M  V30 50 1 49 18
M  V30 51 1 50 18
M  V30 52 1 19 51 CFG=1
M  V30 53 1 20 52 CFG=3
M  V30 54 1 53 21
M  V30 55 1 54 22
M  V30 56 1 55 22
M  V30 57 1 56 25
M  V30 58 1 57 25
M  V30 59 1 58 25
M  V30 60 1 59 26
M  V30 61 1 60 27
M  V30 62 1 61 27
M  V30 63 1 62 27
M  V30 64 1 63 28
M  V30 65 1 64 28
M  V30 END BOND
M  V30 END CTAB
M  END
>  <i_epik_Tot_Q>  (1) 
0

>  <i_epik_Tot_abs_Q>  (1) 
0

>  <i_i_glide_confnum>  (1) 
1695

>  <i_i_glide_lignum>  (1) 
158

>  <i_i_glide_posenum>  (1) 
389

>  <i_i_glide_rotatable_bonds>  (1) 
12

>  <i_lp_mmshare_version>  (1) 
72125

>  <i_m_source_file_index>  (1) 
74

>  <i_f3d_flags>  (1) 
0

>  <num_sample>  (1) 
100

>  <b_lp_Chiralities_Consistent>  (1) 
1

>  <r_epik_Charging_Adjusted_Penalty>  (1) 
0.088841992990236665

>  <r_epik_Ionization_Penalty>  (1) 
0.088842122646257599

>  <r_epik_Ionization_Penalty_Charging>  (1) 
0

>  <r_epik_Ionization_Penalty_Neutral>  (1) 
0.088842122646257599

>  <r_epik_State_Penalty>  (1) 
0.088841992990236665

>  <r_glide_ring_energy>  (1) 
0

>  <r_i_docking_score>  (1) 
-6.1661001897605683

>  <r_i_glide_ecoul>  (1) 
-3.1627982365313154

>  <r_i_glide_eff_state_penalty>  (1) 
0.088841992990236665

>  <r_i_glide_einternal>  (1) 
12.86626211614978

>  <r_i_glide_emodel>  (1) 
-52.219445414417692

>  <r_i_glide_emodel_strain>  (1) 
0.30300769555260842

>  <r_i_glide_energy>  (1) 
-42.351134872751906

>  <r_i_glide_erotb>  (1) 
1.2671681791471729

>  <r_i_glide_esite>  (1) 
-0.048430752864491333

>  <r_i_glide_evdw>  (1) 
-39.18833663622059

>  <r_i_glide_gscore>  (1) 
-6.2549421827508054

>  <r_i_glide_gscore_strain>  (1) 
0

>  <r_i_glide_hbond>  (1) 
-0.32331251100500014

>  <r_i_glide_ligand_efficiency>  (1) 
-0.2202178639200203

>  <r_i_glide_ligand_efficiency_ln>  (1) 
-1.4233169683651885

>  <r_i_glide_ligand_efficiency_sa>  (1) 
-0.66871113698954909

>  <r_i_glide_lipo>  (1) 
-3.4241608356232036

>  <r_i_glide_metal>  (1) 
-0

>  <r_i_glide_rewards>  (1) 
-1.2923696951145554

>  <r_lp_Energy>  (1) 
23.544556

>  <s_epik_Chemistry_Notes>  (1) 
This compound has an ester and may undergo hydrolysis at high or low pH.

>  <s_epik_cmdline>  (1) 
J2VwaWtfcHl0aG9uJywgJy1waHQnLCAnMS4wJywgJy1waCcsICc3LjQnLCAnLXRuJywgJzgnLCAnLW1hJywgJzUwMCcsICctaW1hZScsICc8aW5maWxlLm1hZT4nLCAnLW9tYWUnLCAnPG91dGZpbGUubWFlPic=

>  <s_epik_input>  (1) 
W09IXVtDQEhdMVtDSF09W0NIXUMoPVtDSF1bQ0gyXVtDSDJdMSlbQ0BAXTIoW0NAQEhdKFtDSDNdKVtDSDJdMilbQ0gyXU9DKD1PKVtDQEBIXShbQ0gzXSlbTkhdW0NASF0oW0NIM10pQyg9TylbTkhdW0NAQEhdKFtDSDNdKVtDSDJdW0NIM10=

>  <s_glide_docking_method>  (1) 
confgen

>  <s_i_glide_gridfile>  (1) 
gpcr_5ht2c_6bqh_protein_autoprepared_prepared

>  <s_lp_Force_Field>  (1) 
S-OPLS

>  <s_lp_Variant>  (1) 
DiffSBDD_73-1

>  <s_m_source_file>  (1) 
generated_GPCR_5HT2C_ligand_DiffSBDD_2026-06-23_prepared.sdf

>  <GenAI_Model>  (1) 
DiffSBDD

>  <Protein>  (1) 
GPCR_5HT2C

$$$$
DiffSBDD_20
     RDKit          3D

  0  0  0  0  0  0  0  0  0  0999 V3000
M  V30 BEGIN CTAB
M  V30 COUNTS 53 54 0 0 1
M  V30 BEGIN ATOM
M  V30 1 C 38.666322 30.647982 56.453819 0 CFG=2
M  V30 2 O 40.445134 31.337756 54.967770 0
M  V30 3 O 38.845252 28.172162 60.415235 0
M  V30 4 P 38.720076 29.203531 59.370432 0
M  V30 5 C 38.281431 30.754662 54.033937 0 CFG=1
M  V30 6 N 37.379202 24.742285 56.299798 0
M  V30 7 C 40.045037 30.441212 52.109076 0
M  V30 8 C 39.951631 29.386746 49.767194 0
M  V30 9 C 39.431365 29.312169 56.602778 0
M  V30 10 C 40.406506 27.378249 57.969886 0 CFG=2
M  V30 11 N 37.245186 30.332813 56.215818 0 CHG=1
M  V30 12 C 39.067383 31.414003 55.190110 0
M  V30 13 F 38.045138 25.337749 54.167771 0
M  V30 14 C 40.738328 29.535673 51.071996 0
M  V30 15 C 38.216212 25.431702 55.494229 0
M  V30 16 O 38.774365 30.634040 59.731003 0 CHG=-1
M  V30 17 O 37.281837 28.937769 58.527678 0
M  V30 18 C 39.362775 26.430457 57.379160 0
M  V30 19 C 39.237303 26.262424 55.989292 0
M  V30 20 C 39.948354 28.861184 57.985641 0 CFG=2
M  V30 21 C 37.525379 24.898911 57.629612 0
M  V30 22 O 38.169751 28.937761 52.393454 0
M  V30 23 C 38.487793 25.735182 58.210601 0
M  V30 24 C 39.076155 29.746764 53.120913 0 CFG=2
M  V30 25 C 37.057586 30.133033 54.765308 0
M  V30 26 O 41.640286 27.337757 57.287110 0
M  V30 27 O 38.655235 32.757775 55.367756 0
M  V30 28 H 38.795128 31.276001 57.333078 0
M  V30 29 H 40.886239 31.737642 55.703892 0
M  V30 30 H 37.956389 31.564598 53.386026 0
M  V30 31 H 39.570207 31.265078 51.583298 0
M  V30 32 H 40.842847 30.937769 52.652240 0
M  V30 33 H 40.550069 28.937759 48.978390 0
M  V30 34 H 39.064322 28.769527 49.898325 0
M  V30 35 H 39.645194 30.362821 49.391864 0
M  V30 36 H 38.732905 28.578851 56.229921 0
M  V30 37 H 40.276739 29.213229 55.927467 0
M  V30 38 H 40.619736 27.049351 58.983349 0
M  V30 39 H 36.631170 31.097954 56.529947 0
M  V30 40 H 41.688410 30.000374 50.808979 0
M  V30 41 H 40.984576 28.561565 51.494298 0
M  V30 42 H 36.600432 29.007559 59.178695 0
M  V30 43 H 39.887222 26.793998 55.310825 0
M  V30 44 H 40.816349 29.470039 58.234126 0
M  V30 45 H 36.845076 24.346836 58.248102 0
M  V30 46 H 38.665586 28.345447 51.846694 0
M  V30 47 H 38.547396 25.840005 59.281524 0
M  V30 48 H 39.644948 29.059832 53.744673 0
M  V30 49 H 36.122350 30.604669 54.464923 0
M  V30 50 H 36.966257 29.062669 54.581981 0
M  V30 51 H 42.308189 27.707433 57.843962 0
M  V30 52 H 37.708966 32.807871 55.396896 0
M  V30 53 H 36.993672 29.523920 56.773243 0
M  V30 END ATOM
M  V30 BEGIN BOND
M  V30 1 2 4 3
M  V30 2 1 9 1
M  V30 3 1 11 1
M  V30 4 1 12 1
M  V30 5 1 12 2
M  V30 6 1 12 5
M  V30 7 1 14 7
M  V30 8 1 14 8
M  V30 9 2 15 6
M  V30 10 1 15 13
M  V30 11 1 16 4
M  V30 12 1 17 4
M  V30 13 1 18 10
M  V30 14 1 19 15
M  V30 15 2 19 18
M  V30 16 1 20 4
M  V30 17 1 20 9
M  V30 18 1 20 10
M  V30 19 1 21 6
M  V30 20 1 23 18
M  V30 21 2 23 21
M  V30 22 1 24 5
M  V30 23 1 24 7
M  V30 24 1 24 22
M  V30 25 1 25 5
M  V30 26 1 25 11
M  V30 27 1 26 10
M  V30 28 1 27 12
M  V30 29 1 1 28 CFG=1
M  V30 30 1 29 2
M  V30 31 1 5 30 CFG=3
M  V30 32 1 31 7
M  V30 33 1 32 7
M  V30 34 1 33 8
M  V30 35 1 34 8
M  V30 36 1 35 8
M  V30 37 1 36 9
M  V30 38 1 37 9
M  V30 39 1 10 38 CFG=1
M  V30 40 1 39 11
M  V30 41 1 40 14
M  V30 42 1 41 14
M  V30 43 1 42 17
M  V30 44 1 43 19
M  V30 45 1 20 44 CFG=1
M  V30 46 1 45 21
M  V30 47 1 46 22
M  V30 48 1 47 23
M  V30 49 1 24 48 CFG=1
M  V30 50 1 49 25
M  V30 51 1 50 25
M  V30 52 1 51 26
M  V30 53 1 52 27
M  V30 54 1 53 11
M  V30 END BOND
M  V30 END CTAB
M  END
>  <i_epik_Tot_Q>  (1) 
0

>  <i_epik_Tot_abs_Q>  (1) 
2

>  <i_i_glide_confnum>  (1) 
318

>  <i_i_glide_lignum>  (1) 
50

>  <i_i_glide_posenum>  (1) 
377

>  <i_i_glide_rotatable_bonds>  (1) 
13

>  <i_lp_mmshare_version>  (1) 
72125

>  <i_m_source_file_index>  (1) 
21

>  <i_f3d_flags>  (1) 
0

>  <num_sample>  (1) 
100

>  <b_lp_Chiralities_Consistent>  (1) 
1

>  <r_epik_Charging_Adjusted_Penalty>  (1) 
0.5459377507147144

>  <r_epik_Ionization_Penalty>  (1) 
0.54595169612510452

>  <r_epik_Ionization_Penalty_Charging>  (1) 
0.0068991791537532298

>  <r_epik_Ionization_Penalty_Neutral>  (1) 
0.53905251697135126

>  <r_epik_State_Penalty>  (1) 
0.53903857156096113

>  <r_glide_ring_energy>  (1) 
0

>  <r_i_docking_score>  (1) 
-6.1649273436331136

>  <r_i_glide_ecoul>  (1) 
-5.7369938607888136

>  <r_i_glide_eff_state_penalty>  (1) 
0.53903857156096113

>  <r_i_glide_einternal>  (1) 
7.6059705339072998

>  <r_i_glide_emodel>  (1) 
-53.233825938627703

>  <r_i_glide_emodel_strain>  (1) 
4.0210048161963527

>  <r_i_glide_energy>  (1) 
-36.096251466896568

>  <r_i_glide_erotb>  (1) 
0.70809137694380864

>  <r_i_glide_esite>  (1) 
-0.10000000000000001

>  <r_i_glide_evdw>  (1) 
-30.359257606107757

>  <r_i_glide_gscore>  (1) 
-6.7039659151940745

>  <r_i_glide_gscore_strain>  (1) 
0.0052512040490881873

>  <r_i_glide_hbond>  (1) 
-0.19413683148002064

>  <r_i_glide_ligand_efficiency>  (1) 
-0.22833064235678199

>  <r_i_glide_ligand_efficiency_ln>  (1) 
-1.4350934488271838

>  <r_i_glide_ligand_efficiency_sa>  (1) 
-0.68499192707034606

>  <r_i_glide_lipo>  (1) 
-2.9623845471335719

>  <r_i_glide_metal>  (1) 
-0

>  <r_i_glide_rewards>  (1) 
-1.7822751581496703

>  <r_lp_Energy>  (1) 
5.5430529999999996

>  <s_epik_cmdline>  (1) 
J2VwaWtfcHl0aG9uJywgJy1waHQnLCAnMS4wJywgJy1waCcsICc3LjQnLCAnLXRuJywgJzgnLCAnLW1hJywgJzUwMCcsICctaW1hZScsICc8aW5maWxlLm1hZT4nLCAnLW9tYWUnLCAnPG91dGZpbGUubWFlPic=

>  <s_epik_input>  (1) 
W0NIM11bQ0gyXVtDSDJdW0NAQEhdKFtPSF0pW0NASF0xW0NIMl1bTkhdW0NASF0oQzEoW09IXSlbT0hdKVtDSDJdW0NAQEhdKFAoPU8pKFtPSF0pW09IXSlbQ0BIXShbT0hdKWMoW2NIXTIpW2NIXVtjSF1uYzJG

>  <s_glide_docking_method>  (1) 
confgen

>  <s_i_glide_gridfile>  (1) 
gpcr_5ht2c_6bqh_protein_autoprepared_prepared

>  <s_lp_Force_Field>  (1) 
S-OPLS

>  <s_lp_Variant>  (1) 
DiffSBDD_20-4

>  <s_m_source_file>  (1) 
generated_GPCR_5HT2C_ligand_DiffSBDD_2026-06-23_prepared.sdf

>  <GenAI_Model>  (1) 
DiffSBDD

>  <Protein>  (1) 
GPCR_5HT2C

$$$$
DiffSBDD_81
     RDKit          3D

  0  0  0  0  0  0  0  0  0  0999 V3000
M  V30 BEGIN CTAB
M  V30 COUNTS 67 68 0 0 1
M  V30 BEGIN ATOM
M  V30 1 C 37.024096 25.844948 56.766875 0
M  V30 2 C 38.572559 31.500579 56.620971 0
M  V30 3 C 39.120657 35.366837 61.647189 0 CFG=2
M  V30 4 C 38.896949 28.156685 53.384389 0
M  V30 5 C 36.907054 34.606077 61.076074 0
M  V30 6 C 39.369613 26.948987 54.202211 0
M  V30 7 C 37.671825 35.832212 61.546209 0
M  V30 8 C 38.047559 32.887149 57.012091 0
M  V30 9 C 39.301193 31.542103 55.270588 0
M  V30 10 C 38.479020 29.372580 54.192224 0
M  V30 11 C 38.496607 33.261248 59.507581 0
M  V30 12 C 39.245071 27.002443 51.135434 0
M  V30 13 C 37.420236 32.153138 61.564921 0
M  V30 14 C 39.686773 30.162614 54.721586 0
M  V30 15 O 39.013362 33.950134 61.772143 0
M  V30 16 O 37.775336 26.796537 56.035753 0
M  V30 17 C 38.848691 28.161489 52.031420 0
M  V30 18 C 41.356357 35.596041 62.870807 0
M  V30 19 C 39.878886 35.996938 62.826265 0
M  V30 20 C 37.948896 33.469520 60.947258 0 CFG=2
M  V30 21 C 38.444370 31.010625 61.669846 0
M  V30 22 C 38.569915 24.752138 55.303625 0
M  V30 23 C 37.447815 32.949950 58.423564 0
M  V30 24 C 38.205844 26.166537 54.839290 0 CFG=2
M  V30 25 C 37.854444 24.576230 56.636392 0
M  V30 26 H 36.879469 26.153859 57.800865 0
M  V30 27 H 36.045181 25.721369 56.303177 0
M  V30 28 H 37.728322 30.811581 56.575649 0
M  V30 29 H 39.245676 31.117424 57.387430 0
M  V30 30 H 39.641597 35.608061 60.719826 0
M  V30 31 H 36.356231 34.814870 60.162865 0
M  V30 32 H 36.153372 34.360617 61.825436 0
M  V30 33 H 39.990029 26.273354 53.623263 0
M  V30 34 H 40.041319 27.295759 54.987871 0
M  V30 35 H 37.288324 36.151008 62.516570 0
M  V30 36 H 37.568940 36.671259 60.857595 0
M  V30 37 H 38.832594 33.634694 56.904000 0
M  V30 38 H 37.277553 33.169828 56.295282 0
M  V30 39 H 40.205484 32.137602 55.386394 0
M  V30 40 H 38.689266 32.065584 54.534324 0
M  V30 41 H 37.883123 30.023877 53.553321 0
M  V30 42 H 37.819833 29.074185 55.005593 0
M  V30 43 H 39.245024 32.471715 59.513446 0
M  V30 44 H 39.048017 34.138041 59.193067 0
M  V30 45 H 39.998833 27.337885 50.424082 0
M  V30 46 H 39.645202 26.137931 51.642556 0
M  V30 47 H 38.383141 26.661905 50.567753 0
M  V30 48 H 37.065756 32.368453 62.567751 0
M  V30 49 H 36.549071 31.807972 61.007229 0
M  V30 50 H 40.221019 29.590594 55.480676 0
M  V30 51 H 40.391235 30.312849 53.902353 0
M  V30 52 H 38.503628 29.049615 51.523327 0
M  V30 53 H 41.871909 36.102335 63.688072 0
M  V30 54 H 41.468170 34.521828 63.019296 0
M  V30 55 H 41.859628 35.864985 61.942191 0
M  V30 56 H 39.818263 37.082806 62.748145 0
M  V30 57 H 39.396164 35.736903 63.767747 0
M  V30 58 H 38.045226 30.181312 62.253777 0
M  V30 59 H 38.710852 30.616123 60.689456 0
M  V30 60 H 39.357794 31.340900 62.164978 0
M  V30 61 H 38.243276 24.016598 54.568702 0
M  V30 62 H 39.645104 24.638897 55.440708 0
M  V30 63 H 36.689453 33.729426 58.397071 0
M  V30 64 H 36.915234 32.025597 58.647930 0
M  V30 65 H 37.363905 26.105876 54.146433 0
M  V30 66 H 38.584598 24.518356 57.444617 0
M  V30 67 H 37.236244 23.679901 56.677777 0
M  V30 END ATOM
M  V30 BEGIN BOND
M  V30 1 1 6 4
M  V30 2 1 7 3
M  V30 3 1 7 5
M  V30 4 1 8 2
M  V30 5 1 9 2
M  V30 6 1 10 4
M  V30 7 1 14 9
M  V30 8 1 14 10
M  V30 9 1 15 3
M  V30 10 1 16 1
M  V30 11 2 17 4
M  V30 12 1 17 12
M  V30 13 1 19 3
M  V30 14 1 19 18
M  V30 15 1 20 5
M  V30 16 1 20 11 CFG=3
M  V30 17 1 20 13
M  V30 18 1 20 15
M  V30 19 1 21 13
M  V30 20 1 23 8
M  V30 21 1 23 11
M  V30 22 1 24 6
M  V30 23 1 24 16
M  V30 24 1 24 22
M  V30 25 1 25 1
M  V30 26 1 25 22
M  V30 27 1 26 1
M  V30 28 1 27 1
M  V30 29 1 28 2
M  V30 30 1 29 2
M  V30 31 1 3 30 CFG=3
M  V30 32 1 31 5
M  V30 33 1 32 5
M  V30 34 1 33 6
M  V30 35 1 34 6
M  V30 36 1 35 7
M  V30 37 1 36 7
M  V30 38 1 37 8
M  V30 39 1 38 8
M  V30 40 1 39 9
M  V30 41 1 40 9
M  V30 42 1 41 10
M  V30 43 1 42 10
M  V30 44 1 43 11
M  V30 45 1 44 11
M  V30 46 1 45 12
M  V30 47 1 46 12
M  V30 48 1 47 12
M  V30 49 1 48 13
M  V30 50 1 49 13
M  V30 51 1 50 14
M  V30 52 1 51 14
M  V30 53 1 52 17
M  V30 54 1 53 18
M  V30 55 1 54 18
M  V30 56 1 55 18
M  V30 57 1 56 19
M  V30 58 1 57 19
M  V30 59 1 58 21
M  V30 60 1 59 21
M  V30 61 1 60 21
M  V30 62 1 61 22
M  V30 63 1 62 22
M  V30 64 1 63 23
M  V30 65 1 64 23
M  V30 66 1 24 65 CFG=3
M  V30 67 1 66 25
M  V30 68 1 67 25
M  V30 END BOND
M  V30 END CTAB
M  END
>  <i_epik_Tot_Q>  (1) 
0

>  <i_epik_Tot_abs_Q>  (1) 
0

>  <i_i_glide_confnum>  (1) 
1147

>  <i_i_glide_lignum>  (1) 
188

>  <i_i_glide_posenum>  (1) 
291

>  <i_i_glide_rotatable_bonds>  (1) 
12

>  <i_lp_mmshare_version>  (1) 
72125

>  <i_m_source_file_index>  (1) 
82

>  <i_f3d_flags>  (1) 
0

>  <num_sample>  (1) 
100

>  <b_lp_Chiralities_Consistent>  (1) 
1

>  <r_epik_Charging_Adjusted_Penalty>  (1) 
0

>  <r_epik_Ionization_Penalty>  (1) 
4.3050601408714213e-11

>  <r_epik_Ionization_Penalty_Charging>  (1) 
0

>  <r_epik_Ionization_Penalty_Neutral>  (1) 
4.3050601408714213e-11

>  <r_epik_State_Penalty>  (1) 
-0

>  <r_glide_ring_energy>  (1) 
0

>  <r_i_docking_score>  (1) 
-6.1610325084756941

>  <r_i_glide_ecoul>  (1) 
0.092298180011276265

>  <r_i_glide_eff_state_penalty>  (1) 
-0

>  <r_i_glide_einternal>  (1) 
9.285849481123007

>  <r_i_glide_emodel>  (1) 
-43.837095986347251

>  <r_i_glide_emodel_strain>  (1) 
1.6666224132982279

>  <r_i_glide_energy>  (1) 
-37.577270621258243

>  <r_i_glide_erotb>  (1) 
1.3958139752623098

>  <r_i_glide_esite>  (1) 
0

>  <r_i_glide_evdw>  (1) 
-37.66956880126952

>  <r_i_glide_gscore>  (1) 
-6.1610325084756941

>  <r_i_glide_gscore_strain>  (1) 
0

>  <r_i_glide_hbond>  (1) 
0

>  <r_i_glide_ligand_efficiency>  (1) 
-0.24644130033902775

>  <r_i_glide_ligand_efficiency_ln>  (1) 
-1.4603493357541915

>  <r_i_glide_ligand_efficiency_sa>  (1) 
-0.72059873361956162

>  <r_i_glide_lipo>  (1) 
-4.1955139412582856

>  <r_i_glide_metal>  (1) 
-0

>  <r_i_glide_rewards>  (1) 
-1.4916988294179341

>  <r_lp_Energy>  (1) 
-0.19809599999999999

>  <r_lp_tautomer_probability>  (1) 
1

>  <s_epik_cmdline>  (1) 
J2VwaWtfcHl0aG9uJywgJy1waHQnLCAnMS4wJywgJy1waCcsICc3LjQnLCAnLXRuJywgJzgnLCAnLW1hJywgJzUwMCcsICctaW1hZScsICc8aW5maWxlLm1hZT4nLCAnLW9tYWUnLCAnPG91dGZpbGUubWFlPic=

>  <s_epik_input>  (1) 
W0NIMl0xW0NIMl1bQ0gyXU9bQ0BIXTFbQ0gyXS9DKD1bQ0hdXFtDSDNdKVtDSDJdW0NIMl1bQ0gyXVtDSDJdW0NIMl1bQ0gyXVtDSDJdW0NAXTIoW0NIMl1bQ0gzXSlbQ0gyXVtDSDJdW0NASF0oTzIpW0NIMl1bQ0gzXQ==

>  <s_glide_docking_method>  (1) 
confgen

>  <s_i_glide_gridfile>  (1) 
gpcr_5ht2c_6bqh_protein_autoprepared_prepared

>  <s_lp_Force_Field>  (1) 
S-OPLS

>  <s_lp_Variant>  (1) 
DiffSBDD_81-2

>  <s_m_source_file>  (1) 
generated_GPCR_5HT2C_ligand_DiffSBDD_2026-06-23_prepared.sdf

>  <GenAI_Model>  (1) 
DiffSBDD

>  <Protein>  (1) 
GPCR_5HT2C

$$$$
DiffSBDD_88
     RDKit          3D

  0  0  0  0  0  0  0  0  0  0999 V3000
M  V30 BEGIN CTAB
M  V30 COUNTS 46 47 0 0 1
M  V30 BEGIN ATOM
M  V30 1 C 38.044954 27.556728 57.798142 0
M  V30 2 O 37.727565 32.937947 61.767780 0
M  V30 3 O 38.773342 27.694173 54.219629 0
M  V30 4 C 40.777473 27.113447 57.280123 0
M  V30 5 C 39.267763 29.808455 60.439545 0
M  V30 6 C 39.230720 27.737747 51.517360 0
M  V30 7 C 39.815085 26.194473 56.819109 0
M  V30 8 C 39.205533 31.191374 61.136269 0
M  V30 9 C 38.042418 31.280897 56.033822 0 CFG=1
M  V30 10 C 37.645230 32.884645 57.960120 0
M  V30 11 C 38.763011 28.720038 53.534279 0
M  V30 12 C 37.805375 31.733945 61.447927 0
M  V30 13 C 39.371657 31.833302 55.525818 0
M  V30 14 C 38.448918 26.416899 57.077025 0
M  V30 15 C 40.375735 28.251492 58.003967 0
M  V30 16 C 38.452626 30.076241 54.177267 0 CFG=1
M  V30 17 C 39.006890 28.473785 58.269768 0
M  V30 18 O 38.028935 29.950816 55.529989 0
M  V30 19 C 38.568829 29.703439 59.060706 0 CFG=2
M  V30 20 C 39.633089 31.049259 54.245639 0
M  V30 21 N 39.006355 28.807837 52.168692 0
M  V30 22 C 37.778831 31.407905 57.550672 0 CFG=2
M  V30 23 O 38.845154 30.889185 58.328419 0
M  V30 24 O 36.845686 30.937831 61.367743 0 CHG=-1
M  V30 25 H 36.997150 27.727767 57.991095 0
M  V30 26 H 41.825324 26.943982 57.078871 0
M  V30 27 H 38.876355 29.036193 61.102622 0
M  V30 28 H 40.327749 29.584825 60.332594 0
M  V30 29 H 39.415284 27.775568 50.440705 0
M  V30 30 H 39.243871 26.762435 52.014997 0
M  V30 31 H 40.125349 25.321246 56.264070 0
M  V30 32 H 39.749236 31.140161 62.079110 0
M  V30 33 H 39.723562 31.933796 60.529128 0
M  V30 34 H 37.245220 31.816077 55.516553 0
M  V30 35 H 36.891766 33.402252 57.367523 0
M  V30 36 H 37.345867 32.977081 59.001277 0
M  V30 37 H 38.588786 33.415895 57.837792 0
M  V30 38 H 39.324806 32.910650 55.367725 0
M  V30 39 H 40.155139 31.630035 56.245300 0
M  V30 40 H 37.710042 25.715139 56.719072 0
M  V30 41 H 41.116458 28.953315 58.355878 0
M  V30 42 H 37.645145 30.541109 53.622884 0
M  V30 43 H 37.503606 29.610812 59.273252 0
M  V30 44 H 40.593317 30.535158 54.302421 0
M  V30 45 H 39.644937 31.697519 53.369336 0
M  V30 46 H 36.846272 30.896478 57.789192 0
M  V30 END ATOM
M  V30 BEGIN BOND
M  V30 1 2 7 4
M  V30 2 1 8 5
M  V30 3 2 11 3
M  V30 4 2 12 2
M  V30 5 1 12 8
M  V30 6 1 13 9
M  V30 7 2 14 1
M  V30 8 1 14 7
M  V30 9 1 15 4
M  V30 10 1 16 11
M  V30 11 1 17 1
M  V30 12 2 17 15
M  V30 13 1 18 9
M  V30 14 1 18 16
M  V30 15 1 19 5
M  V30 16 1 19 17
M  V30 17 1 20 13
M  V30 18 1 20 16
M  V30 19 2 21 6
M  V30 20 1 21 11
M  V30 21 1 22 9
M  V30 22 1 22 10
M  V30 23 1 23 19
M  V30 24 1 23 22
M  V30 25 1 24 12
M  V30 26 1 25 1
M  V30 27 1 26 4
M  V30 28 1 27 5
M  V30 29 1 28 5
M  V30 30 1 29 6
M  V30 31 1 30 6
M  V30 32 1 31 7
M  V30 33 1 32 8
M  V30 34 1 33 8
M  V30 35 1 9 34 CFG=3
M  V30 36 1 35 10
M  V30 37 1 36 10
M  V30 38 1 37 10
M  V30 39 1 38 13
M  V30 40 1 39 13
M  V30 41 1 40 14
M  V30 42 1 41 15
M  V30 43 1 16 42 CFG=3
M  V30 44 1 19 43 CFG=1
M  V30 45 1 44 20
M  V30 46 1 45 20
M  V30 47 1 22 46 CFG=3
M  V30 END BOND
M  V30 END CTAB
M  END
>  <i_epik_Tot_Q>  (1) 
-1

>  <i_epik_Tot_abs_Q>  (1) 
1

>  <i_i_glide_confnum>  (1) 
808

>  <i_i_glide_lignum>  (1) 
208

>  <i_i_glide_posenum>  (1) 
24

>  <i_i_glide_rotatable_bonds>  (1) 
9

>  <i_lp_mmshare_version>  (1) 
72125

>  <i_m_source_file_index>  (1) 
89

>  <i_f3d_flags>  (1) 
0

>  <num_sample>  (1) 
100

>  <b_lp_Chiralities_Consistent>  (1) 
1

>  <r_epik_Charging_Adjusted_Penalty>  (1) 
0.00097316561850613933

>  <r_epik_Ionization_Penalty>  (1) 
0.00097316561914866995

>  <r_epik_Ionization_Penalty_Charging>  (1) 
0.00097316561850613933

>  <r_epik_Ionization_Penalty_Neutral>  (1) 
6.4253058124533643e-13

>  <r_epik_State_Penalty>  (1) 
-0

>  <r_glide_ring_energy>  (1) 
0

>  <r_i_docking_score>  (1) 
-6.1569389344779797

>  <r_i_glide_ecoul>  (1) 
-4.9644786190317047

>  <r_i_glide_eff_state_penalty>  (1) 
-0

>  <r_i_glide_einternal>  (1) 
11.824719747433662

>  <r_i_glide_emodel>  (1) 
-48.679351110219642

>  <r_i_glide_emodel_strain>  (1) 
0.60421911351000901

>  <r_i_glide_energy>  (1) 
-38.922312436674339

>  <r_i_glide_erotb>  (1) 
1.1933401275703905

>  <r_i_glide_esite>  (1) 
0

>  <r_i_glide_evdw>  (1) 
-33.957833817642637

>  <r_i_glide_gscore>  (1) 
-6.1569389344779797

>  <r_i_glide_gscore_strain>  (1) 
0

>  <r_i_glide_hbond>  (1) 
-0.16

>  <r_i_glide_ligand_efficiency>  (1) 
-0.25653912226991582

>  <r_i_glide_ligand_efficiency_ln>  (1) 
-1.4736380105388049

>  <r_i_glide_ligand_efficiency_sa>  (1) 
-0.73998687772165161

>  <r_i_glide_lipo>  (1) 
-2.1809581587727638

>  <r_i_glide_metal>  (1) 
-0

>  <r_i_glide_rewards>  (1) 
-2.5667574195387184

>  <r_lp_Energy>  (1) 
7.8123529999999999

>  <r_lp_tautomer_probability>  (1) 
1

>  <s_epik_Chemistry_Notes>  (1) 
This compound has an imine and may undergo hydrolysis.

>  <s_epik_cmdline>  (1) 
J2VwaWtfcHl0aG9uJywgJy1waHQnLCAnMS4wJywgJy1waCcsICc3LjQnLCAnLXRuJywgJzgnLCAnLW1hJywgJzUwMCcsICctaW1hZScsICc8aW5maWxlLm1hZT4nLCAnLW9tYWUnLCAnPG91dGZpbGUubWFlPic=

>  <s_epik_input>  (1) 
W2NIXTFbY0hdW2NIXVtjSF1bY0hdYzFbQ0BASF0oW0NIMl1bQ0gyXUMoPU8pW09IXSlPW0NAQEhdKFtDSDNdKVtDQEhdMltDSDJdW0NIMl1bQ0BIXShPMilDKD1PKU49W0NIMl0=

>  <s_glide_docking_method>  (1) 
confgen

>  <s_i_glide_gridfile>  (1) 
gpcr_5ht2c_6bqh_protein_autoprepared_prepared

>  <s_lp_Force_Field>  (1) 
S-OPLS

>  <s_lp_Variant>  (1) 
DiffSBDD_88-1

>  <s_m_source_file>  (1) 
generated_GPCR_5HT2C_ligand_DiffSBDD_2026-06-23_prepared.sdf

>  <GenAI_Model>  (1) 
DiffSBDD

>  <Protein>  (1) 
GPCR_5HT2C

$$$$
DiffSBDD_81
     RDKit          3D

  0  0  0  0  0  0  0  0  0  0999 V3000
M  V30 BEGIN CTAB
M  V30 COUNTS 67 68 0 0 1
M  V30 BEGIN ATOM
M  V30 1 C 38.077079 24.920573 55.369371 0
M  V30 2 C 38.145494 31.473138 56.396052 0
M  V30 3 C 39.312770 34.915628 61.204985 0 CFG=2
M  V30 4 C 39.236755 29.003534 53.042711 0
M  V30 5 C 36.923795 35.149369 61.018413 0
M  V30 6 C 38.127302 28.112726 53.598397 0
M  V30 7 C 38.161522 35.854962 61.554436 0
M  V30 8 C 38.714493 32.814608 56.888868 0
M  V30 9 C 37.812117 31.478224 54.891606 0
M  V30 10 C 39.795670 30.043501 54.003524 0
M  V30 11 C 37.531973 33.736049 58.971242 0
M  V30 12 C 39.215670 27.869044 50.762458 0
M  V30 13 C 36.477182 32.661996 61.070685 0
M  V30 14 C 39.060568 31.389893 54.001186 0
M  V30 15 O 38.686877 33.642466 61.138241 0
M  V30 16 O 37.562220 25.966756 54.561738 0
M  V30 17 C 39.707271 28.883000 51.781156 0
M  V30 18 C 41.216113 36.206598 62.337064 0
M  V30 19 C 40.454188 34.879993 62.233641 0
M  V30 20 C 37.406437 33.769517 60.521455 0 CFG=2
M  V30 21 C 36.810655 31.232824 60.629926 0
M  V30 22 C 39.415960 26.912073 55.503597 0
M  V30 23 C 38.730302 32.935310 58.419791 0
M  V30 24 C 38.651394 26.790692 54.183769 0 CFG=2
M  V30 25 C 39.231881 25.548505 56.153444 0
M  V30 26 H 37.303777 24.500487 56.012744 0
M  V30 27 H 38.444871 24.131661 54.716279 0
M  V30 28 H 37.246303 31.234263 56.954530 0
M  V30 29 H 38.834833 30.668127 56.644743 0
M  V30 30 H 39.704706 35.168215 60.219315 0
M  V30 31 H 36.437017 35.726126 60.231086 0
M  V30 32 H 36.196906 35.048496 61.825415 0
M  V30 33 H 37.574254 28.637014 54.372161 0
M  V30 34 H 37.385410 27.911597 52.826946 0
M  V30 35 H 38.073821 35.976077 62.634655 0
M  V30 36 H 38.300279 36.845415 61.119758 0
M  V30 37 H 39.732705 32.926389 56.515384 0
M  V30 38 H 38.146051 33.643245 56.462443 0
M  V30 39 H 37.268664 32.393231 54.651752 0
M  V30 40 H 37.110803 30.681857 54.658012 0
M  V30 41 H 39.890203 29.628310 55.004608 0
M  V30 42 H 40.813927 30.258098 53.690610 0
M  V30 43 H 37.624003 34.750406 58.585444 0
M  V30 44 H 36.602192 33.358149 58.542579 0
M  V30 45 H 40.045188 27.240218 50.442141 0
M  V30 46 H 38.431809 27.204904 51.118559 0
M  V30 47 H 38.845125 28.394889 49.883628 0
M  V30 48 H 36.487267 32.699978 62.161237 0
M  V30 49 H 35.450589 32.876491 60.770303 0
M  V30 50 H 39.759771 32.135576 54.364047 0
M  V30 51 H 38.844950 31.688723 52.975836 0
M  V30 52 H 40.494193 29.544637 51.448110 0
M  V30 53 H 42.041628 36.131238 63.045491 0
M  V30 54 H 41.629566 36.496749 61.371434 0
M  V30 55 H 40.565688 37.011636 62.679661 0
M  V30 56 H 40.060920 34.606646 63.213487 0
M  V30 57 H 41.154029 34.090954 61.956871 0
M  V30 58 H 36.098785 30.537756 61.066219 0
M  V30 59 H 36.735868 31.116342 59.548466 0
M  V30 60 H 37.812877 30.939152 60.941575 0
M  V30 61 H 40.463700 27.176923 55.366695 0
M  V30 62 H 38.958073 27.676118 56.132950 0
M  V30 63 H 38.797400 31.947070 58.872665 0
M  V30 64 H 39.645130 33.449084 58.707514 0
M  V30 65 H 39.254647 26.260415 53.445222 0
M  V30 66 H 38.996386 25.647976 57.213684 0
M  V30 67 H 40.130778 24.937575 56.066703 0
M  V30 END ATOM
M  V30 BEGIN BOND
M  V30 1 1 6 4
M  V30 2 1 7 3
M  V30 3 1 7 5
M  V30 4 1 8 2
M  V30 5 1 9 2
M  V30 6 1 10 4
M  V30 7 1 14 9
M  V30 8 1 14 10
M  V30 9 1 15 3
M  V30 10 1 16 1
M  V30 11 2 17 4
M  V30 12 1 17 12
M  V30 13 1 19 3
M  V30 14 1 19 18
M  V30 15 1 20 5
M  V30 16 1 20 11 CFG=3
M  V30 17 1 20 13
M  V30 18 1 20 15
M  V30 19 1 21 13
M  V30 20 1 23 8
M  V30 21 1 23 11
M  V30 22 1 24 6
M  V30 23 1 24 16
M  V30 24 1 24 22
M  V30 25 1 25 1
M  V30 26 1 25 22
M  V30 27 1 26 1
M  V30 28 1 27 1
M  V30 29 1 28 2
M  V30 30 1 29 2
M  V30 31 1 3 30 CFG=3
M  V30 32 1 31 5
M  V30 33 1 32 5
M  V30 34 1 33 6
M  V30 35 1 34 6
M  V30 36 1 35 7
M  V30 37 1 36 7
M  V30 38 1 37 8
M  V30 39 1 38 8
M  V30 40 1 39 9
M  V30 41 1 40 9
M  V30 42 1 41 10
M  V30 43 1 42 10
M  V30 44 1 43 11
M  V30 45 1 44 11
M  V30 46 1 45 12
M  V30 47 1 46 12
M  V30 48 1 47 12
M  V30 49 1 48 13
M  V30 50 1 49 13
M  V30 51 1 50 14
M  V30 52 1 51 14
M  V30 53 1 52 17
M  V30 54 1 53 18
M  V30 55 1 54 18
M  V30 56 1 55 18
M  V30 57 1 56 19
M  V30 58 1 57 19
M  V30 59 1 58 21
M  V30 60 1 59 21
M  V30 61 1 60 21
M  V30 62 1 61 22
M  V30 63 1 62 22
M  V30 64 1 63 23
M  V30 65 1 64 23
M  V30 66 1 24 65 CFG=3
M  V30 67 1 66 25
M  V30 68 1 67 25
M  V30 END BOND
M  V30 END CTAB
M  END
>  <i_epik_Tot_Q>  (1) 
0

>  <i_epik_Tot_abs_Q>  (1) 
0

>  <i_i_glide_confnum>  (1) 
822

>  <i_i_glide_lignum>  (1) 
188

>  <i_i_glide_posenum>  (1) 
375

>  <i_i_glide_rotatable_bonds>  (1) 
12

>  <i_lp_mmshare_version>  (1) 
72125

>  <i_m_source_file_index>  (1) 
82

>  <i_f3d_flags>  (1) 
0

>  <num_sample>  (1) 
100

>  <b_lp_Chiralities_Consistent>  (1) 
1

>  <r_epik_Charging_Adjusted_Penalty>  (1) 
0

>  <r_epik_Ionization_Penalty>  (1) 
4.3050601408714213e-11

>  <r_epik_Ionization_Penalty_Charging>  (1) 
0

>  <r_epik_Ionization_Penalty_Neutral>  (1) 
4.3050601408714213e-11

>  <r_epik_State_Penalty>  (1) 
-0

>  <r_glide_ring_energy>  (1) 
0

>  <r_i_docking_score>  (1) 
-6.1551439141836823

>  <r_i_glide_ecoul>  (1) 
-0.4770830141641228

>  <r_i_glide_eff_state_penalty>  (1) 
-0

>  <r_i_glide_einternal>  (1) 
8.6669370565079245

>  <r_i_glide_emodel>  (1) 
-45.639519964029382

>  <r_i_glide_emodel_strain>  (1) 
0.74836467391057226

>  <r_i_glide_energy>  (1) 
-38.163994207499471

>  <r_i_glide_erotb>  (1) 
1.3958139752623098

>  <r_i_glide_esite>  (1) 
0

>  <r_i_glide_evdw>  (1) 
-37.686911193335348

>  <r_i_glide_gscore>  (1) 
-6.1551439141836823

>  <r_i_glide_gscore_strain>  (1) 
0

>  <r_i_glide_hbond>  (1) 
0

>  <r_i_glide_ligand_efficiency>  (1) 
-0.24620575656734731

>  <r_i_glide_ligand_efficiency_ln>  (1) 
-1.4589535624400538

>  <r_i_glide_ligand_efficiency_sa>  (1) 
-0.71990999945304235

>  <r_i_glide_lipo>  (1) 
-3.9844467030558657

>  <r_i_glide_metal>  (1) 
-0

>  <r_i_glide_rewards>  (1) 
-1.6106031745987401

>  <r_lp_Energy>  (1) 
-0.19809599999999999

>  <r_lp_tautomer_probability>  (1) 
1

>  <s_epik_cmdline>  (1) 
J2VwaWtfcHl0aG9uJywgJy1waHQnLCAnMS4wJywgJy1waCcsICc3LjQnLCAnLXRuJywgJzgnLCAnLW1hJywgJzUwMCcsICctaW1hZScsICc8aW5maWxlLm1hZT4nLCAnLW9tYWUnLCAnPG91dGZpbGUubWFlPic=

>  <s_epik_input>  (1) 
W0NIMl0xW0NIMl1bQ0gyXU9bQ0BIXTFbQ0gyXS9DKD1bQ0hdXFtDSDNdKVtDSDJdW0NIMl1bQ0gyXVtDSDJdW0NIMl1bQ0gyXVtDSDJdW0NAXTIoW0NIMl1bQ0gzXSlbQ0gyXVtDSDJdW0NASF0oTzIpW0NIMl1bQ0gzXQ==

>  <s_glide_docking_method>  (1) 
confgen

>  <s_i_glide_gridfile>  (1) 
gpcr_5ht2c_6bqh_protein_autoprepared_prepared

>  <s_lp_Force_Field>  (1) 
S-OPLS

>  <s_lp_Variant>  (1) 
DiffSBDD_81-2

>  <s_m_source_file>  (1) 
generated_GPCR_5HT2C_ligand_DiffSBDD_2026-06-23_prepared.sdf

>  <GenAI_Model>  (1) 
DiffSBDD

>  <Protein>  (1) 
GPCR_5HT2C

$$$$
DiffSBDD_83
     RDKit          3D

  0  0  0  0  0  0  0  0  0  0999 V3000
M  V30 BEGIN CTAB
M  V30 COUNTS 54 55 0 0 1
M  V30 BEGIN ATOM
M  V30 1 C 40.445192 35.643060 64.250824 0
M  V30 2 C 38.062132 31.093947 59.260002 0
M  V30 3 N 37.286095 32.191707 59.022343 0
M  V30 4 O 37.245431 28.088376 53.863844 0
M  V30 5 O 40.484814 36.139441 65.512066 0
M  V30 6 C 41.232536 33.625121 62.983300 0
M  V30 7 C 42.052373 32.352698 62.880943 0
M  V30 8 C 38.910765 29.132872 52.825764 0
M  V30 9 C 38.042845 25.646284 56.567392 0
M  V30 10 C 41.243641 34.380557 64.116097 0
M  V30 11 C 37.991484 29.869390 58.411499 0
M  V30 12 C 38.924082 33.546353 61.866509 0
M  V30 13 N 37.493055 33.199016 59.891310 0
M  V30 14 O 41.788504 36.137735 66.166652 0
M  V30 15 C 38.109703 28.854181 56.045759 0 CFG=1
M  V30 16 C 40.657327 28.519284 56.371470 0
M  V30 17 C 38.052872 28.169704 52.805665 0
M  V30 18 O 39.791853 36.160260 63.347665 0
M  V30 19 C 37.719613 29.252299 54.596499 0 CFG=1
M  V30 20 C 38.821851 31.378542 60.354583 0
M  V30 21 O 38.838100 29.894661 53.922653 0
M  V30 22 C 39.087934 26.667019 57.044772 0
M  V30 23 C 39.307971 27.848220 56.069276 0 CFG=1
M  V30 24 C 38.425209 32.708246 60.716975 0
M  V30 25 Cl 40.045627 29.415747 51.558232 0
M  V30 26 C 40.408257 33.962162 61.737216 0
M  V30 27 C 38.223406 30.132415 56.914065 0
M  V30 28 H 36.602446 32.268015 58.267247 0
M  V30 29 H 42.805977 32.448539 62.098610 0
M  V30 30 H 42.563103 32.129232 63.818031 0
M  V30 31 H 41.407705 31.507010 62.640173 0
M  V30 32 H 37.976492 24.811149 57.265216 0
M  V30 33 H 37.048409 26.083941 56.488201 0
M  V30 34 H 38.307895 25.237456 55.591717 0
M  V30 35 H 41.839052 34.065789 64.959783 0
M  V30 36 H 38.726841 29.154851 58.777202 0
M  V30 37 H 37.016863 29.400621 58.553432 0
M  V30 38 H 38.787354 32.973768 62.783988 0
M  V30 39 H 38.307059 34.437647 61.981710 0
M  V30 40 H 42.118270 36.978142 65.857322 0
M  V30 41 H 37.245263 28.334157 56.437197 0
M  V30 42 H 40.703677 28.912083 57.387078 0
M  V30 43 H 41.477094 27.809947 56.268186 0
M  V30 44 H 40.845302 29.337671 55.676392 0
M  V30 45 H 37.895838 27.415385 52.047735 0
M  V30 46 H 36.889958 29.963034 54.601068 0
M  V30 47 H 39.548455 30.738506 60.831809 0
M  V30 48 H 40.029043 26.130012 57.174298 0
M  V30 49 H 38.816579 27.028987 58.035448 0
M  V30 50 H 39.412077 27.399466 55.082176 0
M  V30 51 H 40.534931 34.985523 61.385089 0
M  V30 52 H 40.845867 33.361102 60.948366 0
M  V30 53 H 37.465897 30.846429 56.591263 0
M  V30 54 H 39.171836 30.643829 56.752788 0
M  V30 END ATOM
M  V30 BEGIN BOND
M  V30 1 1 3 2
M  V30 2 1 5 1
M  V30 3 1 7 6
M  V30 4 1 10 1
M  V30 5 2 10 6
M  V30 6 1 11 2
M  V30 7 1 13 3
M  V30 8 1 14 5
M  V30 9 1 17 4
M  V30 10 2 17 8
M  V30 11 2 18 1
M  V30 12 1 19 4
M  V30 13 1 19 15
M  V30 14 2 20 2
M  V30 15 1 21 8
M  V30 16 1 21 19
M  V30 17 1 22 9
M  V30 18 1 23 15
M  V30 19 1 23 16
M  V30 20 1 23 22
M  V30 21 1 24 12
M  V30 22 2 24 13
M  V30 23 1 24 20
M  V30 24 1 25 8
M  V30 25 1 26 6
M  V30 26 1 26 12
M  V30 27 1 27 11
M  V30 28 1 27 15
M  V30 29 1 28 3
M  V30 30 1 29 7
M  V30 31 1 30 7
M  V30 32 1 31 7
M  V30 33 1 32 9
M  V30 34 1 33 9
M  V30 35 1 34 9
M  V30 36 1 35 10
M  V30 37 1 36 11
M  V30 38 1 37 11
M  V30 39 1 38 12
M  V30 40 1 39 12
M  V30 41 1 40 14
M  V30 42 1 15 41 CFG=1
M  V30 43 1 42 16
M  V30 44 1 43 16
M  V30 45 1 44 16
M  V30 46 1 45 17
M  V30 47 1 19 46 CFG=1
M  V30 48 1 47 20
M  V30 49 1 48 22
M  V30 50 1 49 22
M  V30 51 1 23 50 CFG=3
M  V30 52 1 51 26
M  V30 53 1 52 26
M  V30 54 1 53 27
M  V30 55 1 54 27
M  V30 END BOND
M  V30 END CTAB
M  END
>  <i_epik_Tot_Q>  (1) 
0

>  <i_epik_Tot_abs_Q>  (1) 
0

>  <i_i_glide_confnum>  (1) 
2039

>  <i_i_glide_lignum>  (1) 
190

>  <i_i_glide_posenum>  (1) 
103

>  <i_i_glide_rotatable_bonds>  (1) 
12

>  <i_lp_mmshare_version>  (1) 
72125

>  <i_m_source_file_index>  (1) 
84

>  <i_f3d_flags>  (1) 
0

>  <num_sample>  (1) 
100

>  <b_lp_Chiralities_Consistent>  (1) 
1

>  <r_epik_Charging_Adjusted_Penalty>  (1) 
0.41067983895260396

>  <r_epik_Ionization_Penalty>  (1) 
0.00076996626271645392

>  <r_epik_Ionization_Penalty_Charging>  (1) 
0

>  <r_epik_Ionization_Penalty_Neutral>  (1) 
0.00076996626271645392

>  <r_epik_State_Penalty>  (1) 
0.41067983895260396

>  <r_glide_ring_energy>  (1) 
0

>  <r_i_docking_score>  (1) 
-6.153230130898149

>  <r_i_glide_ecoul>  (1) 
-8.3942728489845351

>  <r_i_glide_eff_state_penalty>  (1) 
0.41067983895260396

>  <r_i_glide_einternal>  (1) 
16.366533588135272

>  <r_i_glide_emodel>  (1) 
-49.690342931249823

>  <r_i_glide_emodel_strain>  (1) 
0.30344104223951973

>  <r_i_glide_energy>  (1) 
-41.122955012507198

>  <r_i_glide_erotb>  (1) 
1.1080255732668134

>  <r_i_glide_esite>  (1) 
-0.20907654821163049

>  <r_i_glide_evdw>  (1) 
-32.728682163522663

>  <r_i_glide_gscore>  (1) 
-6.5639099698507533

>  <r_i_glide_gscore_strain>  (1) 
0

>  <r_i_glide_hbond>  (1) 
-0.45599999999999996

>  <r_i_glide_ligand_efficiency>  (1) 
-0.22789741225548699

>  <r_i_glide_ligand_efficiency_ln>  (1) 
-1.4323705305461076

>  <r_i_glide_ligand_efficiency_sa>  (1) 
-0.68369223676646118

>  <r_i_glide_lipo>  (1) 
-2.8824316894399038

>  <r_i_glide_metal>  (1) 
-0

>  <r_i_glide_rewards>  (1) 
-1.2288522699422195

>  <r_lp_Energy>  (1) 
15.920629999999999

>  <r_lp_tautomer_probability>  (1) 
0.5

>  <s_epik_Chemistry_Notes>  (1) 
This compound contains an acetal/aminal-like group ( X-CH(R)-Y where X, Y are N, S, or O) that may be acid/base labile, releasing an aldehyde.

>  <s_epik_cmdline>  (1) 
J2VwaWtfcHl0aG9uJywgJy1waHQnLCAnMS4wJywgJy1waCcsICc3LjQnLCAnLXRuJywgJzgnLCAnLW1hJywgJzUwMCcsICctaW1hZScsICc8aW5maWxlLm1hZT4nLCAnLW9tYWUnLCAnPG91dGZpbGUubWFlPic=

>  <s_epik_input>  (1) 
W09IXU9DKD1PKVxbQ0hdPUMoXFtDSDNdKVtDSDJdW0NIMl1jKFtjSF0xKW5bbkhdYzFbQ0gyXVtDSDJdW0NASF0oW0NAQEhdKFtDSDNdKVtDSDJdW0NIM10pW0NAQEhdKE8yKU9bQ0hdPUMyQ2w=

>  <s_glide_docking_method>  (1) 
confgen

>  <s_i_glide_gridfile>  (1) 
gpcr_5ht2c_6bqh_protein_autoprepared_prepared

>  <s_lp_Force_Field>  (1) 
S-OPLS

>  <s_lp_Variant>  (1) 
DiffSBDD_83-1

>  <s_m_source_file>  (1) 
generated_GPCR_5HT2C_ligand_DiffSBDD_2026-06-23_prepared.sdf

>  <GenAI_Model>  (1) 
DiffSBDD

>  <Protein>  (1) 
GPCR_5HT2C

$$$$
DiffSBDD_81
     RDKit          3D

  0  0  0  0  0  0  0  0  0  0999 V3000
M  V30 BEGIN CTAB
M  V30 COUNTS 67 68 0 0 1
M  V30 BEGIN ATOM
M  V30 1 C 37.013111 24.373316 56.090930 0
M  V30 2 C 38.265190 32.054519 55.409044 0
M  V30 3 C 38.506587 35.634628 61.220275 0 CFG=2
M  V30 4 C 39.062060 27.196069 54.099690 0
M  V30 5 C 36.823843 35.445799 59.554026 0
M  V30 6 C 39.882135 26.420330 55.127668 0
M  V30 7 C 37.396554 36.436576 60.552831 0
M  V30 8 C 38.688291 32.838764 56.661617 0
M  V30 9 C 37.992538 30.560237 55.656970 0
M  V30 10 C 38.069305 28.203817 54.666415 0
M  V30 11 C 38.251576 33.349331 59.147253 0
M  V30 12 C 38.448032 27.729564 51.688735 0
M  V30 13 C 35.999621 33.192310 60.436518 0
M  V30 14 C 38.572542 29.653391 54.562067 0
M  V30 15 O 37.918926 34.346164 61.305415 0
M  V30 16 O 38.010066 24.825001 55.188567 0
M  V30 17 C 39.219027 26.996828 52.772970 0
M  V30 18 C 39.789773 37.391014 62.547538 0
M  V30 19 C 38.920831 36.131713 62.611085 0
M  V30 20 C 37.236023 34.053141 60.085736 0 CFG=2
M  V30 21 C 36.317629 31.849080 61.109098 0
M  V30 22 C 38.519924 25.804989 57.283834 0
M  V30 23 C 37.665585 32.865581 57.807950 0
M  V30 24 C 39.101562 25.356065 55.933802 0 CFG=2
M  V30 25 C 37.059383 25.389118 57.224712 0
M  V30 26 H 36.039545 24.329445 55.605468 0
M  V30 27 H 37.245137 23.374192 56.455651 0
M  V30 28 H 39.058782 32.164174 54.668721 0
M  V30 29 H 37.383089 32.514686 54.962231 0
M  V30 30 H 39.382012 35.585898 60.570597 0
M  V30 31 H 37.245057 35.630589 58.567726 0
M  V30 32 H 35.743652 35.562348 59.457107 0
M  V30 33 H 40.677444 25.906059 54.588163 0
M  V30 34 H 40.392987 27.115643 55.794366 0
M  V30 35 H 36.633486 36.705857 61.283342 0
M  V30 36 H 37.753754 37.352728 60.082507 0
M  V30 37 H 39.644664 32.456350 57.015718 0
M  V30 38 H 38.845170 33.869276 56.351429 0
M  V30 39 H 36.914915 30.408537 55.742623 0
M  V30 40 H 38.415855 30.252070 56.613839 0
M  V30 41 H 37.098493 28.098172 54.182432 0
M  V30 42 H 37.882562 27.962725 55.709031 0
M  V30 43 H 38.706213 32.500121 59.658291 0
M  V30 44 H 39.081340 34.026591 58.958228 0
M  V30 45 H 38.045291 27.000740 50.986745 0
M  V30 46 H 37.618309 28.329859 52.055164 0
M  V30 47 H 39.120501 28.385284 51.136165 0
M  V30 48 H 35.348764 33.761595 61.101504 0
M  V30 49 H 35.412091 33.008479 59.535863 0
M  V30 50 H 39.660561 29.676553 54.641883 0
M  V30 51 H 38.332418 30.051539 53.576059 0
M  V30 52 H 39.941326 26.270638 52.431612 0
M  V30 53 H 40.045103 37.739102 63.548476 0
M  V30 54 H 40.721974 37.192340 62.017872 0
M  V30 55 H 39.276569 38.198814 62.027553 0
M  V30 56 H 38.038007 36.314678 63.224485 0
M  V30 57 H 39.485887 35.346775 63.114423 0
M  V30 58 H 35.397035 31.325808 61.367742 0
M  V30 59 H 36.888425 31.196344 60.448624 0
M  V30 60 H 36.894119 31.995513 62.022496 0
M  V30 61 H 39.030387 25.289061 58.097274 0
M  V30 62 H 38.628514 26.872402 57.471938 0
M  V30 63 H 36.845107 33.510366 57.500580 0
M  V30 64 H 37.245141 31.874021 57.966921 0
M  V30 65 H 39.786969 24.537653 56.146881 0
M  V30 66 H 36.445147 26.248489 56.967760 0
M  V30 67 H 36.692961 24.983316 58.167760 0
M  V30 END ATOM
M  V30 BEGIN BOND
M  V30 1 1 6 4
M  V30 2 1 7 3
M  V30 3 1 7 5
M  V30 4 1 8 2
M  V30 5 1 9 2
M  V30 6 1 10 4
M  V30 7 1 14 9
M  V30 8 1 14 10
M  V30 9 1 15 3
M  V30 10 1 16 1
M  V30 11 2 17 4
M  V30 12 1 17 12
M  V30 13 1 19 3
M  V30 14 1 19 18
M  V30 15 1 20 5
M  V30 16 1 20 11 CFG=3
M  V30 17 1 20 13
M  V30 18 1 20 15
M  V30 19 1 21 13
M  V30 20 1 23 8
M  V30 21 1 23 11
M  V30 22 1 24 6
M  V30 23 1 24 16
M  V30 24 1 24 22
M  V30 25 1 25 1
M  V30 26 1 25 22
M  V30 27 1 26 1
M  V30 28 1 27 1
M  V30 29 1 28 2
M  V30 30 1 29 2
M  V30 31 1 3 30 CFG=3
M  V30 32 1 31 5
M  V30 33 1 32 5
M  V30 34 1 33 6
M  V30 35 1 34 6
M  V30 36 1 35 7
M  V30 37 1 36 7
M  V30 38 1 37 8
M  V30 39 1 38 8
M  V30 40 1 39 9
M  V30 41 1 40 9
M  V30 42 1 41 10
M  V30 43 1 42 10
M  V30 44 1 43 11
M  V30 45 1 44 11
M  V30 46 1 45 12
M  V30 47 1 46 12
M  V30 48 1 47 12
M  V30 49 1 48 13
M  V30 50 1 49 13
M  V30 51 1 50 14
M  V30 52 1 51 14
M  V30 53 1 52 17
M  V30 54 1 53 18
M  V30 55 1 54 18
M  V30 56 1 55 18
M  V30 57 1 56 19
M  V30 58 1 57 19
M  V30 59 1 58 21
M  V30 60 1 59 21
M  V30 61 1 60 21
M  V30 62 1 61 22
M  V30 63 1 62 22
M  V30 64 1 63 23
M  V30 65 1 64 23
M  V30 66 1 24 65 CFG=1
M  V30 67 1 66 25
M  V30 68 1 67 25
M  V30 END BOND
M  V30 END CTAB
M  END
>  <i_epik_Tot_Q>  (1) 
0

>  <i_epik_Tot_abs_Q>  (1) 
0

>  <i_i_glide_confnum>  (1) 
1160

>  <i_i_glide_lignum>  (1) 
187

>  <i_i_glide_posenum>  (1) 
262

>  <i_i_glide_rotatable_bonds>  (1) 
12

>  <i_lp_mmshare_version>  (1) 
72125

>  <i_m_source_file_index>  (1) 
82

>  <i_f3d_flags>  (1) 
0

>  <num_sample>  (1) 
100

>  <b_lp_Chiralities_Consistent>  (1) 
1

>  <r_epik_Charging_Adjusted_Penalty>  (1) 
0

>  <r_epik_Ionization_Penalty>  (1) 
4.3050601408714213e-11

>  <r_epik_Ionization_Penalty_Charging>  (1) 
0

>  <r_epik_Ionization_Penalty_Neutral>  (1) 
4.3050601408714213e-11

>  <r_epik_State_Penalty>  (1) 
-0

>  <r_glide_ring_energy>  (1) 
0

>  <r_i_docking_score>  (1) 
-6.1470446167690369

>  <r_i_glide_ecoul>  (1) 
0.053467708340511622

>  <r_i_glide_eff_state_penalty>  (1) 
-0

>  <r_i_glide_einternal>  (1) 
8.9732123882061394

>  <r_i_glide_emodel>  (1) 
-44.966899699030606

>  <r_i_glide_emodel_strain>  (1) 
2.7456669977342401

>  <r_i_glide_energy>  (1) 
-39.22720158826683

>  <r_i_glide_erotb>  (1) 
1.3958139752623098

>  <r_i_glide_esite>  (1) 
0

>  <r_i_glide_evdw>  (1) 
-39.280669296607343

>  <r_i_glide_gscore>  (1) 
-6.1470446167690369

>  <r_i_glide_gscore_strain>  (1) 
0

>  <r_i_glide_hbond>  (1) 
0

>  <r_i_glide_ligand_efficiency>  (1) 
-0.24588178467076147

>  <r_i_glide_ligand_efficiency_ln>  (1) 
-1.4570337862364253

>  <r_i_glide_ligand_efficiency_sa>  (1) 
-0.71896269988074302

>  <r_i_glide_lipo>  (1) 
-3.8839218287776518

>  <r_i_glide_metal>  (1) 
-0

>  <r_i_glide_rewards>  (1) 
-1.7029234546744043

>  <r_lp_Energy>  (1) 
1.9057109999999999

>  <r_lp_tautomer_probability>  (1) 
1

>  <s_epik_cmdline>  (1) 
J2VwaWtfcHl0aG9uJywgJy1waHQnLCAnMS4wJywgJy1waCcsICc3LjQnLCAnLXRuJywgJzgnLCAnLW1hJywgJzUwMCcsICctaW1hZScsICc8aW5maWxlLm1hZT4nLCAnLW9tYWUnLCAnPG91dGZpbGUubWFlPic=

>  <s_epik_input>  (1) 
W0NIMl0xW0NIMl1bQ0gyXU9bQ0BIXTFbQ0gyXS9DKD1bQ0hdL1tDSDNdKVtDSDJdW0NIMl1bQ0gyXVtDSDJdW0NIMl1bQ0gyXVtDSDJdW0NAXTIoW0NIMl1bQ0gzXSlbQ0gyXVtDSDJdW0NASF0oTzIpW0NIMl1bQ0gzXQ==

>  <s_glide_docking_method>  (1) 
confgen

>  <s_i_glide_gridfile>  (1) 
gpcr_5ht2c_6bqh_protein_autoprepared_prepared

>  <s_lp_Force_Field>  (1) 
S-OPLS

>  <s_lp_Variant>  (1) 
DiffSBDD_81-1

>  <s_m_source_file>  (1) 
generated_GPCR_5HT2C_ligand_DiffSBDD_2026-06-23_prepared.sdf

>  <GenAI_Model>  (1) 
DiffSBDD

>  <Protein>  (1) 
GPCR_5HT2C

$$$$
DiffSBDD_20
     RDKit          3D

  0  0  0  0  0  0  0  0  0  0999 V3000
M  V30 BEGIN CTAB
M  V30 COUNTS 53 54 0 0 1
M  V30 BEGIN ATOM
M  V30 1 C 38.904993 29.284920 57.698826 0 CFG=2
M  V30 2 O 36.785904 30.137621 58.556285 0
M  V30 3 O 38.686662 25.769663 56.302425 0
M  V30 4 P 39.671927 26.617899 55.597218 0
M  V30 5 C 38.831166 30.380212 59.832464 0 CFG=1
M  V30 6 N 40.044746 28.869395 50.283754 0
M  V30 7 C 37.766690 32.558175 60.688503 0
M  V30 8 C 35.244650 32.765528 61.162656 0
M  V30 9 C 38.093332 28.760520 56.519004 0
M  V30 10 C 38.004481 28.403373 54.066144 0 CFG=2
M  V30 11 N 39.197954 28.250051 58.698754 0 CHG=1
M  V30 12 C 38.175401 30.410095 58.441539 0
M  V30 13 F 40.848271 30.937609 50.959192 0
M  V30 14 C 36.667513 33.195338 61.538982 0
M  V30 15 C 40.125898 29.832535 51.229265 0
M  V30 16 O 40.367650 26.137224 54.388458 0 CHG=-1
M  V30 17 O 40.843809 27.049048 56.730501 0
M  V30 18 C 38.731626 28.565209 52.752551 0
M  V30 19 C 39.484892 29.723307 52.479780 0
M  V30 20 C 38.918900 28.327761 55.301886 0 CFG=2
M  V30 21 C 39.313835 27.768183 50.567908 0
M  V30 22 O 38.714987 30.941375 62.185332 0
M  V30 23 C 38.651470 27.573999 51.776091 0
M  V30 24 C 38.010056 31.052389 60.961998 0 CFG=2
M  V30 25 C 39.187823 28.887767 60.030662 0
M  V30 26 O 37.082220 27.337102 54.072693 0
M  V30 27 O 38.445176 31.599206 57.728436 0
M  V30 28 H 39.873245 29.664764 57.362233 0
M  V30 29 H 36.308893 30.612623 57.872487 0
M  V30 30 H 39.774572 30.909738 59.769151 0
M  V30 31 H 38.700285 33.108677 60.818159 0
M  V30 32 H 37.463809 32.729384 59.662040 0
M  V30 33 H 34.511880 33.283726 61.781831 0
M  V30 34 H 35.021898 33.001614 60.120624 0
M  V30 35 H 35.093224 31.697226 61.310619 0
M  V30 36 H 37.429806 27.963704 56.855761 0
M  V30 37 H 37.434714 29.568099 56.198801 0
M  V30 38 H 37.398091 29.308581 54.113263 0
M  V30 39 H 40.076248 27.797498 58.467349 0
M  V30 40 H 36.859823 32.942072 62.567875 0
M  V30 41 H 36.737972 34.281473 61.465099 0
M  V30 42 H 41.534946 26.409849 56.607027 0
M  V30 43 H 39.567282 30.514833 53.210753 0
M  V30 44 H 39.725475 29.048162 55.166456 0
M  V30 45 H 39.248489 27.019972 49.794754 0
M  V30 46 H 38.714452 30.041951 62.481723 0
M  V30 47 H 38.080679 26.676426 51.947037 0
M  V30 48 H 37.053434 30.544870 61.080449 0
M  V30 49 H 40.150399 28.763686 60.527122 0
M  V30 50 H 38.444725 28.366364 60.623117 0
M  V30 51 H 36.916521 27.075157 54.967218 0
M  V30 52 H 37.813586 32.260250 57.974363 0
M  V30 53 H 38.459123 27.561078 58.658043 0
M  V30 END ATOM
M  V30 BEGIN BOND
M  V30 1 2 4 3
M  V30 2 1 9 1
M  V30 3 1 11 1
M  V30 4 1 12 1
M  V30 5 1 12 2
M  V30 6 1 12 5
M  V30 7 1 14 7
M  V30 8 1 14 8
M  V30 9 2 15 6
M  V30 10 1 15 13
M  V30 11 1 16 4
M  V30 12 1 17 4
M  V30 13 1 18 10
M  V30 14 1 19 15
M  V30 15 2 19 18
M  V30 16 1 20 4
M  V30 17 1 20 9
M  V30 18 1 20 10
M  V30 19 1 21 6
M  V30 20 1 23 18
M  V30 21 2 23 21
M  V30 22 1 24 5
M  V30 23 1 24 7
M  V30 24 1 24 22
M  V30 25 1 25 5
M  V30 26 1 25 11
M  V30 27 1 26 10
M  V30 28 1 27 12
M  V30 29 1 1 28 CFG=3
M  V30 30 1 29 2
M  V30 31 1 5 30 CFG=3
M  V30 32 1 31 7
M  V30 33 1 32 7
M  V30 34 1 33 8
M  V30 35 1 34 8
M  V30 36 1 35 8
M  V30 37 1 36 9
M  V30 38 1 37 9
M  V30 39 1 10 38 CFG=1
M  V30 40 1 39 11
M  V30 41 1 40 14
M  V30 42 1 41 14
M  V30 43 1 42 17
M  V30 44 1 43 19
M  V30 45 1 20 44 CFG=3
M  V30 46 1 45 21
M  V30 47 1 46 22
M  V30 48 1 47 23
M  V30 49 1 24 48 CFG=1
M  V30 50 1 49 25
M  V30 51 1 50 25
M  V30 52 1 51 26
M  V30 53 1 52 27
M  V30 54 1 53 11
M  V30 END BOND
M  V30 END CTAB
M  END
>  <i_epik_Tot_Q>  (1) 
0

>  <i_epik_Tot_abs_Q>  (1) 
2

>  <i_i_glide_confnum>  (1) 
554

>  <i_i_glide_lignum>  (1) 
50

>  <i_i_glide_posenum>  (1) 
394

>  <i_i_glide_rotatable_bonds>  (1) 
13

>  <i_lp_mmshare_version>  (1) 
72125

>  <i_m_source_file_index>  (1) 
21

>  <i_f3d_flags>  (1) 
0

>  <num_sample>  (1) 
100

>  <b_lp_Chiralities_Consistent>  (1) 
1

>  <r_epik_Charging_Adjusted_Penalty>  (1) 
0.5459377507147144

>  <r_epik_Ionization_Penalty>  (1) 
0.54595169612510452

>  <r_epik_Ionization_Penalty_Charging>  (1) 
0.0068991791537532298

>  <r_epik_Ionization_Penalty_Neutral>  (1) 
0.53905251697135126

>  <r_epik_State_Penalty>  (1) 
0.53903857156096113

>  <r_glide_ring_energy>  (1) 
1.9592154643148916

>  <r_i_docking_score>  (1) 
-6.1466495318343632

>  <r_i_glide_ecoul>  (1) 
-7.9713400232529743

>  <r_i_glide_eff_state_penalty>  (1) 
0.53903857156096113

>  <r_i_glide_einternal>  (1) 
18.111050049050412

>  <r_i_glide_emodel>  (1) 
-54.613750533103918

>  <r_i_glide_emodel_strain>  (1) 
3.7385521944028213

>  <r_i_glide_energy>  (1) 
-42.514318850313131

>  <r_i_glide_erotb>  (1) 
0.70809137694380864

>  <r_i_glide_esite>  (1) 
-0.046365861430838547

>  <r_i_glide_evdw>  (1) 
-34.542978827060161

>  <r_i_glide_gscore>  (1) 
-6.6856881033953242

>  <r_i_glide_gscore_strain>  (1) 
0

>  <r_i_glide_hbond>  (1) 
-0.41761918474460258

>  <r_i_glide_ligand_efficiency>  (1) 
-0.22765368636423566

>  <r_i_glide_ligand_efficiency_ln>  (1) 
-1.4308386755737128

>  <r_i_glide_ligand_efficiency_sa>  (1) 
-0.68296105909270721

>  <r_i_glide_lipo>  (1) 
-2.7714398427188005

>  <r_i_glide_metal>  (1) 
-0

>  <r_i_glide_rewards>  (1) 
-1.2355046466039363

>  <r_lp_Energy>  (1) 
5.5430529999999996

>  <s_epik_cmdline>  (1) 
J2VwaWtfcHl0aG9uJywgJy1waHQnLCAnMS4wJywgJy1waCcsICc3LjQnLCAnLXRuJywgJzgnLCAnLW1hJywgJzUwMCcsICctaW1hZScsICc8aW5maWxlLm1hZT4nLCAnLW9tYWUnLCAnPG91dGZpbGUubWFlPic=

>  <s_epik_input>  (1) 
W0NIM11bQ0gyXVtDSDJdW0NAQEhdKFtPSF0pW0NASF0xW0NIMl1bTkhdW0NASF0oQzEoW09IXSlbT0hdKVtDSDJdW0NAQEhdKFAoPU8pKFtPSF0pW09IXSlbQ0BIXShbT0hdKWMoW2NIXTIpW2NIXVtjSF1uYzJG

>  <s_glide_docking_method>  (1) 
confgen

>  <s_i_glide_gridfile>  (1) 
gpcr_5ht2c_6bqh_protein_autoprepared_prepared

>  <s_lp_Force_Field>  (1) 
S-OPLS

>  <s_lp_Variant>  (1) 
DiffSBDD_20-4

>  <s_m_source_file>  (1) 
generated_GPCR_5HT2C_ligand_DiffSBDD_2026-06-23_prepared.sdf

>  <GenAI_Model>  (1) 
DiffSBDD

>  <Protein>  (1) 
GPCR_5HT2C

$$$$
DiffSBDD_85
     RDKit          3D

  0  0  0  0  0  0  0  0  0  0999 V3000
M  V30 BEGIN CTAB
M  V30 COUNTS 62 65 0 0 1
M  V30 BEGIN ATOM
M  V30 1 C 39.455757 33.052637 62.027226 0
M  V30 2 C 42.052534 27.518996 58.574688 0
M  V30 3 N 37.325432 27.746755 57.767724 0
M  V30 4 C 40.846316 29.719816 63.490898 0
M  V30 5 C 36.566795 36.574671 59.820726 0
M  V30 6 C 38.270586 28.488951 58.560738 0 CFG=2
M  V30 7 O 38.362627 32.497880 62.167190 0
M  V30 8 F 37.238725 38.431569 61.171818 0
M  V30 9 C 36.743069 35.233913 59.430187 0
M  V30 10 O 39.643110 34.296576 61.537360 0
M  V30 11 O 38.715054 27.521004 52.806586 0
M  V30 12 C 37.691455 29.079482 57.291041 0 CFG=1
M  V30 13 C 40.861381 30.851415 64.371559 0
M  V30 14 C 39.327384 26.565730 57.526092 0
M  V30 15 C 38.136418 29.693219 54.967416 0
M  V30 16 C 39.480079 27.597380 58.641704 0 CFG=1
M  V30 17 C 38.674867 28.918576 52.592067 0
M  V30 18 N 38.537521 29.197784 56.145836 0
M  V30 19 O 38.033403 26.733315 56.974685 0
M  V30 20 C 40.793638 28.403823 58.622716 0 CFG=1
M  V30 21 O 43.034916 28.122869 57.767601 0
M  V30 22 C 40.765892 32.361091 62.395388 0 CFG=1
M  V30 23 C 40.799887 28.784830 61.125162 0
M  V30 24 C 39.173758 29.682215 53.839742 0 CFG=1
M  V30 25 N 40.836246 29.336610 59.760802 0
M  V30 26 Cl 40.845143 28.120677 64.146794 0
M  V30 27 C 37.768703 34.461923 60.006154 0
M  V30 28 C 40.829752 29.900254 62.151866 0
M  V30 29 C 38.623616 35.033698 60.979860 0
M  V30 30 C 40.827407 32.086243 63.881964 0
M  V30 31 C 39.639735 31.105466 53.507160 0
M  V30 32 C 37.411823 37.143453 60.793851 0
M  V30 33 O 40.844280 31.170917 61.586186 0
M  V30 34 O 37.004171 30.131369 54.769596 0
M  V30 35 C 38.438844 36.374429 61.371911 0
M  V30 36 H 42.444962 27.337806 59.563339 0
M  V30 37 H 41.855471 26.537538 58.152986 0
M  V30 38 H 35.780821 37.166957 59.376484 0
M  V30 39 H 37.928612 28.923379 59.498410 0
M  V30 40 H 36.092518 34.798476 58.684901 0
M  V30 41 H 38.278394 27.087964 52.086314 0
M  V30 42 H 36.939076 29.857486 57.424936 0
M  V30 43 H 40.898901 30.698389 65.440466 0
M  V30 44 H 39.450189 25.548655 57.900812 0
M  V30 45 H 40.056074 26.713759 56.727460 0
M  V30 46 H 39.404800 27.041949 59.572556 0
M  V30 47 H 39.294080 29.149335 51.723803 0
M  V30 48 H 37.654082 29.199588 52.337297 0
M  V30 49 H 39.480417 28.853240 56.228407 0
M  V30 50 H 40.785744 28.986468 57.701945 0
M  V30 51 H 43.742806 27.506701 57.654110 0
M  V30 52 H 41.601899 33.007509 62.126682 0
M  V30 53 H 39.890000 28.210644 61.297368 0
M  V30 54 H 41.643465 28.127537 61.322449 0
M  V30 55 H 40.045098 29.166567 54.229944 0
M  V30 56 H 40.074701 30.001922 59.670622 0
M  V30 57 H 37.905041 33.434854 59.698328 0
M  V30 58 H 40.836918 32.938693 64.545494 0
M  V30 59 H 40.013647 31.611414 54.397894 0
M  V30 60 H 40.445157 31.087166 52.773065 0
M  V30 61 H 38.844931 31.720498 53.094200 0
M  V30 62 H 39.089071 36.815322 62.113653 0
M  V30 END ATOM
M  V30 BEGIN BOND
M  V30 1 1 6 3
M  V30 2 2 7 1
M  V30 3 2 9 5
M  V30 4 1 10 1
M  V30 5 1 12 3
M  V30 6 1 12 6
M  V30 7 1 13 4
M  V30 8 1 16 6
M  V30 9 1 16 14
M  V30 10 1 17 11
M  V30 11 1 18 12
M  V30 12 1 18 15
M  V30 13 1 19 3
M  V30 14 1 19 14
M  V30 15 1 20 2
M  V30 16 1 20 16
M  V30 17 1 21 2
M  V30 18 1 22 1
M  V30 19 1 24 15
M  V30 20 1 24 17
M  V30 21 1 25 20
M  V30 22 1 25 23
M  V30 23 1 26 4
M  V30 24 1 27 9
M  V30 25 2 28 4
M  V30 26 1 28 23
M  V30 27 1 29 10
M  V30 28 2 29 27
M  V30 29 2 30 13
M  V30 30 1 30 22
M  V30 31 1 31 24
M  V30 32 1 32 5
M  V30 33 1 32 8
M  V30 34 1 33 22
M  V30 35 1 33 28
M  V30 36 2 34 15
M  V30 37 1 35 29
M  V30 38 2 35 32
M  V30 39 1 36 2
M  V30 40 1 37 2
M  V30 41 1 38 5
M  V30 42 1 6 39 CFG=1
M  V30 43 1 40 9
M  V30 44 1 41 11
M  V30 45 1 12 42 CFG=1
M  V30 46 1 43 13
M  V30 47 1 44 14
M  V30 48 1 45 14
M  V30 49 1 16 46 CFG=1
M  V30 50 1 47 17
M  V30 51 1 48 17
M  V30 52 1 49 18
M  V30 53 1 20 50 CFG=3
M  V30 54 1 51 21
M  V30 55 1 22 52 CFG=3
M  V30 56 1 53 23
M  V30 57 1 54 23
M  V30 58 1 24 55 CFG=1
M  V30 59 1 56 25
M  V30 60 1 57 27
M  V30 61 1 58 30
M  V30 62 1 59 31
M  V30 63 1 60 31
M  V30 64 1 61 31
M  V30 65 1 62 35
M  V30 END BOND
M  V30 END CTAB
M  END
>  <i_epik_Tot_Q>  (1) 
0

>  <i_epik_Tot_abs_Q>  (1) 
0

>  <i_i_glide_confnum>  (1) 
1775

>  <i_i_glide_lignum>  (1) 
203

>  <i_i_glide_posenum>  (1) 
222

>  <i_i_glide_rotatable_bonds>  (1) 
14

>  <i_lp_mmshare_version>  (1) 
72125

>  <i_m_source_file_index>  (1) 
86

>  <i_f3d_flags>  (1) 
0

>  <num_sample>  (1) 
100

>  <b_lp_Chiralities_Consistent>  (1) 
1

>  <r_epik_Charging_Adjusted_Penalty>  (1) 
0

>  <r_epik_Ionization_Penalty>  (1) 
0.002846787164494627

>  <r_epik_Ionization_Penalty_Charging>  (1) 
0

>  <r_epik_Ionization_Penalty_Neutral>  (1) 
0.002846787164494627

>  <r_epik_State_Penalty>  (1) 
-0

>  <r_glide_ring_energy>  (1) 
0

>  <r_i_docking_score>  (1) 
-6.1464605058837325

>  <r_i_glide_ecoul>  (1) 
-4.4116190333240795

>  <r_i_glide_eff_state_penalty>  (1) 
-0

>  <r_i_glide_einternal>  (1) 
12.934618422099479

>  <r_i_glide_emodel>  (1) 
-60.154865184888223

>  <r_i_glide_emodel_strain>  (1) 
1.0503546664773609

>  <r_i_glide_energy>  (1) 
-48.959291792884578

>  <r_i_glide_erotb>  (1) 
0.93847147272533338

>  <r_i_glide_esite>  (1) 
-0.029404447604167529

>  <r_i_glide_evdw>  (1) 
-44.547672759560498

>  <r_i_glide_gscore>  (1) 
-6.1464605058837325

>  <r_i_glide_gscore_strain>  (1) 
0

>  <r_i_glide_hbond>  (1) 
-0.17620075863940426

>  <r_i_glide_ligand_efficiency>  (1) 
-0.17561315731096377

>  <r_i_glide_ligand_efficiency_ln>  (1) 
-1.3492844943826512

>  <r_i_glide_ligand_efficiency_sa>  (1) 
-0.57444228250574281

>  <r_i_glide_lipo>  (1) 
-3.4166964358219438

>  <r_i_glide_metal>  (1) 
-0

>  <r_i_glide_rewards>  (1) 
-0.57350384356691297

>  <r_lp_Energy>  (1) 
30.891655999999998

>  <r_lp_tautomer_probability>  (1) 
1

>  <s_epik_Chemistry_Notes>  (1) 
This compound contains an acetal/aminal-like group ( X-CH(R)-Y where X, Y are N, S, or O) that may be acid/base labile, releasing an aldehyde. This compound has a N-S or N-O group and may undergo hydrolysis at high or low pH.

>  <s_epik_cmdline>  (1) 
J2VwaWtfcHl0aG9uJywgJy1waHQnLCAnMS4wJywgJy1waCcsICc3LjQnLCAnLXRuJywgJzgnLCAnLW1hJywgJzUwMCcsICctaW1hZScsICc8aW5maWxlLm1hZT4nLCAnLW9tYWUnLCAnPG91dGZpbGUubWFlPic=

>  <s_epik_input>  (1) 
RmMoW2NIXTEpW2NIXVtjSF1bY0hdYzFPQyg9TylbQ0BASF0oW0NIXT1bQ0hdMilPQyg9QzJDbClbQ0gyXVtOSF1bQ0BASF0oW0NIMl1bT0hdKVtDQEBIXShbQ0gyXU8zKVtDSF0oW05AQF0zNClbQ0BIXTRbTkhdQyg9TylbQ0BIXShbQ0gzXSlbQ0gyXVtPSF0=

>  <s_glide_docking_method>  (1) 
confgen

>  <s_i_glide_gridfile>  (1) 
gpcr_5ht2c_6bqh_protein_autoprepared_prepared

>  <s_lp_Force_Field>  (1) 
S-OPLS

>  <s_lp_Variant>  (1) 
DiffSBDD_85-2

>  <s_m_source_file>  (1) 
generated_GPCR_5HT2C_ligand_DiffSBDD_2026-06-23_prepared.sdf

>  <GenAI_Model>  (1) 
DiffSBDD

>  <Protein>  (1) 
GPCR_5HT2C

$$$$
DiffSBDD_53
     RDKit          3D

  0  0  0  0  0  0  0  0  0  0999 V3000
M  V30 BEGIN CTAB
M  V30 COUNTS 81 85 0 0 1
M  V30 BEGIN ATOM
M  V30 1 C 37.637403 29.223461 58.658438 0
M  V30 2 C 40.537305 31.812063 64.576305 0
M  V30 3 C 38.050910 35.018474 61.367758 0
M  V30 4 C 39.004492 29.701161 59.195174 0
M  V30 5 C 40.888701 34.041366 62.363911 0
M  V30 6 C 40.440449 30.937789 54.505778 0
M  V30 7 C 37.503222 27.755301 54.568007 0
M  V30 8 N 37.245176 29.834778 57.362287 0 CHG=1
M  V30 9 N 37.245430 38.137774 61.327501 0
M  V30 10 C 42.571243 29.665575 64.609498 0
M  V30 11 C 38.247859 29.791579 56.267280 0 CFG=1
M  V30 12 N 39.209279 29.257302 60.563873 0
M  V30 13 C 39.944451 33.363174 61.680810 0
M  V30 14 C 41.961525 33.262190 63.123648 0
M  V30 15 C 38.382614 28.407936 55.618213 0 CFG=1
M  V30 16 C 41.037252 31.264156 62.090762 0 CFG=1
M  V30 17 C 37.959378 30.871364 55.210302 0 CFG=2
M  V30 18 C 37.456744 37.172511 62.388691 0
M  V30 19 O 39.029426 27.458171 56.439851 0
M  V30 20 C 40.584414 29.247242 60.980677 0
M  V30 21 C 40.255061 30.445856 65.215430 0
M  V30 22 C 41.548922 29.818506 65.740770 0
M  V30 23 C 41.586095 31.800786 63.444146 0
M  V30 24 O 40.780927 29.897624 62.195558 0
M  V30 25 C 42.845072 30.996136 63.878904 0
M  V30 26 C 38.976066 30.763065 54.048089 0 CFG=2
M  V30 27 O 38.045129 32.159342 55.793876 0
M  V30 28 C 39.910271 36.410974 62.234317 0
M  V30 29 N 38.761251 29.475836 53.326271 0 CFG=1 CHG=1
M  V30 30 O 39.924362 31.987394 61.670177 0
M  V30 31 C 39.487245 29.345477 52.038728 0
M  V30 32 C 38.872387 28.265280 54.183309 0 CFG=2
M  V30 33 C 40.937441 35.516743 62.402525 0
M  V30 34 C 38.905071 33.952882 60.809405 0
M  V30 35 C 38.482186 36.137615 61.966941 0
M  V30 36 H 36.851774 29.461794 59.376746 0
M  V30 37 H 37.645157 28.138207 58.559279 0
M  V30 38 H 40.888232 32.466602 65.374252 0
M  V30 39 H 39.645118 32.284219 64.206634 0
M  V30 40 H 36.989244 34.892424 61.210646 0
M  V30 41 H 39.804517 29.293303 58.578012 0
M  V30 42 H 39.080550 30.788533 59.165757 0
M  V30 43 H 40.532186 31.737784 55.237788 0
M  V30 44 H 40.845345 30.039508 54.967838 0
M  V30 45 H 41.080610 31.209695 53.671746 0
M  V30 46 H 37.367173 26.676089 54.625510 0
M  V30 47 H 36.645047 28.298870 54.185125 0
M  V30 48 H 37.028310 30.814274 57.523451 0
M  V30 49 H 36.864522 37.673520 60.515225 0
M  V30 50 H 36.554463 38.821753 61.604639 0
M  V30 51 H 42.221218 28.912503 63.903497 0
M  V30 52 H 43.505991 29.274147 65.011170 0
M  V30 53 H 39.219795 30.048443 56.681054 0
M  V30 54 H 38.787190 28.353811 60.728659 0
M  V30 55 H 42.845168 33.262597 62.492865 0
M  V30 56 H 42.234923 33.803674 64.030653 0
M  V30 57 H 41.785590 31.424087 61.318180 0
M  V30 58 H 36.945359 30.759466 54.820871 0
M  V30 59 H 36.511454 36.691092 62.643941 0
M  V30 60 H 37.802972 37.688519 63.284297 0
M  V30 61 H 39.967541 27.520060 56.328617 0
M  V30 62 H 40.890176 28.210671 61.132408 0
M  V30 63 H 41.240689 29.652409 60.208447 0
M  V30 64 H 39.790600 29.781957 64.488213 0
M  V30 65 H 39.537512 30.552800 66.029211 0
M  V30 66 H 41.336614 28.844781 66.183380 0
M  V30 67 H 41.965869 30.438114 66.535327 0
M  V30 68 H 43.484870 30.795324 63.023612 0
M  V30 69 H 43.421674 31.612931 64.567634 0
M  V30 70 H 38.752069 31.580764 53.363789 0
M  V30 71 H 37.159035 32.500885 55.914266 0
M  V30 72 H 40.169246 37.450131 62.377293 0
M  V30 73 H 40.567865 29.335764 52.167754 0
M  V30 74 H 39.202015 28.416220 51.542022 0
M  V30 75 H 39.245211 30.158948 51.355633 0
M  V30 76 H 39.645140 27.547939 53.915635 0
M  V30 77 H 41.893913 35.949161 62.658958 0
M  V30 78 H 39.387241 34.336330 59.909387 0
M  V30 79 H 38.246253 33.150807 60.474606 0
M  V30 80 H 37.789783 29.499046 53.052977 0
M  V30 81 H 36.383279 29.417123 57.044084 0
M  V30 END ATOM
M  V30 BEGIN BOND
M  V30 1 1 4 1
M  V30 2 1 8 1
M  V30 3 1 11 8
M  V30 4 1 12 4
M  V30 5 2 13 5
M  V30 6 1 14 5
M  V30 7 1 15 7
M  V30 8 1 15 11
M  V30 9 1 17 11
M  V30 10 1 18 9
M  V30 11 1 15 19 CFG=1
M  V30 12 1 20 12
M  V30 13 1 21 2
M  V30 14 1 22 10
M  V30 15 1 22 21
M  V30 16 1 23 2
M  V30 17 1 23 14
M  V30 18 1 23 16
M  V30 19 1 24 16
M  V30 20 1 24 20
M  V30 21 1 25 10
M  V30 22 1 25 23
M  V30 23 1 26 6
M  V30 24 1 26 17
M  V30 25 1 27 17
M  V30 26 1 29 26
M  V30 27 1 30 13
M  V30 28 1 30 16
M  V30 29 1 31 29
M  V30 30 1 32 7
M  V30 31 1 32 15
M  V30 32 1 32 29
M  V30 33 1 33 5
M  V30 34 2 33 28
M  V30 35 1 34 3
M  V30 36 1 34 13
M  V30 37 2 35 3
M  V30 38 1 35 18
M  V30 39 1 35 28
M  V30 40 1 36 1
M  V30 41 1 37 1
M  V30 42 1 38 2
M  V30 43 1 39 2
M  V30 44 1 40 3
M  V30 45 1 41 4
M  V30 46 1 42 4
M  V30 47 1 43 6
M  V30 48 1 44 6
M  V30 49 1 45 6
M  V30 50 1 46 7
M  V30 51 1 47 7
M  V30 52 1 48 8
M  V30 53 1 49 9
M  V30 54 1 50 9
M  V30 55 1 51 10
M  V30 56 1 52 10
M  V30 57 1 11 53 CFG=1
M  V30 58 1 54 12
M  V30 59 1 55 14
M  V30 60 1 56 14
M  V30 61 1 16 57 CFG=3
M  V30 62 1 17 58 CFG=3
M  V30 63 1 59 18
M  V30 64 1 60 18
M  V30 65 1 61 19
M  V30 66 1 62 20
M  V30 67 1 63 20
M  V30 68 1 64 21
M  V30 69 1 65 21
M  V30 70 1 66 22
M  V30 71 1 67 22
M  V30 72 1 68 25
M  V30 73 1 69 25
M  V30 74 1 26 70 CFG=3
M  V30 75 1 71 27
M  V30 76 1 72 28
M  V30 77 1 73 31
M  V30 78 1 74 31
M  V30 79 1 75 31
M  V30 80 1 32 76 CFG=1
M  V30 81 1 77 33
M  V30 82 1 78 34
M  V30 83 1 79 34
M  V30 84 1 29 80 CFG=3
M  V30 85 1 81 8
M  V30 END BOND
M  V30 END CTAB
M  END
>  <i_epik_Tot_Q>  (1) 
2

>  <i_epik_Tot_abs_Q>  (1) 
2

>  <i_i_glide_confnum>  (1) 
573

>  <i_i_glide_lignum>  (1) 
112

>  <i_i_glide_posenum>  (1) 
334

>  <i_i_glide_rotatable_bonds>  (1) 
10

>  <i_lp_mmshare_version>  (1) 
72125

>  <i_m_source_file_index>  (1) 
54

>  <i_f3d_flags>  (1) 
0

>  <num_sample>  (1) 
100

>  <b_lp_Chiralities_Consistent>  (1) 
1

>  <r_epik_Charging_Adjusted_Penalty>  (1) 
1.1947924258661535

>  <r_epik_Ionization_Penalty>  (1) 
1.111601378610803

>  <r_epik_Ionization_Penalty_Charging>  (1) 
0.15856543202638063

>  <r_epik_Ionization_Penalty_Neutral>  (1) 
0.95303594658442226

>  <r_epik_State_Penalty>  (1) 
1.036226993839773

>  <r_glide_ring_energy>  (1) 
0.00045989382302465386

>  <r_i_docking_score>  (1) 
-6.1444645965320071

>  <r_i_glide_ecoul>  (1) 
-3.492091157408975

>  <r_i_glide_eff_state_penalty>  (1) 
1.036226993839773

>  <r_i_glide_einternal>  (1) 
4.7482063344072554

>  <r_i_glide_emodel>  (1) 
-61.4289684352226

>  <r_i_glide_emodel_strain>  (1) 
2.1776044806630637

>  <r_i_glide_energy>  (1) 
-45.739119421331111

>  <r_i_glide_erotb>  (1) 
0.59168961163588141

>  <r_i_glide_esite>  (1) 
-0.097301299449767356

>  <r_i_glide_evdw>  (1) 
-42.24702826392214

>  <r_i_glide_gscore>  (1) 
-7.1806915903717803

>  <r_i_glide_gscore_strain>  (1) 
0

>  <r_i_glide_hbond>  (1) 
-0.47943323786324976

>  <r_i_glide_ligand_efficiency>  (1) 
-0.17555613132948591

>  <r_i_glide_ligand_efficiency_ln>  (1) 
-1.3488463479831259

>  <r_i_glide_ligand_efficiency_sa>  (1) 
-0.5742557467389251

>  <r_i_glide_lipo>  (1) 
-3.8630498017985655

>  <r_i_glide_metal>  (1) 
-0

>  <r_i_glide_rewards>  (1) 
-0.69643177608862572

>  <r_lp_Energy>  (1) 
70.003378999999995

>  <s_epik_Chemistry_Notes>  (1) 
This compound contains an acetal/aminal-like group ( X-CH(R)-Y where X, Y are N, S, or O) that may be acid/base labile, releasing an aldehyde.

>  <s_epik_cmdline>  (1) 
J2VwaWtfcHl0aG9uJywgJy1waHQnLCAnMS4wJywgJy1waCcsICc3LjQnLCAnLXRuJywgJzgnLCAnLW1hJywgJzUwMCcsICctaW1hZScsICc8aW5maWxlLm1hZT4nLCAnLW9tYWUnLCAnPG91dGZpbGUubWFlPic=

>  <s_epik_input>  (1) 
W09IXVtDQEBdMTJbQ0BASF0oW0NIMl0xKU4oW0NIM10pW0NASF0oW0NIM10pW0NASF0oW09IXSlbQ0BIXTJbTkhdW0NIMl1bQ0gyXVtOSF1bQ0gyXU9bQ0BIXTNPQyhbQ0gyXVtDSF09QyhbQ0gyXVtOSDJdKVtDSF09W0NIXTQpPUM0W0NIMl1DMzVbQ0gyXVtDSDJdW0NIMl1bQ0gyXVtDSDJdNQ==

>  <s_glide_docking_method>  (1) 
confgen

>  <s_i_glide_gridfile>  (1) 
gpcr_5ht2c_6bqh_protein_autoprepared_prepared

>  <s_lp_Force_Field>  (1) 
S-OPLS

>  <s_lp_Variant>  (1) 
DiffSBDD_53-4

>  <s_m_source_file>  (1) 
generated_GPCR_5HT2C_ligand_DiffSBDD_2026-06-23_prepared.sdf

>  <GenAI_Model>  (1) 
DiffSBDD

>  <Protein>  (1) 
GPCR_5HT2C

$$$$
DiffSBDD_30
     RDKit          3D

  0  0  0  0  0  0  0  0  0  0999 V3000
M  V30 BEGIN CTAB
M  V30 COUNTS 35 36 0 0 1
M  V30 BEGIN ATOM
M  V30 1 C 39.183290 29.181758 53.909342 0
M  V30 2 N 39.305286 29.027565 52.485476 0
M  V30 3 C 38.374538 28.417582 56.182887 0
M  V30 4 C 39.882525 30.374886 54.474474 0
M  V30 5 C 39.011649 27.785087 51.883385 0
M  V30 6 C 39.021036 29.245806 59.256692 0
M  V30 7 C 38.201717 29.624013 56.890514 0
M  V30 8 C 38.240910 27.116185 56.904581 0
M  V30 9 C 38.547160 28.293288 54.713194 0
M  V30 10 C 39.084093 27.520665 50.567769 0
M  V30 11 N 38.866032 27.069649 58.114531 0
M  V30 12 C 37.838709 29.593371 58.375508 0
M  V30 13 C 38.235949 30.953086 56.241787 0
M  V30 14 O 37.645034 26.137699 56.457036 0
M  V30 15 C 38.945897 31.278225 55.158478 0
M  V30 16 C 39.778302 28.094082 58.626233 0
M  V30 17 C 39.789606 30.132800 51.645613 0
M  V30 18 H 40.555698 29.988884 55.240141 0
M  V30 19 H 40.559620 30.935832 53.836048 0
M  V30 20 H 38.719633 27.018049 52.564101 0
M  V30 21 H 39.681191 30.105303 59.372866 0
M  V30 22 H 38.669315 28.977571 60.253338 0
M  V30 23 H 38.117709 27.420108 54.269957 0
M  V30 24 H 39.380135 28.273664 49.855255 0
M  V30 25 H 38.845151 26.537786 50.189101 0
M  V30 26 H 38.790023 26.219057 58.651087 0
M  V30 27 H 37.454489 30.569521 58.674382 0
M  V30 28 H 36.999592 28.916905 58.542076 0
M  V30 29 H 37.645159 31.737601 56.692557 0
M  V30 30 H 38.888598 32.286233 54.774343 0
M  V30 31 H 40.424229 27.635316 59.375277 0
M  V30 32 H 40.454222 28.441395 57.841912 0
M  V30 33 H 40.851873 30.013621 51.438336 0
M  V30 34 H 39.627700 31.124078 52.063989 0
M  V30 35 H 39.263017 30.161270 50.692723 0
M  V30 END ATOM
M  V30 BEGIN BOND
M  V30 1 1 2 1
M  V30 2 1 4 1
M  V30 3 1 5 2
M  V30 4 2 7 3
M  V30 5 1 8 3
M  V30 6 2 9 1
M  V30 7 1 9 3
M  V30 8 2 10 5
M  V30 9 1 11 8
M  V30 10 1 12 6
M  V30 11 1 12 7
M  V30 12 1 13 7
M  V30 13 2 14 8
M  V30 14 1 15 4
M  V30 15 2 15 13
M  V30 16 1 16 6
M  V30 17 1 16 11
M  V30 18 1 17 2
M  V30 19 1 18 4
M  V30 20 1 19 4
M  V30 21 1 20 5
M  V30 22 1 21 6
M  V30 23 1 22 6
M  V30 24 1 23 9
M  V30 25 1 24 10
M  V30 26 1 25 10
M  V30 27 1 26 11
M  V30 28 1 27 12
M  V30 29 1 28 12
M  V30 30 1 29 13
M  V30 31 1 30 15
M  V30 32 1 31 16
M  V30 33 1 32 16
M  V30 34 1 33 17
M  V30 35 1 34 17
M  V30 36 1 35 17
M  V30 END BOND
M  V30 END CTAB
M  END
>  <i_epik_Tot_Q>  (1) 
0

>  <i_epik_Tot_abs_Q>  (1) 
0

>  <i_i_glide_confnum>  (1) 
2

>  <i_i_glide_lignum>  (1) 
72

>  <i_i_glide_posenum>  (1) 
249

>  <i_i_glide_rotatable_bonds>  (1) 
2

>  <i_lp_mmshare_version>  (1) 
72125

>  <i_m_source_file_index>  (1) 
31

>  <i_f3d_flags>  (1) 
0

>  <num_sample>  (1) 
100

>  <b_lp_Chiralities_Consistent>  (1) 
1

>  <r_epik_Charging_Adjusted_Penalty>  (1) 
0.00013572112653438843

>  <r_epik_Ionization_Penalty>  (1) 
0.00014669493665376082

>  <r_epik_Ionization_Penalty_Charging>  (1) 
0.00013572112653438843

>  <r_epik_Ionization_Penalty_Neutral>  (1) 
1.0973810119372391e-05

>  <r_epik_State_Penalty>  (1) 
-0

>  <r_glide_ring_energy>  (1) 
0

>  <r_i_docking_score>  (1) 
-6.1443291613105098

>  <r_i_glide_ecoul>  (1) 
-1.3610504405110737

>  <r_i_glide_eff_state_penalty>  (1) 
-0

>  <r_i_glide_einternal>  (1) 
7.2432790225966102

>  <r_i_glide_emodel>  (1) 
-34.266536548801234

>  <r_i_glide_emodel_strain>  (1) 
5.3351890443309458e-06

>  <r_i_glide_energy>  (1) 
-27.247929324659342

>  <r_i_glide_erotb>  (1) 
0.32205052680496415

>  <r_i_glide_esite>  (1) 
0

>  <r_i_glide_evdw>  (1) 
-25.886878884148267

>  <r_i_glide_gscore>  (1) 
-6.1443291613105098

>  <r_i_glide_gscore_strain>  (1) 
0

>  <r_i_glide_hbond>  (1) 
0

>  <r_i_glide_ligand_efficiency>  (1) 
-0.36143112713591236

>  <r_i_glide_ligand_efficiency_ln>  (1) 
-1.6029186507027875

>  <r_i_glide_ligand_efficiency_sa>  (1) 
-0.9293412034954277

>  <r_i_glide_lipo>  (1) 
-2.1115854383858501

>  <r_i_glide_metal>  (1) 
-0

>  <r_i_glide_rewards>  (1) 
-2.8562927394455495

>  <r_lp_Energy>  (1) 
36.162458999999998

>  <r_lp_tautomer_probability>  (1) 
1

>  <s_epik_Chemistry_Notes>  (1) 
This compound has an imine and may undergo hydrolysis.

>  <s_epik_cmdline>  (1) 
J2VwaWtfcHl0aG9uJywgJy1waHQnLCAnMS4wJywgJy1waCcsICc3LjQnLCAnLXRuJywgJzgnLCAnLW1hJywgJzUwMCcsICctaW1hZScsICc8aW5maWxlLm1hZT4nLCAnLW9tYWUnLCAnPG91dGZpbGUubWFlPic=

>  <s_epik_input>  (1) 
W0NIMl09W0NIXU4oW0NIM10pQyg9W0NIXTEpW0NIMl1bQ0hdPVtDSF1DKD1DMTIpW0NIMl1bQ0gyXVtDSDJdW05IXUMyPU8=

>  <s_glide_docking_method>  (1) 
confgen

>  <s_i_glide_gridfile>  (1) 
gpcr_5ht2c_6bqh_protein_autoprepared_prepared

>  <s_lp_Force_Field>  (1) 
S-OPLS

>  <s_lp_Variant>  (1) 
DiffSBDD_30-1

>  <s_m_source_file>  (1) 
generated_GPCR_5HT2C_ligand_DiffSBDD_2026-06-23_prepared.sdf

>  <GenAI_Model>  (1) 
DiffSBDD

>  <Protein>  (1) 
GPCR_5HT2C

$$$$
DiffSBDD_75
     RDKit          3D

  0  0  0  0  0  0  0  0  0  0999 V3000
M  V30 BEGIN CTAB
M  V30 COUNTS 77 78 0 0 1
M  V30 BEGIN ATOM
M  V30 1 C 37.742546 33.178295 60.616913 0
M  V30 2 C 38.148975 33.033455 56.987932 0
M  V30 3 O 37.290326 29.337757 56.918793 0
M  V30 4 C 36.845149 36.812841 61.263006 0
M  V30 5 C 39.247930 28.414250 55.042222 0 CFG=2
M  V30 6 C 41.398849 34.233992 64.602182 0
M  V30 7 C 38.459049 28.848950 57.539443 0 CFG=2
M  V30 8 C 41.132548 35.191211 65.602574 0
M  V30 9 O 37.248600 28.388715 53.678919 0
M  V30 10 C 39.330658 26.518477 56.725520 0 CFG=2
M  V30 11 O 41.742618 33.197053 68.638881 0
M  V30 12 S 38.007900 30.786079 59.426651 0
M  V30 13 C 36.429868 37.743224 62.415499 0
M  V30 14 C 41.633440 33.535246 67.321897 0
M  V30 15 C 39.142468 30.043019 58.218162 0
M  V30 16 C 41.248739 34.604183 63.141495 0
M  V30 17 C 41.788673 32.927956 64.963938 0
M  V30 18 O 37.977821 24.541519 56.311693 0
M  V30 19 C 39.660267 26.043182 58.154368 0
M  V30 20 C 39.390139 28.066716 56.554992 0 CFG=1
M  V30 21 O 36.045121 39.005784 61.917242 0
M  V30 22 O 37.708652 33.289273 58.308632 0
M  V30 23 O 40.360933 35.337760 60.567772 0
M  V30 24 C 35.877764 34.706319 62.123977 0
M  V30 25 N 37.119577 35.427397 61.729726 0 CFG=1 CHG=1
M  V30 26 C 39.468971 34.913982 61.292929 0
M  V30 27 C 41.245130 34.840103 66.960569 0
M  V30 28 C 39.760130 34.598485 62.760177 0
M  V30 29 C 38.028376 34.693077 60.792493 0 CFG=1
M  V30 30 C 41.907363 32.579606 66.323138 0
M  V30 31 C 37.817274 26.271594 54.678487 0
M  V30 32 C 38.353041 32.568220 59.351834 0 CFG=1
M  V30 33 C 39.453619 29.894795 54.664247 0
M  V30 34 C 37.999178 25.949183 56.175049 0 CFG=2
M  V30 35 C 38.022615 27.756467 54.397655 0
M  V30 36 H 38.063301 32.619779 61.496976 0
M  V30 37 H 36.676280 32.984110 60.515105 0
M  V30 38 H 37.722912 33.776538 56.314153 0
M  V30 39 H 39.235316 33.085071 56.905296 0
M  V30 40 H 37.801855 32.060658 56.645492 0
M  V30 41 H 36.880814 29.999388 57.463854 0
M  V30 42 H 37.745972 37.228854 60.808343 0
M  V30 43 H 36.092186 36.796209 60.472668 0
M  V30 44 H 38.115324 28.188621 58.333422 0
M  V30 45 H 40.834054 36.192667 65.327537 0
M  V30 46 H 38.562944 25.734885 54.094007 0
M  V30 47 H 40.130034 26.111003 56.102753 0
M  V30 48 H 42.010419 32.300627 68.770864 0
M  V30 49 H 35.578731 37.365115 62.977814 0
M  V30 50 H 37.245172 37.839911 63.128870 0
M  V30 51 H 39.459288 30.768367 57.473141 0
M  V30 52 H 40.042233 29.723602 58.744357 0
M  V30 53 H 41.687335 35.589518 62.973602 0
M  V30 54 H 41.806726 33.897251 62.524990 0
M  V30 55 H 41.992498 32.192347 64.199409 0
M  V30 56 H 37.130602 24.224001 56.037739 0
M  V30 57 H 38.817029 26.152632 58.835473 0
M  V30 58 H 39.934755 24.987889 58.147895 0
M  V30 59 H 40.507049 26.590756 58.567552 0
M  V30 60 H 40.414133 28.332968 56.821156 0
M  V30 61 H 36.645838 39.301751 61.248527 0
M  V30 62 H 35.245069 34.537766 61.254036 0
M  V30 63 H 36.063794 33.737749 62.566547 0
M  V30 64 H 35.313441 35.242928 62.885779 0
M  V30 65 H 41.033979 35.572458 67.725949 0
M  V30 66 H 39.333053 33.625375 62.998350 0
M  V30 67 H 39.244486 35.337644 63.371150 0
M  V30 68 H 37.923353 35.158771 59.811702 0
M  V30 69 H 42.204136 31.578023 66.598457 0
M  V30 70 H 36.845136 25.950433 54.315292 0
M  V30 71 H 40.045118 27.863134 54.563983 0
M  V30 72 H 39.429074 32.738794 59.337921 0
M  V30 73 H 39.480397 30.021445 53.581162 0
M  V30 74 H 38.653517 30.529307 55.041444 0
M  V30 75 H 40.397338 30.270518 55.057783 0
M  V30 76 H 37.161518 26.354031 56.744294 0
M  V30 77 H 37.649912 35.524710 62.583513 0
M  V30 END ATOM
M  V30 BEGIN BOND
M  V30 1 1 7 3
M  V30 2 1 8 6
M  V30 3 1 13 4
M  V30 4 1 14 11
M  V30 5 1 15 7
M  V30 6 1 15 12
M  V30 7 1 16 6
M  V30 8 2 17 6
M  V30 9 1 19 10
M  V30 10 1 20 5
M  V30 11 1 20 7
M  V30 12 1 20 10
M  V30 13 1 21 13
M  V30 14 1 22 2
M  V30 15 1 25 4
M  V30 16 1 25 24
M  V30 17 2 26 23
M  V30 18 2 27 8
M  V30 19 1 27 14
M  V30 20 1 28 16
M  V30 21 1 28 26
M  V30 22 1 29 1
M  V30 23 1 29 25
M  V30 24 1 29 26
M  V30 25 2 30 14
M  V30 26 1 30 17
M  V30 27 1 32 1
M  V30 28 1 32 12
M  V30 29 1 32 22
M  V30 30 1 33 5
M  V30 31 1 34 10
M  V30 32 1 34 18
M  V30 33 1 34 31
M  V30 34 1 35 5
M  V30 35 2 35 9
M  V30 36 1 35 31
M  V30 37 1 36 1
M  V30 38 1 37 1
M  V30 39 1 38 2
M  V30 40 1 39 2
M  V30 41 1 40 2
M  V30 42 1 41 3
M  V30 43 1 42 4
M  V30 44 1 43 4
M  V30 45 1 7 44 CFG=1
M  V30 46 1 45 8
M  V30 47 1 46 31
M  V30 48 1 10 47 CFG=3
M  V30 49 1 48 11
M  V30 50 1 49 13
M  V30 51 1 50 13
M  V30 52 1 51 15
M  V30 53 1 52 15
M  V30 54 1 53 16
M  V30 55 1 54 16
M  V30 56 1 55 17
M  V30 57 1 56 18
M  V30 58 1 57 19
M  V30 59 1 58 19
M  V30 60 1 59 19
M  V30 61 1 20 60 CFG=1
M  V30 62 1 61 21
M  V30 63 1 62 24
M  V30 64 1 63 24
M  V30 65 1 64 24
M  V30 66 1 65 27
M  V30 67 1 66 28
M  V30 68 1 67 28
M  V30 69 1 29 68 CFG=3
M  V30 70 1 69 30
M  V30 71 1 70 31
M  V30 72 1 5 71 CFG=3
M  V30 73 1 32 72 CFG=1
M  V30 74 1 73 33
M  V30 75 1 74 33
M  V30 76 1 75 33
M  V30 77 1 34 76 CFG=1
M  V30 78 1 25 77 CFG=1
M  V30 END BOND
M  V30 END CTAB
M  END
>  <i_epik_Tot_Q>  (1) 
1

>  <i_epik_Tot_abs_Q>  (1) 
1

>  <i_i_glide_confnum>  (1) 
1636

>  <i_i_glide_lignum>  (1) 
167

>  <i_i_glide_posenum>  (1) 
392

>  <i_i_glide_rotatable_bonds>  (1) 
18

>  <i_lp_mmshare_version>  (1) 
72125

>  <i_m_source_file_index>  (1) 
76

>  <i_f3d_flags>  (1) 
0

>  <num_sample>  (1) 
100

>  <b_lp_Chiralities_Consistent>  (1) 
1

>  <r_epik_Charging_Adjusted_Penalty>  (1) 
0.52789471212939676

>  <r_epik_Ionization_Penalty>  (1) 
0.26592108790513191

>  <r_epik_Ionization_Penalty_Charging>  (1) 
0.26394735606469838

>  <r_epik_Ionization_Penalty_Neutral>  (1) 
0.0019737318404335234

>  <r_epik_State_Penalty>  (1) 
0.26394735606469838

>  <r_glide_ring_energy>  (1) 
0

>  <r_i_docking_score>  (1) 
-6.1434476261028204

>  <r_i_glide_ecoul>  (1) 
-2.7447360416908131

>  <r_i_glide_eff_state_penalty>  (1) 
0.26394735606469838

>  <r_i_glide_einternal>  (1) 
17.541315666425767

>  <r_i_glide_emodel>  (1) 
-58.313520135062483

>  <r_i_glide_emodel_strain>  (1) 
1.287112568846446

>  <r_i_glide_energy>  (1) 
-47.511691752833698

>  <r_i_glide_erotb>  (1) 
1.0139394581015995

>  <r_i_glide_esite>  (1) 
0

>  <r_i_glide_evdw>  (1) 
-44.766955711142884

>  <r_i_glide_gscore>  (1) 
-6.4073949821675189

>  <r_i_glide_gscore_strain>  (1) 
0

>  <r_i_glide_hbond>  (1) 
0

>  <r_i_glide_ligand_efficiency>  (1) 
-0.17552707503150916

>  <r_i_glide_ligand_efficiency_ln>  (1) 
-1.3486231004034768

>  <r_i_glide_ligand_efficiency_sa>  (1) 
-0.57416070166151445

>  <r_i_glide_lipo>  (1) 
-3.7597308295808767

>  <r_i_glide_metal>  (1) 
-0

>  <r_i_glide_rewards>  (1) 
-1.0115454188774766

>  <r_lp_Energy>  (1) 
30.915486999999999

>  <r_lp_tautomer_probability>  (1) 
0.99989998499911525

>  <s_epik_Chemistry_Notes>  (1) 
This compound contains an acetal/aminal-like group ( X-CH(R)-Y where X, Y are N, S, or O) that may be acid/base labile, releasing an aldehyde.

>  <s_epik_cmdline>  (1) 
J2VwaWtfcHl0aG9uJywgJy1waHQnLCAnMS4wJywgJy1waCcsICc3LjQnLCAnLXRuJywgJzgnLCAnLW1hJywgJzUwMCcsICctaW1hZScsICc8aW5maWxlLm1hZT4nLCAnLW9tYWUnLCAnPG91dGZpbGUubWFlPic=

>  <s_epik_input>  (1) 
W2NIXTFbY0hdYyhbT0hdKVtjSF1bY0hdYzFbQ0gyXVtDSDJdQyg9TylbQ0BIXShOKFtDSDNdKVtDSDJdW0NIMl1bT0hdKVtDSDJdW0NASF0oT1tDSDNdKVNbQ0gyXVtDQEBIXShbT0hdKVtDQEhdMltDQEBIXShbQ0gzXSlbQ0BIXShbT0hdKVtDSDJdQyhbT0hdKT1DMltDSDNd

>  <s_glide_docking_method>  (1) 
confgen

>  <s_i_glide_gridfile>  (1) 
gpcr_5ht2c_6bqh_protein_autoprepared_prepared

>  <s_lp_Force_Field>  (1) 
S-OPLS

>  <s_lp_Variant>  (1) 
DiffSBDD_75-4

>  <s_m_source_file>  (1) 
generated_GPCR_5HT2C_ligand_DiffSBDD_2026-06-23_prepared.sdf

>  <GenAI_Model>  (1) 
DiffSBDD

>  <Protein>  (1) 
GPCR_5HT2C

$$$$
DiffSBDD_20
     RDKit          3D

  0  0  0  0  0  0  0  0  0  0999 V3000
M  V30 BEGIN CTAB
M  V30 COUNTS 53 54 0 0 1
M  V30 BEGIN ATOM
M  V30 1 C 38.135706 30.188871 57.385261 0 CFG=2
M  V30 2 O 39.245340 30.144526 59.588640 0
M  V30 3 O 39.593652 26.281597 54.571017 0
M  V30 4 P 38.718129 27.120726 55.414781 0
M  V30 5 C 37.418556 31.688084 59.177627 0 CFG=1
M  V30 6 N 40.200276 29.337627 50.282387 0
M  V30 7 C 36.723792 33.551737 60.851030 0
M  V30 8 C 34.357354 33.356401 59.754914 0
M  V30 9 C 39.414238 29.502185 56.862507 0
M  V30 10 C 38.802113 29.871823 54.356005 0 CFG=2
M  V30 11 N 38.045132 31.585379 56.900687 0 CHG=1
M  V30 12 C 38.005657 30.287382 58.927573 0
M  V30 13 F 39.240414 27.226353 50.247118 0
M  V30 14 C 35.203813 33.330153 61.040117 0
M  V30 15 C 39.495032 28.366384 50.910351 0
M  V30 16 O 38.383145 26.693883 56.789169 0 CHG=-1
M  V30 17 O 37.257900 27.338599 54.584799 0
M  V30 18 C 39.300622 29.676534 52.932111 0
M  V30 19 C 39.021119 28.500402 52.224001 0
M  V30 20 C 39.387385 28.910357 55.429914 0 CFG=2
M  V30 21 C 40.466658 30.465095 50.971058 0
M  V30 22 O 37.349138 31.340155 61.600674 0
M  V30 23 C 40.045025 30.678559 52.292751 0
M  V30 24 C 37.594540 32.301064 60.587809 0 CFG=1
M  V30 25 C 38.043098 32.504082 58.046694 0
M  V30 26 O 37.394100 29.914139 54.422439 0
M  V30 27 O 37.080898 29.337832 59.367788 0
M  V30 28 H 37.263418 29.662086 56.993736 0
M  V30 29 H 39.599155 29.298329 59.353152 0
M  V30 30 H 36.355912 31.614636 58.968376 0
M  V30 31 H 37.098122 34.006627 61.767735 0
M  V30 32 H 36.896171 34.304148 60.080689 0
M  V30 33 H 33.300541 33.468586 59.995283 0
M  V30 34 H 34.631214 34.190711 59.109597 0
M  V30 35 H 34.435406 32.437833 59.178470 0
M  V30 36 H 40.213957 30.226574 56.931219 0
M  V30 37 H 39.704074 28.695580 57.535851 0
M  V30 38 H 39.136079 30.873065 54.619792 0
M  V30 39 H 37.100391 31.669591 56.518706 0
M  V30 40 H 35.000117 32.418882 61.602260 0
M  V30 41 H 34.845994 34.137038 61.678190 0
M  V30 42 H 36.895207 26.471154 54.491024 0
M  V30 43 H 38.456188 27.704937 52.673644 0
M  V30 44 H 40.445078 28.810872 55.198262 0
M  V30 45 H 41.036038 31.220564 50.451253 0
M  V30 46 H 38.095214 30.753249 61.619848 0
M  V30 47 H 40.280767 31.599122 52.800177 0
M  V30 48 H 38.638708 32.597706 60.699934 0
M  V30 49 H 37.476894 33.408032 57.817957 0
M  V30 50 H 39.069068 32.790000 58.281668 0
M  V30 51 H 37.092403 29.009318 54.349216 0
M  V30 52 H 36.680724 29.664313 60.161143 0
M  V30 53 H 38.724647 31.813686 56.192534 0
M  V30 END ATOM
M  V30 BEGIN BOND
M  V30 1 2 4 3
M  V30 2 1 9 1
M  V30 3 1 11 1
M  V30 4 1 12 1
M  V30 5 1 12 2
M  V30 6 1 12 5
M  V30 7 1 14 7
M  V30 8 1 14 8
M  V30 9 2 15 6
M  V30 10 1 15 13
M  V30 11 1 16 4
M  V30 12 1 17 4
M  V30 13 1 18 10
M  V30 14 1 19 15
M  V30 15 2 19 18
M  V30 16 1 20 4
M  V30 17 1 20 9
M  V30 18 1 20 10
M  V30 19 1 21 6
M  V30 20 1 23 18
M  V30 21 2 23 21
M  V30 22 1 24 5
M  V30 23 1 24 7
M  V30 24 1 24 22
M  V30 25 1 25 5
M  V30 26 1 25 11
M  V30 27 1 26 10
M  V30 28 1 27 12
M  V30 29 1 1 28 CFG=3
M  V30 30 1 29 2
M  V30 31 1 5 30 CFG=3
M  V30 32 1 31 7
M  V30 33 1 32 7
M  V30 34 1 33 8
M  V30 35 1 34 8
M  V30 36 1 35 8
M  V30 37 1 36 9
M  V30 38 1 37 9
M  V30 39 1 10 38 CFG=1
M  V30 40 1 39 11
M  V30 41 1 40 14
M  V30 42 1 41 14
M  V30 43 1 42 17
M  V30 44 1 43 19
M  V30 45 1 20 44 CFG=3
M  V30 46 1 45 21
M  V30 47 1 46 22
M  V30 48 1 47 23
M  V30 49 1 24 48 CFG=3
M  V30 50 1 49 25
M  V30 51 1 50 25
M  V30 52 1 51 26
M  V30 53 1 52 27
M  V30 54 1 53 11
M  V30 END BOND
M  V30 END CTAB
M  END
>  <i_epik_Tot_Q>  (1) 
0

>  <i_epik_Tot_abs_Q>  (1) 
2

>  <i_i_glide_confnum>  (1) 
260

>  <i_i_glide_lignum>  (1) 
49

>  <i_i_glide_posenum>  (1) 
132

>  <i_i_glide_rotatable_bonds>  (1) 
13

>  <i_lp_mmshare_version>  (1) 
72125

>  <i_m_source_file_index>  (1) 
21

>  <i_f3d_flags>  (1) 
0

>  <num_sample>  (1) 
100

>  <b_lp_Chiralities_Consistent>  (1) 
1

>  <r_epik_Charging_Adjusted_Penalty>  (1) 
0.5459377507147144

>  <r_epik_Ionization_Penalty>  (1) 
0.54595169612510452

>  <r_epik_Ionization_Penalty_Charging>  (1) 
0.0068991791537532298

>  <r_epik_Ionization_Penalty_Neutral>  (1) 
0.53905251697135126

>  <r_epik_State_Penalty>  (1) 
0.53903857156096113

>  <r_glide_ring_energy>  (1) 
0

>  <r_i_docking_score>  (1) 
-6.1419581051462435

>  <r_i_glide_ecoul>  (1) 
-7.8756516134796577

>  <r_i_glide_eff_state_penalty>  (1) 
0.53903857156096113

>  <r_i_glide_einternal>  (1) 
13.062907871573678

>  <r_i_glide_emodel>  (1) 
-52.22477037064408

>  <r_i_glide_emodel_strain>  (1) 
4.280195498895921

>  <r_i_glide_energy>  (1) 
-40.614152292581323

>  <r_i_glide_erotb>  (1) 
0.70809137694380864

>  <r_i_glide_esite>  (1) 
-0.13080026088698801

>  <r_i_glide_evdw>  (1) 
-32.738500679101662

>  <r_i_glide_gscore>  (1) 
-6.6809966767072044

>  <r_i_glide_gscore_strain>  (1) 
0.070048874723980248

>  <r_i_glide_hbond>  (1) 
-0.50752477194775425

>  <r_i_glide_ligand_efficiency>  (1) 
-0.22747992982023124

>  <r_i_glide_ligand_efficiency_ln>  (1) 
-1.4297465887849323

>  <r_i_glide_ligand_efficiency_sa>  (1) 
-0.68243978946069384

>  <r_i_glide_lipo>  (1) 
-2.3446172577416764

>  <r_i_glide_metal>  (1) 
-0

>  <r_i_glide_rewards>  (1) 
-1.6579218618215428

>  <r_lp_Energy>  (1) 
8.4589179999999988

>  <s_epik_cmdline>  (1) 
J2VwaWtfcHl0aG9uJywgJy1waHQnLCAnMS4wJywgJy1waCcsICc3LjQnLCAnLXRuJywgJzgnLCAnLW1hJywgJzUwMCcsICctaW1hZScsICc8aW5maWxlLm1hZT4nLCAnLW9tYWUnLCAnPG91dGZpbGUubWFlPic=

>  <s_epik_input>  (1) 
W0NIM11bQ0gyXVtDSDJdW0NAQEhdKFtPSF0pW0NASF0xW0NIMl1bTkhdW0NASF0oQzEoW09IXSlbT0hdKVtDSDJdW0NAQEhdKFAoPU8pKFtPSF0pW09IXSlbQ0BIXShbT0hdKWMoW2NIXTIpW2NIXVtjSF1uYzJG

>  <s_glide_docking_method>  (1) 
confgen

>  <s_i_glide_gridfile>  (1) 
gpcr_5ht2c_6bqh_protein_autoprepared_prepared

>  <s_lp_Force_Field>  (1) 
S-OPLS

>  <s_lp_Variant>  (1) 
DiffSBDD_20-3

>  <s_m_source_file>  (1) 
generated_GPCR_5HT2C_ligand_DiffSBDD_2026-06-23_prepared.sdf

>  <GenAI_Model>  (1) 
DiffSBDD

>  <Protein>  (1) 
GPCR_5HT2C

$$$$
DiffSBDD_24
     RDKit          3D

  0  0  0  0  0  0  0  0  0  0999 V3000
M  V30 BEGIN CTAB
M  V30 COUNTS 76 79 0 0 1
M  V30 BEGIN ATOM
M  V30 1 C 38.045136 32.854609 58.310921 0
M  V30 2 C 41.045431 33.029430 65.809782 0
M  V30 3 C 38.438581 31.507159 58.338020 0
M  V30 4 N 40.993762 35.194322 64.554090 0 CHG=1
M  V30 5 C 39.881702 29.146154 59.530256 0 CFG=2
M  V30 6 N 40.183559 30.987977 64.761778 0
M  V30 7 C 39.302131 30.819247 62.416369 0
M  V30 8 C 39.645128 37.283027 63.885663 0
M  V30 9 O 40.045120 35.026216 60.167757 0 CHG=-1
M  V30 10 N 40.427302 35.697153 62.218649 0
M  V30 11 C 39.593053 35.250188 61.287080 0
M  V30 12 O 39.226453 26.462703 58.967763 0
M  V30 13 C 38.845137 29.100592 60.668379 0
M  V30 14 C 38.045175 33.563579 57.103784 0
M  V30 15 C 38.449076 26.814463 56.775505 0 CFG=2
M  V30 16 C 41.422037 28.537757 61.596054 0
M  V30 17 C 41.132567 31.488748 65.748028 0
M  V30 18 N 40.303470 28.677936 62.481976 0
M  V30 19 O 38.347798 31.519739 62.078871 0
M  V30 20 C 38.841307 31.584750 55.933135 0
M  V30 21 C 41.243563 33.701344 64.434411 0 CFG=2
M  V30 22 C 40.405661 32.940074 63.349000 0
M  V30 23 C 36.844781 25.010653 56.014388 0
M  V30 24 C 38.445144 32.933194 55.916781 0
M  V30 25 C 37.264302 25.884408 57.154276 0
M  V30 26 N 39.308906 28.606257 58.254871 0
M  V30 27 C 40.045570 35.836412 63.598333 0 CFG=1
M  V30 28 C 39.544042 26.025845 56.048364 0
M  V30 29 F 39.220956 30.980202 54.779131 0
M  V30 30 C 37.619548 24.772037 54.961150 0
M  V30 31 C 40.390012 31.394180 63.381377 0 CFG=1
M  V30 32 C 38.845197 30.854936 57.143628 0
M  V30 33 N 39.441100 29.572586 61.912910 0
M  V30 34 C 39.007521 25.354107 54.797231 0
M  V30 35 C 39.032082 27.283461 58.097266 0
M  V30 36 C 41.143824 28.396455 60.058277 0
M  V30 37 O 38.393017 35.049019 61.571118 0
M  V30 38 N 39.232173 29.479809 57.094995 0
M  V30 39 H 37.733509 33.344116 59.223270 0
M  V30 40 H 40.062987 33.312332 66.183818 0
M  V30 41 H 41.772757 33.409122 66.526527 0
M  V30 42 H 38.410216 30.998588 59.255363 0
M  V30 43 H 40.624311 35.363217 65.478415 0
M  V30 44 H 40.266231 30.137756 59.391933 0
M  V30 45 H 39.615965 30.172537 64.963906 0
M  V30 46 H 38.639903 37.469514 63.505344 0
M  V30 47 H 39.637774 37.513773 64.952184 0
M  V30 48 H 40.306485 37.981209 63.367833 0
M  V30 49 H 41.385728 35.878384 61.967662 0
M  V30 50 H 37.894321 29.583086 60.462434 0
M  V30 51 H 38.562201 28.059742 60.825513 0
M  V30 52 H 37.736552 34.594143 57.088594 0
M  V30 53 H 38.056793 27.599025 56.128304 0
M  V30 54 H 42.025778 29.414395 61.768630 0
M  V30 55 H 42.045140 27.737771 61.966448 0
M  V30 56 H 40.909709 31.049308 66.722039 0
M  V30 57 H 42.141469 31.171946 65.479481 0
M  V30 58 H 40.591858 29.004491 63.402480 0
M  V30 59 H 42.293992 33.583507 64.163820 0
M  V30 60 H 40.804461 33.188440 62.368794 0
M  V30 61 H 39.371164 33.274679 63.379423 0
M  V30 62 H 35.864652 24.562830 56.075498 0
M  V30 63 H 38.442472 33.482488 54.988552 0
M  V30 64 H 36.445051 26.507525 57.487917 0
M  V30 65 H 37.483038 25.188908 57.966888 0
M  V30 66 H 39.108726 35.337759 63.767750 0
M  V30 67 H 40.388576 26.667591 55.791301 0
M  V30 68 H 39.942941 25.246285 56.702333 0
M  V30 69 H 37.261361 24.137115 54.167870 0
M  V30 70 H 41.375341 31.050693 63.072016 0
M  V30 71 H 39.677443 24.537754 54.567777 0
M  V30 72 H 39.009746 26.047039 53.953791 0
M  V30 73 H 41.113791 27.337784 59.867995 0
M  V30 74 H 42.007431 28.719119 59.478011 0
M  V30 75 H 39.207069 29.028241 56.190787 0
M  V30 76 H 41.876993 35.682599 64.500190 0
M  V30 END ATOM
M  V30 BEGIN BOND
M  V30 1 1 3 1
M  V30 2 1 11 9
M  V30 3 1 11 10
M  V30 4 1 13 5
M  V30 5 2 14 1
M  V30 6 1 17 2
M  V30 7 1 17 6
M  V30 8 1 18 16
M  V30 9 2 19 7
M  V30 10 1 21 2
M  V30 11 1 21 4
M  V30 12 1 22 21
M  V30 13 1 24 14
M  V30 14 2 24 20
M  V30 15 1 25 15
M  V30 16 1 25 23
M  V30 17 1 26 5
M  V30 18 1 27 4
M  V30 19 1 27 8
M  V30 20 1 27 10
M  V30 21 1 28 15
M  V30 22 1 29 20
M  V30 23 2 30 23
M  V30 24 1 31 6
M  V30 25 1 31 7
M  V30 26 1 31 22
M  V30 27 2 32 3
M  V30 28 1 32 20
M  V30 29 1 33 7
M  V30 30 1 33 13
M  V30 31 1 33 18
M  V30 32 1 34 28
M  V30 33 1 34 30
M  V30 34 2 35 12
M  V30 35 1 35 15
M  V30 36 1 35 26
M  V30 37 1 36 5
M  V30 38 1 36 16
M  V30 39 2 37 11
M  V30 40 1 38 26
M  V30 41 1 38 32
M  V30 42 1 39 1
M  V30 43 1 40 2
M  V30 44 1 41 2
M  V30 45 1 42 3
M  V30 46 1 43 4
M  V30 47 1 5 44 CFG=3
M  V30 48 1 45 6
M  V30 49 1 46 8
M  V30 50 1 47 8
M  V30 51 1 48 8
M  V30 52 1 49 10
M  V30 53 1 50 13
M  V30 54 1 51 13
M  V30 55 1 52 14
M  V30 56 1 15 53 CFG=3
M  V30 57 1 54 16
M  V30 58 1 55 16
M  V30 59 1 56 17
M  V30 60 1 57 17
M  V30 61 1 58 18
M  V30 62 1 21 59 CFG=3
M  V30 63 1 60 22
M  V30 64 1 61 22
M  V30 65 1 62 23
M  V30 66 1 63 24
M  V30 67 1 64 25
M  V30 68 1 65 25
M  V30 69 1 27 66 CFG=3
M  V30 70 1 67 28
M  V30 71 1 68 28
M  V30 72 1 69 30
M  V30 73 1 31 70 CFG=3
M  V30 74 1 71 34
M  V30 75 1 72 34
M  V30 76 1 73 36
M  V30 77 1 74 36
M  V30 78 1 75 38
M  V30 79 1 76 4
M  V30 END BOND
M  V30 END CTAB
M  END
>  <i_epik_Tot_Q>  (1) 
0

>  <i_epik_Tot_abs_Q>  (1) 
2

>  <i_i_glide_confnum>  (1) 
476

>  <i_i_glide_lignum>  (1) 
60

>  <i_i_glide_posenum>  (1) 
399

>  <i_i_glide_rotatable_bonds>  (1) 
11

>  <i_lp_mmshare_version>  (1) 
72125

>  <i_m_source_file_index>  (1) 
25

>  <i_f3d_flags>  (1) 
0

>  <num_sample>  (1) 
100

>  <b_lp_Chiralities_Consistent>  (1) 
1

>  <r_epik_Charging_Adjusted_Penalty>  (1) 
0.077750035834572392

>  <r_epik_Ionization_Penalty>  (1) 
0.10755876975778689

>  <r_epik_Ionization_Penalty_Charging>  (1) 
0.0083338926467225426

>  <r_epik_Ionization_Penalty_Neutral>  (1) 
0.099224877111064341

>  <r_epik_State_Penalty>  (1) 
0.069416143187849846

>  <r_glide_ring_energy>  (1) 
0

>  <r_i_docking_score>  (1) 
-6.1375095293547233

>  <r_i_glide_ecoul>  (1) 
-3.0697665419496043

>  <r_i_glide_eff_state_penalty>  (1) 
0.069416143187849846

>  <r_i_glide_einternal>  (1) 
21.218547293719762

>  <r_i_glide_emodel>  (1) 
-41.41123560133876

>  <r_i_glide_emodel_strain>  (1) 
3.496135945415773

>  <r_i_glide_energy>  (1) 
-34.065054747321568

>  <r_i_glide_erotb>  (1) 
0.72960086390203738

>  <r_i_glide_esite>  (1) 
0

>  <r_i_glide_evdw>  (1) 
-30.995288205371963

>  <r_i_glide_gscore>  (1) 
-6.2069256725425728

>  <r_i_glide_gscore_strain>  (1) 
0

>  <r_i_glide_hbond>  (1) 
0

>  <r_i_glide_ligand_efficiency>  (1) 
-0.16151340866722955

>  <r_i_glide_ligand_efficiency_ln>  (1) 
-1.3234276017670434

>  <r_i_glide_ligand_efficiency_sa>  (1) 
-0.54300410780749642

>  <r_i_glide_lipo>  (1) 
-2.9257576824835185

>  <r_i_glide_metal>  (1) 
-0

>  <r_i_glide_rewards>  (1) 
-2.0005394624000528

>  <r_lp_Energy>  (1) 
53.347089999999994

>  <s_epik_Chemistry_Notes>  (1) 
This compound contains an acetal/aminal-like group ( X-CH(R)-Y where X, Y are N, S, or O) that may be acid/base labile, releasing an aldehyde.

>  <s_epik_cmdline>  (1) 
J2VwaWtfcHl0aG9uJywgJy1waHQnLCAnMS4wJywgJy1waCcsICc3LjQnLCAnLXRuJywgJzgnLCAnLW1hJywgJzUwMCcsICctaW1hZScsICc8aW5maWxlLm1hZT4nLCAnLW9tYWUnLCAnPG91dGZpbGUubWFlPic=

>  <s_epik_input>  (1) 
RmMxW2NIXVtjSF1bY0hdW2NIXWMxW05IXU4oQyg9TylbQ0BASF0yW0NIMl1bQ0hdPVtDSF1bQ0gyXVtDSDJdMilbQ0BIXTNbQ0gyXU4oW05IXVtDSDJdW0NIMl0zKUMoPU8pW0NAQEhdKFtDSDJdNClbTkhdW0NIMl1bQ0gyXVtDQEBIXTRbTkhdW0NASF0oW0NIM10pW05IXUMoPU8pW09IXQ==

>  <s_glide_docking_method>  (1) 
confgen

>  <s_i_glide_gridfile>  (1) 
gpcr_5ht2c_6bqh_protein_autoprepared_prepared

>  <s_lp_Force_Field>  (1) 
S-OPLS

>  <s_lp_Variant>  (1) 
DiffSBDD_24-2

>  <s_m_source_file>  (1) 
generated_GPCR_5HT2C_ligand_DiffSBDD_2026-06-23_prepared.sdf

>  <GenAI_Model>  (1) 
DiffSBDD

>  <Protein>  (1) 
GPCR_5HT2C

$$$$
DiffSBDD_16
     RDKit          3D

  0  0  0  0  0  0  0  0  0  0999 V3000
M  V30 BEGIN CTAB
M  V30 COUNTS 69 73 0 0 1
M  V30 BEGIN ATOM
M  V30 1 C 40.502105 30.678502 62.971010 0
M  V30 2 C 39.916874 26.644802 54.927405 0
M  V30 3 C 38.164155 31.954832 58.185312 0 CFG=1
M  V30 4 C 38.455900 30.515774 58.638720 0
M  V30 5 C 42.008920 30.872764 64.903647 0
M  V30 6 C 42.355529 29.516015 64.774776 0
M  V30 7 C 39.613662 35.052441 62.271895 0
M  V30 8 C 39.092144 35.754845 61.025213 0
M  V30 9 C 38.678497 33.038606 59.156348 0
M  V30 10 C 41.770631 28.735680 63.765175 0
M  V30 11 O 41.415353 33.500211 62.211838 0
M  V30 12 C 39.027184 28.860812 55.441853 0
M  V30 13 C 38.442606 29.785829 56.269283 0
M  V30 14 C 38.299674 31.242808 55.845749 0
M  V30 15 C 39.224833 27.419172 55.729702 0
M  V30 16 C 41.085384 31.454601 64.012105 0
M  V30 17 N 40.045136 25.353520 55.326411 0
M  V30 18 C 37.676401 24.202947 57.670638 0
M  V30 19 N 38.772561 32.180319 56.869315 0
M  V30 20 C 36.845119 25.431030 57.656192 0
M  V30 21 C 42.622185 31.711527 66.005759 0
M  V30 22 C 37.607890 35.477513 60.767948 0
M  V30 23 C 35.790024 33.777940 60.371394 0
M  V30 24 C 37.156251 34.026223 61.036768 0 CFG=1
M  V30 25 C 39.499192 31.236194 61.988879 0
M  V30 26 C 38.164935 32.930308 60.620343 0 CFG=2
M  V30 27 C 40.206665 33.657993 62.045025 0
M  V30 28 C 38.705492 26.704521 56.914791 0 CFG=2
M  V30 29 C 39.289674 32.544191 61.607500 0
M  V30 30 C 39.282484 25.375891 56.353031 0
M  V30 31 N 37.257228 26.537747 57.152820 0
M  V30 32 C 40.845228 29.309735 62.873123 0
M  V30 33 C 37.896458 29.491939 57.662327 0
M  V30 34 C 38.848205 24.188450 57.029947 0
M  V30 35 H 40.384393 26.937796 54.007875 0
M  V30 36 H 37.086591 32.077062 58.123932 0
M  V30 37 H 39.526360 30.358089 58.769573 0
M  V30 38 H 37.990120 30.301301 59.595284 0
M  V30 39 H 43.064037 29.070286 65.457429 0
M  V30 40 H 38.845139 35.005417 63.036817 0
M  V30 41 H 40.410593 35.663036 62.697507 0
M  V30 42 H 39.225253 36.829178 61.146465 0
M  V30 43 H 39.702126 35.476448 60.167759 0
M  V30 44 H 39.762807 33.052108 59.159541 0
M  V30 45 H 38.394907 33.999980 58.733699 0
M  V30 46 H 42.030666 27.691429 63.672859 0
M  V30 47 H 39.385497 29.219735 54.488005 0
M  V30 48 H 38.833697 31.426998 54.913122 0
M  V30 49 H 37.245162 31.441360 55.653306 0
M  V30 50 H 40.811636 32.481952 64.150359 0
M  V30 51 H 37.277303 23.337607 58.167802 0
M  V30 52 H 38.538295 33.116080 56.568684 0
M  V30 53 H 35.852946 25.337753 58.100125 0
M  V30 54 H 41.839910 32.195800 66.591132 0
M  V30 55 H 43.229457 31.108426 66.681009 0
M  V30 56 H 43.255178 32.487913 65.576623 0
M  V30 57 H 37.010903 36.138924 61.397256 0
M  V30 58 H 37.372637 35.770431 59.743829 0
M  V30 59 H 35.860175 33.805047 59.282570 0
M  V30 60 H 35.370797 32.810531 60.651513 0
M  V30 61 H 35.074594 34.537679 60.667737 0
M  V30 62 H 36.987671 33.911034 62.105972 0
M  V30 63 H 38.847413 30.493064 61.558756 0
M  V30 64 H 37.531788 32.048526 60.657700 0
M  V30 65 H 39.271492 26.931512 57.819520 0
M  V30 66 H 40.400402 28.699055 62.101281 0
M  V30 67 H 36.808732 29.566213 57.625681 0
M  V30 68 H 38.131714 28.579237 58.162798 0
M  V30 69 H 39.470136 23.337754 56.967764 0
M  V30 END ATOM
M  V30 BEGIN BOND
M  V30 1 1 4 3
M  V30 2 1 6 5
M  V30 3 1 8 7
M  V30 4 1 9 3
M  V30 5 2 10 6
M  V30 6 2 13 12
M  V30 7 1 14 13
M  V30 8 2 15 2
M  V30 9 1 15 12
M  V30 10 1 16 1
M  V30 11 2 16 5
M  V30 12 1 17 2
M  V30 13 1 19 3
M  V30 14 1 19 14
M  V30 15 1 20 18
M  V30 16 1 21 5
M  V30 17 1 22 8
M  V30 18 1 24 22
M  V30 19 1 24 23
M  V30 20 1 25 1
M  V30 21 1 26 9
M  V30 22 1 26 24
M  V30 23 1 27 7
M  V30 24 2 27 11
M  V30 25 1 28 15
M  V30 26 2 29 25
M  V30 27 1 29 26
M  V30 28 1 29 27
M  V30 29 2 30 17
M  V30 30 1 30 28
M  V30 31 2 31 20
M  V30 32 1 31 28
M  V30 33 2 32 1
M  V30 34 1 32 10
M  V30 35 1 33 4
M  V30 36 1 33 13
M  V30 37 2 34 18
M  V30 38 1 34 30
M  V30 39 1 35 2
M  V30 40 1 3 36 CFG=3
M  V30 41 1 37 4
M  V30 42 1 38 4
M  V30 43 1 39 6
M  V30 44 1 40 7
M  V30 45 1 41 7
M  V30 46 1 42 8
M  V30 47 1 43 8
M  V30 48 1 44 9
M  V30 49 1 45 9
M  V30 50 1 46 10
M  V30 51 1 47 12
M  V30 52 1 48 14
M  V30 53 1 49 14
M  V30 54 1 50 16
M  V30 55 1 51 18
M  V30 56 1 52 19
M  V30 57 1 53 20
M  V30 58 1 54 21
M  V30 59 1 55 21
M  V30 60 1 56 21
M  V30 61 1 57 22
M  V30 62 1 58 22
M  V30 63 1 59 23
M  V30 64 1 60 23
M  V30 65 1 61 23
M  V30 66 1 24 62 CFG=1
M  V30 67 1 63 25
M  V30 68 1 26 64 CFG=3
M  V30 69 1 28 65 CFG=1
M  V30 70 1 66 32
M  V30 71 1 67 33
M  V30 72 1 68 33
M  V30 73 1 69 34
M  V30 END BOND
M  V30 END CTAB
M  END
>  <i_epik_Tot_Q>  (1) 
0

>  <i_epik_Tot_abs_Q>  (1) 
0

>  <i_i_glide_confnum>  (1) 
29

>  <i_i_glide_lignum>  (1) 
38

>  <i_i_glide_posenum>  (1) 
146

>  <i_i_glide_rotatable_bonds>  (1) 
4

>  <i_lp_mmshare_version>  (1) 
72125

>  <i_m_source_file_index>  (1) 
17

>  <i_f3d_flags>  (1) 
0

>  <num_sample>  (1) 
100

>  <b_lp_Chiralities_Consistent>  (1) 
1

>  <r_epik_Charging_Adjusted_Penalty>  (1) 
0.56391873878667209

>  <r_epik_Ionization_Penalty>  (1) 
0.56391873878667209

>  <r_epik_Ionization_Penalty_Charging>  (1) 
0

>  <r_epik_Ionization_Penalty_Neutral>  (1) 
0.56391873878667209

>  <r_epik_State_Penalty>  (1) 
0.56391873878667209

>  <r_glide_ring_energy>  (1) 
0

>  <r_i_docking_score>  (1) 
-6.1371479226929289

>  <r_i_glide_ecoul>  (1) 
0.11741540087254831

>  <r_i_glide_eff_state_penalty>  (1) 
0.56391873878667209

>  <r_i_glide_einternal>  (1) 
15.22680720006651

>  <r_i_glide_emodel>  (1) 
-37.18281869985617

>  <r_i_glide_emodel_strain>  (1) 
0.056047945704278845

>  <r_i_glide_energy>  (1) 
-32.208081544634595

>  <r_i_glide_erotb>  (1) 
0.29265828080580603

>  <r_i_glide_esite>  (1) 
0

>  <r_i_glide_evdw>  (1) 
-32.32549694550714

>  <r_i_glide_gscore>  (1) 
-6.7010666614796008

>  <r_i_glide_gscore_strain>  (1) 
0

>  <r_i_glide_hbond>  (1) 
0

>  <r_i_glide_ligand_efficiency>  (1) 
-0.18050435066743908

>  <r_i_glide_ligand_efficiency_ln>  (1) 
-1.3558681172912896

>  <r_i_glide_ligand_efficiency_sa>  (1) 
-0.58476402460416488

>  <r_i_glide_lipo>  (1) 
-3.1736502219950062

>  <r_i_glide_metal>  (1) 
-0

>  <r_i_glide_rewards>  (1) 
-2.2214121831459255

>  <r_lp_Energy>  (1) 
60.789839000000001

>  <s_epik_Chemistry_Notes>  (1) 
This compound has an imine and may undergo hydrolysis.

>  <s_epik_cmdline>  (1) 
J2VwaWtfcHl0aG9uJywgJy1waHQnLCAnMS4wJywgJy1waCcsICc3LjQnLCAnLXRuJywgJzgnLCAnLW1hJywgJzUwMCcsICctaW1hZScsICc8aW5maWxlLm1hZT4nLCAnLW9tYWUnLCAnPG91dGZpbGUubWFlPic=

>  <s_epik_input>  (1) 
W2NIXTFbY0hdW2NIXWMoW0NIM10pW2NIXWMxL1tDSF09QyhDKD1PKVtDSDJdW0NIMl1bQ0gyXVtDQEhdMltDSDNdKS9bQ0BASF0yW0NIMl1bQ0BASF0zW0NIMl1bQ0gyXUMoL1tDSDJdW05IXTMpPVtDSF1cQzQ9W0NIXU49QyhbQ0BASF00NSlbQ0hdPVtDSF1bQ0hdPU41

>  <s_glide_docking_method>  (1) 
confgen

>  <s_i_glide_gridfile>  (1) 
gpcr_5ht2c_6bqh_protein_autoprepared_prepared

>  <s_lp_Force_Field>  (1) 
S-OPLS

>  <s_lp_Variant>  (1) 
DiffSBDD_16-6

>  <s_m_source_file>  (1) 
generated_GPCR_5HT2C_ligand_DiffSBDD_2026-06-23_prepared.sdf

>  <GenAI_Model>  (1) 
DiffSBDD

>  <Protein>  (1) 
GPCR_5HT2C

$$$$
DiffSBDD_24
     RDKit          3D

  0  0  0  0  0  0  0  0  0  0999 V3000
M  V30 BEGIN CTAB
M  V30 COUNTS 76 79 0 0 1
M  V30 BEGIN ATOM
M  V30 1 C 36.889245 25.081311 57.800618 0
M  V30 2 C 41.321889 32.334673 64.098387 0
M  V30 3 C 37.245195 26.318954 57.256091 0
M  V30 4 N 42.123499 30.383450 65.402891 0 CHG=1
M  V30 5 C 38.176649 29.103800 57.823034 0 CFG=2
M  V30 6 N 40.349403 31.880924 61.910740 0
M  V30 7 C 40.024909 29.704321 60.871781 0
M  V30 8 C 41.160064 29.441050 67.475043 0
M  V30 9 O 45.054934 31.940603 67.963286 0 CHG=-1
M  V30 10 N 43.121664 30.886765 67.624205 0
M  V30 11 C 44.054877 31.769225 67.239586 0
M  V30 12 O 38.359699 31.133442 55.803214 0
M  V30 13 C 39.414807 29.737625 58.456660 0
M  V30 14 C 37.754259 23.999955 57.700822 0
M  V30 15 C 39.131216 29.632795 54.074886 0 CFG=2
M  V30 16 C 36.858024 30.260948 59.637828 0
M  V30 17 C 40.353462 32.826276 63.010597 0
M  V30 18 N 38.093979 30.901043 60.108915 0
M  V30 19 O 40.844140 28.798729 60.728774 0
M  V30 20 C 39.302783 25.349985 56.436887 0
M  V30 21 C 41.062299 30.861440 64.490436 0 CFG=2
M  V30 22 C 41.018338 29.967471 63.235796 0
M  V30 23 C 40.045253 30.519245 51.875858 0
M  V30 24 C 38.964511 24.141440 57.030320 0
M  V30 25 C 39.633710 30.869286 53.297023 0
M  V30 26 N 38.453811 28.922146 56.367422 0
M  V30 27 C 41.909513 30.626298 66.848234 0 CFG=1
M  V30 28 C 38.183457 28.768727 53.196609 0
M  V30 29 F 40.446277 25.461565 55.751000 0
M  V30 30 C 39.710814 29.370060 51.261866 0
M  V30 31 C 40.000275 30.492265 62.196874 0 CFG=1
M  V30 32 C 38.469183 26.450372 56.558791 0
M  V30 33 N 39.210611 30.087004 59.863877 0
M  V30 34 C 38.877273 28.281927 51.909586 0
M  V30 35 C 38.597165 29.967112 55.496572 0
M  V30 36 C 36.907069 29.892959 58.165358 0
M  V30 37 O 43.897789 32.391805 66.167239 0
M  V30 38 N 38.866696 27.642639 55.940065 0
M  V30 39 H 35.960980 24.964933 58.325766 0
M  V30 40 H 42.343126 32.437606 63.728252 0
M  V30 41 H 41.256227 32.986768 64.969490 0
M  V30 42 H 36.580330 27.147941 57.367676 0
M  V30 43 H 42.299399 29.400976 65.253907 0
M  V30 44 H 38.138981 28.188790 58.400721 0
M  V30 45 H 40.128600 32.233023 60.987715 0
M  V30 46 H 40.939844 29.624534 68.527743 0
M  V30 47 H 40.205304 29.257111 66.983182 0
M  V30 48 H 41.741202 28.520781 67.415725 0
M  V30 49 H 43.251974 30.383156 68.487794 0
M  V30 50 H 40.277702 29.086465 58.313980 0
M  V30 51 H 39.644142 30.661032 57.930747 0
M  V30 52 H 37.492432 23.052627 58.147203 0
M  V30 53 H 40.038954 29.059224 54.248363 0
M  V30 54 H 36.692910 29.336625 60.167499 0
M  V30 55 H 36.012232 30.917803 59.842219 0
M  V30 56 H 40.656706 33.806961 62.644808 0
M  V30 57 H 39.339903 32.928614 63.395404 0
M  V30 58 H 38.037457 31.115586 61.101644 0
M  V30 59 H 40.092208 30.790411 64.986000 0
M  V30 60 H 40.747609 28.948598 63.522052 0
M  V30 61 H 42.016961 29.914905 62.796124 0
M  V30 62 H 40.637583 31.254487 51.349443 0
M  V30 63 H 39.637986 23.323297 56.968319 0
M  V30 64 H 40.485705 31.318534 53.808507 0
M  V30 65 H 38.857725 31.635276 53.248823 0
M  V30 66 H 41.289619 31.518091 66.960691 0
M  V30 67 H 37.781431 27.902480 53.715538 0
M  V30 68 H 37.304623 29.339717 52.934091 0
M  V30 69 H 40.041261 29.188580 50.248422 0
M  V30 70 H 38.995313 30.440547 62.617525 0
M  V30 71 H 38.129069 27.929334 51.198237 0
M  V30 72 H 39.529537 27.435283 52.125202 0
M  V30 73 H 36.850480 30.835487 57.644657 0
M  V30 74 H 36.027156 29.333782 57.878245 0
M  V30 75 H 39.513864 27.599438 55.164379 0
M  V30 76 H 42.961215 30.913554 65.180422 0
M  V30 END ATOM
M  V30 BEGIN BOND
M  V30 1 1 3 1
M  V30 2 1 11 9
M  V30 3 1 11 10
M  V30 4 1 13 5
M  V30 5 2 14 1
M  V30 6 1 17 2
M  V30 7 1 17 6
M  V30 8 1 18 16
M  V30 9 2 19 7
M  V30 10 1 21 2
M  V30 11 1 21 4
M  V30 12 1 22 21
M  V30 13 1 24 14
M  V30 14 2 24 20
M  V30 15 1 25 15
M  V30 16 1 25 23
M  V30 17 1 26 5
M  V30 18 1 27 4
M  V30 19 1 27 8
M  V30 20 1 27 10
M  V30 21 1 28 15
M  V30 22 1 29 20
M  V30 23 2 30 23
M  V30 24 1 31 6
M  V30 25 1 31 7
M  V30 26 1 31 22
M  V30 27 2 32 3
M  V30 28 1 32 20
M  V30 29 1 33 7
M  V30 30 1 33 13
M  V30 31 1 33 18
M  V30 32 1 34 28
M  V30 33 1 34 30
M  V30 34 2 35 12
M  V30 35 1 35 15
M  V30 36 1 35 26
M  V30 37 1 36 5
M  V30 38 1 36 16
M  V30 39 2 37 11
M  V30 40 1 38 26
M  V30 41 1 38 32
M  V30 42 1 39 1
M  V30 43 1 40 2
M  V30 44 1 41 2
M  V30 45 1 42 3
M  V30 46 1 43 4
M  V30 47 1 5 44 CFG=1
M  V30 48 1 45 6
M  V30 49 1 46 8
M  V30 50 1 47 8
M  V30 51 1 48 8
M  V30 52 1 49 10
M  V30 53 1 50 13
M  V30 54 1 51 13
M  V30 55 1 52 14
M  V30 56 1 15 53 CFG=1
M  V30 57 1 54 16
M  V30 58 1 55 16
M  V30 59 1 56 17
M  V30 60 1 57 17
M  V30 61 1 58 18
M  V30 62 1 21 59 CFG=1
M  V30 63 1 60 22
M  V30 64 1 61 22
M  V30 65 1 62 23
M  V30 66 1 63 24
M  V30 67 1 64 25
M  V30 68 1 65 25
M  V30 69 1 27 66 CFG=3
M  V30 70 1 67 28
M  V30 71 1 68 28
M  V30 72 1 69 30
M  V30 73 1 31 70 CFG=1
M  V30 74 1 71 34
M  V30 75 1 72 34
M  V30 76 1 73 36
M  V30 77 1 74 36
M  V30 78 1 75 38
M  V30 79 1 76 4
M  V30 END BOND
M  V30 END CTAB
M  END
>  <i_epik_Tot_Q>  (1) 
0

>  <i_epik_Tot_abs_Q>  (1) 
2

>  <i_i_glide_confnum>  (1) 
2068

>  <i_i_glide_lignum>  (1) 
60

>  <i_i_glide_posenum>  (1) 
127

>  <i_i_glide_rotatable_bonds>  (1) 
11

>  <i_lp_mmshare_version>  (1) 
72125

>  <i_m_source_file_index>  (1) 
25

>  <i_f3d_flags>  (1) 
0

>  <num_sample>  (1) 
100

>  <b_lp_Chiralities_Consistent>  (1) 
1

>  <r_epik_Charging_Adjusted_Penalty>  (1) 
0.077750035834572392

>  <r_epik_Ionization_Penalty>  (1) 
0.10755876975778689

>  <r_epik_Ionization_Penalty_Charging>  (1) 
0.0083338926467225426

>  <r_epik_Ionization_Penalty_Neutral>  (1) 
0.099224877111064341

>  <r_epik_State_Penalty>  (1) 
0.069416143187849846

>  <r_glide_ring_energy>  (1) 
0

>  <r_i_docking_score>  (1) 
-6.1300145907922579

>  <r_i_glide_ecoul>  (1) 
0.21999925636589046

>  <r_i_glide_eff_state_penalty>  (1) 
0.069416143187849846

>  <r_i_glide_einternal>  (1) 
21.316132140431943

>  <r_i_glide_emodel>  (1) 
-47.949082829502139

>  <r_i_glide_emodel_strain>  (1) 
1.1943050936830417

>  <r_i_glide_energy>  (1) 
-38.375766604587042

>  <r_i_glide_erotb>  (1) 
0.72960086390203738

>  <r_i_glide_esite>  (1) 
-0.0024852895297806698

>  <r_i_glide_evdw>  (1) 
-38.59576586095293

>  <r_i_glide_gscore>  (1) 
-6.1994307339801074

>  <r_i_glide_gscore_strain>  (1) 
0

>  <r_i_glide_hbond>  (1) 
-0.1252513688804342

>  <r_i_glide_ligand_efficiency>  (1) 
-0.16131617344190152

>  <r_i_glide_ligand_efficiency_ln>  (1) 
-1.3218114725342212

>  <r_i_glide_ligand_efficiency_sa>  (1) 
-0.54234100783058914

>  <r_i_glide_lipo>  (1) 
-3.6919495792542349

>  <r_i_glide_metal>  (1) 
-0

>  <r_i_glide_rewards>  (1) 
-1.2125569556249329

>  <r_lp_Energy>  (1) 
53.347089999999994

>  <s_epik_Chemistry_Notes>  (1) 
This compound contains an acetal/aminal-like group ( X-CH(R)-Y where X, Y are N, S, or O) that may be acid/base labile, releasing an aldehyde.

>  <s_epik_cmdline>  (1) 
J2VwaWtfcHl0aG9uJywgJy1waHQnLCAnMS4wJywgJy1waCcsICc3LjQnLCAnLXRuJywgJzgnLCAnLW1hJywgJzUwMCcsICctaW1hZScsICc8aW5maWxlLm1hZT4nLCAnLW9tYWUnLCAnPG91dGZpbGUubWFlPic=

>  <s_epik_input>  (1) 
RmMxW2NIXVtjSF1bY0hdW2NIXWMxW05IXU4oQyg9TylbQ0BASF0yW0NIMl1bQ0hdPVtDSF1bQ0gyXVtDSDJdMilbQ0BIXTNbQ0gyXU4oW05IXVtDSDJdW0NIMl0zKUMoPU8pW0NAQEhdKFtDSDJdNClbTkhdW0NIMl1bQ0gyXVtDQEBIXTRbTkhdW0NASF0oW0NIM10pW05IXUMoPU8pW09IXQ==

>  <s_glide_docking_method>  (1) 
confgen

>  <s_i_glide_gridfile>  (1) 
gpcr_5ht2c_6bqh_protein_autoprepared_prepared

>  <s_lp_Force_Field>  (1) 
S-OPLS

>  <s_lp_Variant>  (1) 
DiffSBDD_24-2

>  <s_m_source_file>  (1) 
generated_GPCR_5HT2C_ligand_DiffSBDD_2026-06-23_prepared.sdf

>  <GenAI_Model>  (1) 
DiffSBDD

>  <Protein>  (1) 
GPCR_5HT2C

$$$$
DiffSBDD_23
     RDKit          3D

  0  0  0  0  0  0  0  0  0  0999 V3000
M  V30 BEGIN CTAB
M  V30 COUNTS 67 69 0 0 1
M  V30 BEGIN ATOM
M  V30 1 C 39.142175 28.510154 56.599205 0
M  V30 2 C 39.578860 27.493828 57.466606 0
M  V30 3 C 45.245137 28.569226 65.050778 0
M  V30 4 O 40.359480 30.443088 60.765740 0 CHG=-1
M  V30 5 C 40.154740 27.833147 58.827109 0
M  V30 6 N 39.245132 29.857899 56.980690 0
M  V30 7 C 38.295175 30.872539 56.537982 0 CFG=1
M  V30 8 C 39.284437 33.006352 60.864533 0 CFG=2
M  V30 9 C 38.606801 28.139883 55.341722 0
M  V30 10 C 41.534911 31.530383 63.271313 0
M  V30 11 C 41.149916 29.055010 63.737740 0
M  V30 12 C 37.792276 31.655120 57.767776 0
M  V30 13 C 38.909723 31.773957 55.453887 0
M  V30 14 C 41.608542 27.795106 64.167661 0
M  V30 15 C 39.421918 36.301414 62.045407 0
M  V30 16 C 38.923590 25.888367 55.777469 0
M  V30 17 C 43.356421 30.005021 64.167749 0
M  V30 18 O 39.032730 31.279334 54.309841 0
M  V30 19 P 39.413035 31.254736 61.565365 0
M  V30 20 N 38.494038 26.852230 54.928531 0
M  V30 21 C 37.077895 37.135993 60.712354 0
M  V30 22 C 39.211106 37.667206 61.767762 0
M  V30 23 O 38.045175 30.758540 61.836725 0
M  V30 24 C 38.041014 38.082754 61.101344 0
M  V30 25 C 39.468248 26.157193 57.048519 0
M  V30 26 C 42.939652 27.637684 64.594582 0
M  V30 27 C 42.024005 30.164177 63.736785 0
M  V30 28 C 43.814806 28.741549 64.594981 0
M  V30 29 C 37.277157 35.771526 60.991242 0
M  V30 30 C 38.642691 33.867291 61.968990 0
M  V30 31 C 38.380087 32.974103 59.616695 0
M  V30 32 O 39.245129 32.937753 55.767761 0 CHG=-1
M  V30 33 C 38.447102 35.346506 61.656942 0
M  V30 34 O 40.140089 31.611841 63.062970 0
M  V30 35 C 40.690645 35.864480 62.761884 0
M  V30 36 O 38.845138 32.075248 58.626173 0
M  V30 37 H 45.729316 27.803702 64.443443 0
M  V30 38 H 45.800204 29.502397 64.951955 0
M  V30 39 H 45.282765 28.257458 66.094903 0
M  V30 40 H 40.437583 26.937755 59.367736 0
M  V30 41 H 41.038467 28.464656 58.728711 0
M  V30 42 H 39.413507 28.362633 59.426058 0
M  V30 43 H 39.645387 30.061583 57.887730 0
M  V30 44 H 37.420496 30.400943 56.088940 0
M  V30 45 H 40.272389 33.382488 60.605395 0
M  V30 46 H 38.262182 28.890591 54.648231 0
M  V30 47 H 42.074988 31.823606 62.370266 0
M  V30 48 H 41.798526 32.266773 64.032163 0
M  V30 49 H 40.126835 29.169068 63.409739 0
M  V30 50 H 37.245140 32.539178 57.439910 0
M  V30 51 H 37.102316 31.029986 58.337063 0
M  V30 52 H 40.937751 26.948891 64.167801 0
M  V30 53 H 38.827907 24.869763 55.430911 0
M  V30 54 H 44.026960 30.851247 64.167862 0
M  V30 55 H 36.181959 37.456712 60.201709 0
M  V30 56 H 39.949309 38.397271 62.063072 0
M  V30 57 H 37.884047 39.129832 60.887686 0
M  V30 58 H 39.794822 25.350669 57.687533 0
M  V30 59 H 43.290005 26.670052 64.921431 0
M  V30 60 H 36.531006 35.048225 60.695984 0
M  V30 61 H 37.657680 33.444233 62.167759 0
M  V30 62 H 39.189175 33.770731 62.904401 0
M  V30 63 H 38.313449 33.962424 59.161702 0
M  V30 64 H 37.369345 32.701862 59.928406 0
M  V30 65 H 41.395320 36.691132 62.856808 0
M  V30 66 H 40.460994 35.510151 63.766870 0
M  V30 67 H 41.192374 35.066238 62.214508 0
M  V30 END ATOM
M  V30 BEGIN BOND
M  V30 1 2 2 1
M  V30 2 1 5 2
M  V30 3 1 6 1
M  V30 4 1 7 6
M  V30 5 1 9 1
M  V30 6 1 12 7
M  V30 7 1 13 7
M  V30 8 1 14 11
M  V30 9 2 18 13
M  V30 10 1 19 4
M  V30 11 1 19 8
M  V30 12 2 20 9
M  V30 13 1 20 16
M  V30 14 2 22 15
M  V30 15 2 23 19
M  V30 16 2 24 21
M  V30 17 1 24 22
M  V30 18 1 25 2
M  V30 19 2 25 16
M  V30 20 2 26 14
M  V30 21 1 27 10
M  V30 22 2 27 11
M  V30 23 1 27 17
M  V30 24 1 28 3
M  V30 25 2 28 17
M  V30 26 1 28 26
M  V30 27 1 29 21
M  V30 28 1 30 8
M  V30 29 1 31 8
M  V30 30 1 32 13
M  V30 31 1 33 15
M  V30 32 2 33 29
M  V30 33 1 33 30
M  V30 34 1 34 10
M  V30 35 1 34 19
M  V30 36 1 35 15
M  V30 37 1 36 12
M  V30 38 1 36 31
M  V30 39 1 37 3
M  V30 40 1 38 3
M  V30 41 1 39 3
M  V30 42 1 40 5
M  V30 43 1 41 5
M  V30 44 1 42 5
M  V30 45 1 43 6
M  V30 46 1 7 44 CFG=3
M  V30 47 1 8 45 CFG=3
M  V30 48 1 46 9
M  V30 49 1 47 10
M  V30 50 1 48 10
M  V30 51 1 49 11
M  V30 52 1 50 12
M  V30 53 1 51 12
M  V30 54 1 52 14
M  V30 55 1 53 16
M  V30 56 1 54 17
M  V30 57 1 55 21
M  V30 58 1 56 22
M  V30 59 1 57 24
M  V30 60 1 58 25
M  V30 61 1 59 26
M  V30 62 1 60 29
M  V30 63 1 61 30
M  V30 64 1 62 30
M  V30 65 1 63 31
M  V30 66 1 64 31
M  V30 67 1 65 35
M  V30 68 1 66 35
M  V30 69 1 67 35
M  V30 END BOND
M  V30 END CTAB
M  END
>  <i_epik_Tot_Q>  (1) 
-2

>  <i_epik_Tot_abs_Q>  (1) 
2

>  <i_i_glide_confnum>  (1) 
3515

>  <i_i_glide_lignum>  (1) 
57

>  <i_i_glide_posenum>  (1) 
295

>  <i_i_glide_rotatable_bonds>  (1) 
13

>  <i_lp_mmshare_version>  (1) 
72125

>  <i_m_source_file_index>  (1) 
24

>  <i_f3d_flags>  (1) 
0

>  <num_sample>  (1) 
100

>  <b_lp_Chiralities_Consistent>  (1) 
1

>  <r_epik_Charging_Adjusted_Penalty>  (1) 
0.24647158034106029

>  <r_epik_Ionization_Penalty>  (1) 
0.24647497421130457

>  <r_epik_Ionization_Penalty_Charging>  (1) 
0.00050661666566131989

>  <r_epik_Ionization_Penalty_Neutral>  (1) 
0.24596835754564325

>  <r_epik_State_Penalty>  (1) 
0.24596496367539897

>  <r_glide_ring_energy>  (1) 
0

>  <r_i_docking_score>  (1) 
-6.1276494245182445

>  <r_i_glide_ecoul>  (1) 
-3.7526449398619421

>  <r_i_glide_eff_state_penalty>  (1) 
0.24596496367539897

>  <r_i_glide_einternal>  (1) 
10.314125561009174

>  <r_i_glide_emodel>  (1) 
-63.834110713483355

>  <r_i_glide_emodel_strain>  (1) 
0.87796473059305313

>  <r_i_glide_energy>  (1) 
-48.843828080666547

>  <r_i_glide_erotb>  (1) 
0.94322731134637816

>  <r_i_glide_esite>  (1) 
0

>  <r_i_glide_evdw>  (1) 
-45.091183140804603

>  <r_i_glide_gscore>  (1) 
-6.3736143881936433

>  <r_i_glide_gscore_strain>  (1) 
0

>  <r_i_glide_hbond>  (1) 
-0.088590018663606926

>  <r_i_glide_ligand_efficiency>  (1) 
-0.17021248401439568

>  <r_i_glide_ligand_efficiency_ln>  (1) 
-1.3368875544740852

>  <r_i_glide_ligand_efficiency_sa>  (1) 
-0.56202923906917424

>  <r_i_glide_lipo>  (1) 
-3.9225970169696622

>  <r_i_glide_metal>  (1) 
-0

>  <r_i_glide_rewards>  (1) 
-0.48819876588723138

>  <r_lp_Energy>  (1) 
45.739263999999999

>  <r_lp_tautomer_probability>  (1) 
0.99999999999999911

>  <s_epik_cmdline>  (1) 
J2VwaWtfcHl0aG9uJywgJy1waHQnLCAnMS4wJywgJy1waCcsICc3LjQnLCAnLXRuJywgJzgnLCAnLW1hJywgJzUwMCcsICctaW1hZScsICc8aW5maWxlLm1hZT4nLCAnLW9tYWUnLCAnPG91dGZpbGUubWFlPic=

>  <s_epik_input>  (1) 
W2NIXTFuW2NIXVtjSF1jKFtDSDNdKWMxW05IXVtDQEhdKEMoPU8pW09IXSlbQ0gyXU9bQ0gyXVtDQEBIXShbQ0gyXWMyW2NIXVtjSF1bY0hdW2NIXWMyW0NIM10pW1BAQF0oPU8pKFtPSF0pT1tDSDJdYzNbY0hdW2NIXVtjSF1jKFtDSDNdKVtjSF0z

>  <s_glide_docking_method>  (1) 
confgen

>  <s_i_glide_gridfile>  (1) 
gpcr_5ht2c_6bqh_protein_autoprepared_prepared

>  <s_lp_Force_Field>  (1) 
S-OPLS

>  <s_lp_Variant>  (1) 
DiffSBDD_23-1

>  <s_m_source_file>  (1) 
generated_GPCR_5HT2C_ligand_DiffSBDD_2026-06-23_prepared.sdf

>  <GenAI_Model>  (1) 
DiffSBDD

>  <Protein>  (1) 
GPCR_5HT2C

$$$$
DiffSBDD_53
     RDKit          3D

  0  0  0  0  0  0  0  0  0  0999 V3000
M  V30 BEGIN CTAB
M  V30 COUNTS 82 86 0 0 1
M  V30 BEGIN ATOM
M  V30 1 C 39.457751 30.582468 55.616664 0
M  V30 2 C 37.179701 33.358190 61.667585 0
M  V30 3 C 41.208689 34.824757 63.142919 0
M  V30 4 C 38.012869 31.119243 55.694581 0
M  V30 5 C 39.820272 32.177138 62.300324 0
M  V30 6 C 41.023636 28.157827 60.090826 0
M  V30 7 C 40.330374 26.214102 55.930813 0
M  V30 8 N 39.592305 29.118763 55.700614 0
M  V30 9 N 42.217615 35.737407 65.895297 0 CHG=1
M  V30 10 C 35.392063 32.018384 59.804502 0
M  V30 11 C 38.977161 28.418161 56.838145 0 CFG=1
M  V30 12 N 37.645140 31.595882 57.048409 0 CHG=1
M  V30 13 C 40.270682 33.190193 61.535781 0
M  V30 14 C 38.682954 31.316157 61.784578 0
M  V30 15 C 39.299757 26.921898 56.795763 0 CFG=1
M  V30 16 C 38.714916 32.632905 59.756441 0 CFG=1
M  V30 17 C 39.435307 28.987982 58.203957 0 CFG=2
M  V30 18 C 40.916678 35.153777 65.566871 0
M  V30 19 O 38.295487 26.099027 57.352558 0
M  V30 20 C 38.359746 32.983517 57.453627 0
M  V30 21 C 35.929353 34.036812 61.123571 0
M  V30 22 C 34.855946 32.993650 60.842731 0
M  V30 23 C 37.753559 32.152743 60.871653 0
M  V30 24 O 37.986258 33.295775 58.764827 0
M  V30 25 C 36.622884 31.245443 60.310977 0
M  V30 26 C 40.886682 28.602007 58.622841 0 CFG=2
M  V30 27 O 38.467449 28.573405 59.145976 0
M  V30 28 C 40.898102 32.797628 64.523107 0
M  V30 29 N 41.494218 27.667988 57.636385 0 CFG=1 CHG=1
M  V30 30 O 39.717544 33.451781 60.293796 0
M  V30 31 C 42.921394 27.348064 57.864872 0
M  V30 32 C 40.633771 26.492818 57.382017 0 CFG=2
M  V30 33 C 40.377194 31.894692 63.635327 0
M  V30 34 C 41.399729 34.085967 61.870062 0
M  V30 35 C 41.023180 34.259474 64.346113 0
M  V30 36 H 40.054671 31.062305 56.385652 0
M  V30 37 H 39.894331 30.907236 54.670900 0
M  V30 38 H 36.875835 32.930496 62.605037 0
M  V30 39 H 37.915943 34.123851 61.899791 0
M  V30 40 H 41.281916 35.902110 63.076738 0
M  V30 41 H 37.900254 31.961407 55.009478 0
M  V30 42 H 37.293935 30.371004 55.362320 0
M  V30 43 H 40.770286 28.968425 60.773459 0
M  V30 44 H 40.357848 27.336918 60.330871 0
M  V30 45 H 42.035907 27.844734 60.325470 0
M  V30 46 H 40.147532 25.176594 55.660766 0
M  V30 47 H 40.844279 26.795338 55.168237 0
M  V30 48 H 39.250398 28.700655 54.838221 0
M  V30 49 H 42.155556 36.207989 66.787970 0
M  V30 50 H 42.918115 35.014289 65.943794 0
M  V30 51 H 35.695117 32.628678 58.966789 0
M  V30 52 H 34.608931 31.356590 59.434490 0
M  V30 53 H 37.893400 28.523084 56.749417 0
M  V30 54 H 36.611267 31.736081 56.996529 0
M  V30 55 H 39.111785 30.476338 61.238765 0
M  V30 56 H 38.133198 30.888298 62.623749 0
M  V30 57 H 39.245006 31.782829 59.342286 0
M  V30 58 H 39.380079 30.065392 58.208476 0
M  V30 59 H 40.195326 35.954284 65.393937 0
M  V30 60 H 40.561637 34.580021 66.424406 0
M  V30 61 H 38.282960 25.271694 56.891241 0
M  V30 62 H 39.445633 32.953274 57.342089 0
M  V30 63 H 37.968916 33.761557 56.795909 0
M  V30 64 H 36.158706 34.614882 60.226529 0
M  V30 65 H 35.580673 34.744293 61.873608 0
M  V30 66 H 33.949105 33.474580 60.478128 0
M  V30 67 H 34.608534 32.472318 61.766552 0
M  V30 68 H 37.003367 30.605111 59.522342 0
M  V30 69 H 36.283108 30.569341 61.092629 0
M  V30 70 H 41.486148 29.506670 58.560276 0
M  V30 71 H 38.246942 27.663925 58.977898 0
M  V30 72 H 41.179835 32.405459 65.490147 0
M  V30 73 H 43.041302 26.622132 58.670942 0
M  V30 74 H 43.371460 26.934669 56.967897 0
M  V30 75 H 43.487273 28.249676 58.106457 0
M  V30 76 H 40.662743 25.705392 58.132467 0
M  V30 77 H 40.296847 30.874117 63.984795 0
M  V30 78 H 42.307316 33.482925 61.927953 0
M  V30 79 H 41.540075 34.823035 61.077847 0
M  V30 80 H 41.462478 28.182443 56.766158 0
M  V30 81 H 42.476151 36.424896 65.194824 0
M  V30 82 H 37.809014 30.879669 57.736794 0
M  V30 END ATOM
M  V30 BEGIN BOND
M  V30 1 1 4 1
M  V30 2 1 8 1
M  V30 3 1 11 8
M  V30 4 1 12 4
M  V30 5 2 13 5
M  V30 6 1 14 5
M  V30 7 1 15 7
M  V30 8 1 15 11
M  V30 9 1 17 11
M  V30 10 1 18 9
M  V30 11 1 15 19 CFG=1
M  V30 12 1 20 12
M  V30 13 1 21 2
M  V30 14 1 22 10
M  V30 15 1 22 21
M  V30 16 1 23 2
M  V30 17 1 23 14
M  V30 18 1 23 16
M  V30 19 1 24 16
M  V30 20 1 24 20
M  V30 21 1 25 10
M  V30 22 1 25 23
M  V30 23 1 26 6
M  V30 24 1 26 17
M  V30 25 1 27 17
M  V30 26 1 29 26
M  V30 27 1 30 13
M  V30 28 1 30 16
M  V30 29 1 31 29
M  V30 30 1 32 7
M  V30 31 1 32 15
M  V30 32 1 32 29
M  V30 33 1 33 5
M  V30 34 2 33 28
M  V30 35 1 34 3
M  V30 36 1 34 13
M  V30 37 2 35 3
M  V30 38 1 35 18
M  V30 39 1 35 28
M  V30 40 1 36 1
M  V30 41 1 37 1
M  V30 42 1 38 2
M  V30 43 1 39 2
M  V30 44 1 40 3
M  V30 45 1 41 4
M  V30 46 1 42 4
M  V30 47 1 43 6
M  V30 48 1 44 6
M  V30 49 1 45 6
M  V30 50 1 46 7
M  V30 51 1 47 7
M  V30 52 1 48 8
M  V30 53 1 49 9
M  V30 54 1 50 9
M  V30 55 1 51 10
M  V30 56 1 52 10
M  V30 57 1 11 53 CFG=3
M  V30 58 1 54 12
M  V30 59 1 55 14
M  V30 60 1 56 14
M  V30 61 1 16 57 CFG=3
M  V30 62 1 17 58 CFG=3
M  V30 63 1 59 18
M  V30 64 1 60 18
M  V30 65 1 61 19
M  V30 66 1 62 20
M  V30 67 1 63 20
M  V30 68 1 64 21
M  V30 69 1 65 21
M  V30 70 1 66 22
M  V30 71 1 67 22
M  V30 72 1 68 25
M  V30 73 1 69 25
M  V30 74 1 26 70 CFG=1
M  V30 75 1 71 27
M  V30 76 1 72 28
M  V30 77 1 73 31
M  V30 78 1 74 31
M  V30 79 1 75 31
M  V30 80 1 32 76 CFG=1
M  V30 81 1 77 33
M  V30 82 1 78 34
M  V30 83 1 79 34
M  V30 84 1 29 80 CFG=3
M  V30 85 1 81 9
M  V30 86 1 82 12
M  V30 END BOND
M  V30 END CTAB
M  END
>  <i_epik_Tot_Q>  (1) 
3

>  <i_epik_Tot_abs_Q>  (1) 
3

>  <i_i_glide_confnum>  (1) 
35

>  <i_i_glide_lignum>  (1) 
114

>  <i_i_glide_posenum>  (1) 
134

>  <i_i_glide_rotatable_bonds>  (1) 
10

>  <i_lp_mmshare_version>  (1) 
72125

>  <i_m_source_file_index>  (1) 
54

>  <i_f3d_flags>  (1) 
0

>  <num_sample>  (1) 
100

>  <b_lp_Chiralities_Consistent>  (1) 
1

>  <r_epik_Charging_Adjusted_Penalty>  (1) 
1.5449594399157651

>  <r_epik_Ionization_Penalty>  (1) 
0.47240059175592303

>  <r_epik_Ionization_Penalty_Charging>  (1) 
0.40568266018177357

>  <r_epik_Ionization_Penalty_Neutral>  (1) 
0.066717931574149458

>  <r_epik_State_Penalty>  (1) 
1.1392767797339916

>  <r_glide_ring_energy>  (1) 
0.00056355326545655675

>  <r_i_docking_score>  (1) 
-6.1253218011918245

>  <r_i_glide_ecoul>  (1) 
-14.317993636962019

>  <r_i_glide_eff_state_penalty>  (1) 
1.1392767797339916

>  <r_i_glide_einternal>  (1) 
9.5481531946523344

>  <r_i_glide_emodel>  (1) 
-56.217683959928358

>  <r_i_glide_emodel_strain>  (1) 
4.1241697860897801

>  <r_i_glide_energy>  (1) 
-50.69170427476935

>  <r_i_glide_erotb>  (1) 
0.58947078011706677

>  <r_i_glide_esite>  (1) 
-0.20763482814076181

>  <r_i_glide_evdw>  (1) 
-36.373710637807328

>  <r_i_glide_gscore>  (1) 
-7.2645985809258162

>  <r_i_glide_gscore_strain>  (1) 
0.031042446522445033

>  <r_i_glide_hbond>  (1) 
-0.071992917836582404

>  <r_i_glide_ligand_efficiency>  (1) 
-0.17500919431976641

>  <r_i_glide_ligand_efficiency_ln>  (1) 
-1.3446440795545036

>  <r_i_glide_ligand_efficiency_sa>  (1) 
-0.5724666795126363

>  <r_i_glide_lipo>  (1) 
-3.3595969811127406

>  <r_i_glide_metal>  (1) 
-0

>  <r_i_glide_rewards>  (1) 
-0.27950250304057334

>  <r_lp_Energy>  (1) 
63.319117999999996

>  <s_epik_Chemistry_Notes>  (1) 
This compound contains an acetal/aminal-like group ( X-CH(R)-Y where X, Y are N, S, or O) that may be acid/base labile, releasing an aldehyde.

>  <s_epik_cmdline>  (1) 
J2VwaWtfcHl0aG9uJywgJy1waHQnLCAnMS4wJywgJy1waCcsICc3LjQnLCAnLXRuJywgJzgnLCAnLW1hJywgJzUwMCcsICctaW1hZScsICc8aW5maWxlLm1hZT4nLCAnLW9tYWUnLCAnPG91dGZpbGUubWFlPic=

>  <s_epik_input>  (1) 
W09IXVtDQEBdMTJbQ0BASF0oW0NIMl0xKU4oW0NIM10pW0NASF0oW0NIM10pW0NASF0oW09IXSlbQ0BIXTJbTkhdW0NIMl1bQ0gyXVtOSF1bQ0gyXU9bQ0BIXTNPQyhbQ0gyXVtDSF09QyhbQ0gyXVtOSDJdKVtDSF09W0NIXTQpPUM0W0NIMl1DMzVbQ0gyXVtDSDJdW0NIMl1bQ0gyXVtDSDJdNQ==

>  <s_glide_docking_method>  (1) 
confgen

>  <s_i_glide_gridfile>  (1) 
gpcr_5ht2c_6bqh_protein_autoprepared_prepared

>  <s_lp_Force_Field>  (1) 
S-OPLS

>  <s_lp_Variant>  (1) 
DiffSBDD_53-6

>  <s_m_source_file>  (1) 
generated_GPCR_5HT2C_ligand_DiffSBDD_2026-06-23_prepared.sdf

>  <GenAI_Model>  (1) 
DiffSBDD

>  <Protein>  (1) 
GPCR_5HT2C

$$$$
DiffSBDD_81
     RDKit          3D

  0  0  0  0  0  0  0  0  0  0999 V3000
M  V30 BEGIN CTAB
M  V30 COUNTS 67 68 0 0 1
M  V30 BEGIN ATOM
M  V30 1 C 37.448160 26.076405 57.125426 0
M  V30 2 C 38.543793 31.600143 56.641045 0
M  V30 3 C 39.324215 35.411726 61.529684 0 CFG=2
M  V30 4 C 38.931296 28.207411 53.430319 0
M  V30 5 C 37.027228 34.971858 60.989426 0
M  V30 6 C 39.482351 27.041928 54.262160 0
M  V30 7 C 38.054905 36.085055 60.995945 0
M  V30 8 C 38.045144 33.009793 56.984828 0
M  V30 9 C 39.333257 31.590874 55.326254 0
M  V30 10 C 38.491907 29.429070 54.222457 0
M  V30 11 C 38.437310 33.344622 59.500107 0
M  V30 12 C 39.254971 27.010507 51.194288 0
M  V30 13 C 37.162265 32.457753 61.560566 0
M  V30 14 C 39.689005 30.189793 54.816635 0
M  V30 15 O 38.971351 34.036549 61.722597 0
M  V30 16 O 38.045153 27.000889 56.233421 0
M  V30 17 C 38.837708 28.174721 52.078750 0
M  V30 18 C 41.215779 35.491466 63.252854 0
M  V30 19 C 39.841650 36.029236 62.838844 0
M  V30 20 C 37.855814 33.679454 60.902915 0 CFG=2
M  V30 21 C 35.657304 32.287279 61.268816 0
M  V30 22 C 38.891479 24.937775 55.597807 0
M  V30 23 C 37.412427 33.116973 58.377962 0
M  V30 24 C 38.405565 26.287277 55.058812 0 CFG=2
M  V30 25 C 38.352905 24.856686 57.019048 0
M  V30 26 H 37.391545 26.472495 58.138903 0
M  V30 27 H 36.440478 25.837767 56.785686 0
M  V30 28 H 37.682601 30.934363 56.570646 0
M  V30 29 H 39.172717 31.211923 57.442142 0
M  V30 30 H 40.103874 35.475287 60.768788 0
M  V30 31 H 36.285438 35.083581 60.199674 0
M  V30 32 H 36.488544 35.001262 61.937382 0
M  V30 33 H 40.047482 26.336160 53.663894 0
M  V30 34 H 40.220016 27.420673 54.967767 0
M  V30 35 H 37.728005 36.929888 61.603035 0
M  V30 36 H 38.218529 36.453055 59.983137 0
M  V30 37 H 38.845136 33.737747 56.879801 0
M  V30 38 H 37.298497 33.291674 56.243506 0
M  V30 39 H 40.260437 32.137747 55.486295 0
M  V30 40 H 38.787597 32.134519 54.553602 0
M  V30 41 H 37.945843 30.097639 53.557700 0
M  V30 42 H 37.782652 29.143701 54.998178 0
M  V30 43 H 39.074388 32.463736 59.581671 0
M  V30 44 H 39.108160 34.137750 59.183865 0
M  V30 45 H 40.031344 27.352871 50.510862 0
M  V30 46 H 39.645109 26.137752 51.702403 0
M  V30 47 H 38.416196 26.682182 50.583470 0
M  V30 48 H 37.692879 31.544711 61.288416 0
M  V30 49 H 37.276093 32.537755 62.637520 0
M  V30 50 H 40.154402 29.613426 55.616151 0
M  V30 51 H 40.445158 30.303000 54.039398 0
M  V30 52 H 38.439496 29.035185 51.561700 0
M  V30 53 H 41.535929 35.931524 64.197716 0
M  V30 54 H 41.196767 34.408300 63.375461 0
M  V30 55 H 41.969786 35.737729 62.505277 0
M  V30 56 H 39.920496 37.111138 62.723244 0
M  V30 57 H 39.120163 35.859214 63.637613 0
M  V30 58 H 35.268141 31.385787 61.740960 0
M  V30 59 H 35.075223 33.123288 61.656795 0
M  V30 60 H 35.440826 32.206357 60.206140 0
M  V30 61 H 38.511511 24.137038 54.967762 0
M  V30 62 H 39.980481 24.878184 55.611961 0
M  V30 63 H 36.696574 33.937104 58.354899 0
M  V30 64 H 36.845120 32.209457 58.567760 0
M  V30 65 H 37.513532 26.132466 54.448319 0
M  V30 66 H 39.175853 24.940218 57.730006 0
M  V30 67 H 37.822040 23.927057 57.226189 0
M  V30 END ATOM
M  V30 BEGIN BOND
M  V30 1 1 6 4
M  V30 2 1 7 3
M  V30 3 1 7 5
M  V30 4 1 8 2
M  V30 5 1 9 2
M  V30 6 1 10 4
M  V30 7 1 14 9
M  V30 8 1 14 10
M  V30 9 1 15 3
M  V30 10 1 16 1
M  V30 11 2 17 4
M  V30 12 1 17 12
M  V30 13 1 19 3
M  V30 14 1 19 18
M  V30 15 1 20 5
M  V30 16 1 20 11 CFG=3
M  V30 17 1 20 13
M  V30 18 1 20 15
M  V30 19 1 21 13
M  V30 20 1 23 8
M  V30 21 1 23 11
M  V30 22 1 24 6
M  V30 23 1 24 16
M  V30 24 1 24 22
M  V30 25 1 25 1
M  V30 26 1 25 22
M  V30 27 1 26 1
M  V30 28 1 27 1
M  V30 29 1 28 2
M  V30 30 1 29 2
M  V30 31 1 3 30 CFG=3
M  V30 32 1 31 5
M  V30 33 1 32 5
M  V30 34 1 33 6
M  V30 35 1 34 6
M  V30 36 1 35 7
M  V30 37 1 36 7
M  V30 38 1 37 8
M  V30 39 1 38 8
M  V30 40 1 39 9
M  V30 41 1 40 9
M  V30 42 1 41 10
M  V30 43 1 42 10
M  V30 44 1 43 11
M  V30 45 1 44 11
M  V30 46 1 45 12
M  V30 47 1 46 12
M  V30 48 1 47 12
M  V30 49 1 48 13
M  V30 50 1 49 13
M  V30 51 1 50 14
M  V30 52 1 51 14
M  V30 53 1 52 17
M  V30 54 1 53 18
M  V30 55 1 54 18
M  V30 56 1 55 18
M  V30 57 1 56 19
M  V30 58 1 57 19
M  V30 59 1 58 21
M  V30 60 1 59 21
M  V30 61 1 60 21
M  V30 62 1 61 22
M  V30 63 1 62 22
M  V30 64 1 63 23
M  V30 65 1 64 23
M  V30 66 1 24 65 CFG=3
M  V30 67 1 66 25
M  V30 68 1 67 25
M  V30 END BOND
M  V30 END CTAB
M  END
>  <i_epik_Tot_Q>  (1) 
0

>  <i_epik_Tot_abs_Q>  (1) 
0

>  <i_i_glide_confnum>  (1) 
1147

>  <i_i_glide_lignum>  (1) 
188

>  <i_i_glide_posenum>  (1) 
291

>  <i_i_glide_rotatable_bonds>  (1) 
12

>  <i_lp_mmshare_version>  (1) 
72125

>  <i_m_source_file_index>  (1) 
82

>  <i_f3d_flags>  (1) 
0

>  <num_sample>  (1) 
100

>  <b_lp_Chiralities_Consistent>  (1) 
1

>  <r_epik_Charging_Adjusted_Penalty>  (1) 
0

>  <r_epik_Ionization_Penalty>  (1) 
4.3050601408714213e-11

>  <r_epik_Ionization_Penalty_Charging>  (1) 
0

>  <r_epik_Ionization_Penalty_Neutral>  (1) 
4.3050601408714213e-11

>  <r_epik_State_Penalty>  (1) 
-0

>  <r_glide_ring_energy>  (1) 
0

>  <r_i_docking_score>  (1) 
-6.1227688747801574

>  <r_i_glide_ecoul>  (1) 
0.26085280669080502

>  <r_i_glide_eff_state_penalty>  (1) 
-0

>  <r_i_glide_einternal>  (1) 
11.033605300279133

>  <r_i_glide_emodel>  (1) 
-44.848875418176782

>  <r_i_glide_emodel_strain>  (1) 
0.26403495652004239

>  <r_i_glide_energy>  (1) 
-38.138403698248055

>  <r_i_glide_erotb>  (1) 
1.3958139752623098

>  <r_i_glide_esite>  (1) 
0

>  <r_i_glide_evdw>  (1) 
-38.399256504938862

>  <r_i_glide_gscore>  (1) 
-6.1227688747801574

>  <r_i_glide_gscore_strain>  (1) 
0

>  <r_i_glide_hbond>  (1) 
0

>  <r_i_glide_ligand_efficiency>  (1) 
-0.24491075499120629

>  <r_i_glide_ligand_efficiency_ln>  (1) 
-1.4512797078997779

>  <r_i_glide_ligand_efficiency_sa>  (1) 
-0.71612339187339247

>  <r_i_glide_lipo>  (1) 
-4.0393897427384857

>  <r_i_glide_metal>  (1) 
-0

>  <r_i_glide_rewards>  (1) 
-1.5983582030606591

>  <r_lp_Energy>  (1) 
-0.19809599999999999

>  <r_lp_tautomer_probability>  (1) 
1

>  <s_epik_cmdline>  (1) 
J2VwaWtfcHl0aG9uJywgJy1waHQnLCAnMS4wJywgJy1waCcsICc3LjQnLCAnLXRuJywgJzgnLCAnLW1hJywgJzUwMCcsICctaW1hZScsICc8aW5maWxlLm1hZT4nLCAnLW9tYWUnLCAnPG91dGZpbGUubWFlPic=

>  <s_epik_input>  (1) 
W0NIMl0xW0NIMl1bQ0gyXU9bQ0BIXTFbQ0gyXS9DKD1bQ0hdXFtDSDNdKVtDSDJdW0NIMl1bQ0gyXVtDSDJdW0NIMl1bQ0gyXVtDSDJdW0NAXTIoW0NIMl1bQ0gzXSlbQ0gyXVtDSDJdW0NASF0oTzIpW0NIMl1bQ0gzXQ==

>  <s_glide_docking_method>  (1) 
confgen

>  <s_i_glide_gridfile>  (1) 
gpcr_5ht2c_6bqh_protein_autoprepared_prepared

>  <s_lp_Force_Field>  (1) 
S-OPLS

>  <s_lp_Variant>  (1) 
DiffSBDD_81-2

>  <s_m_source_file>  (1) 
generated_GPCR_5HT2C_ligand_DiffSBDD_2026-06-23_prepared.sdf

>  <GenAI_Model>  (1) 
DiffSBDD

>  <Protein>  (1) 
GPCR_5HT2C

$$$$
DiffSBDD_25
     RDKit          3D

  0  0  0  0  0  0  0  0  0  0999 V3000
M  V30 BEGIN CTAB
M  V30 COUNTS 68 71 0 0 1
M  V30 BEGIN ATOM
M  V30 1 C 39.125049 26.492409 57.716843 0
M  V30 2 C 41.027701 31.508970 63.637186 0
M  V30 3 O 38.845125 26.968131 58.833519 0 CHG=-1
M  V30 4 C 35.796505 32.631799 60.471177 0
M  V30 5 N 37.245667 30.342086 58.051066 0
M  V30 6 C 41.174994 32.919272 64.229022 0
M  V30 7 C 38.799618 26.675978 55.149696 0
M  V30 8 C 38.087936 28.595454 54.068492 0
M  V30 9 C 41.403869 35.614208 61.333601 0
M  V30 10 C 41.707671 33.953516 63.217181 0
M  V30 11 C 40.686505 34.581323 62.230954 0 CFG=2
M  V30 12 C 37.645193 30.814512 55.193749 0
M  V30 13 O 40.290184 36.211399 63.890462 0
M  V30 14 O 39.356525 29.469084 58.577427 0
M  V30 15 N 37.977711 32.136232 61.284602 0
M  V30 16 C 38.405440 28.710982 56.487417 0
M  V30 17 O 39.645185 25.361093 57.584881 0
M  V30 18 C 38.637459 36.082791 62.289545 0
M  V30 19 C 38.787265 27.309605 56.438084 0
M  V30 20 C 40.043010 33.466976 61.370260 0
M  V30 21 C 39.106204 32.495131 62.136414 0 CFG=2
M  V30 22 C 38.415957 29.510764 57.788781 0
M  V30 23 C 38.238643 31.189361 60.217989 0
M  V30 24 N 38.466387 27.310167 54.009615 0
M  V30 25 C 38.065429 36.848056 63.462843 0
M  V30 26 C 36.765408 32.770290 61.367712 0
M  V30 27 N 39.145039 25.337754 55.016919 0
M  V30 28 N 39.645140 35.291823 62.982867 0
M  V30 29 C 39.789926 31.254705 62.758175 0
M  V30 30 C 37.124404 31.115424 59.180398 0
M  V30 31 C 39.142707 37.088438 65.813707 0
M  V30 32 N 35.978675 31.828334 59.367759 0 CHG=1
M  V30 33 C 39.311680 37.158851 64.288686 0 CFG=1
M  V30 34 C 38.043772 29.343753 55.255596 0
M  V30 35 H 41.013169 30.784004 64.452473 0
M  V30 36 H 41.926301 31.269629 63.067730 0
M  V30 37 H 34.843160 33.138410 60.521929 0
M  V30 38 H 36.460527 30.399287 57.407879 0
M  V30 39 H 40.255458 33.248568 64.706590 0
M  V30 40 H 41.907080 32.853631 65.034261 0
M  V30 41 H 37.827251 29.055639 53.126527 0
M  V30 42 H 42.253014 35.196461 60.804164 0
M  V30 43 H 40.747361 36.014754 60.567736 0
M  V30 44 H 41.768738 36.460702 61.914303 0
M  V30 45 H 42.225861 34.740261 63.767482 0
M  V30 46 H 42.478398 33.457030 62.633273 0
M  V30 47 H 37.836403 31.206630 54.194128 0
M  V30 48 H 36.577290 30.921717 55.367758 0
M  V30 49 H 38.207333 31.452364 55.875396 0
M  V30 50 H 39.070313 36.785461 61.579537 0
M  V30 51 H 37.897765 35.468494 61.776776 0
M  V30 52 H 40.818962 32.893135 60.864358 0
M  V30 53 H 39.479168 33.952518 60.571603 0
M  V30 54 H 38.665654 33.031953 62.967775 0
M  V30 55 H 38.365421 30.202652 60.664998 0
M  V30 56 H 39.167763 31.494837 59.737070 0
M  V30 57 H 37.367394 36.230621 64.022046 0
M  V30 58 H 37.521454 37.737748 63.150597 0
M  V30 59 H 36.662186 33.413458 62.219437 0
M  V30 60 H 39.444181 24.799518 55.828944 0
M  V30 61 H 39.172873 24.880758 54.120689 0
M  V30 62 H 39.045500 30.721553 63.352118 0
M  V30 63 H 40.097490 30.552051 61.984407 0
M  V30 64 H 38.348686 37.737757 66.168908 0
M  V30 65 H 38.907717 36.084899 66.157574 0
M  V30 66 H 40.063384 37.392673 66.311078 0
M  V30 67 H 39.685848 38.137746 64.002856 0
M  V30 68 H 35.302001 31.737198 58.610255 0
M  V30 END ATOM
M  V30 BEGIN BOND
M  V30 1 1 3 1
M  V30 2 1 6 2
M  V30 3 1 10 6
M  V30 4 1 11 9 CFG=3
M  V30 5 1 11 10
M  V30 6 2 17 1
M  V30 7 1 19 1
M  V30 8 2 19 7
M  V30 9 1 19 16
M  V30 10 1 20 11
M  V30 11 1 21 15
M  V30 12 1 21 20
M  V30 13 1 22 5
M  V30 14 2 22 14
M  V30 15 1 22 16
M  V30 16 1 23 15
M  V30 17 1 24 7
M  V30 18 2 24 8
M  V30 19 1 25 18
M  V30 20 2 26 4
M  V30 21 1 26 15
M  V30 22 1 27 7
M  V30 23 1 28 11
M  V30 24 1 28 13
M  V30 25 1 28 18
M  V30 26 1 29 2
M  V30 27 1 29 21
M  V30 28 1 30 5
M  V30 29 1 30 23
M  V30 30 1 32 4
M  V30 31 2 32 30
M  V30 32 1 33 13
M  V30 33 1 33 25
M  V30 34 1 33 31
M  V30 35 1 34 8
M  V30 36 1 34 12
M  V30 37 2 34 16
M  V30 38 1 35 2
M  V30 39 1 36 2
M  V30 40 1 37 4
M  V30 41 1 38 5
M  V30 42 1 39 6
M  V30 43 1 40 6
M  V30 44 1 41 8
M  V30 45 1 42 9
M  V30 46 1 43 9
M  V30 47 1 44 9
M  V30 48 1 45 10
M  V30 49 1 46 10
M  V30 50 1 47 12
M  V30 51 1 48 12
M  V30 52 1 49 12
M  V30 53 1 50 18
M  V30 54 1 51 18
M  V30 55 1 52 20
M  V30 56 1 53 20
M  V30 57 1 21 54 CFG=1
M  V30 58 1 55 23
M  V30 59 1 56 23
M  V30 60 1 57 25
M  V30 61 1 58 25
M  V30 62 1 59 26
M  V30 63 1 60 27
M  V30 64 1 61 27
M  V30 65 1 62 29
M  V30 66 1 63 29
M  V30 67 1 64 31
M  V30 68 1 65 31
M  V30 69 1 66 31
M  V30 70 1 33 67 CFG=1
M  V30 71 1 68 32
M  V30 END BOND
M  V30 END CTAB
M  END
>  <i_epik_Tot_Q>  (1) 
0

>  <i_epik_Tot_abs_Q>  (1) 
2

>  <i_i_glide_confnum>  (1) 
102

>  <i_i_glide_lignum>  (1) 
66

>  <i_i_glide_posenum>  (1) 
372

>  <i_i_glide_rotatable_bonds>  (1) 
6

>  <i_lp_mmshare_version>  (1) 
72125

>  <i_m_source_file_index>  (1) 
26

>  <i_f3d_flags>  (1) 
0

>  <num_sample>  (1) 
100

>  <b_lp_Chiralities_Consistent>  (1) 
1

>  <r_epik_Charging_Adjusted_Penalty>  (1) 
2.0881109960433539

>  <r_epik_Ionization_Penalty>  (1) 
0.85183889184377526

>  <r_epik_Ionization_Penalty_Charging>  (1) 
0.8304268618792634

>  <r_epik_Ionization_Penalty_Neutral>  (1) 
0.02141202996451182

>  <r_epik_State_Penalty>  (1) 
1.2576841341640903

>  <r_glide_ring_energy>  (1) 
0.21033026237364291

>  <r_i_docking_score>  (1) 
-6.1189937679185089

>  <r_i_glide_ecoul>  (1) 
-6.6918165040987923

>  <r_i_glide_eff_state_penalty>  (1) 
1.2576841341640903

>  <r_i_glide_einternal>  (1) 
2.1120285009714053

>  <r_i_glide_emodel>  (1) 
-71.395569854723547

>  <r_i_glide_emodel_strain>  (1) 
0.81351829580556512

>  <r_i_glide_energy>  (1) 
-46.964324260411658

>  <r_i_glide_erotb>  (1) 
0.45623875647966866

>  <r_i_glide_esite>  (1) 
-0.32010102006444524

>  <r_i_glide_evdw>  (1) 
-40.272507756312869

>  <r_i_glide_gscore>  (1) 
-7.3766779020825997

>  <r_i_glide_gscore_strain>  (1) 
0

>  <r_i_glide_hbond>  (1) 
-0.28496389546640294

>  <r_i_glide_ligand_efficiency>  (1) 
-0.17997040493877967

>  <r_i_glide_ligand_efficiency_ln>  (1) 
-1.3518573552948268

>  <r_i_glide_ligand_efficiency_sa>  (1) 
-0.58303424772035817

>  <r_i_glide_lipo>  (1) 
-2.9218232175119119

>  <r_i_glide_metal>  (1) 
-0

>  <r_i_glide_rewards>  (1) 
-1.2886306620890462

>  <r_lp_Energy>  (1) 
64.660426999999999

>  <s_epik_Chemistry_Notes>  (1) 
This compound has an imine and may undergo hydrolysis. This compound has a N-S or N-O group and may undergo hydrolysis at high or low pH.

>  <s_epik_cmdline>  (1) 
J2VwaWtfcHl0aG9uJywgJy1waHQnLCAnMS4wJywgJy1waCcsICc3LjQnLCAnLXRuJywgJzgnLCAnLW1hJywgJzUwMCcsICctaW1hZScsICc8aW5maWxlLm1hZT4nLCAnLW9tYWUnLCAnPG91dGZpbGUubWFlPic=

>  <s_epik_input>  (1) 
W09IXUMoPU8pYyhjMVtOSDJdKWMoYyhbY0hdbjEpW0NIM10pQyg9TylbTkhdQyg9TltDSF09W0NIXTIpW0NIMl1OMltDQEhdKFtDSDJdMylbQ0gyXVtDSDJdW0NIMl1bQ0gyXVtDQF0zKFtDSDNdKU40T1tDQEBIXShbQ0gzXSlbQ0gyXVtDSDJdNA==

>  <s_glide_docking_method>  (1) 
confgen

>  <s_i_glide_gridfile>  (1) 
gpcr_5ht2c_6bqh_protein_autoprepared_prepared

>  <s_lp_Force_Field>  (1) 
S-OPLS

>  <s_lp_Variant>  (1) 
DiffSBDD_25-6

>  <s_m_source_file>  (1) 
generated_GPCR_5HT2C_ligand_DiffSBDD_2026-06-23_prepared.sdf

>  <GenAI_Model>  (1) 
DiffSBDD

>  <Protein>  (1) 
GPCR_5HT2C

$$$$
DiffSBDD_26
     RDKit          3D

  0  0  0  0  0  0  0  0  0  0999 V3000
M  V30 BEGIN CTAB
M  V30 COUNTS 63 67 0 0 1
M  V30 BEGIN ATOM
M  V30 1 C 36.580796 30.971301 58.945305 0 CFG=1
M  V30 2 C 38.823867 27.482458 57.229796 0
M  V30 3 O 39.644998 26.137765 58.967763 0
M  V30 4 C 40.263103 29.642624 51.171517 0
M  V30 5 N 37.911004 32.763606 61.182570 0
M  V30 6 C 38.513132 28.669067 57.882611 0
M  V30 7 C 38.239127 28.293789 55.077148 0
M  V30 8 C 37.936894 29.572425 55.650305 0
M  V30 9 C 37.420643 33.233160 59.896623 0 CFG=1
M  V30 10 C 39.354127 26.274464 57.825848 0
M  V30 11 O 42.044960 33.311152 62.588265 0
M  V30 12 O 36.999587 30.141107 60.008824 0
M  V30 13 C 39.958492 31.404006 62.685006 0
M  V30 14 C 39.652886 32.918949 62.669707 0 CFG=1
M  V30 15 C 40.692365 35.306627 62.897599 0
M  V30 16 C 38.845124 31.834622 58.305281 0
M  V30 17 N 38.765074 31.197117 54.019060 0
M  V30 18 C 38.942329 29.038468 52.825164 0
M  V30 19 C 40.839094 33.788233 63.139595 0 CFG=2
M  V30 20 C 39.245141 30.354886 52.991062 0
M  V30 21 C 38.034214 29.750383 57.097879 0
M  V30 22 O 39.043016 25.363508 54.567752 0
M  V30 23 C 38.485482 33.247019 58.774067 0
M  V30 24 C 37.569082 30.719769 54.730914 0
M  V30 25 C 38.676819 27.291013 55.948593 0
M  V30 26 C 36.201078 32.364930 59.529855 0
M  V30 27 C 40.083812 30.760298 51.941747 0
M  V30 28 N 39.467688 25.370860 56.820611 0
M  V30 29 O 40.747596 35.621775 61.519816 0
M  V30 30 C 37.645494 31.083786 57.790247 0 CFG=1
M  V30 31 C 39.073224 25.902908 55.639787 0
M  V30 32 O 39.574257 28.566247 51.699536 0
M  V30 33 C 38.107883 28.065330 53.572915 0
M  V30 34 O 39.185649 33.379675 61.410609 0
M  V30 35 H 35.675277 30.500296 58.567771 0
M  V30 36 H 40.813036 29.435877 50.264326 0
M  V30 37 H 37.308063 33.108533 61.913453 0
M  V30 38 H 38.639761 28.762407 58.949443 0
M  V30 39 H 37.088568 34.260393 60.055052 0
M  V30 40 H 42.753769 33.829848 62.934654 0
M  V30 41 H 36.258792 29.990533 60.571589 0
M  V30 42 H 40.348600 31.100243 63.656854 0
M  V30 43 H 39.071537 30.800476 62.493661 0
M  V30 44 H 40.700909 31.138005 61.933315 0
M  V30 45 H 38.845393 33.091107 63.367896 0
M  V30 46 H 41.477468 35.864562 63.409849 0
M  V30 47 H 39.741292 35.659262 63.296889 0
M  V30 48 H 39.584220 31.899862 57.504716 0
M  V30 49 H 39.245120 31.264123 59.138629 0
M  V30 50 H 38.907368 32.194012 53.943560 0
M  V30 51 H 40.929510 33.638988 64.214822 0
M  V30 52 H 38.085803 33.802682 57.923378 0
M  V30 53 H 39.390513 33.775659 59.069637 0
M  V30 54 H 36.844365 30.339619 54.020480 0
M  V30 55 H 37.057879 31.561859 55.178285 0
M  V30 56 H 35.529226 32.252887 60.381917 0
M  V30 57 H 35.625105 32.937579 58.803961 0
M  V30 58 H 40.498860 31.737710 51.760226 0
M  V30 59 H 39.809909 24.431381 56.935686 0
M  V30 60 H 40.184219 35.004823 61.069382 0
M  V30 61 H 37.245239 31.778088 57.075777 0
M  V30 62 H 38.343296 27.070933 53.220007 0
M  V30 63 H 37.059019 28.201306 53.304453 0
M  V30 END ATOM
M  V30 BEGIN BOND
M  V30 1 2 6 2
M  V30 2 1 8 7
M  V30 3 1 9 5
M  V30 4 1 10 2
M  V30 5 2 10 3
M  V30 6 1 12 1
M  V30 7 1 14 13
M  V30 8 1 19 11
M  V30 9 1 19 14
M  V30 10 1 19 15
M  V30 11 1 20 17
M  V30 12 2 20 18
M  V30 13 1 21 6
M  V30 14 2 21 8
M  V30 15 1 23 9
M  V30 16 1 23 16
M  V30 17 1 24 8
M  V30 18 1 24 17
M  V30 19 1 25 2
M  V30 20 2 25 7
M  V30 21 1 26 1
M  V30 22 1 26 9
M  V30 23 2 27 4
M  V30 24 1 27 20
M  V30 25 1 28 10
M  V30 26 1 29 15
M  V30 27 1 30 1
M  V30 28 1 30 16
M  V30 29 1 30 21
M  V30 30 2 31 22
M  V30 31 1 31 25
M  V30 32 1 31 28
M  V30 33 1 32 4
M  V30 34 1 32 18
M  V30 35 1 33 7
M  V30 36 1 33 18
M  V30 37 1 34 5
M  V30 38 1 34 14
M  V30 39 1 1 35 CFG=3
M  V30 40 1 36 4
M  V30 41 1 37 5
M  V30 42 1 38 6
M  V30 43 1 9 39 CFG=1
M  V30 44 1 40 11
M  V30 45 1 41 12
M  V30 46 1 42 13
M  V30 47 1 43 13
M  V30 48 1 44 13
M  V30 49 1 14 45 CFG=1
M  V30 50 1 46 15
M  V30 51 1 47 15
M  V30 52 1 48 16
M  V30 53 1 49 16
M  V30 54 1 50 17
M  V30 55 1 19 51 CFG=1
M  V30 56 1 52 23
M  V30 57 1 53 23
M  V30 58 1 54 24
M  V30 59 1 55 24
M  V30 60 1 56 26
M  V30 61 1 57 26
M  V30 62 1 58 27
M  V30 63 1 59 28
M  V30 64 1 60 29
M  V30 65 1 30 61 CFG=3
M  V30 66 1 62 33
M  V30 67 1 63 33
M  V30 END BOND
M  V30 END CTAB
M  END
>  <i_epik_Tot_Q>  (1) 
0

>  <i_epik_Tot_abs_Q>  (1) 
0

>  <i_i_glide_confnum>  (1) 
118

>  <i_i_glide_lignum>  (1) 
67

>  <i_i_glide_posenum>  (1) 
225

>  <i_i_glide_rotatable_bonds>  (1) 
9

>  <i_lp_mmshare_version>  (1) 
72125

>  <i_m_source_file_index>  (1) 
27

>  <i_f3d_flags>  (1) 
0

>  <num_sample>  (1) 
100

>  <b_lp_Chiralities_Consistent>  (1) 
1

>  <r_epik_Charging_Adjusted_Penalty>  (1) 
0.011663948100313749

>  <r_epik_Ionization_Penalty>  (1) 
0.013971723249614831

>  <r_epik_Ionization_Penalty_Charging>  (1) 
0

>  <r_epik_Ionization_Penalty_Neutral>  (1) 
0.013971723249614831

>  <r_epik_State_Penalty>  (1) 
0.011663948100313749

>  <r_glide_ring_energy>  (1) 
1.4878355022131675

>  <r_i_docking_score>  (1) 
-6.1157395253790021

>  <r_i_glide_ecoul>  (1) 
-2.8227676936777035

>  <r_i_glide_eff_state_penalty>  (1) 
0.011663948100313749

>  <r_i_glide_einternal>  (1) 
16.441305001012886

>  <r_i_glide_emodel>  (1) 
-44.269079590203233

>  <r_i_glide_emodel_strain>  (1) 
0.15115405764640855

>  <r_i_glide_energy>  (1) 
-40.820972283247272

>  <r_i_glide_erotb>  (1) 
0.54550006929946782

>  <r_i_glide_esite>  (1) 
0

>  <r_i_glide_evdw>  (1) 
-37.998204589569568

>  <r_i_glide_gscore>  (1) 
-6.1274034734793155

>  <r_i_glide_gscore_strain>  (1) 
0

>  <r_i_glide_hbond>  (1) 
0

>  <r_i_glide_ligand_efficiency>  (1) 
-0.17987469192291183

>  <r_i_glide_ligand_efficiency_ln>  (1) 
-1.3511384018394383

>  <r_i_glide_ligand_efficiency_sa>  (1) 
-0.58272417470461679

>  <r_i_glide_lipo>  (1) 
-2.7020128885377144

>  <r_i_glide_metal>  (1) 
-0

>  <r_i_glide_rewards>  (1) 
-1.6475652707109352

>  <r_lp_Energy>  (1) 
55.099730999999998

>  <r_lp_tautomer_probability>  (1) 
0.99894395353395549

>  <s_epik_Chemistry_Notes>  (1) 
This compound has a N-S or N-O group and may undergo hydrolysis at high or low pH.

>  <s_epik_cmdline>  (1) 
J2VwaWtfcHl0aG9uJywgJy1waHQnLCAnMS4wJywgJy1waCcsICc3LjQnLCAnLXRuJywgJzgnLCAnLW1hJywgJzUwMCcsICctaW1hZScsICc8aW5maWxlLm1hZT4nLCAnLW9tYWUnLCAnPG91dGZpbGUubWFlPic=

>  <s_epik_input>  (1) 
W09IXVtDSDJdW0NASF0oW09IXSlbQ0BIXShbQ0gzXSlPW05IXVtDQEhdKFtDSDJdW0NAQEhdMVtPSF0pW0NIMl1bQ0gyXVtDQEhdMWMoW2NIXTIpYyhjM2MoYzI0KUMoPU8pW05IXUM0PU8pW0NIMl1bTkhdYzVjKFtDSDJdMylvW2NIXVtjSF01

>  <s_glide_docking_method>  (1) 
confgen

>  <s_i_glide_gridfile>  (1) 
gpcr_5ht2c_6bqh_protein_autoprepared_prepared

>  <s_lp_Force_Field>  (1) 
S-OPLS

>  <s_lp_Variant>  (1) 
DiffSBDD_26-1

>  <s_m_source_file>  (1) 
generated_GPCR_5HT2C_ligand_DiffSBDD_2026-06-23_prepared.sdf

>  <GenAI_Model>  (1) 
DiffSBDD

>  <Protein>  (1) 
GPCR_5HT2C

$$$$
DiffSBDD_60
     RDKit          3D

  0  0  0  0  0  0  0  0  0  0999 V3000
M  V30 BEGIN CTAB
M  V30 COUNTS 34 34 0 0 1
M  V30 BEGIN ATOM
M  V30 1 C 39.771065 29.778308 50.995641 0 CFG=2
M  V30 2 C 39.564731 26.221610 58.155559 0
M  V30 3 C 39.589276 30.139111 52.464084 0
M  V30 4 C 39.597101 28.239327 56.001799 0 CFG=2
M  V30 5 S 37.645096 24.669743 56.952371 0
M  V30 6 C 40.069794 28.578917 57.422609 0
M  V30 7 C 39.258948 29.261512 53.426770 0
M  V30 8 C 38.980894 25.890863 56.768513 0 CFG=1
M  V30 9 S 39.063320 29.731172 55.116267 0
M  V30 10 O 39.643351 28.389497 50.763053 0
M  V30 11 C 38.493207 27.170805 56.059053 0
M  V30 12 C 41.121857 30.252893 50.456477 0
M  V30 13 C 40.622512 27.329553 58.110636 0
M  V30 14 C 37.285183 24.250300 55.225211 0
M  V30 15 H 38.982565 30.279447 50.438635 0
M  V30 16 H 40.030478 25.334831 58.567982 0
M  V30 17 H 38.765391 26.506951 58.841219 0
M  V30 18 H 39.741170 31.177335 52.723642 0
M  V30 19 H 40.445130 27.836673 55.448023 0
M  V30 20 H 40.845135 29.337726 57.402214 0
M  V30 21 H 39.245110 28.994804 58.003809 0
M  V30 22 H 39.101079 28.217888 53.200067 0
M  V30 23 H 39.767288 25.433197 56.165847 0
M  V30 24 H 39.245476 28.262920 49.914578 0
M  V30 25 H 37.637147 27.577427 56.592722 0
M  V30 26 H 38.155609 26.940594 55.049793 0
M  V30 27 H 41.240290 31.326139 50.600133 0
M  V30 28 H 41.942813 29.751393 50.967658 0
M  V30 29 H 41.217142 30.057389 49.388300 0
M  V30 30 H 41.504232 26.974489 57.574610 0
M  V30 31 H 40.951244 27.575579 59.120798 0
M  V30 32 H 36.579396 23.420516 55.182430 0
M  V30 33 H 36.845232 25.097105 54.700818 0
M  V30 34 H 38.195083 23.959144 54.703726 0
M  V30 END ATOM
M  V30 BEGIN BOND
M  V30 1 1 3 1
M  V30 2 1 6 4
M  V30 3 2 7 3
M  V30 4 1 8 2
M  V30 5 1 8 5
M  V30 6 1 9 4
M  V30 7 1 9 7
M  V30 8 1 10 1
M  V30 9 1 11 4
M  V30 10 1 11 8
M  V30 11 1 12 1
M  V30 12 1 13 2
M  V30 13 1 13 6
M  V30 14 1 14 5
M  V30 15 1 1 15 CFG=3
M  V30 16 1 16 2
M  V30 17 1 17 2
M  V30 18 1 18 3
M  V30 19 1 4 19 CFG=3
M  V30 20 1 20 6
M  V30 21 1 21 6
M  V30 22 1 22 7
M  V30 23 1 8 23 CFG=3
M  V30 24 1 24 10
M  V30 25 1 25 11
M  V30 26 1 26 11
M  V30 27 1 27 12
M  V30 28 1 28 12
M  V30 29 1 29 12
M  V30 30 1 30 13
M  V30 31 1 31 13
M  V30 32 1 32 14
M  V30 33 1 33 14
M  V30 34 1 34 14
M  V30 END BOND
M  V30 END CTAB
M  END
>  <i_epik_Tot_Q>  (1) 
0

>  <i_epik_Tot_abs_Q>  (1) 
0

>  <i_i_glide_confnum>  (1) 
8

>  <i_i_glide_lignum>  (1) 
132

>  <i_i_glide_posenum>  (1) 
157

>  <i_i_glide_rotatable_bonds>  (1) 
5

>  <i_lp_mmshare_version>  (1) 
72125

>  <i_m_source_file_index>  (1) 
61

>  <i_f3d_flags>  (1) 
0

>  <num_sample>  (1) 
100

>  <b_lp_Chiralities_Consistent>  (1) 
1

>  <r_epik_Charging_Adjusted_Penalty>  (1) 
0

>  <r_epik_Ionization_Penalty>  (1) 
3.7959940703639166e-07

>  <r_epik_Ionization_Penalty_Charging>  (1) 
0

>  <r_epik_Ionization_Penalty_Neutral>  (1) 
3.7959940703639166e-07

>  <r_epik_State_Penalty>  (1) 
-0

>  <r_glide_ring_energy>  (1) 
0

>  <r_i_docking_score>  (1) 
-6.1124692602608093

>  <r_i_glide_ecoul>  (1) 
-1.2805709027069199

>  <r_i_glide_eff_state_penalty>  (1) 
-0

>  <r_i_glide_einternal>  (1) 
4.159640250267028

>  <r_i_glide_emodel>  (1) 
-37.535951479011054

>  <r_i_glide_emodel_strain>  (1) 
0.70978111473469774

>  <r_i_glide_energy>  (1) 
-29.537941366253339

>  <r_i_glide_erotb>  (1) 
0.95139353164667573

>  <r_i_glide_esite>  (1) 
0

>  <r_i_glide_evdw>  (1) 
-28.257370463546419

>  <r_i_glide_gscore>  (1) 
-6.1124692602608093

>  <r_i_glide_gscore_strain>  (1) 
0

>  <r_i_glide_hbond>  (1) 
0

>  <r_i_glide_ligand_efficiency>  (1) 
-0.4366049471614864

>  <r_i_glide_ligand_efficiency_ln>  (1) 
-1.6796847937834092

>  <r_i_glide_ligand_efficiency_sa>  (1) 
-1.0522800359018916

>  <r_i_glide_lipo>  (1) 
-3.2625550190618875

>  <r_i_glide_metal>  (1) 
-0

>  <r_i_glide_rewards>  (1) 
-2.1963536142622386

>  <r_lp_Energy>  (1) 
4.4605119999999996

>  <r_lp_tautomer_probability>  (1) 
1

>  <s_epik_cmdline>  (1) 
J2VwaWtfcHl0aG9uJywgJy1waHQnLCAnMS4wJywgJy1waCcsICc3LjQnLCAnLXRuJywgJzgnLCAnLW1hJywgJzUwMCcsICctaW1hZScsICc8aW5maWxlLm1hZT4nLCAnLW9tYWUnLCAnPG91dGZpbGUubWFlPic=

>  <s_epik_input>  (1) 
W09IXVtDQEhdKFtDSDNdKS9bQ0hdPVtDSF0vU1tDQEhdMVtDSDJdW0NIMl1bQ0gyXVtDQEhdKFtDSDJdMSlTW0NIM10=

>  <s_glide_docking_method>  (1) 
confgen

>  <s_i_glide_gridfile>  (1) 
gpcr_5ht2c_6bqh_protein_autoprepared_prepared

>  <s_lp_Force_Field>  (1) 
S-OPLS

>  <s_lp_Variant>  (1) 
DiffSBDD_60-1

>  <s_m_source_file>  (1) 
generated_GPCR_5HT2C_ligand_DiffSBDD_2026-06-23_prepared.sdf

>  <GenAI_Model>  (1) 
DiffSBDD

>  <Protein>  (1) 
GPCR_5HT2C

$$$$
DiffSBDD_57
     RDKit          3D

  0  0  0  0  0  0  0  0  0  0999 V3000
M  V30 BEGIN CTAB
M  V30 COUNTS 64 66 0 0 1
M  V30 BEGIN ATOM
M  V30 1 O 39.643522 34.759147 60.476267 0
M  V30 2 C 39.322169 31.525710 61.962113 0
M  V30 3 C 39.351086 36.630948 62.675440 0
M  V30 4 C 38.508229 32.242285 59.677406 0 CFG=2
M  V30 5 C 38.404265 27.271881 57.667066 0
M  V30 6 S 37.645913 30.937758 61.767754 0
M  V30 7 O 37.245266 27.613282 57.506037 0
M  V30 8 C 39.765745 31.914016 60.564805 0
M  V30 9 N 37.362614 29.604935 55.283328 0
M  V30 10 C 37.166068 37.888591 62.298205 0 CFG=2
M  V30 11 N 39.216094 27.790383 58.623401 0
M  V30 12 C 38.418038 34.716205 60.550936 0
M  V30 13 O 37.294129 38.976611 61.367745 0
M  V30 14 C 37.677956 33.493504 60.068612 0
M  V30 15 C 37.874582 29.798841 59.161512 0
M  V30 16 C 38.366114 27.599942 54.449862 0 CFG=2
M  V30 17 O 35.100265 38.937740 62.167764 0
M  V30 18 C 38.905237 28.941723 59.406933 0
M  V30 19 C 38.645099 29.033452 54.887910 0 CFG=1
M  V30 20 C 37.574549 31.058607 59.972406 0 CFG=2
M  V30 21 C 38.845150 32.414330 58.188291 0
M  V30 22 C 38.511725 26.320711 55.294659 0 CFG=2
M  V30 23 C 38.042155 36.736632 61.970833 0
M  V30 24 C 39.011235 26.210617 56.748664 0 CFG=2
M  V30 25 C 39.512771 26.659767 54.214754 0
M  V30 26 N 36.052469 38.175071 61.418562 0
M  V30 27 N 40.045127 37.763138 62.967785 0
M  V30 28 C 39.242086 29.871101 53.739141 0
M  V30 29 O 40.146125 30.801968 54.287305 0
M  V30 30 O 37.645139 30.911044 55.832195 0
M  V30 31 C 39.861742 35.441067 63.053723 0
M  V30 32 C 37.601144 35.821018 61.051994 0
M  V30 33 Cl 38.596932 24.592381 57.367760 0
M  V30 34 H 39.955263 30.748889 62.390420 0
M  V30 35 H 39.318241 32.373683 62.643088 0
M  V30 36 H 40.268858 31.041573 60.167771 0
M  V30 37 H 40.558531 32.653739 60.578734 0
M  V30 38 H 37.077293 29.096794 56.115904 0
M  V30 39 H 37.078269 38.137310 63.353612 0
M  V30 40 H 40.130282 27.383778 58.757897 0
M  V30 41 H 36.985518 33.266707 60.877760 0
M  V30 42 H 37.030409 33.786818 59.241748 0
M  V30 43 H 37.210240 29.631035 58.338164 0
M  V30 44 H 37.589273 27.552183 53.686641 0
M  V30 45 H 34.709727 38.279569 62.723150 0
M  V30 46 H 39.595114 29.084792 60.221128 0
M  V30 47 H 39.334654 29.008322 55.732316 0
M  V30 48 H 36.543141 31.304286 59.710960 0
M  V30 49 H 39.251159 31.506833 57.749195 0
M  V30 50 H 37.951091 32.673651 57.620420 0
M  V30 51 H 39.564979 33.218186 58.032093 0
M  V30 52 H 37.784550 25.551198 55.041926 0
M  V30 53 H 40.099188 26.290019 56.764866 0
M  V30 54 H 40.498792 26.937778 54.567967 0
M  V30 55 H 39.490430 26.137749 53.264474 0
M  V30 56 H 39.667548 38.675848 62.774118 0
M  V30 57 H 39.780834 29.256742 53.020244 0
M  V30 58 H 38.467887 30.395073 53.183537 0
M  V30 59 H 39.665135 31.295273 54.938830 0
M  V30 60 H 36.767838 31.288504 55.957716 0
M  V30 61 H 40.812868 35.385785 63.561705 0
M  V30 62 H 39.343026 34.519113 62.872258 0
M  V30 63 H 36.604915 35.909617 60.641521 0
M  V30 64 H 40.877641 37.741388 63.554946 0
M  V30 END ATOM
M  V30 BEGIN BOND
M  V30 1 1 6 2
M  V30 2 2 7 5
M  V30 3 1 8 2
M  V30 4 1 8 4
M  V30 5 1 11 5
M  V30 6 2 12 1
M  V30 7 1 13 10
M  V30 8 1 4 14 CFG=1
M  V30 9 1 14 12
M  V30 10 1 18 11
M  V30 11 2 18 15
M  V30 12 1 19 9
M  V30 13 1 19 16
M  V30 14 1 20 4
M  V30 15 1 20 6
M  V30 16 1 20 15
M  V30 17 1 21 4
M  V30 18 1 22 16
M  V30 19 1 23 3
M  V30 20 1 23 10
M  V30 21 1 24 5
M  V30 22 1 24 22
M  V30 23 1 25 16
M  V30 24 1 25 22
M  V30 25 1 26 10
M  V30 26 1 26 13
M  V30 27 1 26 17
M  V30 28 1 27 3
M  V30 29 1 28 19
M  V30 30 1 29 28
M  V30 31 1 30 9
M  V30 32 2 31 3
M  V30 33 1 32 12
M  V30 34 2 32 23
M  V30 35 1 33 24
M  V30 36 1 34 2
M  V30 37 1 35 2
M  V30 38 1 36 8
M  V30 39 1 37 8
M  V30 40 1 38 9
M  V30 41 1 10 39 CFG=1
M  V30 42 1 40 11
M  V30 43 1 41 14
M  V30 44 1 42 14
M  V30 45 1 43 15
M  V30 46 1 16 44 CFG=3
M  V30 47 1 45 17
M  V30 48 1 46 18
M  V30 49 1 19 47 CFG=1
M  V30 50 1 20 48 CFG=1
M  V30 51 1 49 21
M  V30 52 1 50 21
M  V30 53 1 51 21
M  V30 54 1 22 52 CFG=3
M  V30 55 1 24 53 CFG=3
M  V30 56 1 54 25
M  V30 57 1 55 25
M  V30 58 1 56 27
M  V30 59 1 57 28
M  V30 60 1 58 28
M  V30 61 1 59 29
M  V30 62 1 60 30
M  V30 63 1 61 31
M  V30 64 1 62 31
M  V30 65 1 63 32
M  V30 66 1 64 27
M  V30 END BOND
M  V30 END CTAB
M  END
>  <i_epik_Tot_Q>  (1) 
0

>  <i_epik_Tot_abs_Q>  (1) 
0

>  <i_i_glide_confnum>  (1) 
1124

>  <i_i_glide_lignum>  (1) 
128

>  <i_i_glide_posenum>  (1) 
4

>  <i_i_glide_rotatable_bonds>  (1) 
16

>  <i_lp_mmshare_version>  (1) 
72125

>  <i_m_source_file_index>  (1) 
58

>  <i_f3d_flags>  (1) 
0

>  <num_sample>  (1) 
100

>  <b_lp_Chiralities_Consistent>  (1) 
1

>  <r_epik_Charging_Adjusted_Penalty>  (1) 
0.024416195549470061

>  <r_epik_Ionization_Penalty>  (1) 
0.014246986074461085

>  <r_epik_Ionization_Penalty_Charging>  (1) 
6.6592516266621022e-05

>  <r_epik_Ionization_Penalty_Neutral>  (1) 
0.014180393558194464

>  <r_epik_State_Penalty>  (1) 
0.024349603033203441

>  <r_glide_ring_energy>  (1) 
0.20502008593199658

>  <r_i_docking_score>  (1) 
-6.1105905914719498

>  <r_i_glide_ecoul>  (1) 
-8.0382854196919507

>  <r_i_glide_eff_state_penalty>  (1) 
0.024349603033203441

>  <r_i_glide_einternal>  (1) 
33.483561275256683

>  <r_i_glide_emodel>  (1) 
-26.788288459149758

>  <r_i_glide_emodel_strain>  (1) 
5.2004679361689625

>  <r_i_glide_energy>  (1) 
-33.543171362385671

>  <r_i_glide_erotb>  (1) 
1.0500022235395752

>  <r_i_glide_esite>  (1) 
-0.12997951259071697

>  <r_i_glide_evdw>  (1) 
-25.504885942693722

>  <r_i_glide_gscore>  (1) 
-6.1349401945051536

>  <r_i_glide_gscore_strain>  (1) 
0.30011698404224063

>  <r_i_glide_hbond>  (1) 
-0.45599999999999996

>  <r_i_glide_ligand_efficiency>  (1) 
-0.18516941186278635

>  <r_i_glide_ligand_efficiency_ln>  (1) 
-1.3589637085985589

>  <r_i_glide_ligand_efficiency_sa>  (1) 
-0.59393724541502368

>  <r_i_glide_lipo>  (1) 
-3.0937540874319605

>  <r_i_glide_metal>  (1) 
-0

>  <r_i_glide_rewards>  (1) 
-1.3243386919758129

>  <r_lp_Energy>  (1) 
18.870881999999998

>  <s_epik_Chemistry_Notes>  (1) 
This compound has an imine and may undergo hydrolysis. This compound contains an acetal/aminal-like group ( X-CH(R)-Y where X, Y are N, S, or O) that may be acid/base labile, releasing an aldehyde. This compound has a N-S or N-O group and may undergo hydrolysis at high or low pH.

>  <s_epik_cmdline>  (1) 
J2VwaWtfcHl0aG9uJywgJy1waHQnLCAnMS4wJywgJy1waCcsICc3LjQnLCAnLXRuJywgJzgnLCAnLW1hJywgJzUwMCcsICctaW1hZScsICc8aW5maWxlLm1hZT4nLCAnLW9tYWUnLCAnPG91dGZpbGUubWFlPic=

>  <s_epik_input>  (1) 
W09IXU4xT1tDQEBIXTFDKC9DKD1OL1tIXSlbQ0gzXSk9W0NIXS9DKD1PKVtDSDJdW0NAQF0yKFtDSDNdKVtDSDJdW0NIMl1TW0NAQEhdMi9bQ0hdPVtDSF0vW05IXUMoPU8pW0NAQEhdKENsKVtDQEhdKFtDSDJdMylbQ0BIXTNbQ0BIXShbTkhdW09IXSlbQ0gyXVtPSF0=

>  <s_glide_docking_method>  (1) 
confgen

>  <s_i_glide_gridfile>  (1) 
gpcr_5ht2c_6bqh_protein_autoprepared_prepared

>  <s_lp_Force_Field>  (1) 
S-OPLS

>  <s_lp_Variant>  (1) 
DiffSBDD_57-4

>  <s_m_source_file>  (1) 
generated_GPCR_5HT2C_ligand_DiffSBDD_2026-06-23_prepared.sdf

>  <GenAI_Model>  (1) 
DiffSBDD

>  <Protein>  (1) 
GPCR_5HT2C

$$$$
DiffSBDD_4
     RDKit          3D

  0  0  0  0  0  0  0  0  0  0999 V3000
M  V30 BEGIN CTAB
M  V30 COUNTS 72 75 0 0 1
M  V30 BEGIN ATOM
M  V30 1 C 36.914258 35.467924 61.427927 0
M  V30 2 C 38.918489 27.455760 52.615262 0
M  V30 3 C 40.164744 28.158405 57.044910 0
M  V30 4 N 38.202453 34.902294 61.054306 0
M  V30 5 C 37.331885 32.932259 59.854841 0
M  V30 6 O 41.511485 27.737946 58.966572 0
M  V30 7 C 38.445048 39.128598 60.967754 0
M  V30 8 C 40.843708 36.347215 63.529625 0
M  V30 9 C 40.478827 28.248237 58.539532 0
M  V30 10 O 39.399056 36.937805 61.367767 0
M  V30 11 C 38.208638 37.708763 61.502025 0 CFG=2
M  V30 12 C 40.369968 34.030013 63.415622 0
M  V30 13 C 38.593763 30.736944 56.504026 0
M  V30 14 O 36.305198 30.775081 60.167957 0
M  V30 15 O 39.482704 39.737702 61.228311 0
M  V30 16 C 39.796199 28.928557 60.817705 0
M  V30 17 C 38.949781 29.206247 54.504924 0 CFG=1
M  V30 18 C 39.367693 35.564703 61.632534 0 CFG=1
M  V30 19 C 38.199318 33.442029 61.027335 0
M  V30 20 C 39.725133 35.392013 63.119144 0 CFG=2
M  V30 21 O 38.397677 30.881529 59.217209 0
M  V30 22 N 39.587532 28.887138 59.357874 0
M  V30 23 C 38.353923 30.540805 54.998428 0
M  V30 24 N 41.480010 35.736709 64.708342 0 CHG=1
M  V30 25 C 38.368211 29.532445 58.823749 0 CFG=2
M  V30 26 C 41.235721 34.281100 64.659123 0
M  V30 27 C 37.278609 31.413903 59.767464 0
M  V30 28 C 38.092883 29.495380 57.284171 0 CFG=2
M  V30 29 O 38.428394 28.139160 55.302423 0
M  V30 30 C 38.650566 28.915542 53.017875 0 CFG=1
M  V30 31 S 36.845131 37.034987 60.567906 0
M  V30 32 C 40.529610 30.189548 61.292182 0
M  V30 33 C 38.676380 28.218167 56.709271 0 CFG=1
M  V30 34 O 39.482986 29.734344 52.217641 0
M  V30 35 H 36.064389 34.868261 61.111032 0
M  V30 36 H 36.825024 35.623922 62.502527 0
M  V30 37 H 38.239983 26.780206 53.136321 0
M  V30 38 H 38.759418 27.306784 51.546785 0
M  V30 39 H 39.936542 27.146815 52.851683 0
M  V30 40 H 40.569772 27.216908 56.671202 0
M  V30 41 H 40.747955 28.937794 56.564267 0
M  V30 42 H 37.716896 33.317125 58.910022 0
M  V30 43 H 36.301013 33.273259 59.926368 0
M  V30 44 H 37.645114 39.543524 60.356000 0
M  V30 45 H 41.596476 36.442958 62.745063 0
M  V30 46 H 40.445142 37.337780 63.747419 0
M  V30 47 H 37.927213 37.737673 62.554834 0
M  V30 48 H 39.645170 33.230666 63.567595 0
M  V30 49 H 41.014211 33.727338 62.588673 0
M  V30 50 H 38.060084 31.634847 56.821482 0
M  V30 51 H 39.649153 30.921015 56.697852 0
M  V30 52 H 38.845143 28.857985 61.337964 0
M  V30 53 H 40.348709 28.045781 61.145491 0
M  V30 54 H 40.032451 29.241644 54.609089 0
M  V30 55 H 40.222833 35.209873 61.055176 0
M  V30 56 H 37.841847 33.048032 61.979838 0
M  V30 57 H 39.221618 33.091003 60.888759 0
M  V30 58 H 38.856785 35.626433 63.731101 0
M  V30 59 H 38.784046 31.375287 54.444064 0
M  V30 60 H 37.280364 30.560176 54.801425 0
M  V30 61 H 41.051214 36.122898 65.537483 0
M  V30 62 H 37.573806 28.961310 59.308420 0
M  V30 63 H 40.716213 33.979974 65.569770 0
M  V30 64 H 42.174173 33.726926 64.611873 0
M  V30 65 H 37.007637 29.469478 57.163489 0
M  V30 66 H 37.609263 29.147033 52.797206 0
M  V30 67 H 41.049719 30.006814 62.233195 0
M  V30 68 H 41.245146 30.532767 60.551779 0
M  V30 69 H 39.828448 31.003352 61.465448 0
M  V30 70 H 38.175978 27.362754 57.165401 0
M  V30 71 H 40.386616 29.543086 52.414371 0
M  V30 72 H 42.465317 35.961976 64.719523 0
M  V30 END ATOM
M  V30 BEGIN BOND
M  V30 1 1 4 1
M  V30 2 1 9 3
M  V30 3 2 9 6
M  V30 4 1 11 7
M  V30 5 1 11 10
M  V30 6 2 15 7
M  V30 7 1 18 4
M  V30 8 1 18 10
M  V30 9 1 19 4
M  V30 10 1 19 5
M  V30 11 1 20 8
M  V30 12 1 20 12
M  V30 13 1 20 18
M  V30 14 1 22 9
M  V30 15 1 22 16
M  V30 16 1 23 13
M  V30 17 1 23 17
M  V30 18 1 24 8
M  V30 19 1 25 21
M  V30 20 1 25 22
M  V30 21 1 26 12
M  V30 22 1 26 24
M  V30 23 1 27 5
M  V30 24 2 27 14
M  V30 25 1 27 21
M  V30 26 1 28 13
M  V30 27 1 28 25
M  V30 28 1 29 17
M  V30 29 1 30 2
M  V30 30 1 30 17
M  V30 31 1 31 1
M  V30 32 1 31 11
M  V30 33 1 32 16
M  V30 34 1 33 3
M  V30 35 1 33 28
M  V30 36 1 33 29
M  V30 37 1 34 30
M  V30 38 1 35 1
M  V30 39 1 36 1
M  V30 40 1 37 2
M  V30 41 1 38 2
M  V30 42 1 39 2
M  V30 43 1 40 3
M  V30 44 1 41 3
M  V30 45 1 42 5
M  V30 46 1 43 5
M  V30 47 1 44 7
M  V30 48 1 45 8
M  V30 49 1 46 8
M  V30 50 1 11 47 CFG=1
M  V30 51 1 48 12
M  V30 52 1 49 12
M  V30 53 1 50 13
M  V30 54 1 51 13
M  V30 55 1 52 16
M  V30 56 1 53 16
M  V30 57 1 17 54 CFG=3
M  V30 58 1 18 55 CFG=3
M  V30 59 1 56 19
M  V30 60 1 57 19
M  V30 61 1 20 58 CFG=1
M  V30 62 1 59 23
M  V30 63 1 60 23
M  V30 64 1 61 24
M  V30 65 1 25 62 CFG=1
M  V30 66 1 63 26
M  V30 67 1 64 26
M  V30 68 1 28 65 CFG=1
M  V30 69 1 30 66 CFG=1
M  V30 70 1 67 32
M  V30 71 1 68 32
M  V30 72 1 69 32
M  V30 73 1 33 70 CFG=1
M  V30 74 1 71 34
M  V30 75 1 72 24
M  V30 END BOND
M  V30 END CTAB
M  END
>  <i_epik_Tot_Q>  (1) 
1

>  <i_epik_Tot_abs_Q>  (1) 
1

>  <i_i_glide_confnum>  (1) 
815

>  <i_i_glide_lignum>  (1) 
7

>  <i_i_glide_posenum>  (1) 
40

>  <i_i_glide_rotatable_bonds>  (1) 
10

>  <i_lp_mmshare_version>  (1) 
72125

>  <i_m_source_file_index>  (1) 
5

>  <i_f3d_flags>  (1) 
0

>  <num_sample>  (1) 
100

>  <b_lp_Chiralities_Consistent>  (1) 
1

>  <r_epik_Charging_Adjusted_Penalty>  (1) 
0.68239231030887826

>  <r_epik_Ionization_Penalty>  (1) 
0.68239482879591951

>  <r_epik_Ionization_Penalty_Charging>  (1) 
0.00029009099004162725

>  <r_epik_Ionization_Penalty_Neutral>  (1) 
0.68210473780587788

>  <r_epik_State_Penalty>  (1) 
0.68210221931883663

>  <r_glide_ring_energy>  (1) 
1.4061269072983527

>  <r_i_docking_score>  (1) 
-6.1068542473945104

>  <r_i_glide_ecoul>  (1) 
-4.9046405028501869

>  <r_i_glide_eff_state_penalty>  (1) 
0.68210221931883663

>  <r_i_glide_einternal>  (1) 
13.33260653088476

>  <r_i_glide_emodel>  (1) 
-53.887215511380312

>  <r_i_glide_emodel_strain>  (1) 
3.1545463147485293

>  <r_i_glide_energy>  (1) 
-42.266291175484184

>  <r_i_glide_erotb>  (1) 
0.570329169500843

>  <r_i_glide_esite>  (1) 
-0.0908731428318863

>  <r_i_glide_evdw>  (1) 
-37.361650672633999

>  <r_i_glide_gscore>  (1) 
-6.7889564667133468

>  <r_i_glide_gscore_strain>  (1) 
0

>  <r_i_glide_hbond>  (1) 
-0.32000000000000001

>  <r_i_glide_ligand_efficiency>  (1) 
-0.17961336021748561

>  <r_i_glide_ligand_efficiency_ln>  (1) 
-1.3491753947090583

>  <r_i_glide_ligand_efficiency_sa>  (1) 
-0.58187756142767011

>  <r_i_glide_lipo>  (1) 
-2.5065459859222816

>  <r_i_glide_metal>  (1) 
-0

>  <r_i_glide_rewards>  (1) 
-1.8380878984007938

>  <r_lp_Energy>  (1) 
42.884645999999996

>  <r_lp_tautomer_probability>  (1) 
0.99990000499974985

>  <s_epik_Chemistry_Notes>  (1) 
This compound has an ester and may undergo hydrolysis at high or low pH. This compound contains an acetal/aminal-like group ( X-CH(R)-Y where X, Y are N, S, or O) that may be acid/base labile, releasing an aldehyde.

>  <s_epik_cmdline>  (1) 
J2VwaWtfcHl0aG9uJywgJy1waHQnLCAnMS4wJywgJy1waCcsICc3LjQnLCAnLXRuJywgJzgnLCAnLW1hJywgJzUwMCcsICctaW1hZScsICc8aW5maWxlLm1hZT4nLCAnLW9tYWUnLCAnPG91dGZpbGUubWFlPic=

>  <s_epik_input>  (1) 
W0NIMl0xW0NIMl1bTkhdW0NIMl1bQ0BIXTFbQ0BASF0yT1tDQEBIXShbQ0hdPU8pU1tDSDJdTjJbQ0gyXVtDSDJdQyg9TylPW0NAQEhdM04oW0NIMl1bQ0gzXSlDKD1PKVtDSDJdW0NAQEhdKFtDQEBIXTM0KU9bQ0BIXShbQ0gyXVtDSDJdNClbQ0BIXShbQ0gzXSlbT0hd

>  <s_glide_docking_method>  (1) 
confgen

>  <s_i_glide_gridfile>  (1) 
gpcr_5ht2c_6bqh_protein_autoprepared_prepared

>  <s_lp_Force_Field>  (1) 
S-OPLS

>  <s_lp_Variant>  (1) 
DiffSBDD_4-2

>  <s_m_source_file>  (1) 
generated_GPCR_5HT2C_ligand_DiffSBDD_2026-06-23_prepared.sdf

>  <GenAI_Model>  (1) 
DiffSBDD

>  <Protein>  (1) 
GPCR_5HT2C

$$$$
DiffSBDD_25
     RDKit          3D

  0  0  0  0  0  0  0  0  0  0999 V3000
M  V30 BEGIN CTAB
M  V30 COUNTS 68 71 0 0 1
M  V30 BEGIN ATOM
M  V30 1 C 40.778893 34.488029 62.870580 0
M  V30 2 C 40.792407 27.457435 58.240707 0
M  V30 3 O 40.544724 35.665005 63.218074 0 CHG=-1
M  V30 4 C 36.538712 31.540401 59.769033 0
M  V30 5 N 39.264960 31.967803 62.144162 0
M  V30 6 C 40.644051 26.657151 56.957454 0
M  V30 7 C 41.937418 33.980351 65.126294 0
M  V30 8 C 42.465986 31.849534 65.856760 0
M  V30 9 C 37.718965 25.959637 56.389549 0
M  V30 10 C 39.830290 27.346263 55.859827 0
M  V30 11 C 38.280656 27.365949 56.034044 0 CFG=2
M  V30 12 C 41.875071 29.713091 64.635351 0
M  V30 13 O 38.300668 29.008652 54.336320 0
M  V30 14 O 40.979507 30.369895 62.039073 0
M  V30 15 N 38.138619 29.843842 59.223038 0
M  V30 16 C 41.246539 32.050802 63.753168 0
M  V30 17 O 40.623536 34.094353 61.697970 0
M  V30 18 C 37.834392 26.837547 53.593567 0
M  V30 19 C 41.307859 33.493228 63.931226 0
M  V30 20 C 37.766870 28.402323 57.111371 0
M  V30 21 C 38.718957 28.885123 58.249765 0 CFG=2
M  V30 22 C 40.536914 31.385739 62.570246 0
M  V30 23 C 38.997542 30.237089 60.325740 0
M  V30 24 N 42.477510 33.174978 66.059724 0
M  V30 25 C 38.707486 27.566267 52.594792 0
M  V30 26 C 36.943000 30.502150 59.030132 0
M  V30 27 N 42.045184 35.340821 65.371583 0
M  V30 28 N 37.676363 27.750524 54.733773 0
M  V30 29 C 39.455947 27.704804 58.933667 0
M  V30 30 C 38.520860 31.449038 61.113265 0
M  V30 31 C 39.494059 29.996739 52.495938 0
M  V30 32 N 37.331548 32.030752 60.798126 0 CHG=1
M  V30 33 C 38.409461 29.008007 52.926674 0 CFG=2
M  V30 34 C 41.869576 31.235839 64.745492 0
M  V30 35 H 41.302086 28.400107 58.036705 0
M  V30 36 H 41.468949 26.937750 58.910990 0
M  V30 37 H 35.607201 32.066677 59.613007 0
M  V30 38 H 38.881302 32.793383 62.579677 0
M  V30 39 H 41.645383 26.537778 56.567799 0
M  V30 40 H 40.277661 25.651711 57.162591 0
M  V30 41 H 42.934061 31.248794 66.623020 0
M  V30 42 H 37.884675 25.695908 57.430987 0
M  V30 43 H 36.641700 25.905278 56.226168 0
M  V30 44 H 38.180414 25.161970 55.808663 0
M  V30 45 H 40.217216 28.356165 55.718288 0
M  V30 46 H 40.085092 26.809975 54.947926 0
M  V30 47 H 42.253127 29.261979 65.552820 0
M  V30 48 H 40.871489 29.315531 64.476689 0
M  V30 49 H 42.526183 29.383145 63.825403 0
M  V30 50 H 38.241981 25.858637 53.834351 0
M  V30 51 H 36.844970 26.677055 53.168063 0
M  V30 52 H 36.877588 27.992433 57.592169 0
M  V30 53 H 37.428212 29.299776 56.593065 0
M  V30 54 H 39.469220 29.498186 57.748527 0
M  V30 55 H 39.991283 30.416227 59.916263 0
M  V30 56 H 39.023008 29.414023 61.038011 0
M  V30 57 H 38.465639 27.312484 51.562267 0
M  V30 58 H 39.758859 27.335082 52.760705 0
M  V30 59 H 36.349228 30.123773 58.214828 0
M  V30 60 H 41.640812 36.020915 64.728425 0
M  V30 61 H 42.467696 35.696837 66.213097 0
M  V30 62 H 39.711297 27.875650 59.972612 0
M  V30 63 H 38.839900 26.810227 58.974455 0
M  V30 64 H 39.626401 29.999647 51.413575 0
M  V30 65 H 39.245185 31.009576 52.812561 0
M  V30 66 H 40.445177 29.740670 52.952147 0
M  V30 67 H 37.447272 29.279253 52.502545 0
M  V30 68 H 37.091412 32.831465 61.364415 0
M  V30 END ATOM
M  V30 BEGIN BOND
M  V30 1 1 3 1
M  V30 2 1 6 2
M  V30 3 1 10 6
M  V30 4 1 11 9 CFG=1
M  V30 5 1 11 10
M  V30 6 2 17 1
M  V30 7 1 19 1
M  V30 8 2 19 7
M  V30 9 1 19 16
M  V30 10 1 20 11
M  V30 11 1 21 15
M  V30 12 1 21 20
M  V30 13 1 22 5
M  V30 14 2 22 14
M  V30 15 1 22 16
M  V30 16 1 23 15
M  V30 17 1 24 7
M  V30 18 2 24 8
M  V30 19 1 25 18
M  V30 20 2 26 4
M  V30 21 1 26 15
M  V30 22 1 27 7
M  V30 23 1 28 11
M  V30 24 1 28 13
M  V30 25 1 28 18
M  V30 26 1 29 2
M  V30 27 1 29 21
M  V30 28 1 30 5
M  V30 29 1 30 23
M  V30 30 1 32 4
M  V30 31 2 32 30
M  V30 32 1 33 13
M  V30 33 1 33 25
M  V30 34 1 33 31
M  V30 35 1 34 8
M  V30 36 1 34 12
M  V30 37 2 34 16
M  V30 38 1 35 2
M  V30 39 1 36 2
M  V30 40 1 37 4
M  V30 41 1 38 5
M  V30 42 1 39 6
M  V30 43 1 40 6
M  V30 44 1 41 8
M  V30 45 1 42 9
M  V30 46 1 43 9
M  V30 47 1 44 9
M  V30 48 1 45 10
M  V30 49 1 46 10
M  V30 50 1 47 12
M  V30 51 1 48 12
M  V30 52 1 49 12
M  V30 53 1 50 18
M  V30 54 1 51 18
M  V30 55 1 52 20
M  V30 56 1 53 20
M  V30 57 1 21 54 CFG=3
M  V30 58 1 55 23
M  V30 59 1 56 23
M  V30 60 1 57 25
M  V30 61 1 58 25
M  V30 62 1 59 26
M  V30 63 1 60 27
M  V30 64 1 61 27
M  V30 65 1 62 29
M  V30 66 1 63 29
M  V30 67 1 64 31
M  V30 68 1 65 31
M  V30 69 1 66 31
M  V30 70 1 33 67 CFG=3
M  V30 71 1 68 32
M  V30 END BOND
M  V30 END CTAB
M  END
>  <i_epik_Tot_Q>  (1) 
0

>  <i_epik_Tot_abs_Q>  (1) 
2

>  <i_i_glide_confnum>  (1) 
435

>  <i_i_glide_lignum>  (1) 
65

>  <i_i_glide_posenum>  (1) 
169

>  <i_i_glide_rotatable_bonds>  (1) 
6

>  <i_lp_mmshare_version>  (1) 
72125

>  <i_m_source_file_index>  (1) 
26

>  <i_f3d_flags>  (1) 
0

>  <num_sample>  (1) 
100

>  <b_lp_Chiralities_Consistent>  (1) 
1

>  <r_epik_Charging_Adjusted_Penalty>  (1) 
2.0881109960433539

>  <r_epik_Ionization_Penalty>  (1) 
0.85183889184377526

>  <r_epik_Ionization_Penalty_Charging>  (1) 
0.8304268618792634

>  <r_epik_Ionization_Penalty_Neutral>  (1) 
0.02141202996451182

>  <r_epik_State_Penalty>  (1) 
1.2576841341640903

>  <r_glide_ring_energy>  (1) 
0.67481548263305435

>  <r_i_docking_score>  (1) 
-6.1043182498270561

>  <r_i_glide_ecoul>  (1) 
-3.2698141611092839

>  <r_i_glide_eff_state_penalty>  (1) 
1.2576841341640903

>  <r_i_glide_einternal>  (1) 
19.640287688551581

>  <r_i_glide_emodel>  (1) 
-51.134455287615147

>  <r_i_glide_emodel_strain>  (1) 
0.86295904180005323

>  <r_i_glide_energy>  (1) 
-43.889807318024701

>  <r_i_glide_erotb>  (1) 
0.45623875647966866

>  <r_i_glide_esite>  (1) 
0

>  <r_i_glide_evdw>  (1) 
-40.61999315691542

>  <r_i_glide_gscore>  (1) 
-7.3620023839911459

>  <r_i_glide_gscore_strain>  (1) 
0

>  <r_i_glide_hbond>  (1) 
-0.33655041076088332

>  <r_i_glide_ligand_efficiency>  (1) 
-0.17953877205373694

>  <r_i_glide_ligand_efficiency_ln>  (1) 
-1.3486151217140854

>  <r_i_glide_ligand_efficiency_sa>  (1) 
-0.58163592473215431

>  <r_i_glide_lipo>  (1) 
-3.5200825512256486

>  <r_i_glide_metal>  (1) 
-0

>  <r_i_glide_rewards>  (1) 
-1.440136396472119

>  <r_lp_Energy>  (1) 
63.998362

>  <s_epik_Chemistry_Notes>  (1) 
This compound has an imine and may undergo hydrolysis. This compound has a N-S or N-O group and may undergo hydrolysis at high or low pH.

>  <s_epik_cmdline>  (1) 
J2VwaWtfcHl0aG9uJywgJy1waHQnLCAnMS4wJywgJy1waCcsICc3LjQnLCAnLXRuJywgJzgnLCAnLW1hJywgJzUwMCcsICctaW1hZScsICc8aW5maWxlLm1hZT4nLCAnLW9tYWUnLCAnPG91dGZpbGUubWFlPic=

>  <s_epik_input>  (1) 
W09IXUMoPU8pYyhjMVtOSDJdKWMoYyhbY0hdbjEpW0NIM10pQyg9TylbTkhdQyg9TltDSF09W0NIXTIpW0NIMl1OMltDQEhdKFtDSDJdMylbQ0gyXVtDSDJdW0NIMl1bQ0gyXVtDQF0zKFtDSDNdKU40T1tDQEBIXShbQ0gzXSlbQ0gyXVtDSDJdNA==

>  <s_glide_docking_method>  (1) 
confgen

>  <s_i_glide_gridfile>  (1) 
gpcr_5ht2c_6bqh_protein_autoprepared_prepared

>  <s_lp_Force_Field>  (1) 
S-OPLS

>  <s_lp_Variant>  (1) 
DiffSBDD_25-5

>  <s_m_source_file>  (1) 
generated_GPCR_5HT2C_ligand_DiffSBDD_2026-06-23_prepared.sdf

>  <GenAI_Model>  (1) 
DiffSBDD

>  <Protein>  (1) 
GPCR_5HT2C

$$$$
DiffSBDD_93
     RDKit          3D

  0  0  0  0  0  0  0  0  0  0999 V3000
M  V30 BEGIN CTAB
M  V30 COUNTS 83 84 0 0 1
M  V30 BEGIN ATOM
M  V30 1 C 38.672142 30.518234 62.013493 0
M  V30 2 O 39.643453 29.504557 62.167523 0
M  V30 3 C 40.671398 34.872929 64.521508 0
M  V30 4 C 38.921828 29.186430 52.073770 0
M  V30 5 O 37.680690 29.350064 59.687373 0
M  V30 6 C 38.811636 26.846999 54.325706 0
M  V30 7 N 37.604460 26.625652 53.809996 0
M  V30 8 O 39.781826 26.137904 54.067218 0
M  V30 9 O 35.946233 32.277487 60.480749 0
M  V30 10 C 39.762028 29.370746 50.828350 0
M  V30 11 C 40.157293 34.130809 63.293989 0
M  V30 12 C 38.256141 31.179478 58.231958 0
M  V30 13 C 39.343018 32.428147 60.583764 0
M  V30 14 C 38.574137 29.459614 54.653262 0 CFG=1
M  V30 15 C 38.945122 28.046927 55.279619 0 CFG=2
M  V30 16 C 39.304689 36.341106 63.076526 0 CFG=1
M  V30 17 C 39.156869 34.907717 61.105423 0 CFG=1
M  V30 18 C 40.499599 35.215246 60.480392 0
M  V30 19 C 37.926622 30.257624 57.043222 0
M  V30 20 S 36.717353 33.657045 61.106267 0 CHG=1
M  V30 21 O 38.045096 33.061117 55.937554 0
M  V30 22 N 38.705226 31.116837 60.678055 0
M  V30 23 O 36.044981 34.881979 60.144113 0
M  V30 24 O 39.242964 36.538687 65.590648 0
M  V30 25 F 36.891421 36.406351 62.941195 0
M  V30 26 C 39.625822 28.010069 51.454499 0
M  V30 27 C 37.901895 31.925941 55.116009 0
M  V30 28 C 38.584792 30.649338 55.687671 0 CFG=2
M  V30 29 C 38.195480 30.462811 59.599619 0
M  V30 30 C 40.280507 28.000898 56.100207 0
M  V30 31 C 37.907369 38.112821 61.759042 0
M  V30 32 C 38.445753 33.678154 60.495819 0 CFG=2
M  V30 33 O 40.707496 27.910313 58.438603 0
M  V30 34 C 39.378685 29.843584 53.369511 0
M  V30 35 C 37.983517 37.167127 62.977445 0 CFG=2
M  V30 36 C 40.143571 27.339290 57.479452 0
M  V30 37 C 40.015664 36.247121 64.443107 0 CFG=1
M  V30 38 O 39.480064 26.279903 57.543575 0 CHG=-1
M  V30 39 N 39.205737 34.984229 62.567717 0
M  V30 40 H 38.826422 31.258518 62.796886 0
M  V30 41 H 37.671598 30.137773 62.191073 0
M  V30 42 H 39.314813 28.868026 62.790777 0
M  V30 43 H 40.445067 34.344116 65.447787 0
M  V30 44 H 41.758537 34.964912 64.473887 0
M  V30 45 H 37.846274 29.202235 51.926636 0
M  V30 46 H 36.835679 27.230360 54.054730 0
M  V30 47 H 37.462495 25.854108 53.173951 0
M  V30 48 H 35.900839 32.371631 59.539610 0
M  V30 49 H 39.245904 29.537040 49.885640 0
M  V30 50 H 40.722660 29.873411 50.932993 0
M  V30 51 H 39.656981 33.212161 63.597815 0
M  V30 52 H 41.022680 33.827182 62.715298 0
M  V30 53 H 37.560197 32.014630 58.240765 0
M  V30 54 H 39.245133 31.581452 58.051651 0
M  V30 55 H 40.044644 32.514271 59.767759 0
M  V30 56 H 40.016955 32.485800 61.426592 0
M  V30 57 H 37.530820 29.380569 54.341363 0
M  V30 58 H 38.129388 27.809519 55.962648 0
M  V30 59 H 40.032134 36.876367 62.469325 0
M  V30 60 H 38.514299 35.707788 60.761134 0
M  V30 61 H 40.445091 34.937707 59.430221 0
M  V30 62 H 40.761654 36.264764 60.567776 0
M  V30 63 H 41.314628 34.681956 60.967493 0
M  V30 64 H 38.280327 29.287030 57.348806 0
M  V30 65 H 36.848882 30.137874 56.925503 0
M  V30 66 H 37.161356 33.405750 56.021005 0
M  V30 67 H 36.167660 34.638399 59.239096 0
M  V30 68 H 39.820723 36.612760 66.335343 0
M  V30 69 H 40.445131 27.616998 52.038275 0
M  V30 70 H 39.011894 27.269655 50.947055 0
M  V30 71 H 38.277040 32.258002 54.154526 0
M  V30 72 H 36.845037 31.731012 54.963863 0
M  V30 73 H 39.628108 30.897477 55.879613 0
M  V30 74 H 41.062906 27.444699 55.597502 0
M  V30 75 H 40.695549 28.992814 56.235200 0
M  V30 76 H 38.816807 38.704680 61.661961 0
M  V30 77 H 37.767789 37.587970 60.817577 0
M  V30 78 H 37.057837 38.793458 61.835657 0
M  V30 79 H 38.332036 33.866959 59.427670 0
M  V30 80 H 39.307213 30.898386 53.142374 0
M  V30 81 H 40.445032 29.737702 53.528725 0
M  V30 82 H 37.861436 37.737745 63.890334 0
M  V30 83 H 40.832636 36.937651 64.406465 0
M  V30 END ATOM
M  V30 BEGIN BOND
M  V30 1 1 2 1
M  V30 2 1 7 6
M  V30 3 2 8 6
M  V30 4 1 10 4
M  V30 5 1 11 3
M  V30 6 1 15 6
M  V30 7 1 15 14
M  V30 8 1 18 17
M  V30 9 1 19 12
M  V30 10 1 20 9
M  V30 11 1 22 1
M  V30 12 1 22 13
M  V30 13 1 23 20
M  V30 14 1 26 4
M  V30 15 1 26 10
M  V30 16 1 27 21
M  V30 17 1 28 14
M  V30 18 1 28 19
M  V30 19 1 28 27
M  V30 20 2 29 5
M  V30 21 1 29 12
M  V30 22 1 29 22
M  V30 23 1 30 15
M  V30 24 1 32 13
M  V30 25 1 32 17
M  V30 26 1 32 20
M  V30 27 1 34 4
M  V30 28 1 34 14
M  V30 29 1 35 16
M  V30 30 1 35 25
M  V30 31 1 35 31
M  V30 32 1 36 30
M  V30 33 2 36 33
M  V30 34 1 37 3
M  V30 35 1 37 16
M  V30 36 1 37 24
M  V30 37 1 38 36
M  V30 38 1 39 11
M  V30 39 1 39 16
M  V30 40 1 39 17
M  V30 41 1 40 1
M  V30 42 1 41 1
M  V30 43 1 42 2
M  V30 44 1 43 3
M  V30 45 1 44 3
M  V30 46 1 45 4
M  V30 47 1 46 7
M  V30 48 1 47 7
M  V30 49 1 48 9
M  V30 50 1 49 10
M  V30 51 1 50 10
M  V30 52 1 51 11
M  V30 53 1 52 11
M  V30 54 1 53 12
M  V30 55 1 54 12
M  V30 56 1 55 13
M  V30 57 1 56 13
M  V30 58 1 14 57 CFG=3
M  V30 59 1 15 58 CFG=1
M  V30 60 1 16 59 CFG=3
M  V30 61 1 17 60 CFG=3
M  V30 62 1 61 18
M  V30 63 1 62 18
M  V30 64 1 63 18
M  V30 65 1 64 19
M  V30 66 1 65 19
M  V30 67 1 66 21
M  V30 68 1 67 23
M  V30 69 1 68 24
M  V30 70 1 69 26
M  V30 71 1 70 26
M  V30 72 1 71 27
M  V30 73 1 72 27
M  V30 74 1 28 73 CFG=1
M  V30 75 1 74 30
M  V30 76 1 75 30
M  V30 77 1 76 31
M  V30 78 1 77 31
M  V30 79 1 78 31
M  V30 80 1 32 79 CFG=3
M  V30 81 1 80 34
M  V30 82 1 81 34
M  V30 83 1 35 82 CFG=1
M  V30 84 1 37 83 CFG=3
M  V30 END BOND
M  V30 END CTAB
M  END
>  <i_epik_Tot_Q>  (1) 
0

>  <i_epik_Tot_abs_Q>  (1) 
2

>  <i_i_glide_confnum>  (1) 
8827

>  <i_i_glide_lignum>  (1) 
213

>  <i_i_glide_posenum>  (1) 
55

>  <i_i_glide_rotatable_bonds>  (1) 
24

>  <i_lp_mmshare_version>  (1) 
72125

>  <i_m_source_file_index>  (1) 
94

>  <i_f3d_flags>  (1) 
0

>  <num_sample>  (1) 
100

>  <b_lp_Chiralities_Consistent>  (1) 
1

>  <r_epik_Charging_Adjusted_Penalty>  (1) 
0.37121505818338452

>  <r_epik_Ionization_Penalty>  (1) 
0.37121789513022985

>  <r_epik_Ionization_Penalty_Charging>  (1) 
0.00098257200063165957

>  <r_epik_Ionization_Penalty_Neutral>  (1) 
0.37023532312959817

>  <r_epik_State_Penalty>  (1) 
0.37023248618275284

>  <r_glide_ring_energy>  (1) 
0

>  <r_i_docking_score>  (1) 
-6.1042527489499001

>  <r_i_glide_ecoul>  (1) 
-6.9082342845211437

>  <r_i_glide_eff_state_penalty>  (1) 
0.37023248618275284

>  <r_i_glide_einternal>  (1) 
31.165496212499008

>  <r_i_glide_emodel>  (1) 
-43.778879854977014

>  <r_i_glide_emodel_strain>  (1) 
6.5805700835615966

>  <r_i_glide_energy>  (1) 
-43.034816806833106

>  <r_i_glide_erotb>  (1) 
0.82577533054746977

>  <r_i_glide_esite>  (1) 
0

>  <r_i_glide_evdw>  (1) 
-36.126582522311963

>  <r_i_glide_gscore>  (1) 
-6.4744852351326525

>  <r_i_glide_gscore_strain>  (1) 
0.64514252089039914

>  <r_i_glide_hbond>  (1) 
-0.45304953515839758

>  <r_i_glide_ligand_efficiency>  (1) 
-0.15651930125512564

>  <r_i_glide_ligand_efficiency_ln>  (1) 
-1.3089250688936218

>  <r_i_glide_ligand_efficiency_sa>  (1) 
-0.5307900454689638

>  <r_i_glide_lipo>  (1) 
-2.9580709370987268

>  <r_i_glide_metal>  (1) 
-0

>  <r_i_glide_rewards>  (1) 
-1.6917183455196265

>  <r_lp_Energy>  (1) 
14.863111

>  <s_epik_Chemistry_Notes>  (1) 
This compound contains an acetal/aminal-like group ( X-CH(R)-Y where X, Y are N, S, or O) that may be acid/base labile, releasing an aldehyde.

>  <s_epik_cmdline>  (1) 
J2VwaWtfcHl0aG9uJywgJy1waHQnLCAnMS4wJywgJy1waCcsICc3LjQnLCAnLXRuJywgJzgnLCAnLW1hJywgJzUwMCcsICctaW1hZScsICc8aW5maWxlLm1hZT4nLCAnLW9tYWUnLCAnPG91dGZpbGUubWFlPic=

>  <s_epik_input>  (1) 
W0NIMl0xW0NIMl1bQ0hdMVtDSDJdW0NAQEhdKFtDQEBIXShDKD1PKVtOSDJdKVtDSDJdQyg9TylbT0hdKVtDQEBIXShbQ0gyXVtPSF0pW0NIMl1bQ0gyXUMoPU8pTihbQ0gyXVtPSF0pW0NIMl1bQ0BASF0oW1MrXShbT0hdKVtPSF0pW0NASF0oW0NIM10pTjJbQ0gyXVtDSDJdW0NASF0oW09IXSlbQ0BASF0yW0NASF0oRilbQ0gzXQ==

>  <s_glide_docking_method>  (1) 
confgen

>  <s_i_glide_gridfile>  (1) 
gpcr_5ht2c_6bqh_protein_autoprepared_prepared

>  <s_lp_Force_Field>  (1) 
S-OPLS

>  <s_lp_Variant>  (1) 
DiffSBDD_93-1

>  <s_m_source_file>  (1) 
generated_GPCR_5HT2C_ligand_DiffSBDD_2026-06-23_prepared.sdf

>  <GenAI_Model>  (1) 
DiffSBDD

>  <Protein>  (1) 
GPCR_5HT2C

$$$$
DiffSBDD_75
     RDKit          3D

  0  0  0  0  0  0  0  0  0  0999 V3000
M  V30 BEGIN CTAB
M  V30 COUNTS 77 78 0 0 1
M  V30 BEGIN ATOM
M  V30 1 C 39.244989 33.410027 60.305826 0
M  V30 2 C 39.207527 30.446789 62.516574 0
M  V30 3 O 36.044879 29.737732 58.274628 0
M  V30 4 C 37.344525 35.918309 62.096230 0
M  V30 5 C 39.096173 27.632621 58.170724 0 CFG=2
M  V30 6 C 41.408118 35.341577 65.174529 0
M  V30 7 C 37.389921 29.503212 58.590589 0 CFG=2
M  V30 8 C 41.899164 34.177839 65.803541 0
M  V30 9 O 39.645218 25.442114 57.325045 0
M  V30 10 C 38.597935 29.288477 56.226253 0 CFG=1
M  V30 11 O 40.016825 34.262478 68.967582 0
M  V30 12 S 37.145651 31.608315 60.319002 0
M  V30 13 C 36.729664 37.327709 62.149623 0
M  V30 14 C 40.468869 34.613159 67.731256 0
M  V30 15 C 38.019396 30.857451 58.915319 0
M  V30 16 C 41.922604 35.737222 63.789434 0
M  V30 17 C 40.445091 36.137748 65.829716 0
M  V30 18 O 38.069409 27.506333 54.638149 0
M  V30 19 C 37.589010 30.220913 55.518569 0
M  V30 20 C 38.058174 28.596084 57.520561 0 CFG=1
M  V30 21 O 36.040331 37.490176 63.368664 0
M  V30 22 O 39.567094 31.391387 61.524859 0
M  V30 23 O 40.126497 33.845394 62.968063 0
M  V30 24 C 37.168332 35.383217 59.729970 0
M  V30 25 N 38.112517 35.703569 60.839181 0 CFG=2 CHG=1
M  V30 26 C 40.114574 34.836795 62.243247 0
M  V30 27 C 41.427758 33.814144 67.079770 0
M  V30 28 C 40.849366 36.090174 62.727279 0
M  V30 29 C 39.365502 34.849779 60.878146 0 CFG=1
M  V30 30 C 39.978281 35.774278 67.106406 0
M  V30 31 C 40.156650 27.256908 55.825105 0
M  V30 32 C 38.552388 32.329925 61.173375 0 CFG=1
M  V30 33 C 40.266957 28.318813 58.904695 0
M  V30 34 C 39.138185 28.240645 55.212280 0 CFG=2
M  V30 35 C 39.633769 26.655764 57.125807 0
M  V30 36 H 38.847849 33.426466 59.292794 0
M  V30 37 H 40.268009 33.066007 60.162422 0
M  V30 38 H 40.078772 29.849846 62.786261 0
M  V30 39 H 38.845138 30.937915 63.415732 0
M  V30 40 H 38.445136 29.761914 62.153086 0
M  V30 41 H 35.948335 30.486027 57.680829 0
M  V30 42 H 36.569428 35.153227 62.167801 0
M  V30 43 H 37.958982 35.838633 62.984781 0
M  V30 44 H 37.359158 28.937746 59.520857 0
M  V30 45 H 42.636687 33.564079 65.306785 0
M  V30 46 H 40.410522 26.461801 55.123626 0
M  V30 47 H 39.443470 29.912981 56.516295 0
M  V30 48 H 39.424870 34.899012 69.337808 0
M  V30 49 H 37.507938 38.088113 62.088712 0
M  V30 50 H 36.045420 37.520976 61.324552 0
M  V30 51 H 37.978086 31.554022 58.082177 0
M  V30 52 H 39.070064 30.730351 59.162075 0
M  V30 53 H 42.653998 36.537713 63.887262 0
M  V30 54 H 42.468631 34.879768 63.407464 0
M  V30 55 H 40.064601 37.029428 65.354997 0
M  V30 56 H 38.409123 26.955670 53.948602 0
M  V30 57 H 36.628633 29.737759 55.344179 0
M  V30 58 H 37.387200 31.125607 56.083411 0
M  V30 59 H 37.969186 30.546792 54.550411 0
M  V30 60 H 37.257730 27.929869 57.191542 0
M  V30 61 H 35.389680 36.807786 63.468795 0
M  V30 62 H 36.616931 34.467514 59.942344 0
M  V30 63 H 36.429965 36.173085 59.591697 0
M  V30 64 H 37.645130 35.250521 58.765005 0
M  V30 65 H 41.803732 32.923082 67.559400 0
M  V30 66 H 40.144773 36.829884 63.103928 0
M  V30 67 H 41.340800 36.537960 61.862949 0
M  V30 68 H 40.029367 35.358630 60.178768 0
M  V30 69 H 39.241878 36.387357 67.605507 0
M  V30 70 H 41.082749 27.783824 56.058383 0
M  V30 71 H 38.569062 27.021492 58.905068 0
M  V30 72 H 38.129438 32.775047 62.074212 0
M  V30 73 H 41.074545 27.617628 59.119806 0
M  V30 74 H 40.694580 29.133434 58.321255 0
M  V30 75 H 39.943744 28.724373 59.863429 0
M  V30 76 H 39.629846 28.775196 54.398917 0
M  V30 77 H 38.474555 36.621812 60.626436 0
M  V30 END ATOM
M  V30 BEGIN BOND
M  V30 1 1 7 3
M  V30 2 1 8 6
M  V30 3 1 13 4
M  V30 4 1 14 11
M  V30 5 1 15 7
M  V30 6 1 15 12
M  V30 7 1 16 6
M  V30 8 2 17 6
M  V30 9 1 19 10
M  V30 10 1 20 5
M  V30 11 1 20 7
M  V30 12 1 20 10
M  V30 13 1 21 13
M  V30 14 1 22 2
M  V30 15 1 25 4
M  V30 16 1 25 24
M  V30 17 2 26 23
M  V30 18 2 27 8
M  V30 19 1 27 14
M  V30 20 1 28 16
M  V30 21 1 28 26
M  V30 22 1 29 1
M  V30 23 1 29 25
M  V30 24 1 29 26
M  V30 25 2 30 14
M  V30 26 1 30 17
M  V30 27 1 32 1
M  V30 28 1 32 12
M  V30 29 1 32 22
M  V30 30 1 33 5
M  V30 31 1 34 10
M  V30 32 1 34 18
M  V30 33 1 34 31
M  V30 34 1 35 5
M  V30 35 2 35 9
M  V30 36 1 35 31
M  V30 37 1 36 1
M  V30 38 1 37 1
M  V30 39 1 38 2
M  V30 40 1 39 2
M  V30 41 1 40 2
M  V30 42 1 41 3
M  V30 43 1 42 4
M  V30 44 1 43 4
M  V30 45 1 7 44 CFG=1
M  V30 46 1 45 8
M  V30 47 1 46 31
M  V30 48 1 10 47 CFG=1
M  V30 49 1 48 11
M  V30 50 1 49 13
M  V30 51 1 50 13
M  V30 52 1 51 15
M  V30 53 1 52 15
M  V30 54 1 53 16
M  V30 55 1 54 16
M  V30 56 1 55 17
M  V30 57 1 56 18
M  V30 58 1 57 19
M  V30 59 1 58 19
M  V30 60 1 59 19
M  V30 61 1 20 60 CFG=3
M  V30 62 1 61 21
M  V30 63 1 62 24
M  V30 64 1 63 24
M  V30 65 1 64 24
M  V30 66 1 65 27
M  V30 67 1 66 28
M  V30 68 1 67 28
M  V30 69 1 29 68 CFG=3
M  V30 70 1 69 30
M  V30 71 1 70 31
M  V30 72 1 5 71 CFG=1
M  V30 73 1 32 72 CFG=1
M  V30 74 1 73 33
M  V30 75 1 74 33
M  V30 76 1 75 33
M  V30 77 1 34 76 CFG=3
M  V30 78 1 25 77 CFG=3
M  V30 END BOND
M  V30 END CTAB
M  END
>  <i_epik_Tot_Q>  (1) 
1

>  <i_epik_Tot_abs_Q>  (1) 
1

>  <i_i_glide_confnum>  (1) 
2021

>  <i_i_glide_lignum>  (1) 
169

>  <i_i_glide_posenum>  (1) 
147

>  <i_i_glide_rotatable_bonds>  (1) 
18

>  <i_lp_mmshare_version>  (1) 
72125

>  <i_m_source_file_index>  (1) 
76

>  <i_f3d_flags>  (1) 
0

>  <num_sample>  (1) 
100

>  <b_lp_Chiralities_Consistent>  (1) 
1

>  <r_epik_Charging_Adjusted_Penalty>  (1) 
0.52789471212939676

>  <r_epik_Ionization_Penalty>  (1) 
0.26592108790513191

>  <r_epik_Ionization_Penalty_Charging>  (1) 
0.26394735606469838

>  <r_epik_Ionization_Penalty_Neutral>  (1) 
0.0019737318404335234

>  <r_epik_State_Penalty>  (1) 
0.26394735606469838

>  <r_glide_ring_energy>  (1) 
0

>  <r_i_docking_score>  (1) 
-6.101011701991804

>  <r_i_glide_ecoul>  (1) 
-7.7730551645549886

>  <r_i_glide_eff_state_penalty>  (1) 
0.26394735606469838

>  <r_i_glide_einternal>  (1) 
15.348552069168486

>  <r_i_glide_emodel>  (1) 
-63.8443834782897

>  <r_i_glide_emodel_strain>  (1) 
5.0814176041943142

>  <r_i_glide_energy>  (1) 
-54.69131858685985

>  <r_i_glide_erotb>  (1) 
1.0139394581015995

>  <r_i_glide_esite>  (1) 
0

>  <r_i_glide_evdw>  (1) 
-46.918263422304861

>  <r_i_glide_gscore>  (1) 
-6.3649590580565025

>  <r_i_glide_gscore_strain>  (1) 
0.27035440104857855

>  <r_i_glide_hbond>  (1) 
-0.16

>  <r_i_glide_ligand_efficiency>  (1) 
-0.17431462005690868

>  <r_i_glide_ligand_efficiency_ln>  (1) 
-1.3393074732465167

>  <r_i_glide_ligand_efficiency_sa>  (1) 
-0.5701946810414783

>  <r_i_glide_lipo>  (1) 
-3.0302294687066791

>  <r_i_glide_metal>  (1) 
-0

>  <r_i_glide_rewards>  (1) 
-0.94715200270150868

>  <r_lp_Energy>  (1) 
26.361654999999999

>  <r_lp_tautomer_probability>  (1) 
0.99989998499911525

>  <s_epik_Chemistry_Notes>  (1) 
This compound contains an acetal/aminal-like group ( X-CH(R)-Y where X, Y are N, S, or O) that may be acid/base labile, releasing an aldehyde.

>  <s_epik_cmdline>  (1) 
J2VwaWtfcHl0aG9uJywgJy1waHQnLCAnMS4wJywgJy1waCcsICc3LjQnLCAnLXRuJywgJzgnLCAnLW1hJywgJzUwMCcsICctaW1hZScsICc8aW5maWxlLm1hZT4nLCAnLW9tYWUnLCAnPG91dGZpbGUubWFlPic=

>  <s_epik_input>  (1) 
W2NIXTFbY0hdYyhbT0hdKVtjSF1bY0hdYzFbQ0gyXVtDSDJdQyg9TylbQ0BIXShOKFtDSDNdKVtDSDJdW0NIMl1bT0hdKVtDSDJdW0NASF0oT1tDSDNdKVNbQ0gyXVtDQEBIXShbT0hdKVtDQEhdMltDQEBIXShbQ0gzXSlbQ0BIXShbT0hdKVtDSDJdQyhbT0hdKT1DMltDSDNd

>  <s_glide_docking_method>  (1) 
confgen

>  <s_i_glide_gridfile>  (1) 
gpcr_5ht2c_6bqh_protein_autoprepared_prepared

>  <s_lp_Force_Field>  (1) 
S-OPLS

>  <s_lp_Variant>  (1) 
DiffSBDD_75-6

>  <s_m_source_file>  (1) 
generated_GPCR_5HT2C_ligand_DiffSBDD_2026-06-23_prepared.sdf

>  <GenAI_Model>  (1) 
DiffSBDD

>  <Protein>  (1) 
GPCR_5HT2C

$$$$
DiffSBDD_86
     RDKit          3D

  0  0  0  0  0  0  0  0  0  0999 V3000
M  V30 BEGIN CTAB
M  V30 COUNTS 77 79 0 0 1
M  V30 BEGIN ATOM
M  V30 1 C 39.001531 26.443317 56.005836 0
M  V30 2 C 42.254875 35.385627 65.739519 0
M  V30 3 C 38.486729 30.359396 59.010125 0 CFG=2
M  V30 4 C 42.260379 34.081441 66.554236 0
M  V30 5 N 39.681779 29.713590 59.640242 0
M  V30 6 C 37.389229 37.117071 59.410108 0
M  V30 7 N 40.049937 27.228229 56.477880 0
M  V30 8 C 38.920285 34.180811 59.909331 0
M  V30 9 O 38.045027 32.663936 56.683386 0
M  V30 10 O 35.889979 33.541470 61.766344 0
M  V30 11 C 37.245828 35.462651 61.352649 0 CFG=2
M  V30 12 C 38.840521 32.656690 60.101609 0
M  V30 13 C 39.794961 29.589012 60.988947 0
M  V30 14 N 38.651073 34.994506 61.130595 0 CFG=1 CHG=1
M  V30 15 C 36.172536 34.425068 60.932314 0
M  V30 16 C 38.558555 26.276546 54.670998 0
M  V30 17 C 36.830916 24.712326 55.406452 0
M  V30 18 O 40.843553 29.103210 61.469181 0
M  V30 19 C 40.804431 29.337818 58.748668 0
M  V30 20 C 37.244982 24.868916 56.728823 0
M  V30 21 C 37.942210 29.622355 57.769771 0
M  V30 22 S 38.979904 26.136780 58.567659 0
M  V30 23 O 35.671438 34.537749 59.794541 0 CHG=-1
M  V30 24 C 39.326176 34.539459 62.368393 0
M  V30 25 C 38.719286 31.885156 58.775637 0 CFG=2
M  V30 26 C 36.157113 37.873702 61.623156 0
M  V30 27 O 37.649036 32.490917 58.081586 0
M  V30 28 N 41.294586 35.361572 64.621365 0 CHG=1
M  V30 29 C 41.184748 27.879458 58.571541 0
M  V30 30 C 38.301739 25.729822 57.023860 0
M  V30 31 O 39.184434 26.941624 53.652536 0 CHG=-1
M  V30 32 C 40.857463 34.614373 62.279443 0
M  V30 33 C 40.167406 27.149356 57.806711 0
M  V30 34 C 37.642442 38.005503 61.767793 0
M  V30 35 C 37.079303 36.917808 60.877045 0
M  V30 36 O 38.859752 29.980664 61.721402 0 CHG=-1
M  V30 37 C 37.472418 25.426961 54.383448 0
M  V30 38 C 41.523041 34.291029 63.622789 0
M  V30 39 H 43.237986 35.597969 65.321369 0
M  V30 40 H 42.000063 36.224065 66.389276 0
M  V30 41 H 37.644840 30.290385 59.700901 0
M  V30 42 H 42.965398 34.137785 67.382799 0
M  V30 43 H 41.276537 33.868947 66.975478 0
M  V30 44 H 42.565369 33.227337 65.949329 0
M  V30 45 H 37.245625 38.141470 59.110781 0
M  V30 46 H 38.445139 36.937806 59.283266 0
M  V30 47 H 36.801959 36.486761 58.745869 0
M  V30 48 H 39.914471 34.429878 59.542736 0
M  V30 49 H 38.236663 34.510072 59.131089 0
M  V30 50 H 37.359448 32.156844 56.262053 0
M  V30 51 H 37.084241 35.554495 62.424965 0
M  V30 52 H 37.985104 32.392068 60.718705 0
M  V30 53 H 39.719905 32.324713 60.649955 0
M  V30 54 H 36.006747 24.054751 55.171126 0
M  V30 55 H 40.634114 29.749964 57.766834 0
M  V30 56 H 41.704033 29.796174 59.137946 0
M  V30 57 H 36.746755 24.336366 57.522039 0
M  V30 58 H 36.999355 30.063290 57.442824 0
M  V30 59 H 38.618451 29.657572 56.917346 0
M  V30 60 H 37.719220 28.583039 57.995820 0
M  V30 61 H 39.032134 35.213103 63.171474 0
M  V30 62 H 38.986046 33.541931 62.651880 0
M  V30 63 H 39.589816 32.083166 58.157224 0
M  V30 64 H 35.625996 38.626123 61.044218 0
M  V30 65 H 35.647409 37.539945 62.525680 0
M  V30 66 H 41.378741 36.261923 64.164615 0
M  V30 67 H 42.133975 27.806068 58.039940 0
M  V30 68 H 41.331803 27.405631 59.536907 0
M  V30 69 H 41.220557 33.905939 61.534537 0
M  V30 70 H 41.171444 35.603571 61.940243 0
M  V30 71 H 38.083374 37.701392 62.715194 0
M  V30 72 H 38.114857 38.865385 61.296760 0
M  V30 73 H 37.136427 25.320607 53.368184 0
M  V30 74 H 41.155222 33.338494 64.007588 0
M  V30 75 H 42.591866 34.163174 63.465941 0
M  V30 76 H 40.360831 35.283058 64.997881 0
M  V30 77 H 39.102863 35.871492 60.922067 0
M  V30 END ATOM
M  V30 BEGIN BOND
M  V30 1 1 4 2
M  V30 2 1 5 3
M  V30 3 1 7 1
M  V30 4 1 12 8
M  V30 5 1 13 5
M  V30 6 1 14 8
M  V30 7 1 14 11
M  V30 8 2 15 10
M  V30 9 1 15 11
M  V30 10 2 16 1
M  V30 11 2 18 13
M  V30 12 1 19 5
M  V30 13 1 20 17
M  V30 14 1 21 3
M  V30 15 1 23 15
M  V30 16 1 24 14
M  V30 17 1 25 3
M  V30 18 1 25 12
M  V30 19 1 27 9
M  V30 20 1 27 25
M  V30 21 1 28 2
M  V30 22 1 29 19
M  V30 23 1 30 1
M  V30 24 2 30 20
M  V30 25 1 30 22
M  V30 26 1 31 16
M  V30 27 1 32 24
M  V30 28 2 33 7
M  V30 29 1 33 22
M  V30 30 1 33 29
M  V30 31 1 34 26
M  V30 32 1 35 6
M  V30 33 1 35 11
M  V30 34 1 35 26
M  V30 35 1 35 34
M  V30 36 1 36 13
M  V30 37 1 37 16
M  V30 38 2 37 17
M  V30 39 1 38 28
M  V30 40 1 38 32
M  V30 41 1 39 2
M  V30 42 1 40 2
M  V30 43 1 3 41 CFG=1
M  V30 44 1 42 4
M  V30 45 1 43 4
M  V30 46 1 44 4
M  V30 47 1 45 6
M  V30 48 1 46 6
M  V30 49 1 47 6
M  V30 50 1 48 8
M  V30 51 1 49 8
M  V30 52 1 50 9
M  V30 53 1 11 51 CFG=1
M  V30 54 1 52 12
M  V30 55 1 53 12
M  V30 56 1 54 17
M  V30 57 1 55 19
M  V30 58 1 56 19
M  V30 59 1 57 20
M  V30 60 1 58 21
M  V30 61 1 59 21
M  V30 62 1 60 21
M  V30 63 1 61 24
M  V30 64 1 62 24
M  V30 65 1 25 63 CFG=3
M  V30 66 1 64 26
M  V30 67 1 65 26
M  V30 68 1 66 28
M  V30 69 1 67 29
M  V30 70 1 68 29
M  V30 71 1 69 32
M  V30 72 1 70 32
M  V30 73 1 71 34
M  V30 74 1 72 34
M  V30 75 1 73 37
M  V30 76 1 74 38
M  V30 77 1 75 38
M  V30 78 1 76 28
M  V30 79 1 14 77 CFG=3
M  V30 END BOND
M  V30 END CTAB
M  END
>  <i_epik_Tot_Q>  (1) 
-1

>  <i_epik_Tot_abs_Q>  (1) 
5

>  <i_i_glide_confnum>  (1) 
8479

>  <i_i_glide_lignum>  (1) 
207

>  <i_i_glide_posenum>  (1) 
87

>  <i_i_glide_rotatable_bonds>  (1) 
19

>  <i_lp_mmshare_version>  (1) 
72125

>  <i_m_source_file_index>  (1) 
87

>  <i_f3d_flags>  (1) 
0

>  <num_sample>  (1) 
100

>  <b_lp_Chiralities_Consistent>  (1) 
1

>  <r_epik_Charging_Adjusted_Penalty>  (1) 
1.7068457012274814

>  <r_epik_Ionization_Penalty>  (1) 
0.85572285372979207

>  <r_epik_Ionization_Penalty_Charging>  (1) 
0.8536556191236474

>  <r_epik_Ionization_Penalty_Neutral>  (1) 
0.0020672346061446629

>  <r_epik_State_Penalty>  (1) 
0.85319008210383396

>  <r_glide_ring_energy>  (1) 
0

>  <r_i_docking_score>  (1) 
-6.0956341762065378

>  <r_i_glide_ecoul>  (1) 
-3.2639735348896424

>  <r_i_glide_eff_state_penalty>  (1) 
0.85319008210383396

>  <r_i_glide_einternal>  (1) 
13.557088654913574

>  <r_i_glide_emodel>  (1) 
-52.158406629575708

>  <r_i_glide_emodel_strain>  (1) 
1.4817825200967434

>  <r_i_glide_energy>  (1) 
-33.359206650100688

>  <r_i_glide_erotb>  (1) 
0.88358493265308913

>  <r_i_glide_esite>  (1) 
-0.20000000000000001

>  <r_i_glide_evdw>  (1) 
-30.095233115211045

>  <r_i_glide_gscore>  (1) 
-6.9488242583103714

>  <r_i_glide_gscore_strain>  (1) 
0

>  <r_i_glide_hbond>  (1) 
-0.21854874819995465

>  <r_i_glide_ligand_efficiency>  (1) 
-0.16041142568964573

>  <r_i_glide_ligand_efficiency_ln>  (1) 
-1.3143980437802101

>  <r_i_glide_ligand_efficiency_sa>  (1) 
-0.53929926813814855

>  <r_i_glide_lipo>  (1) 
-4.4177381630815473

>  <r_i_glide_metal>  (1) 
-0

>  <r_i_glide_rewards>  (1) 
-1.0017645936879598

>  <r_lp_Energy>  (1) 
30.418627999999998

>  <s_epik_cmdline>  (1) 
J2VwaWtfcHl0aG9uJywgJy1waHQnLCAnMS4wJywgJy1waCcsICc3LjQnLCAnLXRuJywgJzgnLCAnLW1hJywgJzUwMCcsICctaW1hZScsICc8aW5maWxlLm1hZT4nLCAnLW9tYWUnLCAnPG91dGZpbGUubWFlPic=

>  <s_epik_input>  (1) 
W09IXWMxW2NIXVtjSF1bY0hdYyhjMTIpc2MobjIpW0NIMl1bQ0gyXU4oQyg9TylbT0hdKVtDQEhdKFtDSDNdKVtDQEBIXShPW09IXSlbQ0gyXVtDSDJdTihbQ0BIXShDKD1PKVtPSF0pQzMoW0NIM10pW0NIMl1bQ0gyXTMpW0NIMl1bQ0gyXVtDSDJdW05IXVtDSDJdW0NIM10=

>  <s_glide_docking_method>  (1) 
confgen

>  <s_i_glide_gridfile>  (1) 
gpcr_5ht2c_6bqh_protein_autoprepared_prepared

>  <s_lp_Force_Field>  (1) 
S-OPLS

>  <s_lp_Variant>  (1) 
DiffSBDD_86-4

>  <s_m_source_file>  (1) 
generated_GPCR_5HT2C_ligand_DiffSBDD_2026-06-23_prepared.sdf

>  <GenAI_Model>  (1) 
DiffSBDD

>  <Protein>  (1) 
GPCR_5HT2C

$$$$
DiffSBDD_84
     RDKit          3D

  0  0  0  0  0  0  0  0  0  0999 V3000
M  V30 BEGIN CTAB
M  V30 COUNTS 77 81 0 0 1
M  V30 BEGIN ATOM
M  V30 1 C 42.878123 26.368551 65.103737 0
M  V30 2 C 39.257735 28.931305 57.290248 0
M  V30 3 C 39.883289 30.137549 60.277412 0
M  V30 4 C 43.166067 30.643451 68.012367 0
M  V30 5 S 41.480364 31.450507 65.274539 0
M  V30 6 C 39.948306 25.377987 55.467318 0
M  V30 7 C 38.651513 26.465701 57.108597 0
M  V30 8 C 38.932637 34.845968 61.419472 0
M  V30 9 O 43.478604 31.337182 69.202113 0
M  V30 10 C 37.701271 31.106811 59.636492 0
M  V30 11 C 37.966368 26.492596 58.416502 0
M  V30 12 C 38.680802 27.819004 56.366210 0 CFG=2
M  V30 13 C 39.283976 32.441401 61.084023 0
M  V30 14 N 42.845118 25.109981 64.336049 0 CHG=1
M  V30 15 C 43.765555 31.374235 66.784054 0
M  V30 16 C 42.125058 27.497970 64.376988 0
M  V30 17 N 39.170826 25.405047 56.663670 0
M  V30 18 C 39.672756 33.673181 61.664172 0
M  V30 19 N 40.860597 29.857539 63.211931 0
M  V30 20 N 38.747171 30.081600 59.532641 0
M  V30 21 C 40.437771 26.723994 54.967508 0
M  V30 22 C 38.136906 32.410452 60.261438 0
M  V30 23 N 43.102780 30.964957 65.538794 0
M  V30 24 C 45.303467 31.224630 66.643894 0
M  V30 25 C 38.465992 28.954233 58.623069 0 CFG=2
M  V30 26 O 40.809731 29.338627 60.132516 0
M  V30 27 C 37.396544 33.586615 60.019667 0
M  V30 28 O 45.997083 31.737699 67.759138 0
M  V30 29 C 39.305313 27.737625 54.963667 0
M  V30 30 C 40.978880 29.814277 64.674154 0 CFG=1
M  V30 31 C 38.567241 27.583415 59.314145 0
M  V30 32 N 39.809767 30.680972 62.717200 0
M  V30 33 N 43.334068 29.551127 65.208526 0 CHG=1
M  V30 34 C 37.795794 34.802105 60.597428 0
M  V30 35 C 40.079376 31.213593 61.376453 0 CFG=1
M  V30 36 C 42.047622 28.821994 65.175376 0 CFG=2
M  V30 37 H 43.918757 26.647578 65.269988 0
M  V30 38 H 42.432567 26.185707 66.082662 0
M  V30 39 H 39.177100 29.901738 56.798985 0
M  V30 40 H 40.319989 28.762731 57.475433 0
M  V30 41 H 43.540026 29.622088 68.083280 0
M  V30 42 H 42.079478 30.582986 67.950475 0
M  V30 43 H 40.845119 24.882258 55.767895 0
M  V30 44 H 39.450529 24.798590 54.690360 0
M  V30 45 H 39.239065 35.779806 61.866656 0
M  V30 46 H 43.073411 30.892154 69.932245 0
M  V30 47 H 37.309280 31.323751 58.640545 0
M  V30 48 H 36.873434 30.703198 60.220108 0
M  V30 49 H 38.045748 25.514425 58.892145 0
M  V30 50 H 43.322409 24.383016 64.850890 0
M  V30 51 H 41.887834 24.830280 64.176560 0
M  V30 52 H 43.549597 32.438392 66.892437 0
M  V30 53 H 41.106908 27.156398 64.181071 0
M  V30 54 H 42.574449 27.676424 63.398082 0
M  V30 55 H 40.544899 33.714630 62.300396 0
M  V30 56 H 40.723747 28.918214 62.841020 0
M  V30 57 H 41.223560 27.088555 55.631735 0
M  V30 58 H 40.850310 26.537774 53.974621 0
M  V30 59 H 45.603046 30.183853 66.519837 0
M  V30 60 H 45.653706 31.766179 65.766274 0
M  V30 61 H 37.415551 29.065877 58.347126 0
M  V30 62 H 36.520174 33.553274 59.387276 0
M  V30 63 H 45.453568 32.378331 68.196834 0
M  V30 64 H 39.645031 28.716233 54.624195 0
M  V30 65 H 38.548351 27.411415 54.248735 0
M  V30 66 H 40.010007 29.548241 65.093639 0
M  V30 67 H 39.603660 27.317943 59.524914 0
M  V30 68 H 38.069929 27.625409 60.281252 0
M  V30 69 H 38.956273 30.123695 62.698197 0
M  V30 70 H 43.752084 29.555830 64.288168 0
M  V30 71 H 37.227893 35.701171 60.410991 0
M  V30 72 H 41.131006 31.503949 61.337975 0
M  V30 73 H 41.794744 28.586937 66.210395 0
M  V30 74 H 43.976310 29.174249 65.890546 0
M  V30 75 H 37.645328 28.098403 56.190685 0
M  V30 76 H 36.917362 26.657768 58.167777 0
M  V30 77 H 43.303490 25.236079 63.443631 0
M  V30 END ATOM
M  V30 BEGIN BOND
M  V30 1 1 9 4
M  V30 2 1 11 7
M  V30 3 1 12 2
M  V30 4 1 12 7
M  V30 5 1 14 1
M  V30 6 1 15 4
M  V30 7 1 16 1
M  V30 8 1 17 6
M  V30 9 2 17 7
M  V30 10 1 18 8
M  V30 11 2 18 13
M  V30 12 1 20 3
M  V30 13 1 20 10
M  V30 14 1 21 6
M  V30 15 1 22 10
M  V30 16 1 22 13
M  V30 17 1 23 5
M  V30 18 1 23 15
M  V30 19 1 24 15
M  V30 20 1 25 2
M  V30 21 1 25 20
M  V30 22 2 26 3
M  V30 23 2 27 22
M  V30 24 1 28 24
M  V30 25 1 29 12
M  V30 26 1 29 21
M  V30 27 1 30 5
M  V30 28 1 30 19
M  V30 29 1 31 11
M  V30 30 1 31 25
M  V30 31 1 32 19
M  V30 32 1 33 23
M  V30 33 2 34 8
M  V30 34 1 34 27
M  V30 35 1 35 3
M  V30 36 1 35 13
M  V30 37 1 35 32
M  V30 38 1 36 16
M  V30 39 1 36 30
M  V30 40 1 36 33
M  V30 41 1 37 1
M  V30 42 1 38 1
M  V30 43 1 39 2
M  V30 44 1 40 2
M  V30 45 1 41 4
M  V30 46 1 42 4
M  V30 47 1 43 6
M  V30 48 1 44 6
M  V30 49 1 45 8
M  V30 50 1 46 9
M  V30 51 1 47 10
M  V30 52 1 48 10
M  V30 53 1 49 11
M  V30 54 1 50 14
M  V30 55 1 51 14
M  V30 56 1 52 15
M  V30 57 1 53 16
M  V30 58 1 54 16
M  V30 59 1 55 18
M  V30 60 1 56 19
M  V30 61 1 57 21
M  V30 62 1 58 21
M  V30 63 1 59 24
M  V30 64 1 60 24
M  V30 65 1 25 61 CFG=3
M  V30 66 1 62 27
M  V30 67 1 63 28
M  V30 68 1 64 29
M  V30 69 1 65 29
M  V30 70 1 30 66 CFG=1
M  V30 71 1 67 31
M  V30 72 1 68 31
M  V30 73 1 69 32
M  V30 74 1 70 33
M  V30 75 1 71 34
M  V30 76 1 35 72 CFG=1
M  V30 77 1 36 73 CFG=1
M  V30 78 1 74 33
M  V30 79 1 12 75 CFG=3
M  V30 80 1 76 11
M  V30 81 1 77 14
M  V30 END BOND
M  V30 END CTAB
M  END
>  <i_epik_Tot_Q>  (1) 
2

>  <i_epik_Tot_abs_Q>  (1) 
2

>  <i_i_glide_confnum>  (1) 
3648

>  <i_i_glide_lignum>  (1) 
198

>  <i_i_glide_posenum>  (1) 
322

>  <i_i_glide_rotatable_bonds>  (1) 
11

>  <i_lp_mmshare_version>  (1) 
72125

>  <i_m_source_file_index>  (1) 
85

>  <i_f3d_flags>  (1) 
0

>  <num_sample>  (1) 
100

>  <b_lp_Chiralities_Consistent>  (1) 
1

>  <r_epik_Charging_Adjusted_Penalty>  (1) 
0.034284474231679775

>  <r_epik_Ionization_Penalty>  (1) 
0.42650113434003467

>  <r_epik_Ionization_Penalty_Charging>  (1) 
0.012847136256187231

>  <r_epik_Ionization_Penalty_Neutral>  (1) 
0.41365399808384745

>  <r_epik_State_Penalty>  (1) 
0.021437337975492542

>  <r_glide_ring_energy>  (1) 
0.20284343658850437

>  <r_i_docking_score>  (1) 
-6.095084205255187

>  <r_i_glide_ecoul>  (1) 
-5.4650878843031574

>  <r_i_glide_eff_state_penalty>  (1) 
0.021437337975492542

>  <r_i_glide_einternal>  (1) 
19.418182081765238

>  <r_i_glide_emodel>  (1) 
-54.781254320922713

>  <r_i_glide_emodel_strain>  (1) 
1.1358662489633744

>  <r_i_glide_energy>  (1) 
-41.498547939956644

>  <r_i_glide_erotb>  (1) 
0.60855438394346106

>  <r_i_glide_esite>  (1) 
-0.029845291778807428

>  <r_i_glide_evdw>  (1) 
-36.033460055653485

>  <r_i_glide_gscore>  (1) 
-6.1165215432306796

>  <r_i_glide_gscore_strain>  (1) 
0

>  <r_i_glide_hbond>  (1) 
-0.10064681092266488

>  <r_i_glide_ligand_efficiency>  (1) 
-0.16930789459042186

>  <r_i_glide_ligand_efficiency_ln>  (1) 
-1.329782703441436

>  <r_i_glide_ligand_efficiency_sa>  (1) 
-0.5590423506010932

>  <r_i_glide_lipo>  (1) 
-2.8943519168818055

>  <r_i_glide_metal>  (1) 
-0

>  <r_i_glide_rewards>  (1) 
-1.0787957221627154

>  <r_lp_Energy>  (1) 
53.693352999999995

>  <r_lp_tautomer_probability>  (1) 
0.99998399999999998

>  <s_epik_Chemistry_Notes>  (1) 
This compound has an imine and may undergo hydrolysis. This compound contains an acetal/aminal-like group ( X-CH(R)-Y where X, Y are N, S, or O) that may be acid/base labile, releasing an aldehyde. This compound has a N-S or N-O group and may undergo hydrolysis at high or low pH.

>  <s_epik_cmdline>  (1) 
J2VwaWtfcHl0aG9uJywgJy1waHQnLCAnMS4wJywgJy1waCcsICc3LjQnLCAnLXRuJywgJzgnLCAnLW1hJywgJzUwMCcsICctaW1hZScsICc8aW5maWxlLm1hZT4nLCAnLW9tYWUnLCAnPG91dGZpbGUubWFlPic=

>  <s_epik_input>  (1) 
W09IXVtDSDJdW0NIXShbQ0gyXVtPSF0pTjFTW0NASF0oW0NASF0oW05IXTEpW0NIMl1bQ0gyXVtOSDJdKVtOSF1bTkhdW0NASF0yQyg9TylOKFtDSDJdYyhjMjMpW2NIXVtjSF1bY0hdW2NIXTMpW0NASF0oW0NIMl1bQ0gyXTQpW0NIMl1DKD1DNDUpW0NIMl1bQ0gyXVtDSDJdW05IXTU=

>  <s_glide_docking_method>  (1) 
confgen

>  <s_i_glide_gridfile>  (1) 
gpcr_5ht2c_6bqh_protein_autoprepared_prepared

>  <s_lp_Force_Field>  (1) 
S-OPLS

>  <s_lp_Variant>  (1) 
DiffSBDD_84-1

>  <s_m_source_file>  (1) 
generated_GPCR_5HT2C_ligand_DiffSBDD_2026-06-23_prepared.sdf

>  <GenAI_Model>  (1) 
DiffSBDD

>  <Protein>  (1) 
GPCR_5HT2C

$$$$
DiffSBDD_83
     RDKit          3D

  0  0  0  0  0  0  0  0  0  0999 V3000
M  V30 BEGIN CTAB
M  V30 COUNTS 54 55 0 0 1
M  V30 BEGIN ATOM
M  V30 1 C 41.506075 34.622249 63.687144 0
M  V30 2 C 38.095019 31.657737 58.328172 0
M  V30 3 N 37.379956 31.132176 59.367222 0
M  V30 4 O 40.084172 26.336258 55.814650 0
M  V30 5 O 42.444879 34.965065 64.615901 0
M  V30 6 C 39.360289 35.496312 62.712760 0
M  V30 7 C 38.273753 36.555544 62.617253 0
M  V30 8 C 38.156016 25.335108 56.275591 0
M  V30 9 C 38.285826 27.444576 52.295670 0
M  V30 10 C 40.411208 35.648938 63.565658 0
M  V30 11 C 38.364047 30.893288 57.066463 0
M  V30 12 C 37.925735 34.271732 60.901864 0
M  V30 13 N 37.243298 31.965622 60.410829 0
M  V30 14 O 41.986985 35.737778 65.767506 0
M  V30 15 C 38.944643 28.514247 56.069283 0 CFG=1
M  V30 16 C 37.245193 29.546780 54.382475 0
M  V30 17 C 39.274586 25.294375 55.636759 0
M  V30 18 O 41.577912 33.595077 63.015334 0
M  V30 19 C 39.250287 27.120441 56.703503 0 CFG=1
M  V30 20 C 38.445137 32.920896 58.695530 0
M  V30 21 O 38.001435 26.436793 57.015528 0
M  V30 22 C 39.017280 28.049731 53.504941 0
M  V30 23 C 38.120559 28.341423 54.738548 0 CFG=1
M  V30 24 C 37.877690 33.070941 60.003727 0
M  V30 25 Cl 36.960980 24.097095 56.172238 0
M  V30 26 C 39.181527 34.273217 61.795595 0
M  V30 27 C 38.279034 29.355375 57.200913 0
M  V30 28 H 36.972633 30.208844 59.374705 0
M  V30 29 H 37.291894 36.138696 62.839753 0
M  V30 30 H 38.452319 37.348558 63.340866 0
M  V30 31 H 38.253262 37.007825 61.626051 0
M  V30 32 H 38.997177 27.170742 51.515703 0
M  V30 33 H 37.747432 26.537899 52.576462 0
M  V30 34 H 37.575615 28.137300 51.845084 0
M  V30 35 H 40.470773 36.534191 64.178364 0
M  V30 36 H 37.669357 31.262263 56.315300 0
M  V30 37 H 39.357784 31.164880 56.709308 0
M  V30 38 H 37.024241 34.299476 61.514829 0
M  V30 39 H 37.905635 35.166832 60.280694 0
M  V30 40 H 42.099216 36.629237 65.447921 0
M  V30 41 H 39.907076 28.971858 55.835441 0
M  V30 42 H 37.834990 30.445965 54.200984 0
M  V30 43 H 36.693971 29.326761 53.474759 0
M  V30 44 H 36.497920 29.760172 55.146829 0
M  V30 45 H 39.645509 24.537754 54.968305 0
M  V30 46 H 39.815920 27.219962 57.631607 0
M  V30 47 H 39.009640 33.637588 58.119330 0
M  V30 48 H 39.543289 28.956056 53.200919 0
M  V30 49 H 39.793086 27.337290 53.756749 0
M  V30 50 H 37.428809 27.509663 54.860487 0
M  V30 51 H 40.050169 34.206016 61.139570 0
M  V30 52 H 39.158153 33.370102 62.407644 0
M  V30 53 H 38.789513 29.114389 58.133933 0
M  V30 54 H 37.243963 29.044118 57.348338 0
M  V30 END ATOM
M  V30 BEGIN BOND
M  V30 1 1 3 2
M  V30 2 1 5 1
M  V30 3 1 7 6
M  V30 4 1 10 1
M  V30 5 2 10 6
M  V30 6 1 11 2
M  V30 7 1 13 3
M  V30 8 1 14 5
M  V30 9 1 17 4
M  V30 10 2 17 8
M  V30 11 2 18 1
M  V30 12 1 19 4
M  V30 13 1 19 15
M  V30 14 2 20 2
M  V30 15 1 21 8
M  V30 16 1 21 19
M  V30 17 1 22 9
M  V30 18 1 23 15
M  V30 19 1 23 16
M  V30 20 1 23 22
M  V30 21 1 24 12
M  V30 22 2 24 13
M  V30 23 1 24 20
M  V30 24 1 25 8
M  V30 25 1 26 6
M  V30 26 1 26 12
M  V30 27 1 27 11
M  V30 28 1 27 15
M  V30 29 1 28 3
M  V30 30 1 29 7
M  V30 31 1 30 7
M  V30 32 1 31 7
M  V30 33 1 32 9
M  V30 34 1 33 9
M  V30 35 1 34 9
M  V30 36 1 35 10
M  V30 37 1 36 11
M  V30 38 1 37 11
M  V30 39 1 38 12
M  V30 40 1 39 12
M  V30 41 1 40 14
M  V30 42 1 15 41 CFG=3
M  V30 43 1 42 16
M  V30 44 1 43 16
M  V30 45 1 44 16
M  V30 46 1 45 17
M  V30 47 1 19 46 CFG=1
M  V30 48 1 47 20
M  V30 49 1 48 22
M  V30 50 1 49 22
M  V30 51 1 23 50 CFG=1
M  V30 52 1 51 26
M  V30 53 1 52 26
M  V30 54 1 53 27
M  V30 55 1 54 27
M  V30 END BOND
M  V30 END CTAB
M  END
>  <i_epik_Tot_Q>  (1) 
0

>  <i_epik_Tot_abs_Q>  (1) 
0

>  <i_i_glide_confnum>  (1) 
601

>  <i_i_glide_lignum>  (1) 
190

>  <i_i_glide_posenum>  (1) 
122

>  <i_i_glide_rotatable_bonds>  (1) 
12

>  <i_lp_mmshare_version>  (1) 
72125

>  <i_m_source_file_index>  (1) 
84

>  <i_f3d_flags>  (1) 
0

>  <num_sample>  (1) 
100

>  <b_lp_Chiralities_Consistent>  (1) 
1

>  <r_epik_Charging_Adjusted_Penalty>  (1) 
0.41067983895260396

>  <r_epik_Ionization_Penalty>  (1) 
0.00076996626271645392

>  <r_epik_Ionization_Penalty_Charging>  (1) 
0

>  <r_epik_Ionization_Penalty_Neutral>  (1) 
0.00076996626271645392

>  <r_epik_State_Penalty>  (1) 
0.41067983895260396

>  <r_glide_ring_energy>  (1) 
0

>  <r_i_docking_score>  (1) 
-6.0927886497477273

>  <r_i_glide_ecoul>  (1) 
-6.3007245025375527

>  <r_i_glide_eff_state_penalty>  (1) 
0.41067983895260396

>  <r_i_glide_einternal>  (1) 
9.5135018687012263

>  <r_i_glide_emodel>  (1) 
-57.997483452990792

>  <r_i_glide_emodel_strain>  (1) 
0

>  <r_i_glide_energy>  (1) 
-45.857175339353553

>  <r_i_glide_erotb>  (1) 
1.1080255732668134

>  <r_i_glide_esite>  (1) 
-0.10257773627746512

>  <r_i_glide_evdw>  (1) 
-39.556450836815998

>  <r_i_glide_gscore>  (1) 
-6.5034684887003316

>  <r_i_glide_gscore_strain>  (1) 
0

>  <r_i_glide_hbond>  (1) 
-0.32000000000000001

>  <r_i_glide_ligand_efficiency>  (1) 
-0.22565883887954546

>  <r_i_glide_ligand_efficiency_ln>  (1) 
-1.4183007501899834

>  <r_i_glide_ligand_efficiency_sa>  (1) 
-0.67697651663863645

>  <r_i_glide_lipo>  (1) 
-2.5749042573084009

>  <r_i_glide_metal>  (1) 
-0

>  <r_i_glide_rewards>  (1) 
-1.6910808511598465

>  <r_lp_Energy>  (1) 
15.920629999999999

>  <r_lp_tautomer_probability>  (1) 
0.5

>  <s_epik_Chemistry_Notes>  (1) 
This compound contains an acetal/aminal-like group ( X-CH(R)-Y where X, Y are N, S, or O) that may be acid/base labile, releasing an aldehyde.

>  <s_epik_cmdline>  (1) 
J2VwaWtfcHl0aG9uJywgJy1waHQnLCAnMS4wJywgJy1waCcsICc3LjQnLCAnLXRuJywgJzgnLCAnLW1hJywgJzUwMCcsICctaW1hZScsICc8aW5maWxlLm1hZT4nLCAnLW9tYWUnLCAnPG91dGZpbGUubWFlPic=

>  <s_epik_input>  (1) 
W09IXU9DKD1PKVxbQ0hdPUMoXFtDSDNdKVtDSDJdW0NIMl1jKFtjSF0xKW5bbkhdYzFbQ0gyXVtDSDJdW0NASF0oW0NAQEhdKFtDSDNdKVtDSDJdW0NIM10pW0NAQEhdKE8yKU9bQ0hdPUMyQ2w=

>  <s_glide_docking_method>  (1) 
confgen

>  <s_i_glide_gridfile>  (1) 
gpcr_5ht2c_6bqh_protein_autoprepared_prepared

>  <s_lp_Force_Field>  (1) 
S-OPLS

>  <s_lp_Variant>  (1) 
DiffSBDD_83-1

>  <s_m_source_file>  (1) 
generated_GPCR_5HT2C_ligand_DiffSBDD_2026-06-23_prepared.sdf

>  <GenAI_Model>  (1) 
DiffSBDD

>  <Protein>  (1) 
GPCR_5HT2C

$$$$
DiffSBDD_69
     RDKit          3D

  0  0  0  0  0  0  0  0  0  0999 V3000
M  V30 BEGIN CTAB
M  V30 COUNTS 57 57 0 0 1
M  V30 BEGIN ATOM
M  V30 1 C 37.636596 34.018780 58.919765 0
M  V30 2 N 37.662738 27.541083 53.913769 0 CHG=1
M  V30 3 C 38.644508 32.471738 57.247919 0
M  V30 4 C 38.789033 28.954322 52.202858 0 CFG=1
M  V30 5 C 37.616558 33.478266 57.724374 0
M  V30 6 C 38.539321 28.717049 53.726502 0 CFG=1
M  V30 7 C 37.556183 34.675346 60.056108 0
M  V30 8 C 39.938295 30.551718 50.492723 0
M  V30 9 C 38.772719 30.607849 55.546771 0
M  V30 10 C 37.909286 29.938523 54.458718 0
M  V30 11 C 39.468979 33.296324 61.079782 0
M  V30 12 C 38.893551 37.155621 61.768687 0 CFG=1
M  V30 13 C 39.493518 35.834844 61.208580 0
M  V30 14 C 37.834492 37.883685 60.903957 0
M  V30 15 N 38.044768 31.771594 56.097882 0 CHG=1
M  V30 16 C 36.515705 37.135281 62.879494 0
M  V30 17 C 39.867857 30.034375 51.939943 0
M  V30 18 C 39.161255 27.651839 51.463316 0
M  V30 19 S 38.220112 36.937683 63.431352 0
M  V30 20 C 36.551741 38.137197 61.723002 0
M  V30 21 C 38.599517 34.568237 61.163101 0 CFG=1
M  V30 22 H 36.765283 27.714077 53.484022 0
M  V30 23 H 38.082509 26.737592 53.466864 0
M  V30 24 H 39.561319 32.972736 56.938404 0
M  V30 25 H 38.881705 31.764656 58.044770 0
M  V30 26 H 37.853322 29.299299 51.767242 0
M  V30 27 H 36.844866 33.737475 57.020632 0
M  V30 28 H 39.488083 28.464263 54.201086 0
M  V30 29 H 36.724267 35.335383 60.249284 0
M  V30 30 H 40.693844 31.332438 50.404741 0
M  V30 31 H 40.211094 29.770781 49.783696 0
M  V30 32 H 38.992884 30.982333 50.167764 0
M  V30 33 H 39.726280 30.940575 55.133701 0
M  V30 34 H 38.991290 29.897530 56.344836 0
M  V30 35 H 36.955957 29.657752 54.911520 0
M  V30 36 H 37.646477 30.709708 53.741064 0
M  V30 37 H 38.856590 32.395542 61.118385 0
M  V30 38 H 40.045250 33.266691 60.157067 0
M  V30 39 H 40.171136 33.244609 61.913373 0
M  V30 40 H 39.733079 37.842117 61.885926 0
M  V30 41 H 40.360582 35.609943 61.831027 0
M  V30 42 H 39.902960 36.000284 60.212434 0
M  V30 43 H 38.224675 38.839641 60.552786 0
M  V30 44 H 37.612262 37.326430 59.997196 0
M  V30 45 H 37.111413 31.485911 56.399273 0
M  V30 46 H 36.150799 36.163862 62.548338 0
M  V30 47 H 35.873682 37.462612 63.697271 0
M  V30 48 H 39.714505 30.893402 52.592821 0
M  V30 49 H 40.845075 29.631447 52.190262 0
M  V30 50 H 40.033154 27.179410 51.913910 0
M  V30 51 H 38.340993 26.937012 51.471495 0
M  V30 52 H 39.380974 27.822653 50.409940 0
M  V30 53 H 35.657978 38.098652 61.099423 0
M  V30 54 H 36.556659 39.147151 62.133157 0
M  V30 55 H 38.046906 34.485301 62.097337 0
M  V30 56 H 37.539854 27.346704 54.897439 0
M  V30 57 H 37.898710 32.451709 55.364517 0
M  V30 END ATOM
M  V30 BEGIN BOND
M  V30 1 2 5 1
M  V30 2 1 5 3
M  V30 3 1 6 2
M  V30 4 1 6 4
M  V30 5 2 7 1
M  V30 6 1 10 6
M  V30 7 1 10 9
M  V30 8 1 13 12
M  V30 9 1 14 12
M  V30 10 1 15 3
M  V30 11 1 15 9
M  V30 12 1 17 4
M  V30 13 1 17 8
M  V30 14 1 18 4
M  V30 15 1 19 12
M  V30 16 1 19 16
M  V30 17 1 20 14
M  V30 18 1 20 16
M  V30 19 1 21 7
M  V30 20 1 21 11
M  V30 21 1 21 13
M  V30 22 1 22 2
M  V30 23 1 23 2
M  V30 24 1 24 3
M  V30 25 1 25 3
M  V30 26 1 4 26 CFG=3
M  V30 27 1 27 5
M  V30 28 1 6 28 CFG=1
M  V30 29 1 29 7
M  V30 30 1 30 8
M  V30 31 1 31 8
M  V30 32 1 32 8
M  V30 33 1 33 9
M  V30 34 1 34 9
M  V30 35 1 35 10
M  V30 36 1 36 10
M  V30 37 1 37 11
M  V30 38 1 38 11
M  V30 39 1 39 11
M  V30 40 1 12 40 CFG=1
M  V30 41 1 41 13
M  V30 42 1 42 13
M  V30 43 1 43 14
M  V30 44 1 44 14
M  V30 45 1 45 15
M  V30 46 1 46 16
M  V30 47 1 47 16
M  V30 48 1 48 17
M  V30 49 1 49 17
M  V30 50 1 50 18
M  V30 51 1 51 18
M  V30 52 1 52 18
M  V30 53 1 53 20
M  V30 54 1 54 20
M  V30 55 1 21 55 CFG=1
M  V30 56 1 56 2
M  V30 57 1 57 15
M  V30 END BOND
M  V30 END CTAB
M  END
>  <i_epik_Tot_Q>  (1) 
2

>  <i_epik_Tot_abs_Q>  (1) 
2

>  <i_i_glide_confnum>  (1) 
249

>  <i_i_glide_lignum>  (1) 
153

>  <i_i_glide_posenum>  (1) 
99

>  <i_i_glide_rotatable_bonds>  (1) 
10

>  <i_lp_mmshare_version>  (1) 
72125

>  <i_m_source_file_index>  (1) 
70

>  <i_f3d_flags>  (1) 
0

>  <num_sample>  (1) 
100

>  <b_lp_Chiralities_Consistent>  (1) 
1

>  <r_epik_Charging_Adjusted_Penalty>  (1) 
0.029112061252425856

>  <r_epik_Ionization_Penalty>  (1) 
0.014593894863530521

>  <r_epik_Ionization_Penalty_Charging>  (1) 
0.014593894863530521

>  <r_epik_Ionization_Penalty_Neutral>  (1) 
0

>  <r_epik_State_Penalty>  (1) 
0.014518166388895335

>  <r_glide_ring_energy>  (1) 
0

>  <r_i_docking_score>  (1) 
-6.0920205215887142

>  <r_i_glide_ecoul>  (1) 
-3.102735714799536

>  <r_i_glide_eff_state_penalty>  (1) 
0.014518166388895335

>  <r_i_glide_einternal>  (1) 
7.7612708484189987

>  <r_i_glide_emodel>  (1) 
-45.569194716489839

>  <r_i_glide_emodel_strain>  (1) 
2.6869487815607656

>  <r_i_glide_energy>  (1) 
-32.187435025810743

>  <r_i_glide_erotb>  (1) 
1.5199289784806138

>  <r_i_glide_esite>  (1) 
-0.10000000000000001

>  <r_i_glide_evdw>  (1) 
-29.084699311011207

>  <r_i_glide_gscore>  (1) 
-6.1065386879776096

>  <r_i_glide_gscore_strain>  (1) 
0

>  <r_i_glide_hbond>  (1) 
-0.20000000000000001

>  <r_i_glide_ligand_efficiency>  (1) 
-0.2900962153137483

>  <r_i_glide_ligand_efficiency_ln>  (1) 
-1.5062397638762479

>  <r_i_glide_ligand_efficiency_sa>  (1) 
-0.8003534619057634

>  <r_i_glide_lipo>  (1) 
-3.4909367941657097

>  <r_i_glide_metal>  (1) 
-0

>  <r_i_glide_rewards>  (1) 
-1.9158855495220226

>  <r_lp_Energy>  (1) 
-1.0378579999999999

>  <s_epik_cmdline>  (1) 
J2VwaWtfcHl0aG9uJywgJy1waHQnLCAnMS4wJywgJy1waCcsICc3LjQnLCAnLXRuJywgJzgnLCAnLW1hJywgJzUwMCcsICctaW1hZScsICc8aW5maWxlLm1hZT4nLCAnLW9tYWUnLCAnPG91dGZpbGUubWFlPic=

>  <s_epik_input>  (1) 
UzFbQ0gyXVtDSDJdW0NIMl1bQ0BASF0xW0NIMl1bQ0BIXShbQ0gzXSlbQ0hdPUM9W0NIXVtDSDJdW05IXVtDSDJdW0NIMl1bQ0BASF0oW05IMl0pW0NASF0oW0NIM10pW0NIMl1bQ0gzXQ==

>  <s_glide_docking_method>  (1) 
confgen

>  <s_i_glide_gridfile>  (1) 
gpcr_5ht2c_6bqh_protein_autoprepared_prepared

>  <s_lp_Force_Field>  (1) 
S-OPLS

>  <s_lp_Variant>  (1) 
DiffSBDD_69-1

>  <s_m_source_file>  (1) 
generated_GPCR_5HT2C_ligand_DiffSBDD_2026-06-23_prepared.sdf

>  <GenAI_Model>  (1) 
DiffSBDD

>  <Protein>  (1) 
GPCR_5HT2C

$$$$
DiffSBDD_20
     RDKit          3D

  0  0  0  0  0  0  0  0  0  0999 V3000
M  V30 BEGIN CTAB
M  V30 COUNTS 52 53 0 0 1
M  V30 BEGIN ATOM
M  V30 1 C 38.199189 31.745882 58.196723 0 CFG=2
M  V30 2 O 37.246200 29.541399 57.806673 0
M  V30 3 O 35.645153 34.142339 62.075851 0
M  V30 4 P 35.595623 33.131161 60.958042 0
M  V30 5 C 38.587574 30.657708 56.064503 0 CFG=1
M  V30 6 N 39.517922 37.389082 62.211234 0
M  V30 7 C 38.175903 29.845577 53.650258 0
M  V30 8 C 40.442352 30.865329 53.182126 0
M  V30 9 C 37.301514 31.751425 59.423845 0
M  V30 10 C 38.479420 33.316785 61.074631 0 CFG=2
M  V30 11 N 37.645211 32.589391 57.131862 0 CHG=1
M  V30 12 C 38.385949 30.349981 57.570121 0
M  V30 13 F 37.552084 38.168863 61.237288 0
M  V30 14 C 39.644235 29.572993 53.363497 0
M  V30 15 C 38.365808 37.131545 61.544409 0
M  V30 16 O 34.647401 33.524199 59.844610 0 CHG=-1
M  V30 17 O 35.345813 31.720456 61.454110 0 CHG=-1
M  V30 18 C 38.833013 34.750726 61.474680 0
M  V30 19 C 37.989872 35.832592 61.153827 0
M  V30 20 C 37.241803 33.097683 60.157400 0 CFG=2
M  V30 21 C 40.320734 36.344067 62.515908 0
M  V30 22 O 36.445133 30.137754 55.088194 0
M  V30 23 C 40.023857 35.015678 62.169851 0
M  V30 24 C 37.786587 29.736682 55.112078 0 CFG=2
M  V30 25 C 38.302566 32.168690 55.890782 0
M  V30 26 O 38.498006 32.418478 62.166729 0
M  V30 27 O 39.541386 29.737408 58.097712 0
M  V30 28 H 39.176244 32.163279 58.439589 0
M  V30 29 H 36.836021 29.832838 58.610860 0
M  V30 30 H 39.647109 30.524120 55.849759 0
M  V30 31 H 37.559938 29.176191 53.049729 0
M  V30 32 H 37.927998 30.861212 53.367756 0
M  V30 33 H 41.244754 30.938658 53.915739 0
M  V30 34 H 40.845123 30.941463 52.171656 0
M  V30 35 H 39.819241 31.737665 53.331539 0
M  V30 36 H 36.295054 31.493337 59.086681 0
M  V30 37 H 37.591354 30.964319 60.120200 0
M  V30 38 H 39.351471 33.027575 60.489312 0
M  V30 39 H 37.721042 33.576839 57.323817 0
M  V30 40 H 40.045137 29.003217 54.199813 0
M  V30 41 H 39.739333 28.954943 52.469367 0
M  V30 42 H 37.065291 35.675500 60.625191 0
M  V30 43 H 37.239271 33.883612 59.405584 0
M  V30 44 H 41.230283 36.577335 63.050095 0
M  V30 45 H 36.144480 30.347444 55.969582 0
M  V30 46 H 40.699056 34.217111 62.432689 0
M  V30 47 H 37.858986 28.694144 55.422999 0
M  V30 48 H 39.240773 32.714704 55.788591 0
M  V30 49 H 37.683874 32.419614 55.029548 0
M  V30 50 H 39.224254 32.642026 62.725721 0
M  V30 51 H 39.610782 28.870601 57.728119 0
M  V30 52 H 36.643724 32.337106 57.030912 0
M  V30 END ATOM
M  V30 BEGIN BOND
M  V30 1 2 4 3
M  V30 2 1 9 1
M  V30 3 1 11 1
M  V30 4 1 12 1
M  V30 5 1 12 2
M  V30 6 1 12 5
M  V30 7 1 14 7
M  V30 8 1 14 8
M  V30 9 2 15 6
M  V30 10 1 15 13
M  V30 11 1 16 4
M  V30 12 1 17 4
M  V30 13 1 18 10
M  V30 14 1 19 15
M  V30 15 2 19 18
M  V30 16 1 20 4
M  V30 17 1 20 9
M  V30 18 1 20 10
M  V30 19 1 21 6
M  V30 20 1 23 18
M  V30 21 2 23 21
M  V30 22 1 24 5
M  V30 23 1 24 7
M  V30 24 1 24 22
M  V30 25 1 25 5
M  V30 26 1 25 11
M  V30 27 1 26 10
M  V30 28 1 27 12
M  V30 29 1 1 28 CFG=1
M  V30 30 1 29 2
M  V30 31 1 5 30 CFG=3
M  V30 32 1 31 7
M  V30 33 1 32 7
M  V30 34 1 33 8
M  V30 35 1 34 8
M  V30 36 1 35 8
M  V30 37 1 36 9
M  V30 38 1 37 9
M  V30 39 1 10 38 CFG=3
M  V30 40 1 39 11
M  V30 41 1 40 14
M  V30 42 1 41 14
M  V30 43 1 42 19
M  V30 44 1 20 43 CFG=3
M  V30 45 1 44 21
M  V30 46 1 45 22
M  V30 47 1 46 23
M  V30 48 1 24 47 CFG=1
M  V30 49 1 48 25
M  V30 50 1 49 25
M  V30 51 1 50 26
M  V30 52 1 51 27
M  V30 53 1 52 11
M  V30 END BOND
M  V30 END CTAB
M  END
>  <i_epik_Tot_Q>  (1) 
-1

>  <i_epik_Tot_abs_Q>  (1) 
3

>  <i_i_glide_confnum>  (1) 
369

>  <i_i_glide_lignum>  (1) 
48

>  <i_i_glide_posenum>  (1) 
65

>  <i_i_glide_rotatable_bonds>  (1) 
12

>  <i_lp_mmshare_version>  (1) 
72125

>  <i_m_source_file_index>  (1) 
21

>  <i_f3d_flags>  (1) 
0

>  <num_sample>  (1) 
100

>  <b_lp_Chiralities_Consistent>  (1) 
1

>  <r_epik_Charging_Adjusted_Penalty>  (1) 
0.6119073465235404

>  <r_epik_Ionization_Penalty>  (1) 
0.30667552727884728

>  <r_epik_Ionization_Penalty_Charging>  (1) 
0.30666936404430589

>  <r_epik_Ionization_Penalty_Neutral>  (1) 
6.1632345413695363e-06

>  <r_epik_State_Penalty>  (1) 
0.3052379824792345

>  <r_glide_ring_energy>  (1) 
1.9592154643148372

>  <r_i_docking_score>  (1) 
-6.0915466392628392

>  <r_i_glide_ecoul>  (1) 
-12.827551944840966

>  <r_i_glide_eff_state_penalty>  (1) 
0.3052379824792345

>  <r_i_glide_einternal>  (1) 
17.098296269504903

>  <r_i_glide_emodel>  (1) 
-46.484099805188869

>  <r_i_glide_emodel_strain>  (1) 
3.9980195770997682

>  <r_i_glide_energy>  (1) 
-37.600477534116891

>  <r_i_glide_erotb>  (1) 
0.59271143775516177

>  <r_i_glide_esite>  (1) 
-0.15075311200446592

>  <r_i_glide_evdw>  (1) 
-24.772925589275921

>  <r_i_glide_gscore>  (1) 
-6.3967846217420741

>  <r_i_glide_gscore_strain>  (1) 
0

>  <r_i_glide_hbond>  (1) 
-0.3917508824358833

>  <r_i_glide_ligand_efficiency>  (1) 
-0.22561283849121627

>  <r_i_glide_ligand_efficiency_ln>  (1) 
-1.4180116306252446

>  <r_i_glide_ligand_efficiency_sa>  (1) 
-0.67683851547364893

>  <r_i_glide_lipo>  (1) 
-1.6369955825289599

>  <r_i_glide_metal>  (1) 
-0

>  <r_i_glide_rewards>  (1) 
-1.6472174113379856

>  <r_lp_Energy>  (1) 
8.755507999999999

>  <s_epik_cmdline>  (1) 
J2VwaWtfcHl0aG9uJywgJy1waHQnLCAnMS4wJywgJy1waCcsICc3LjQnLCAnLXRuJywgJzgnLCAnLW1hJywgJzUwMCcsICctaW1hZScsICc8aW5maWxlLm1hZT4nLCAnLW9tYWUnLCAnPG91dGZpbGUubWFlPic=

>  <s_epik_input>  (1) 
W0NIM11bQ0gyXVtDSDJdW0NAQEhdKFtPSF0pW0NASF0xW0NIMl1bTkhdW0NASF0oQzEoW09IXSlbT0hdKVtDSDJdW0NAQEhdKFAoPU8pKFtPSF0pW09IXSlbQ0BIXShbT0hdKWMoW2NIXTIpW2NIXVtjSF1uYzJG

>  <s_glide_docking_method>  (1) 
confgen

>  <s_i_glide_gridfile>  (1) 
gpcr_5ht2c_6bqh_protein_autoprepared_prepared

>  <s_lp_Force_Field>  (1) 
S-OPLS

>  <s_lp_Variant>  (1) 
DiffSBDD_20-2

>  <s_m_source_file>  (1) 
generated_GPCR_5HT2C_ligand_DiffSBDD_2026-06-23_prepared.sdf

>  <GenAI_Model>  (1) 
DiffSBDD

>  <Protein>  (1) 
GPCR_5HT2C

$$$$
DiffSBDD_53
     RDKit          3D

  0  0  0  0  0  0  0  0  0  0999 V3000
M  V30 BEGIN CTAB
M  V30 COUNTS 82 86 0 0 1
M  V30 BEGIN ATOM
M  V30 1 C 37.915148 30.441167 58.119501 0
M  V30 2 C 40.337465 30.329065 64.464398 0
M  V30 3 C 38.974577 35.580378 60.967310 0
M  V30 4 C 38.362868 31.256573 59.329909 0
M  V30 5 C 40.527494 33.993270 63.143226 0
M  V30 6 C 37.244722 25.379481 55.967645 0
M  V30 7 C 39.541082 29.021214 54.813109 0
M  V30 8 N 38.685187 29.183269 58.004050 0 CHG=1
M  V30 9 N 37.644295 38.303709 60.968105 0 CHG=1
M  V30 10 C 43.243442 30.800846 64.353505 0
M  V30 11 C 38.206910 28.230328 56.977216 0 CFG=1
M  V30 12 N 37.600011 30.904555 60.514169 0
M  V30 13 C 40.357063 33.722352 61.838724 0
M  V30 14 C 40.809292 32.851509 64.116114 0
M  V30 15 C 38.256218 28.818879 55.567175 0 CFG=1
M  V30 16 C 40.007273 31.399775 62.207814 0 CFG=1
M  V30 17 C 39.037607 26.932829 57.032144 0 CFG=2
M  V30 18 C 37.541442 37.277945 62.026661 0
M  V30 19 O 37.242264 29.738028 55.204230 0
M  V30 20 C 37.744344 31.852901 61.580514 0
M  V30 21 C 41.218885 30.126034 65.705845 0
M  V30 22 C 42.648831 29.750446 65.299026 0
M  V30 23 C 40.878142 31.423854 63.499963 0
M  V30 24 O 38.652676 31.475551 62.567797 0
M  V30 25 C 42.334865 31.040911 63.128581 0
M  V30 26 C 38.674659 25.951804 55.885813 0 CFG=2
M  V30 27 O 38.852059 26.322799 58.294911 0
M  V30 28 C 39.681225 36.404657 63.185862 0
M  V30 29 N 38.914505 26.545259 54.536453 0 CFG=2 CHG=1
M  V30 30 O 40.403706 32.436984 61.367384 0
M  V30 31 C 40.241407 26.230154 53.964694 0
M  V30 32 C 38.529219 27.976107 54.336482 0 CFG=2
M  V30 33 C 40.445233 35.371301 63.670175 0
M  V30 34 C 40.159467 34.720636 60.768899 0
M  V30 35 C 38.765579 36.377555 62.023733 0
M  V30 36 H 38.101678 31.050248 57.235085 0
M  V30 37 H 36.841589 30.247924 58.154229 0
M  V30 38 H 39.317991 30.538029 64.786438 0
M  V30 39 H 40.276541 29.379799 63.930503 0
M  V30 40 H 38.266413 35.595708 60.152757 0
M  V30 41 H 39.423326 31.116458 59.516660 0
M  V30 42 H 38.207521 32.313999 59.110360 0
M  V30 43 H 37.057462 24.908805 56.933376 0
M  V30 44 H 36.477461 26.137738 55.816730 0
M  V30 45 H 37.088742 24.610908 55.209789 0
M  V30 46 H 39.640887 29.931574 54.223517 0
M  V30 47 H 40.439539 28.733912 55.358268 0
M  V30 48 H 38.631377 28.693500 58.886953 0
M  V30 49 H 36.815944 38.885292 60.952204 0
M  V30 50 H 38.459767 38.876599 61.125520 0
M  V30 51 H 44.228362 30.468111 64.025317 0
M  V30 52 H 43.407233 31.726285 64.903609 0
M  V30 53 H 37.188388 27.977572 57.241989 0
M  V30 54 H 37.757303 29.957419 60.827477 0
M  V30 55 H 41.722978 33.092391 64.655100 0
M  V30 56 H 40.033840 32.881185 64.875522 0
M  V30 57 H 40.145449 30.462782 61.666822 0
M  V30 58 H 40.100105 27.169247 56.960405 0
M  V30 59 H 36.650208 36.674265 61.851751 0
M  V30 60 H 37.412112 37.737280 63.006456 0
M  V30 61 H 37.112292 30.412466 55.858614 0
M  V30 62 H 37.954021 32.853902 61.205877 0
M  V30 63 H 36.786432 31.931045 62.093762 0
M  V30 64 H 40.795824 29.339211 66.331928 0
M  V30 65 H 41.224775 31.032166 66.312086 0
M  V30 66 H 42.644009 28.778097 64.803810 0
M  V30 67 H 43.277190 29.643909 66.184220 0
M  V30 68 H 42.312034 30.107649 62.567784 0
M  V30 69 H 42.780519 31.797838 62.480998 0
M  V30 70 H 39.334601 25.087156 55.981616 0
M  V30 71 H 39.412487 25.562194 58.360227 0
M  V30 72 H 39.700178 37.318784 63.763162 0
M  V30 73 H 41.004529 26.537650 54.666496 0
M  V30 74 H 40.401853 25.174741 53.772308 0
M  V30 75 H 40.390704 26.745809 53.015230 0
M  V30 76 H 38.003054 28.161046 53.400329 0
M  V30 77 H 40.992119 35.570128 64.580989 0
M  V30 78 H 41.050649 35.343812 60.685053 0
M  V30 79 H 40.045100 34.208344 59.813394 0
M  V30 80 H 38.277749 26.040896 53.933937 0
M  V30 81 H 39.652268 29.408884 57.826694 0
M  V30 82 H 37.735506 37.843970 60.074349 0
M  V30 END ATOM
M  V30 BEGIN BOND
M  V30 1 1 4 1
M  V30 2 1 8 1
M  V30 3 1 11 8
M  V30 4 1 12 4
M  V30 5 2 13 5
M  V30 6 1 14 5
M  V30 7 1 15 7
M  V30 8 1 15 11
M  V30 9 1 17 11
M  V30 10 1 18 9
M  V30 11 1 15 19 CFG=3
M  V30 12 1 20 12
M  V30 13 1 21 2
M  V30 14 1 22 10
M  V30 15 1 22 21
M  V30 16 1 23 2
M  V30 17 1 23 14
M  V30 18 1 23 16
M  V30 19 1 24 16
M  V30 20 1 24 20
M  V30 21 1 25 10
M  V30 22 1 25 23
M  V30 23 1 26 6
M  V30 24 1 26 17
M  V30 25 1 27 17
M  V30 26 1 29 26
M  V30 27 1 30 13
M  V30 28 1 30 16
M  V30 29 1 31 29
M  V30 30 1 32 7
M  V30 31 1 32 15
M  V30 32 1 32 29
M  V30 33 1 33 5
M  V30 34 2 33 28
M  V30 35 1 34 3
M  V30 36 1 34 13
M  V30 37 2 35 3
M  V30 38 1 35 18
M  V30 39 1 35 28
M  V30 40 1 36 1
M  V30 41 1 37 1
M  V30 42 1 38 2
M  V30 43 1 39 2
M  V30 44 1 40 3
M  V30 45 1 41 4
M  V30 46 1 42 4
M  V30 47 1 43 6
M  V30 48 1 44 6
M  V30 49 1 45 6
M  V30 50 1 46 7
M  V30 51 1 47 7
M  V30 52 1 48 8
M  V30 53 1 49 9
M  V30 54 1 50 9
M  V30 55 1 51 10
M  V30 56 1 52 10
M  V30 57 1 11 53 CFG=1
M  V30 58 1 54 12
M  V30 59 1 55 14
M  V30 60 1 56 14
M  V30 61 1 16 57 CFG=3
M  V30 62 1 17 58 CFG=3
M  V30 63 1 59 18
M  V30 64 1 60 18
M  V30 65 1 61 19
M  V30 66 1 62 20
M  V30 67 1 63 20
M  V30 68 1 64 21
M  V30 69 1 65 21
M  V30 70 1 66 22
M  V30 71 1 67 22
M  V30 72 1 68 25
M  V30 73 1 69 25
M  V30 74 1 26 70 CFG=1
M  V30 75 1 71 27
M  V30 76 1 72 28
M  V30 77 1 73 31
M  V30 78 1 74 31
M  V30 79 1 75 31
M  V30 80 1 32 76 CFG=3
M  V30 81 1 77 33
M  V30 82 1 78 34
M  V30 83 1 79 34
M  V30 84 1 29 80 CFG=3
M  V30 85 1 81 8
M  V30 86 1 82 9
M  V30 END BOND
M  V30 END CTAB
M  END
>  <i_epik_Tot_Q>  (1) 
3

>  <i_epik_Tot_abs_Q>  (1) 
3

>  <i_i_glide_confnum>  (1) 
539

>  <i_i_glide_lignum>  (1) 
109

>  <i_i_glide_posenum>  (1) 
247

>  <i_i_glide_rotatable_bonds>  (1) 
10

>  <i_lp_mmshare_version>  (1) 
72125

>  <i_m_source_file_index>  (1) 
54

>  <i_f3d_flags>  (1) 
0

>  <num_sample>  (1) 
100

>  <b_lp_Chiralities_Consistent>  (1) 
1

>  <r_epik_Charging_Adjusted_Penalty>  (1) 
0.52217566130243886

>  <r_epik_Ionization_Penalty>  (1) 
0.30399825412207077

>  <r_epik_Ionization_Penalty_Charging>  (1) 
0.29355179195135561

>  <r_epik_Ionization_Penalty_Neutral>  (1) 
0.010446462170715176

>  <r_epik_State_Penalty>  (1) 
0.22862386935108323

>  <r_glide_ring_energy>  (1) 
0.00054235002800224672

>  <r_i_docking_score>  (1) 
-6.0892753646243838

>  <r_i_glide_ecoul>  (1) 
-2.3613712948958563

>  <r_i_glide_eff_state_penalty>  (1) 
0.22862386935108323

>  <r_i_glide_einternal>  (1) 
5.6704148150105915

>  <r_i_glide_emodel>  (1) 
-57.825141651084323

>  <r_i_glide_emodel_strain>  (1) 
0.84116094225321092

>  <r_i_glide_energy>  (1) 
-40.522038244891

>  <r_i_glide_erotb>  (1) 
0.58947078011706677

>  <r_i_glide_esite>  (1) 
0

>  <r_i_glide_evdw>  (1) 
-38.160666949995147

>  <r_i_glide_gscore>  (1) 
-6.3178992339754672

>  <r_i_glide_gscore_strain>  (1) 
0

>  <r_i_glide_hbond>  (1) 
0

>  <r_i_glide_ligand_efficiency>  (1) 
-0.17397929613212526

>  <r_i_glide_ligand_efficiency_ln>  (1) 
-1.3367310867203941

>  <r_i_glide_ligand_efficiency_sa>  (1) 
-0.569097814248119

>  <r_i_glide_lipo>  (1) 
-3.7618589961534998

>  <r_i_glide_metal>  (1) 
-0

>  <r_i_glide_rewards>  (1) 
-0.88327197620489839

>  <r_lp_Energy>  (1) 
66.56347199999999

>  <s_epik_Chemistry_Notes>  (1) 
This compound contains an acetal/aminal-like group ( X-CH(R)-Y where X, Y are N, S, or O) that may be acid/base labile, releasing an aldehyde.

>  <s_epik_cmdline>  (1) 
J2VwaWtfcHl0aG9uJywgJy1waHQnLCAnMS4wJywgJy1waCcsICc3LjQnLCAnLXRuJywgJzgnLCAnLW1hJywgJzUwMCcsICctaW1hZScsICc8aW5maWxlLm1hZT4nLCAnLW9tYWUnLCAnPG91dGZpbGUubWFlPic=

>  <s_epik_input>  (1) 
W09IXVtDQEBdMTJbQ0BASF0oW0NIMl0xKU4oW0NIM10pW0NASF0oW0NIM10pW0NASF0oW09IXSlbQ0BIXTJbTkhdW0NIMl1bQ0gyXVtOSF1bQ0gyXU9bQ0BIXTNPQyhbQ0gyXVtDSF09QyhbQ0gyXVtOSDJdKVtDSF09W0NIXTQpPUM0W0NIMl1DMzVbQ0gyXVtDSDJdW0NIMl1bQ0gyXVtDSDJdNQ==

>  <s_glide_docking_method>  (1) 
confgen

>  <s_i_glide_gridfile>  (1) 
gpcr_5ht2c_6bqh_protein_autoprepared_prepared

>  <s_lp_Force_Field>  (1) 
S-OPLS

>  <s_lp_Variant>  (1) 
DiffSBDD_53-1

>  <s_m_source_file>  (1) 
generated_GPCR_5HT2C_ligand_DiffSBDD_2026-06-23_prepared.sdf

>  <GenAI_Model>  (1) 
DiffSBDD

>  <Protein>  (1) 
GPCR_5HT2C

$$$$
DiffSBDD_62
     RDKit          3D

  0  0  0  0  0  0  0  0  0  0999 V3000
M  V30 BEGIN CTAB
M  V30 COUNTS 80 84 0 0 1
M  V30 BEGIN ATOM
M  V30 1 C 40.071404 30.394736 63.688904 0
M  V30 2 C 40.255402 29.938917 50.957839 0
M  V30 3 C 39.567412 29.678454 57.844436 0
M  V30 4 C 41.926875 32.027499 62.932631 0
M  V30 5 C 44.317604 27.148832 65.513374 0
M  V30 6 C 39.490980 27.452155 50.596438 0
M  V30 7 C 38.067927 29.415840 57.590539 0 CFG=2
M  V30 8 C 39.125474 28.828714 52.631488 0
M  V30 9 C 37.905992 28.264963 54.559857 0
M  V30 10 O 41.734752 27.961561 64.135382 0
M  V30 11 C 43.813879 28.535338 65.170836 0
M  V30 12 C 38.990177 31.827050 54.781721 0
M  V30 13 C 40.574908 31.400581 62.639289 0
M  V30 14 C 42.350603 28.689719 64.916399 0
M  V30 15 C 38.798246 30.448240 54.316395 0
M  V30 16 N 39.343455 30.039883 53.126441 0
M  V30 17 C 40.395771 28.514402 58.418809 0
M  V30 18 O 35.994139 31.179277 60.360749 0
M  V30 19 C 44.633833 27.748504 64.168060 0
M  V30 20 N 40.387642 29.527327 65.952899 0
M  V30 21 N 40.045138 30.932944 52.201497 0
M  V30 22 N 39.918209 31.695513 61.585885 0
M  V30 23 C 38.655852 31.063223 61.275633 0
M  V30 24 C 39.585924 28.683638 51.462625 0
M  V30 25 C 38.114275 29.649166 55.040362 0
M  V30 26 C 38.089187 31.657976 56.102443 0
M  V30 27 N 41.779560 29.712000 65.591838 0
M  V30 28 C 36.986575 31.102897 59.360569 0 CFG=2
M  V30 29 C 40.690203 30.567652 65.085878 0 CFG=1
M  V30 30 C 40.364088 26.467963 56.885326 0
M  V30 31 C 41.150813 27.708814 57.334790 0
M  V30 32 C 37.546483 30.140958 56.317746 0 CFG=2
M  V30 33 C 42.571589 27.340432 57.792229 0
M  V30 34 C 37.177320 29.648990 58.843751 0
M  V30 35 N 38.140431 31.718541 60.055721 0 CHG=1
M  V30 36 N 38.401408 27.872147 53.427498 0
M  V30 37 H 39.003316 30.537754 63.838142 0
M  V30 38 H 40.142798 29.391760 63.282895 0
M  V30 39 H 41.316883 29.782798 50.766040 0
M  V30 40 H 39.765999 30.330856 50.065335 0
M  V30 41 H 40.045136 30.031962 56.933782 0
M  V30 42 H 39.645138 30.518082 58.517070 0
M  V30 43 H 41.846473 32.752228 63.743025 0
M  V30 44 H 42.658900 31.266916 63.204495 0
M  V30 45 H 42.303165 32.552425 62.053775 0
M  V30 46 H 45.123524 27.079352 66.241427 0
M  V30 47 H 43.600146 26.330246 65.538625 0
M  V30 48 H 38.845137 27.687207 49.767759 0
M  V30 49 H 40.445139 27.177395 50.167760 0
M  V30 50 H 39.081141 26.593696 51.128582 0
M  V30 51 H 37.967277 28.350591 57.387709 0
M  V30 52 H 37.316134 27.609892 55.203957 0
M  V30 53 H 44.306848 29.362488 65.680340 0
M  V30 54 H 40.035986 32.037651 55.005230 0
M  V30 55 H 38.568945 32.537759 54.074526 0
M  V30 56 H 41.129364 28.954201 59.095663 0
M  V30 57 H 39.787835 27.863567 59.048221 0
M  V30 58 H 44.134676 27.304998 63.310222 0
M  V30 59 H 45.645132 28.097873 63.980285 0
M  V30 60 H 39.916257 28.725847 65.545652 0
M  V30 61 H 39.420548 31.696031 51.947896 0
M  V30 62 H 37.926809 31.199658 62.075821 0
M  V30 63 H 38.802029 29.994660 61.116842 0
M  V30 64 H 37.245137 32.334652 55.997834 0
M  V30 65 H 38.630414 32.029461 56.971238 0
M  V30 66 H 36.703131 31.783545 58.567761 0
M  V30 67 H 40.621399 31.570534 65.504076 0
M  V30 68 H 40.287214 25.734178 57.689334 0
M  V30 69 H 39.354340 26.723907 56.570890 0
M  V30 70 H 40.845123 25.983764 56.035058 0
M  V30 71 H 41.283705 28.337778 56.454508 0
M  V30 72 H 36.459285 30.099710 56.244591 0
M  V30 73 H 42.559105 26.592588 58.582436 0
M  V30 74 H 43.157651 26.937755 56.968160 0
M  V30 75 H 43.113729 28.211211 58.161466 0
M  V30 76 H 37.521716 28.999306 59.647183 0
M  V30 77 H 36.185262 29.270959 58.590728 0
M  V30 78 H 38.898274 31.763879 59.392242 0
M  V30 79 H 37.884508 32.664178 60.298451 0
M  V30 80 H 35.173248 31.382973 59.931860 0
M  V30 END ATOM
M  V30 BEGIN BOND
M  V30 1 1 7 3
M  V30 2 1 11 5
M  V30 3 1 13 1
M  V30 4 1 13 4
M  V30 5 2 14 10
M  V30 6 1 14 11
M  V30 7 1 15 12
M  V30 8 1 16 8
M  V30 9 1 16 15
M  V30 10 1 17 3
M  V30 11 1 19 5
M  V30 12 1 19 11
M  V30 13 1 21 2
M  V30 14 1 21 16
M  V30 15 2 22 13
M  V30 16 1 23 22
M  V30 17 1 24 2
M  V30 18 1 24 6
M  V30 19 2 24 8
M  V30 20 1 25 9
M  V30 21 2 25 15
M  V30 22 1 26 12
M  V30 23 1 27 14
M  V30 24 1 27 20
M  V30 25 1 28 18
M  V30 26 1 29 1
M  V30 27 1 29 20
M  V30 28 1 29 27
M  V30 29 1 31 17
M  V30 30 1 31 30
M  V30 31 1 32 7
M  V30 32 1 32 25
M  V30 33 1 32 26
M  V30 34 1 33 31
M  V30 35 1 34 7
M  V30 36 1 34 28
M  V30 37 1 35 23
M  V30 38 1 35 28
M  V30 39 1 36 8
M  V30 40 2 36 9
M  V30 41 1 37 1
M  V30 42 1 38 1
M  V30 43 1 39 2
M  V30 44 1 40 2
M  V30 45 1 41 3
M  V30 46 1 42 3
M  V30 47 1 43 4
M  V30 48 1 44 4
M  V30 49 1 45 4
M  V30 50 1 46 5
M  V30 51 1 47 5
M  V30 52 1 48 6
M  V30 53 1 49 6
M  V30 54 1 50 6
M  V30 55 1 7 51 CFG=3
M  V30 56 1 52 9
M  V30 57 1 53 11
M  V30 58 1 54 12
M  V30 59 1 55 12
M  V30 60 1 56 17
M  V30 61 1 57 17
M  V30 62 1 58 19
M  V30 63 1 59 19
M  V30 64 1 60 20
M  V30 65 1 61 21
M  V30 66 1 62 23
M  V30 67 1 63 23
M  V30 68 1 64 26
M  V30 69 1 65 26
M  V30 70 1 28 66 CFG=3
M  V30 71 1 29 67 CFG=1
M  V30 72 1 68 30
M  V30 73 1 69 30
M  V30 74 1 70 30
M  V30 75 1 71 31
M  V30 76 1 32 72 CFG=3
M  V30 77 1 73 33
M  V30 78 1 74 33
M  V30 79 1 75 33
M  V30 80 1 76 34
M  V30 81 1 77 34
M  V30 82 1 78 35
M  V30 83 1 79 35
M  V30 84 1 80 18
M  V30 END BOND
M  V30 END CTAB
M  END
>  <i_epik_Tot_Q>  (1) 
1

>  <i_epik_Tot_abs_Q>  (1) 
1

>  <i_i_glide_confnum>  (1) 
3034

>  <i_i_glide_lignum>  (1) 
137

>  <i_i_glide_posenum>  (1) 
99

>  <i_i_glide_rotatable_bonds>  (1) 
14

>  <i_lp_mmshare_version>  (1) 
72125

>  <i_m_source_file_index>  (1) 
63

>  <i_f3d_flags>  (1) 
0

>  <num_sample>  (1) 
100

>  <b_lp_Chiralities_Consistent>  (1) 
1

>  <r_epik_Charging_Adjusted_Penalty>  (1) 
1.9108014557952604

>  <r_epik_Ionization_Penalty>  (1) 
0.8812751426241725

>  <r_epik_Ionization_Penalty_Charging>  (1) 
0.72483633588800112

>  <r_epik_Ionization_Penalty_Neutral>  (1) 
0.15643880673617139

>  <r_epik_State_Penalty>  (1) 
1.1859651199072592

>  <r_glide_ring_energy>  (1) 
0

>  <r_i_docking_score>  (1) 
-6.079228238456885

>  <r_i_glide_ecoul>  (1) 
-4.4504154060285179

>  <r_i_glide_eff_state_penalty>  (1) 
1.1859651199072592

>  <r_i_glide_einternal>  (1) 
13.925127842815456

>  <r_i_glide_emodel>  (1) 
-74.809797436828063

>  <r_i_glide_emodel_strain>  (1) 
0.62693142969177984

>  <r_i_glide_energy>  (1) 
-58.656112375539578

>  <r_i_glide_erotb>  (1) 
0.98469743448682379

>  <r_i_glide_esite>  (1) 
-0.10014697559359789

>  <r_i_glide_evdw>  (1) 
-54.20569696951106

>  <r_i_glide_gscore>  (1) 
-7.2651933583641446

>  <r_i_glide_gscore_strain>  (1) 
0

>  <r_i_glide_hbond>  (1) 
-0.17987841888067571

>  <r_i_glide_ligand_efficiency>  (1) 
-0.1688674510682468

>  <r_i_glide_ligand_efficiency_ln>  (1) 
-1.3263233598647641

>  <r_i_glide_ligand_efficiency_sa>  (1) 
-0.55758803813362423

>  <r_i_glide_lipo>  (1) 
-2.7311702895310646

>  <r_i_glide_metal>  (1) 
-0

>  <r_i_glide_rewards>  (1) 
-1.8608479494657997

>  <r_lp_Energy>  (1) 
37.126494999999998

>  <r_lp_tautomer_probability>  (1) 
0.49999399997599986

>  <s_epik_Chemistry_Notes>  (1) 
This compound has an imine and may undergo hydrolysis. This compound contains an acetal/aminal-like group ( X-CH(R)-Y where X, Y are N, S, or O) that may be acid/base labile, releasing an aldehyde.

>  <s_epik_cmdline>  (1) 
J2VwaWtfcHl0aG9uJywgJy1waHQnLCAnMS4wJywgJy1waCcsICc3LjQnLCAnLXRuJywgJzgnLCAnLW1hJywgJzUwMCcsICctaW1hZScsICc8aW5maWxlLm1hZT4nLCAnLW9tYWUnLCAnPG91dGZpbGUubWFlPic=

>  <s_epik_input>  (1) 
W0NIMl0xW0NIMl1bQ0hdMUMoPU8pTjJbTkhdW0NAQEhdMltDSDJdL0MoW0NIM10pPU5cW0NIMl1bTkhdW0NASF0oW09IXSlbQ0gyXVtDQEhdKFtDSDJdW0NIMl1bQ0hdKFtDSDNdKVtDSDNdKVtDQEBIXShbQ0gyXVtDSDJdMylDKFtDSF09TjQpPUMzTihDND01KVtOSF1bQ0gyXUM1W0NIM10=

>  <s_glide_docking_method>  (1) 
confgen

>  <s_i_glide_gridfile>  (1) 
gpcr_5ht2c_6bqh_protein_autoprepared_prepared

>  <s_lp_Force_Field>  (1) 
S-OPLS

>  <s_lp_Variant>  (1) 
DiffSBDD_62-3

>  <s_m_source_file>  (1) 
generated_GPCR_5HT2C_ligand_DiffSBDD_2026-06-23_prepared.sdf

>  <GenAI_Model>  (1) 
DiffSBDD

>  <Protein>  (1) 
GPCR_5HT2C

$$$$
DiffSBDD_83
     RDKit          3D

  0  0  0  0  0  0  0  0  0  0999 V3000
M  V30 BEGIN CTAB
M  V30 COUNTS 54 55 0 0 1
M  V30 BEGIN ATOM
M  V30 1 C 40.053738 35.433006 62.241110 0
M  V30 2 C 38.869481 30.606556 56.941409 0
M  V30 3 N 38.841761 30.153708 58.228553 0
M  V30 4 O 40.349602 25.801752 55.870486 0
M  V30 5 O 40.445296 36.174174 63.294055 0
M  V30 6 C 38.162174 35.370834 60.601478 0
M  V30 7 C 36.900574 35.980462 60.003762 0
M  V30 8 C 38.483353 25.151513 56.880633 0
M  V30 9 C 39.665567 28.332440 51.445106 0
M  V30 10 C 38.808758 35.980462 61.633770 0
M  V30 11 C 39.302506 29.744713 55.802378 0
M  V30 12 C 37.629234 33.387228 58.992328 0
M  V30 13 N 38.416947 31.065349 59.116055 0
M  V30 14 O 41.692780 35.737232 63.907657 0
M  V30 15 C 39.057157 27.453822 54.619516 0 CFG=1
M  V30 16 C 37.338151 28.876700 53.266394 0
M  V30 17 C 39.761977 25.289584 56.950220 0
M  V30 18 O 40.658792 34.437119 61.840218 0
M  V30 19 C 39.175244 25.972098 55.037704 0 CFG=2
M  V30 20 C 38.445156 31.899074 56.971998 0
M  V30 21 O 37.961532 25.547018 55.716657 0
M  V30 22 C 38.800020 27.217231 52.055982 0
M  V30 23 C 38.092289 27.548819 53.398332 0 CFG=1
M  V30 24 C 38.163192 32.137371 58.357304 0
M  V30 25 Cl 37.533400 24.532299 58.167761 0
M  V30 26 C 38.630663 34.046879 59.964395 0
M  V30 27 C 38.722049 28.319669 55.861785 0
M  V30 28 H 39.101794 29.221386 58.516347 0
M  V30 29 H 37.042945 36.210652 58.947318 0
M  V30 30 H 36.045921 35.311609 60.107625 0
M  V30 31 H 36.641353 36.913658 60.504465 0
M  V30 32 H 40.239988 27.948970 50.602166 0
M  V30 33 H 39.054618 29.148914 51.059746 0
M  V30 34 H 40.366233 28.749414 52.167131 0
M  V30 35 H 38.418412 36.901106 62.042512 0
M  V30 36 H 39.024245 30.238585 54.875067 0
M  V30 37 H 40.391179 29.689750 55.780708 0
M  V30 38 H 36.700662 33.152440 59.513643 0
M  V30 39 H 37.364211 34.080357 58.193512 0
M  V30 40 H 42.266397 36.451935 63.672117 0
M  V30 41 H 40.045099 27.733827 54.298387 0
M  V30 42 H 37.995065 29.699151 52.988848 0
M  V30 43 H 36.572891 28.773876 52.498724 0
M  V30 44 H 36.845137 29.167445 54.188551 0
M  V30 45 H 40.426598 25.055739 57.768503 0
M  V30 46 H 39.327237 25.337738 54.170126 0
M  V30 47 H 38.333397 32.573135 56.135534 0
M  V30 48 H 39.428442 26.336719 52.172950 0
M  V30 49 H 38.045874 26.937860 51.319233 0
M  V30 50 H 37.316637 26.795187 53.546002 0
M  V30 51 H 39.581948 34.195711 59.452787 0
M  V30 52 H 38.804956 33.319151 60.757156 0
M  V30 53 H 39.146890 27.867766 56.755285 0
M  V30 54 H 37.645637 28.333322 56.039155 0
M  V30 END ATOM
M  V30 BEGIN BOND
M  V30 1 1 3 2
M  V30 2 1 5 1
M  V30 3 1 7 6
M  V30 4 1 10 1
M  V30 5 2 10 6
M  V30 6 1 11 2
M  V30 7 1 13 3
M  V30 8 1 14 5
M  V30 9 1 17 4
M  V30 10 2 17 8
M  V30 11 2 18 1
M  V30 12 1 19 4
M  V30 13 1 19 15
M  V30 14 2 20 2
M  V30 15 1 21 8
M  V30 16 1 21 19
M  V30 17 1 22 9
M  V30 18 1 23 15
M  V30 19 1 23 16
M  V30 20 1 23 22
M  V30 21 1 24 12
M  V30 22 2 24 13
M  V30 23 1 24 20
M  V30 24 1 25 8
M  V30 25 1 26 6
M  V30 26 1 26 12
M  V30 27 1 27 11
M  V30 28 1 27 15
M  V30 29 1 28 3
M  V30 30 1 29 7
M  V30 31 1 30 7
M  V30 32 1 31 7
M  V30 33 1 32 9
M  V30 34 1 33 9
M  V30 35 1 34 9
M  V30 36 1 35 10
M  V30 37 1 36 11
M  V30 38 1 37 11
M  V30 39 1 38 12
M  V30 40 1 39 12
M  V30 41 1 40 14
M  V30 42 1 15 41 CFG=3
M  V30 43 1 42 16
M  V30 44 1 43 16
M  V30 45 1 44 16
M  V30 46 1 45 17
M  V30 47 1 19 46 CFG=3
M  V30 48 1 47 20
M  V30 49 1 48 22
M  V30 50 1 49 22
M  V30 51 1 23 50 CFG=1
M  V30 52 1 51 26
M  V30 53 1 52 26
M  V30 54 1 53 27
M  V30 55 1 54 27
M  V30 END BOND
M  V30 END CTAB
M  END
>  <i_epik_Tot_Q>  (1) 
0

>  <i_epik_Tot_abs_Q>  (1) 
0

>  <i_i_glide_confnum>  (1) 
1897

>  <i_i_glide_lignum>  (1) 
192

>  <i_i_glide_posenum>  (1) 
323

>  <i_i_glide_rotatable_bonds>  (1) 
12

>  <i_lp_mmshare_version>  (1) 
72125

>  <i_m_source_file_index>  (1) 
84

>  <i_f3d_flags>  (1) 
0

>  <num_sample>  (1) 
100

>  <b_lp_Chiralities_Consistent>  (1) 
1

>  <r_epik_Charging_Adjusted_Penalty>  (1) 
0.41067983895260396

>  <r_epik_Ionization_Penalty>  (1) 
0.00076996626271645392

>  <r_epik_Ionization_Penalty_Charging>  (1) 
0

>  <r_epik_Ionization_Penalty_Neutral>  (1) 
0.00076996626271645392

>  <r_epik_State_Penalty>  (1) 
0.41067983895260396

>  <r_glide_ring_energy>  (1) 
0

>  <r_i_docking_score>  (1) 
-6.0790372860737039

>  <r_i_glide_ecoul>  (1) 
-1.7444578328711204

>  <r_i_glide_eff_state_penalty>  (1) 
0.41067983895260396

>  <r_i_glide_einternal>  (1) 
4.1986211650391496

>  <r_i_glide_emodel>  (1) 
-56.193127174909264

>  <r_i_glide_emodel_strain>  (1) 
0.26301400499855276

>  <r_i_glide_energy>  (1) 
-41.207254227807219

>  <r_i_glide_erotb>  (1) 
1.1080255732668134

>  <r_i_glide_esite>  (1) 
-0.044565956202731197

>  <r_i_glide_evdw>  (1) 
-39.462796394936099

>  <r_i_glide_gscore>  (1) 
-6.4897171250263082

>  <r_i_glide_gscore_strain>  (1) 
0

>  <r_i_glide_hbond>  (1) 
-0.054466208923798422

>  <r_i_glide_ligand_efficiency>  (1) 
-0.2251495291138409

>  <r_i_glide_ligand_efficiency_ln>  (1) 
-1.4150996594356191

>  <r_i_glide_ligand_efficiency_sa>  (1) 
-0.6754485873415228

>  <r_i_glide_lipo>  (1) 
-3.2488919695498253

>  <r_i_glide_metal>  (1) 
-0

>  <r_i_glide_rewards>  (1) 
-2.0150100689392927

>  <r_lp_Energy>  (1) 
14.849965999999998

>  <r_lp_tautomer_probability>  (1) 
0.5

>  <s_epik_Chemistry_Notes>  (1) 
This compound contains an acetal/aminal-like group ( X-CH(R)-Y where X, Y are N, S, or O) that may be acid/base labile, releasing an aldehyde.

>  <s_epik_cmdline>  (1) 
J2VwaWtfcHl0aG9uJywgJy1waHQnLCAnMS4wJywgJy1waCcsICc3LjQnLCAnLXRuJywgJzgnLCAnLW1hJywgJzUwMCcsICctaW1hZScsICc8aW5maWxlLm1hZT4nLCAnLW9tYWUnLCAnPG91dGZpbGUubWFlPic=

>  <s_epik_input>  (1) 
W09IXU9DKD1PKVxbQ0hdPUMoXFtDSDNdKVtDSDJdW0NIMl1jKFtjSF0xKW5bbkhdYzFbQ0gyXVtDSDJdW0NASF0oW0NAQEhdKFtDSDNdKVtDSDJdW0NIM10pW0NAQEhdKE8yKU9bQ0hdPUMyQ2w=

>  <s_glide_docking_method>  (1) 
confgen

>  <s_i_glide_gridfile>  (1) 
gpcr_5ht2c_6bqh_protein_autoprepared_prepared

>  <s_lp_Force_Field>  (1) 
S-OPLS

>  <s_lp_Variant>  (1) 
DiffSBDD_83-3

>  <s_m_source_file>  (1) 
generated_GPCR_5HT2C_ligand_DiffSBDD_2026-06-23_prepared.sdf

>  <GenAI_Model>  (1) 
DiffSBDD

>  <Protein>  (1) 
GPCR_5HT2C

$$$$
DiffSBDD_73
     RDKit          3D

  0  0  0  0  0  0  0  0  0  0999 V3000
M  V30 BEGIN CTAB
M  V30 COUNTS 64 65 0 0 1
M  V30 BEGIN ATOM
M  V30 1 C 39.566751 32.478066 61.916555 0 CFG=1
M  V30 2 C 39.653650 29.347747 57.872233 0
M  V30 3 N 39.249499 30.079430 53.298821 0
M  V30 4 C 37.614792 35.683533 60.891947 0
M  V30 5 C 38.243330 34.466056 60.885294 0
M  V30 6 C 38.448135 31.598786 61.340558 0
M  V30 7 C 39.193514 29.408024 52.005892 0 CFG=2
M  V30 8 N 37.773234 30.396363 56.659780 0
M  V30 9 O 37.386808 29.106529 54.167706 0
M  V30 10 C 40.130175 30.501530 63.669717 0
M  V30 11 C 38.435027 30.880487 55.428769 0 CFG=1
M  V30 12 C 38.825959 36.776253 62.969896 0
M  V30 13 C 37.823465 36.858799 61.848998 0 CFG=1
M  V30 14 C 38.309757 29.918896 54.244791 0
M  V30 15 O 38.802985 31.309919 60.003544 0
M  V30 16 C 39.404631 27.173372 50.862801 0
M  V30 17 C 39.343119 33.982467 61.780040 0
M  V30 18 C 40.125584 36.317973 62.397932 0
M  V30 19 C 38.676388 30.539041 57.812176 0 CFG=1
M  V30 20 C 40.371699 31.878962 63.084707 0 CFG=1
M  V30 21 O 38.045033 38.041244 61.103370 0
M  V30 22 C 39.726945 27.978767 52.099744 0
M  V30 23 C 37.969362 30.684554 59.165357 0
M  V30 24 O 36.840122 30.278377 59.440875 0
M  V30 25 C 37.859628 32.240582 55.017808 0
M  V30 26 C 40.165303 34.831405 62.454313 0
M  V30 27 C 39.961515 30.255498 50.972992 0
M  V30 28 C 41.002960 31.998473 61.727512 0
M  V30 29 H 40.359375 29.442245 58.698101 0
M  V30 30 H 39.116386 28.407776 58.003929 0
M  V30 31 H 40.240756 29.258034 56.959109 0
M  V30 32 H 39.994045 30.742575 53.454741 0
M  V30 33 H 36.838294 35.841810 60.157566 0
M  V30 34 H 37.891026 33.768072 60.141868 0
M  V30 35 H 38.354003 30.663055 61.889070 0
M  V30 36 H 37.478239 32.090885 61.413565 0
M  V30 37 H 38.150711 29.337732 51.692121 0
M  V30 38 H 36.890124 30.891966 56.811032 0
M  V30 39 H 39.999331 29.747545 62.893785 0
M  V30 40 H 40.981596 30.203337 64.281119 0
M  V30 41 H 39.245033 30.518044 64.304445 0
M  V30 42 H 39.506490 31.007935 55.596791 0
M  V30 43 H 38.958680 37.737754 63.449797 0
M  V30 44 H 38.474506 36.125774 63.768111 0
M  V30 45 H 36.854552 37.006263 62.326699 0
M  V30 46 H 39.645055 26.137755 51.042729 0
M  V30 47 H 38.362813 27.231044 50.567937 0
M  V30 48 H 40.021856 27.532823 50.050623 0
M  V30 49 H 40.942985 36.690496 63.015515 0
M  V30 50 H 40.317116 36.678320 61.386150 0
M  V30 51 H 39.245166 31.462247 57.682732 0
M  V30 52 H 40.710259 32.561253 63.856831 0
M  V30 53 H 37.284652 38.215242 60.568134 0
M  V30 54 H 40.810461 27.984601 52.167610 0
M  V30 55 H 39.331652 27.468688 52.979172 0
M  V30 56 H 38.445310 32.692935 54.219697 0
M  V30 57 H 36.845193 32.126079 54.635520 0
M  V30 58 H 37.834718 32.944455 55.851058 0
M  V30 59 H 40.946999 34.424595 63.071837 0
M  V30 60 H 39.799626 29.885315 49.960206 0
M  V30 61 H 39.645080 31.299032 50.987139 0
M  V30 62 H 41.034787 30.244835 51.161777 0
M  V30 63 H 41.157008 31.084190 61.158636 0
M  V30 64 H 41.790669 32.739440 61.606296 0
M  V30 END ATOM
M  V30 BEGIN BOND
M  V30 1 2 5 4
M  V30 2 1 1 6 CFG=3
M  V30 3 1 7 3
M  V30 4 1 11 8
M  V30 5 1 13 4
M  V30 6 1 13 12
M  V30 7 1 14 3
M  V30 8 2 14 9
M  V30 9 1 14 11
M  V30 10 1 15 6
M  V30 11 1 17 1
M  V30 12 1 17 5
M  V30 13 1 18 12
M  V30 14 1 19 2
M  V30 15 1 19 8
M  V30 16 1 20 1
M  V30 17 1 20 10
M  V30 18 1 21 13
M  V30 19 1 22 7
M  V30 20 1 22 16
M  V30 21 1 23 15
M  V30 22 1 23 19
M  V30 23 2 24 23
M  V30 24 1 25 11
M  V30 25 2 26 17
M  V30 26 1 26 18
M  V30 27 1 27 7
M  V30 28 1 28 1
M  V30 29 1 28 20
M  V30 30 1 29 2
M  V30 31 1 30 2
M  V30 32 1 31 2
M  V30 33 1 32 3
M  V30 34 1 33 4
M  V30 35 1 34 5
M  V30 36 1 35 6
M  V30 37 1 36 6
M  V30 38 1 7 37 CFG=3
M  V30 39 1 38 8
M  V30 40 1 39 10
M  V30 41 1 40 10
M  V30 42 1 41 10
M  V30 43 1 11 42 CFG=1
M  V30 44 1 43 12
M  V30 45 1 44 12
M  V30 46 1 13 45 CFG=1
M  V30 47 1 46 16
M  V30 48 1 47 16
M  V30 49 1 48 16
M  V30 50 1 49 18
M  V30 51 1 50 18
M  V30 52 1 19 51 CFG=3
M  V30 53 1 20 52 CFG=1
M  V30 54 1 53 21
M  V30 55 1 54 22
M  V30 56 1 55 22
M  V30 57 1 56 25
M  V30 58 1 57 25
M  V30 59 1 58 25
M  V30 60 1 59 26
M  V30 61 1 60 27
M  V30 62 1 61 27
M  V30 63 1 62 27
M  V30 64 1 63 28
M  V30 65 1 64 28
M  V30 END BOND
M  V30 END CTAB
M  END
>  <i_epik_Tot_Q>  (1) 
0

>  <i_epik_Tot_abs_Q>  (1) 
0

>  <i_i_glide_confnum>  (1) 
3225

>  <i_i_glide_lignum>  (1) 
158

>  <i_i_glide_posenum>  (1) 
336

>  <i_i_glide_rotatable_bonds>  (1) 
12

>  <i_lp_mmshare_version>  (1) 
72125

>  <i_m_source_file_index>  (1) 
74

>  <i_f3d_flags>  (1) 
0

>  <num_sample>  (1) 
100

>  <b_lp_Chiralities_Consistent>  (1) 
1

>  <r_epik_Charging_Adjusted_Penalty>  (1) 
0.088841992990236665

>  <r_epik_Ionization_Penalty>  (1) 
0.088842122646257599

>  <r_epik_Ionization_Penalty_Charging>  (1) 
0

>  <r_epik_Ionization_Penalty_Neutral>  (1) 
0.088842122646257599

>  <r_epik_State_Penalty>  (1) 
0.088841992990236665

>  <r_glide_ring_energy>  (1) 
0

>  <r_i_docking_score>  (1) 
-6.0767736154367613

>  <r_i_glide_ecoul>  (1) 
-4.6213981798828163

>  <r_i_glide_eff_state_penalty>  (1) 
0.088841992990236665

>  <r_i_glide_einternal>  (1) 
12.804590866619886

>  <r_i_glide_emodel>  (1) 
-53.089082601891946

>  <r_i_glide_emodel_strain>  (1) 
1.0597741965572283

>  <r_i_glide_energy>  (1) 
-44.183830399957372

>  <r_i_glide_erotb>  (1) 
1.2671681791471729

>  <r_i_glide_esite>  (1) 
-0.03249317762809311

>  <r_i_glide_evdw>  (1) 
-39.562432220074555

>  <r_i_glide_gscore>  (1) 
-6.1656156084269984

>  <r_i_glide_gscore_strain>  (1) 
0

>  <r_i_glide_hbond>  (1) 
-0.16

>  <r_i_glide_ligand_efficiency>  (1) 
-0.21702762912274148

>  <r_i_glide_ligand_efficiency_ln>  (1) 
-1.4026977722690666

>  <r_i_glide_ligand_efficiency_sa>  (1) 
-0.65902370518643827

>  <r_i_glide_lipo>  (1) 
-3.4876972776007999

>  <r_i_glide_metal>  (1) 
-0

>  <r_i_glide_rewards>  (1) 
-1.0812619943591262

>  <r_lp_Energy>  (1) 
23.544556

>  <s_epik_Chemistry_Notes>  (1) 
This compound has an ester and may undergo hydrolysis at high or low pH.

>  <s_epik_cmdline>  (1) 
J2VwaWtfcHl0aG9uJywgJy1waHQnLCAnMS4wJywgJy1waCcsICc3LjQnLCAnLXRuJywgJzgnLCAnLW1hJywgJzUwMCcsICctaW1hZScsICc8aW5maWxlLm1hZT4nLCAnLW9tYWUnLCAnPG91dGZpbGUubWFlPic=

>  <s_epik_input>  (1) 
W09IXVtDQEhdMVtDSF09W0NIXUMoPVtDSF1bQ0gyXVtDSDJdMSlbQ0BAXTIoW0NAQEhdKFtDSDNdKVtDSDJdMilbQ0gyXU9DKD1PKVtDQEBIXShbQ0gzXSlbTkhdW0NASF0oW0NIM10pQyg9TylbTkhdW0NAQEhdKFtDSDNdKVtDSDJdW0NIM10=

>  <s_glide_docking_method>  (1) 
confgen

>  <s_i_glide_gridfile>  (1) 
gpcr_5ht2c_6bqh_protein_autoprepared_prepared

>  <s_lp_Force_Field>  (1) 
S-OPLS

>  <s_lp_Variant>  (1) 
DiffSBDD_73-1

>  <s_m_source_file>  (1) 
generated_GPCR_5HT2C_ligand_DiffSBDD_2026-06-23_prepared.sdf

>  <GenAI_Model>  (1) 
DiffSBDD

>  <Protein>  (1) 
GPCR_5HT2C

$$$$
DiffSBDD_92
     RDKit          3D

  0  0  0  0  0  0  0  0  0  0999 V3000
M  V30 BEGIN CTAB
M  V30 COUNTS 72 74 0 0 1
M  V30 BEGIN ATOM
M  V30 1 C 38.336470 30.726157 60.163751 0 CFG=2
M  V30 2 O 38.973797 26.937950 52.979882 0
M  V30 3 C 39.741176 34.072380 62.442115 0
M  V30 4 C 38.845624 27.209544 54.194892 0
M  V30 5 C 43.988164 30.753822 66.833273 0
M  V30 6 C 38.664445 30.389734 56.340942 0
M  V30 7 C 44.526884 28.227815 67.154236 0
M  V30 8 O 38.688567 32.706967 55.695641 0
M  V30 9 C 41.194857 32.206944 63.523117 0 CFG=2
M  V30 10 C 38.845119 31.026123 53.991497 0
M  V30 11 C 34.884826 32.662612 59.864527 0
M  V30 12 N 38.585399 30.814944 57.718828 0
M  V30 13 N 44.445175 27.076907 66.482530 0
M  V30 14 S 39.924061 30.937692 63.363484 0
M  V30 15 O 38.755646 26.339489 55.089561 0 CHG=-1
M  V30 16 O 38.019540 28.839241 58.704475 0
M  V30 17 C 44.045826 29.440587 66.443486 0
M  V30 18 C 37.183344 33.742942 59.602056 0
M  V30 19 C 41.071228 33.307914 62.440136 0
M  V30 20 C 36.381915 32.421806 59.611331 0 CFG=1
M  V30 21 C 42.549229 31.505145 63.399632 0
M  V30 22 C 37.057249 34.593130 60.882063 0
M  V30 23 O 44.971473 28.299967 68.296961 0
M  V30 24 C 38.878063 29.670636 53.617536 0
M  V30 25 S 43.430769 29.236092 64.826283 0
M  V30 26 C 38.697957 29.014234 55.965137 0
M  V30 27 C 43.112664 30.937407 64.664226 0
M  V30 28 C 38.735388 31.385972 55.345259 0
M  V30 29 C 43.453133 31.612582 65.815446 0
M  V30 30 C 38.303493 30.027921 58.785273 0
M  V30 31 C 38.803707 28.660247 54.600253 0
M  V30 32 C 38.954373 29.902989 61.348400 0 CFG=2
M  V30 33 C 39.603739 35.030556 61.245477 0
M  V30 34 O 39.999312 30.686306 61.893833 0
M  V30 35 C 39.621415 28.539582 61.070165 0
M  V30 36 C 36.951595 31.319980 60.547735 0
M  V30 37 C 38.189024 35.624654 61.075975 0
M  V30 38 H 39.012003 31.570548 60.027642 0
M  V30 39 H 39.645113 34.636293 63.367794 0
M  V30 40 H 38.929889 33.349225 62.426231 0
M  V30 41 H 44.309228 31.126414 67.794921 0
M  V30 42 H 37.839021 32.933000 56.053666 0
M  V30 43 H 41.102760 32.676542 64.503053 0
M  V30 44 H 38.899751 31.793556 53.234480 0
M  V30 45 H 34.691560 32.992823 60.885256 0
M  V30 46 H 34.315541 31.749516 59.692549 0
M  V30 47 H 34.489052 33.417621 59.184177 0
M  V30 48 H 38.737743 31.796691 57.891920 0
M  V30 49 H 44.073894 27.066793 65.544406 0
M  V30 50 H 44.757817 26.221352 66.914935 0
M  V30 51 H 36.855935 34.350101 58.756537 0
M  V30 52 H 38.223257 33.515587 59.386386 0
M  V30 53 H 41.876229 34.031201 62.570981 0
M  V30 54 H 41.227008 32.862878 61.456143 0
M  V30 55 H 36.445253 32.039850 58.596786 0
M  V30 56 H 42.479609 30.716798 62.652210 0
M  V30 57 H 43.245123 32.207387 62.967388 0
M  V30 58 H 36.105444 35.123061 60.843671 0
M  V30 59 H 36.979793 33.959183 61.761839 0
M  V30 60 H 38.961220 29.404297 52.573584 0
M  V30 61 H 38.659394 28.235486 56.700011 0
M  V30 62 H 43.345786 32.677719 65.959124 0
M  V30 63 H 38.182407 29.737784 62.098513 0
M  V30 64 H 40.317150 35.847141 61.362514 0
M  V30 65 H 39.902641 34.523867 60.329110 0
M  V30 66 H 38.893387 27.791634 60.760566 0
M  V30 67 H 40.095761 28.151141 61.971920 0
M  V30 68 H 40.392270 28.613243 60.302522 0
M  V30 69 H 36.234797 30.499429 60.587867 0
M  V30 70 H 36.999323 31.711174 61.563256 0
M  V30 71 H 37.958612 36.234552 61.950352 0
M  V30 72 H 38.191403 36.310223 60.227629 0
M  V30 END ATOM
M  V30 BEGIN BOND
M  V30 1 2 4 2
M  V30 2 1 12 6
M  V30 3 1 13 7
M  V30 4 1 14 9
M  V30 5 1 15 4
M  V30 6 2 17 5
M  V30 7 1 17 7
M  V30 8 1 19 3
M  V30 9 1 19 9
M  V30 10 1 20 11
M  V30 11 1 20 18
M  V30 12 1 21 9
M  V30 13 1 22 18
M  V30 14 2 23 7
M  V30 15 2 24 10
M  V30 16 1 25 17
M  V30 17 1 26 6
M  V30 18 1 27 21
M  V30 19 1 27 25
M  V30 20 2 28 6
M  V30 21 1 28 8
M  V30 22 1 28 10
M  V30 23 1 29 5
M  V30 24 2 29 27
M  V30 25 1 30 1
M  V30 26 1 30 12
M  V30 27 2 30 16
M  V30 28 1 31 4
M  V30 29 1 31 24
M  V30 30 2 31 26
M  V30 31 1 32 1
M  V30 32 1 33 3
M  V30 33 1 34 14
M  V30 34 1 34 32
M  V30 35 1 35 32
M  V30 36 1 36 1
M  V30 37 1 36 20
M  V30 38 1 37 22
M  V30 39 1 37 33
M  V30 40 1 1 38 CFG=3
M  V30 41 1 39 3
M  V30 42 1 40 3
M  V30 43 1 41 5
M  V30 44 1 42 8
M  V30 45 1 9 43 CFG=1
M  V30 46 1 44 10
M  V30 47 1 45 11
M  V30 48 1 46 11
M  V30 49 1 47 11
M  V30 50 1 48 12
M  V30 51 1 49 13
M  V30 52 1 50 13
M  V30 53 1 51 18
M  V30 54 1 52 18
M  V30 55 1 53 19
M  V30 56 1 54 19
M  V30 57 1 20 55 CFG=3
M  V30 58 1 56 21
M  V30 59 1 57 21
M  V30 60 1 58 22
M  V30 61 1 59 22
M  V30 62 1 60 24
M  V30 63 1 61 26
M  V30 64 1 62 29
M  V30 65 1 32 63 CFG=1
M  V30 66 1 64 33
M  V30 67 1 65 33
M  V30 68 1 66 35
M  V30 69 1 67 35
M  V30 70 1 68 35
M  V30 71 1 69 36
M  V30 72 1 70 36
M  V30 73 1 71 37
M  V30 74 1 72 37
M  V30 END BOND
M  V30 END CTAB
M  END
>  <i_epik_Tot_Q>  (1) 
-1

>  <i_epik_Tot_abs_Q>  (1) 
1

>  <i_i_glide_confnum>  (1) 
43

>  <i_i_glide_lignum>  (1) 
212

>  <i_i_glide_posenum>  (1) 
213

>  <i_i_glide_rotatable_bonds>  (1) 
8

>  <i_lp_mmshare_version>  (1) 
72125

>  <i_m_source_file_index>  (1) 
93

>  <i_f3d_flags>  (1) 
0

>  <num_sample>  (1) 
100

>  <b_lp_Chiralities_Consistent>  (1) 
1

>  <r_epik_Charging_Adjusted_Penalty>  (1) 
0.00060253989728688382

>  <r_epik_Ionization_Penalty>  (1) 
0.0030111313993829731

>  <r_epik_Ionization_Penalty_Charging>  (1) 
0.00060253989728688382

>  <r_epik_Ionization_Penalty_Neutral>  (1) 
0.0024085915020960894

>  <r_epik_State_Penalty>  (1) 
-0

>  <r_glide_ring_energy>  (1) 
0

>  <r_i_docking_score>  (1) 
-6.0763075746345816

>  <r_i_glide_ecoul>  (1) 
-0.22329038759560849

>  <r_i_glide_eff_state_penalty>  (1) 
-0

>  <r_i_glide_einternal>  (1) 
25.925613938699563

>  <r_i_glide_emodel>  (1) 
-39.648591099277581

>  <r_i_glide_emodel_strain>  (1) 
4.2535946563091471

>  <r_i_glide_energy>  (1) 
-48.139944208124234

>  <r_i_glide_erotb>  (1) 
0.34529747416661971

>  <r_i_glide_esite>  (1) 
-0.069695208613751364

>  <r_i_glide_evdw>  (1) 
-47.916653820528623

>  <r_i_glide_gscore>  (1) 
-6.0763075746345816

>  <r_i_glide_gscore_strain>  (1) 
0.063398664077286782

>  <r_i_glide_hbond>  (1) 
0

>  <r_i_glide_ligand_efficiency>  (1) 
-0.16422452904417789

>  <r_i_glide_ligand_efficiency_ln>  (1) 
-1.3178086640779081

>  <r_i_glide_ligand_efficiency_sa>  (1) 
-0.54723256425727518

>  <r_i_glide_lipo>  (1) 
-2.9224918122390382

>  <r_i_glide_metal>  (1) 
-0

>  <r_i_glide_rewards>  (1) 
-1.0634904428599261

>  <r_lp_Energy>  (1) 
30.701922999999997

>  <r_lp_tautomer_probability>  (1) 
1

>  <s_epik_cmdline>  (1) 
J2VwaWtfcHl0aG9uJywgJy1waHQnLCAnMS4wJywgJy1waCcsICc3LjQnLCAnLXRuJywgJzgnLCAnLW1hJywgJzUwMCcsICctaW1hZScsICc8aW5maWxlLm1hZT4nLCAnLW9tYWUnLCAnPG91dGZpbGUubWFlPic=

>  <s_epik_input>  (1) 
W09IXWMxW2NIXVtjSF1jKEMoPU8pW09IXSlbY0hdYzFbTkhdQyg9TylbQ0BASF0yW0NAQEhdKFtDSDNdKU9TW0NAQEhdKFtDSDJdYyhzMylbY0hdW2NIXWMzQyg9TylbTkgyXSlbQ0gyXVtDSDJdW0NIMl1bQ0gyXVtDSDJdW0NIMl1bQ0BIXShbQ0gzXSlbQ0gyXTI=

>  <s_glide_docking_method>  (1) 
confgen

>  <s_i_glide_gridfile>  (1) 
gpcr_5ht2c_6bqh_protein_autoprepared_prepared

>  <s_lp_Force_Field>  (1) 
S-OPLS

>  <s_lp_Variant>  (1) 
DiffSBDD_92-1

>  <s_m_source_file>  (1) 
generated_GPCR_5HT2C_ligand_DiffSBDD_2026-06-23_prepared.sdf

>  <GenAI_Model>  (1) 
DiffSBDD

>  <Protein>  (1) 
GPCR_5HT2C

$$$$
DiffSBDD_49
     RDKit          3D

  0  0  0  0  0  0  0  0  0  0999 V3000
M  V30 BEGIN CTAB
M  V30 COUNTS 75 80 0 0 1
M  V30 BEGIN ATOM
M  V30 1 N 37.866532 35.855014 60.368056 0 CHG=1
M  V30 2 C 39.738763 35.460295 62.562174 0
M  V30 3 C 40.248191 33.287854 61.740618 0 CFG=2
M  V30 4 O 36.301421 34.668671 59.363391 0
M  V30 5 C 39.048863 34.256023 61.920735 0 CFG=2
M  V30 6 C 39.619308 28.207226 56.690389 0 CFG=1
M  V30 7 O 37.712945 26.624129 56.874419 0
M  V30 8 O 39.104242 36.332939 63.150783 0
M  V30 9 C 41.200968 35.509749 62.399991 0 CFG=2
M  V30 10 C 39.645109 29.654768 54.535426 0
M  V30 11 C 37.512196 26.537791 55.473042 0
M  V30 12 C 36.753902 35.870637 59.713483 0
M  V30 13 C 39.027818 31.227795 62.549829 0
M  V30 14 C 37.574352 32.624050 58.999841 0
M  V30 15 C 41.645136 35.337773 60.967763 0
M  V30 16 C 39.060963 26.854104 57.271215 0 CFG=1
M  V30 17 C 37.215679 33.730669 60.011154 0 CFG=1
M  V30 18 F 40.011579 27.337690 54.569778 0
M  V30 19 C 40.705381 32.364743 64.120569 0
M  V30 20 C 37.862332 27.905037 54.861513 0
M  V30 21 N 36.045141 36.937763 59.369707 0
M  V30 22 C 37.510159 31.193862 59.572715 0
M  V30 23 C 38.992794 30.200667 61.420614 0
M  V30 24 C 38.891202 30.578409 59.916519 0 CFG=1
M  V30 25 C 39.876918 25.600318 56.912364 0
M  V30 26 C 39.294392 29.353924 59.019775 0 CFG=2
M  V30 27 C 39.302273 28.289079 55.170754 0 CFG=1
M  V30 28 C 39.172075 29.493406 57.477664 0
M  V30 29 C 38.469356 28.137539 59.372136 0
M  V30 30 C 39.042619 26.866942 58.792137 0
M  V30 31 C 38.452222 34.568201 60.532107 0 CFG=1
M  V30 32 C 40.314503 32.053923 62.659780 0 CFG=2
M  V30 33 C 41.474422 34.139234 61.857260 0 CFG=2
M  V30 34 H 40.279566 32.933350 60.720377 0
M  V30 35 H 38.293065 33.844382 62.567760 0
M  V30 36 H 40.705413 28.175047 56.796530 0
M  V30 37 H 41.856357 35.883721 63.185158 0
M  V30 38 H 38.964200 30.440871 54.859918 0
M  V30 39 H 40.654849 29.976720 54.794549 0
M  V30 40 H 39.584827 29.602377 53.447254 0
M  V30 41 H 38.062810 25.722073 55.004826 0
M  V30 42 H 36.459311 26.306013 55.328815 0
M  V30 43 H 38.931096 30.643556 63.465077 0
M  V30 44 H 38.125959 31.832880 62.528015 0
M  V30 45 H 38.517679 32.824523 58.492695 0
M  V30 46 H 36.845165 32.675724 58.194302 0
M  V30 47 H 40.902221 35.571936 60.213103 0
M  V30 48 H 42.655092 35.337747 60.567759 0
M  V30 49 H 36.669380 33.322403 60.861421 0
M  V30 50 H 40.045176 33.089899 64.583679 0
M  V30 51 H 40.690343 31.464176 64.735532 0
M  V30 52 H 41.715956 32.766884 64.190761 0
M  V30 53 H 37.679250 27.889108 53.786769 0
M  V30 54 H 37.245106 28.693580 55.277219 0
M  V30 55 H 36.334380 37.862944 59.662783 0
M  V30 56 H 35.208362 36.818924 58.816706 0
M  V30 57 H 36.986342 30.570117 58.850659 0
M  V30 58 H 36.845120 31.171141 60.435308 0
M  V30 59 H 39.789231 29.471882 61.584851 0
M  V30 60 H 38.051540 29.737768 61.642557 0
M  V30 61 H 39.645115 31.318051 59.734568 0
M  V30 62 H 40.845116 25.679667 57.386423 0
M  V30 63 H 39.398472 24.699466 57.299851 0
M  V30 64 H 40.053611 25.431316 55.853360 0
M  V30 65 H 40.339652 29.138056 59.247079 0
M  V30 66 H 38.143902 29.725717 57.202617 0
M  V30 67 H 39.761211 30.351429 57.158127 0
M  V30 68 H 38.405134 27.964660 60.441755 0
M  V30 69 H 37.481009 28.328717 58.967724 0
M  V30 70 H 40.045046 26.737980 59.194984 0
M  V30 71 H 38.459019 26.015913 59.143335 0
M  V30 72 H 39.218847 34.517723 59.767471 0
M  V30 73 H 41.125704 31.424969 62.289669 0
M  V30 74 H 42.384175 33.617066 62.144196 0
M  V30 75 H 38.324451 36.690601 60.705081 0
M  V30 END ATOM
M  V30 BEGIN BOND
M  V30 1 1 5 2
M  V30 2 1 5 3
M  V30 3 2 8 2
M  V30 4 1 9 2
M  V30 5 1 11 7
M  V30 6 2 12 1
M  V30 7 1 12 4
M  V30 8 1 15 9
M  V30 9 1 16 6
M  V30 10 1 16 7
M  V30 11 1 17 4
M  V30 12 1 17 14
M  V30 13 1 20 11
M  V30 14 1 21 12
M  V30 15 1 22 14
M  V30 16 1 23 13
M  V30 17 1 24 22
M  V30 18 1 24 23
M  V30 19 1 16 25 CFG=1
M  V30 20 1 26 24
M  V30 21 1 27 6
M  V30 22 1 27 10
M  V30 23 1 27 18 CFG=3
M  V30 24 1 27 20
M  V30 25 1 28 6
M  V30 26 1 28 26
M  V30 27 1 29 26
M  V30 28 1 30 16
M  V30 29 1 30 29
M  V30 30 1 31 1
M  V30 31 1 31 5
M  V30 32 1 31 17
M  V30 33 1 32 3
M  V30 34 1 32 13
M  V30 35 1 32 19
M  V30 36 1 33 3
M  V30 37 1 33 9
M  V30 38 1 33 15
M  V30 39 1 3 34 CFG=3
M  V30 40 1 5 35 CFG=1
M  V30 41 1 6 36 CFG=3
M  V30 42 1 9 37 CFG=1
M  V30 43 1 38 10
M  V30 44 1 39 10
M  V30 45 1 40 10
M  V30 46 1 41 11
M  V30 47 1 42 11
M  V30 48 1 43 13
M  V30 49 1 44 13
M  V30 50 1 45 14
M  V30 51 1 46 14
M  V30 52 1 47 15
M  V30 53 1 48 15
M  V30 54 1 17 49 CFG=1
M  V30 55 1 50 19
M  V30 56 1 51 19
M  V30 57 1 52 19
M  V30 58 1 53 20
M  V30 59 1 54 20
M  V30 60 1 55 21
M  V30 61 1 56 21
M  V30 62 1 57 22
M  V30 63 1 58 22
M  V30 64 1 59 23
M  V30 65 1 60 23
M  V30 66 1 24 61 CFG=1
M  V30 67 1 62 25
M  V30 68 1 63 25
M  V30 69 1 64 25
M  V30 70 1 26 65 CFG=3
M  V30 71 1 66 28
M  V30 72 1 67 28
M  V30 73 1 68 29
M  V30 74 1 69 29
M  V30 75 1 70 30
M  V30 76 1 71 30
M  V30 77 1 31 72 CFG=3
M  V30 78 1 32 73 CFG=3
M  V30 79 1 33 74 CFG=1
M  V30 80 1 75 1
M  V30 END BOND
M  V30 END CTAB
M  END
>  <i_epik_Tot_Q>  (1) 
1

>  <i_epik_Tot_abs_Q>  (1) 
1

>  <i_i_glide_confnum>  (1) 
1

>  <i_i_glide_lignum>  (1) 
102

>  <i_i_glide_posenum>  (1) 
162

>  <i_i_glide_rotatable_bonds>  (1) 
1

>  <i_lp_mmshare_version>  (1) 
72125

>  <i_m_source_file_index>  (1) 
50

>  <i_f3d_flags>  (1) 
0

>  <num_sample>  (1) 
100

>  <b_lp_Chiralities_Consistent>  (1) 
1

>  <r_epik_Charging_Adjusted_Penalty>  (1) 
0.054352883593996412

>  <r_epik_Ionization_Penalty>  (1) 
0.020131263556531623

>  <r_epik_Ionization_Penalty_Charging>  (1) 
0.012484738498558263

>  <r_epik_Ionization_Penalty_Neutral>  (1) 
0.0076465250579733583

>  <r_epik_State_Penalty>  (1) 
0.041868145095438146

>  <r_glide_ring_energy>  (1) 
0

>  <r_i_docking_score>  (1) 
-6.0754099245085431

>  <r_i_glide_ecoul>  (1) 
0.019934966996852932

>  <r_i_glide_eff_state_penalty>  (1) 
0.041868145095438146

>  <r_i_glide_einternal>  (1) 
3.6763047031686567

>  <r_i_glide_emodel>  (1) 
-14.3120483076504

>  <r_i_glide_emodel_strain>  (1) 
2.933537335197542

>  <r_i_glide_energy>  (1) 
-16.445573951656399

>  <r_i_glide_erotb>  (1) 
0.094491925132231133

>  <r_i_glide_esite>  (1) 
-0.0017547748155912841

>  <r_i_glide_evdw>  (1) 
-16.465508918653253

>  <r_i_glide_gscore>  (1) 
-6.117278069603981

>  <r_i_glide_gscore_strain>  (1) 
0

>  <r_i_glide_hbond>  (1) 
0

>  <r_i_glide_ligand_efficiency>  (1) 
-0.18410333104571341

>  <r_i_glide_ligand_efficiency_ln>  (1) 
-1.351139710421642

>  <r_i_glide_ligand_efficiency_sa>  (1) 
-0.59051775459571232

>  <r_i_glide_lipo>  (1) 
-3.6528664873909165

>  <r_i_glide_metal>  (1) 
-0

>  <r_i_glide_rewards>  (1) 
-1.736863531646569

>  <r_lp_Energy>  (1) 
45.880542999999996

>  <s_epik_Chemistry_Notes>  (1) 
This compound has an imine and may undergo hydrolysis.

>  <s_epik_cmdline>  (1) 
J2VwaWtfcHl0aG9uJywgJy1waHQnLCAnMS4wJywgJy1waCcsICc3LjQnLCAnLXRuJywgJzgnLCAnLW1hJywgJzUwMCcsICctaW1hZScsICc8aW5maWxlLm1hZT4nLCAnLW9tYWUnLCAnPG91dGZpbGUubWFlPic=

>  <s_epik_input>  (1) 
W0NIMl0xW0NASF0yW0NAQEhdMUMoPU8pW0NASF0oW0NAQEhdMjMpW0NASF00W0NAQEhdKE9DKD1ONClbTkgyXSlbQ0gyXVtDSDJdW0NAQEhdKFtDSDJdW0NIMl1bQ0BASF0zW0NIM10pW0NAQEhdKFtDSDJdW0NIMl01KVtDSDJdW0NAQEhdKFtDQEBdNTZbQ0gzXSlbQ0BdKEYpKFtDSDNdKVtDSDJdW0NIMl1PNg==

>  <s_glide_docking_method>  (1) 
confgen

>  <s_i_glide_gridfile>  (1) 
gpcr_5ht2c_6bqh_protein_autoprepared_prepared

>  <s_lp_Force_Field>  (1) 
S-OPLS

>  <s_lp_Variant>  (1) 
DiffSBDD_49-1

>  <s_m_source_file>  (1) 
generated_GPCR_5HT2C_ligand_DiffSBDD_2026-06-23_prepared.sdf

>  <GenAI_Model>  (1) 
DiffSBDD

>  <Protein>  (1) 
GPCR_5HT2C

$$$$
DiffSBDD_67
     RDKit          3D

  0  0  0  0  0  0  0  0  0  0999 V3000
M  V30 BEGIN CTAB
M  V30 COUNTS 76 77 0 0 1
M  V30 BEGIN ATOM
M  V30 1 C 38.232847 29.774160 59.441042 0
M  V30 2 O 40.845176 33.638168 65.042792 0
M  V30 3 O 41.738748 30.380393 62.922253 0 CHG=-1
M  V30 4 C 38.944890 28.477771 58.971642 0 CFG=1
M  V30 5 O 41.363525 28.400004 58.737509 0
M  V30 6 C 41.097380 34.464010 64.165690 0
M  V30 7 C 38.739151 28.186785 57.434759 0 CFG=1
M  V30 8 C 36.829184 29.881227 59.346766 0
M  V30 9 C 40.583428 28.197539 60.997433 0
M  V30 10 C 39.369503 29.265122 56.521423 0
M  V30 11 N 39.389334 30.129668 52.805201 0
M  V30 12 C 39.144503 33.214042 60.914824 0
M  V30 13 C 39.898507 29.606384 50.630856 0
M  V30 14 C 36.734562 25.741307 57.521223 0
M  V30 15 C 36.180292 31.060490 59.768114 0
M  V30 16 C 40.479810 26.365512 56.735404 0
M  V30 17 C 38.242462 25.587664 57.707105 0
M  V30 18 C 38.327069 32.038453 60.382087 0
M  V30 19 C 39.541147 33.177030 62.414208 0 CFG=2
M  V30 20 C 39.830386 31.335688 52.104470 0
M  V30 21 C 39.828201 29.000003 51.991826 0
M  V30 22 C 39.782505 31.089903 50.591474 0
M  V30 23 C 38.606879 24.161858 57.254701 0
M  V30 24 O 42.045208 32.207136 61.767743 0
M  V30 25 O 40.045142 28.937794 49.625867 0
M  V30 26 C 39.064796 29.103424 55.021780 0
M  V30 27 C 39.764574 30.188056 54.210104 0
M  V30 28 C 41.336162 31.481449 62.498266 0
M  V30 29 C 42.108896 35.572646 64.398789 0
M  V30 30 C 40.399493 34.429254 62.792083 0
M  V30 31 C 38.996451 26.708752 56.935918 0 CFG=1
M  V30 32 C 38.977296 30.862505 59.963780 0
M  V30 33 N 40.108311 31.889154 62.834917 0
M  V30 34 C 40.397492 28.357391 59.494782 0
M  V30 35 C 36.926621 32.135666 60.286029 0
M  V30 36 H 38.422396 27.689452 59.509636 0
M  V30 37 H 37.678859 28.349171 57.263084 0
M  V30 38 H 36.248298 29.062623 58.947154 0
M  V30 39 H 40.189385 29.063752 61.523324 0
M  V30 40 H 40.045150 27.337734 61.368014 0
M  V30 41 H 41.640634 28.094833 61.247689 0
M  V30 42 H 39.017866 30.246647 56.841282 0
M  V30 43 H 40.445118 29.295449 56.649673 0
M  V30 44 H 40.044951 33.283268 60.305150 0
M  V30 45 H 38.597096 34.136672 60.713272 0
M  V30 46 H 36.428569 25.555296 56.490838 0
M  V30 47 H 36.178577 25.067103 58.167697 0
M  V30 48 H 36.445117 26.752486 57.767771 0
M  V30 49 H 35.110220 31.144085 59.686957 0
M  V30 50 H 40.960774 26.121691 57.681469 0
M  V30 51 H 40.590340 25.508551 56.072329 0
M  V30 52 H 41.043975 27.170815 56.269636 0
M  V30 53 H 38.476382 25.659688 58.768064 0
M  V30 54 H 38.610764 33.235753 62.967634 0
M  V30 55 H 39.178582 32.137778 52.414760 0
M  V30 56 H 40.845125 31.575411 52.389727 0
M  V30 57 H 40.845168 28.678673 52.167762 0
M  V30 58 H 39.148229 28.149593 52.045803 0
M  V30 59 H 40.615275 31.548054 50.061549 0
M  V30 60 H 38.845109 31.394156 50.131625 0
M  V30 61 H 38.442732 24.041043 56.183657 0
M  V30 62 H 39.645231 23.914075 57.460589 0
M  V30 63 H 37.996630 23.420037 57.771960 0
M  V30 64 H 39.410720 28.139736 54.651460 0
M  V30 65 H 37.985983 29.145602 54.857612 0
M  V30 66 H 39.458816 31.156989 54.605689 0
M  V30 67 H 40.845061 30.137791 54.330526 0
M  V30 68 H 42.158187 36.245013 63.541151 0
M  V30 69 H 41.820696 36.137706 65.283936 0
M  V30 70 H 43.095671 35.147410 64.569466 0
M  V30 71 H 41.187792 34.555747 62.049939 0
M  V30 72 H 39.776596 35.320582 62.717055 0
M  V30 73 H 38.570541 26.653913 55.934284 0
M  V30 74 H 40.045117 30.801287 60.040745 0
M  V30 75 H 39.545226 31.294871 63.423236 0
M  V30 76 H 36.423822 33.037846 60.600240 0
M  V30 END ATOM
M  V30 BEGIN BOND
M  V30 1 1 4 1
M  V30 2 2 6 2
M  V30 3 1 7 4
M  V30 4 2 8 1
M  V30 5 1 10 7
M  V30 6 1 15 8
M  V30 7 1 17 14
M  V30 8 1 18 12
M  V30 9 1 19 12
M  V30 10 1 20 11
M  V30 11 1 21 11
M  V30 12 1 21 13
M  V30 13 1 22 13
M  V30 14 1 22 20
M  V30 15 1 23 17
M  V30 16 2 25 13
M  V30 17 1 26 10
M  V30 18 1 27 11
M  V30 19 1 27 26
M  V30 20 1 28 3
M  V30 21 2 28 24
M  V30 22 1 29 6
M  V30 23 1 30 6
M  V30 24 1 30 19
M  V30 25 1 31 7
M  V30 26 1 31 16
M  V30 27 1 31 17
M  V30 28 1 32 1
M  V30 29 2 32 18
M  V30 30 1 33 19
M  V30 31 1 33 28
M  V30 32 1 34 4
M  V30 33 2 34 5
M  V30 34 1 34 9
M  V30 35 2 35 15
M  V30 36 1 35 18
M  V30 37 1 4 36 CFG=1
M  V30 38 1 7 37 CFG=1
M  V30 39 1 38 8
M  V30 40 1 39 9
M  V30 41 1 40 9
M  V30 42 1 41 9
M  V30 43 1 42 10
M  V30 44 1 43 10
M  V30 45 1 44 12
M  V30 46 1 45 12
M  V30 47 1 46 14
M  V30 48 1 47 14
M  V30 49 1 48 14
M  V30 50 1 49 15
M  V30 51 1 50 16
M  V30 52 1 51 16
M  V30 53 1 52 16
M  V30 54 1 53 17
M  V30 55 1 19 54 CFG=1
M  V30 56 1 55 20
M  V30 57 1 56 20
M  V30 58 1 57 21
M  V30 59 1 58 21
M  V30 60 1 59 22
M  V30 61 1 60 22
M  V30 62 1 61 23
M  V30 63 1 62 23
M  V30 64 1 63 23
M  V30 65 1 64 26
M  V30 66 1 65 26
M  V30 67 1 66 27
M  V30 68 1 67 27
M  V30 69 1 68 29
M  V30 70 1 69 29
M  V30 71 1 70 29
M  V30 72 1 71 30
M  V30 73 1 72 30
M  V30 74 1 31 73 CFG=3
M  V30 75 1 74 32
M  V30 76 1 75 33
M  V30 77 1 76 35
M  V30 END BOND
M  V30 END CTAB
M  END
>  <i_epik_Tot_Q>  (1) 
-1

>  <i_epik_Tot_abs_Q>  (1) 
1

>  <i_i_glide_confnum>  (1) 
1423

>  <i_i_glide_lignum>  (1) 
151

>  <i_i_glide_posenum>  (1) 
16

>  <i_i_glide_rotatable_bonds>  (1) 
15

>  <i_lp_mmshare_version>  (1) 
72125

>  <i_m_source_file_index>  (1) 
68

>  <i_f3d_flags>  (1) 
0

>  <num_sample>  (1) 
100

>  <b_lp_Chiralities_Consistent>  (1) 
1

>  <r_epik_Charging_Adjusted_Penalty>  (1) 
0.60629678857330549

>  <r_epik_Ionization_Penalty>  (1) 
0.60629682340024582

>  <r_epik_Ionization_Penalty_Charging>  (1) 
0.00088625580114290448

>  <r_epik_Ionization_Penalty_Neutral>  (1) 
0.60541056759910294

>  <r_epik_State_Penalty>  (1) 
0.60541053277216261

>  <r_glide_ring_energy>  (1) 
0

>  <r_i_docking_score>  (1) 
-6.0746332997601167

>  <r_i_glide_ecoul>  (1) 
-2.7937387942919991

>  <r_i_glide_eff_state_penalty>  (1) 
0.60541053277216261

>  <r_i_glide_einternal>  (1) 
9.4240825594285305

>  <r_i_glide_emodel>  (1) 
-57.886308441885227

>  <r_i_glide_emodel_strain>  (1) 
0.60035129517051189

>  <r_i_glide_energy>  (1) 
-42.051057982605045

>  <r_i_glide_erotb>  (1) 
0.86140140191631331

>  <r_i_glide_esite>  (1) 
0

>  <r_i_glide_evdw>  (1) 
-39.257319188313048

>  <r_i_glide_gscore>  (1) 
-6.6800438325322791

>  <r_i_glide_gscore_strain>  (1) 
0

>  <r_i_glide_hbond>  (1) 
-0.1381731831278516

>  <r_i_glide_ligand_efficiency>  (1) 
-0.17356095142171762

>  <r_i_glide_ligand_efficiency_ln>  (1) 
-1.3335168285195664

>  <r_i_glide_ligand_efficiency_sa>  (1) 
-0.56772938095985903

>  <r_i_glide_lipo>  (1) 
-3.4726511547295331

>  <r_i_glide_metal>  (1) 
-0

>  <r_i_glide_rewards>  (1) 
-1.5486941180317562

>  <r_lp_Energy>  (1) 
18.776150999999999

>  <r_lp_tautomer_probability>  (1) 
0.99999992000000393

>  <s_epik_cmdline>  (1) 
J2VwaWtfcHl0aG9uJywgJy1waHQnLCAnMS4wJywgJy1waCcsICc3LjQnLCAnLXRuJywgJzgnLCAnLW1hJywgJzUwMCcsICctaW1hZScsICc8aW5maWxlLm1hZT4nLCAnLW9tYWUnLCAnPG91dGZpbGUubWFlPic=

>  <s_epik_input>  (1) 
Tz1DKFtDSDNdKVtDSDJdW0NASF0oW05IXUMoPU8pW09IXSlbQ0gyXWMoW2NIXTEpW2NIXVtjSF1bY0hdYzFbQ0BIXShDKD1PKVtDSDNdKVtDQEhdKFtDQEBIXShbQ0gzXSlbQ0hdKFtDSDNdKVtDSDNdKVtDSDJdW0NIMl1bQ0gyXU4yW0NIMl1bQ0gyXUMoPU8pW0NIMl0y

>  <s_glide_docking_method>  (1) 
confgen

>  <s_i_glide_gridfile>  (1) 
gpcr_5ht2c_6bqh_protein_autoprepared_prepared

>  <s_lp_Force_Field>  (1) 
S-OPLS

>  <s_lp_Variant>  (1) 
DiffSBDD_67-3

>  <s_m_source_file>  (1) 
generated_GPCR_5HT2C_ligand_DiffSBDD_2026-06-23_prepared.sdf

>  <GenAI_Model>  (1) 
DiffSBDD

>  <Protein>  (1) 
GPCR_5HT2C

$$$$
DiffSBDD_78
     RDKit          3D

  0  0  0  0  0  0  0  0  0  0999 V3000
M  V30 BEGIN CTAB
M  V30 COUNTS 104 109 0 0 1
M  V30 BEGIN ATOM
M  V30 1 O 39.271237 27.095703 52.531479 0
M  V30 2 C 42.511370 30.658873 63.767720 0
M  V30 3 C 37.000593 32.137834 61.940201 0 CFG=1
M  V30 4 C 39.272261 30.926751 56.871924 0
M  V30 5 O 38.250549 33.359735 55.625842 0
M  V30 6 C 41.138610 31.708200 61.779094 0 CFG=2
M  V30 7 C 39.086967 28.237040 53.348345 0
M  V30 8 O 39.742959 29.185543 55.417155 0
M  V30 9 C 42.345423 31.726470 62.702107 0 CFG=1
M  V30 10 O 37.245153 26.500676 57.237480 0
M  V30 11 C 40.482722 36.202781 62.516654 0
M  V30 12 N 38.373577 32.187612 61.533371 0
M  V30 13 N 41.233104 32.661006 62.880921 0
M  V30 14 C 40.332220 36.204690 64.905066 0
M  V30 15 C 41.992069 30.963063 65.160878 0
M  V30 16 C 35.972733 33.048877 61.318345 0 CFG=1
M  V30 17 N 38.747740 30.842193 61.507118 0
M  V30 18 C 39.645162 27.441737 51.205439 0
M  V30 19 C 40.138611 30.548240 61.818602 0 CFG=1
M  V30 20 C 39.196465 36.871093 64.177140 0
M  V30 21 C 39.749609 28.117114 61.296711 0
M  V30 22 C 38.801469 30.240125 55.602293 0 CFG=2
M  V30 23 C 37.581889 30.066218 59.444486 0
M  V30 24 C 38.337162 37.457543 61.856915 0
M  V30 25 C 37.805414 32.417501 54.674281 0
M  V30 26 C 39.259157 27.972818 54.843225 0 CFG=2
M  V30 27 C 36.465220 31.114434 59.533392 0
M  V30 28 C 38.700289 28.456066 50.596678 0
M  V30 29 O 43.045507 29.581550 63.522268 0
M  V30 30 C 40.021587 29.483078 60.687782 0
M  V30 31 C 39.295324 36.863830 62.891641 0
M  V30 32 C 41.186599 29.214787 59.734414 0
M  V30 33 C 39.765740 25.643477 55.931061 0
M  V30 34 C 40.370015 32.564710 64.067916 0
M  V30 35 C 37.762059 36.467079 60.825849 0
M  V30 36 C 37.048621 35.294052 61.500876 0
M  V30 37 O 41.134733 35.794473 63.696656 0
M  V30 38 N 38.434373 28.002580 58.559015 0
M  V30 39 S 39.757298 25.887204 57.728712 0
M  V30 40 C 37.422477 28.937726 58.730125 0
M  V30 41 C 38.792290 31.264360 54.444172 0
M  V30 42 C 38.268413 26.856055 57.809302 0
M  V30 43 C 40.530558 31.374469 65.029813 0
M  V30 44 C 36.482129 34.245629 60.531525 0
M  V30 45 O 40.882992 36.011473 61.369949 0
M  V30 46 C 38.909690 30.440323 60.139251 0 CFG=2
M  V30 47 C 36.029010 31.573700 60.920995 0 CFG=1
M  V30 48 C 40.305280 26.876489 55.184004 0
M  V30 49 H 36.845170 31.825448 62.961308 0
M  V30 50 H 38.460633 31.470274 57.350627 0
M  V30 51 H 40.045111 31.652891 56.642516 0
M  V30 52 H 39.680741 30.208403 57.573040 0
M  V30 53 H 37.475550 33.782654 55.968880 0
M  V30 54 H 41.287291 32.137028 60.791423 0
M  V30 55 H 38.087527 28.636193 53.175841 0
M  V30 56 H 39.798744 29.008279 53.050195 0
M  V30 57 H 43.245120 32.140218 62.271346 0
M  V30 58 H 38.937672 32.710608 62.201059 0
M  V30 59 H 40.045172 35.346048 65.506872 0
M  V30 60 H 42.584574 31.766384 65.598216 0
M  V30 61 H 42.093754 30.085145 65.799370 0
M  V30 62 H 35.118794 33.308809 61.940322 0
M  V30 63 H 40.639566 27.879637 51.184118 0
M  V30 64 H 39.653288 26.537803 50.600770 0
M  V30 65 H 40.153692 30.020879 62.765080 0
M  V30 66 H 38.376607 37.319983 64.718273 0
M  V30 67 H 39.733369 27.337786 60.546337 0
M  V30 68 H 38.845156 28.084830 61.884552 0
M  V30 69 H 40.545440 27.839378 61.989884 0
M  V30 70 H 37.803083 29.833623 55.774970 0
M  V30 71 H 38.846325 38.275160 61.345937 0
M  V30 72 H 37.495243 37.902661 62.386853 0
M  V30 73 H 36.845213 32.002108 54.968245 0
M  V30 74 H 37.645085 32.982374 53.767648 0
M  V30 75 H 38.287986 27.703850 55.250823 0
M  V30 76 H 36.796620 31.977728 58.961070 0
M  V30 77 H 35.582603 30.750261 59.004576 0
M  V30 78 H 38.845208 28.527864 49.522362 0
M  V30 79 H 38.845462 29.459516 50.995299 0
M  V30 80 H 37.687907 28.139083 50.842818 0
M  V30 81 H 40.845237 36.911628 65.553399 0
M  V30 82 H 40.873679 28.721026 58.818095 0
M  V30 83 H 41.933355 28.543211 60.163011 0
M  V30 84 H 41.645176 30.137719 59.418268 0
M  V30 85 H 40.445177 24.816697 55.767676 0
M  V30 86 H 38.798642 25.317378 55.547002 0
M  V30 87 H 40.627961 33.439095 64.657293 0
M  V30 88 H 39.339986 32.721154 63.767830 0
M  V30 89 H 37.059126 36.991391 60.177060 0
M  V30 90 H 38.553053 36.093538 60.175524 0
M  V30 91 H 37.769207 34.803572 62.152640 0
M  V30 92 H 36.260120 35.663091 62.155451 0
M  V30 93 H 39.336471 28.166718 58.980044 0
M  V30 94 H 36.503659 28.691151 58.214168 0
M  V30 95 H 39.795111 31.653592 54.265175 0
M  V30 96 H 38.493183 30.781958 53.519059 0
M  V30 97 H 39.915232 30.527971 64.729609 0
M  V30 98 H 40.146755 31.653017 66.011095 0
M  V30 99 H 37.261061 33.940073 59.833415 0
M  V30 100 H 35.667092 34.659893 59.937233 0
M  V30 101 H 39.349166 31.262018 59.574970 0
M  V30 102 H 35.253332 30.937678 61.342461 0
M  V30 103 H 40.796521 26.524151 54.277711 0
M  V30 104 H 41.109553 27.311665 55.778770 0
M  V30 END ATOM
M  V30 BEGIN BOND
M  V30 1 1 7 1
M  V30 2 1 9 2
M  V30 3 1 9 6
M  V30 4 1 12 3
M  V30 5 1 13 6
M  V30 6 1 13 9
M  V30 7 1 15 2
M  V30 8 1 16 3
M  V30 9 1 17 12
M  V30 10 1 18 1
M  V30 11 1 19 6
M  V30 12 1 19 17
M  V30 13 1 20 14
M  V30 14 1 22 4
M  V30 15 1 22 8
M  V30 16 1 25 5
M  V30 17 1 26 7
M  V30 18 1 26 8
M  V30 19 1 27 23
M  V30 20 1 28 18
M  V30 21 2 29 2
M  V30 22 1 30 19
M  V30 23 1 30 21
M  V30 24 1 31 11
M  V30 25 2 31 20
M  V30 26 1 31 24
M  V30 27 1 32 30
M  V30 28 1 34 13
M  V30 29 1 35 24
M  V30 30 1 36 35
M  V30 31 1 37 11
M  V30 32 1 37 14
M  V30 33 1 39 33
M  V30 34 2 40 23
M  V30 35 1 40 38
M  V30 36 1 41 22
M  V30 37 1 41 25
M  V30 38 2 42 10
M  V30 39 1 42 38
M  V30 40 1 42 39
M  V30 41 1 43 15
M  V30 42 1 43 34
M  V30 43 1 44 16
M  V30 44 1 44 36
M  V30 45 2 45 11
M  V30 46 1 46 17
M  V30 47 1 46 23
M  V30 48 1 46 30
M  V30 49 1 47 3
M  V30 50 1 47 16
M  V30 51 1 47 27
M  V30 52 1 48 26
M  V30 53 1 48 33
M  V30 54 1 3 49 CFG=1
M  V30 55 1 50 4
M  V30 56 1 51 4
M  V30 57 1 52 4
M  V30 58 1 53 5
M  V30 59 1 6 54 CFG=3
M  V30 60 1 55 7
M  V30 61 1 56 7
M  V30 62 1 9 57 CFG=3
M  V30 63 1 58 12
M  V30 64 1 59 14
M  V30 65 1 60 15
M  V30 66 1 61 15
M  V30 67 1 16 62 CFG=1
M  V30 68 1 63 18
M  V30 69 1 64 18
M  V30 70 1 19 65 CFG=1
M  V30 71 1 66 20
M  V30 72 1 67 21
M  V30 73 1 68 21
M  V30 74 1 69 21
M  V30 75 1 22 70 CFG=1
M  V30 76 1 71 24
M  V30 77 1 72 24
M  V30 78 1 73 25
M  V30 79 1 74 25
M  V30 80 1 26 75 CFG=1
M  V30 81 1 76 27
M  V30 82 1 77 27
M  V30 83 1 78 28
M  V30 84 1 79 28
M  V30 85 1 80 28
M  V30 86 1 81 14
M  V30 87 1 82 32
M  V30 88 1 83 32
M  V30 89 1 84 32
M  V30 90 1 85 33
M  V30 91 1 86 33
M  V30 92 1 87 34
M  V30 93 1 88 34
M  V30 94 1 89 35
M  V30 95 1 90 35
M  V30 96 1 91 36
M  V30 97 1 92 36
M  V30 98 1 93 38
M  V30 99 1 94 40
M  V30 100 1 95 41
M  V30 101 1 96 41
M  V30 102 1 97 43
M  V30 103 1 98 43
M  V30 104 1 99 44
M  V30 105 1 100 44
M  V30 106 1 46 101 CFG=3
M  V30 107 1 47 102 CFG=1
M  V30 108 1 103 48
M  V30 109 1 104 48
M  V30 END BOND
M  V30 END CTAB
M  END
>  <i_epik_Tot_Q>  (1) 
0

>  <i_epik_Tot_abs_Q>  (1) 
0

>  <i_i_glide_confnum>  (1) 
1625

>  <i_i_glide_lignum>  (1) 
184

>  <i_i_glide_posenum>  (1) 
213

>  <i_i_glide_rotatable_bonds>  (1) 
20

>  <i_lp_mmshare_version>  (1) 
72125

>  <i_m_source_file_index>  (1) 
79

>  <i_f3d_flags>  (1) 
0

>  <num_sample>  (1) 
100

>  <b_lp_Chiralities_Consistent>  (1) 
1

>  <r_epik_Charging_Adjusted_Penalty>  (1) 
0.92354502945683503

>  <r_epik_Ionization_Penalty>  (1) 
0.93156090309964268

>  <r_epik_Ionization_Penalty_Charging>  (1) 
0

>  <r_epik_Ionization_Penalty_Neutral>  (1) 
0.93156090309964268

>  <r_epik_State_Penalty>  (1) 
0.92354502945683503

>  <r_glide_ring_energy>  (1) 
0

>  <r_i_docking_score>  (1) 
-6.0726591271664097

>  <r_i_glide_ecoul>  (1) 
-0.12079332359697093

>  <r_i_glide_eff_state_penalty>  (1) 
0.92354502945683503

>  <r_i_glide_einternal>  (1) 
24.13336854292988

>  <r_i_glide_emodel>  (1) 
-119.17983373478148

>  <r_i_glide_emodel_strain>  (1) 
5.854871672817211

>  <r_i_glide_energy>  (1) 
-51.839544528703293

>  <r_i_glide_erotb>  (1) 
0.59596673808410561

>  <r_i_glide_esite>  (1) 
0

>  <r_i_glide_evdw>  (1) 
-51.718751205106322

>  <r_i_glide_gscore>  (1) 
-6.9962041566232447

>  <r_i_glide_gscore_strain>  (1) 
0.46371791820430275

>  <r_i_glide_hbond>  (1) 
-0.036733821843447853

>  <r_i_glide_ligand_efficiency>  (1) 
-0.12651373181596687

>  <r_i_glide_ligand_efficiency_ln>  (1) 
-1.2466451525133413

>  <r_i_glide_ligand_efficiency_sa>  (1) 
-0.45978141471767214

>  <r_i_glide_lipo>  (1) 
-4.1014752980642211

>  <r_i_glide_metal>  (1) 
-0

>  <r_i_glide_rewards>  (1) 
-1.3136231342091227

>  <r_lp_Energy>  (1) 
40.470562000000001

>  <r_lp_tautomer_probability>  (1) 
0.99984117342658263

>  <s_epik_Chemistry_Notes>  (1) 
This compound has an ester and may undergo hydrolysis at high or low pH.

>  <s_epik_cmdline>  (1) 
J2VwaWtfcHl0aG9uJywgJy1waHQnLCAnMS4wJywgJy1waCcsICc3LjQnLCAnLXRuJywgJzgnLCAnLW1hJywgJzUwMCcsICctaW1hZScsICc8aW5maWxlLm1hZT4nLCAnLW9tYWUnLCAnPG91dGZpbGUubWFlPic=

>  <s_epik_input>  (1) 
W09IXVtDSDJdW0NIMl1bQ0BIXShbQ0gzXSlPW0NAQEhdKFtDSDJdT1tDSDJdW0NIM10pW0NIMl1bQ0gyXVNDKD1PKVtOSF1cW0NIXT1DKFtDQEhdMU4oW05IXTIpW0NAQEhdKEMxKFtDSDNdKVtDSDNdKVtDQEhdM04oW0NASF0zNClbQ0gyXVtDSDJdW0NIMl1DND1PKVxbQ0gyXVtDQEBIXShbQ0BASF0yNSlbQ0BASF01W0NIMl1bQ0gyXVtDSDJdW0NIMl1bQ0BASF0oQzY9TylbQ0hdPVtDSF1PNg==

>  <s_glide_docking_method>  (1) 
confgen

>  <s_i_glide_gridfile>  (1) 
gpcr_5ht2c_6bqh_protein_autoprepared_prepared

>  <s_lp_Force_Field>  (1) 
S-OPLS

>  <s_lp_Variant>  (1) 
DiffSBDD_78-6

>  <s_m_source_file>  (1) 
generated_GPCR_5HT2C_ligand_DiffSBDD_2026-06-23_prepared.sdf

>  <GenAI_Model>  (1) 
DiffSBDD

>  <Protein>  (1) 
GPCR_5HT2C

$$$$
DiffSBDD_67
     RDKit          3D

  0  0  0  0  0  0  0  0  0  0999 V3000
M  V30 BEGIN CTAB
M  V30 COUNTS 77 78 0 0 1
M  V30 BEGIN ATOM
M  V30 1 C 39.373190 29.714912 55.920237 0
M  V30 2 O 37.637437 34.136470 58.418705 0
M  V30 3 O 34.899979 32.405739 61.757297 0 CHG=-1
M  V30 4 C 39.310637 30.405031 54.526725 0 CFG=1
M  V30 5 O 37.090347 31.265801 54.167760 0
M  V30 6 C 38.202083 33.647486 59.391648 0
M  V30 7 C 39.194201 29.402664 53.311420 0 CFG=1
M  V30 8 C 40.445775 28.867096 56.245200 0
M  V30 9 C 38.583338 32.841788 55.160664 0
M  V30 10 C 37.933174 28.521037 53.471191 0
M  V30 11 N 37.984293 25.285787 54.928742 0 CFG=1 CHG=1
M  V30 12 C 37.403462 29.752503 59.199498 0
M  V30 13 C 37.647396 24.285112 56.953182 0
M  V30 14 C 39.950779 27.728669 50.611207 0
M  V30 15 C 40.532672 28.291381 57.532391 0
M  V30 16 C 39.788306 31.394807 51.743524 0
M  V30 17 C 40.406599 29.155111 50.891860 0
M  V30 18 C 38.461584 29.404902 58.167240 0
M  V30 19 C 37.171373 31.292754 59.225570 0 CFG=2
M  V30 20 C 38.787576 26.024992 55.939866 0
M  V30 21 C 37.068361 24.341559 55.578546 0
M  V30 22 C 38.724383 25.277779 57.260660 0
M  V30 23 C 40.602164 29.878847 49.526890 0
M  V30 24 O 36.971883 31.737910 61.936781 0
M  V30 25 O 37.269043 23.482292 57.767690 0
M  V30 26 C 38.153531 27.038554 53.175220 0
M  V30 27 C 37.245174 26.159018 54.011656 0
M  V30 28 C 35.949457 31.964025 61.251608 0
M  V30 29 C 38.685536 34.515922 60.546696 0
M  V30 30 C 38.449038 32.142284 59.493115 0
M  V30 31 C 39.401895 29.911315 51.824862 0 CFG=1
M  V30 32 C 38.366696 29.952732 56.885610 0
M  V30 33 N 35.976735 31.731281 59.941591 0
M  V30 34 C 38.217894 31.492031 54.565421 0
M  V30 35 C 39.544774 28.568641 58.497435 0
M  V30 36 H 40.259667 30.930338 54.408237 0
M  V30 37 H 40.044315 28.776195 53.468005 0
M  V30 38 H 41.213472 28.677392 55.523330 0
M  V30 39 H 39.644612 33.028687 55.074668 0
M  V30 40 H 38.035450 33.636299 54.650772 0
M  V30 41 H 38.320941 32.858873 56.218489 0
M  V30 42 H 37.586999 28.606161 54.497402 0
M  V30 43 H 37.093206 28.898622 52.891634 0
M  V30 44 H 36.478117 29.243736 58.930750 0
M  V30 45 H 37.709776 29.386853 60.174899 0
M  V30 46 H 38.923440 27.695742 50.247824 0
M  V30 47 H 40.565880 27.232090 49.875363 0
M  V30 48 H 40.042682 27.121972 51.497664 0
M  V30 49 H 41.365007 27.650856 57.782413 0
M  V30 50 H 40.844671 31.515579 51.965211 0
M  V30 51 H 39.585126 31.796527 50.752541 0
M  V30 52 H 39.245137 32.083551 52.375061 0
M  V30 53 H 41.385378 29.115918 51.368070 0
M  V30 54 H 36.852512 31.589053 58.235791 0
M  V30 55 H 39.817972 26.124206 55.596233 0
M  V30 56 H 38.371436 27.020692 56.097306 0
M  V30 57 H 36.045600 24.713300 55.638910 0
M  V30 58 H 37.076436 23.368392 55.086440 0
M  V30 59 H 38.423800 25.917441 58.090732 0
M  V30 60 H 39.657641 24.770002 57.507180 0
M  V30 61 H 39.648146 30.097883 49.051387 0
M  V30 62 H 41.149189 30.816825 49.628153 0
M  V30 63 H 41.186162 29.338673 48.794434 0
M  V30 64 H 37.939879 26.865732 52.124261 0
M  V30 65 H 39.187715 26.751604 53.362004 0
M  V30 66 H 36.577522 26.781430 54.607388 0
M  V30 67 H 36.629000 25.534765 53.366421 0
M  V30 68 H 39.769990 34.602535 60.525906 0
M  V30 69 H 38.253126 35.513494 60.472312 0
M  V30 70 H 38.383166 34.082124 61.499023 0
M  V30 71 H 38.881642 31.905212 60.464104 0
M  V30 72 H 39.206002 31.894989 58.751850 0
M  V30 73 H 38.452803 29.737385 51.317744 0
M  V30 74 H 37.527947 30.580301 56.654693 0
M  V30 75 H 35.147042 31.912788 59.396793 0
M  V30 76 H 39.623874 28.145265 59.487776 0
M  V30 77 H 38.626184 24.726464 54.385459 0
M  V30 END ATOM
M  V30 BEGIN BOND
M  V30 1 1 4 1
M  V30 2 2 6 2
M  V30 3 1 7 4
M  V30 4 2 8 1
M  V30 5 1 10 7
M  V30 6 1 15 8
M  V30 7 1 17 14
M  V30 8 1 18 12
M  V30 9 1 19 12
M  V30 10 1 20 11
M  V30 11 1 21 11
M  V30 12 1 21 13
M  V30 13 1 22 13
M  V30 14 1 22 20
M  V30 15 1 23 17
M  V30 16 2 25 13
M  V30 17 1 26 10
M  V30 18 1 27 11
M  V30 19 1 27 26
M  V30 20 1 28 3
M  V30 21 2 28 24
M  V30 22 1 29 6
M  V30 23 1 30 6
M  V30 24 1 30 19
M  V30 25 1 31 7
M  V30 26 1 31 16
M  V30 27 1 31 17
M  V30 28 1 32 1
M  V30 29 2 32 18
M  V30 30 1 33 19
M  V30 31 1 33 28
M  V30 32 1 34 4
M  V30 33 2 34 5
M  V30 34 1 34 9
M  V30 35 2 35 15
M  V30 36 1 35 18
M  V30 37 1 4 36 CFG=3
M  V30 38 1 7 37 CFG=1
M  V30 39 1 38 8
M  V30 40 1 39 9
M  V30 41 1 40 9
M  V30 42 1 41 9
M  V30 43 1 42 10
M  V30 44 1 43 10
M  V30 45 1 44 12
M  V30 46 1 45 12
M  V30 47 1 46 14
M  V30 48 1 47 14
M  V30 49 1 48 14
M  V30 50 1 49 15
M  V30 51 1 50 16
M  V30 52 1 51 16
M  V30 53 1 52 16
M  V30 54 1 53 17
M  V30 55 1 19 54 CFG=3
M  V30 56 1 55 20
M  V30 57 1 56 20
M  V30 58 1 57 21
M  V30 59 1 58 21
M  V30 60 1 59 22
M  V30 61 1 60 22
M  V30 62 1 61 23
M  V30 63 1 62 23
M  V30 64 1 63 23
M  V30 65 1 64 26
M  V30 66 1 65 26
M  V30 67 1 66 27
M  V30 68 1 67 27
M  V30 69 1 68 29
M  V30 70 1 69 29
M  V30 71 1 70 29
M  V30 72 1 71 30
M  V30 73 1 72 30
M  V30 74 1 31 73 CFG=3
M  V30 75 1 74 32
M  V30 76 1 75 33
M  V30 77 1 76 35
M  V30 78 1 11 77 CFG=3
M  V30 END BOND
M  V30 END CTAB
M  END
>  <i_epik_Tot_Q>  (1) 
0

>  <i_epik_Tot_abs_Q>  (1) 
2

>  <i_i_glide_confnum>  (1) 
2031

>  <i_i_glide_lignum>  (1) 
150

>  <i_i_glide_posenum>  (1) 
21

>  <i_i_glide_rotatable_bonds>  (1) 
15

>  <i_lp_mmshare_version>  (1) 
72125

>  <i_m_source_file_index>  (1) 
68

>  <i_f3d_flags>  (1) 
0

>  <num_sample>  (1) 
100

>  <b_lp_Chiralities_Consistent>  (1) 
1

>  <r_epik_Charging_Adjusted_Penalty>  (1) 
0.5296149838886226

>  <r_epik_Ionization_Penalty>  (1) 
0.26529925199373078

>  <r_epik_Ionization_Penalty_Charging>  (1) 
0.26525061984488274

>  <r_epik_Ionization_Penalty_Neutral>  (1) 
4.8632148848023016e-05

>  <r_epik_State_Penalty>  (1) 
0.26436436404373981

>  <r_glide_ring_energy>  (1) 
0

>  <r_i_docking_score>  (1) 
-6.0680041449792457

>  <r_i_glide_ecoul>  (1) 
-4.6164474547185144

>  <r_i_glide_eff_state_penalty>  (1) 
0.26436436404373981

>  <r_i_glide_einternal>  (1) 
16.430379831336726

>  <r_i_glide_emodel>  (1) 
-26.958194709075705

>  <r_i_glide_emodel_strain>  (1) 
3.310596921830161

>  <r_i_glide_energy>  (1) 
-18.270631436555252

>  <r_i_glide_erotb>  (1) 
0.8581402996549512

>  <r_i_glide_esite>  (1) 
-0.15055740408266027

>  <r_i_glide_evdw>  (1) 
-13.654183981836738

>  <r_i_glide_gscore>  (1) 
-6.3323685090229853

>  <r_i_glide_gscore_strain>  (1) 
0

>  <r_i_glide_hbond>  (1) 
-0.18964115155500072

>  <r_i_glide_ligand_efficiency>  (1) 
-0.17337154699940702

>  <r_i_glide_ligand_efficiency_ln>  (1) 
-1.3320615819190018

>  <r_i_glide_ligand_efficiency_sa>  (1) 
-0.56710982653503805

>  <r_i_glide_lipo>  (1) 
-4.1257374463709748

>  <r_i_glide_metal>  (1) 
-0

>  <r_i_glide_rewards>  (1) 
-1.3493964893696873

>  <r_lp_Energy>  (1) 
26.316364

>  <r_lp_tautomer_probability>  (1) 
0.99994994000300153

>  <s_epik_cmdline>  (1) 
J2VwaWtfcHl0aG9uJywgJy1waHQnLCAnMS4wJywgJy1waCcsICc3LjQnLCAnLXRuJywgJzgnLCAnLW1hJywgJzUwMCcsICctaW1hZScsICc8aW5maWxlLm1hZT4nLCAnLW9tYWUnLCAnPG91dGZpbGUubWFlPic=

>  <s_epik_input>  (1) 
Tz1DKFtDSDNdKVtDSDJdW0NASF0oW05IXUMoPU8pW09IXSlbQ0gyXWMoW2NIXTEpW2NIXVtjSF1bY0hdYzFbQ0BIXShDKD1PKVtDSDNdKVtDQEhdKFtDQEBIXShbQ0gzXSlbQ0hdKFtDSDNdKVtDSDNdKVtDSDJdW0NIMl1bQ0gyXU4yW0NIMl1bQ0gyXUMoPU8pW0NIMl0y

>  <s_glide_docking_method>  (1) 
confgen

>  <s_i_glide_gridfile>  (1) 
gpcr_5ht2c_6bqh_protein_autoprepared_prepared

>  <s_lp_Force_Field>  (1) 
S-OPLS

>  <s_lp_Variant>  (1) 
DiffSBDD_67-2

>  <s_m_source_file>  (1) 
generated_GPCR_5HT2C_ligand_DiffSBDD_2026-06-23_prepared.sdf

>  <GenAI_Model>  (1) 
DiffSBDD

>  <Protein>  (1) 
GPCR_5HT2C

$$$$
DiffSBDD_52
     RDKit          3D

  0  0  0  0  0  0  0  0  0  0999 V3000
M  V30 BEGIN CTAB
M  V30 COUNTS 68 70 0 0 1
M  V30 BEGIN ATOM
M  V30 1 C 38.142814 30.882598 60.224087 0 CFG=1
M  V30 2 O 37.234058 30.957725 61.296185 0
M  V30 3 C 38.539766 31.136137 55.206947 0 CFG=2
M  V30 4 C 38.507082 28.565284 53.483207 0
M  V30 5 C 39.287506 30.263480 60.993492 0 CFG=2
M  V30 6 O 39.225670 29.771198 53.269580 0
M  V30 7 C 39.679132 30.409535 54.461624 0
M  V30 8 O 39.234961 37.695643 61.767877 0 CHG=-1
M  V30 9 O 39.055701 32.361984 55.719563 0
M  V30 10 C 36.298362 29.792178 58.931793 0
M  V30 11 C 39.396666 31.118376 62.249512 0 CFG=2
M  V30 12 C 40.005803 33.555678 61.312835 0
M  V30 13 S 37.034714 35.265021 59.817309 0
M  V30 14 O 39.799663 28.576778 50.567834 0
M  V30 15 C 38.301903 36.862865 61.768722 0
M  V30 16 O 38.045017 31.503579 62.455362 0
M  V30 17 O 40.430537 30.136657 60.167776 0
M  V30 18 C 37.894789 30.268073 56.316952 0
M  V30 19 C 38.767219 34.368102 61.751188 0
M  V30 20 C 38.879299 29.115459 58.490572 0 CFG=2
M  V30 21 O 37.243679 36.951298 62.430060 0
M  V30 22 C 38.048638 33.340985 55.927949 0
M  V30 23 C 38.533455 30.369180 57.704050 0 CFG=2
M  V30 24 C 38.474123 35.616970 60.882258 0 CFG=1
M  V30 25 C 40.344548 32.349238 62.224448 0
M  V30 26 C 38.489700 27.724574 57.977725 0
M  V30 27 C 37.791909 30.061611 59.000136 0 CFG=2
M  V30 28 C 38.103162 27.896845 52.168398 0
M  V30 29 C 39.266918 27.473120 51.269475 0
M  V30 30 C 40.280244 29.130700 59.153416 0 CFG=2
M  V30 31 C 40.739100 27.796436 59.751400 0
M  V30 32 H 38.353118 31.896126 59.894551 0
M  V30 33 H 37.781140 31.371614 54.456806 0
M  V30 34 H 39.091097 27.876171 54.094567 0
M  V30 35 H 37.576570 28.777722 54.004290 0
M  V30 36 H 38.983366 29.268713 61.325233 0
M  V30 37 H 40.408903 31.149673 54.132614 0
M  V30 38 H 40.223879 29.725007 55.113414 0
M  V30 39 H 36.034202 29.269915 58.019328 0
M  V30 40 H 35.745282 30.731254 58.967673 0
M  V30 41 H 35.971307 29.188660 59.767747 0
M  V30 42 H 39.703124 30.476198 63.075500 0
M  V30 43 H 39.933004 33.253155 60.270274 0
M  V30 44 H 40.859955 34.233044 61.344508 0
M  V30 45 H 37.564591 34.209232 59.195214 0
M  V30 46 H 39.111655 28.976327 50.054453 0
M  V30 47 H 36.845808 30.537717 56.386626 0
M  V30 48 H 37.878660 29.232143 56.009395 0
M  V30 49 H 37.878776 33.742452 61.768526 0
M  V30 50 H 38.931272 34.663800 62.788089 0
M  V30 51 H 38.445559 34.221278 56.423963 0
M  V30 52 H 37.245206 32.967373 56.559785 0
M  V30 53 H 37.645109 33.665368 54.970022 0
M  V30 54 H 39.245154 31.185868 57.788500 0
M  V30 55 H 39.321225 35.801086 60.221118 0
M  V30 56 H 40.432607 32.722540 63.245196 0
M  V30 57 H 41.343297 31.997416 61.963932 0
M  V30 58 H 37.507626 27.714224 57.510420 0
M  V30 59 H 38.443296 27.005914 58.794934 0
M  V30 60 H 39.215548 27.376933 57.242001 0
M  V30 61 H 37.555917 26.995846 52.440720 0
M  V30 62 H 37.403832 28.530294 51.627972 0
M  V30 63 H 38.924130 26.735699 50.543728 0
M  V30 64 H 40.044990 27.003412 51.868427 0
M  V30 65 H 41.001020 29.365438 58.370573 0
M  V30 66 H 40.856296 27.046331 58.967777 0
M  V30 67 H 40.045166 27.415901 60.498258 0
M  V30 68 H 41.704896 27.908987 60.237005 0
M  V30 END ATOM
M  V30 BEGIN BOND
M  V30 1 1 2 1
M  V30 2 1 5 1
M  V30 3 1 6 4
M  V30 4 1 7 3
M  V30 5 1 7 6
M  V30 6 1 9 3
M  V30 7 1 11 5
M  V30 8 1 15 8
M  V30 9 1 16 2
M  V30 10 1 16 11
M  V30 11 1 17 5
M  V30 12 1 18 3
M  V30 13 1 19 12
M  V30 14 2 21 15
M  V30 15 1 22 9
M  V30 16 1 23 18
M  V30 17 1 23 20
M  V30 18 1 24 13
M  V30 19 1 24 15
M  V30 20 1 24 19
M  V30 21 1 25 11
M  V30 22 1 25 12
M  V30 23 1 20 26 CFG=3
M  V30 24 1 27 1
M  V30 25 1 27 10 CFG=3
M  V30 26 1 27 20
M  V30 27 1 27 23
M  V30 28 1 28 4
M  V30 29 1 29 14
M  V30 30 1 29 28
M  V30 31 1 30 17
M  V30 32 1 30 20
M  V30 33 1 31 30
M  V30 34 1 1 32 CFG=3
M  V30 35 1 3 33 CFG=3
M  V30 36 1 34 4
M  V30 37 1 35 4
M  V30 38 1 5 36 CFG=1
M  V30 39 1 37 7
M  V30 40 1 38 7
M  V30 41 1 39 10
M  V30 42 1 40 10
M  V30 43 1 41 10
M  V30 44 1 11 42 CFG=1
M  V30 45 1 43 12
M  V30 46 1 44 12
M  V30 47 1 45 13
M  V30 48 1 46 14
M  V30 49 1 47 18
M  V30 50 1 48 18
M  V30 51 1 49 19
M  V30 52 1 50 19
M  V30 53 1 51 22
M  V30 54 1 52 22
M  V30 55 1 53 22
M  V30 56 1 23 54 CFG=1
M  V30 57 1 24 55 CFG=3
M  V30 58 1 56 25
M  V30 59 1 57 25
M  V30 60 1 58 26
M  V30 61 1 59 26
M  V30 62 1 60 26
M  V30 63 1 61 28
M  V30 64 1 62 28
M  V30 65 1 63 29
M  V30 66 1 64 29
M  V30 67 1 30 65 CFG=3
M  V30 68 1 66 31
M  V30 69 1 67 31
M  V30 70 1 68 31
M  V30 END BOND
M  V30 END CTAB
M  END
>  <i_epik_Tot_Q>  (1) 
-1

>  <i_epik_Tot_abs_Q>  (1) 
1

>  <i_i_glide_confnum>  (1) 
1136

>  <i_i_glide_lignum>  (1) 
108

>  <i_i_glide_posenum>  (1) 
231

>  <i_i_glide_rotatable_bonds>  (1) 
15

>  <i_lp_mmshare_version>  (1) 
72125

>  <i_m_source_file_index>  (1) 
53

>  <i_f3d_flags>  (1) 
0

>  <num_sample>  (1) 
100

>  <b_lp_Chiralities_Consistent>  (1) 
1

>  <r_epik_Charging_Adjusted_Penalty>  (1) 
9.782978408037009e-05

>  <r_epik_Ionization_Penalty>  (1) 
0.00048272347956945452

>  <r_epik_Ionization_Penalty_Charging>  (1) 
9.782978408037009e-05

>  <r_epik_Ionization_Penalty_Neutral>  (1) 
0.00038489369548908443

>  <r_epik_State_Penalty>  (1) 
-0

>  <r_glide_ring_energy>  (1) 
0

>  <r_i_docking_score>  (1) 
-6.0652570689989656

>  <r_i_glide_ecoul>  (1) 
-5.2939318950646745

>  <r_i_glide_eff_state_penalty>  (1) 
-0

>  <r_i_glide_einternal>  (1) 
34.608936179419594

>  <r_i_glide_emodel>  (1) 
-38.50371797420263

>  <r_i_glide_emodel_strain>  (1) 
2.4845773314710158

>  <r_i_glide_energy>  (1) 
-45.332763447412503

>  <r_i_glide_erotb>  (1) 
1.0396015441343791

>  <r_i_glide_esite>  (1) 
-0.03586014173176677

>  <r_i_glide_evdw>  (1) 
-40.03883155234783

>  <r_i_glide_gscore>  (1) 
-6.0652570689989656

>  <r_i_glide_gscore_strain>  (1) 
0

>  <r_i_glide_hbond>  (1) 
-0.050426905479078389

>  <r_i_glide_ligand_efficiency>  (1) 
-0.1956534538386763

>  <r_i_glide_ligand_efficiency_ln>  (1) 
-1.3679013468653514

>  <r_i_glide_ligand_efficiency_sa>  (1) 
-0.61462197446237044

>  <r_i_glide_lipo>  (1) 
-2.9658633714136591

>  <r_i_glide_metal>  (1) 
-0

>  <r_i_glide_rewards>  (1) 
-1.2566768326317481

>  <r_lp_Energy>  (1) 
56.475065000000001

>  <r_lp_tautomer_probability>  (1) 
1

>  <s_epik_cmdline>  (1) 
J2VwaWtfcHl0aG9uJywgJy1waHQnLCAnMS4wJywgJy1waCcsICc3LjQnLCAnLXRuJywgJzgnLCAnLW1hJywgJzUwMCcsICctaW1hZScsICc8aW5maWxlLm1hZT4nLCAnLW9tYWUnLCAnPG91dGZpbGUubWFlPic=

>  <s_epik_input>  (1) 
W09IXUMoPU8pW0NASF0oW1NIXSlbQ0gyXVtDSDJdW0NIMl1bQ0BASF0oT08xKVtDQEhdKE9bQ0BIXTJbQ0gzXSlbQ0BIXTFbQ0BdKFtDSDNdKShbQ0BdMjNbQ0gzXSlbQ0BASF0zW0NIMl1bQ0BASF0oT1tDSDNdKVtDSDJdT1tDSDJdW0NIMl1bQ0gyXVtPSF0=

>  <s_glide_docking_method>  (1) 
confgen

>  <s_i_glide_gridfile>  (1) 
gpcr_5ht2c_6bqh_protein_autoprepared_prepared

>  <s_lp_Force_Field>  (1) 
S-OPLS

>  <s_lp_Variant>  (1) 
DiffSBDD_52-1

>  <s_m_source_file>  (1) 
generated_GPCR_5HT2C_ligand_DiffSBDD_2026-06-23_prepared.sdf

>  <GenAI_Model>  (1) 
DiffSBDD

>  <Protein>  (1) 
GPCR_5HT2C

$$$$
DiffSBDD_86
     RDKit          3D

  0  0  0  0  0  0  0  0  0  0999 V3000
M  V30 BEGIN CTAB
M  V30 COUNTS 77 79 0 0 1
M  V30 BEGIN ATOM
M  V30 1 C 41.309657 33.831263 65.855501 0
M  V30 2 C 39.002069 29.281345 51.088059 0
M  V30 3 C 38.814125 32.690210 60.888318 0 CFG=2
M  V30 4 C 40.357775 28.783436 50.627973 0
M  V30 5 N 39.898033 31.907464 61.549828 0
M  V30 6 C 39.505113 27.655767 59.517852 0
M  V30 7 N 41.790976 32.876522 64.959606 0
M  V30 8 C 37.896637 30.005656 58.069676 0
M  V30 9 O 35.684472 32.431656 59.367762 0
M  V30 10 O 37.310218 26.546171 57.361847 0
M  V30 11 C 39.137977 28.029081 56.965578 0 CFG=2
M  V30 12 C 38.644908 31.121464 58.832954 0
M  V30 13 C 39.632684 30.790267 62.271807 0
M  V30 14 N 38.801155 29.501145 56.995650 0 CFG=1 CHG=1
M  V30 15 C 38.014315 27.096401 56.486199 0
M  V30 16 C 41.139700 33.713506 67.266214 0
M  V30 17 C 40.266938 35.995817 67.388880 0
M  V30 18 O 38.445249 30.455155 62.455980 0
M  V30 19 C 41.281371 32.378567 61.340120 0
M  V30 20 C 40.433801 36.139159 66.003632 0
M  V30 21 C 38.011231 33.483263 61.920077 0
M  V30 22 S 41.243986 34.976941 63.514148 0
M  V30 23 O 37.884599 26.954349 55.245881 0 CHG=-1
M  V30 24 C 38.483563 30.126092 55.670360 0
M  V30 25 C 37.879694 31.881993 59.935628 0 CFG=2
M  V30 26 C 40.542825 26.062624 57.781312 0
M  V30 27 O 37.066279 32.867978 59.312161 0
M  V30 28 N 38.854492 29.309738 52.564509 0 CHG=1
M  V30 29 C 42.251340 32.470867 62.543526 0
M  V30 30 C 40.945684 35.073785 65.248749 0
M  V30 31 O 41.480567 32.552641 67.902948 0 CHG=-1
M  V30 32 C 39.705884 30.161148 54.733355 0
M  V30 33 C 41.791839 33.309768 63.695045 0
M  V30 34 C 41.486609 27.222509 57.906578 0
M  V30 35 C 39.995907 27.442237 58.099016 0
M  V30 36 O 40.581278 30.117740 62.728638 0 CHG=-1
M  V30 37 C 40.619311 34.788141 68.018417 0
M  V30 38 C 39.452256 30.481040 53.257328 0
M  V30 39 H 38.257289 28.591978 50.690108 0
M  V30 40 H 38.854986 30.249966 50.620168 0
M  V30 41 H 39.278956 33.433258 60.240293 0
M  V30 42 H 40.438988 28.897168 49.543743 0
M  V30 43 H 41.190235 29.326407 51.076109 0
M  V30 44 H 40.448169 27.728375 50.855416 0
M  V30 45 H 40.046104 26.983704 60.171367 0
M  V30 46 H 39.727670 28.651705 59.884971 0
M  V30 47 H 38.446477 27.434004 59.638506 0
M  V30 48 H 37.578933 29.216816 58.743892 0
M  V30 49 H 36.967134 30.387330 57.644325 0
M  V30 50 H 35.561303 32.137558 58.449938 0
M  V30 51 H 39.845152 27.915078 56.158006 0
M  V30 52 H 39.018385 31.856568 58.120073 0
M  V30 53 H 39.525402 30.663946 59.276363 0
M  V30 54 H 39.870401 36.813911 67.972676 0
M  V30 55 H 41.727934 31.759380 60.568584 0
M  V30 56 H 41.240145 33.397954 60.971617 0
M  V30 57 H 40.165852 37.065978 65.518069 0
M  V30 58 H 37.331437 34.191732 61.443162 0
M  V30 59 H 37.395867 32.825512 62.536657 0
M  V30 60 H 38.676585 34.049738 62.566085 0
M  V30 61 H 37.644086 29.619099 55.198069 0
M  V30 62 H 38.155111 31.156490 55.823495 0
M  V30 63 H 37.267312 31.183419 60.507040 0
M  V30 64 H 40.480167 25.325428 58.568456 0
M  V30 65 H 40.401840 25.653103 56.783112 0
M  V30 66 H 39.258338 28.459291 52.931072 0
M  V30 67 H 42.539973 31.487995 62.914115 0
M  V30 68 H 43.178826 32.897602 62.171550 0
M  V30 69 H 40.450788 30.843134 55.140423 0
M  V30 70 H 40.155756 29.188470 54.709044 0
M  V30 71 H 41.945451 27.596620 56.995357 0
M  V30 72 H 42.125824 27.249169 58.785450 0
M  V30 73 H 40.492217 34.682764 69.086074 0
M  V30 74 H 38.846968 31.381557 53.157118 0
M  V30 75 H 40.416600 30.706522 52.797528 0
M  V30 76 H 37.866456 29.284328 52.785399 0
M  V30 77 H 39.686406 29.909453 57.253613 0
M  V30 END ATOM
M  V30 BEGIN BOND
M  V30 1 1 4 2
M  V30 2 1 5 3
M  V30 3 1 7 1
M  V30 4 1 12 8
M  V30 5 1 13 5
M  V30 6 1 14 8
M  V30 7 1 14 11
M  V30 8 2 15 10
M  V30 9 1 15 11
M  V30 10 2 16 1
M  V30 11 2 18 13
M  V30 12 1 19 5
M  V30 13 1 20 17
M  V30 14 1 21 3
M  V30 15 1 23 15
M  V30 16 1 24 14
M  V30 17 1 25 3
M  V30 18 1 25 12
M  V30 19 1 27 9
M  V30 20 1 27 25
M  V30 21 1 28 2
M  V30 22 1 29 19
M  V30 23 1 30 1
M  V30 24 2 30 20
M  V30 25 1 30 22
M  V30 26 1 31 16
M  V30 27 1 32 24
M  V30 28 2 33 7
M  V30 29 1 33 22
M  V30 30 1 33 29
M  V30 31 1 34 26
M  V30 32 1 35 6
M  V30 33 1 35 11
M  V30 34 1 35 26
M  V30 35 1 35 34
M  V30 36 1 36 13
M  V30 37 1 37 16
M  V30 38 2 37 17
M  V30 39 1 38 28
M  V30 40 1 38 32
M  V30 41 1 39 2
M  V30 42 1 40 2
M  V30 43 1 3 41 CFG=3
M  V30 44 1 42 4
M  V30 45 1 43 4
M  V30 46 1 44 4
M  V30 47 1 45 6
M  V30 48 1 46 6
M  V30 49 1 47 6
M  V30 50 1 48 8
M  V30 51 1 49 8
M  V30 52 1 50 9
M  V30 53 1 11 51 CFG=3
M  V30 54 1 52 12
M  V30 55 1 53 12
M  V30 56 1 54 17
M  V30 57 1 55 19
M  V30 58 1 56 19
M  V30 59 1 57 20
M  V30 60 1 58 21
M  V30 61 1 59 21
M  V30 62 1 60 21
M  V30 63 1 61 24
M  V30 64 1 62 24
M  V30 65 1 25 63 CFG=1
M  V30 66 1 64 26
M  V30 67 1 65 26
M  V30 68 1 66 28
M  V30 69 1 67 29
M  V30 70 1 68 29
M  V30 71 1 69 32
M  V30 72 1 70 32
M  V30 73 1 71 34
M  V30 74 1 72 34
M  V30 75 1 73 37
M  V30 76 1 74 38
M  V30 77 1 75 38
M  V30 78 1 76 28
M  V30 79 1 14 77 CFG=1
M  V30 END BOND
M  V30 END CTAB
M  END
>  <i_epik_Tot_Q>  (1) 
-1

>  <i_epik_Tot_abs_Q>  (1) 
5

>  <i_i_glide_confnum>  (1) 
6764

>  <i_i_glide_lignum>  (1) 
207

>  <i_i_glide_posenum>  (1) 
381

>  <i_i_glide_rotatable_bonds>  (1) 
19

>  <i_lp_mmshare_version>  (1) 
72125

>  <i_m_source_file_index>  (1) 
87

>  <i_f3d_flags>  (1) 
0

>  <num_sample>  (1) 
100

>  <b_lp_Chiralities_Consistent>  (1) 
1

>  <r_epik_Charging_Adjusted_Penalty>  (1) 
1.7068457012274814

>  <r_epik_Ionization_Penalty>  (1) 
0.85572285372979207

>  <r_epik_Ionization_Penalty_Charging>  (1) 
0.8536556191236474

>  <r_epik_Ionization_Penalty_Neutral>  (1) 
0.0020672346061446629

>  <r_epik_State_Penalty>  (1) 
0.85319008210383396

>  <r_glide_ring_energy>  (1) 
0

>  <r_i_docking_score>  (1) 
-6.0618573650484642

>  <r_i_glide_ecoul>  (1) 
-8.2697117364300539

>  <r_i_glide_eff_state_penalty>  (1) 
0.85319008210383396

>  <r_i_glide_einternal>  (1) 
15.15415206427431

>  <r_i_glide_emodel>  (1) 
-60.591528742962097

>  <r_i_glide_emodel_strain>  (1) 
3.3628572781413908

>  <r_i_glide_energy>  (1) 
-44.603466042604566

>  <r_i_glide_erotb>  (1) 
0.88358493265308913

>  <r_i_glide_esite>  (1) 
-0.17143754695922175

>  <r_i_glide_evdw>  (1) 
-36.333754306174512

>  <r_i_glide_gscore>  (1) 
-6.9150474471522978

>  <r_i_glide_gscore_strain>  (1) 
0

>  <r_i_glide_hbond>  (1) 
-0.17301034161772222

>  <r_i_glide_ligand_efficiency>  (1) 
-0.15952256223811748

>  <r_i_glide_ligand_efficiency_ln>  (1) 
-1.3071147696814132

>  <r_i_glide_ligand_efficiency_sa>  (1) 
-0.5363109310741081

>  <r_i_glide_lipo>  (1) 
-3.6687783469668718

>  <r_i_glide_metal>  (1) 
-0

>  <r_i_glide_rewards>  (1) 
-0.72826166848833673

>  <r_lp_Energy>  (1) 
30.418627999999998

>  <s_epik_cmdline>  (1) 
J2VwaWtfcHl0aG9uJywgJy1waHQnLCAnMS4wJywgJy1waCcsICc3LjQnLCAnLXRuJywgJzgnLCAnLW1hJywgJzUwMCcsICctaW1hZScsICc8aW5maWxlLm1hZT4nLCAnLW9tYWUnLCAnPG91dGZpbGUubWFlPic=

>  <s_epik_input>  (1) 
W09IXWMxW2NIXVtjSF1bY0hdYyhjMTIpc2MobjIpW0NIMl1bQ0gyXU4oQyg9TylbT0hdKVtDQEhdKFtDSDNdKVtDQEBIXShPW09IXSlbQ0gyXVtDSDJdTihbQ0BIXShDKD1PKVtPSF0pQzMoW0NIM10pW0NIMl1bQ0gyXTMpW0NIMl1bQ0gyXVtDSDJdW05IXVtDSDJdW0NIM10=

>  <s_glide_docking_method>  (1) 
confgen

>  <s_i_glide_gridfile>  (1) 
gpcr_5ht2c_6bqh_protein_autoprepared_prepared

>  <s_lp_Force_Field>  (1) 
S-OPLS

>  <s_lp_Variant>  (1) 
DiffSBDD_86-4

>  <s_m_source_file>  (1) 
generated_GPCR_5HT2C_ligand_DiffSBDD_2026-06-23_prepared.sdf

>  <GenAI_Model>  (1) 
DiffSBDD

>  <Protein>  (1) 
GPCR_5HT2C

$$$$
DiffSBDD_25
     RDKit          3D

  0  0  0  0  0  0  0  0  0  0999 V3000
M  V30 BEGIN CTAB
M  V30 COUNTS 68 71 0 0 1
M  V30 BEGIN ATOM
M  V30 1 C 39.173994 26.817433 57.896262 0
M  V30 2 C 41.277179 35.343353 62.479074 0
M  V30 3 O 39.705186 25.686260 57.828659 0 CHG=-1
M  V30 4 C 36.478454 33.695220 59.937005 0
M  V30 5 N 37.645134 30.912247 57.921949 0
M  V30 6 C 41.702115 34.663068 63.789229 0
M  V30 7 C 38.851508 26.868011 55.329398 0
M  V30 8 C 38.261576 28.761578 54.135270 0
M  V30 9 C 40.719949 31.853457 65.224826 0
M  V30 10 C 42.112654 33.190171 63.604299 0
M  V30 11 C 40.993866 32.122532 63.716589 0 CFG=2
M  V30 12 C 37.974171 31.073708 55.112415 0
M  V30 13 O 42.706124 30.486297 63.742246 0
M  V30 14 O 39.536620 29.755771 58.661643 0
M  V30 15 N 38.586501 33.072630 60.867568 0
M  V30 16 C 38.594143 29.003163 56.548115 0
M  V30 17 O 38.845134 27.335591 58.979745 0
M  V30 18 C 40.601407 29.736699 63.018813 0
M  V30 19 C 38.884312 27.577184 56.579468 0
M  V30 20 C 39.676309 32.580527 63.045468 0
M  V30 21 C 39.749920 33.369971 61.719542 0 CFG=2
M  V30 22 C 38.666847 29.887400 57.804419 0
M  V30 23 C 38.680792 31.888640 60.025552 0
M  V30 24 N 38.555137 27.453669 54.154553 0
M  V30 25 C 41.562227 28.578014 63.147533 0
M  V30 26 C 37.454475 33.855592 60.828154 0
M  V30 27 N 39.106778 25.501491 55.275500 0
M  V30 28 N 41.487292 30.902842 63.046713 0
M  V30 29 C 39.911860 34.897816 61.958004 0
M  V30 30 C 37.604103 31.830738 58.940547 0
M  V30 31 C 43.892206 28.429510 64.234485 0
M  V30 32 N 36.570779 32.713858 58.967760 0 CHG=1
M  V30 33 C 42.536406 29.139918 64.163034 0 CFG=1
M  V30 34 C 38.270035 29.583242 55.273515 0
M  V30 35 H 42.020517 35.197325 61.695369 0
M  V30 36 H 41.245737 36.421394 62.645486 0
M  V30 37 H 35.589411 34.309075 59.890874 0
M  V30 38 H 36.897314 31.012146 57.239431 0
M  V30 39 H 42.563079 35.207134 64.177457 0
M  V30 40 H 40.930244 34.770109 64.551814 0
M  V30 41 H 38.030795 29.180230 53.165787 0
M  V30 42 H 40.440366 32.771477 65.740742 0
M  V30 43 H 39.904339 31.153054 65.394443 0
M  V30 44 H 41.596010 31.469701 65.747077 0
M  V30 45 H 42.645361 33.085150 62.656782 0
M  V30 46 H 42.845123 32.968190 64.377927 0
M  V30 47 H 38.101196 31.364025 54.069116 0
M  V30 48 H 36.942017 31.309393 55.367456 0
M  V30 49 H 38.659004 31.708432 55.676099 0
M  V30 50 H 39.906021 29.734604 63.855684 0
M  V30 51 H 40.016197 29.691947 62.100335 0
M  V30 52 H 39.245116 33.256396 63.764182 0
M  V30 53 H 38.969873 31.754974 62.966845 0
M  V30 54 H 40.627098 33.027142 61.169723 0
M  V30 55 H 38.635215 30.992616 60.645055 0
M  V30 56 H 39.645137 31.949170 59.554203 0
M  V30 57 H 42.045036 28.381966 62.189211 0
M  V30 58 H 41.077469 27.660783 63.486200 0
M  V30 59 H 37.418283 34.625780 61.579879 0
M  V30 60 H 39.394082 24.998927 56.113205 0
M  V30 61 H 39.119065 24.996612 54.403868 0
M  V30 62 H 39.746963 35.427072 61.018502 0
M  V30 63 H 39.153464 35.262599 62.651016 0
M  V30 64 H 43.773285 27.381185 64.506575 0
M  V30 65 H 44.418374 28.470643 63.283891 0
M  V30 66 H 44.535553 28.901017 64.976726 0
M  V30 67 H 42.071957 29.136657 65.151374 0
M  V30 68 H 35.882697 32.571566 58.221604 0
M  V30 END ATOM
M  V30 BEGIN BOND
M  V30 1 1 3 1
M  V30 2 1 6 2
M  V30 3 1 10 6
M  V30 4 1 11 9 CFG=1
M  V30 5 1 11 10
M  V30 6 2 17 1
M  V30 7 1 19 1
M  V30 8 2 19 7
M  V30 9 1 19 16
M  V30 10 1 20 11
M  V30 11 1 21 15
M  V30 12 1 21 20
M  V30 13 1 22 5
M  V30 14 2 22 14
M  V30 15 1 22 16
M  V30 16 1 23 15
M  V30 17 1 24 7
M  V30 18 2 24 8
M  V30 19 1 25 18
M  V30 20 2 26 4
M  V30 21 1 26 15
M  V30 22 1 27 7
M  V30 23 1 28 11
M  V30 24 1 28 13
M  V30 25 1 28 18
M  V30 26 1 29 2
M  V30 27 1 29 21
M  V30 28 1 30 5
M  V30 29 1 30 23
M  V30 30 1 32 4
M  V30 31 2 32 30
M  V30 32 1 33 13
M  V30 33 1 33 25
M  V30 34 1 33 31
M  V30 35 1 34 8
M  V30 36 1 34 12
M  V30 37 2 34 16
M  V30 38 1 35 2
M  V30 39 1 36 2
M  V30 40 1 37 4
M  V30 41 1 38 5
M  V30 42 1 39 6
M  V30 43 1 40 6
M  V30 44 1 41 8
M  V30 45 1 42 9
M  V30 46 1 43 9
M  V30 47 1 44 9
M  V30 48 1 45 10
M  V30 49 1 46 10
M  V30 50 1 47 12
M  V30 51 1 48 12
M  V30 52 1 49 12
M  V30 53 1 50 18
M  V30 54 1 51 18
M  V30 55 1 52 20
M  V30 56 1 53 20
M  V30 57 1 21 54 CFG=3
M  V30 58 1 55 23
M  V30 59 1 56 23
M  V30 60 1 57 25
M  V30 61 1 58 25
M  V30 62 1 59 26
M  V30 63 1 60 27
M  V30 64 1 61 27
M  V30 65 1 62 29
M  V30 66 1 63 29
M  V30 67 1 64 31
M  V30 68 1 65 31
M  V30 69 1 66 31
M  V30 70 1 33 67 CFG=1
M  V30 71 1 68 32
M  V30 END BOND
M  V30 END CTAB
M  END
>  <i_epik_Tot_Q>  (1) 
0

>  <i_epik_Tot_abs_Q>  (1) 
2

>  <i_i_glide_confnum>  (1) 
55

>  <i_i_glide_lignum>  (1) 
66

>  <i_i_glide_posenum>  (1) 
139

>  <i_i_glide_rotatable_bonds>  (1) 
6

>  <i_lp_mmshare_version>  (1) 
72125

>  <i_m_source_file_index>  (1) 
26

>  <i_f3d_flags>  (1) 
0

>  <num_sample>  (1) 
100

>  <b_lp_Chiralities_Consistent>  (1) 
1

>  <r_epik_Charging_Adjusted_Penalty>  (1) 
2.0881109960433539

>  <r_epik_Ionization_Penalty>  (1) 
0.85183889184377526

>  <r_epik_Ionization_Penalty_Charging>  (1) 
0.8304268618792634

>  <r_epik_Ionization_Penalty_Neutral>  (1) 
0.02141202996451182

>  <r_epik_State_Penalty>  (1) 
1.2576841341640903

>  <r_glide_ring_energy>  (1) 
0.043875447634132647

>  <r_i_docking_score>  (1) 
-6.0559104717024166

>  <r_i_glide_ecoul>  (1) 
-10.304040722456767

>  <r_i_glide_eff_state_penalty>  (1) 
1.2576841341640903

>  <r_i_glide_einternal>  (1) 
6.9846835037155905

>  <r_i_glide_emodel>  (1) 
-71.363287328428925

>  <r_i_glide_emodel_strain>  (1) 
0.038485664936501962

>  <r_i_glide_energy>  (1) 
-48.81825353879838

>  <r_i_glide_erotb>  (1) 
0.45623875647966866

>  <r_i_glide_esite>  (1) 
-0.3063861468518132

>  <r_i_glide_evdw>  (1) 
-38.514212816341612

>  <r_i_glide_gscore>  (1) 
-7.3135946058665073

>  <r_i_glide_gscore_strain>  (1) 
0

>  <r_i_glide_hbond>  (1) 
-0.37806446342470318

>  <r_i_glide_ligand_efficiency>  (1) 
-0.17811501387360049

>  <r_i_glide_ligand_efficiency_ln>  (1) 
-1.3379204857341676

>  <r_i_glide_ligand_efficiency_sa>  (1) 
-0.57702350092961885

>  <r_i_glide_lipo>  (1) 
-2.656072766509022

>  <r_i_glide_metal>  (1) 
-0

>  <r_i_glide_rewards>  (1) 
-0.95799323637504219

>  <r_lp_Energy>  (1) 
64.660426999999999

>  <s_epik_Chemistry_Notes>  (1) 
This compound has an imine and may undergo hydrolysis. This compound has a N-S or N-O group and may undergo hydrolysis at high or low pH.

>  <s_epik_cmdline>  (1) 
J2VwaWtfcHl0aG9uJywgJy1waHQnLCAnMS4wJywgJy1waCcsICc3LjQnLCAnLXRuJywgJzgnLCAnLW1hJywgJzUwMCcsICctaW1hZScsICc8aW5maWxlLm1hZT4nLCAnLW9tYWUnLCAnPG91dGZpbGUubWFlPic=

>  <s_epik_input>  (1) 
W09IXUMoPU8pYyhjMVtOSDJdKWMoYyhbY0hdbjEpW0NIM10pQyg9TylbTkhdQyg9TltDSF09W0NIXTIpW0NIMl1OMltDQEhdKFtDSDJdMylbQ0gyXVtDSDJdW0NIMl1bQ0gyXVtDQF0zKFtDSDNdKU40T1tDQEBIXShbQ0gzXSlbQ0gyXVtDSDJdNA==

>  <s_glide_docking_method>  (1) 
confgen

>  <s_i_glide_gridfile>  (1) 
gpcr_5ht2c_6bqh_protein_autoprepared_prepared

>  <s_lp_Force_Field>  (1) 
S-OPLS

>  <s_lp_Variant>  (1) 
DiffSBDD_25-6

>  <s_m_source_file>  (1) 
generated_GPCR_5HT2C_ligand_DiffSBDD_2026-06-23_prepared.sdf

>  <GenAI_Model>  (1) 
DiffSBDD

>  <Protein>  (1) 
GPCR_5HT2C

$$$$
DiffSBDD_35
     RDKit          3D

  0  0  0  0  0  0  0  0  0  0999 V3000
M  V30 BEGIN CTAB
M  V30 COUNTS 52 54 0 0 1
M  V30 BEGIN ATOM
M  V30 1 N 39.851837 30.928678 61.661191 0
M  V30 2 C 38.243074 28.384537 52.896548 0
M  V30 3 C 37.819946 30.664663 60.406188 0
M  V30 4 C 37.534529 26.461590 57.467171 0
M  V30 5 N 39.745399 29.327736 59.849722 0
M  V30 6 C 38.576127 31.277116 61.411692 0
M  V30 7 C 38.392084 28.272080 54.434228 0 CFG=2
M  V30 8 O 40.045017 31.580867 54.967534 0
M  V30 9 C 38.638265 25.792672 55.186183 0
M  V30 10 C 39.444777 29.066601 52.198097 0
M  V30 11 C 39.890485 30.389985 52.858862 0
M  V30 12 C 38.456474 29.666937 59.644174 0
M  V30 13 C 39.969396 30.296317 54.393840 0 CFG=2
M  V30 14 C 38.440746 25.482404 56.689239 0
M  V30 15 C 37.641885 29.721399 57.224666 0
M  V30 16 C 38.725001 29.674041 55.007121 0 CFG=2
M  V30 17 N 38.896455 29.688687 56.470730 0 CHG=1
M  V30 18 C 40.338898 29.956566 60.874882 0
M  V30 19 C 37.721667 28.911467 58.526110 0 CFG=1
M  V30 20 C 39.356103 27.122870 54.852390 0
M  V30 21 C 38.319498 27.474491 58.330429 0
M  V30 22 C 36.376934 31.072105 60.157921 0
M  V30 23 H 38.077119 27.400647 52.457980 0
M  V30 24 H 37.334241 28.939606 52.674752 0
M  V30 25 H 36.891037 25.881590 58.130251 0
M  V30 26 H 36.846550 26.937774 56.781062 0
M  V30 27 H 38.152742 32.053767 62.033367 0
M  V30 28 H 37.403129 28.015235 54.812723 0
M  V30 29 H 40.557431 32.137957 54.398866 0
M  V30 30 H 37.682777 25.733558 54.662575 0
M  V30 31 H 39.232844 24.976275 54.770824 0
M  V30 32 H 40.285513 28.374480 52.167492 0
M  V30 33 H 39.199542 29.260590 51.150534 0
M  V30 34 H 40.845132 30.697659 52.438328 0
M  V30 35 H 39.241780 31.210730 52.577317 0
M  V30 36 H 40.845044 29.741794 54.714437 0
M  V30 37 H 37.986928 24.492112 56.750223 0
M  V30 38 H 39.410376 25.375103 57.182138 0
M  V30 39 H 37.375433 30.760012 57.414682 0
M  V30 40 H 36.845233 29.337721 56.599879 0
M  V30 41 H 37.894775 30.336592 54.758792 0
M  V30 42 H 39.464131 28.902527 56.753472 0
M  V30 43 H 41.344313 29.643768 61.091505 0
M  V30 44 H 36.690087 28.807888 58.841041 0
M  V30 45 H 40.044303 26.925092 54.031755 0
M  V30 46 H 40.006218 27.400584 55.680428 0
M  V30 47 H 38.447615 27.012012 59.311013 0
M  V30 48 H 39.338776 27.556178 57.953731 0
M  V30 49 H 36.292217 31.616387 59.216055 0
M  V30 50 H 36.028192 31.744052 60.941819 0
M  V30 51 H 35.700631 30.220196 60.144198 0
M  V30 52 H 39.402683 30.543819 56.667185 0
M  V30 END ATOM
M  V30 BEGIN BOND
M  V30 1 1 6 1
M  V30 2 2 6 3
M  V30 3 1 7 2
M  V30 4 1 10 2
M  V30 5 1 11 10
M  V30 6 1 12 3
M  V30 7 2 12 5
M  V30 8 1 13 8
M  V30 9 1 13 11
M  V30 10 1 14 4
M  V30 11 1 14 9
M  V30 12 1 16 7
M  V30 13 1 16 13
M  V30 14 1 17 15
M  V30 15 1 17 16
M  V30 16 2 18 1
M  V30 17 1 18 5
M  V30 18 1 19 12
M  V30 19 1 19 15
M  V30 20 1 20 7
M  V30 21 1 20 9
M  V30 22 1 21 4
M  V30 23 1 21 19
M  V30 24 1 22 3
M  V30 25 1 23 2
M  V30 26 1 24 2
M  V30 27 1 25 4
M  V30 28 1 26 4
M  V30 29 1 27 6
M  V30 30 1 7 28 CFG=1
M  V30 31 1 29 8
M  V30 32 1 30 9
M  V30 33 1 31 9
M  V30 34 1 32 10
M  V30 35 1 33 10
M  V30 36 1 34 11
M  V30 37 1 35 11
M  V30 38 1 13 36 CFG=3
M  V30 39 1 37 14
M  V30 40 1 38 14
M  V30 41 1 39 15
M  V30 42 1 40 15
M  V30 43 1 16 41 CFG=1
M  V30 44 1 42 17
M  V30 45 1 43 18
M  V30 46 1 19 44 CFG=1
M  V30 47 1 45 20
M  V30 48 1 46 20
M  V30 49 1 47 21
M  V30 50 1 48 21
M  V30 51 1 49 22
M  V30 52 1 50 22
M  V30 53 1 51 22
M  V30 54 1 52 17
M  V30 END BOND
M  V30 END CTAB
M  END
>  <i_epik_Tot_Q>  (1) 
1

>  <i_epik_Tot_abs_Q>  (1) 
1

>  <i_i_glide_confnum>  (1) 
2

>  <i_i_glide_lignum>  (1) 
79

>  <i_i_glide_posenum>  (1) 
392

>  <i_i_glide_rotatable_bonds>  (1) 
2

>  <i_lp_mmshare_version>  (1) 
72125

>  <i_m_source_file_index>  (1) 
36

>  <i_f3d_flags>  (1) 
0

>  <num_sample>  (1) 
100

>  <b_lp_Chiralities_Consistent>  (1) 
1

>  <r_epik_Charging_Adjusted_Penalty>  (1) 
0.039208821755369223

>  <r_epik_Ionization_Penalty>  (1) 
0.019605249659357914

>  <r_epik_Ionization_Penalty_Charging>  (1) 
0.019604410877684601

>  <r_epik_Ionization_Penalty_Neutral>  (1) 
8.3878167331114202e-07

>  <r_epik_State_Penalty>  (1) 
0.019604410877684622

>  <r_glide_ring_energy>  (1) 
0

>  <r_i_docking_score>  (1) 
-6.0475201428698275

>  <r_i_glide_ecoul>  (1) 
-0.14704722205408016

>  <r_i_glide_eff_state_penalty>  (1) 
0.019604410877684622

>  <r_i_glide_einternal>  (1) 
0.64984901957900765

>  <r_i_glide_emodel>  (1) 
-29.856207505112263

>  <r_i_glide_emodel_strain>  (1) 
0.94193164838036836

>  <r_i_glide_energy>  (1) 
-24.349150033977423

>  <r_i_glide_erotb>  (1) 
0.1989582782383891

>  <r_i_glide_esite>  (1) 
-0.0024134094220900331

>  <r_i_glide_evdw>  (1) 
-24.202102811923343

>  <r_i_glide_gscore>  (1) 
-6.0671245537475125

>  <r_i_glide_gscore_strain>  (1) 
0

>  <r_i_glide_hbond>  (1) 
0

>  <r_i_glide_ligand_efficiency>  (1) 
-0.27488727922135581

>  <r_i_glide_ligand_efficiency_ln>  (1) 
-1.478234511574293

>  <r_i_glide_ligand_efficiency_sa>  (1) 
-0.77024496787508834

>  <r_i_glide_lipo>  (1) 
-3.166198494069854

>  <r_i_glide_metal>  (1) 
-0

>  <r_i_glide_rewards>  (1) 
-1.8653087045896775

>  <r_lp_Energy>  (1) 
40.847864000000001

>  <r_lp_tautomer_probability>  (1) 
1

>  <s_epik_Chemistry_Notes>  (1) 
This compound contains an electron-poor aromatic ring that is susceptible to covalent hydrolysis at low pH, typically resulting in measured values for nitrogen ring protonation that are around two units higher than predicted values.

>  <s_epik_cmdline>  (1) 
J2VwaWtfcHl0aG9uJywgJy1waHQnLCAnMS4wJywgJy1waCcsICc3LjQnLCAnLXRuJywgJzgnLCAnLW1hJywgJzUwMCcsICctaW1hZScsICc8aW5maWxlLm1hZT4nLCAnLW9tYWUnLCAnPG91dGZpbGUubWFlPic=

>  <s_epik_input>  (1) 
W0NIM11jMVtjSF1uW2NIXW5jMVtDQEhdKFtDSDJdW0NIMl1bQ0gyXVtDSDJdW0NIMl0yKVtDSDJdW05IXVtDQEhdKFtDQEhdMjMpW0NASF0oW09IXSlbQ0gyXVtDSDJdW0NIMl0z

>  <s_glide_docking_method>  (1) 
confgen

>  <s_i_glide_gridfile>  (1) 
gpcr_5ht2c_6bqh_protein_autoprepared_prepared

>  <s_lp_Force_Field>  (1) 
S-OPLS

>  <s_lp_Variant>  (1) 
DiffSBDD_35-1

>  <s_m_source_file>  (1) 
generated_GPCR_5HT2C_ligand_DiffSBDD_2026-06-23_prepared.sdf

>  <GenAI_Model>  (1) 
DiffSBDD

>  <Protein>  (1) 
GPCR_5HT2C

$$$$
DiffSBDD_75
     RDKit          3D

  0  0  0  0  0  0  0  0  0  0999 V3000
M  V30 BEGIN CTAB
M  V30 COUNTS 77 78 0 0 1
M  V30 BEGIN ATOM
M  V30 1 C 37.709394 33.555618 59.355560 0
M  V30 2 C 38.881431 33.116425 55.938684 0
M  V30 3 O 37.645132 28.656392 57.063244 0
M  V30 4 C 37.528325 36.618678 60.598570 0
M  V30 5 C 39.306402 27.874907 54.790607 0 CFG=2
M  V30 6 C 41.502394 33.253019 64.119443 0
M  V30 7 C 39.009524 28.653770 57.324235 0 CFG=2
M  V30 8 C 41.187336 32.129752 64.911244 0
M  V30 9 O 37.134293 27.578395 53.765113 0
M  V30 10 C 39.786456 26.265580 56.688822 0 CFG=2
M  V30 11 O 41.241223 33.627287 68.278130 0
M  V30 12 S 38.351151 30.990214 58.633256 0
M  V30 13 C 38.048260 37.721245 61.531590 0
M  V30 14 C 41.329055 33.506186 66.921890 0
M  V30 15 C 39.419430 30.122202 57.434469 0
M  V30 16 C 41.599828 33.117326 62.611384 0
M  V30 17 C 41.734388 34.503595 64.733156 0
M  V30 18 O 38.391363 24.288973 56.951006 0
M  V30 19 C 40.425723 26.004889 58.062364 0
M  V30 20 C 39.769094 27.768144 56.284227 0 CFG=1
M  V30 21 O 37.991952 38.985746 60.902548 0
M  V30 22 O 38.045121 33.252362 57.071736 0
M  V30 23 O 38.948521 32.382467 61.783299 0
M  V30 24 C 36.445044 34.708113 61.737194 0
M  V30 25 N 37.715825 35.280047 61.219245 0 CFG=1 CHG=1
M  V30 26 C 39.344816 33.467571 61.362352 0
M  V30 27 C 41.103128 32.256579 66.311209 0
M  V30 28 C 40.662394 34.079251 61.852195 0
M  V30 29 C 38.535845 34.346032 60.394469 0 CFG=1
M  V30 30 C 41.645082 34.629430 66.132130 0
M  V30 31 C 37.858704 25.713015 55.111078 0
M  V30 32 C 38.544189 32.776603 58.313320 0 CFG=1
M  V30 33 C 39.279711 29.301983 54.204415 0
M  V30 34 C 38.375465 25.644979 56.558995 0 CFG=2
M  V30 35 C 38.008762 27.104350 54.488199 0
M  V30 36 H 37.007820 32.880492 59.847007 0
M  V30 37 H 37.071707 34.271366 58.832241 0
M  V30 38 H 38.828459 34.041256 55.367762 0
M  V30 39 H 39.928703 32.938144 56.186146 0
M  V30 40 H 38.524281 32.311588 55.297573 0
M  V30 41 H 37.260045 29.402621 57.506049 0
M  V30 42 H 38.045230 36.685359 59.642035 0
M  V30 43 H 36.476886 36.791144 60.362892 0
M  V30 44 H 39.127499 28.249553 58.326389 0
M  V30 45 H 41.011227 31.170654 64.446038 0
M  V30 46 H 38.416999 25.010851 54.494013 0
M  V30 47 H 40.431791 25.754535 55.971461 0
M  V30 48 H 41.386141 34.508458 68.586338 0
M  V30 49 H 37.466798 37.738195 62.454568 0
M  V30 50 H 39.086488 37.529530 61.807201 0
M  V30 51 H 39.376177 30.618722 56.475215 0
M  V30 52 H 40.445117 30.137751 57.768174 0
M  V30 53 H 42.630331 33.331819 62.338011 0
M  V30 54 H 41.440281 32.080093 62.311393 0
M  V30 55 H 41.980010 35.366621 64.130316 0
M  V30 56 H 37.502840 23.966235 56.959503 0
M  V30 57 H 39.774306 26.281248 58.890382 0
M  V30 58 H 40.631047 24.941984 58.169650 0
M  V30 59 H 41.371283 26.537879 58.167745 0
M  V30 60 H 40.810215 28.092812 56.309907 0
M  V30 61 H 37.093149 39.195265 60.680209 0
M  V30 62 H 35.695312 34.614666 60.949020 0
M  V30 63 H 36.585778 33.716225 62.167545 0
M  V30 64 H 36.040486 35.347209 62.522770 0
M  V30 65 H 40.861128 31.395426 66.917253 0
M  V30 66 H 40.453538 34.971980 62.440852 0
M  V30 67 H 41.186827 34.435175 60.967857 0
M  V30 68 H 39.267435 34.938425 59.847505 0
M  V30 69 H 41.819888 35.588131 66.597786 0
M  V30 70 H 36.813653 25.409951 55.066940 0
M  V30 71 H 40.045124 27.326008 54.211740 0
M  V30 72 H 39.593821 33.054495 58.411026 0
M  V30 73 H 39.193191 29.277336 53.117553 0
M  V30 74 H 38.431290 29.876295 54.577825 0
M  V30 75 H 40.193144 29.847467 54.439508 0
M  V30 76 H 37.676178 26.142328 57.229853 0
M  V30 77 H 38.283337 35.452347 62.037093 0
M  V30 END ATOM
M  V30 BEGIN BOND
M  V30 1 1 7 3
M  V30 2 1 8 6
M  V30 3 1 13 4
M  V30 4 1 14 11
M  V30 5 1 15 7
M  V30 6 1 15 12
M  V30 7 1 16 6
M  V30 8 2 17 6
M  V30 9 1 19 10
M  V30 10 1 20 5
M  V30 11 1 20 7
M  V30 12 1 20 10
M  V30 13 1 21 13
M  V30 14 1 22 2
M  V30 15 1 25 4
M  V30 16 1 25 24
M  V30 17 2 26 23
M  V30 18 2 27 8
M  V30 19 1 27 14
M  V30 20 1 28 16
M  V30 21 1 28 26
M  V30 22 1 29 1
M  V30 23 1 29 25
M  V30 24 1 29 26
M  V30 25 2 30 14
M  V30 26 1 30 17
M  V30 27 1 32 1
M  V30 28 1 32 12
M  V30 29 1 32 22
M  V30 30 1 33 5
M  V30 31 1 34 10
M  V30 32 1 34 18
M  V30 33 1 34 31
M  V30 34 1 35 5
M  V30 35 2 35 9
M  V30 36 1 35 31
M  V30 37 1 36 1
M  V30 38 1 37 1
M  V30 39 1 38 2
M  V30 40 1 39 2
M  V30 41 1 40 2
M  V30 42 1 41 3
M  V30 43 1 42 4
M  V30 44 1 43 4
M  V30 45 1 7 44 CFG=1
M  V30 46 1 45 8
M  V30 47 1 46 31
M  V30 48 1 10 47 CFG=3
M  V30 49 1 48 11
M  V30 50 1 49 13
M  V30 51 1 50 13
M  V30 52 1 51 15
M  V30 53 1 52 15
M  V30 54 1 53 16
M  V30 55 1 54 16
M  V30 56 1 55 17
M  V30 57 1 56 18
M  V30 58 1 57 19
M  V30 59 1 58 19
M  V30 60 1 59 19
M  V30 61 1 20 60 CFG=3
M  V30 62 1 61 21
M  V30 63 1 62 24
M  V30 64 1 63 24
M  V30 65 1 64 24
M  V30 66 1 65 27
M  V30 67 1 66 28
M  V30 68 1 67 28
M  V30 69 1 29 68 CFG=3
M  V30 70 1 69 30
M  V30 71 1 70 31
M  V30 72 1 5 71 CFG=3
M  V30 73 1 32 72 CFG=1
M  V30 74 1 73 33
M  V30 75 1 74 33
M  V30 76 1 75 33
M  V30 77 1 34 76 CFG=1
M  V30 78 1 25 77 CFG=1
M  V30 END BOND
M  V30 END CTAB
M  END
>  <i_epik_Tot_Q>  (1) 
1

>  <i_epik_Tot_abs_Q>  (1) 
1

>  <i_i_glide_confnum>  (1) 
898

>  <i_i_glide_lignum>  (1) 
167

>  <i_i_glide_posenum>  (1) 
138

>  <i_i_glide_rotatable_bonds>  (1) 
18

>  <i_lp_mmshare_version>  (1) 
72125

>  <i_m_source_file_index>  (1) 
76

>  <i_f3d_flags>  (1) 
0

>  <num_sample>  (1) 
100

>  <b_lp_Chiralities_Consistent>  (1) 
1

>  <r_epik_Charging_Adjusted_Penalty>  (1) 
0.52789471212939676

>  <r_epik_Ionization_Penalty>  (1) 
0.26592108790513191

>  <r_epik_Ionization_Penalty_Charging>  (1) 
0.26394735606469838

>  <r_epik_Ionization_Penalty_Neutral>  (1) 
0.0019737318404335234

>  <r_epik_State_Penalty>  (1) 
0.26394735606469838

>  <r_glide_ring_energy>  (1) 
0

>  <r_i_docking_score>  (1) 
-6.0446510476698512

>  <r_i_glide_ecoul>  (1) 
-2.4304731383194493

>  <r_i_glide_eff_state_penalty>  (1) 
0.26394735606469838

>  <r_i_glide_einternal>  (1) 
8.9933821840135373

>  <r_i_glide_emodel>  (1) 
-60.146460937113019

>  <r_i_glide_emodel_strain>  (1) 
5.9396752132045947

>  <r_i_glide_energy>  (1) 
-50.044865721402722

>  <r_i_glide_erotb>  (1) 
1.0139394581015995

>  <r_i_glide_esite>  (1) 
0

>  <r_i_glide_evdw>  (1) 
-47.614392583083273

>  <r_i_glide_gscore>  (1) 
-6.3085984037345497

>  <r_i_glide_gscore_strain>  (1) 
0.48491880330114867

>  <r_i_glide_hbond>  (1) 
-0.09825542181385867

>  <r_i_glide_ligand_efficiency>  (1) 
-0.17270431564771002

>  <r_i_glide_ligand_efficiency_ln>  (1) 
-1.3269350587655198

>  <r_i_glide_ligand_efficiency_sa>  (1) 
-0.56492726853940045

>  <r_i_glide_lipo>  (1) 
-3.8477104263496105

>  <r_i_glide_metal>  (1) 
-0

>  <r_i_glide_rewards>  (1) 
-1.1162002170717478

>  <r_lp_Energy>  (1) 
30.915486999999999

>  <r_lp_tautomer_probability>  (1) 
0.99989998499911525

>  <s_epik_Chemistry_Notes>  (1) 
This compound contains an acetal/aminal-like group ( X-CH(R)-Y where X, Y are N, S, or O) that may be acid/base labile, releasing an aldehyde.

>  <s_epik_cmdline>  (1) 
J2VwaWtfcHl0aG9uJywgJy1waHQnLCAnMS4wJywgJy1waCcsICc3LjQnLCAnLXRuJywgJzgnLCAnLW1hJywgJzUwMCcsICctaW1hZScsICc8aW5maWxlLm1hZT4nLCAnLW9tYWUnLCAnPG91dGZpbGUubWFlPic=

>  <s_epik_input>  (1) 
W2NIXTFbY0hdYyhbT0hdKVtjSF1bY0hdYzFbQ0gyXVtDSDJdQyg9TylbQ0BIXShOKFtDSDNdKVtDSDJdW0NIMl1bT0hdKVtDSDJdW0NASF0oT1tDSDNdKVNbQ0gyXVtDQEBIXShbT0hdKVtDQEhdMltDQEBIXShbQ0gzXSlbQ0BIXShbT0hdKVtDSDJdQyhbT0hdKT1DMltDSDNd

>  <s_glide_docking_method>  (1) 
confgen

>  <s_i_glide_gridfile>  (1) 
gpcr_5ht2c_6bqh_protein_autoprepared_prepared

>  <s_lp_Force_Field>  (1) 
S-OPLS

>  <s_lp_Variant>  (1) 
DiffSBDD_75-4

>  <s_m_source_file>  (1) 
generated_GPCR_5HT2C_ligand_DiffSBDD_2026-06-23_prepared.sdf

>  <GenAI_Model>  (1) 
DiffSBDD

>  <Protein>  (1) 
GPCR_5HT2C

$$$$
DiffSBDD_53
     RDKit          3D

  0  0  0  0  0  0  0  0  0  0999 V3000
M  V30 BEGIN CTAB
M  V30 COUNTS 82 86 0 0 1
M  V30 BEGIN ATOM
M  V30 1 C 40.696973 28.044758 58.983326 0
M  V30 2 C 40.249172 32.915562 64.036325 0
M  V30 3 C 36.845167 35.510299 61.760244 0
M  V30 4 C 39.980758 27.789421 60.329182 0
M  V30 5 C 39.903945 35.049459 61.777190 0
M  V30 6 C 37.719613 27.872365 54.048973 0
M  V30 7 C 38.295751 31.216527 57.111924 0
M  V30 8 N 39.981567 28.980356 58.110556 0
M  V30 9 N 36.283703 36.937756 64.567732 0 CHG=1
M  V30 10 C 42.590617 31.130088 63.695437 0
M  V30 11 C 38.645678 28.564546 57.663437 0 CFG=1
M  V30 12 N 40.198944 28.807223 61.358636 0 CHG=1
M  V30 13 C 38.921003 34.250474 61.331107 0
M  V30 14 C 41.204339 34.439443 62.216007 0
M  V30 15 C 37.803264 29.797050 57.355984 0 CFG=1
M  V30 16 C 40.288832 32.261594 61.580316 0 CFG=1
M  V30 17 C 38.734528 27.582811 56.459855 0 CFG=2
M  V30 18 C 36.275676 37.445850 63.194241 0
M  V30 19 O 36.499185 29.737685 57.883313 0
M  V30 20 C 39.447795 30.161652 61.119044 0
M  V30 21 C 40.466057 31.660118 64.911952 0
M  V30 22 C 41.938894 31.280869 65.068958 0
M  V30 23 C 41.038542 32.990067 62.707685 0
M  V30 24 O 40.060241 30.977071 62.035605 0
M  V30 25 C 42.445161 32.437275 62.899200 0
M  V30 26 C 38.819497 28.275421 55.056536 0 CFG=2
M  V30 27 O 37.652438 26.672922 56.558217 0
M  V30 28 C 38.600914 37.209139 62.080899 0
M  V30 29 N 38.956873 29.752347 55.197273 0 CFG=1 CHG=1
M  V30 30 O 39.078745 32.886069 61.267878 0
M  V30 31 C 39.253198 30.490064 53.954515 0
M  V30 32 C 37.842074 30.355022 55.958792 0 CFG=2
M  V30 33 C 39.751107 36.506647 61.855306 0
M  V30 34 C 37.623834 34.701847 60.800822 0
M  V30 35 C 37.248654 36.665224 62.309916 0
M  V30 36 H 40.816754 27.089889 58.470167 0
M  V30 37 H 41.710454 28.405064 59.167683 0
M  V30 38 H 40.473926 33.794216 64.641683 0
M  V30 39 H 39.207651 32.967938 63.767808 0
M  V30 40 H 35.851937 35.147298 61.972328 0
M  V30 41 H 38.921020 27.574129 60.235422 0
M  V30 42 H 40.445112 26.938054 60.792274 0
M  V30 43 H 37.652576 26.789381 53.944733 0
M  V30 44 H 36.744878 28.239906 54.354848 0
M  V30 45 H 37.921425 28.260864 53.051164 0
M  V30 46 H 37.645190 32.039049 57.404661 0
M  V30 47 H 39.358422 31.432226 57.191189 0
M  V30 48 H 39.906501 29.884130 58.564295 0
M  V30 49 H 35.716057 37.527817 65.159192 0
M  V30 50 H 35.874014 36.007152 64.576108 0
M  V30 51 H 42.165832 30.285501 63.154135 0
M  V30 52 H 43.645217 30.893109 63.831329 0
M  V30 53 H 38.126779 28.053141 58.468767 0
M  V30 54 H 39.895682 28.427630 62.247483 0
M  V30 55 H 41.884197 34.483045 61.367725 0
M  V30 56 H 41.645923 35.066608 62.993102 0
M  V30 57 H 40.900275 32.238119 60.677392 0
M  V30 58 H 39.621246 26.957035 56.570990 0
M  V30 59 H 36.485204 38.514124 63.175798 0
M  V30 60 H 35.243548 37.339071 62.892480 0
M  V30 61 H 35.998903 30.483632 57.535976 0
M  V30 62 H 39.579282 30.513095 60.098924 0
M  V30 63 H 38.384815 30.074507 61.344478 0
M  V30 64 H 39.920667 30.814857 64.492517 0
M  V30 65 H 40.044008 31.823265 65.900983 0
M  V30 66 H 42.028973 30.351912 65.632463 0
M  V30 67 H 42.460600 32.042890 65.650132 0
M  V30 68 H 43.010223 32.421675 61.966946 0
M  V30 69 H 42.845136 33.217067 63.532777 0
M  V30 70 H 39.750028 27.926247 54.613807 0
M  V30 71 H 36.844364 27.159503 56.631304 0
M  V30 72 H 38.713614 38.270325 62.167753 0
M  V30 73 H 38.344232 30.575420 53.367761 0
M  V30 74 H 39.594337 31.499222 54.184018 0
M  V30 75 H 40.025061 29.998197 53.361744 0
M  V30 76 H 36.913393 30.544255 55.419852 0
M  V30 77 H 40.660536 37.087544 61.791989 0
M  V30 78 H 37.782357 35.280236 59.889020 0
M  V30 79 H 37.027060 33.834064 60.517536 0
M  V30 80 H 39.770733 29.865746 55.786886 0
M  V30 81 H 37.228579 36.903667 64.923671 0
M  V30 82 H 41.191762 28.963836 61.426586 0
M  V30 END ATOM
M  V30 BEGIN BOND
M  V30 1 1 4 1
M  V30 2 1 8 1
M  V30 3 1 11 8
M  V30 4 1 12 4
M  V30 5 2 13 5
M  V30 6 1 14 5
M  V30 7 1 15 7
M  V30 8 1 15 11
M  V30 9 1 17 11
M  V30 10 1 18 9
M  V30 11 1 15 19 CFG=1
M  V30 12 1 20 12
M  V30 13 1 21 2
M  V30 14 1 22 10
M  V30 15 1 22 21
M  V30 16 1 23 2
M  V30 17 1 23 14
M  V30 18 1 23 16
M  V30 19 1 24 16
M  V30 20 1 24 20
M  V30 21 1 25 10
M  V30 22 1 25 23
M  V30 23 1 26 6
M  V30 24 1 26 17
M  V30 25 1 27 17
M  V30 26 1 29 26
M  V30 27 1 30 13
M  V30 28 1 30 16
M  V30 29 1 31 29
M  V30 30 1 32 7
M  V30 31 1 32 15
M  V30 32 1 32 29
M  V30 33 1 33 5
M  V30 34 2 33 28
M  V30 35 1 34 3
M  V30 36 1 34 13
M  V30 37 2 35 3
M  V30 38 1 35 18
M  V30 39 1 35 28
M  V30 40 1 36 1
M  V30 41 1 37 1
M  V30 42 1 38 2
M  V30 43 1 39 2
M  V30 44 1 40 3
M  V30 45 1 41 4
M  V30 46 1 42 4
M  V30 47 1 43 6
M  V30 48 1 44 6
M  V30 49 1 45 6
M  V30 50 1 46 7
M  V30 51 1 47 7
M  V30 52 1 48 8
M  V30 53 1 49 9
M  V30 54 1 50 9
M  V30 55 1 51 10
M  V30 56 1 52 10
M  V30 57 1 11 53 CFG=1
M  V30 58 1 54 12
M  V30 59 1 55 14
M  V30 60 1 56 14
M  V30 61 1 16 57 CFG=3
M  V30 62 1 17 58 CFG=1
M  V30 63 1 59 18
M  V30 64 1 60 18
M  V30 65 1 61 19
M  V30 66 1 62 20
M  V30 67 1 63 20
M  V30 68 1 64 21
M  V30 69 1 65 21
M  V30 70 1 66 22
M  V30 71 1 67 22
M  V30 72 1 68 25
M  V30 73 1 69 25
M  V30 74 1 26 70 CFG=3
M  V30 75 1 71 27
M  V30 76 1 72 28
M  V30 77 1 73 31
M  V30 78 1 74 31
M  V30 79 1 75 31
M  V30 80 1 32 76 CFG=3
M  V30 81 1 77 33
M  V30 82 1 78 34
M  V30 83 1 79 34
M  V30 84 1 29 80 CFG=1
M  V30 85 1 81 9
M  V30 86 1 82 12
M  V30 END BOND
M  V30 END CTAB
M  END
>  <i_epik_Tot_Q>  (1) 
3

>  <i_epik_Tot_abs_Q>  (1) 
3

>  <i_i_glide_confnum>  (1) 
453

>  <i_i_glide_lignum>  (1) 
114

>  <i_i_glide_posenum>  (1) 
1

>  <i_i_glide_rotatable_bonds>  (1) 
10

>  <i_lp_mmshare_version>  (1) 
72125

>  <i_m_source_file_index>  (1) 
54

>  <i_f3d_flags>  (1) 
0

>  <num_sample>  (1) 
100

>  <b_lp_Chiralities_Consistent>  (1) 
1

>  <r_epik_Charging_Adjusted_Penalty>  (1) 
1.5449594399157651

>  <r_epik_Ionization_Penalty>  (1) 
0.47240059175592303

>  <r_epik_Ionization_Penalty_Charging>  (1) 
0.40568266018177357

>  <r_epik_Ionization_Penalty_Neutral>  (1) 
0.066717931574149458

>  <r_epik_State_Penalty>  (1) 
1.1392767797339916

>  <r_glide_ring_energy>  (1) 
0.00056355326545655675

>  <r_i_docking_score>  (1) 
-6.0402160883419675

>  <r_i_glide_ecoul>  (1) 
-7.5245970150803991

>  <r_i_glide_eff_state_penalty>  (1) 
1.1392767797339916

>  <r_i_glide_einternal>  (1) 
6.3296449747717514

>  <r_i_glide_emodel>  (1) 
-45.528818918331012

>  <r_i_glide_emodel_strain>  (1) 
0.76740736454821956

>  <r_i_glide_energy>  (1) 
-35.205804377442576

>  <r_i_glide_erotb>  (1) 
0.58947078011706677

>  <r_i_glide_esite>  (1) 
-0.0064686027063752052

>  <r_i_glide_evdw>  (1) 
-27.681207362362176

>  <r_i_glide_gscore>  (1) 
-7.1794928680759593

>  <r_i_glide_gscore_strain>  (1) 
0

>  <r_i_glide_hbond>  (1) 
-0.16

>  <r_i_glide_ligand_efficiency>  (1) 
-0.17257760252405621

>  <r_i_glide_ligand_efficiency_ln>  (1) 
-1.3259614867644303

>  <r_i_glide_ligand_efficiency_sa>  (1) 
-0.56451278150955775

>  <r_i_glide_lipo>  (1) 
-4.0697404834684843

>  <r_i_glide_metal>  (1) 
-0

>  <r_i_glide_rewards>  (1) 
-1.0200046416379969

>  <r_lp_Energy>  (1) 
63.319117999999996

>  <s_epik_Chemistry_Notes>  (1) 
This compound contains an acetal/aminal-like group ( X-CH(R)-Y where X, Y are N, S, or O) that may be acid/base labile, releasing an aldehyde.

>  <s_epik_cmdline>  (1) 
J2VwaWtfcHl0aG9uJywgJy1waHQnLCAnMS4wJywgJy1waCcsICc3LjQnLCAnLXRuJywgJzgnLCAnLW1hJywgJzUwMCcsICctaW1hZScsICc8aW5maWxlLm1hZT4nLCAnLW9tYWUnLCAnPG91dGZpbGUubWFlPic=

>  <s_epik_input>  (1) 
W09IXVtDQEBdMTJbQ0BASF0oW0NIMl0xKU4oW0NIM10pW0NASF0oW0NIM10pW0NASF0oW09IXSlbQ0BIXTJbTkhdW0NIMl1bQ0gyXVtOSF1bQ0gyXU9bQ0BIXTNPQyhbQ0gyXVtDSF09QyhbQ0gyXVtOSDJdKVtDSF09W0NIXTQpPUM0W0NIMl1DMzVbQ0gyXVtDSDJdW0NIMl1bQ0gyXVtDSDJdNQ==

>  <s_glide_docking_method>  (1) 
confgen

>  <s_i_glide_gridfile>  (1) 
gpcr_5ht2c_6bqh_protein_autoprepared_prepared

>  <s_lp_Force_Field>  (1) 
S-OPLS

>  <s_lp_Variant>  (1) 
DiffSBDD_53-6

>  <s_m_source_file>  (1) 
generated_GPCR_5HT2C_ligand_DiffSBDD_2026-06-23_prepared.sdf

>  <GenAI_Model>  (1) 
DiffSBDD

>  <Protein>  (1) 
GPCR_5HT2C

$$$$
DiffSBDD_83
     RDKit          3D

  0  0  0  0  0  0  0  0  0  0999 V3000
M  V30 BEGIN CTAB
M  V30 COUNTS 54 55 0 0 1
M  V30 BEGIN ATOM
M  V30 1 C 40.411414 31.269591 62.132246 0
M  V30 2 C 38.733454 31.810988 56.967180 0
M  V30 3 N 38.495346 32.910033 56.252144 0
M  V30 4 O 39.635500 26.093665 55.684389 0
M  V30 5 O 39.494467 30.301859 62.244658 0
M  V30 6 C 38.517972 32.797910 61.398631 0
M  V30 7 C 37.402153 31.807319 61.737748 0
M  V30 8 C 37.603923 25.270750 55.334508 0
M  V30 9 C 39.039262 27.248881 51.313041 0
M  V30 10 C 39.853240 32.558767 61.594653 0
M  V30 11 C 39.342926 30.618783 56.305312 0
M  V30 12 C 37.197039 33.983645 59.526154 0
M  V30 13 N 37.931915 33.737753 57.142473 0
M  V30 14 O 40.045727 28.992788 62.567621 0
M  V30 15 C 38.924462 28.382107 55.144115 0 CFG=1
M  V30 16 C 39.062378 29.695524 52.977510 0
M  V30 17 C 38.872090 25.048666 55.386543 0
M  V30 18 O 41.598706 31.116495 62.418708 0
M  V30 19 C 38.588841 27.068637 55.903766 0 CFG=1
M  V30 20 C 38.336032 31.955669 58.335307 0
M  V30 21 O 37.271659 26.537707 55.587892 0
M  V30 22 C 39.124184 27.164099 52.842689 0
M  V30 23 C 38.566423 28.380875 53.622680 0 CFG=1
M  V30 24 C 37.818791 33.214782 58.394861 0
M  V30 25 Cl 36.445262 24.050101 54.967502 0
M  V30 26 C 38.040672 34.120097 60.813969 0
M  V30 27 C 38.287658 29.573280 55.910322 0
M  V30 28 H 37.612539 34.660539 56.874409 0
M  V30 29 H 36.430603 32.297590 61.689367 0
M  V30 30 H 37.368207 30.957766 61.055995 0
M  V30 31 H 37.500052 31.461370 62.763132 0
M  V30 32 H 39.245569 26.274378 50.883821 0
M  V30 33 H 38.044992 27.548065 50.983943 0
M  V30 34 H 39.768474 27.941342 50.892866 0
M  V30 35 H 40.567045 33.331833 61.351584 0
M  V30 36 H 39.922184 30.931156 55.436074 0
M  V30 37 H 40.044997 30.151951 56.993604 0
M  V30 38 H 36.242381 33.516489 59.767401 0
M  V30 39 H 36.935549 34.985281 59.181042 0
M  V30 40 H 39.778071 28.903731 63.474310 0
M  V30 41 H 40.008504 28.474180 55.226009 0
M  V30 42 H 40.139361 29.807526 53.090580 0
M  V30 43 H 38.844906 29.737729 51.912915 0
M  V30 44 H 38.595980 30.576019 53.417763 0
M  V30 45 H 39.401409 24.137755 55.220157 0
M  V30 46 H 38.606400 27.234592 56.982711 0
M  V30 47 H 38.408025 31.236634 59.133430 0
M  V30 48 H 40.148303 26.937668 53.133805 0
M  V30 49 H 38.535846 26.295240 53.113962 0
M  V30 50 H 37.479040 28.354932 53.530270 0
M  V30 51 H 37.463154 34.645881 61.574960 0
M  V30 52 H 38.905377 34.751122 60.603476 0
M  V30 53 H 37.772081 29.250734 56.815986 0
M  V30 54 H 37.504197 30.042332 55.313079 0
M  V30 END ATOM
M  V30 BEGIN BOND
M  V30 1 2 3 2
M  V30 2 1 5 1
M  V30 3 1 7 6
M  V30 4 1 10 1
M  V30 5 2 10 6
M  V30 6 1 11 2
M  V30 7 1 13 3
M  V30 8 1 14 5
M  V30 9 1 17 4
M  V30 10 2 17 8
M  V30 11 2 18 1
M  V30 12 1 19 4
M  V30 13 1 19 15
M  V30 14 1 20 2
M  V30 15 1 21 8
M  V30 16 1 21 19
M  V30 17 1 22 9
M  V30 18 1 23 15
M  V30 19 1 23 16
M  V30 20 1 23 22
M  V30 21 1 24 12
M  V30 22 1 24 13
M  V30 23 2 24 20
M  V30 24 1 25 8
M  V30 25 1 26 6
M  V30 26 1 26 12
M  V30 27 1 27 11
M  V30 28 1 27 15
M  V30 29 1 28 13
M  V30 30 1 29 7
M  V30 31 1 30 7
M  V30 32 1 31 7
M  V30 33 1 32 9
M  V30 34 1 33 9
M  V30 35 1 34 9
M  V30 36 1 35 10
M  V30 37 1 36 11
M  V30 38 1 37 11
M  V30 39 1 38 12
M  V30 40 1 39 12
M  V30 41 1 40 14
M  V30 42 1 15 41 CFG=3
M  V30 43 1 42 16
M  V30 44 1 43 16
M  V30 45 1 44 16
M  V30 46 1 45 17
M  V30 47 1 19 46 CFG=1
M  V30 48 1 47 20
M  V30 49 1 48 22
M  V30 50 1 49 22
M  V30 51 1 23 50 CFG=1
M  V30 52 1 51 26
M  V30 53 1 52 26
M  V30 54 1 53 27
M  V30 55 1 54 27
M  V30 END BOND
M  V30 END CTAB
M  END
>  <i_epik_Tot_Q>  (1) 
0

>  <i_epik_Tot_abs_Q>  (1) 
0

>  <i_i_glide_confnum>  (1) 
702

>  <i_i_glide_lignum>  (1) 
195

>  <i_i_glide_posenum>  (1) 
305

>  <i_i_glide_rotatable_bonds>  (1) 
12

>  <i_lp_mmshare_version>  (1) 
72125

>  <i_m_source_file_index>  (1) 
84

>  <i_f3d_flags>  (1) 
0

>  <num_sample>  (1) 
100

>  <b_lp_Chiralities_Consistent>  (1) 
1

>  <r_epik_Charging_Adjusted_Penalty>  (1) 
0.41067983895260396

>  <r_epik_Ionization_Penalty>  (1) 
0.00090540554532319911

>  <r_epik_Ionization_Penalty_Charging>  (1) 
0

>  <r_epik_Ionization_Penalty_Neutral>  (1) 
0.00090540554532319911

>  <r_epik_State_Penalty>  (1) 
0.41067983895260396

>  <r_glide_ring_energy>  (1) 
0

>  <r_i_docking_score>  (1) 
-6.0391466656743615

>  <r_i_glide_ecoul>  (1) 
-4.7738898928432567

>  <r_i_glide_eff_state_penalty>  (1) 
0.41067983895260396

>  <r_i_glide_einternal>  (1) 
11.269798317543149

>  <r_i_glide_emodel>  (1) 
-48.871191932911579

>  <r_i_glide_emodel_strain>  (1) 
1.9695873753756672

>  <r_i_glide_energy>  (1) 
-40.372357966409879

>  <r_i_glide_erotb>  (1) 
1.1080255732668134

>  <r_i_glide_esite>  (1) 
-0.10190490250392747

>  <r_i_glide_evdw>  (1) 
-35.598468073566622

>  <r_i_glide_gscore>  (1) 
-6.4498265046269658

>  <r_i_glide_gscore_strain>  (1) 
0

>  <r_i_glide_hbond>  (1) 
-0.70573590234761274

>  <r_i_glide_ligand_efficiency>  (1) 
-0.22367209872868005

>  <r_i_glide_ligand_efficiency_ln>  (1) 
-1.4058137806549276

>  <r_i_glide_ligand_efficiency_sa>  (1) 
-0.67101629618604031

>  <r_i_glide_lipo>  (1) 
-2.7808714087263517

>  <r_i_glide_metal>  (1) 
-0

>  <r_i_glide_rewards>  (1) 
-1.4733329767110677

>  <r_lp_Energy>  (1) 
13.076443999999999

>  <r_lp_tautomer_probability>  (1) 
0.5

>  <s_epik_Chemistry_Notes>  (1) 
This compound contains an acetal/aminal-like group ( X-CH(R)-Y where X, Y are N, S, or O) that may be acid/base labile, releasing an aldehyde.

>  <s_epik_cmdline>  (1) 
J2VwaWtfcHl0aG9uJywgJy1waHQnLCAnMS4wJywgJy1waCcsICc3LjQnLCAnLXRuJywgJzgnLCAnLW1hJywgJzUwMCcsICctaW1hZScsICc8aW5maWxlLm1hZT4nLCAnLW9tYWUnLCAnPG91dGZpbGUubWFlPic=

>  <s_epik_input>  (1) 
W09IXU9DKD1PKS9bQ0hdPUMoXFtDSDNdKVtDSDJdW0NIMl1jKFtjSF0xKW5bbkhdYzFbQ0gyXVtDSDJdW0NASF0oW0NAQEhdKFtDSDNdKVtDSDJdW0NIM10pW0NAQEhdKE8yKU9bQ0hdPUMyQ2w=

>  <s_glide_docking_method>  (1) 
confgen

>  <s_i_glide_gridfile>  (1) 
gpcr_5ht2c_6bqh_protein_autoprepared_prepared

>  <s_lp_Force_Field>  (1) 
S-OPLS

>  <s_lp_Variant>  (1) 
DiffSBDD_83-6

>  <s_m_source_file>  (1) 
generated_GPCR_5HT2C_ligand_DiffSBDD_2026-06-23_prepared.sdf

>  <GenAI_Model>  (1) 
DiffSBDD

>  <Protein>  (1) 
GPCR_5HT2C

$$$$
DiffSBDD_42
     RDKit          3D

  0  0  0  0  0  0  0  0  0  0999 V3000
M  V30 BEGIN CTAB
M  V30 COUNTS 89 94 0 0 1
M  V30 BEGIN ATOM
M  V30 1 C 40.845125 27.234385 64.663442 0
M  V30 2 C 38.403431 28.834693 57.437726 0
M  V30 3 C 38.920253 29.283414 52.640044 0
M  V30 4 C 39.548824 29.009487 50.250495 0
M  V30 5 O 38.045145 33.055700 55.649959 0
M  V30 6 C 37.784073 30.218002 54.575767 0
M  V30 7 C 40.007370 30.128048 52.886270 0
M  V30 8 C 38.899041 31.042978 54.820703 0
M  V30 9 C 43.017864 26.290121 67.266975 0 CFG=2
M  V30 10 C 38.281994 27.027600 51.515312 0
M  V30 11 C 42.559899 28.766600 65.612711 0 CFG=1
M  V30 12 C 36.542533 33.219976 60.702604 0 CFG=1
M  V30 13 C 41.681422 29.229520 63.407092 0
M  V30 14 C 37.159770 34.170819 59.658841 0
M  V30 15 C 39.409061 30.776361 61.489838 0
M  V30 16 C 39.250572 30.111475 57.453203 0
M  V30 17 C 35.055486 32.881181 60.543499 0
M  V30 18 O 38.470072 32.678098 62.567759 0
M  V30 19 C 37.294387 29.686494 59.524414 0
M  V30 20 O 43.248198 25.232525 66.358488 0
M  V30 21 C 38.381403 31.907157 61.629587 0
M  V30 22 C 37.067066 29.036007 58.144132 0
M  V30 23 O 41.220495 32.228617 61.955431 0
M  V30 24 C 37.564537 33.462145 58.340143 0
M  V30 25 C 40.844999 27.970075 63.346997 0
M  V30 26 C 41.921262 32.918040 62.974337 0
M  V30 27 N 38.424870 31.313230 57.199990 0
M  V30 28 C 41.607579 26.836995 67.007031 0
M  V30 29 C 38.901417 31.990774 55.987337 0 CFG=2
M  V30 30 C 40.007631 30.982089 53.980656 0
M  V30 31 C 40.627951 31.051675 62.402603 0 CFG=2
M  V30 32 C 44.104897 27.385322 67.114180 0
M  V30 33 C 38.955240 28.365464 51.485637 0 CFG=2
M  V30 34 C 37.803579 29.325741 53.497539 0
M  V30 35 C 37.360472 31.244898 59.446170 0 CFG=2
M  V30 36 C 43.986995 28.216403 65.810368 0
M  V30 37 O 41.528787 29.997479 62.288515 0
M  V30 38 N 42.449586 29.561595 64.378621 0
M  V30 39 C 41.606875 27.590155 65.696116 0
M  V30 40 C 38.255313 32.054349 58.462133 0 CFG=2
M  V30 41 N 37.413932 32.040318 60.683824 0
M  V30 42 O 39.645130 27.167641 51.872675 0
M  V30 43 H 40.187222 26.384160 64.746625 0
M  V30 44 H 38.236404 28.476203 56.425177 0
M  V30 45 H 38.963569 28.039666 57.933593 0
M  V30 46 H 39.238854 30.050451 50.161946 0
M  V30 47 H 40.635402 28.989149 50.291133 0
M  V30 48 H 39.222528 28.487508 49.367759 0
M  V30 49 H 37.137863 32.783930 55.767615 0
M  V30 50 H 36.920804 30.263127 55.225916 0
M  V30 51 H 40.845128 30.104436 52.229343 0
M  V30 52 H 43.064592 25.869625 68.271649 0
M  V30 53 H 37.645172 26.754980 52.352442 0
M  V30 54 H 38.106917 26.537652 50.567772 0
M  V30 55 H 42.324023 29.423283 66.450762 0
M  V30 56 H 36.581587 33.739640 61.660980 0
M  V30 57 H 36.485088 35.002093 59.450494 0
M  V30 58 H 38.059691 34.615512 60.089385 0
M  V30 59 H 39.780394 30.666283 60.476372 0
M  V30 60 H 38.950462 29.849037 61.824100 0
M  V30 61 H 40.051860 29.993558 56.729174 0
M  V30 62 H 39.762318 30.149941 58.410849 0
M  V30 63 H 34.431589 33.693159 60.914105 0
M  V30 64 H 34.759624 32.695789 59.511045 0
M  V30 65 H 34.845085 31.989305 61.131438 0
M  V30 66 H 36.445366 29.435009 60.156510 0
M  V30 67 H 38.159050 29.208432 59.970170 0
M  V30 68 H 42.552700 24.599752 66.448038 0
M  V30 69 H 36.408564 29.663908 57.541621 0
M  V30 70 H 36.562678 28.073217 58.167747 0
M  V30 71 H 36.648561 33.364202 57.767704 0
M  V30 72 H 38.212491 34.137768 57.793476 0
M  V30 73 H 41.245401 27.343067 62.574369 0
M  V30 74 H 39.846426 28.203697 62.986071 0
M  V30 75 H 42.823465 32.376782 63.260087 0
M  V30 76 H 42.189298 33.902919 62.606825 0
M  V30 77 H 41.305589 33.079550 63.860747 0
M  V30 78 H 40.864327 26.038340 67.006002 0
M  V30 79 H 41.319107 27.527910 67.801113 0
M  V30 80 H 39.905544 32.383496 56.157669 0
M  V30 81 H 40.860313 31.609755 54.170196 0
M  V30 82 H 40.277635 31.181119 63.434251 0
M  V30 83 H 44.023818 28.067787 67.960872 0
M  V30 84 H 45.098262 26.940513 67.182504 0
M  V30 85 H 36.954366 28.684293 53.315843 0
M  V30 86 H 36.372389 31.395382 59.020697 0
M  V30 87 H 44.255445 27.588243 64.957648 0
M  V30 88 H 44.708186 29.034817 65.828267 0
M  V30 89 H 39.244794 32.221837 58.885549 0
M  V30 END ATOM
M  V30 BEGIN BOND
M  V30 1 2 7 3
M  V30 2 1 8 6
M  V30 3 1 14 12
M  V30 4 1 16 2
M  V30 5 1 17 12
M  V30 6 1 20 9
M  V30 7 1 21 15
M  V30 8 2 21 18
M  V30 9 1 22 2
M  V30 10 1 22 19
M  V30 11 1 24 14
M  V30 12 1 25 1
M  V30 13 1 25 13
M  V30 14 1 26 23
M  V30 15 1 27 16
M  V30 16 1 28 9
M  V30 17 1 29 5
M  V30 18 1 29 8
M  V30 19 1 29 27
M  V30 20 1 30 7
M  V30 21 2 30 8
M  V30 22 1 31 15
M  V30 23 1 31 23
M  V30 24 1 32 9
M  V30 25 1 33 3
M  V30 26 1 33 4 CFG=3
M  V30 27 1 33 10
M  V30 28 1 34 3
M  V30 29 2 34 6
M  V30 30 1 35 19
M  V30 31 1 36 11
M  V30 32 1 36 32
M  V30 33 1 37 13
M  V30 34 1 37 31
M  V30 35 1 38 11
M  V30 36 2 38 13
M  V30 37 2 39 1
M  V30 38 1 39 11
M  V30 39 1 39 28
M  V30 40 1 40 24
M  V30 41 1 40 27
M  V30 42 1 40 35
M  V30 43 1 41 12
M  V30 44 1 41 21
M  V30 45 1 41 35
M  V30 46 1 42 10
M  V30 47 1 42 33
M  V30 48 1 43 1
M  V30 49 1 44 2
M  V30 50 1 45 2
M  V30 51 1 46 4
M  V30 52 1 47 4
M  V30 53 1 48 4
M  V30 54 1 49 5
M  V30 55 1 50 6
M  V30 56 1 51 7
M  V30 57 1 9 52 CFG=1
M  V30 58 1 53 10
M  V30 59 1 54 10
M  V30 60 1 11 55 CFG=1
M  V30 61 1 12 56 CFG=1
M  V30 62 1 57 14
M  V30 63 1 58 14
M  V30 64 1 59 15
M  V30 65 1 60 15
M  V30 66 1 61 16
M  V30 67 1 62 16
M  V30 68 1 63 17
M  V30 69 1 64 17
M  V30 70 1 65 17
M  V30 71 1 66 19
M  V30 72 1 67 19
M  V30 73 1 68 20
M  V30 74 1 69 22
M  V30 75 1 70 22
M  V30 76 1 71 24
M  V30 77 1 72 24
M  V30 78 1 73 25
M  V30 79 1 74 25
M  V30 80 1 75 26
M  V30 81 1 76 26
M  V30 82 1 77 26
M  V30 83 1 78 28
M  V30 84 1 79 28
M  V30 85 1 29 80 CFG=1
M  V30 86 1 81 30
M  V30 87 1 31 82 CFG=1
M  V30 88 1 83 32
M  V30 89 1 84 32
M  V30 90 1 85 34
M  V30 91 1 35 86 CFG=3
M  V30 92 1 87 36
M  V30 93 1 88 36
M  V30 94 1 40 89 CFG=1
M  V30 END BOND
M  V30 END CTAB
M  END
>  <i_epik_Tot_Q>  (1) 
0

>  <i_epik_Tot_abs_Q>  (1) 
0

>  <i_i_glide_confnum>  (1) 
394

>  <i_i_glide_lignum>  (1) 
94

>  <i_i_glide_posenum>  (1) 
56

>  <i_i_glide_rotatable_bonds>  (1) 
11

>  <i_lp_mmshare_version>  (1) 
72125

>  <i_m_source_file_index>  (1) 
43

>  <i_f3d_flags>  (1) 
0

>  <num_sample>  (1) 
100

>  <b_lp_Chiralities_Consistent>  (1) 
1

>  <r_epik_Charging_Adjusted_Penalty>  (1) 
1.2329990640451991

>  <r_epik_Ionization_Penalty>  (1) 
0.090641377566339693

>  <r_epik_Ionization_Penalty_Charging>  (1) 
0

>  <r_epik_Ionization_Penalty_Neutral>  (1) 
0.090641377566339693

>  <r_epik_State_Penalty>  (1) 
1.2329990640451991

>  <r_glide_ring_energy>  (1) 
0

>  <r_i_docking_score>  (1) 
-6.0293612564778591

>  <r_i_glide_ecoul>  (1) 
-6.1241538254925949

>  <r_i_glide_eff_state_penalty>  (1) 
1.2329990640451991

>  <r_i_glide_einternal>  (1) 
14.000674897874539

>  <r_i_glide_emodel>  (1) 
-49.218217329146668

>  <r_i_glide_emodel_strain>  (1) 
2.3550503288952314

>  <r_i_glide_energy>  (1) 
-44.331135219528136

>  <r_i_glide_erotb>  (1) 
0.39316795176799535

>  <r_i_glide_esite>  (1) 
-0.027206074748753958

>  <r_i_glide_evdw>  (1) 
-38.206981394035544

>  <r_i_glide_gscore>  (1) 
-7.262360320523058

>  <r_i_glide_gscore_strain>  (1) 
0

>  <r_i_glide_hbond>  (1) 
-0.4735280015095642

>  <r_i_glide_ligand_efficiency>  (1) 
-0.14355622039232999

>  <r_i_glide_ligand_efficiency_ln>  (1) 
-1.2726428270155568

>  <r_i_glide_ligand_efficiency_sa>  (1) 
-0.4990052471229306

>  <r_i_glide_lipo>  (1) 
-3.0694232133147361

>  <r_i_glide_metal>  (1) 
-0

>  <r_i_glide_rewards>  (1) 
-1.2563988391923329

>  <r_lp_Energy>  (1) 
72.264139999999998

>  <s_epik_Chemistry_Notes>  (1) 
This compound has an imine and may undergo hydrolysis. This compound contains an acetal/aminal-like group ( X-CH(R)-Y where X, Y are N, S, or O) that may be acid/base labile, releasing an aldehyde.

>  <s_epik_cmdline>  (1) 
J2VwaWtfcHl0aG9uJywgJy1waHQnLCAnMS4wJywgJy1waCcsICc3LjQnLCAnLXRuJywgJzgnLCAnLW1hJywgJzUwMCcsICctaW1hZScsICc8aW5maWxlLm1hZT4nLCAnLW9tYWUnLCAnPG91dGZpbGUubWFlPic=

>  <s_epik_input>  (1) 
W0NIMl0xW0NIMl1bQ0BIXShbT0hdKVtDSDJdQyhbQ0BASF0xMik9W0NIXVtDSDJdQyg9TjIpT1tDQEBIXShPW0NIM10pW0NIMl1DKD1PKU4zW0NASF0oW0NIM10pW0NIMl1bQ0gyXVtDQEBIXShbQ0BIXTM0KU4oW0NIMl1bQ0gyXVtDSDJdW0NIMl00KVtDQEhdKFtPSF0pYyhbY0hdW2NIXTUpW2NIXVtjSF1jNUM2KFtDSDNdKVtDSDJdTzY=

>  <s_glide_docking_method>  (1) 
confgen

>  <s_i_glide_gridfile>  (1) 
gpcr_5ht2c_6bqh_protein_autoprepared_prepared

>  <s_lp_Force_Field>  (1) 
S-OPLS

>  <s_lp_Variant>  (1) 
DiffSBDD_42-3

>  <s_m_source_file>  (1) 
generated_GPCR_5HT2C_ligand_DiffSBDD_2026-06-23_prepared.sdf

>  <GenAI_Model>  (1) 
DiffSBDD

>  <Protein>  (1) 
GPCR_5HT2C

$$$$
DiffSBDD_4
     RDKit          3D

  0  0  0  0  0  0  0  0  0  0999 V3000
M  V30 BEGIN CTAB
M  V30 COUNTS 72 75 0 0 1
M  V30 BEGIN ATOM
M  V30 1 C 37.160623 33.295807 61.146837 0
M  V30 2 C 36.783057 24.192408 55.424328 0
M  V30 3 C 38.804766 29.163636 54.978476 0
M  V30 4 N 38.604832 33.044669 61.035658 0
M  V30 5 C 38.423237 30.515740 61.216119 0
M  V30 6 O 38.663618 31.469497 54.354776 0
M  V30 7 C 37.645132 37.185320 60.293474 0
M  V30 8 C 40.909318 35.827065 62.664565 0
M  V30 9 C 38.849553 30.673267 55.273949 0
M  V30 10 O 39.160600 35.327457 60.568669 0
M  V30 11 C 37.836809 35.773624 60.826844 0 CFG=2
M  V30 12 C 40.733540 33.617106 63.533374 0
M  V30 13 C 37.584763 28.294372 57.604579 0
M  V30 14 O 40.260198 29.396223 60.136467 0
M  V30 15 O 37.977215 38.160688 60.967756 0
M  V30 16 C 39.182826 32.519141 56.887518 0
M  V30 17 C 38.035377 26.360233 55.988445 0 CFG=1
M  V30 18 C 39.519623 34.174697 61.279786 0 CFG=1
M  V30 19 C 38.911977 31.843652 61.816405 0
M  V30 20 C 39.925916 34.641108 62.720212 0 CFG=2
M  V30 21 O 38.747020 30.550549 58.833179 0
M  V30 22 N 39.096544 31.085091 56.558768 0
M  V30 23 C 37.467129 26.784799 57.368006 0
M  V30 24 N 41.759835 35.737762 63.869794 0 CHG=1
M  V30 25 C 39.369153 30.115294 57.643285 0 CFG=2
M  V30 26 C 41.462912 34.475725 64.562117 0
M  V30 27 C 39.247069 30.087054 60.012779 0
M  V30 28 C 39.055521 28.635291 57.389107 0 CFG=2
M  V30 29 O 39.348734 26.883285 55.767117 0
M  V30 30 C 38.129482 24.830624 55.788243 0 CFG=1
M  V30 31 S 36.641171 34.664824 60.099667 0
M  V30 32 C 37.819153 33.199336 56.956865 0
M  V30 33 C 39.528261 28.283353 55.993743 0 CFG=1
M  V30 34 O 38.618570 24.220084 56.967848 0
M  V30 35 H 36.582778 32.430762 60.827854 0
M  V30 36 H 36.876959 33.515544 62.167772 0
M  V30 37 H 36.431609 24.558299 54.460285 0
M  V30 38 H 36.865805 23.108337 55.345527 0
M  V30 39 H 36.020307 24.414366 56.168399 0
M  V30 40 H 39.237801 28.998197 53.991768 0
M  V30 41 H 37.753607 28.900667 54.878031 0
M  V30 42 H 37.369208 30.540835 60.946629 0
M  V30 43 H 38.524594 29.737390 61.971889 0
M  V30 44 H 37.206372 37.260063 59.298428 0
M  V30 45 H 41.559334 35.757771 61.790930 0
M  V30 46 H 40.394952 36.787743 62.617105 0
M  V30 47 H 37.651842 35.819781 61.899432 0
M  V30 48 H 40.121140 32.863235 64.026801 0
M  V30 49 H 41.466061 33.111900 62.901518 0
M  V30 50 H 37.266356 28.537605 58.616284 0
M  V30 51 H 36.955820 28.916390 56.967821 0
M  V30 52 H 39.644998 32.682869 57.855345 0
M  V30 53 H 39.822358 33.022353 56.162272 0
M  V30 54 H 37.391295 26.756314 55.203465 0
M  V30 55 H 40.445296 33.879656 60.787103 0
M  V30 56 H 38.508363 31.949801 62.822327 0
M  V30 57 H 39.992747 31.754318 61.918780 0
M  V30 58 H 39.046154 34.954133 63.272496 0
M  V30 59 H 36.445119 26.444883 57.476583 0
M  V30 60 H 38.016942 26.293992 58.171150 0
M  V30 61 H 41.598880 36.531554 64.481658 0
M  V30 62 H 40.445110 30.137766 57.767455 0
M  V30 63 H 40.811549 34.690190 65.409791 0
M  V30 64 H 42.367042 34.002199 64.945897 0
M  V30 65 H 39.651422 28.044953 58.085903 0
M  V30 66 H 38.828955 24.614861 54.979071 0
M  V30 67 H 37.925277 34.269156 57.124223 0
M  V30 68 H 37.245285 33.058431 56.043479 0
M  V30 69 H 37.245093 32.791095 57.785406 0
M  V30 70 H 40.599812 28.474940 55.915235 0
M  V30 71 H 39.451663 24.619303 57.172557 0
M  V30 72 H 42.728668 35.757043 63.586668 0
M  V30 END ATOM
M  V30 BEGIN BOND
M  V30 1 1 4 1
M  V30 2 1 9 3
M  V30 3 2 9 6
M  V30 4 1 11 7
M  V30 5 1 11 10
M  V30 6 2 15 7
M  V30 7 1 18 4
M  V30 8 1 18 10
M  V30 9 1 19 4
M  V30 10 1 19 5
M  V30 11 1 20 8
M  V30 12 1 20 12
M  V30 13 1 20 18
M  V30 14 1 22 9
M  V30 15 1 22 16
M  V30 16 1 23 13
M  V30 17 1 23 17
M  V30 18 1 24 8
M  V30 19 1 25 21
M  V30 20 1 25 22
M  V30 21 1 26 12
M  V30 22 1 26 24
M  V30 23 1 27 5
M  V30 24 2 27 14
M  V30 25 1 27 21
M  V30 26 1 28 13
M  V30 27 1 28 25
M  V30 28 1 29 17
M  V30 29 1 30 2
M  V30 30 1 30 17
M  V30 31 1 31 1
M  V30 32 1 31 11
M  V30 33 1 32 16
M  V30 34 1 33 3
M  V30 35 1 33 28
M  V30 36 1 33 29
M  V30 37 1 34 30
M  V30 38 1 35 1
M  V30 39 1 36 1
M  V30 40 1 37 2
M  V30 41 1 38 2
M  V30 42 1 39 2
M  V30 43 1 40 3
M  V30 44 1 41 3
M  V30 45 1 42 5
M  V30 46 1 43 5
M  V30 47 1 44 7
M  V30 48 1 45 8
M  V30 49 1 46 8
M  V30 50 1 11 47 CFG=1
M  V30 51 1 48 12
M  V30 52 1 49 12
M  V30 53 1 50 13
M  V30 54 1 51 13
M  V30 55 1 52 16
M  V30 56 1 53 16
M  V30 57 1 17 54 CFG=3
M  V30 58 1 18 55 CFG=3
M  V30 59 1 56 19
M  V30 60 1 57 19
M  V30 61 1 20 58 CFG=1
M  V30 62 1 59 23
M  V30 63 1 60 23
M  V30 64 1 61 24
M  V30 65 1 25 62 CFG=1
M  V30 66 1 63 26
M  V30 67 1 64 26
M  V30 68 1 28 65 CFG=1
M  V30 69 1 30 66 CFG=3
M  V30 70 1 67 32
M  V30 71 1 68 32
M  V30 72 1 69 32
M  V30 73 1 33 70 CFG=1
M  V30 74 1 71 34
M  V30 75 1 72 24
M  V30 END BOND
M  V30 END CTAB
M  END
>  <i_epik_Tot_Q>  (1) 
1

>  <i_epik_Tot_abs_Q>  (1) 
1

>  <i_i_glide_confnum>  (1) 
257

>  <i_i_glide_lignum>  (1) 
7

>  <i_i_glide_posenum>  (1) 
279

>  <i_i_glide_rotatable_bonds>  (1) 
10

>  <i_lp_mmshare_version>  (1) 
72125

>  <i_m_source_file_index>  (1) 
5

>  <i_f3d_flags>  (1) 
0

>  <num_sample>  (1) 
100

>  <b_lp_Chiralities_Consistent>  (1) 
1

>  <r_epik_Charging_Adjusted_Penalty>  (1) 
0.68239231030887826

>  <r_epik_Ionization_Penalty>  (1) 
0.68239482879591951

>  <r_epik_Ionization_Penalty_Charging>  (1) 
0.00029009099004162725

>  <r_epik_Ionization_Penalty_Neutral>  (1) 
0.68210473780587788

>  <r_epik_State_Penalty>  (1) 
0.68210221931883663

>  <r_glide_ring_energy>  (1) 
0

>  <r_i_docking_score>  (1) 
-6.0260190419668387

>  <r_i_glide_ecoul>  (1) 
-2.6654660496880425

>  <r_i_glide_eff_state_penalty>  (1) 
0.68210221931883663

>  <r_i_glide_einternal>  (1) 
12.143167074263594

>  <r_i_glide_emodel>  (1) 
-61.22649587874934

>  <r_i_glide_emodel_strain>  (1) 
0.70526579153705171

>  <r_i_glide_energy>  (1) 
-46.816875653310611

>  <r_i_glide_erotb>  (1) 
0.570329169500843

>  <r_i_glide_esite>  (1) 
-0.060451773495116282

>  <r_i_glide_evdw>  (1) 
-44.151409603622568

>  <r_i_glide_gscore>  (1) 
-6.7081212612856751

>  <r_i_glide_gscore_strain>  (1) 
0

>  <r_i_glide_hbond>  (1) 
0

>  <r_i_glide_ligand_efficiency>  (1) 
-0.17723585417549526

>  <r_i_glide_ligand_efficiency_ln>  (1) 
-1.3313166304793738

>  <r_i_glide_ligand_efficiency_sa>  (1) 
-0.57417536479642961

>  <r_i_glide_lipo>  (1) 
-3.1820457594370963

>  <r_i_glide_metal>  (1) 
-0

>  <r_i_glide_rewards>  (1) 
-1.4285625102199697

>  <r_lp_Energy>  (1) 
42.884645999999996

>  <r_lp_tautomer_probability>  (1) 
0.99990000499974985

>  <s_epik_Chemistry_Notes>  (1) 
This compound has an ester and may undergo hydrolysis at high or low pH. This compound contains an acetal/aminal-like group ( X-CH(R)-Y where X, Y are N, S, or O) that may be acid/base labile, releasing an aldehyde.

>  <s_epik_cmdline>  (1) 
J2VwaWtfcHl0aG9uJywgJy1waHQnLCAnMS4wJywgJy1waCcsICc3LjQnLCAnLXRuJywgJzgnLCAnLW1hJywgJzUwMCcsICctaW1hZScsICc8aW5maWxlLm1hZT4nLCAnLW9tYWUnLCAnPG91dGZpbGUubWFlPic=

>  <s_epik_input>  (1) 
W0NIMl0xW0NIMl1bTkhdW0NIMl1bQ0BIXTFbQ0BASF0yT1tDQEBIXShbQ0hdPU8pU1tDSDJdTjJbQ0gyXVtDSDJdQyg9TylPW0NAQEhdM04oW0NIMl1bQ0gzXSlDKD1PKVtDSDJdW0NAQEhdKFtDQEBIXTM0KU9bQ0BIXShbQ0gyXVtDSDJdNClbQ0BIXShbQ0gzXSlbT0hd

>  <s_glide_docking_method>  (1) 
confgen

>  <s_i_glide_gridfile>  (1) 
gpcr_5ht2c_6bqh_protein_autoprepared_prepared

>  <s_lp_Force_Field>  (1) 
S-OPLS

>  <s_lp_Variant>  (1) 
DiffSBDD_4-2

>  <s_m_source_file>  (1) 
generated_GPCR_5HT2C_ligand_DiffSBDD_2026-06-23_prepared.sdf

>  <GenAI_Model>  (1) 
DiffSBDD

>  <Protein>  (1) 
GPCR_5HT2C

$$$$
DiffSBDD_58
     RDKit          3D

  0  0  0  0  0  0  0  0  0  0999 V3000
M  V30 BEGIN CTAB
M  V30 COUNTS 76 76 0 0 1
M  V30 BEGIN ATOM
M  V30 1 C 39.997349 30.395411 62.140668 0
M  V30 2 C 38.620193 31.819875 60.443615 0 CFG=1
M  V30 3 C 39.848596 30.577850 53.687309 0
M  V30 4 C 37.675933 32.696887 58.086571 0 CFG=1
M  V30 5 C 42.205905 32.005189 64.580065 0
M  V30 6 C 39.018055 26.256222 56.052136 0
M  V30 7 O 40.845102 27.737725 63.670215 0
M  V30 8 C 37.451104 30.849584 54.705954 0
M  V30 9 N 38.406428 26.176799 54.847057 0
M  V30 10 C 41.601916 29.523816 65.206418 0 CFG=2
M  V30 11 C 42.084015 30.477633 67.592439 0
M  V30 12 C 38.698361 34.243877 61.382841 0
M  V30 13 C 36.482063 32.962741 61.363036 0
M  V30 14 C 41.934589 28.223322 64.421483 0
M  V30 15 N 39.301719 28.669213 55.996402 0
M  V30 16 C 38.504940 29.923035 54.043320 0 CFG=2
M  V30 17 N 37.660296 31.091569 56.151144 0 CHG=1
M  V30 18 O 37.343477 34.051131 58.312626 0
M  V30 19 C 39.455567 27.475045 56.614002 0
M  V30 20 C 39.994768 31.315721 60.941411 0
M  V30 21 O 40.883468 29.948531 68.113273 0
M  V30 22 C 37.949278 32.487564 56.561490 0 CFG=2
M  V30 23 C 38.017974 32.861716 61.432551 0
M  V30 24 O 43.893826 29.902451 66.046896 0
M  V30 25 C 41.469539 30.768936 64.281827 0
M  V30 26 C 42.092246 33.131456 63.846894 0
M  V30 27 C 42.566921 29.590655 66.432496 0 CFG=2
M  V30 28 C 38.256888 27.363762 54.217571 0
M  V30 29 C 38.845751 32.290727 58.977700 0
M  V30 30 C 38.696359 28.593157 54.784518 0
M  V30 31 N 37.645225 27.339577 52.967838 0
M  V30 32 C 40.676463 30.659016 63.233315 0
M  V30 33 C 39.246109 33.059095 55.997859 0
M  V30 34 H 39.418740 29.487504 62.052533 0
M  V30 35 H 37.953434 30.955673 60.411368 0
M  V30 36 H 40.440926 29.921427 53.051692 0
M  V30 37 H 39.696831 31.496814 53.121877 0
M  V30 38 H 40.440777 30.807293 54.573507 0
M  V30 39 H 36.844884 32.078974 58.404569 0
M  V30 40 H 42.870962 32.023098 65.424452 0
M  V30 41 H 39.162376 25.327089 56.582802 0
M  V30 42 H 40.035568 27.849355 64.160604 0
M  V30 43 H 36.474449 30.370798 54.621913 0
M  V30 44 H 37.355935 31.791524 54.167979 0
M  V30 45 H 40.604911 29.376522 65.624952 0
M  V30 46 H 41.910300 31.510692 67.293025 0
M  V30 47 H 42.823943 30.493712 68.392205 0
M  V30 48 H 38.540751 34.753869 60.434254 0
M  V30 49 H 38.309064 34.894628 62.164915 0
M  V30 50 H 39.773746 34.166063 61.540490 0
M  V30 51 H 36.125415 33.360863 60.416853 0
M  V30 52 H 36.017615 31.986309 61.503404 0
M  V30 53 H 36.101831 33.624985 62.143021 0
M  V30 54 H 42.789959 28.376471 63.763504 0
M  V30 55 H 42.209924 27.414737 65.097368 0
M  V30 56 H 38.074433 29.729610 53.062559 0
M  V30 57 H 38.312277 30.421343 56.539728 0
M  V30 58 H 36.552571 34.262815 57.835857 0
M  V30 59 H 39.938750 27.491073 57.580203 0
M  V30 60 H 40.686296 32.146442 61.085396 0
M  V30 61 H 40.442975 30.693081 60.167667 0
M  V30 62 H 41.019317 29.059193 68.409784 0
M  V30 63 H 37.245120 33.092312 56.023047 0
M  V30 64 H 38.210656 32.482141 62.435425 0
M  V30 65 H 44.482541 29.712071 66.762936 0
M  V30 66 H 42.653936 34.017985 64.104767 0
M  V30 67 H 41.442554 33.182194 62.988288 0
M  V30 68 H 42.640206 28.589685 66.861538 0
M  V30 69 H 39.613845 33.064389 58.943633 0
M  V30 70 H 39.244726 31.421188 58.461365 0
M  V30 71 H 37.520226 28.179047 52.425365 0
M  V30 72 H 37.331623 26.472523 52.544675 0
M  V30 73 H 39.132166 34.137843 55.936375 0
M  V30 74 H 40.132172 32.802486 56.567601 0
M  V30 75 H 39.401357 32.763949 54.969610 0
M  V30 76 H 36.733119 30.967938 56.567877 0
M  V30 END ATOM
M  V30 BEGIN BOND
M  V30 1 1 9 6
M  V30 2 1 14 7
M  V30 3 1 14 10
M  V30 4 1 16 3
M  V30 5 1 16 8
M  V30 6 1 17 8
M  V30 7 1 18 4
M  V30 8 2 19 6
M  V30 9 1 19 15
M  V30 10 1 20 1
M  V30 11 1 20 2
M  V30 12 1 21 11
M  V30 13 1 22 4
M  V30 14 1 22 17
M  V30 15 1 23 2
M  V30 16 1 23 12
M  V30 17 1 23 13
M  V30 18 1 25 5
M  V30 19 1 25 10
M  V30 20 2 26 5
M  V30 21 1 27 10
M  V30 22 1 27 11
M  V30 23 1 27 24
M  V30 24 2 28 9
M  V30 25 1 29 2
M  V30 26 1 29 4
M  V30 27 2 30 15
M  V30 28 1 30 16
M  V30 29 1 30 28
M  V30 30 1 31 28
M  V30 31 2 32 1
M  V30 32 2 32 25
M  V30 33 1 33 22
M  V30 34 1 34 1
M  V30 35 1 2 35 CFG=3
M  V30 36 1 36 3
M  V30 37 1 37 3
M  V30 38 1 38 3
M  V30 39 1 4 39 CFG=1
M  V30 40 1 40 5
M  V30 41 1 41 6
M  V30 42 1 42 7
M  V30 43 1 43 8
M  V30 44 1 44 8
M  V30 45 1 10 45 CFG=1
M  V30 46 1 46 11
M  V30 47 1 47 11
M  V30 48 1 48 12
M  V30 49 1 49 12
M  V30 50 1 50 12
M  V30 51 1 51 13
M  V30 52 1 52 13
M  V30 53 1 53 13
M  V30 54 1 54 14
M  V30 55 1 55 14
M  V30 56 1 16 56 CFG=3
M  V30 57 1 57 17
M  V30 58 1 58 18
M  V30 59 1 59 19
M  V30 60 1 60 20
M  V30 61 1 61 20
M  V30 62 1 62 21
M  V30 63 1 22 63 CFG=3
M  V30 64 1 64 23
M  V30 65 1 65 24
M  V30 66 1 66 26
M  V30 67 1 67 26
M  V30 68 1 27 68 CFG=1
M  V30 69 1 69 29
M  V30 70 1 70 29
M  V30 71 1 71 31
M  V30 72 1 72 31
M  V30 73 1 73 33
M  V30 74 1 74 33
M  V30 75 1 75 33
M  V30 76 1 76 17
M  V30 END BOND
M  V30 END CTAB
M  END
>  <i_epik_Tot_Q>  (1) 
1

>  <i_epik_Tot_abs_Q>  (1) 
1

>  <i_i_glide_confnum>  (1) 
4860

>  <i_i_glide_lignum>  (1) 
129

>  <i_i_glide_posenum>  (1) 
137

>  <i_i_glide_rotatable_bonds>  (1) 
19

>  <i_lp_mmshare_version>  (1) 
72125

>  <i_m_source_file_index>  (1) 
59

>  <i_f3d_flags>  (1) 
0

>  <num_sample>  (1) 
100

>  <b_lp_Chiralities_Consistent>  (1) 
1

>  <r_epik_Charging_Adjusted_Penalty>  (1) 
0.031800499123457865

>  <r_epik_Ionization_Penalty>  (1) 
0.015929061655920795

>  <r_epik_Ionization_Penalty_Charging>  (1) 
0.015900249561728946

>  <r_epik_Ionization_Penalty_Neutral>  (1) 
2.8812094191846713e-05

>  <r_epik_State_Penalty>  (1) 
0.015900249561728919

>  <r_glide_ring_energy>  (1) 
0

>  <r_i_docking_score>  (1) 
-6.0247944353859095

>  <r_i_glide_ecoul>  (1) 
-10.758882725019221

>  <r_i_glide_eff_state_penalty>  (1) 
0.015900249561728919

>  <r_i_glide_einternal>  (1) 
18.883625017912408

>  <r_i_glide_emodel>  (1) 
-52.146976958675069

>  <r_i_glide_emodel_strain>  (1) 
4.6429346387064925

>  <r_i_glide_energy>  (1) 
-45.878411713837821

>  <r_i_glide_erotb>  (1) 
1.3125063474323406

>  <r_i_glide_esite>  (1) 
-0.10000000000000001

>  <r_i_glide_evdw>  (1) 
-35.119528988818601

>  <r_i_glide_gscore>  (1) 
-6.0406946849476384

>  <r_i_glide_gscore_strain>  (1) 
0.16073365967662312

>  <r_i_glide_hbond>  (1) 
-0.7380742109027989

>  <r_i_glide_ligand_efficiency>  (1) 
-0.18256952834502757

>  <r_i_glide_ligand_efficiency_ln>  (1) 
-1.3398830877137451

>  <r_i_glide_ligand_efficiency_sa>  (1) 
-0.58559802977782205

>  <r_i_glide_lipo>  (1) 
-2.5248491532630188

>  <r_i_glide_metal>  (1) 
-0

>  <r_i_glide_rewards>  (1) 
-0.78120246969697105

>  <r_lp_Energy>  (1) 
16.863154999999999

>  <r_lp_tautomer_probability>  (1) 
0.99999990128000804

>  <s_epik_cmdline>  (1) 
J2VwaWtfcHl0aG9uJywgJy1waHQnLCAnMS4wJywgJy1waCcsICc3LjQnLCAnLXRuJywgJzgnLCAnLW1hJywgJzUwMCcsICctaW1hZScsICc8aW5maWxlLm1hZT4nLCAnLW9tYWUnLCAnPG91dGZpbGUubWFlPic=

>  <s_epik_input>  (1) 
W09IXVtDSDJdW0NASF0oW09IXSlbQ0BIXShbQ0gyXVtPSF0pQyhbQ0hdPVtDSDJdKT1DPVtDSF1bQ0gyXVtDQEBIXShbQ0hdKFtDSDNdKVtDSDNdKVtDSDJdW0NAQEhdKFtPSF0pW0NAQEhdKFtDSDNdKVtOSF1bQ0gyXVtDQEBIXShbQ0gzXSljMW5bY0hdW2NIXW5jMVtOSDJd

>  <s_glide_docking_method>  (1) 
confgen

>  <s_i_glide_gridfile>  (1) 
gpcr_5ht2c_6bqh_protein_autoprepared_prepared

>  <s_lp_Force_Field>  (1) 
S-OPLS

>  <s_lp_Variant>  (1) 
DiffSBDD_58-1

>  <s_m_source_file>  (1) 
generated_GPCR_5HT2C_ligand_DiffSBDD_2026-06-23_prepared.sdf

>  <GenAI_Model>  (1) 
DiffSBDD

>  <Protein>  (1) 
GPCR_5HT2C

$$$$
DiffSBDD_0
     RDKit          3D

  0  0  0  0  0  0  0  0  0  0999 V3000
M  V30 BEGIN CTAB
M  V30 COUNTS 61 60 0 0 1
M  V30 BEGIN ATOM
M  V30 1 C 39.051618 28.471186 51.581558 0
M  V30 2 C 39.140039 25.870038 55.515871 0
M  V30 3 C 40.109600 36.394702 62.552723 0 CFG=1
M  V30 4 C 37.976271 29.381504 56.198892 0
M  V30 5 C 38.218013 27.064209 55.214905 0 CFG=1
M  V30 6 C 38.445114 32.345946 58.689124 0
M  V30 7 C 38.655150 35.969837 62.284761 0
M  V30 8 C 38.192746 30.863504 58.305888 0 CFG=2
M  V30 9 C 40.117393 29.523766 51.230834 0
M  V30 10 C 38.746505 28.336709 55.859129 0
M  V30 11 C 38.507920 30.661811 56.799593 0 CFG=2
M  V30 12 C 38.018188 27.287765 53.689172 0 CFG=1
M  V30 13 O 36.907795 28.137753 53.515649 0
M  V30 14 C 38.445061 34.503308 61.881936 0
M  V30 15 C 38.782575 34.151864 60.438033 0
M  V30 16 O 38.045138 31.742628 56.011752 0
M  V30 17 C 39.245134 27.940351 53.007978 0
M  V30 18 O 40.045137 37.737755 62.967756 0
M  V30 19 C 38.478962 32.668906 60.182027 0
M  V30 20 C 39.070709 27.341336 50.567764 0
M  V30 21 C 40.809742 35.617675 63.676787 0
M  V30 22 O 36.845129 30.537755 58.567760 0
M  V30 23 C 38.995210 29.861686 59.162264 0
M  V30 24 H 38.085269 28.966940 51.500268 0
M  V30 25 H 39.229708 25.701747 56.589645 0
M  V30 26 H 38.753483 24.951683 55.072594 0
M  V30 27 H 40.145041 26.028400 55.122925 0
M  V30 28 H 40.701020 36.337464 61.638480 0
M  V30 29 H 36.911600 29.337756 56.034256 0
M  V30 30 H 37.246564 26.835305 55.656746 0
M  V30 31 H 37.672868 32.968481 58.233312 0
M  V30 32 H 39.375607 32.687364 58.240960 0
M  V30 33 H 38.075278 36.145286 63.192493 0
M  V30 34 H 38.214986 36.617407 61.525007 0
M  V30 35 H 41.124332 29.110774 51.304889 0
M  V30 36 H 39.979898 29.900252 50.216439 0
M  V30 37 H 40.059571 30.380651 51.903014 0
M  V30 38 H 39.812839 28.383638 56.031093 0
M  V30 39 H 39.592732 30.665374 56.678755 0
M  V30 40 H 37.774575 26.341963 53.203712 0
M  V30 41 H 37.106990 28.963086 53.932817 0
M  V30 42 H 38.960819 33.832633 62.567748 0
M  V30 43 H 37.382657 34.290722 61.999314 0
M  V30 44 H 38.183270 34.774564 59.772736 0
M  V30 45 H 39.828120 34.369413 60.218592 0
M  V30 46 H 37.111867 31.866966 56.178261 0
M  V30 47 H 39.601906 28.786993 53.591291 0
M  V30 48 H 40.045137 27.205609 53.006057 0
M  V30 49 H 40.756746 37.904052 63.579213 0
M  V30 50 H 39.230840 32.071563 60.695795 0
M  V30 51 H 37.515321 32.398823 60.614596 0
M  V30 52 H 40.045137 26.864080 50.506243 0
M  V30 53 H 38.324347 26.576772 50.774522 0
M  V30 54 H 38.845138 27.779899 49.607214 0
M  V30 55 H 40.924182 34.563716 63.428588 0
M  V30 56 H 41.809879 36.013243 63.858531 0
M  V30 57 H 40.253149 35.688068 64.612150 0
M  V30 58 H 36.276534 31.046679 57.979487 0
M  V30 59 H 40.062252 30.052119 59.109996 0
M  V30 60 H 38.704951 29.899111 60.212584 0
M  V30 61 H 38.833089 28.834420 58.833735 0
M  V30 END ATOM
M  V30 BEGIN BOND
M  V30 1 1 5 2
M  V30 2 1 7 3
M  V30 3 1 8 6
M  V30 4 1 9 1
M  V30 5 2 10 4
M  V30 6 1 10 5
M  V30 7 1 11 4
M  V30 8 1 11 8
M  V30 9 1 12 5
M  V30 10 1 13 12
M  V30 11 1 14 7
M  V30 12 1 15 14
M  V30 13 1 16 11
M  V30 14 1 17 1
M  V30 15 1 17 12
M  V30 16 1 18 3
M  V30 17 1 19 6
M  V30 18 1 19 15
M  V30 19 1 20 1
M  V30 20 1 21 3
M  V30 21 1 8 22 CFG=3
M  V30 22 1 23 8
M  V30 23 1 24 1
M  V30 24 1 25 2
M  V30 25 1 26 2
M  V30 26 1 27 2
M  V30 27 1 3 28 CFG=3
M  V30 28 1 29 4
M  V30 29 1 5 30 CFG=1
M  V30 30 1 31 6
M  V30 31 1 32 6
M  V30 32 1 33 7
M  V30 33 1 34 7
M  V30 34 1 35 9
M  V30 35 1 36 9
M  V30 36 1 37 9
M  V30 37 1 38 10
M  V30 38 1 11 39 CFG=1
M  V30 39 1 12 40 CFG=3
M  V30 40 1 41 13
M  V30 41 1 42 14
M  V30 42 1 43 14
M  V30 43 1 44 15
M  V30 44 1 45 15
M  V30 45 1 46 16
M  V30 46 1 47 17
M  V30 47 1 48 17
M  V30 48 1 49 18
M  V30 49 1 50 19
M  V30 50 1 51 19
M  V30 51 1 52 20
M  V30 52 1 53 20
M  V30 53 1 54 20
M  V30 54 1 55 21
M  V30 55 1 56 21
M  V30 56 1 57 21
M  V30 57 1 58 22
M  V30 58 1 59 23
M  V30 59 1 60 23
M  V30 60 1 61 23
M  V30 END BOND
M  V30 END CTAB
M  END
>  <i_epik_Tot_Q>  (1) 
0

>  <i_epik_Tot_abs_Q>  (1) 
0

>  <i_i_glide_confnum>  (1) 
988

>  <i_i_glide_lignum>  (1) 
1

>  <i_i_glide_posenum>  (1) 
74

>  <i_i_glide_rotatable_bonds>  (1) 
16

>  <i_lp_mmshare_version>  (1) 
72125

>  <i_m_source_file_index>  (1) 
1

>  <i_f3d_flags>  (1) 
0

>  <num_sample>  (1) 
100

>  <b_lp_Chiralities_Consistent>  (1) 
1

>  <r_epik_Charging_Adjusted_Penalty>  (1) 
0

>  <r_epik_Ionization_Penalty>  (1) 
5.9169763795933225e-07

>  <r_epik_Ionization_Penalty_Charging>  (1) 
0

>  <r_epik_Ionization_Penalty_Neutral>  (1) 
5.9169763795933225e-07

>  <r_epik_State_Penalty>  (1) 
-0

>  <r_glide_ring_energy>  (1) 
0

>  <r_i_docking_score>  (1) 
-6.0159306640027381

>  <r_i_glide_ecoul>  (1) 
-12.142723026325609

>  <r_i_glide_eff_state_penalty>  (1) 
-0

>  <r_i_glide_einternal>  (1) 
13.320199041550197

>  <r_i_glide_emodel>  (1) 
-41.293098087414485

>  <r_i_glide_emodel_strain>  (1) 
1.9450630246194152

>  <r_i_glide_energy>  (1) 
-37.744519860368726

>  <r_i_glide_erotb>  (1) 
1.894024340436764

>  <r_i_glide_esite>  (1) 
0

>  <r_i_glide_evdw>  (1) 
-25.601796834043121

>  <r_i_glide_gscore>  (1) 
-6.0159306640027381

>  <r_i_glide_gscore_strain>  (1) 
0

>  <r_i_glide_hbond>  (1) 
-0.57599999999999996

>  <r_i_glide_ligand_efficiency>  (1) 
-0.26156220278272774

>  <r_i_glide_ligand_efficiency_ln>  (1) 
-1.4547065839991988

>  <r_i_glide_ligand_efficiency_sa>  (1) 
-0.7438481116710387

>  <r_i_glide_lipo>  (1) 
-3.0260999877219947

>  <r_i_glide_metal>  (1) 
-0

>  <r_i_glide_rewards>  (1) 
-1.2063567210665103

>  <r_lp_Energy>  (1) 
8.761194999999999

>  <r_lp_tautomer_probability>  (1) 
1

>  <s_epik_cmdline>  (1) 
J2VwaWtfcHl0aG9uJywgJy1waHQnLCAnMS4wJywgJy1waCcsICc3LjQnLCAnLXRuJywgJzgnLCAnLW1hJywgJzUwMCcsICctaW1hZScsICc8aW5maWxlLm1hZT4nLCAnLW9tYWUnLCAnPG91dGZpbGUubWFlPic=

>  <s_epik_input>  (1) 
W0NIM11bQ0hdKFtDSDNdKVtDSDJdW0NASF0oW09IXSlbQ0BASF0oW0NIM10pXFtDSF09W0NIXVxbQ0BASF0oW09IXSlbQ0BAXShbT0hdKShbQ0gzXSlbQ0gyXVtDSDJdW0NIMl1bQ0gyXVtDSDJdW0NAQEhdKFtPSF0pW0NIM10=

>  <s_glide_docking_method>  (1) 
confgen

>  <s_i_glide_gridfile>  (1) 
gpcr_5ht2c_6bqh_protein_autoprepared_prepared

>  <s_lp_Force_Field>  (1) 
S-OPLS

>  <s_lp_Variant>  (1) 
DiffSBDD_0-1

>  <s_m_source_file>  (1) 
generated_GPCR_5HT2C_ligand_DiffSBDD_2026-06-23_prepared.sdf

>  <GenAI_Model>  (1) 
DiffSBDD

>  <Protein>  (1) 
GPCR_5HT2C

$$$$
DiffSBDD_42
     RDKit          3D

  0  0  0  0  0  0  0  0  0  0999 V3000
M  V30 BEGIN CTAB
M  V30 COUNTS 89 94 0 0 1
M  V30 BEGIN ATOM
M  V30 1 C 43.716212 28.211137 64.747275 0
M  V30 2 C 37.351859 24.228882 57.532786 0
M  V30 3 C 39.140029 28.878557 52.181472 0
M  V30 4 C 39.764804 31.268944 52.379614 0
M  V30 5 O 37.644453 24.469919 54.567994 0 CHG=-1
M  V30 6 C 39.585115 26.625424 53.020338 0
M  V30 7 C 37.967131 28.899817 52.954115 0
M  V30 8 C 38.428677 26.706555 53.849177 0
M  V30 9 C 42.440186 25.712813 66.997367 0 CFG=2
M  V30 10 C 39.645464 30.186115 49.926029 0
M  V30 11 C 41.651886 26.873600 64.341915 0 CFG=1
M  V30 12 C 40.099815 29.345103 57.228836 0 CFG=1
M  V30 13 C 41.895803 28.965683 63.166632 0
M  V30 14 C 41.245247 28.428800 56.787425 0
M  V30 15 C 40.492518 29.328955 60.133097 0
M  V30 16 C 38.787912 24.321932 57.008743 0
M  V30 17 C 39.407080 30.152744 56.107505 0
M  V30 18 O 38.445160 28.096526 60.168419 0
M  V30 19 C 37.270483 26.768798 58.041843 0
M  V30 20 O 42.441278 26.769360 67.938476 0
M  V30 21 C 39.267028 28.626953 59.458191 0
M  V30 22 C 36.518081 25.520249 57.523503 0
M  V30 23 O 39.722895 31.107783 61.448117 0
M  V30 24 C 40.593147 27.302135 56.012214 0
M  V30 25 C 43.235294 29.311941 63.830256 0
M  V30 26 C 39.677833 31.845931 62.658918 0
M  V30 27 N 39.070142 25.403978 56.029796 0 CFG=1 CHG=1
M  V30 28 C 43.491261 26.000648 65.909571 0
M  V30 29 C 38.091150 25.633321 54.916620 0 CFG=2
M  V30 30 C 37.612348 27.837313 53.760505 0
M  V30 31 C 40.270154 29.836214 61.584382 0 CFG=2
M  V30 32 C 41.017573 25.528534 66.408674 0
M  V30 33 C 39.583942 30.101070 51.431232 0 CFG=2
M  V30 34 C 39.919282 27.730821 52.171294 0
M  V30 35 C 38.401636 27.537603 57.323376 0 CFG=2
M  V30 36 C 40.604461 26.659895 65.440515 0
M  V30 37 O 41.517686 29.915755 62.236911 0
M  V30 38 N 41.205643 27.921312 63.420375 0
M  V30 39 C 43.009370 27.102531 64.982843 0
M  V30 40 C 39.512079 26.592678 56.795459 0 CFG=2
M  V30 41 N 39.210040 28.563381 58.073501 0
M  V30 42 O 40.800621 29.870325 50.691724 0
M  V30 43 H 44.677675 28.352618 65.221979 0
M  V30 44 H 37.423137 23.870003 58.555732 0
M  V30 45 H 36.828014 23.452658 56.976463 0
M  V30 46 H 38.873646 31.475942 52.973309 0
M  V30 47 H 40.582301 31.079475 53.077340 0
M  V30 48 H 40.006270 32.137704 51.782086 0
M  V30 49 H 40.238474 25.764541 53.073660 0
M  V30 50 H 37.361098 29.743636 52.968320 0
M  V30 51 H 42.742148 24.811730 67.535273 0
M  V30 52 H 39.307180 29.349868 49.318552 0
M  V30 53 H 39.681852 31.164713 49.446229 0
M  V30 54 H 41.743012 25.946835 63.777011 0
M  V30 55 H 40.454373 30.153332 57.781537 0
M  V30 56 H 41.956103 28.937443 56.141655 0
M  V30 57 H 41.799365 28.048997 57.649978 0
M  V30 58 H 40.996548 30.137472 59.632618 0
M  V30 59 H 41.230150 28.526682 60.205236 0
M  V30 60 H 39.464026 24.390933 57.848292 0
M  V30 61 H 39.098052 23.385258 56.591515 0
M  V30 62 H 40.129370 30.785203 55.589501 0
M  V30 63 H 38.933118 29.542131 55.349920 0
M  V30 64 H 38.640754 30.812982 56.514645 0
M  V30 65 H 37.683423 26.374332 58.958822 0
M  V30 66 H 36.517503 27.546772 58.167019 0
M  V30 67 H 42.165501 27.562667 67.506512 0
M  V30 68 H 35.666577 25.343153 58.167610 0
M  V30 69 H 35.964745 25.666533 56.602556 0
M  V30 70 H 40.203700 27.771798 55.125361 0
M  V30 71 H 41.245142 26.515660 55.697013 0
M  V30 72 H 43.128148 30.231916 64.405801 0
M  V30 73 H 43.991348 29.489034 63.065558 0
M  V30 74 H 39.102168 32.760602 62.510194 0
M  V30 75 H 39.219997 31.256246 63.449647 0
M  V30 76 H 40.675265 32.131764 63.000832 0
M  V30 77 H 44.457083 26.242062 66.356605 0
M  V30 78 H 43.644558 25.100404 65.308284 0
M  V30 79 H 37.379219 26.261175 55.388456 0
M  V30 80 H 36.726427 27.918273 54.370208 0
M  V30 81 H 39.550980 29.229375 62.140416 0
M  V30 82 H 40.968795 24.580974 65.868826 0
M  V30 83 H 40.285065 25.449596 67.213378 0
M  V30 84 H 40.821550 27.737747 51.588451 0
M  V30 85 H 37.925726 28.055420 56.496057 0
M  V30 86 H 40.455274 27.589398 65.993272 0
M  V30 87 H 39.652376 26.418775 64.969292 0
M  V30 88 H 40.072652 26.270862 57.675153 0
M  V30 89 H 39.896476 25.073296 55.558137 0
M  V30 END ATOM
M  V30 BEGIN BOND
M  V30 1 2 7 3
M  V30 2 1 8 6
M  V30 3 1 14 12
M  V30 4 1 16 2
M  V30 5 1 17 12
M  V30 6 1 20 9
M  V30 7 1 21 15
M  V30 8 2 21 18
M  V30 9 1 22 2
M  V30 10 1 22 19
M  V30 11 1 24 14
M  V30 12 1 25 1
M  V30 13 1 25 13
M  V30 14 1 26 23
M  V30 15 1 27 16
M  V30 16 1 28 9
M  V30 17 1 29 5
M  V30 18 1 29 8
M  V30 19 1 29 27
M  V30 20 1 30 7
M  V30 21 2 30 8
M  V30 22 1 31 15
M  V30 23 1 31 23
M  V30 24 1 32 9
M  V30 25 1 33 3
M  V30 26 1 33 4 CFG=1
M  V30 27 1 33 10
M  V30 28 1 34 3
M  V30 29 2 34 6
M  V30 30 1 35 19
M  V30 31 1 36 11
M  V30 32 1 36 32
M  V30 33 1 37 13
M  V30 34 1 37 31
M  V30 35 1 38 11
M  V30 36 2 38 13
M  V30 37 2 39 1
M  V30 38 1 39 11
M  V30 39 1 39 28
M  V30 40 1 40 24
M  V30 41 1 40 27
M  V30 42 1 40 35
M  V30 43 1 41 12
M  V30 44 1 41 21
M  V30 45 1 41 35
M  V30 46 1 42 10
M  V30 47 1 42 33
M  V30 48 1 43 1
M  V30 49 1 44 2
M  V30 50 1 45 2
M  V30 51 1 46 4
M  V30 52 1 47 4
M  V30 53 1 48 4
M  V30 54 1 49 6
M  V30 55 1 50 7
M  V30 56 1 9 51 CFG=1
M  V30 57 1 52 10
M  V30 58 1 53 10
M  V30 59 1 11 54 CFG=3
M  V30 60 1 12 55 CFG=1
M  V30 61 1 56 14
M  V30 62 1 57 14
M  V30 63 1 58 15
M  V30 64 1 59 15
M  V30 65 1 60 16
M  V30 66 1 61 16
M  V30 67 1 62 17
M  V30 68 1 63 17
M  V30 69 1 64 17
M  V30 70 1 65 19
M  V30 71 1 66 19
M  V30 72 1 67 20
M  V30 73 1 68 22
M  V30 74 1 69 22
M  V30 75 1 70 24
M  V30 76 1 71 24
M  V30 77 1 72 25
M  V30 78 1 73 25
M  V30 79 1 74 26
M  V30 80 1 75 26
M  V30 81 1 76 26
M  V30 82 1 77 28
M  V30 83 1 78 28
M  V30 84 1 29 79 CFG=1
M  V30 85 1 80 30
M  V30 86 1 31 81 CFG=1
M  V30 87 1 82 32
M  V30 88 1 83 32
M  V30 89 1 84 34
M  V30 90 1 35 85 CFG=3
M  V30 91 1 86 36
M  V30 92 1 87 36
M  V30 93 1 40 88 CFG=1
M  V30 94 1 27 89 CFG=3
M  V30 END BOND
M  V30 END CTAB
M  END
>  <i_epik_Tot_Q>  (1) 
0

>  <i_epik_Tot_abs_Q>  (1) 
2

>  <i_i_glide_confnum>  (1) 
510

>  <i_i_glide_lignum>  (1) 
93

>  <i_i_glide_posenum>  (1) 
138

>  <i_i_glide_rotatable_bonds>  (1) 
10

>  <i_lp_mmshare_version>  (1) 
72125

>  <i_m_source_file_index>  (1) 
43

>  <i_f3d_flags>  (1) 
0

>  <num_sample>  (1) 
100

>  <b_lp_Chiralities_Consistent>  (1) 
1

>  <r_epik_Charging_Adjusted_Penalty>  (1) 
0.10762157237222084

>  <r_epik_Ionization_Penalty>  (1) 
0.015049648649627746

>  <r_epik_Ionization_Penalty_Charging>  (1) 
0.014590701191951229

>  <r_epik_Ionization_Penalty_Neutral>  (1) 
0.0004589474576765184

>  <r_epik_State_Penalty>  (1) 
0.093030871180269606

>  <r_glide_ring_energy>  (1) 
0

>  <r_i_docking_score>  (1) 
-6.0155821876082491

>  <r_i_glide_ecoul>  (1) 
-0.8690931769353093

>  <r_i_glide_eff_state_penalty>  (1) 
0.093030871180269606

>  <r_i_glide_einternal>  (1) 
24.517435119455421

>  <r_i_glide_emodel>  (1) 
0.99731685195995468

>  <r_i_glide_emodel_strain>  (1) 
9.5514056287382658

>  <r_i_glide_energy>  (1) 
-7.3421300539641798

>  <r_i_glide_erotb>  (1) 
0.39316795176799535

>  <r_i_glide_esite>  (1) 
-0.0048885351197598256

>  <r_i_glide_evdw>  (1) 
-6.4730368770288704

>  <r_i_glide_gscore>  (1) 
-6.108613058788519

>  <r_i_glide_gscore_strain>  (1) 
1.3878514071845665

>  <r_i_glide_hbond>  (1) 
-0.32000000000000001

>  <r_i_glide_ligand_efficiency>  (1) 
-0.14322814732400593

>  <r_i_glide_ligand_efficiency_ln>  (1) 
-1.2697344205668599

>  <r_i_glide_ligand_efficiency_sa>  (1) 
-0.49786485639596656

>  <r_i_glide_lipo>  (1) 
-5.2684240045078008

>  <r_i_glide_metal>  (1) 
-0

>  <r_i_glide_rewards>  (1) 
-1.8423040577217797

>  <r_lp_Energy>  (1) 
80.091357000000002

>  <s_epik_Chemistry_Notes>  (1) 
This compound has an imine and may undergo hydrolysis. This compound contains an acetal/aminal-like group ( X-CH(R)-Y where X, Y are N, S, or O) that may be acid/base labile, releasing an aldehyde.

>  <s_epik_cmdline>  (1) 
J2VwaWtfcHl0aG9uJywgJy1waHQnLCAnMS4wJywgJy1waCcsICc3LjQnLCAnLXRuJywgJzgnLCAnLW1hJywgJzUwMCcsICctaW1hZScsICc8aW5maWxlLm1hZT4nLCAnLW9tYWUnLCAnPG91dGZpbGUubWFlPic=

>  <s_epik_input>  (1) 
W0NIMl0xW0NIMl1bQ0BIXShbT0hdKVtDSDJdQyhbQ0BASF0xMik9W0NIXVtDSDJdQyg9TjIpT1tDQEBIXShPW0NIM10pW0NIMl1DKD1PKU4zW0NASF0oW0NIM10pW0NIMl1bQ0gyXVtDQEBIXShbQ0BIXTM0KU4oW0NIMl1bQ0gyXVtDSDJdW0NIMl00KVtDQEhdKFtPSF0pYyhbY0hdW2NIXTUpW2NIXVtjSF1jNUM2KFtDSDNdKVtDSDJdTzY=

>  <s_glide_docking_method>  (1) 
confgen

>  <s_i_glide_gridfile>  (1) 
gpcr_5ht2c_6bqh_protein_autoprepared_prepared

>  <s_lp_Force_Field>  (1) 
S-OPLS

>  <s_lp_Variant>  (1) 
DiffSBDD_42-2

>  <s_m_source_file>  (1) 
generated_GPCR_5HT2C_ligand_DiffSBDD_2026-06-23_prepared.sdf

>  <GenAI_Model>  (1) 
DiffSBDD

>  <Protein>  (1) 
GPCR_5HT2C

$$$$
DiffSBDD_9
     RDKit          3D

  0  0  0  0  0  0  0  0  0  0999 V3000
M  V30 BEGIN CTAB
M  V30 COUNTS 67 68 0 0 1
M  V30 BEGIN ATOM
M  V30 1 C 37.253314 33.104037 59.242963 0 CFG=1
M  V30 2 C 36.996507 25.630013 57.075984 0
M  V30 3 C 37.258077 37.856123 61.560952 0
M  V30 4 C 39.396805 27.814250 51.231562 0
M  V30 5 O 36.445196 37.020152 62.201484 0
M  V30 6 O 37.245237 28.300036 52.167990 0
M  V30 7 C 36.840653 33.595195 60.607689 0 CFG=1
M  V30 8 C 38.291707 33.271550 60.348196 0
M  V30 9 N 36.857311 31.716245 58.967816 0 CHG=1
M  V30 10 C 38.375877 28.990015 56.867430 0
M  V30 11 C 39.451360 27.033035 55.695742 0 CFG=2
M  V30 12 C 38.898145 27.232987 54.278743 0
M  V30 13 C 39.023092 28.658080 53.668125 0 CFG=1
M  V30 14 C 37.541052 29.592788 57.960604 0
M  V30 15 C 38.588488 28.694373 52.195611 0 CFG=1
M  V30 16 C 37.969145 26.610790 57.757462 0
M  V30 17 C 38.989659 29.978492 55.877701 0
M  V30 18 C 41.430676 27.435745 57.034477 0
M  V30 19 C 36.314027 34.991309 60.801775 0
M  V30 20 C 37.189434 33.969456 58.010040 0
M  V30 21 O 36.513968 29.078999 58.391817 0
M  V30 22 C 38.014071 30.905009 58.572050 0
M  V30 23 O 38.277556 37.520827 60.967761 0
M  V30 24 C 36.672571 35.618280 62.162773 0
M  V30 25 C 38.566594 27.633659 56.777749 0
M  V30 26 C 38.360531 29.774725 54.489152 0
M  V30 27 O 36.162990 32.608948 61.367653 0
M  V30 28 O 40.784718 27.522192 55.768125 0
M  V30 29 C 38.996630 25.834290 58.567767 0
M  V30 30 H 36.270986 26.137585 56.450566 0
M  V30 31 H 37.520664 24.917977 56.436795 0
M  V30 32 H 36.451126 25.047807 57.819258 0
M  V30 33 H 36.880295 38.874312 61.647753 0
M  V30 34 H 40.450673 28.089244 51.261804 0
M  V30 35 H 39.311546 26.750274 51.453502 0
M  V30 36 H 39.059259 27.953489 50.203019 0
M  V30 37 H 37.055509 27.877705 51.341259 0
M  V30 38 H 38.979252 34.111353 60.266788 0
M  V30 39 H 38.699772 32.397382 60.853814 0
M  V30 40 H 36.418007 31.331637 59.793260 0
M  V30 41 H 39.517091 25.956557 55.854928 0
M  V30 42 H 39.435630 26.531322 53.642733 0
M  V30 43 H 37.856565 26.906729 54.262103 0
M  V30 44 H 40.045097 28.975378 53.639817 0
M  V30 45 H 38.679898 29.716412 51.830464 0
M  V30 46 H 37.483598 27.091790 58.566691 0
M  V30 47 H 38.791348 31.019201 56.109150 0
M  V30 48 H 40.074066 29.886174 55.851227 0
M  V30 49 H 42.493571 27.659424 56.963588 0
M  V30 50 H 41.015368 28.148774 57.745245 0
M  V30 51 H 41.340799 26.440105 57.453371 0
M  V30 52 H 36.723870 35.627720 60.024178 0
M  V30 53 H 35.246373 34.937745 60.608957 0
M  V30 54 H 37.645110 34.938099 58.180825 0
M  V30 55 H 37.688530 33.499582 57.161032 0
M  V30 56 H 36.140683 34.137369 57.767775 0
M  V30 57 H 38.691325 31.490079 57.963365 0
M  V30 58 H 38.575414 30.650154 59.469397 0
M  V30 59 H 36.043581 35.177176 62.932901 0
M  V30 60 H 37.716285 35.415014 62.412507 0
M  V30 61 H 38.467727 30.712312 53.940396 0
M  V30 62 H 37.285470 29.610500 54.577696 0
M  V30 63 H 35.261861 32.884139 61.467623 0
M  V30 64 H 39.717553 26.498177 59.043043 0
M  V30 65 H 38.447141 25.337714 59.366687 0
M  V30 66 H 39.526324 25.084040 57.978119 0
M  V30 67 H 36.172821 31.737047 58.201576 0
M  V30 END ATOM
M  V30 BEGIN BOND
M  V30 1 1 5 3
M  V30 2 1 7 1
M  V30 3 1 8 1
M  V30 4 1 8 7
M  V30 5 1 9 1
M  V30 6 1 12 11
M  V30 7 1 13 12
M  V30 8 1 14 10
M  V30 9 1 15 4
M  V30 10 1 15 6
M  V30 11 1 15 13
M  V30 12 1 16 2
M  V30 13 1 17 10
M  V30 14 1 19 7
M  V30 15 1 1 20 CFG=3
M  V30 16 2 21 14
M  V30 17 1 22 9
M  V30 18 1 22 14
M  V30 19 2 23 3
M  V30 20 1 24 5
M  V30 21 1 24 19
M  V30 22 2 25 10
M  V30 23 1 25 11
M  V30 24 1 25 16
M  V30 25 1 26 13
M  V30 26 1 26 17
M  V30 27 1 7 27 CFG=1
M  V30 28 1 28 11
M  V30 29 1 28 18
M  V30 30 1 29 16
M  V30 31 1 30 2
M  V30 32 1 31 2
M  V30 33 1 32 2
M  V30 34 1 33 3
M  V30 35 1 34 4
M  V30 36 1 35 4
M  V30 37 1 36 4
M  V30 38 1 37 6
M  V30 39 1 38 8
M  V30 40 1 39 8
M  V30 41 1 40 9
M  V30 42 1 11 41 CFG=1
M  V30 43 1 42 12
M  V30 44 1 43 12
M  V30 45 1 13 44 CFG=3
M  V30 46 1 15 45 CFG=3
M  V30 47 1 46 16
M  V30 48 1 47 17
M  V30 49 1 48 17
M  V30 50 1 49 18
M  V30 51 1 50 18
M  V30 52 1 51 18
M  V30 53 1 52 19
M  V30 54 1 53 19
M  V30 55 1 54 20
M  V30 56 1 55 20
M  V30 57 1 56 20
M  V30 58 1 57 22
M  V30 59 1 58 22
M  V30 60 1 59 24
M  V30 61 1 60 24
M  V30 62 1 61 26
M  V30 63 1 62 26
M  V30 64 1 63 27
M  V30 65 1 64 29
M  V30 66 1 65 29
M  V30 67 1 66 29
M  V30 68 1 67 9
M  V30 END BOND
M  V30 END CTAB
M  END
>  <i_epik_Tot_Q>  (1) 
1

>  <i_epik_Tot_abs_Q>  (1) 
1

>  <i_i_glide_confnum>  (1) 
1616

>  <i_i_glide_lignum>  (1) 
13

>  <i_i_glide_posenum>  (1) 
179

>  <i_i_glide_rotatable_bonds>  (1) 
13

>  <i_lp_mmshare_version>  (1) 
72125

>  <i_m_source_file_index>  (1) 
10

>  <i_f3d_flags>  (1) 
0

>  <num_sample>  (1) 
100

>  <b_lp_Chiralities_Consistent>  (1) 
1

>  <r_epik_Charging_Adjusted_Penalty>  (1) 
0.43257487955488089

>  <r_epik_Ionization_Penalty>  (1) 
0.21628819114950359

>  <r_epik_Ionization_Penalty_Charging>  (1) 
0.21628743977744047

>  <r_epik_Ionization_Penalty_Neutral>  (1) 
7.5137206312442099e-07

>  <r_epik_State_Penalty>  (1) 
0.21628743977744042

>  <r_glide_ring_energy>  (1) 
0

>  <r_i_docking_score>  (1) 
-6.0104759867210298

>  <r_i_glide_ecoul>  (1) 
-9.5693018573899646

>  <r_i_glide_eff_state_penalty>  (1) 
0.21628743977744042

>  <r_i_glide_einternal>  (1) 
8.6076739230746426

>  <r_i_glide_emodel>  (1) 
-37.543036405121462

>  <r_i_glide_emodel_strain>  (1) 
1.7957228933125009

>  <r_i_glide_energy>  (1) 
-26.718864735286488

>  <r_i_glide_erotb>  (1) 
0.92691700141960698

>  <r_i_glide_esite>  (1) 
-0.15127267688032095

>  <r_i_glide_evdw>  (1) 
-17.149562877896525

>  <r_i_glide_gscore>  (1) 
-6.2267634264984704

>  <r_i_glide_gscore_strain>  (1) 
0

>  <r_i_glide_hbond>  (1) 
-0.3397372841277056

>  <r_i_glide_ligand_efficiency>  (1) 
-0.20725779264555275

>  <r_i_glide_ligand_efficiency_ln>  (1) 
-1.3762465884386046

>  <r_i_glide_ligand_efficiency_sa>  (1) 
-0.63676160359944023

>  <r_i_glide_lipo>  (1) 
-2.8208581038783205

>  <r_i_glide_metal>  (1) 
-0

>  <r_i_glide_rewards>  (1) 
-1.5489389405284102

>  <r_lp_Energy>  (1) 
43.017908999999996

>  <s_epik_Chemistry_Notes>  (1) 
This compound has an ester and may undergo hydrolysis at high or low pH.

>  <s_epik_cmdline>  (1) 
J2VwaWtfcHl0aG9uJywgJy1waHQnLCAnMS4wJywgJy1waCcsICc3LjQnLCAnLXRuJywgJzgnLCAnLW1hJywgJzUwMCcsICctaW1hZScsICc8aW5maWxlLm1hZT4nLCAnLW9tYWUnLCAnPG91dGZpbGUubWFlPic=

>  <s_epik_input>  (1) 
Tz1bQ0hdT1tDSDJdW0NIMl1bQ0BAXShbQ0gyXTEpKFtPSF0pW0NAXTEoW0NIM10pW05IXVtDSDJdQyg9TylDMj1DKFtDSF0oW0NIM10pW0NIM10pW0NASF0oT1tDSDNdKVtDSDJdW0NAQEhdKFtDQEBIXShbQ0gzXSlbT0hdKVtDSDJdW0NIMl0y

>  <s_glide_docking_method>  (1) 
confgen

>  <s_i_glide_gridfile>  (1) 
gpcr_5ht2c_6bqh_protein_autoprepared_prepared

>  <s_lp_Force_Field>  (1) 
S-OPLS

>  <s_lp_Variant>  (1) 
DiffSBDD_9-1

>  <s_m_source_file>  (1) 
generated_GPCR_5HT2C_ligand_DiffSBDD_2026-06-23_prepared.sdf

>  <GenAI_Model>  (1) 
DiffSBDD

>  <Protein>  (1) 
GPCR_5HT2C

$$$$
DiffSBDD_20
     RDKit          3D

  0  0  0  0  0  0  0  0  0  0999 V3000
M  V30 BEGIN CTAB
M  V30 COUNTS 53 54 0 0 1
M  V30 BEGIN ATOM
M  V30 1 C 38.642499 29.728750 58.100780 0 CFG=2
M  V30 2 O 36.502421 30.537741 58.807874 0
M  V30 3 O 38.633185 25.958086 57.163055 0
M  V30 4 P 39.619536 26.794676 56.445149 0
M  V30 5 C 38.527733 31.243598 59.974142 0 CFG=1
M  V30 6 N 40.296580 29.751647 51.196214 0
M  V30 7 C 37.399773 33.518323 60.774623 0
M  V30 8 C 34.850573 33.522397 60.164108 0
M  V30 9 C 37.887973 28.958215 57.002337 0
M  V30 10 C 37.981371 28.286642 54.559203 0 CFG=2
M  V30 11 N 38.939815 28.930981 59.296591 0 CHG=1
M  V30 12 C 37.857578 30.932832 58.623680 0
M  V30 13 F 40.045089 27.695882 50.167758 0
M  V30 14 C 36.284295 33.911366 59.770983 0
M  V30 15 C 39.800250 28.490899 51.212489 0
M  V30 16 O 40.444853 26.233211 55.357943 0 CHG=-1
M  V30 17 O 40.660096 27.460243 57.597989 0
M  V30 18 C 38.789544 28.800892 53.380089 0
M  V30 19 C 39.047686 27.980506 52.278784 0
M  V30 20 C 38.778679 28.390769 55.888228 0 CFG=2
M  V30 21 C 40.045128 30.537754 52.262628 0
M  V30 22 O 36.518917 31.337741 61.367840 0
M  V30 23 C 39.294615 30.113828 53.372302 0
M  V30 24 C 37.704878 32.020264 61.044661 0 CFG=1
M  V30 25 C 39.070686 29.868433 60.437040 0
M  V30 26 O 37.407169 27.005915 54.366139 0
M  V30 27 O 38.042118 31.996621 57.711482 0
M  V30 28 H 39.603161 30.089167 57.727264 0
M  V30 29 H 35.991980 30.848294 58.051786 0
M  V30 30 H 39.405426 31.855863 59.767930 0
M  V30 31 H 37.147337 33.981458 61.729400 0
M  V30 32 H 38.325647 34.002997 60.462915 0
M  V30 33 H 34.127280 34.075079 59.563686 0
M  V30 34 H 34.653171 32.465011 59.994225 0
M  V30 35 H 34.650916 33.737855 61.213565 0
M  V30 36 H 37.245233 28.186123 57.426812 0
M  V30 37 H 37.206998 29.671485 56.538462 0
M  V30 38 H 37.124548 28.959763 54.574956 0
M  V30 39 H 39.760728 28.356268 59.133572 0
M  V30 40 H 36.309130 34.997770 59.675286 0
M  V30 41 H 36.486124 33.546057 58.770257 0
M  V30 42 H 41.475705 26.995788 57.472181 0
M  V30 43 H 38.676426 26.966720 52.246589 0
M  V30 44 H 39.579859 29.112179 55.739781 0
M  V30 45 H 40.446638 31.537609 52.225183 0
M  V30 46 H 36.083890 31.144254 60.542016 0
M  V30 47 H 39.114043 30.782566 54.201598 0
M  V30 48 H 38.307023 32.005028 61.954463 0
M  V30 49 H 40.117004 29.945930 60.733419 0
M  V30 50 H 38.522406 29.479842 61.292554 0
M  V30 51 H 37.075577 26.685047 55.192655 0
M  V30 52 H 37.212656 32.137766 57.255544 0
M  V30 53 H 38.141152 28.335364 59.461978 0
M  V30 END ATOM
M  V30 BEGIN BOND
M  V30 1 2 4 3
M  V30 2 1 9 1
M  V30 3 1 11 1
M  V30 4 1 12 1
M  V30 5 1 12 2
M  V30 6 1 12 5
M  V30 7 1 14 7
M  V30 8 1 14 8
M  V30 9 2 15 6
M  V30 10 1 15 13
M  V30 11 1 16 4
M  V30 12 1 17 4
M  V30 13 1 18 10
M  V30 14 1 19 15
M  V30 15 2 19 18
M  V30 16 1 20 4
M  V30 17 1 20 9
M  V30 18 1 20 10
M  V30 19 1 21 6
M  V30 20 1 23 18
M  V30 21 2 23 21
M  V30 22 1 24 5
M  V30 23 1 24 7
M  V30 24 1 24 22
M  V30 25 1 25 5
M  V30 26 1 25 11
M  V30 27 1 26 10
M  V30 28 1 27 12
M  V30 29 1 1 28 CFG=3
M  V30 30 1 29 2
M  V30 31 1 5 30 CFG=3
M  V30 32 1 31 7
M  V30 33 1 32 7
M  V30 34 1 33 8
M  V30 35 1 34 8
M  V30 36 1 35 8
M  V30 37 1 36 9
M  V30 38 1 37 9
M  V30 39 1 10 38 CFG=1
M  V30 40 1 39 11
M  V30 41 1 40 14
M  V30 42 1 41 14
M  V30 43 1 42 17
M  V30 44 1 43 19
M  V30 45 1 20 44 CFG=3
M  V30 46 1 45 21
M  V30 47 1 46 22
M  V30 48 1 47 23
M  V30 49 1 24 48 CFG=1
M  V30 50 1 49 25
M  V30 51 1 50 25
M  V30 52 1 51 26
M  V30 53 1 52 27
M  V30 54 1 53 11
M  V30 END BOND
M  V30 END CTAB
M  END
>  <i_epik_Tot_Q>  (1) 
0

>  <i_epik_Tot_abs_Q>  (1) 
2

>  <i_i_glide_confnum>  (1) 
297

>  <i_i_glide_lignum>  (1) 
49

>  <i_i_glide_posenum>  (1) 
366

>  <i_i_glide_rotatable_bonds>  (1) 
13

>  <i_lp_mmshare_version>  (1) 
72125

>  <i_m_source_file_index>  (1) 
21

>  <i_f3d_flags>  (1) 
0

>  <num_sample>  (1) 
100

>  <b_lp_Chiralities_Consistent>  (1) 
1

>  <r_epik_Charging_Adjusted_Penalty>  (1) 
0.5459377507147144

>  <r_epik_Ionization_Penalty>  (1) 
0.54595169612510452

>  <r_epik_Ionization_Penalty_Charging>  (1) 
0.0068991791537532298

>  <r_epik_Ionization_Penalty_Neutral>  (1) 
0.53905251697135126

>  <r_epik_State_Penalty>  (1) 
0.53903857156096113

>  <r_glide_ring_energy>  (1) 
0

>  <r_i_docking_score>  (1) 
-6.006964799656239

>  <r_i_glide_ecoul>  (1) 
-12.805104159473855

>  <r_i_glide_eff_state_penalty>  (1) 
0.53903857156096113

>  <r_i_glide_einternal>  (1) 
30.135783752763892

>  <r_i_glide_emodel>  (1) 
-45.709983349982998

>  <r_i_glide_emodel_strain>  (1) 
6.4979329244670296

>  <r_i_glide_energy>  (1) 
-45.306595197846917

>  <r_i_glide_erotb>  (1) 
0.70809137694380864

>  <r_i_glide_esite>  (1) 
-0.06976884785022

>  <r_i_glide_evdw>  (1) 
-32.501491038373061

>  <r_i_glide_gscore>  (1) 
-6.5460033712171999

>  <r_i_glide_gscore_strain>  (1) 
0.62448323111675741

>  <r_i_glide_hbond>  (1) 
-0.57599999999999996

>  <r_i_glide_ligand_efficiency>  (1) 
-0.22248017776504589

>  <r_i_glide_ligand_efficiency_ln>  (1) 
-1.3983223728054355

>  <r_i_glide_ligand_efficiency_sa>  (1) 
-0.66744053329513775

>  <r_i_glide_lipo>  (1) 
-2.2190414645818475

>  <r_i_glide_metal>  (1) 
-0

>  <r_i_glide_rewards>  (1) 
-1.4679274910059688

>  <r_lp_Energy>  (1) 
8.4589179999999988

>  <s_epik_cmdline>  (1) 
J2VwaWtfcHl0aG9uJywgJy1waHQnLCAnMS4wJywgJy1waCcsICc3LjQnLCAnLXRuJywgJzgnLCAnLW1hJywgJzUwMCcsICctaW1hZScsICc8aW5maWxlLm1hZT4nLCAnLW9tYWUnLCAnPG91dGZpbGUubWFlPic=

>  <s_epik_input>  (1) 
W0NIM11bQ0gyXVtDSDJdW0NAQEhdKFtPSF0pW0NASF0xW0NIMl1bTkhdW0NASF0oQzEoW09IXSlbT0hdKVtDSDJdW0NAQEhdKFAoPU8pKFtPSF0pW09IXSlbQ0BIXShbT0hdKWMoW2NIXTIpW2NIXVtjSF1uYzJG

>  <s_glide_docking_method>  (1) 
confgen

>  <s_i_glide_gridfile>  (1) 
gpcr_5ht2c_6bqh_protein_autoprepared_prepared

>  <s_lp_Force_Field>  (1) 
S-OPLS

>  <s_lp_Variant>  (1) 
DiffSBDD_20-3

>  <s_m_source_file>  (1) 
generated_GPCR_5HT2C_ligand_DiffSBDD_2026-06-23_prepared.sdf

>  <GenAI_Model>  (1) 
DiffSBDD

>  <Protein>  (1) 
GPCR_5HT2C

$$$$
DiffSBDD_75
     RDKit          3D

  0  0  0  0  0  0  0  0  0  0999 V3000
M  V30 BEGIN CTAB
M  V30 COUNTS 77 78 0 0 1
M  V30 BEGIN ATOM
M  V30 1 C 39.067417 33.255289 59.633607 0
M  V30 2 C 40.581192 35.252088 61.241300 0
M  V30 3 O 40.445130 29.344641 62.774156 0
M  V30 4 C 36.133246 33.151904 59.860171 0
M  V30 5 C 40.767486 30.433881 66.353662 0 CFG=1
M  V30 6 C 38.789995 28.422094 55.930351 0
M  V30 7 C 40.353771 30.295539 63.821249 0 CFG=2
M  V30 8 C 38.170486 28.163985 54.688546 0
M  V30 9 O 41.525474 30.114348 68.639318 0
M  V30 10 C 42.816781 30.429767 64.705600 0 CFG=1
M  V30 11 O 37.566923 24.539461 54.968373 0
M  V30 12 S 40.667509 31.995008 61.551330 0
M  V30 13 C 35.961454 34.227941 58.777735 0
M  V30 14 C 37.969327 25.804155 55.279385 0
M  V30 15 C 40.317044 31.763051 63.320576 0
M  V30 16 C 39.219181 29.833579 56.288489 0
M  V30 17 C 39.001366 27.366556 56.843504 0
M  V30 18 O 44.039891 28.920836 66.200270 0
M  V30 19 C 43.422576 29.723940 63.489828 0
M  V30 20 C 41.351662 29.962424 64.983721 0 CFG=1
M  V30 21 O 36.045658 35.505199 59.367741 0
M  V30 22 O 39.504541 34.466934 61.734336 0
M  V30 23 O 38.845430 32.882162 56.808195 0
M  V30 24 C 36.558581 30.754987 60.223130 0
M  V30 25 N 36.832829 31.931260 59.366055 0 CFG=2 CHG=1
M  V30 26 C 38.445161 31.952473 57.505556 0
M  V30 27 C 37.761394 26.855757 54.363908 0
M  V30 28 C 38.032751 30.636206 56.845254 0
M  V30 29 C 38.298506 32.038047 59.039797 0 CFG=1
M  V30 30 C 38.590467 26.059441 56.517387 0
M  V30 31 C 43.203431 30.978696 67.154258 0
M  V30 32 C 39.344762 33.178530 61.149193 0 CFG=1
M  V30 33 C 39.549861 29.563275 66.754764 0
M  V30 34 C 43.763573 30.280591 65.913904 0 CFG=2
M  V30 35 C 41.808289 30.469702 67.495982 0
M  V30 36 H 40.028942 33.342276 59.133652 0
M  V30 37 H 38.552966 34.184101 59.401500 0
M  V30 38 H 40.625710 36.190643 61.793470 0
M  V30 39 H 41.540745 34.750747 61.367786 0
M  V30 40 H 40.446113 35.499955 60.189417 0
M  V30 41 H 40.139900 28.515320 63.114937 0
M  V30 42 H 35.134298 32.887721 60.210703 0
M  V30 43 H 36.635392 33.558846 60.735402 0
M  V30 44 H 39.342750 30.137752 64.181997 0
M  V30 45 H 38.005387 28.969005 53.987590 0
M  V30 46 H 43.864052 30.828064 68.007763 0
M  V30 47 H 42.806991 31.495095 64.481419 0
M  V30 48 H 37.191548 24.471272 54.103588 0
M  V30 49 H 36.733690 34.157529 58.014488 0
M  V30 50 H 35.004463 34.136611 58.263239 0
M  V30 51 H 40.933709 32.436537 63.913196 0
M  V30 52 H 39.304210 32.128034 63.457205 0
M  V30 53 H 40.033522 29.788630 57.014149 0
M  V30 54 H 39.623652 30.322840 55.400793 0
M  V30 55 H 39.475127 27.559755 57.794946 0
M  V30 56 H 44.788984 28.875275 66.776581 0
M  V30 57 H 43.407991 28.639018 63.600989 0
M  V30 58 H 42.845166 29.966700 62.605160 0
M  V30 59 H 44.456139 30.027287 63.325324 0
M  V30 60 H 41.402483 28.874614 65.055265 0
M  V30 61 H 36.028258 36.137699 58.662205 0
M  V30 62 H 37.022190 30.867529 61.202963 0
M  V30 63 H 35.489527 30.624516 60.373246 0
M  V30 64 H 36.939069 29.836162 59.774501 0
M  V30 65 H 37.284615 26.660481 53.413937 0
M  V30 66 H 37.311219 30.843707 56.053905 0
M  V30 67 H 37.508335 30.028644 57.580537 0
M  V30 68 H 38.790022 31.145173 59.427628 0
M  V30 69 H 38.749620 25.252490 57.218703 0
M  V30 70 H 43.145081 32.053679 66.985422 0
M  V30 71 H 40.430272 31.465275 66.246856 0
M  V30 72 H 38.445873 32.779961 61.611421 0
M  V30 73 H 39.216180 29.737763 67.767730 0
M  V30 74 H 38.669053 29.738080 66.143584 0
M  V30 75 H 39.792573 28.504413 66.690711 0
M  V30 76 H 44.719237 30.744387 65.664241 0
M  V30 77 H 36.367318 31.738252 58.475964 0
M  V30 END ATOM
M  V30 BEGIN BOND
M  V30 1 1 7 3
M  V30 2 1 8 6
M  V30 3 1 13 4
M  V30 4 1 14 11
M  V30 5 1 15 7
M  V30 6 1 15 12
M  V30 7 1 16 6
M  V30 8 2 17 6
M  V30 9 1 19 10
M  V30 10 1 20 5
M  V30 11 1 20 7
M  V30 12 1 20 10
M  V30 13 1 21 13
M  V30 14 1 22 2
M  V30 15 1 25 4
M  V30 16 1 25 24
M  V30 17 2 26 23
M  V30 18 2 27 8
M  V30 19 1 27 14
M  V30 20 1 28 16
M  V30 21 1 28 26
M  V30 22 1 29 1
M  V30 23 1 29 25
M  V30 24 1 29 26
M  V30 25 2 30 14
M  V30 26 1 30 17
M  V30 27 1 32 1
M  V30 28 1 32 12
M  V30 29 1 32 22
M  V30 30 1 33 5
M  V30 31 1 34 10
M  V30 32 1 34 18
M  V30 33 1 34 31
M  V30 34 1 35 5
M  V30 35 2 35 9
M  V30 36 1 35 31
M  V30 37 1 36 1
M  V30 38 1 37 1
M  V30 39 1 38 2
M  V30 40 1 39 2
M  V30 41 1 40 2
M  V30 42 1 41 3
M  V30 43 1 42 4
M  V30 44 1 43 4
M  V30 45 1 7 44 CFG=1
M  V30 46 1 45 8
M  V30 47 1 46 31
M  V30 48 1 10 47 CFG=3
M  V30 49 1 48 11
M  V30 50 1 49 13
M  V30 51 1 50 13
M  V30 52 1 51 15
M  V30 53 1 52 15
M  V30 54 1 53 16
M  V30 55 1 54 16
M  V30 56 1 55 17
M  V30 57 1 56 18
M  V30 58 1 57 19
M  V30 59 1 58 19
M  V30 60 1 59 19
M  V30 61 1 20 60 CFG=1
M  V30 62 1 61 21
M  V30 63 1 62 24
M  V30 64 1 63 24
M  V30 65 1 64 24
M  V30 66 1 65 27
M  V30 67 1 66 28
M  V30 68 1 67 28
M  V30 69 1 29 68 CFG=1
M  V30 70 1 69 30
M  V30 71 1 70 31
M  V30 72 1 5 71 CFG=3
M  V30 73 1 32 72 CFG=1
M  V30 74 1 73 33
M  V30 75 1 74 33
M  V30 76 1 75 33
M  V30 77 1 34 76 CFG=3
M  V30 78 1 25 77 CFG=3
M  V30 END BOND
M  V30 END CTAB
M  END
>  <i_epik_Tot_Q>  (1) 
1

>  <i_epik_Tot_abs_Q>  (1) 
1

>  <i_i_glide_confnum>  (1) 
6055

>  <i_i_glide_lignum>  (1) 
168

>  <i_i_glide_posenum>  (1) 
308

>  <i_i_glide_rotatable_bonds>  (1) 
18

>  <i_lp_mmshare_version>  (1) 
72125

>  <i_m_source_file_index>  (1) 
76

>  <i_f3d_flags>  (1) 
0

>  <num_sample>  (1) 
100

>  <b_lp_Chiralities_Consistent>  (1) 
1

>  <r_epik_Charging_Adjusted_Penalty>  (1) 
0.52789471212939676

>  <r_epik_Ionization_Penalty>  (1) 
0.26592108790513191

>  <r_epik_Ionization_Penalty_Charging>  (1) 
0.26394735606469838

>  <r_epik_Ionization_Penalty_Neutral>  (1) 
0.0019737318404335234

>  <r_epik_State_Penalty>  (1) 
0.26394735606469838

>  <r_glide_ring_energy>  (1) 
0

>  <r_i_docking_score>  (1) 
-6.0066460410571567

>  <r_i_glide_ecoul>  (1) 
-7.4127505552598159

>  <r_i_glide_eff_state_penalty>  (1) 
0.26394735606469838

>  <r_i_glide_einternal>  (1) 
10.13461828401347

>  <r_i_glide_emodel>  (1) 
-65.243966427671666

>  <r_i_glide_emodel_strain>  (1) 
4.6463914753975217

>  <r_i_glide_energy>  (1) 
-52.798111245913674

>  <r_i_glide_erotb>  (1) 
1.0139394581015995

>  <r_i_glide_esite>  (1) 
-0.17985926059393992

>  <r_i_glide_evdw>  (1) 
-45.385360690653854

>  <r_i_glide_gscore>  (1) 
-6.2705933971218553

>  <r_i_glide_gscore_strain>  (1) 
0.16159786884938043

>  <r_i_glide_hbond>  (1) 
-0.36501996104806089

>  <r_i_glide_ligand_efficiency>  (1) 
-0.17161845831591876

>  <r_i_glide_ligand_efficiency_ln>  (1) 
-1.3185921163383569

>  <r_i_glide_ligand_efficiency_sa>  (1) 
-0.56137535720370679

>  <r_i_glide_lipo>  (1) 
-3.1013593478754706

>  <r_i_glide_metal>  (1) 
-0

>  <r_i_glide_rewards>  (1) 
-0.41871153673369882

>  <r_lp_Energy>  (1) 
30.563872

>  <r_lp_tautomer_probability>  (1) 
0.99989998499911525

>  <s_epik_Chemistry_Notes>  (1) 
This compound contains an acetal/aminal-like group ( X-CH(R)-Y where X, Y are N, S, or O) that may be acid/base labile, releasing an aldehyde.

>  <s_epik_cmdline>  (1) 
J2VwaWtfcHl0aG9uJywgJy1waHQnLCAnMS4wJywgJy1waCcsICc3LjQnLCAnLXRuJywgJzgnLCAnLW1hJywgJzUwMCcsICctaW1hZScsICc8aW5maWxlLm1hZT4nLCAnLW9tYWUnLCAnPG91dGZpbGUubWFlPic=

>  <s_epik_input>  (1) 
W2NIXTFbY0hdYyhbT0hdKVtjSF1bY0hdYzFbQ0gyXVtDSDJdQyg9TylbQ0BIXShOKFtDSDNdKVtDSDJdW0NIMl1bT0hdKVtDSDJdW0NASF0oT1tDSDNdKVNbQ0gyXVtDQEBIXShbT0hdKVtDQEhdMltDQEBIXShbQ0gzXSlbQ0BIXShbT0hdKVtDSDJdQyhbT0hdKT1DMltDSDNd

>  <s_glide_docking_method>  (1) 
confgen

>  <s_i_glide_gridfile>  (1) 
gpcr_5ht2c_6bqh_protein_autoprepared_prepared

>  <s_lp_Force_Field>  (1) 
S-OPLS

>  <s_lp_Variant>  (1) 
DiffSBDD_75-5

>  <s_m_source_file>  (1) 
generated_GPCR_5HT2C_ligand_DiffSBDD_2026-06-23_prepared.sdf

>  <GenAI_Model>  (1) 
DiffSBDD

>  <Protein>  (1) 
GPCR_5HT2C

$$$$
DiffSBDD_42
     RDKit          3D

  0  0  0  0  0  0  0  0  0  0999 V3000
M  V30 BEGIN CTAB
M  V30 COUNTS 89 94 0 0 1
M  V30 BEGIN ATOM
M  V30 1 C 38.442363 32.505701 57.557894 0
M  V30 2 C 44.869906 32.369130 67.534374 0
M  V30 3 C 45.115739 25.049189 68.741757 0
M  V30 4 C 46.274463 23.293004 70.132607 0
M  V30 5 O 44.845141 29.934463 69.242814 0 CHG=-1
M  V30 6 C 43.515220 26.903785 68.769203 0
M  V30 7 C 46.145127 25.961656 68.410121 0
M  V30 8 C 44.545013 27.809416 68.436812 0
M  V30 9 C 38.969547 30.335993 54.646458 0 CFG=2
M  V30 10 C 45.252766 22.596287 67.783298 0
M  V30 11 C 38.179666 30.021947 57.535755 0 CFG=1
M  V30 12 C 41.222479 28.798860 64.610362 0 CFG=1
M  V30 13 C 38.502245 31.113698 59.667448 0
M  V30 14 C 42.507145 28.004486 64.329268 0
M  V30 15 C 40.166848 30.640373 62.671500 0
M  V30 16 C 45.539077 31.112221 66.934012 0
M  V30 17 C 40.445130 28.327556 65.854108 0
M  V30 18 O 41.615206 32.284524 63.662782 0
M  V30 19 C 42.742744 32.098603 66.124952 0
M  V30 20 O 40.300862 30.800631 54.590138 0
M  V30 21 C 41.205302 31.126541 63.713985 0
M  V30 22 C 43.338778 32.416996 67.497545 0
M  V30 23 O 39.080858 32.748273 62.540904 0
M  V30 24 C 43.550169 28.227210 65.428566 0
M  V30 25 C 38.589368 32.524685 59.061035 0
M  V30 26 C 39.316691 34.067101 62.069143 0
M  V30 27 N 44.738746 29.843427 66.951450 0 CFG=1 CHG=1
M  V30 28 C 38.079651 31.381067 55.344608 0
M  V30 29 C 44.233134 29.301019 68.275866 0 CFG=2
M  V30 30 C 45.861683 27.334120 68.259364 0
M  V30 31 C 39.584807 31.726488 61.734294 0 CFG=2
M  V30 32 C 38.918976 28.959218 55.343544 0
M  V30 33 C 45.423264 23.584007 68.914132 0 CFG=2
M  V30 34 C 43.798585 25.533004 68.920504 0
M  V30 35 C 42.513997 30.586158 65.824776 0 CFG=2
M  V30 36 C 39.157668 29.042046 56.864349 0
M  V30 37 O 38.525651 31.116458 61.044503 0
M  V30 38 N 38.389276 30.034620 58.990547 0
M  V30 39 C 38.254672 31.382850 56.856333 0
M  V30 40 C 43.823264 29.721074 65.757538 0 CFG=2
M  V30 41 N 41.609214 30.224867 64.676424 0
M  V30 42 O 44.251868 22.759337 68.792062 0
M  V30 43 H 38.481819 33.458275 57.051396 0
M  V30 44 H 45.266634 33.245186 67.022632 0
M  V30 45 H 45.186932 32.482014 68.572315 0
M  V30 46 H 47.245137 23.779015 70.044337 0
M  V30 47 H 45.780531 23.656643 71.033797 0
M  V30 48 H 46.434828 22.219518 70.236418 0
M  V30 49 H 42.505800 27.261288 68.909961 0
M  V30 50 H 47.156365 25.606335 68.274478 0
M  V30 51 H 38.636019 30.220830 53.614520 0
M  V30 52 H 44.942569 22.937755 66.799534 0
M  V30 53 H 45.772936 21.641242 67.827023 0
M  V30 54 H 37.166286 29.657974 57.355709 0
M  V30 55 H 40.567745 28.545575 63.782076 0
M  V30 56 H 42.281145 26.941159 64.240215 0
M  V30 57 H 42.923953 28.307617 63.367649 0
M  V30 58 H 39.316583 30.210366 63.203960 0
M  V30 59 H 40.603505 29.867038 62.039095 0
M  V30 60 H 45.848165 31.329089 65.911345 0
M  V30 61 H 46.475888 30.938433 67.461276 0
M  V30 62 H 40.045141 27.332170 65.670979 0
M  V30 63 H 41.051682 28.262369 66.755604 0
M  V30 64 H 39.608371 28.990267 66.078571 0
M  V30 65 H 43.363099 32.570816 65.367341 0
M  V30 66 H 41.775285 32.602330 66.105931 0
M  V30 67 H 40.317334 31.608751 54.098859 0
M  V30 68 H 43.037798 33.426145 67.782672 0
M  V30 69 H 42.909319 31.768763 68.261120 0
M  V30 70 H 43.169509 27.702829 66.296003 0
M  V30 71 H 44.480789 27.725133 65.160717 0
M  V30 72 H 39.538379 33.001991 59.296005 0
M  V30 73 H 37.784897 33.135275 59.470000 0
M  V30 74 H 38.964105 34.789573 62.803903 0
M  V30 75 H 40.381613 34.248815 61.916890 0
M  V30 76 H 38.786721 34.271726 61.142430 0
M  V30 77 H 38.238195 32.377944 54.930402 0
M  V30 78 H 37.034249 31.138631 55.147968 0
M  V30 79 H 43.148412 29.351632 68.229276 0
M  V30 80 H 46.655412 28.022960 68.011983 0
M  V30 81 H 40.384488 32.084650 61.081709 0
M  V30 82 H 37.937760 28.515523 55.170449 0
M  V30 83 H 39.640347 28.279235 54.890195 0
M  V30 84 H 43.003177 24.848725 69.177660 0
M  V30 85 H 41.946363 30.264367 66.692310 0
M  V30 86 H 40.185316 29.350661 57.057803 0
M  V30 87 H 39.049559 28.050214 57.303894 0
M  V30 88 H 44.373917 30.090535 64.891301 0
M  V30 89 H 45.466214 29.173098 66.748664 0
M  V30 END ATOM
M  V30 BEGIN BOND
M  V30 1 2 7 3
M  V30 2 1 8 6
M  V30 3 1 14 12
M  V30 4 1 16 2
M  V30 5 1 17 12
M  V30 6 1 20 9
M  V30 7 1 21 15
M  V30 8 2 21 18
M  V30 9 1 22 2
M  V30 10 1 22 19
M  V30 11 1 24 14
M  V30 12 1 25 1
M  V30 13 1 25 13
M  V30 14 1 26 23
M  V30 15 1 27 16
M  V30 16 1 28 9
M  V30 17 1 29 5
M  V30 18 1 29 8
M  V30 19 1 29 27
M  V30 20 1 30 7
M  V30 21 2 30 8
M  V30 22 1 31 15
M  V30 23 1 31 23
M  V30 24 1 32 9
M  V30 25 1 33 3
M  V30 26 1 33 4 CFG=1
M  V30 27 1 33 10
M  V30 28 1 34 3
M  V30 29 2 34 6
M  V30 30 1 35 19
M  V30 31 1 36 11
M  V30 32 1 36 32
M  V30 33 1 37 13
M  V30 34 1 37 31
M  V30 35 1 38 11
M  V30 36 2 38 13
M  V30 37 2 39 1
M  V30 38 1 39 11
M  V30 39 1 39 28
M  V30 40 1 40 24
M  V30 41 1 40 27
M  V30 42 1 40 35
M  V30 43 1 41 12
M  V30 44 1 41 21
M  V30 45 1 41 35
M  V30 46 1 42 10
M  V30 47 1 42 33
M  V30 48 1 43 1
M  V30 49 1 44 2
M  V30 50 1 45 2
M  V30 51 1 46 4
M  V30 52 1 47 4
M  V30 53 1 48 4
M  V30 54 1 49 6
M  V30 55 1 50 7
M  V30 56 1 9 51 CFG=3
M  V30 57 1 52 10
M  V30 58 1 53 10
M  V30 59 1 11 54 CFG=1
M  V30 60 1 12 55 CFG=3
M  V30 61 1 56 14
M  V30 62 1 57 14
M  V30 63 1 58 15
M  V30 64 1 59 15
M  V30 65 1 60 16
M  V30 66 1 61 16
M  V30 67 1 62 17
M  V30 68 1 63 17
M  V30 69 1 64 17
M  V30 70 1 65 19
M  V30 71 1 66 19
M  V30 72 1 67 20
M  V30 73 1 68 22
M  V30 74 1 69 22
M  V30 75 1 70 24
M  V30 76 1 71 24
M  V30 77 1 72 25
M  V30 78 1 73 25
M  V30 79 1 74 26
M  V30 80 1 75 26
M  V30 81 1 76 26
M  V30 82 1 77 28
M  V30 83 1 78 28
M  V30 84 1 29 79 CFG=1
M  V30 85 1 80 30
M  V30 86 1 31 81 CFG=3
M  V30 87 1 82 32
M  V30 88 1 83 32
M  V30 89 1 84 34
M  V30 90 1 35 85 CFG=1
M  V30 91 1 86 36
M  V30 92 1 87 36
M  V30 93 1 40 88 CFG=3
M  V30 94 1 27 89 CFG=3
M  V30 END BOND
M  V30 END CTAB
M  END
>  <i_epik_Tot_Q>  (1) 
0

>  <i_epik_Tot_abs_Q>  (1) 
2

>  <i_i_glide_confnum>  (1) 
301

>  <i_i_glide_lignum>  (1) 
93

>  <i_i_glide_posenum>  (1) 
270

>  <i_i_glide_rotatable_bonds>  (1) 
10

>  <i_lp_mmshare_version>  (1) 
72125

>  <i_m_source_file_index>  (1) 
43

>  <i_f3d_flags>  (1) 
0

>  <num_sample>  (1) 
100

>  <b_lp_Chiralities_Consistent>  (1) 
1

>  <r_epik_Charging_Adjusted_Penalty>  (1) 
0.10762157237222084

>  <r_epik_Ionization_Penalty>  (1) 
0.015049648649627746

>  <r_epik_Ionization_Penalty_Charging>  (1) 
0.014590701191951229

>  <r_epik_Ionization_Penalty_Neutral>  (1) 
0.0004589474576765184

>  <r_epik_State_Penalty>  (1) 
0.093030871180269606

>  <r_glide_ring_energy>  (1) 
0

>  <r_i_docking_score>  (1) 
-6.0064133591887261

>  <r_i_glide_ecoul>  (1) 
-4.647472651484323

>  <r_i_glide_eff_state_penalty>  (1) 
0.093030871180269606

>  <r_i_glide_einternal>  (1) 
14.123939467156653

>  <r_i_glide_emodel>  (1) 
-56.129214468103001

>  <r_i_glide_emodel_strain>  (1) 
1.1848196420451131

>  <r_i_glide_energy>  (1) 
-50.925546605727263

>  <r_i_glide_erotb>  (1) 
0.39316795176799535

>  <r_i_glide_esite>  (1) 
-0.018438926564043594

>  <r_i_glide_evdw>  (1) 
-46.278073954242942

>  <r_i_glide_gscore>  (1) 
-6.099444230368996

>  <r_i_glide_gscore_strain>  (1) 
0

>  <r_i_glide_hbond>  (1) 
0

>  <r_i_glide_ligand_efficiency>  (1) 
-0.14300984188544585

>  <r_i_glide_ligand_efficiency_ln>  (1) 
-1.2677991171037104

>  <r_i_glide_ligand_efficiency_sa>  (1) 
-0.49710602087480815

>  <r_i_glide_lipo>  (1) 
-2.6546423106668979

>  <r_i_glide_metal>  (1) 
-0

>  <r_i_glide_rewards>  (1) 
-0.80850634947125499

>  <r_lp_Energy>  (1) 
80.091357000000002

>  <s_epik_Chemistry_Notes>  (1) 
This compound has an imine and may undergo hydrolysis. This compound contains an acetal/aminal-like group ( X-CH(R)-Y where X, Y are N, S, or O) that may be acid/base labile, releasing an aldehyde.

>  <s_epik_cmdline>  (1) 
J2VwaWtfcHl0aG9uJywgJy1waHQnLCAnMS4wJywgJy1waCcsICc3LjQnLCAnLXRuJywgJzgnLCAnLW1hJywgJzUwMCcsICctaW1hZScsICc8aW5maWxlLm1hZT4nLCAnLW9tYWUnLCAnPG91dGZpbGUubWFlPic=

>  <s_epik_input>  (1) 
W0NIMl0xW0NIMl1bQ0BIXShbT0hdKVtDSDJdQyhbQ0BASF0xMik9W0NIXVtDSDJdQyg9TjIpT1tDQEBIXShPW0NIM10pW0NIMl1DKD1PKU4zW0NASF0oW0NIM10pW0NIMl1bQ0gyXVtDQEBIXShbQ0BIXTM0KU4oW0NIMl1bQ0gyXVtDSDJdW0NIMl00KVtDQEhdKFtPSF0pYyhbY0hdW2NIXTUpW2NIXVtjSF1jNUM2KFtDSDNdKVtDSDJdTzY=

>  <s_glide_docking_method>  (1) 
confgen

>  <s_i_glide_gridfile>  (1) 
gpcr_5ht2c_6bqh_protein_autoprepared_prepared

>  <s_lp_Force_Field>  (1) 
S-OPLS

>  <s_lp_Variant>  (1) 
DiffSBDD_42-2

>  <s_m_source_file>  (1) 
generated_GPCR_5HT2C_ligand_DiffSBDD_2026-06-23_prepared.sdf

>  <GenAI_Model>  (1) 
DiffSBDD

>  <Protein>  (1) 
GPCR_5HT2C

$$$$
DiffSBDD_0
     RDKit          3D

  0  0  0  0  0  0  0  0  0  0999 V3000
M  V30 BEGIN CTAB
M  V30 COUNTS 61 60 0 0 1
M  V30 BEGIN ATOM
M  V30 1 C 40.449055 33.041103 62.043705 0
M  V30 2 C 35.779424 32.330951 60.034313 0
M  V30 3 C 38.299897 25.636225 56.580965 0 CFG=1
M  V30 4 C 38.125730 32.435328 57.387126 0
M  V30 5 C 37.294479 32.153207 59.804891 0 CFG=1
M  V30 6 C 38.589370 29.069016 55.326946 0
M  V30 7 C 39.208635 25.163041 55.429121 0
M  V30 8 C 38.436839 30.602014 55.549297 0 CFG=2
M  V30 9 C 41.856990 32.427048 62.057284 0
M  V30 10 C 37.688659 32.957325 58.561777 0
M  V30 11 C 38.311306 30.936833 57.076885 0 CFG=2
M  V30 12 C 38.086202 32.586056 61.062307 0 CFG=1
M  V30 13 O 37.706064 31.751966 62.143788 0
M  V30 14 C 39.784874 26.261364 54.511299 0
M  V30 15 C 38.717640 27.039023 53.703427 0
M  V30 16 O 37.245297 30.150193 57.572796 0
M  V30 17 C 39.611219 32.440780 60.896732 0
M  V30 18 O 37.651838 24.509220 57.129362 0
M  V30 19 C 38.727381 28.575665 53.869427 0
M  V30 20 C 40.518096 34.575463 61.954877 0
M  V30 21 C 39.047001 26.318519 57.730654 0
M  V30 22 O 37.245149 31.019639 54.916383 0
M  V30 23 C 39.614324 31.350170 54.882815 0
M  V30 24 H 39.982180 32.781594 62.994637 0
M  V30 25 H 35.208134 31.979535 59.177872 0
M  V30 26 H 35.426863 31.769388 60.898607 0
M  V30 27 H 35.515486 33.378494 60.191766 0
M  V30 28 H 37.521621 26.296483 56.201175 0
M  V30 29 H 38.368313 33.113818 56.588595 0
M  V30 30 H 37.507334 31.098122 59.677458 0
M  V30 31 H 37.744160 28.539004 55.762437 0
M  V30 32 H 39.470999 28.760819 55.882674 0
M  V30 33 H 40.033786 24.589812 55.850313 0
M  V30 34 H 38.645749 24.466453 54.808680 0
M  V30 35 H 42.382031 32.601743 61.118288 0
M  V30 36 H 42.459500 32.842947 62.864876 0
M  V30 37 H 41.806477 31.348980 62.212530 0
M  V30 38 H 37.601435 34.031515 58.650147 0
M  V30 39 H 39.231125 30.615571 57.566389 0
M  V30 40 H 37.833053 33.615503 61.318976 0
M  V30 41 H 38.051414 30.884295 61.986073 0
M  V30 42 H 40.436081 26.928954 55.074650 0
M  V30 43 H 40.454483 25.769574 53.802608 0
M  V30 44 H 38.863322 26.815729 52.646389 0
M  V30 45 H 37.720452 26.655294 53.913846 0
M  V30 46 H 36.445176 30.646701 57.387404 0
M  V30 47 H 39.848488 31.382505 60.782126 0
M  V30 48 H 39.926058 32.914799 59.969425 0
M  V30 49 H 38.301851 23.946475 57.521801 0
M  V30 50 H 39.636503 28.968357 53.420635 0
M  V30 51 H 37.904639 28.983555 53.280829 0
M  V30 52 H 40.948693 34.901505 61.007539 0
M  V30 53 H 39.528498 35.024598 62.039633 0
M  V30 54 H 41.129351 34.991505 62.756286 0
M  V30 55 H 39.595739 27.190339 57.388653 0
M  V30 56 H 38.349669 26.656786 58.497470 0
M  V30 57 H 39.766434 25.647471 58.199123 0
M  V30 58 H 36.650639 31.360338 55.579396 0
M  V30 59 H 40.570210 31.044956 55.303382 0
M  V30 60 H 39.663127 31.177978 53.807653 0
M  V30 61 H 39.545875 32.427997 54.995030 0
M  V30 END ATOM
M  V30 BEGIN BOND
M  V30 1 1 5 2
M  V30 2 1 7 3
M  V30 3 1 8 6
M  V30 4 1 9 1
M  V30 5 2 10 4
M  V30 6 1 10 5
M  V30 7 1 11 4
M  V30 8 1 11 8
M  V30 9 1 12 5
M  V30 10 1 13 12
M  V30 11 1 14 7
M  V30 12 1 15 14
M  V30 13 1 16 11
M  V30 14 1 17 1
M  V30 15 1 17 12
M  V30 16 1 18 3
M  V30 17 1 19 6
M  V30 18 1 19 15
M  V30 19 1 20 1
M  V30 20 1 21 3
M  V30 21 1 8 22 CFG=3
M  V30 22 1 23 8
M  V30 23 1 24 1
M  V30 24 1 25 2
M  V30 25 1 26 2
M  V30 26 1 27 2
M  V30 27 1 3 28 CFG=3
M  V30 28 1 29 4
M  V30 29 1 5 30 CFG=3
M  V30 30 1 31 6
M  V30 31 1 32 6
M  V30 32 1 33 7
M  V30 33 1 34 7
M  V30 34 1 35 9
M  V30 35 1 36 9
M  V30 36 1 37 9
M  V30 37 1 38 10
M  V30 38 1 11 39 CFG=1
M  V30 39 1 12 40 CFG=1
M  V30 40 1 41 13
M  V30 41 1 42 14
M  V30 42 1 43 14
M  V30 43 1 44 15
M  V30 44 1 45 15
M  V30 45 1 46 16
M  V30 46 1 47 17
M  V30 47 1 48 17
M  V30 48 1 49 18
M  V30 49 1 50 19
M  V30 50 1 51 19
M  V30 51 1 52 20
M  V30 52 1 53 20
M  V30 53 1 54 20
M  V30 54 1 55 21
M  V30 55 1 56 21
M  V30 56 1 57 21
M  V30 57 1 58 22
M  V30 58 1 59 23
M  V30 59 1 60 23
M  V30 60 1 61 23
M  V30 END BOND
M  V30 END CTAB
M  END
>  <i_epik_Tot_Q>  (1) 
0

>  <i_epik_Tot_abs_Q>  (1) 
0

>  <i_i_glide_confnum>  (1) 
1945

>  <i_i_glide_lignum>  (1) 
2

>  <i_i_glide_posenum>  (1) 
221

>  <i_i_glide_rotatable_bonds>  (1) 
16

>  <i_lp_mmshare_version>  (1) 
72125

>  <i_m_source_file_index>  (1) 
1

>  <i_f3d_flags>  (1) 
0

>  <num_sample>  (1) 
100

>  <b_lp_Chiralities_Consistent>  (1) 
1

>  <r_epik_Charging_Adjusted_Penalty>  (1) 
0

>  <r_epik_Ionization_Penalty>  (1) 
5.9169763795933225e-07

>  <r_epik_Ionization_Penalty_Charging>  (1) 
0

>  <r_epik_Ionization_Penalty_Neutral>  (1) 
5.9169763795933225e-07

>  <r_epik_State_Penalty>  (1) 
-0

>  <r_glide_ring_energy>  (1) 
0

>  <r_i_docking_score>  (1) 
-6.0058916624780876

>  <r_i_glide_ecoul>  (1) 
-9.0056124171789254

>  <r_i_glide_eff_state_penalty>  (1) 
-0

>  <r_i_glide_einternal>  (1) 
12.147855679793484

>  <r_i_glide_emodel>  (1) 
-45.772821890863433

>  <r_i_glide_emodel_strain>  (1) 
3.1421784570644462

>  <r_i_glide_energy>  (1) 
-41.625993302962563

>  <r_i_glide_erotb>  (1) 
1.894024340436764

>  <r_i_glide_esite>  (1) 
0

>  <r_i_glide_evdw>  (1) 
-32.620380885783639

>  <r_i_glide_gscore>  (1) 
-6.0058916624780876

>  <r_i_glide_gscore_strain>  (1) 
0

>  <r_i_glide_hbond>  (1) 
-0.4986314256494459

>  <r_i_glide_ligand_efficiency>  (1) 
-0.26112572445556903

>  <r_i_glide_ligand_efficiency_ln>  (1) 
-1.4522790624019053

>  <r_i_glide_ligand_efficiency_sa>  (1) 
-0.74260682536901124

>  <r_i_glide_lipo>  (1) 
-3.0142044781650044

>  <r_i_glide_metal>  (1) 
-0

>  <r_i_glide_rewards>  (1) 
-1.4052191922343809

>  <r_lp_Energy>  (1) 
14.425478999999999

>  <r_lp_tautomer_probability>  (1) 
1

>  <s_epik_cmdline>  (1) 
J2VwaWtfcHl0aG9uJywgJy1waHQnLCAnMS4wJywgJy1waCcsICc3LjQnLCAnLXRuJywgJzgnLCAnLW1hJywgJzUwMCcsICctaW1hZScsICc8aW5maWxlLm1hZT4nLCAnLW9tYWUnLCAnPG91dGZpbGUubWFlPic=

>  <s_epik_input>  (1) 
W0NIM11bQ0hdKFtDSDNdKVtDSDJdW0NASF0oW09IXSlbQ0BASF0oW0NIM10pL1tDSF09W0NIXVxbQ0BASF0oW09IXSlbQ0BAXShbT0hdKShbQ0gzXSlbQ0gyXVtDSDJdW0NIMl1bQ0gyXVtDSDJdW0NAQEhdKFtPSF0pW0NIM10=

>  <s_glide_docking_method>  (1) 
confgen

>  <s_i_glide_gridfile>  (1) 
gpcr_5ht2c_6bqh_protein_autoprepared_prepared

>  <s_lp_Force_Field>  (1) 
S-OPLS

>  <s_lp_Variant>  (1) 
DiffSBDD_0-2

>  <s_m_source_file>  (1) 
generated_GPCR_5HT2C_ligand_DiffSBDD_2026-06-23_prepared.sdf

>  <GenAI_Model>  (1) 
DiffSBDD

>  <Protein>  (1) 
GPCR_5HT2C

$$$$
DiffSBDD_81
     RDKit          3D

  0  0  0  0  0  0  0  0  0  0999 V3000
M  V30 BEGIN CTAB
M  V30 COUNTS 67 68 0 0 1
M  V30 BEGIN ATOM
M  V30 1 C 38.966197 24.702024 57.254864 0
M  V30 2 C 38.580327 31.492956 56.355824 0
M  V30 3 C 39.922311 32.914412 62.052028 0 CFG=2
M  V30 4 C 38.301022 27.771383 53.533119 0
M  V30 5 C 38.508357 34.590384 61.050988 0
M  V30 6 C 37.834576 26.619882 54.417044 0
M  V30 7 C 39.669717 34.419959 62.021297 0
M  V30 8 C 38.565779 32.976215 56.764489 0
M  V30 9 C 39.293636 31.292300 55.008453 0
M  V30 10 C 38.124222 29.172643 54.116168 0
M  V30 11 C 38.586506 32.689171 59.330792 0
M  V30 12 C 39.316367 28.640538 51.363443 0
M  V30 13 C 36.513753 32.989507 60.870593 0
M  V30 14 C 39.441838 29.825718 54.573592 0
M  V30 15 O 38.653109 32.372049 61.723922 0
M  V30 16 O 38.488786 24.875022 55.932817 0
M  V30 17 C 38.831465 27.552838 52.308352 0
M  V30 18 C 40.628422 30.865837 63.406710 0
M  V30 19 C 40.389807 32.380615 63.412151 0
M  V30 20 C 38.042388 33.160763 60.705848 0 CFG=2
M  V30 21 C 36.009370 31.550689 60.677876 0
M  V30 22 C 38.864157 27.030684 56.777087 0
M  V30 23 C 37.871691 33.285045 58.103891 0
M  V30 24 C 38.846024 26.181876 55.492910 0 CFG=2
M  V30 25 C 38.616270 26.034555 57.897994 0
M  V30 26 H 38.489296 23.855044 57.749479 0
M  V30 27 H 40.045127 24.538252 57.242467 0
M  V30 28 H 37.558874 31.119171 56.295644 0
M  V30 29 H 39.084056 30.900935 57.119714 0
M  V30 30 H 40.643310 32.642890 61.279696 0
M  V30 31 H 38.814175 35.149425 60.167755 0
M  V30 32 H 37.715269 35.167471 61.528117 0
M  V30 33 H 36.867776 26.853500 54.862272 0
M  V30 34 H 37.646294 25.764115 53.767781 0
M  V30 35 H 39.373999 34.784661 63.004545 0
M  V30 36 H 40.556309 34.976328 61.715198 0
M  V30 37 H 39.591554 33.337712 56.799209 0
M  V30 38 H 38.067178 33.549422 55.981245 0
M  V30 39 H 40.292022 31.724770 55.080696 0
M  V30 40 H 38.779141 31.856393 54.229072 0
M  V30 41 H 37.645154 29.799840 53.368193 0
M  V30 42 H 37.415367 29.136790 54.943210 0
M  V30 43 H 38.530232 31.601738 59.281633 0
M  V30 44 H 39.645063 32.937761 59.260826 0
M  V30 45 H 38.844943 28.513447 50.388824 0
M  V30 46 H 39.106390 29.653706 51.697926 0
M  V30 47 H 40.393857 28.549826 51.224852 0
M  V30 48 H 36.227720 33.321334 61.868724 0
M  V30 49 H 35.985935 33.650142 60.181997 0
M  V30 50 H 39.905385 29.247065 55.370475 0
M  V30 51 H 40.146436 29.807321 53.745118 0
M  V30 52 H 38.930458 26.538885 51.951136 0
M  V30 53 H 40.966858 30.521697 64.384219 0
M  V30 54 H 39.712597 30.323910 63.166992 0
M  V30 55 H 41.385294 30.587607 62.673765 0
M  V30 56 H 41.309940 32.887783 63.704087 0
M  V30 57 H 39.646702 32.622228 64.170617 0
M  V30 58 H 34.947239 31.480351 60.911317 0
M  V30 59 H 36.138115 31.215132 59.648349 0
M  V30 60 H 36.541238 30.854699 61.325347 0
M  V30 61 H 39.839516 27.502080 56.900092 0
M  V30 62 H 38.110144 27.818029 56.783005 0
M  V30 63 H 37.788858 34.364531 58.213696 0
M  V30 64 H 36.845133 32.937123 58.070511 0
M  V30 65 H 39.850721 26.123433 55.070168 0
M  V30 66 H 37.559931 26.042621 58.167738 0
M  V30 67 H 39.199588 26.241907 58.795513 0
M  V30 END ATOM
M  V30 BEGIN BOND
M  V30 1 1 6 4
M  V30 2 1 7 3
M  V30 3 1 7 5
M  V30 4 1 8 2
M  V30 5 1 9 2
M  V30 6 1 10 4
M  V30 7 1 14 9
M  V30 8 1 14 10
M  V30 9 1 15 3
M  V30 10 1 16 1
M  V30 11 2 17 4
M  V30 12 1 17 12
M  V30 13 1 19 3
M  V30 14 1 19 18
M  V30 15 1 20 5
M  V30 16 1 20 11 CFG=3
M  V30 17 1 20 13
M  V30 18 1 20 15
M  V30 19 1 21 13
M  V30 20 1 23 8
M  V30 21 1 23 11
M  V30 22 1 24 6
M  V30 23 1 24 16
M  V30 24 1 24 22
M  V30 25 1 25 1
M  V30 26 1 25 22
M  V30 27 1 26 1
M  V30 28 1 27 1
M  V30 29 1 28 2
M  V30 30 1 29 2
M  V30 31 1 3 30 CFG=3
M  V30 32 1 31 5
M  V30 33 1 32 5
M  V30 34 1 33 6
M  V30 35 1 34 6
M  V30 36 1 35 7
M  V30 37 1 36 7
M  V30 38 1 37 8
M  V30 39 1 38 8
M  V30 40 1 39 9
M  V30 41 1 40 9
M  V30 42 1 41 10
M  V30 43 1 42 10
M  V30 44 1 43 11
M  V30 45 1 44 11
M  V30 46 1 45 12
M  V30 47 1 46 12
M  V30 48 1 47 12
M  V30 49 1 48 13
M  V30 50 1 49 13
M  V30 51 1 50 14
M  V30 52 1 51 14
M  V30 53 1 52 17
M  V30 54 1 53 18
M  V30 55 1 54 18
M  V30 56 1 55 18
M  V30 57 1 56 19
M  V30 58 1 57 19
M  V30 59 1 58 21
M  V30 60 1 59 21
M  V30 61 1 60 21
M  V30 62 1 61 22
M  V30 63 1 62 22
M  V30 64 1 63 23
M  V30 65 1 64 23
M  V30 66 1 24 65 CFG=3
M  V30 67 1 66 25
M  V30 68 1 67 25
M  V30 END BOND
M  V30 END CTAB
M  END
>  <i_epik_Tot_Q>  (1) 
0

>  <i_epik_Tot_abs_Q>  (1) 
0

>  <i_i_glide_confnum>  (1) 
708

>  <i_i_glide_lignum>  (1) 
187

>  <i_i_glide_posenum>  (1) 
391

>  <i_i_glide_rotatable_bonds>  (1) 
12

>  <i_lp_mmshare_version>  (1) 
72125

>  <i_m_source_file_index>  (1) 
82

>  <i_f3d_flags>  (1) 
0

>  <num_sample>  (1) 
100

>  <b_lp_Chiralities_Consistent>  (1) 
1

>  <r_epik_Charging_Adjusted_Penalty>  (1) 
0

>  <r_epik_Ionization_Penalty>  (1) 
4.3050601408714213e-11

>  <r_epik_Ionization_Penalty_Charging>  (1) 
0

>  <r_epik_Ionization_Penalty_Neutral>  (1) 
4.3050601408714213e-11

>  <r_epik_State_Penalty>  (1) 
-0

>  <r_glide_ring_energy>  (1) 
0

>  <r_i_docking_score>  (1) 
-6.0018979310439864

>  <r_i_glide_ecoul>  (1) 
-0.28465732546522005

>  <r_i_glide_eff_state_penalty>  (1) 
-0

>  <r_i_glide_einternal>  (1) 
5.9162916960238165

>  <r_i_glide_emodel>  (1) 
-46.286215548132951

>  <r_i_glide_emodel_strain>  (1) 
0.72541451381216859

>  <r_i_glide_energy>  (1) 
-37.304104424467511

>  <r_i_glide_erotb>  (1) 
1.3958139752623098

>  <r_i_glide_esite>  (1) 
0

>  <r_i_glide_evdw>  (1) 
-37.019447099002292

>  <r_i_glide_gscore>  (1) 
-6.0018979310439864

>  <r_i_glide_gscore_strain>  (1) 
0

>  <r_i_glide_hbond>  (1) 
0

>  <r_i_glide_ligand_efficiency>  (1) 
-0.24007591724175945

>  <r_i_glide_ligand_efficiency_ln>  (1) 
-1.422629672024416

>  <r_i_glide_ligand_efficiency_sa>  (1) 
-0.7019862405326287

>  <r_i_glide_lipo>  (1) 
-3.9652103285242539

>  <r_i_glide_metal>  (1) 
-0

>  <r_i_glide_rewards>  (1) 
-1.5388306240121454

>  <r_lp_Energy>  (1) 
1.9057109999999999

>  <r_lp_tautomer_probability>  (1) 
1

>  <s_epik_cmdline>  (1) 
J2VwaWtfcHl0aG9uJywgJy1waHQnLCAnMS4wJywgJy1waCcsICc3LjQnLCAnLXRuJywgJzgnLCAnLW1hJywgJzUwMCcsICctaW1hZScsICc8aW5maWxlLm1hZT4nLCAnLW9tYWUnLCAnPG91dGZpbGUubWFlPic=

>  <s_epik_input>  (1) 
W0NIMl0xW0NIMl1bQ0gyXU9bQ0BIXTFbQ0gyXS9DKD1bQ0hdL1tDSDNdKVtDSDJdW0NIMl1bQ0gyXVtDSDJdW0NIMl1bQ0gyXVtDSDJdW0NAXTIoW0NIMl1bQ0gzXSlbQ0gyXVtDSDJdW0NASF0oTzIpW0NIMl1bQ0gzXQ==

>  <s_glide_docking_method>  (1) 
confgen

>  <s_i_glide_gridfile>  (1) 
gpcr_5ht2c_6bqh_protein_autoprepared_prepared

>  <s_lp_Force_Field>  (1) 
S-OPLS

>  <s_lp_Variant>  (1) 
DiffSBDD_81-1

>  <s_m_source_file>  (1) 
generated_GPCR_5HT2C_ligand_DiffSBDD_2026-06-23_prepared.sdf

>  <GenAI_Model>  (1) 
DiffSBDD

>  <Protein>  (1) 
GPCR_5HT2C

$$$$
DiffSBDD_0
     RDKit          3D

  0  0  0  0  0  0  0  0  0  0999 V3000
M  V30 BEGIN CTAB
M  V30 COUNTS 61 60 0 0 1
M  V30 BEGIN ATOM
M  V30 1 C 40.300187 29.338603 51.497306 0
M  V30 2 C 37.813853 26.364680 54.966662 0
M  V30 3 C 37.705470 37.049257 60.618833 0 CFG=1
M  V30 4 C 37.827265 29.688660 56.094135 0
M  V30 5 C 37.997236 27.795557 54.432299 0 CFG=1
M  V30 6 C 38.380354 31.103630 59.786996 0
M  V30 7 C 37.601512 35.527214 60.832446 0
M  V30 8 C 37.857671 30.217107 58.612081 0 CFG=2
M  V30 9 C 39.866591 28.623966 50.211227 0
M  V30 10 C 38.536293 28.697259 55.527507 0
M  V30 11 C 38.359355 30.601508 57.184509 0 CFG=2
M  V30 12 C 38.870378 27.819807 53.150772 0 CFG=1
M  V30 13 O 38.046298 27.337928 52.117056 0
M  V30 14 C 36.825742 34.778967 59.727717 0
M  V30 15 C 36.862455 33.239289 59.848697 0
M  V30 16 O 38.045119 31.929960 56.823871 0
M  V30 17 C 39.336142 29.226016 52.715391 0
M  V30 18 O 36.445005 37.656256 60.809487 0
M  V30 19 C 38.280124 32.645745 59.739577 0
M  V30 20 C 40.562525 30.817768 51.198639 0
M  V30 21 C 38.688475 37.702621 61.598750 0
M  V30 22 O 36.443617 30.138158 58.622738 0
M  V30 23 C 38.307605 28.775231 58.931260 0
M  V30 24 H 41.249625 28.890573 51.767617 0
M  V30 25 H 37.199910 26.359691 55.867277 0
M  V30 26 H 37.319686 25.721528 54.238817 0
M  V30 27 H 38.770326 25.905221 55.218584 0
M  V30 28 H 38.044362 37.246591 59.600372 0
M  V30 29 H 36.812877 29.869757 55.770854 0
M  V30 30 H 37.008066 28.181309 54.175888 0
M  V30 31 H 39.440526 30.880723 59.911740 0
M  V30 32 H 37.916085 30.767212 60.716150 0
M  V30 33 H 38.619773 35.144086 60.866394 0
M  V30 34 H 37.162134 35.313028 61.807329 0
M  V30 35 H 38.840176 28.857222 49.980571 0
M  V30 36 H 40.445165 28.940345 49.345426 0
M  V30 37 H 39.963063 27.541044 50.296771 0
M  V30 38 H 39.551705 28.512907 55.851335 0
M  V30 39 H 39.446923 30.531805 57.180701 0
M  V30 40 H 39.732325 27.161182 53.264798 0
M  V30 41 H 37.600658 26.548300 52.391090 0
M  V30 42 H 35.784469 35.105442 59.743471 0
M  V30 43 H 37.215889 35.065636 58.750520 0
M  V30 44 H 36.404745 32.928553 60.788198 0
M  V30 45 H 36.235078 32.824011 59.060610 0
M  V30 46 H 37.092245 32.027749 56.795613 0
M  V30 47 H 38.444581 29.822518 52.566566 0
M  V30 48 H 39.850820 29.705938 53.547535 0
M  V30 49 H 36.448572 38.527281 60.434791 0
M  V30 50 H 38.802247 33.049681 58.872798 0
M  V30 51 H 38.854239 33.001606 60.593943 0
M  V30 52 H 39.677015 31.310781 50.795872 0
M  V30 53 H 40.845061 31.340179 52.109619 0
M  V30 54 H 41.374792 30.940375 50.480272 0
M  V30 55 H 39.673225 37.238507 61.544187 0
M  V30 56 H 38.815973 38.760541 61.367861 0
M  V30 57 H 38.346305 37.608716 62.629812 0
M  V30 58 H 36.077129 30.819158 58.053836 0
M  V30 59 H 39.389258 28.671162 58.842452 0
M  V30 60 H 38.044934 28.488743 59.947789 0
M  V30 61 H 37.848804 28.044632 58.263966 0
M  V30 END ATOM
M  V30 BEGIN BOND
M  V30 1 1 5 2
M  V30 2 1 7 3
M  V30 3 1 8 6
M  V30 4 1 9 1
M  V30 5 2 10 4
M  V30 6 1 10 5
M  V30 7 1 11 4
M  V30 8 1 11 8
M  V30 9 1 12 5
M  V30 10 1 13 12
M  V30 11 1 14 7
M  V30 12 1 15 14
M  V30 13 1 16 11
M  V30 14 1 17 1
M  V30 15 1 17 12
M  V30 16 1 18 3
M  V30 17 1 19 6
M  V30 18 1 19 15
M  V30 19 1 20 1
M  V30 20 1 21 3
M  V30 21 1 8 22 CFG=3
M  V30 22 1 23 8
M  V30 23 1 24 1
M  V30 24 1 25 2
M  V30 25 1 26 2
M  V30 26 1 27 2
M  V30 27 1 3 28 CFG=3
M  V30 28 1 29 4
M  V30 29 1 5 30 CFG=3
M  V30 30 1 31 6
M  V30 31 1 32 6
M  V30 32 1 33 7
M  V30 33 1 34 7
M  V30 34 1 35 9
M  V30 35 1 36 9
M  V30 36 1 37 9
M  V30 37 1 38 10
M  V30 38 1 11 39 CFG=1
M  V30 39 1 12 40 CFG=1
M  V30 40 1 41 13
M  V30 41 1 42 14
M  V30 42 1 43 14
M  V30 43 1 44 15
M  V30 44 1 45 15
M  V30 45 1 46 16
M  V30 46 1 47 17
M  V30 47 1 48 17
M  V30 48 1 49 18
M  V30 49 1 50 19
M  V30 50 1 51 19
M  V30 51 1 52 20
M  V30 52 1 53 20
M  V30 53 1 54 20
M  V30 54 1 55 21
M  V30 55 1 56 21
M  V30 56 1 57 21
M  V30 57 1 58 22
M  V30 58 1 59 23
M  V30 59 1 60 23
M  V30 60 1 61 23
M  V30 END BOND
M  V30 END CTAB
M  END
>  <i_epik_Tot_Q>  (1) 
0

>  <i_epik_Tot_abs_Q>  (1) 
0

>  <i_i_glide_confnum>  (1) 
1681

>  <i_i_glide_lignum>  (1) 
1

>  <i_i_glide_posenum>  (1) 
24

>  <i_i_glide_rotatable_bonds>  (1) 
16

>  <i_lp_mmshare_version>  (1) 
72125

>  <i_m_source_file_index>  (1) 
1

>  <i_f3d_flags>  (1) 
0

>  <num_sample>  (1) 
100

>  <b_lp_Chiralities_Consistent>  (1) 
1

>  <r_epik_Charging_Adjusted_Penalty>  (1) 
0

>  <r_epik_Ionization_Penalty>  (1) 
5.9169763795933225e-07

>  <r_epik_Ionization_Penalty_Charging>  (1) 
0

>  <r_epik_Ionization_Penalty_Neutral>  (1) 
5.9169763795933225e-07

>  <r_epik_State_Penalty>  (1) 
-0

>  <r_glide_ring_energy>  (1) 
0

>  <r_i_docking_score>  (1) 
-6.0017896268684554

>  <r_i_glide_ecoul>  (1) 
-10.263257196558827

>  <r_i_glide_eff_state_penalty>  (1) 
-0

>  <r_i_glide_einternal>  (1) 
6.1648990513589794

>  <r_i_glide_emodel>  (1) 
-48.63935392409838

>  <r_i_glide_emodel_strain>  (1) 
0.61102491538533599

>  <r_i_glide_energy>  (1) 
-40.207656156621439

>  <r_i_glide_erotb>  (1) 
1.894024340436764

>  <r_i_glide_esite>  (1) 
0

>  <r_i_glide_evdw>  (1) 
-29.944398960062614

>  <r_i_glide_gscore>  (1) 
-6.0017896268684554

>  <r_i_glide_gscore_strain>  (1) 
0

>  <r_i_glide_hbond>  (1) 
-0.56488270413772934

>  <r_i_glide_ligand_efficiency>  (1) 
-0.26094737508123717

>  <r_i_glide_ligand_efficiency_ln>  (1) 
-1.4512871529962936

>  <r_i_glide_ligand_efficiency_sa>  (1) 
-0.74209962347247171

>  <r_i_glide_lipo>  (1) 
-2.7602049450718886

>  <r_i_glide_metal>  (1) 
-0

>  <r_i_glide_rewards>  (1) 
-1.5340177906086476

>  <r_lp_Energy>  (1) 
8.761194999999999

>  <r_lp_tautomer_probability>  (1) 
1

>  <s_epik_cmdline>  (1) 
J2VwaWtfcHl0aG9uJywgJy1waHQnLCAnMS4wJywgJy1waCcsICc3LjQnLCAnLXRuJywgJzgnLCAnLW1hJywgJzUwMCcsICctaW1hZScsICc8aW5maWxlLm1hZT4nLCAnLW9tYWUnLCAnPG91dGZpbGUubWFlPic=

>  <s_epik_input>  (1) 
W0NIM11bQ0hdKFtDSDNdKVtDSDJdW0NASF0oW09IXSlbQ0BASF0oW0NIM10pXFtDSF09W0NIXVxbQ0BASF0oW09IXSlbQ0BAXShbT0hdKShbQ0gzXSlbQ0gyXVtDSDJdW0NIMl1bQ0gyXVtDSDJdW0NAQEhdKFtPSF0pW0NIM10=

>  <s_glide_docking_method>  (1) 
confgen

>  <s_i_glide_gridfile>  (1) 
gpcr_5ht2c_6bqh_protein_autoprepared_prepared

>  <s_lp_Force_Field>  (1) 
S-OPLS

>  <s_lp_Variant>  (1) 
DiffSBDD_0-1

>  <s_m_source_file>  (1) 
generated_GPCR_5HT2C_ligand_DiffSBDD_2026-06-23_prepared.sdf

>  <GenAI_Model>  (1) 
DiffSBDD

>  <Protein>  (1) 
GPCR_5HT2C

$$$$
DiffSBDD_85
     RDKit          3D

  0  0  0  0  0  0  0  0  0  0999 V3000
M  V30 BEGIN CTAB
M  V30 COUNTS 62 65 0 0 1
M  V30 BEGIN ATOM
M  V30 1 C 38.741484 26.884205 53.669811 0
M  V30 2 C 36.203792 30.152454 58.920607 0
M  V30 3 N 38.095235 31.240230 61.507673 0
M  V30 4 C 38.963371 25.998402 57.425540 0
M  V30 5 C 40.445109 30.598620 50.976798 0
M  V30 6 C 38.840324 30.641295 60.415481 0 CFG=2
M  V30 7 O 39.922199 26.537727 53.562454 0
M  V30 8 F 40.432082 29.337698 48.967826 0
M  V30 9 C 40.045157 30.758615 52.314393 0
M  V30 10 O 38.094482 27.691251 52.820767 0
M  V30 11 O 39.311301 36.069273 62.256106 0
M  V30 12 C 39.549507 31.225201 61.618946 0 CFG=1
M  V30 13 C 38.841921 24.901418 56.522923 0
M  V30 14 C 37.887281 32.748177 59.704538 0
M  V30 15 C 40.555832 33.239781 62.550211 0
M  V30 16 C 38.428416 31.418276 59.187711 0 CFG=2
M  V30 17 C 40.381232 35.587183 61.471885 0
M  V30 18 N 40.255868 32.459151 61.502642 0
M  V30 19 O 37.630676 32.579723 61.096527 0
M  V30 20 C 37.476466 30.683544 58.226988 0 CFG=1
M  V30 21 O 35.420327 31.230399 59.367778 0
M  V30 22 C 37.872824 26.435061 54.832350 0 CFG=1
M  V30 23 C 38.604613 28.445011 57.983596 0
M  V30 24 C 41.257455 34.570506 62.234578 0 CFG=1
M  V30 25 N 38.085646 29.657063 57.361042 0
M  V30 26 Cl 39.645079 25.751277 58.967759 0
M  V30 27 C 39.251321 29.781223 52.932724 0
M  V30 28 C 38.538091 27.226178 57.077416 0
M  V30 29 C 38.853736 28.641622 52.210485 0
M  V30 30 C 38.328347 25.079422 55.318245 0
M  V30 31 C 41.908326 35.205418 63.480092 0
M  V30 32 C 40.045163 29.473009 50.252248 0
M  V30 33 O 37.970342 27.476889 55.833852 0
M  V30 34 O 40.291773 32.930636 63.712520 0
M  V30 35 C 39.246475 28.486585 50.864506 0
M  V30 36 H 35.625838 29.577717 58.201971 0
M  V30 37 H 36.427006 29.500694 59.762423 0
M  V30 38 H 41.062001 31.343030 50.502307 0
M  V30 39 H 38.845531 29.558042 60.342675 0
M  V30 40 H 40.352109 31.630251 52.866351 0
M  V30 41 H 38.820253 36.700304 61.752735 0
M  V30 42 H 39.969520 30.499882 62.313721 0
M  V30 43 H 39.165397 23.917100 56.828981 0
M  V30 44 H 37.018751 33.117805 59.158717 0
M  V30 45 H 38.650201 33.517998 59.591616 0
M  V30 46 H 39.245122 31.656261 58.543745 0
M  V30 47 H 39.987549 35.155426 60.552774 0
M  V30 48 H 40.998067 36.435179 61.170726 0
M  V30 49 H 40.499056 32.770531 60.577603 0
M  V30 50 H 37.245131 31.471085 57.517077 0
M  V30 51 H 35.245126 31.737733 58.577621 0
M  V30 52 H 36.845110 26.359716 54.491591 0
M  V30 53 H 39.634651 28.597911 58.307014 0
M  V30 54 H 38.028664 28.187723 58.869017 0
M  V30 55 H 42.045152 34.290422 61.540218 0
M  V30 56 H 38.781462 30.064100 56.744983 0
M  V30 57 H 38.950375 29.901759 53.964010 0
M  V30 58 H 38.233042 24.247892 54.634425 0
M  V30 59 H 42.609833 34.522234 63.957438 0
M  V30 60 H 42.450518 36.116879 63.229093 0
M  V30 61 H 41.158128 35.476992 64.222737 0
M  V30 62 H 38.940864 27.611277 50.306752 0
M  V30 END ATOM
M  V30 BEGIN BOND
M  V30 1 1 6 3
M  V30 2 2 7 1
M  V30 3 2 9 5
M  V30 4 1 10 1
M  V30 5 1 12 3
M  V30 6 1 12 6
M  V30 7 1 13 4
M  V30 8 1 16 6
M  V30 9 1 16 14
M  V30 10 1 17 11
M  V30 11 1 18 12
M  V30 12 1 18 15
M  V30 13 1 19 3
M  V30 14 1 19 14
M  V30 15 1 20 2
M  V30 16 1 20 16
M  V30 17 1 21 2
M  V30 18 1 22 1
M  V30 19 1 24 15
M  V30 20 1 24 17
M  V30 21 1 25 20
M  V30 22 1 25 23
M  V30 23 1 26 4
M  V30 24 1 27 9
M  V30 25 2 28 4
M  V30 26 1 28 23
M  V30 27 1 29 10
M  V30 28 2 29 27
M  V30 29 2 30 13
M  V30 30 1 30 22
M  V30 31 1 31 24
M  V30 32 1 32 5
M  V30 33 1 32 8
M  V30 34 1 33 22
M  V30 35 1 33 28
M  V30 36 2 34 15
M  V30 37 1 35 29
M  V30 38 2 35 32
M  V30 39 1 36 2
M  V30 40 1 37 2
M  V30 41 1 38 5
M  V30 42 1 6 39 CFG=3
M  V30 43 1 40 9
M  V30 44 1 41 11
M  V30 45 1 12 42 CFG=1
M  V30 46 1 43 13
M  V30 47 1 44 14
M  V30 48 1 45 14
M  V30 49 1 16 46 CFG=3
M  V30 50 1 47 17
M  V30 51 1 48 17
M  V30 52 1 49 18
M  V30 53 1 20 50 CFG=3
M  V30 54 1 51 21
M  V30 55 1 22 52 CFG=3
M  V30 56 1 53 23
M  V30 57 1 54 23
M  V30 58 1 24 55 CFG=3
M  V30 59 1 56 25
M  V30 60 1 57 27
M  V30 61 1 58 30
M  V30 62 1 59 31
M  V30 63 1 60 31
M  V30 64 1 61 31
M  V30 65 1 62 35
M  V30 END BOND
M  V30 END CTAB
M  END
>  <i_epik_Tot_Q>  (1) 
0

>  <i_epik_Tot_abs_Q>  (1) 
0

>  <i_i_glide_confnum>  (1) 
406

>  <i_i_glide_lignum>  (1) 
202

>  <i_i_glide_posenum>  (1) 
153

>  <i_i_glide_rotatable_bonds>  (1) 
14

>  <i_lp_mmshare_version>  (1) 
72125

>  <i_m_source_file_index>  (1) 
86

>  <i_f3d_flags>  (1) 
0

>  <num_sample>  (1) 
100

>  <b_lp_Chiralities_Consistent>  (1) 
1

>  <r_epik_Charging_Adjusted_Penalty>  (1) 
0

>  <r_epik_Ionization_Penalty>  (1) 
0.002846787164494627

>  <r_epik_Ionization_Penalty_Charging>  (1) 
0

>  <r_epik_Ionization_Penalty_Neutral>  (1) 
0.002846787164494627

>  <r_epik_State_Penalty>  (1) 
-0

>  <r_glide_ring_energy>  (1) 
0

>  <r_i_docking_score>  (1) 
-6.0014478057058449

>  <r_i_glide_ecoul>  (1) 
-6.7895847586921185

>  <r_i_glide_eff_state_penalty>  (1) 
-0

>  <r_i_glide_einternal>  (1) 
25.300386808810927

>  <r_i_glide_emodel>  (1) 
-53.863069615187726

>  <r_i_glide_emodel_strain>  (1) 
1.6722734158244279

>  <r_i_glide_energy>  (1) 
-48.044249333436824

>  <r_i_glide_erotb>  (1) 
0.93847147272533338

>  <r_i_glide_esite>  (1) 
0

>  <r_i_glide_evdw>  (1) 
-41.254664574744709

>  <r_i_glide_gscore>  (1) 
-6.0014478057058449

>  <r_i_glide_gscore_strain>  (1) 
0

>  <r_i_glide_hbond>  (1) 
-0.15673212623850424

>  <r_i_glide_ligand_efficiency>  (1) 
-0.17146993730588128

>  <r_i_glide_ligand_efficiency_ln>  (1) 
-1.3174509883101262

>  <r_i_glide_ligand_efficiency_sa>  (1) 
-0.56088953513141804

>  <r_i_glide_lipo>  (1) 
-4.1168501979403205

>  <r_i_glide_metal>  (1) 
-0

>  <r_i_glide_rewards>  (1) 
0.41483398828869933

>  <r_lp_Energy>  (1) 
32.790191999999998

>  <r_lp_tautomer_probability>  (1) 
1

>  <s_epik_Chemistry_Notes>  (1) 
This compound contains an acetal/aminal-like group ( X-CH(R)-Y where X, Y are N, S, or O) that may be acid/base labile, releasing an aldehyde. This compound has a N-S or N-O group and may undergo hydrolysis at high or low pH.

>  <s_epik_cmdline>  (1) 
J2VwaWtfcHl0aG9uJywgJy1waHQnLCAnMS4wJywgJy1waCcsICc3LjQnLCAnLXRuJywgJzgnLCAnLW1hJywgJzUwMCcsICctaW1hZScsICc8aW5maWxlLm1hZT4nLCAnLW9tYWUnLCAnPG91dGZpbGUubWFlPic=

>  <s_epik_input>  (1) 
RmMoW2NIXTEpW2NIXVtjSF1bY0hdYzFPQyg9TylbQ0BASF0oW0NIXT1bQ0hdMilPQyg9QzJDbClbQ0gyXVtOSF1bQ0BASF0oW0NIMl1bT0hdKVtDQEBIXShbQ0gyXU8zKVtDSF0oW05AQF0zNClbQ0BIXTRbTkhdQyg9TylbQ0BIXShbQ0gzXSlbQ0gyXVtPSF0=

>  <s_glide_docking_method>  (1) 
confgen

>  <s_i_glide_gridfile>  (1) 
gpcr_5ht2c_6bqh_protein_autoprepared_prepared

>  <s_lp_Force_Field>  (1) 
S-OPLS

>  <s_lp_Variant>  (1) 
DiffSBDD_85-1

>  <s_m_source_file>  (1) 
generated_GPCR_5HT2C_ligand_DiffSBDD_2026-06-23_prepared.sdf

>  <GenAI_Model>  (1) 
DiffSBDD

>  <Protein>  (1) 
GPCR_5HT2C

$$$$
DiffSBDD_83
     RDKit          3D

  0  0  0  0  0  0  0  0  0  0999 V3000
M  V30 BEGIN CTAB
M  V30 COUNTS 54 55 0 0 1
M  V30 BEGIN ATOM
M  V30 1 C 38.402287 37.737748 61.571825 0
M  V30 2 C 37.678075 30.500814 58.934382 0
M  V30 3 N 38.037785 30.055902 60.167748 0
M  V30 4 O 39.245133 27.912133 54.036375 0
M  V30 5 O 37.236565 38.378030 61.367741 0
M  V30 6 C 39.265580 35.407497 61.658056 0
M  V30 7 C 40.710402 35.854110 61.877041 0
M  V30 8 C 39.155140 30.120320 54.257067 0
M  V30 9 C 37.769710 24.044880 57.080572 0
M  V30 10 C 38.222058 36.274996 61.525953 0
M  V30 11 C 37.548388 29.589584 57.773053 0
M  V30 12 C 37.679288 33.422076 61.121064 0
M  V30 13 N 38.084609 31.015444 61.101460 0
M  V30 14 O 37.386340 39.771912 60.967769 0
M  V30 15 C 38.644128 27.767095 56.382833 0 CFG=1
M  V30 16 C 40.144431 25.953533 57.448177 0
M  V30 17 C 38.963841 29.098571 53.495933 0
M  V30 18 O 39.475934 38.311730 61.767761 0
M  V30 19 C 39.644582 28.357705 55.365011 0 CFG=2
M  V30 20 C 37.488326 31.838548 59.041619 0
M  V30 21 O 39.609953 29.807474 55.467242 0
M  V30 22 C 37.656161 25.563094 57.132530 0
M  V30 23 C 38.911455 26.255939 56.568160 0 CFG=1
M  V30 24 C 37.749247 32.112286 60.420425 0
M  V30 25 Cl 38.845140 31.737746 53.768089 0
M  V30 26 C 39.067264 33.899305 61.590615 0
M  V30 27 C 38.680382 28.558822 57.702644 0
M  V30 28 H 38.247106 29.094298 60.392763 0
M  V30 29 H 41.367000 34.989091 61.971957 0
M  V30 30 H 41.078310 36.440963 61.033483 0
M  V30 31 H 40.814107 36.428799 62.798391 0
M  V30 32 H 36.845137 23.560381 57.374791 0
M  V30 33 H 37.997751 23.737769 56.060568 0
M  V30 34 H 38.547894 23.669482 57.745406 0
M  V30 35 H 37.220675 35.907820 61.377810 0
M  V30 36 H 36.584966 29.081774 57.825680 0
M  V30 37 H 37.520183 30.188812 56.861606 0
M  V30 38 H 36.971648 33.384480 61.949974 0
M  V30 39 H 37.263127 34.107642 60.385354 0
M  V30 40 H 36.973454 39.740067 60.109988 0
M  V30 41 H 37.657844 27.885120 55.930909 0
M  V30 42 H 39.961306 26.153500 58.503415 0
M  V30 43 H 40.427985 24.905508 57.366118 0
M  V30 44 H 41.014689 26.538874 57.151931 0
M  V30 45 H 38.601483 29.067001 52.479003 0
M  V30 46 H 40.666819 28.043721 55.568498 0
M  V30 47 H 37.195424 32.523714 58.258634 0
M  V30 48 H 37.459000 25.881439 58.156221 0
M  V30 49 H 36.781885 25.853433 56.547847 0
M  V30 50 H 39.094760 25.832223 55.579048 0
M  V30 51 H 39.808971 33.537919 60.875584 0
M  V30 52 H 39.322204 33.443413 62.547916 0
M  V30 53 H 39.653068 29.034572 57.843286 0
M  V30 54 H 38.554685 27.891493 58.553499 0
M  V30 END ATOM
M  V30 BEGIN BOND
M  V30 1 1 3 2
M  V30 2 1 5 1
M  V30 3 1 7 6
M  V30 4 1 10 1
M  V30 5 2 10 6
M  V30 6 1 11 2
M  V30 7 1 13 3
M  V30 8 1 14 5
M  V30 9 1 17 4
M  V30 10 2 17 8
M  V30 11 2 18 1
M  V30 12 1 19 4
M  V30 13 1 19 15
M  V30 14 2 20 2
M  V30 15 1 21 8
M  V30 16 1 21 19
M  V30 17 1 22 9
M  V30 18 1 23 15
M  V30 19 1 23 16
M  V30 20 1 23 22
M  V30 21 1 24 12
M  V30 22 2 24 13
M  V30 23 1 24 20
M  V30 24 1 25 8
M  V30 25 1 26 6
M  V30 26 1 26 12
M  V30 27 1 27 11
M  V30 28 1 27 15
M  V30 29 1 28 3
M  V30 30 1 29 7
M  V30 31 1 30 7
M  V30 32 1 31 7
M  V30 33 1 32 9
M  V30 34 1 33 9
M  V30 35 1 34 9
M  V30 36 1 35 10
M  V30 37 1 36 11
M  V30 38 1 37 11
M  V30 39 1 38 12
M  V30 40 1 39 12
M  V30 41 1 40 14
M  V30 42 1 15 41 CFG=3
M  V30 43 1 42 16
M  V30 44 1 43 16
M  V30 45 1 44 16
M  V30 46 1 45 17
M  V30 47 1 19 46 CFG=1
M  V30 48 1 47 20
M  V30 49 1 48 22
M  V30 50 1 49 22
M  V30 51 1 23 50 CFG=3
M  V30 52 1 51 26
M  V30 53 1 52 26
M  V30 54 1 53 27
M  V30 55 1 54 27
M  V30 END BOND
M  V30 END CTAB
M  END
>  <i_epik_Tot_Q>  (1) 
0

>  <i_epik_Tot_abs_Q>  (1) 
0

>  <i_i_glide_confnum>  (1) 
424

>  <i_i_glide_lignum>  (1) 
193

>  <i_i_glide_posenum>  (1) 
203

>  <i_i_glide_rotatable_bonds>  (1) 
12

>  <i_lp_mmshare_version>  (1) 
72125

>  <i_m_source_file_index>  (1) 
84

>  <i_f3d_flags>  (1) 
0

>  <num_sample>  (1) 
100

>  <b_lp_Chiralities_Consistent>  (1) 
1

>  <r_epik_Charging_Adjusted_Penalty>  (1) 
0.41067983895260396

>  <r_epik_Ionization_Penalty>  (1) 
0.00076996626271645392

>  <r_epik_Ionization_Penalty_Charging>  (1) 
0

>  <r_epik_Ionization_Penalty_Neutral>  (1) 
0.00076996626271645392

>  <r_epik_State_Penalty>  (1) 
0.41067983895260396

>  <r_glide_ring_energy>  (1) 
0

>  <r_i_docking_score>  (1) 
-5.9939261584971568

>  <r_i_glide_ecoul>  (1) 
-5.8708053470664003

>  <r_i_glide_eff_state_penalty>  (1) 
0.41067983895260396

>  <r_i_glide_einternal>  (1) 
9.5873804001967837

>  <r_i_glide_emodel>  (1) 
-48.53058982767957

>  <r_i_glide_emodel_strain>  (1) 
1.8429890649336755

>  <r_i_glide_energy>  (1) 
-38.234431472753322

>  <r_i_glide_erotb>  (1) 
1.1080255732668134

>  <r_i_glide_esite>  (1) 
-0.021881857268641794

>  <r_i_glide_evdw>  (1) 
-32.36362612568692

>  <r_i_glide_gscore>  (1) 
-6.4046059974497611

>  <r_i_glide_gscore_strain>  (1) 
0

>  <r_i_glide_hbond>  (1) 
-0.32000000000000001

>  <r_i_glide_ligand_efficiency>  (1) 
-0.22199726512952433

>  <r_i_glide_ligand_efficiency_ln>  (1) 
-1.3952871921024006

>  <r_i_glide_ligand_efficiency_sa>  (1) 
-0.66599179538857312

>  <r_i_glide_lipo>  (1) 
-2.9886764011237061

>  <r_i_glide_metal>  (1) 
-0

>  <r_i_glide_rewards>  (1) 
-1.6832712039799196

>  <r_lp_Energy>  (1) 
16.144891999999999

>  <r_lp_tautomer_probability>  (1) 
0.5

>  <s_epik_Chemistry_Notes>  (1) 
This compound contains an acetal/aminal-like group ( X-CH(R)-Y where X, Y are N, S, or O) that may be acid/base labile, releasing an aldehyde.

>  <s_epik_cmdline>  (1) 
J2VwaWtfcHl0aG9uJywgJy1waHQnLCAnMS4wJywgJy1waCcsICc3LjQnLCAnLXRuJywgJzgnLCAnLW1hJywgJzUwMCcsICctaW1hZScsICc8aW5maWxlLm1hZT4nLCAnLW9tYWUnLCAnPG91dGZpbGUubWFlPic=

>  <s_epik_input>  (1) 
W09IXU9DKD1PKS9bQ0hdPUMoXFtDSDNdKVtDSDJdW0NIMl1jKFtjSF0xKW5bbkhdYzFbQ0gyXVtDSDJdW0NASF0oW0NAQEhdKFtDSDNdKVtDSDJdW0NIM10pW0NAQEhdKE8yKU9bQ0hdPUMyQ2w=

>  <s_glide_docking_method>  (1) 
confgen

>  <s_i_glide_gridfile>  (1) 
gpcr_5ht2c_6bqh_protein_autoprepared_prepared

>  <s_lp_Force_Field>  (1) 
S-OPLS

>  <s_lp_Variant>  (1) 
DiffSBDD_83-4

>  <s_m_source_file>  (1) 
generated_GPCR_5HT2C_ligand_DiffSBDD_2026-06-23_prepared.sdf

>  <GenAI_Model>  (1) 
DiffSBDD

>  <Protein>  (1) 
GPCR_5HT2C

$$$$
DiffSBDD_75
     RDKit          3D

  0  0  0  0  0  0  0  0  0  0999 V3000
M  V30 BEGIN CTAB
M  V30 COUNTS 77 78 0 0 1
M  V30 BEGIN ATOM
M  V30 1 C 38.977887 29.474031 59.475466 0
M  V30 2 C 41.811201 27.469984 58.565557 0
M  V30 3 O 40.445140 29.504714 64.446580 0
M  V30 4 C 37.434074 27.185354 57.767764 0
M  V30 5 C 42.192646 31.507842 65.395925 0 CFG=1
M  V30 6 C 39.583349 29.735994 53.551263 0
M  V30 7 C 40.421340 30.708926 63.706669 0 CFG=2
M  V30 8 C 39.239508 28.519376 52.918476 0
M  V30 9 O 40.845415 32.220910 67.266239 0
M  V30 10 C 41.841710 32.925236 63.295142 0 CFG=2
M  V30 11 O 40.045120 29.337789 49.422854 0
M  V30 12 S 40.845044 28.941415 61.512443 0
M  V30 13 C 38.136161 26.639948 56.512270 0
M  V30 14 C 39.875015 29.466952 50.764759 0
M  V30 15 C 39.930772 30.319811 62.286905 0
M  V30 16 C 39.510129 29.855963 55.060331 0
M  V30 17 C 40.044725 30.814580 52.784047 0
M  V30 18 O 40.974373 35.191144 63.573568 0
M  V30 19 C 41.667946 33.062768 61.768134 0
M  V30 20 C 41.789889 31.465912 63.874819 0 CFG=1
M  V30 21 O 38.032505 25.231738 56.483918 0
M  V30 22 O 40.524025 27.770473 59.076358 0
M  V30 23 O 38.475384 31.829414 57.753785 0
M  V30 24 C 36.130749 29.184917 58.570968 0
M  V30 25 N 37.276386 28.668335 57.767784 0 CFG=1 CHG=1
M  V30 26 C 38.465143 30.731253 57.203751 0
M  V30 27 C 39.389190 28.385940 51.524359 0
M  V30 28 C 38.337864 30.646980 55.668972 0
M  V30 29 C 38.553816 29.393914 57.977179 0 CFG=1
M  V30 30 C 40.188475 30.681376 51.391978 0
M  V30 31 C 41.161813 33.902618 65.570248 0
M  V30 32 C 40.428538 29.028634 59.729277 0 CFG=1
M  V30 33 C 43.685281 31.737231 65.700891 0
M  V30 34 C 40.881113 33.861962 64.053042 0 CFG=2
M  V30 35 C 41.344568 32.513663 66.182087 0
M  V30 36 H 38.795344 30.472122 59.867859 0
M  V30 37 H 38.372300 28.799719 60.079874 0
M  V30 38 H 41.762935 26.537740 58.010892 0
M  V30 39 H 42.170457 28.236717 57.879476 0
M  V30 40 H 42.529119 27.337845 59.367786 0
M  V30 41 H 39.581340 29.092751 64.409887 0
M  V30 42 H 37.986653 26.852322 58.648470 0
M  V30 43 H 36.445829 26.724083 57.779121 0
M  V30 44 H 39.645297 31.315233 64.165342 0
M  V30 45 H 38.885571 27.684117 53.504792 0
M  V30 46 H 42.078389 34.459298 65.765371 0
M  V30 47 H 42.845113 33.294762 63.487944 0
M  V30 48 H 39.987952 30.169479 48.978631 0
M  V30 49 H 37.690465 27.042623 55.602674 0
M  V30 50 H 39.196473 26.890971 56.510085 0
M  V30 51 H 39.923400 31.166465 61.617756 0
M  V30 52 H 38.889847 30.001078 62.355123 0
M  V30 53 H 39.547227 28.840709 55.442037 0
M  V30 54 H 40.445157 30.316470 55.376629 0
M  V30 55 H 40.304679 31.737748 53.264758 0
M  V30 56 H 41.771447 35.589625 63.890709 0
M  V30 57 H 40.622513 33.079047 61.468976 0
M  V30 58 H 42.045177 34.024093 61.423619 0
M  V30 59 H 42.194590 32.281928 61.219549 0
M  V30 60 H 42.542568 30.873496 63.353404 0
M  V30 61 H 37.135003 24.982847 56.317747 0
M  V30 62 H 36.364832 29.344434 59.620904 0
M  V30 63 H 35.800749 30.137785 58.168170 0
M  V30 64 H 35.267340 28.524168 58.567808 0
M  V30 65 H 39.142734 27.452652 51.040676 0
M  V30 66 H 38.330827 31.659054 55.265586 0
M  V30 67 H 37.382834 30.195699 55.402612 0
M  V30 68 H 39.318067 28.816556 57.471923 0
M  V30 69 H 40.554823 31.510020 50.807769 0
M  V30 70 H 40.370639 34.427184 66.105026 0
M  V30 71 H 41.987540 30.532989 65.834945 0
M  V30 72 H 41.103495 29.737803 59.253584 0
M  V30 73 H 43.937561 31.304823 66.669720 0
M  V30 74 H 44.324930 31.247954 64.968064 0
M  V30 75 H 43.955644 32.792270 65.767456 0
M  V30 76 H 39.870491 33.523077 63.832756 0
M  V30 77 H 37.011635 28.883459 56.816073 0
M  V30 END ATOM
M  V30 BEGIN BOND
M  V30 1 1 7 3
M  V30 2 1 8 6
M  V30 3 1 13 4
M  V30 4 1 14 11
M  V30 5 1 15 7
M  V30 6 1 15 12
M  V30 7 1 16 6
M  V30 8 2 17 6
M  V30 9 1 19 10
M  V30 10 1 20 5
M  V30 11 1 20 7
M  V30 12 1 20 10
M  V30 13 1 21 13
M  V30 14 1 22 2
M  V30 15 1 25 4
M  V30 16 1 25 24
M  V30 17 2 26 23
M  V30 18 2 27 8
M  V30 19 1 27 14
M  V30 20 1 28 16
M  V30 21 1 28 26
M  V30 22 1 29 1
M  V30 23 1 29 25
M  V30 24 1 29 26
M  V30 25 2 30 14
M  V30 26 1 30 17
M  V30 27 1 32 1
M  V30 28 1 32 12
M  V30 29 1 32 22
M  V30 30 1 33 5
M  V30 31 1 34 10
M  V30 32 1 34 18
M  V30 33 1 34 31
M  V30 34 1 35 5
M  V30 35 2 35 9
M  V30 36 1 35 31
M  V30 37 1 36 1
M  V30 38 1 37 1
M  V30 39 1 38 2
M  V30 40 1 39 2
M  V30 41 1 40 2
M  V30 42 1 41 3
M  V30 43 1 42 4
M  V30 44 1 43 4
M  V30 45 1 7 44 CFG=1
M  V30 46 1 45 8
M  V30 47 1 46 31
M  V30 48 1 10 47 CFG=3
M  V30 49 1 48 11
M  V30 50 1 49 13
M  V30 51 1 50 13
M  V30 52 1 51 15
M  V30 53 1 52 15
M  V30 54 1 53 16
M  V30 55 1 54 16
M  V30 56 1 55 17
M  V30 57 1 56 18
M  V30 58 1 57 19
M  V30 59 1 58 19
M  V30 60 1 59 19
M  V30 61 1 20 60 CFG=3
M  V30 62 1 61 21
M  V30 63 1 62 24
M  V30 64 1 63 24
M  V30 65 1 64 24
M  V30 66 1 65 27
M  V30 67 1 66 28
M  V30 68 1 67 28
M  V30 69 1 29 68 CFG=3
M  V30 70 1 69 30
M  V30 71 1 70 31
M  V30 72 1 5 71 CFG=1
M  V30 73 1 32 72 CFG=3
M  V30 74 1 73 33
M  V30 75 1 74 33
M  V30 76 1 75 33
M  V30 77 1 34 76 CFG=1
M  V30 78 1 25 77 CFG=3
M  V30 END BOND
M  V30 END CTAB
M  END
>  <i_epik_Tot_Q>  (1) 
1

>  <i_epik_Tot_abs_Q>  (1) 
1

>  <i_i_glide_confnum>  (1) 
280

>  <i_i_glide_lignum>  (1) 
166

>  <i_i_glide_posenum>  (1) 
57

>  <i_i_glide_rotatable_bonds>  (1) 
18

>  <i_lp_mmshare_version>  (1) 
72125

>  <i_m_source_file_index>  (1) 
76

>  <i_f3d_flags>  (1) 
0

>  <num_sample>  (1) 
100

>  <b_lp_Chiralities_Consistent>  (1) 
1

>  <r_epik_Charging_Adjusted_Penalty>  (1) 
0.52789471212939676

>  <r_epik_Ionization_Penalty>  (1) 
0.26592108790513191

>  <r_epik_Ionization_Penalty_Charging>  (1) 
0.26394735606469838

>  <r_epik_Ionization_Penalty_Neutral>  (1) 
0.0019737318404335234

>  <r_epik_State_Penalty>  (1) 
0.26394735606469838

>  <r_glide_ring_energy>  (1) 
0

>  <r_i_docking_score>  (1) 
-5.9905881888489692

>  <r_i_glide_ecoul>  (1) 
-6.4866888745965241

>  <r_i_glide_eff_state_penalty>  (1) 
0.26394735606469838

>  <r_i_glide_einternal>  (1) 
5.4088902629770566

>  <r_i_glide_emodel>  (1) 
-58.470555504743245

>  <r_i_glide_emodel_strain>  (1) 
5.0974971666238105

>  <r_i_glide_energy>  (1) 
-44.647659163090488

>  <r_i_glide_erotb>  (1) 
1.0139394581015995

>  <r_i_glide_esite>  (1) 
-0.070809589894899896

>  <r_i_glide_evdw>  (1) 
-38.160970288493964

>  <r_i_glide_gscore>  (1) 
-6.2545355449136677

>  <r_i_glide_gscore_strain>  (1) 
0.27437429165595262

>  <r_i_glide_hbond>  (1) 
-0.32000000000000001

>  <r_i_glide_ligand_efficiency>  (1) 
-0.17115966253854198

>  <r_i_glide_ligand_efficiency_ln>  (1) 
-1.3150670613938316

>  <r_i_glide_ligand_efficiency_sa>  (1) 
-0.5598746057930728

>  <r_i_glide_lipo>  (1) 
-3.5135961775642994

>  <r_i_glide_metal>  (1) 
-0

>  <r_i_glide_rewards>  (1) 
-0.75739168159784409

>  <r_lp_Energy>  (1) 
31.761440999999998

>  <r_lp_tautomer_probability>  (1) 
0.99989998499911525

>  <s_epik_Chemistry_Notes>  (1) 
This compound contains an acetal/aminal-like group ( X-CH(R)-Y where X, Y are N, S, or O) that may be acid/base labile, releasing an aldehyde.

>  <s_epik_cmdline>  (1) 
J2VwaWtfcHl0aG9uJywgJy1waHQnLCAnMS4wJywgJy1waCcsICc3LjQnLCAnLXRuJywgJzgnLCAnLW1hJywgJzUwMCcsICctaW1hZScsICc8aW5maWxlLm1hZT4nLCAnLW9tYWUnLCAnPG91dGZpbGUubWFlPic=

>  <s_epik_input>  (1) 
W2NIXTFbY0hdYyhbT0hdKVtjSF1bY0hdYzFbQ0gyXVtDSDJdQyg9TylbQ0BIXShOKFtDSDNdKVtDSDJdW0NIMl1bT0hdKVtDSDJdW0NASF0oT1tDSDNdKVNbQ0gyXVtDQEBIXShbT0hdKVtDQEhdMltDQEBIXShbQ0gzXSlbQ0BIXShbT0hdKVtDSDJdQyhbT0hdKT1DMltDSDNd

>  <s_glide_docking_method>  (1) 
confgen

>  <s_i_glide_gridfile>  (1) 
gpcr_5ht2c_6bqh_protein_autoprepared_prepared

>  <s_lp_Force_Field>  (1) 
S-OPLS

>  <s_lp_Variant>  (1) 
DiffSBDD_75-3

>  <s_m_source_file>  (1) 
generated_GPCR_5HT2C_ligand_DiffSBDD_2026-06-23_prepared.sdf

>  <GenAI_Model>  (1) 
DiffSBDD

>  <Protein>  (1) 
GPCR_5HT2C

$$$$
DiffSBDD_79
     RDKit          3D

  0  0  0  0  0  0  0  0  0  0999 V3000
M  V30 BEGIN CTAB
M  V30 COUNTS 42 42 0 0 1
M  V30 BEGIN ATOM
M  V30 1 C 38.612512 28.007466 53.889803 0
M  V30 2 O 38.045134 27.845131 56.816969 0
M  V30 3 C 39.645133 30.170371 54.464941 0
M  V30 4 C 38.205964 32.396378 58.033604 0
M  V30 5 O 36.141531 31.848771 60.146184 0
M  V30 6 C 37.867290 26.720103 54.267058 0
M  V30 7 C 39.645137 29.393599 52.155234 0
M  V30 8 O 37.964800 30.767433 60.989826 0
M  V30 9 C 39.942125 25.732804 55.339651 0
M  V30 10 C 35.231308 33.737734 61.265251 0
M  V30 11 C 38.666429 28.795323 56.347931 0
M  V30 12 C 40.031890 29.587638 50.771622 0
M  V30 13 C 38.958031 28.224435 52.537233 0
M  V30 14 C 38.828442 29.927498 58.465076 0
M  V30 15 C 38.661332 25.617915 54.954907 0
M  V30 16 C 38.973194 28.989943 54.877049 0
M  V30 17 C 37.754810 31.024479 58.593511 0 CFG=1
M  V30 18 O 39.173185 29.786567 57.097672 0
M  V30 19 C 35.671789 32.283527 61.402801 0
M  V30 20 C 37.301970 31.193038 60.041812 0
M  V30 21 O 38.045137 32.448474 56.633545 0
M  V30 22 N 40.351742 29.737764 49.673196 0
M  V30 23 C 39.972304 30.368027 53.113753 0
M  V30 24 H 39.917947 30.924069 55.189222 0
M  V30 25 H 39.245134 32.600798 58.286508 0
M  V30 26 H 37.616094 33.216231 58.446635 0
M  V30 27 H 36.966837 26.943078 54.836922 0
M  V30 28 H 37.482894 26.278005 53.348041 0
M  V30 29 H 40.445171 24.917186 55.827621 0
M  V30 30 H 40.498910 26.641546 55.173342 0
M  V30 31 H 34.845519 34.121486 62.209882 0
M  V30 32 H 36.060838 34.373952 60.955721 0
M  V30 33 H 34.445137 33.822595 60.514598 0
M  V30 34 H 38.703225 27.483546 51.791961 0
M  V30 35 H 39.722283 30.188443 59.028097 0
M  V30 36 H 38.472518 28.989909 58.894922 0
M  V30 37 H 38.135517 24.691915 55.136869 0
M  V30 38 H 36.868111 30.697403 58.049264 0
M  V30 39 H 34.845136 31.649530 61.719924 0
M  V30 40 H 36.445274 32.218977 62.167743 0
M  V30 41 H 37.109027 32.344048 56.458711 0
M  V30 42 H 40.492604 31.266643 52.813984 0
M  V30 END ATOM
M  V30 BEGIN BOND
M  V30 1 1 6 1
M  V30 2 2 11 2
M  V30 3 1 12 7
M  V30 4 1 13 1
M  V30 5 2 13 7
M  V30 6 1 15 6
M  V30 7 2 15 9
M  V30 8 2 16 1
M  V30 9 1 16 3
M  V30 10 1 16 11
M  V30 11 1 17 4
M  V30 12 1 17 14
M  V30 13 1 18 11
M  V30 14 1 18 14
M  V30 15 1 19 5
M  V30 16 1 19 10
M  V30 17 1 20 5
M  V30 18 2 20 8
M  V30 19 1 20 17
M  V30 20 1 21 4
M  V30 21 3 22 12
M  V30 22 2 23 3
M  V30 23 1 23 7
M  V30 24 1 24 3
M  V30 25 1 25 4
M  V30 26 1 26 4
M  V30 27 1 27 6
M  V30 28 1 28 6
M  V30 29 1 29 9
M  V30 30 1 30 9
M  V30 31 1 31 10
M  V30 32 1 32 10
M  V30 33 1 33 10
M  V30 34 1 34 13
M  V30 35 1 35 14
M  V30 36 1 36 14
M  V30 37 1 37 15
M  V30 38 1 17 38 CFG=3
M  V30 39 1 39 19
M  V30 40 1 40 19
M  V30 41 1 41 21
M  V30 42 1 42 23
M  V30 END BOND
M  V30 END CTAB
M  END
>  <i_epik_Tot_Q>  (1) 
0

>  <i_epik_Tot_abs_Q>  (1) 
0

>  <i_i_glide_confnum>  (1) 
491

>  <i_i_glide_lignum>  (1) 
185

>  <i_i_glide_posenum>  (1) 
94

>  <i_i_glide_rotatable_bonds>  (1) 
11

>  <i_lp_mmshare_version>  (1) 
72125

>  <i_m_source_file_index>  (1) 
80

>  <i_f3d_flags>  (1) 
0

>  <num_sample>  (1) 
100

>  <b_lp_Chiralities_Consistent>  (1) 
1

>  <r_epik_Charging_Adjusted_Penalty>  (1) 
0

>  <r_epik_Ionization_Penalty>  (1) 
1.2942401493755896e-07

>  <r_epik_Ionization_Penalty_Charging>  (1) 
0

>  <r_epik_Ionization_Penalty_Neutral>  (1) 
1.2942401493755896e-07

>  <r_epik_State_Penalty>  (1) 
-0

>  <r_glide_ring_energy>  (1) 
0

>  <r_i_docking_score>  (1) 
-5.9881291244309001

>  <r_i_glide_ecoul>  (1) 
-3.5797754050205626

>  <r_i_glide_eff_state_penalty>  (1) 
-0

>  <r_i_glide_einternal>  (1) 
10.608101997869955

>  <r_i_glide_emodel>  (1) 
-53.370665778178136

>  <r_i_glide_emodel_strain>  (1) 
0.19741993476664987

>  <r_i_glide_energy>  (1) 
-42.458636492533394

>  <r_i_glide_erotb>  (1) 
1.6648782888351312

>  <r_i_glide_esite>  (1) 
-0.034749038012613101

>  <r_i_glide_evdw>  (1) 
-38.878861087512831

>  <r_i_glide_gscore>  (1) 
-5.9881291244309001

>  <r_i_glide_gscore_strain>  (1) 
0

>  <r_i_glide_hbond>  (1) 
-0.17881744115963294

>  <r_i_glide_ligand_efficiency>  (1) 
-0.26035344019264783

>  <r_i_glide_ligand_efficiency_ln>  (1) 
-1.447983919640305

>  <r_i_glide_ligand_efficiency_sa>  (1) 
-0.74041055165463054

>  <r_i_glide_lipo>  (1) 
-2.6390048316960666

>  <r_i_glide_metal>  (1) 
-0

>  <r_i_glide_rewards>  (1) 
-2.3195267372689932

>  <r_lp_Energy>  (1) 
10.946185999999999

>  <r_lp_tautomer_probability>  (1) 
1

>  <s_epik_Chemistry_Notes>  (1) 
This compound has an ester and may undergo hydrolysis at high or low pH.

>  <s_epik_cmdline>  (1) 
J2VwaWtfcHl0aG9uJywgJy1waHQnLCAnMS4wJywgJy1waCcsICc3LjQnLCAnLXRuJywgJzgnLCAnLW1hJywgJzUwMCcsICctaW1hZScsICc8aW5maWxlLm1hZT4nLCAnLW9tYWUnLCAnPG91dGZpbGUubWFlPic=

>  <s_epik_input>  (1) 
W0NIMl09W0NIXVtDSDJdYzFbY0hdYyhDI04pW2NIXVtjSF1jMUMoPU8pT1tDSDJdW0NASF0oW0NIMl1bT0hdKUMoPU8pT1tDSDJdW0NIM10=

>  <s_glide_docking_method>  (1) 
confgen

>  <s_i_glide_gridfile>  (1) 
gpcr_5ht2c_6bqh_protein_autoprepared_prepared

>  <s_lp_Force_Field>  (1) 
S-OPLS

>  <s_lp_Variant>  (1) 
DiffSBDD_79-1

>  <s_m_source_file>  (1) 
generated_GPCR_5HT2C_ligand_DiffSBDD_2026-06-23_prepared.sdf

>  <GenAI_Model>  (1) 
DiffSBDD

>  <Protein>  (1) 
GPCR_5HT2C

$$$$
DiffSBDD_41
     RDKit          3D

  0  0  0  0  0  0  0  0  0  0999 V3000
M  V30 BEGIN CTAB
M  V30 COUNTS 51 52 0 0 1
M  V30 BEGIN ATOM
M  V30 1 C 40.028661 29.439664 61.156541 0
M  V30 2 C 39.259241 28.236284 57.292117 0 CFG=1
M  V30 3 C 40.545679 30.615090 51.024305 0
M  V30 4 C 39.114806 29.668001 54.467199 0
M  V30 5 C 38.918528 27.733764 52.976325 0
M  V30 6 C 39.471319 28.478095 51.919957 0
M  V30 7 C 38.758554 28.315288 54.245837 0
M  V30 8 O 40.959264 32.942402 61.825331 0 CHG=-1
M  V30 9 C 38.957027 29.713756 57.017402 0
M  V30 10 S 40.366314 28.145388 58.743627 0
M  V30 11 N 39.644905 31.337754 50.124441 0 CHG=1
M  V30 12 C 41.434749 30.945502 63.081824 0
M  V30 13 C 41.320166 29.549214 63.225247 0
M  V30 14 C 39.664227 27.829228 50.569918 0
M  V30 15 C 38.052378 27.296566 57.489615 0
M  V30 16 C 40.845472 31.590058 61.973071 0
M  V30 17 C 38.938957 30.322867 55.798467 0
M  V30 18 C 40.619014 28.796524 62.262863 0
M  V30 19 C 37.271722 24.842999 57.493198 0
M  V30 20 C 39.647066 30.420181 53.396072 0
M  V30 21 C 38.418784 25.821422 57.221692 0
M  V30 22 F 42.113659 31.666659 64.007173 0
M  V30 23 C 40.141049 30.836931 61.014475 0
M  V30 24 C 39.859127 29.821442 52.133104 0
M  V30 25 C 39.270121 28.633121 60.121458 0
M  V30 26 H 39.891009 27.866584 56.487481 0
M  V30 27 H 41.204816 31.337788 51.499416 0
M  V30 28 H 41.204602 29.978232 50.435347 0
M  V30 29 H 38.626352 26.705610 52.817246 0
M  V30 30 H 38.335309 27.731812 55.032006 0
M  V30 31 H 38.772582 30.321044 57.890589 0
M  V30 32 H 40.197714 31.887360 49.480671 0
M  V30 33 H 39.056696 30.690431 49.612994 0
M  V30 34 H 41.772688 29.055378 64.072252 0
M  V30 35 H 39.215448 28.416558 49.768773 0
M  V30 36 H 40.728933 27.741152 50.395156 0
M  V30 37 H 39.229793 26.828829 50.553116 0
M  V30 38 H 37.645136 27.402089 58.488817 0
M  V30 39 H 37.245285 27.588535 56.830874 0
M  V30 40 H 38.779094 31.391420 55.772559 0
M  V30 41 H 40.533144 27.728550 62.374983 0
M  V30 42 H 37.525072 23.839848 57.148469 0
M  V30 43 H 37.068525 24.770002 58.559811 0
M  V30 44 H 36.356823 25.150803 56.986184 0
M  V30 45 H 39.935587 31.448212 53.558068 0
M  V30 46 H 38.735271 25.708557 56.184438 0
M  V30 47 H 39.278180 25.532524 57.827980 0
M  V30 48 H 39.688518 31.331047 60.168144 0
M  V30 49 H 38.431295 29.231984 59.767242 0
M  V30 50 H 38.840808 27.738250 60.571308 0
M  V30 51 H 39.067291 31.960387 50.670837 0
M  V30 END ATOM
M  V30 BEGIN BOND
M  V30 1 1 6 5
M  V30 2 1 7 4
M  V30 3 2 7 5
M  V30 4 1 9 2
M  V30 5 1 10 2
M  V30 6 1 11 3
M  V30 7 1 13 12
M  V30 8 1 14 6
M  V30 9 1 15 2
M  V30 10 1 16 8
M  V30 11 2 16 12
M  V30 12 1 17 4
M  V30 13 2 17 9
M  V30 14 1 18 1
M  V30 15 2 18 13
M  V30 16 2 20 4
M  V30 17 1 21 15
M  V30 18 1 21 19
M  V30 19 1 22 12
M  V30 20 2 23 1
M  V30 21 1 23 16
M  V30 22 1 24 3
M  V30 23 2 24 6
M  V30 24 1 24 20
M  V30 25 1 25 1
M  V30 26 1 25 10
M  V30 27 1 2 26 CFG=3
M  V30 28 1 27 3
M  V30 29 1 28 3
M  V30 30 1 29 5
M  V30 31 1 30 7
M  V30 32 1 31 9
M  V30 33 1 32 11
M  V30 34 1 33 11
M  V30 35 1 34 13
M  V30 36 1 35 14
M  V30 37 1 36 14
M  V30 38 1 37 14
M  V30 39 1 38 15
M  V30 40 1 39 15
M  V30 41 1 40 17
M  V30 42 1 41 18
M  V30 43 1 42 19
M  V30 44 1 43 19
M  V30 45 1 44 19
M  V30 46 1 45 20
M  V30 47 1 46 21
M  V30 48 1 47 21
M  V30 49 1 48 23
M  V30 50 1 49 25
M  V30 51 1 50 25
M  V30 52 1 51 11
M  V30 END BOND
M  V30 END CTAB
M  END
>  <i_epik_Tot_Q>  (1) 
0

>  <i_epik_Tot_abs_Q>  (1) 
2

>  <i_i_glide_confnum>  (1) 
26

>  <i_i_glide_lignum>  (1) 
91

>  <i_i_glide_posenum>  (1) 
330

>  <i_i_glide_rotatable_bonds>  (1) 
8

>  <i_lp_mmshare_version>  (1) 
72125

>  <i_m_source_file_index>  (1) 
42

>  <i_f3d_flags>  (1) 
0

>  <num_sample>  (1) 
100

>  <b_lp_Chiralities_Consistent>  (1) 
1

>  <r_epik_Charging_Adjusted_Penalty>  (1) 
2.7167828853708742

>  <r_epik_Ionization_Penalty>  (1) 
1.3565026725465308

>  <r_epik_Ionization_Penalty_Charging>  (1) 
1.3565026725465308

>  <r_epik_Ionization_Penalty_Neutral>  (1) 
0

>  <r_epik_State_Penalty>  (1) 
1.3602802128243434

>  <r_glide_ring_energy>  (1) 
0

>  <r_i_docking_score>  (1) 
-5.9854689877376348

>  <r_i_glide_ecoul>  (1) 
-4.2780882571130388

>  <r_i_glide_eff_state_penalty>  (1) 
1.3602802128243434

>  <r_i_glide_einternal>  (1) 
6.3940770779165019

>  <r_i_glide_emodel>  (1) 
-58.307604536141788

>  <r_i_glide_emodel_strain>  (1) 
0.074991984954998259

>  <r_i_glide_energy>  (1) 
-39.295608627998377

>  <r_i_glide_erotb>  (1) 
0.74153290357203427

>  <r_i_glide_esite>  (1) 
0

>  <r_i_glide_evdw>  (1) 
-35.017520370885336

>  <r_i_glide_gscore>  (1) 
-7.3457492005619782

>  <r_i_glide_gscore_strain>  (1) 
0

>  <r_i_glide_hbond>  (1) 
0

>  <r_i_glide_ligand_efficiency>  (1) 
-0.23941875950950539

>  <r_i_glide_ligand_efficiency_ln>  (1) 
-1.4187355201251088

>  <r_i_glide_ligand_efficiency_sa>  (1) 
-0.70006469966671414

>  <r_i_glide_lipo>  (1) 
-3.984973442130225

>  <r_i_glide_metal>  (1) 
-0

>  <r_i_glide_rewards>  (1) 
-1.709719404892565

>  <r_lp_Energy>  (1) 
21.037921999999998

>  <s_epik_cmdline>  (1) 
J2VwaWtfcHl0aG9uJywgJy1waHQnLCAnMS4wJywgJy1waCcsICc3LjQnLCAnLXRuJywgJzgnLCAnLW1hJywgJzUwMCcsICctaW1hZScsICc8aW5maWxlLm1hZT4nLCAnLW9tYWUnLCAnPG91dGZpbGUubWFlPic=

>  <s_epik_input>  (1) 
W09IXWMoW2NIXTEpYyhGKVtjSF1bY0hdYzFbQ0gyXVNbQ0BASF0oW0NIMl1bQ0gyXVtDSDNdKS9bQ0hdPVtDSF1cYzJbY0hdW2NIXWMoW0NIM10pYyhbY0hdMilbQ0gyXVtOSDJd

>  <s_glide_docking_method>  (1) 
confgen

>  <s_i_glide_gridfile>  (1) 
gpcr_5ht2c_6bqh_protein_autoprepared_prepared

>  <s_lp_Force_Field>  (1) 
S-OPLS

>  <s_lp_Variant>  (1) 
DiffSBDD_41-4

>  <s_m_source_file>  (1) 
generated_GPCR_5HT2C_ligand_DiffSBDD_2026-06-23_prepared.sdf

>  <GenAI_Model>  (1) 
DiffSBDD

>  <Protein>  (1) 
GPCR_5HT2C

$$$$
DiffSBDD_89
     RDKit          3D

  0  0  0  0  0  0  0  0  0  0999 V3000
M  V30 BEGIN CTAB
M  V30 COUNTS 60 62 0 0 1
M  V30 BEGIN ATOM
M  V30 1 C 39.864288 31.268449 55.533262 0
M  V30 2 O 42.045039 32.906743 63.617794 0 CHG=-1
M  V30 3 C 40.687160 28.277308 58.436549 0
M  V30 4 C 39.173737 30.732266 62.653178 0
M  V30 5 C 38.577442 30.477382 55.738004 0 CFG=2
M  V30 6 O 40.318769 29.194647 60.468616 0
M  V30 7 C 37.816977 33.580250 60.488523 0
M  V30 8 O 41.645547 31.737607 61.767951 0
M  V30 9 C 38.285006 32.869608 61.600211 0
M  V30 10 C 40.977179 30.446298 50.091934 0
M  V30 11 C 39.912000 30.863154 52.359080 0
M  V30 12 C 39.089627 29.522055 59.839389 0 CFG=1
M  V30 13 C 40.157073 31.465207 63.605269 0
M  V30 14 C 41.387688 32.089172 62.938030 0
M  V30 15 O 38.045068 32.306002 54.259282 0
M  V30 16 C 37.758460 28.194632 55.008371 0
M  V30 17 C 37.245170 33.661257 58.026998 0
M  V30 18 N 38.172778 31.657797 59.046662 0
M  V30 19 C 38.636526 30.970229 60.120868 0
M  V30 20 C 40.156127 29.847477 51.238345 0
M  V30 21 C 39.493844 29.226168 58.364718 0 CFG=2
M  V30 22 C 38.667244 28.973943 55.970011 0 CFG=2
M  V30 23 C 38.370687 28.680093 57.457076 0
M  V30 24 C 40.769300 27.986978 59.913185 0
M  V30 25 C 38.855159 31.170572 54.436312 0 CFG=1
M  V30 26 C 38.691313 31.536130 61.434261 0
M  V30 27 C 37.771785 32.934223 59.242043 0
M  V30 28 O 39.088955 30.289903 53.354611 0
M  V30 29 H 40.790845 30.727930 55.363398 0
M  V30 30 H 39.960338 32.213114 56.065503 0
M  V30 31 H 40.579077 27.366679 57.845974 0
M  V30 32 H 41.596821 28.781693 58.109281 0
M  V30 33 H 38.273789 30.532178 63.230363 0
M  V30 34 H 39.546331 29.736419 62.459439 0
M  V30 35 H 37.795246 30.949181 56.331001 0
M  V30 36 H 37.489338 34.603741 60.589618 0
M  V30 37 H 38.331193 33.337564 62.567576 0
M  V30 38 H 41.082864 29.737806 49.271906 0
M  V30 39 H 40.495549 31.338093 49.692200 0
M  V30 40 H 41.975778 30.728907 50.425983 0
M  V30 41 H 39.437034 31.750924 51.950456 0
M  V30 42 H 40.845035 31.187691 52.805420 0
M  V30 43 H 38.314378 28.830781 60.172705 0
M  V30 44 H 39.646198 32.276666 64.121138 0
M  V30 45 H 40.491854 30.779009 64.383493 0
M  V30 46 H 37.219244 32.172325 54.708316 0
M  V30 47 H 36.845237 28.749241 54.817124 0
M  V30 48 H 38.241172 28.053643 54.041639 0
M  V30 49 H 37.513419 27.200854 55.383464 0
M  V30 50 H 37.645153 34.669818 57.964457 0
M  V30 51 H 37.486734 33.138637 57.101728 0
M  V30 52 H 36.162191 33.738717 58.110200 0
M  V30 53 H 40.665823 28.970578 51.637723 0
M  V30 54 H 39.197989 29.498432 50.850636 0
M  V30 55 H 39.900254 30.138255 57.945341 0
M  V30 56 H 39.686244 28.648661 55.756618 0
M  V30 57 H 37.416553 29.134619 57.730676 0
M  V30 58 H 38.246716 27.610281 57.628470 0
M  V30 59 H 40.073187 27.193223 60.177993 0
M  V30 60 H 41.771559 27.737935 60.248044 0
M  V30 END ATOM
M  V30 BEGIN BOND
M  V30 1 1 5 1
M  V30 2 2 9 7
M  V30 3 1 12 6
M  V30 4 1 13 4
M  V30 5 1 14 2
M  V30 6 2 14 8
M  V30 7 1 14 13
M  V30 8 1 19 12
M  V30 9 1 19 18
M  V30 10 1 20 10
M  V30 11 1 20 11
M  V30 12 1 21 3
M  V30 13 1 21 12
M  V30 14 1 22 5
M  V30 15 1 22 16
M  V30 16 1 23 21
M  V30 17 1 23 22
M  V30 18 1 24 3
M  V30 19 1 24 6
M  V30 20 1 25 1
M  V30 21 1 25 5
M  V30 22 1 25 15 CFG=3
M  V30 23 1 26 4
M  V30 24 1 26 9
M  V30 25 2 26 19
M  V30 26 1 27 7
M  V30 27 1 27 17
M  V30 28 2 27 18
M  V30 29 1 28 11
M  V30 30 1 28 25
M  V30 31 1 29 1
M  V30 32 1 30 1
M  V30 33 1 31 3
M  V30 34 1 32 3
M  V30 35 1 33 4
M  V30 36 1 34 4
M  V30 37 1 5 35 CFG=1
M  V30 38 1 36 7
M  V30 39 1 37 9
M  V30 40 1 38 10
M  V30 41 1 39 10
M  V30 42 1 40 10
M  V30 43 1 41 11
M  V30 44 1 42 11
M  V30 45 1 12 43 CFG=1
M  V30 46 1 44 13
M  V30 47 1 45 13
M  V30 48 1 46 15
M  V30 49 1 47 16
M  V30 50 1 48 16
M  V30 51 1 49 16
M  V30 52 1 50 17
M  V30 53 1 51 17
M  V30 54 1 52 17
M  V30 55 1 53 20
M  V30 56 1 54 20
M  V30 57 1 21 55 CFG=3
M  V30 58 1 22 56 CFG=3
M  V30 59 1 57 23
M  V30 60 1 58 23
M  V30 61 1 59 24
M  V30 62 1 60 24
M  V30 END BOND
M  V30 END CTAB
M  END
>  <i_epik_Tot_Q>  (1) 
-1

>  <i_epik_Tot_abs_Q>  (1) 
1

>  <i_i_glide_confnum>  (1) 
88

>  <i_i_glide_lignum>  (1) 
209

>  <i_i_glide_posenum>  (1) 
378

>  <i_i_glide_rotatable_bonds>  (1) 
11

>  <i_lp_mmshare_version>  (1) 
72125

>  <i_m_source_file_index>  (1) 
90

>  <i_f3d_flags>  (1) 
0

>  <num_sample>  (1) 
100

>  <b_lp_Chiralities_Consistent>  (1) 
1

>  <r_epik_Charging_Adjusted_Penalty>  (1) 
0.038997202990306332

>  <r_epik_Ionization_Penalty>  (1) 
0.038997322870567536

>  <r_epik_Ionization_Penalty_Charging>  (1) 
0.00068578103088963352

>  <r_epik_Ionization_Penalty_Neutral>  (1) 
0.038311541839677901

>  <r_epik_State_Penalty>  (1) 
0.038311421959416697

>  <r_glide_ring_energy>  (1) 
0

>  <r_i_docking_score>  (1) 
-5.9840504935718162

>  <r_i_glide_ecoul>  (1) 
-4.553848072189548

>  <r_i_glide_eff_state_penalty>  (1) 
0.038311421959416697

>  <r_i_glide_einternal>  (1) 
8.2795267319360697

>  <r_i_glide_emodel>  (1) 
-47.264985653428852

>  <r_i_glide_emodel_strain>  (1) 
2.9948483163875323

>  <r_i_glide_energy>  (1) 
-38.739747935323642

>  <r_i_glide_erotb>  (1) 
1.0232646033352888

>  <r_i_glide_esite>  (1) 
0

>  <r_i_glide_evdw>  (1) 
-34.185899863134097

>  <r_i_glide_gscore>  (1) 
-6.0223619155312331

>  <r_i_glide_gscore_strain>  (1) 
0

>  <r_i_glide_hbond>  (1) 
-0.075748838474572852

>  <r_i_glide_ligand_efficiency>  (1) 
-0.21371608905613629

>  <r_i_glide_ligand_efficiency_ln>  (1) 
-1.3812945532734806

>  <r_i_glide_ligand_efficiency_sa>  (1) 
-0.64896791914026053

>  <r_i_glide_lipo>  (1) 
-2.6156254253522855

>  <r_i_glide_metal>  (1) 
-0

>  <r_i_glide_rewards>  (1) 
-1.9618800510545258

>  <r_lp_Energy>  (1) 
22.324921

>  <s_epik_cmdline>  (1) 
J2VwaWtfcHl0aG9uJywgJy1waHQnLCAnMS4wJywgJy1waCcsICc3LjQnLCAnLXRuJywgJzgnLCAnLW1hJywgJzUwMCcsICctaW1hZScsICc8aW5maWxlLm1hZT4nLCAnLW9tYWUnLCAnPG91dGZpbGUubWFlPic=

>  <s_epik_input>  (1) 
W0NIM11bQ0gyXVtDSDJdT0MxKFtPSF0pW0NIMl1bQ0BASF0xW0NASF0oW0NIM10pW0NIMl1bQ0BASF0yW0NIMl1bQ0gyXU9bQ0BIXTJjM25jKFtDSDNdKVtjSF1bY0hdYzNbQ0gyXVtDSDJdQyg9TylbT0hd

>  <s_glide_docking_method>  (1) 
confgen

>  <s_i_glide_gridfile>  (1) 
gpcr_5ht2c_6bqh_protein_autoprepared_prepared

>  <s_lp_Force_Field>  (1) 
S-OPLS

>  <s_lp_Variant>  (1) 
DiffSBDD_89-1

>  <s_m_source_file>  (1) 
generated_GPCR_5HT2C_ligand_DiffSBDD_2026-06-23_prepared.sdf

>  <GenAI_Model>  (1) 
DiffSBDD

>  <Protein>  (1) 
GPCR_5HT2C

$$$$
DiffSBDD_15
     RDKit          3D

  0  0  0  0  0  0  0  0  0  0999 V3000
M  V30 BEGIN CTAB
M  V30 COUNTS 75 76 0 0 1
M  V30 BEGIN ATOM
M  V30 1 C 37.957429 33.308216 59.808936 0
M  V30 2 C 39.453276 30.321984 62.907086 0
M  V30 3 N 38.204564 24.537750 55.791214 0
M  V30 4 C 39.641185 29.164684 61.900355 0 CFG=2
M  V30 5 C 42.045128 34.119795 64.010371 0
M  V30 6 C 38.599171 27.489986 55.485815 0
M  V30 7 O 36.138568 23.737758 55.367728 0
M  V30 8 C 39.117993 25.257647 56.669654 0
M  V30 9 C 36.045734 30.266807 59.126298 0
M  V30 10 C 41.552151 31.678647 63.567709 0
M  V30 11 C 36.914544 24.355756 56.088132 0
M  V30 12 O 40.563572 32.602275 68.567745 0
M  V30 13 C 40.993164 28.471080 62.091539 0
M  V30 14 C 39.361792 32.861431 62.634556 0
M  V30 15 C 39.686364 26.505448 55.979640 0
M  V30 16 C 39.372191 29.533383 60.422499 0
M  V30 17 C 40.288165 31.605780 62.647026 0 CFG=2
M  V30 18 C 38.931806 28.945065 55.804872 0
M  V30 19 C 42.074861 35.240625 64.853012 0
M  V30 20 C 37.568808 30.223882 58.968752 0 CFG=2
M  V30 21 C 41.613831 32.876015 64.499270 0
M  V30 22 C 38.076108 31.131407 56.522732 0
M  V30 23 C 39.437611 33.510010 60.143291 0
M  V30 24 C 41.229915 32.746813 65.848241 0
M  V30 25 C 41.263660 33.873358 66.703539 0
M  V30 26 C 39.693180 33.942696 61.588347 0
M  V30 27 O 40.092497 29.337787 55.767821 0
M  V30 28 O 38.118378 30.202629 60.287868 0
M  V30 29 C 41.679010 35.124014 66.196184 0
M  V30 30 C 37.739243 32.808099 58.379613 0
M  V30 31 C 40.859894 33.737854 68.145118 0
M  V30 32 O 40.840742 34.764764 68.858402 0 CHG=-1
M  V30 33 N 37.904045 29.737887 56.129971 0
M  V30 34 C 38.181247 31.350276 58.060997 0 CFG=1
M  V30 35 H 37.443865 34.263228 59.928008 0
M  V30 36 H 37.473129 32.627324 60.504059 0
M  V30 37 H 39.645139 29.957972 63.916609 0
M  V30 38 H 38.386852 30.539997 62.916339 0
M  V30 39 H 38.572360 24.154668 54.931546 0
M  V30 40 H 38.890956 28.415768 62.156402 0
M  V30 41 H 42.349659 34.213695 62.984270 0
M  V30 42 H 38.443822 27.380193 54.412158 0
M  V30 43 H 37.645386 27.259745 55.962003 0
M  V30 44 H 38.639769 25.543245 57.609205 0
M  V30 45 H 39.935551 24.586957 56.939196 0
M  V30 46 H 35.549327 30.137728 58.167826 0
M  V30 47 H 35.708144 29.454474 59.767445 0
M  V30 48 H 35.704193 31.203506 59.565781 0
M  V30 49 H 41.674524 30.769231 64.156280 0
M  V30 50 H 42.443993 31.717610 62.940721 0
M  V30 51 H 36.649357 24.825177 57.047789 0
M  V30 52 H 41.816707 29.179430 62.086115 0
M  V30 53 H 41.025417 27.951022 63.049174 0
M  V30 54 H 41.172907 27.737795 61.306889 0
M  V30 55 H 39.336047 33.320100 63.614778 0
M  V30 56 H 38.323980 32.577960 62.480737 0
M  V30 57 H 40.365364 26.982560 56.689356 0
M  V30 58 H 40.310429 26.208471 55.135117 0
M  V30 59 H 40.176001 30.138205 60.006626 0
M  V30 60 H 39.368704 28.605997 59.848832 0
M  V30 61 H 40.693494 31.509493 61.645307 0
M  V30 62 H 42.403471 36.190120 64.467655 0
M  V30 63 H 37.782720 29.245071 58.542793 0
M  V30 64 H 38.946673 31.573731 56.035113 0
M  V30 65 H 37.245139 31.680541 56.097811 0
M  V30 66 H 39.990102 32.600938 59.940851 0
M  V30 67 H 39.849877 34.262963 59.473478 0
M  V30 68 H 40.903096 31.788655 66.226336 0
M  V30 69 H 40.731072 34.248180 61.663184 0
M  V30 70 H 39.105439 34.836409 61.801359 0
M  V30 71 H 41.702058 35.990781 66.840821 0
M  V30 72 H 38.247865 33.490543 57.697288 0
M  V30 73 H 36.681728 32.937798 58.167764 0
M  V30 74 H 36.968353 29.359536 56.138855 0
M  V30 75 H 39.245111 31.293721 58.244705 0
M  V30 END ATOM
M  V30 BEGIN BOND
M  V30 1 1 4 2
M  V30 2 1 8 3
M  V30 3 1 11 3
M  V30 4 2 11 7
M  V30 5 1 13 4
M  V30 6 1 15 6
M  V30 7 1 15 8
M  V30 8 1 16 4
M  V30 9 1 17 2
M  V30 10 1 17 10
M  V30 11 1 17 14
M  V30 12 1 18 6
M  V30 13 2 19 5
M  V30 14 1 20 9
M  V30 15 1 21 5
M  V30 16 1 21 10
M  V30 17 1 23 1
M  V30 18 2 24 21
M  V30 19 1 25 24
M  V30 20 1 26 14
M  V30 21 1 26 23
M  V30 22 2 27 18
M  V30 23 1 28 16
M  V30 24 1 28 20
M  V30 25 1 29 19
M  V30 26 2 29 25
M  V30 27 1 30 1
M  V30 28 2 31 12
M  V30 29 1 31 25
M  V30 30 1 32 31
M  V30 31 1 33 18
M  V30 32 1 33 22
M  V30 33 1 34 20
M  V30 34 1 34 22
M  V30 35 1 34 30
M  V30 36 1 35 1
M  V30 37 1 36 1
M  V30 38 1 37 2
M  V30 39 1 38 2
M  V30 40 1 39 3
M  V30 41 1 4 40 CFG=1
M  V30 42 1 41 5
M  V30 43 1 42 6
M  V30 44 1 43 6
M  V30 45 1 44 8
M  V30 46 1 45 8
M  V30 47 1 46 9
M  V30 48 1 47 9
M  V30 49 1 48 9
M  V30 50 1 49 10
M  V30 51 1 50 10
M  V30 52 1 51 11
M  V30 53 1 52 13
M  V30 54 1 53 13
M  V30 55 1 54 13
M  V30 56 1 55 14
M  V30 57 1 56 14
M  V30 58 1 57 15
M  V30 59 1 58 15
M  V30 60 1 59 16
M  V30 61 1 60 16
M  V30 62 1 17 61 CFG=3
M  V30 63 1 62 19
M  V30 64 1 20 63 CFG=3
M  V30 65 1 64 22
M  V30 66 1 65 22
M  V30 67 1 66 23
M  V30 68 1 67 23
M  V30 69 1 68 24
M  V30 70 1 69 26
M  V30 71 1 70 26
M  V30 72 1 71 29
M  V30 73 1 72 30
M  V30 74 1 73 30
M  V30 75 1 74 33
M  V30 76 1 34 75 CFG=1
M  V30 END BOND
M  V30 END CTAB
M  END
>  <i_epik_Tot_Q>  (1) 
-1

>  <i_epik_Tot_abs_Q>  (1) 
1

>  <i_i_glide_confnum>  (1) 
3068

>  <i_i_glide_lignum>  (1) 
32

>  <i_i_glide_posenum>  (1) 
257

>  <i_i_glide_rotatable_bonds>  (1) 
11

>  <i_lp_mmshare_version>  (1) 
72125

>  <i_m_source_file_index>  (1) 
16

>  <i_f3d_flags>  (1) 
0

>  <num_sample>  (1) 
100

>  <b_lp_Chiralities_Consistent>  (1) 
1

>  <r_epik_Charging_Adjusted_Penalty>  (1) 
0.00039988353432540339

>  <r_epik_Ionization_Penalty>  (1) 
0.00039992702821499621

>  <r_epik_Ionization_Penalty_Charging>  (1) 
0.00039988353432540339

>  <r_epik_Ionization_Penalty_Neutral>  (1) 
4.349388959280561e-08

>  <r_epik_State_Penalty>  (1) 
-0

>  <r_glide_ring_energy>  (1) 
2.498541724109939

>  <r_i_docking_score>  (1) 
-5.9798398626627289

>  <r_i_glide_ecoul>  (1) 
-2.0399485324468651

>  <r_i_glide_eff_state_penalty>  (1) 
-0

>  <r_i_glide_einternal>  (1) 
9.5121945099588281

>  <r_i_glide_emodel>  (1) 
-45.139229732581029

>  <r_i_glide_emodel_strain>  (1) 
1.8996682324563281

>  <r_i_glide_energy>  (1) 
-44.766297247083649

>  <r_i_glide_erotb>  (1) 
0.81156586864238245

>  <r_i_glide_esite>  (1) 
-0.047710999149370437

>  <r_i_glide_evdw>  (1) 
-42.726348714636785

>  <r_i_glide_gscore>  (1) 
-5.9798398626627289

>  <r_i_glide_gscore_strain>  (1) 
0

>  <r_i_glide_hbond>  (1) 
0

>  <r_i_glide_ligand_efficiency>  (1) 
-0.17587764301949202

>  <r_i_glide_ligand_efficiency_ln>  (1) 
-1.3211143544889905

>  <r_i_glide_ligand_efficiency_sa>  (1) 
-0.56977528790681486

>  <r_i_glide_lipo>  (1) 
-2.8475887106051814

>  <r_i_glide_metal>  (1) 
-0

>  <r_i_glide_rewards>  (1) 
-1.4537963059516903

>  <r_lp_Energy>  (1) 
34.150776999999998

>  <r_lp_tautomer_probability>  (1) 
1

>  <s_epik_cmdline>  (1) 
J2VwaWtfcHl0aG9uJywgJy1waHQnLCAnMS4wJywgJy1waCcsICc3LjQnLCAnLXRuJywgJzgnLCAnLW1hJywgJzUwMCcsICctaW1hZScsICc8aW5maWxlLm1hZT4nLCAnLW9tYWUnLCAnPG91dGZpbGUubWFlPic=

>  <s_epik_input>  (1) 
Tz1bQ0hdW05IXVtDSDJdW0NIMl1bQ0gyXUMoPU8pW05IXVtDSDJdW0NAQEhdKFtDQEhdKFtDSDNdKU9bQ0gyXTEpW0NIMl1bQ0gyXVtDSDJdW0NIMl1bQ0gyXVtDQEhdKFtDSDJdW0NAQEhdMVtDSDNdKVtDSDJdYzJbY0hdW2NIXVtjSF1jKFtjSF0yKUMoPU8pW09IXQ==

>  <s_glide_docking_method>  (1) 
confgen

>  <s_i_glide_gridfile>  (1) 
gpcr_5ht2c_6bqh_protein_autoprepared_prepared

>  <s_lp_Force_Field>  (1) 
S-OPLS

>  <s_lp_Variant>  (1) 
DiffSBDD_15-2

>  <s_m_source_file>  (1) 
generated_GPCR_5HT2C_ligand_DiffSBDD_2026-06-23_prepared.sdf

>  <GenAI_Model>  (1) 
DiffSBDD

>  <Protein>  (1) 
GPCR_5HT2C

$$$$
DiffSBDD_84
     RDKit          3D

  0  0  0  0  0  0  0  0  0  0999 V3000
M  V30 BEGIN CTAB
M  V30 COUNTS 77 81 0 0 1
M  V30 BEGIN ATOM
M  V30 1 C 40.871507 30.549932 63.221569 0
M  V30 2 C 38.972833 26.120257 58.099876 0
M  V30 3 C 39.095128 29.572879 58.874594 0
M  V30 4 C 38.064654 36.180448 62.020849 0
M  V30 5 S 39.263237 33.848251 60.309402 0
M  V30 6 C 37.119180 24.023811 54.771641 0
M  V30 7 C 38.565042 25.777795 55.536554 0
M  V30 8 C 38.341353 32.929714 55.433213 0
M  V30 9 O 37.693210 37.532604 61.915802 0
M  V30 10 C 37.852565 28.906460 56.873146 0
M  V30 11 C 39.717476 26.763420 55.292134 0
M  V30 12 C 38.020762 25.689895 56.981298 0 CFG=1
M  V30 13 C 38.287134 31.325735 57.274752 0
M  V30 14 N 40.861592 29.315370 64.036255 0 CHG=1
M  V30 15 C 39.599333 36.016413 61.879509 0
M  V30 16 C 39.645157 31.403241 63.575717 0
M  V30 17 N 38.074692 25.099961 54.586869 0
M  V30 18 C 38.430710 32.651620 56.805424 0
M  V30 19 N 37.622342 31.812707 60.910802 0
M  V30 20 N 38.869122 28.653798 57.905246 0
M  V30 21 C 36.467388 23.944625 56.149417 0
M  V30 22 C 38.024135 30.300807 56.358090 0
M  V30 23 N 40.014245 34.636828 61.615837 0
M  V30 24 C 40.444599 36.682930 62.987204 0
M  V30 25 C 39.693784 27.425844 57.798239 0 CFG=2
M  V30 26 O 39.808017 29.361670 59.859800 0
M  V30 27 C 37.936302 30.575716 54.979789 0
M  V30 28 O 40.046029 36.265204 64.277258 0
M  V30 29 C 37.443742 24.305210 57.265289 0
M  V30 30 C 38.994382 32.301371 61.210968 0 CFG=2
M  V30 31 C 40.496067 27.300928 56.503820 0
M  V30 32 N 37.337468 31.253174 59.603354 0
M  V30 33 N 40.072582 33.817969 62.828744 0 CHG=1
M  V30 34 C 38.103536 31.891247 54.520324 0
M  V30 35 C 38.470799 30.985427 58.709719 0 CFG=1
M  V30 36 C 39.228801 32.609214 62.681683 0 CFG=2
M  V30 37 H 40.864173 30.247555 62.176693 0
M  V30 38 H 41.797678 31.098866 63.396907 0
M  V30 39 H 39.720690 25.337920 58.240379 0
M  V30 40 H 38.441559 26.204088 59.044959 0
M  V30 41 H 37.710545 35.789427 62.967599 0
M  V30 42 H 37.517120 35.659575 61.234816 0
M  V30 43 H 36.336428 24.133951 54.024741 0
M  V30 44 H 37.618415 23.077712 54.567901 0
M  V30 45 H 38.450119 33.943855 55.081370 0
M  V30 46 H 37.842199 37.944135 62.752779 0
M  V30 47 H 37.796275 28.224668 56.041766 0
M  V30 48 H 36.877967 28.869658 57.367798 0
M  V30 49 H 39.335894 27.596024 54.701987 0
M  V30 50 H 41.576226 28.673489 63.720784 0
M  V30 51 H 41.025876 29.536961 65.008447 0
M  V30 52 H 39.874725 36.538098 60.967259 0
M  V30 53 H 39.736699 31.726700 64.613916 0
M  V30 54 H 38.806746 30.707420 63.551353 0
M  V30 55 H 38.606875 33.455529 57.502762 0
M  V30 56 H 36.941769 32.548768 61.094052 0
M  V30 57 H 35.645126 24.652196 56.167909 0
M  V30 58 H 36.046195 22.947334 56.285780 0
M  V30 59 H 41.509193 36.496132 62.843972 0
M  V30 60 H 40.316070 37.763958 62.939475 0
M  V30 61 H 40.468969 27.481004 58.563600 0
M  V30 62 H 37.741391 29.779349 54.277302 0
M  V30 63 H 40.508847 36.817263 64.899810 0
M  V30 64 H 36.913192 24.321984 58.211048 0
M  V30 65 H 38.243186 23.573006 57.367909 0
M  V30 66 H 39.744157 31.579508 60.911939 0
M  V30 67 H 40.982935 28.245326 56.255464 0
M  V30 68 H 41.305058 26.597813 56.698861 0
M  V30 69 H 36.605865 31.779988 59.124358 0
M  V30 70 H 41.043838 33.576113 62.949439 0
M  V30 71 H 38.043291 32.107530 53.466784 0
M  V30 72 H 39.245178 31.670720 58.935012 0
M  V30 73 H 38.238448 32.937257 62.968691 0
M  V30 74 H 39.781899 34.422029 63.592690 0
M  V30 75 H 37.165136 26.361521 57.019626 0
M  V30 76 H 40.434496 26.278261 54.629178 0
M  V30 77 H 39.952648 28.863991 63.964070 0
M  V30 END ATOM
M  V30 BEGIN BOND
M  V30 1 1 9 4
M  V30 2 1 11 7
M  V30 3 1 12 2
M  V30 4 1 12 7
M  V30 5 1 14 1
M  V30 6 1 15 4
M  V30 7 1 16 1
M  V30 8 1 17 6
M  V30 9 2 17 7
M  V30 10 1 18 8
M  V30 11 2 18 13
M  V30 12 1 20 3
M  V30 13 1 20 10
M  V30 14 1 21 6
M  V30 15 1 22 10
M  V30 16 1 22 13
M  V30 17 1 23 5
M  V30 18 1 23 15
M  V30 19 1 24 15
M  V30 20 1 25 2
M  V30 21 1 25 20
M  V30 22 2 26 3
M  V30 23 2 27 22
M  V30 24 1 28 24
M  V30 25 1 29 12
M  V30 26 1 29 21
M  V30 27 1 30 5
M  V30 28 1 30 19
M  V30 29 1 31 11
M  V30 30 1 31 25
M  V30 31 1 32 19
M  V30 32 1 33 23
M  V30 33 2 34 8
M  V30 34 1 34 27
M  V30 35 1 35 3
M  V30 36 1 35 13
M  V30 37 1 35 32
M  V30 38 1 36 16
M  V30 39 1 36 30
M  V30 40 1 36 33
M  V30 41 1 37 1
M  V30 42 1 38 1
M  V30 43 1 39 2
M  V30 44 1 40 2
M  V30 45 1 41 4
M  V30 46 1 42 4
M  V30 47 1 43 6
M  V30 48 1 44 6
M  V30 49 1 45 8
M  V30 50 1 46 9
M  V30 51 1 47 10
M  V30 52 1 48 10
M  V30 53 1 49 11
M  V30 54 1 50 14
M  V30 55 1 51 14
M  V30 56 1 52 15
M  V30 57 1 53 16
M  V30 58 1 54 16
M  V30 59 1 55 18
M  V30 60 1 56 19
M  V30 61 1 57 21
M  V30 62 1 58 21
M  V30 63 1 59 24
M  V30 64 1 60 24
M  V30 65 1 25 61 CFG=1
M  V30 66 1 62 27
M  V30 67 1 63 28
M  V30 68 1 64 29
M  V30 69 1 65 29
M  V30 70 1 30 66 CFG=3
M  V30 71 1 67 31
M  V30 72 1 68 31
M  V30 73 1 69 32
M  V30 74 1 70 33
M  V30 75 1 71 34
M  V30 76 1 35 72 CFG=1
M  V30 77 1 36 73 CFG=1
M  V30 78 1 74 33
M  V30 79 1 12 75 CFG=3
M  V30 80 1 76 11
M  V30 81 1 77 14
M  V30 END BOND
M  V30 END CTAB
M  END
>  <i_epik_Tot_Q>  (1) 
2

>  <i_epik_Tot_abs_Q>  (1) 
2

>  <i_i_glide_confnum>  (1) 
1512

>  <i_i_glide_lignum>  (1) 
201

>  <i_i_glide_posenum>  (1) 
11

>  <i_i_glide_rotatable_bonds>  (1) 
11

>  <i_lp_mmshare_version>  (1) 
72125

>  <i_m_source_file_index>  (1) 
85

>  <i_f3d_flags>  (1) 
0

>  <num_sample>  (1) 
100

>  <b_lp_Chiralities_Consistent>  (1) 
1

>  <r_epik_Charging_Adjusted_Penalty>  (1) 
0.034284474231679775

>  <r_epik_Ionization_Penalty>  (1) 
0.42650113434003467

>  <r_epik_Ionization_Penalty_Charging>  (1) 
0.012847136256187231

>  <r_epik_Ionization_Penalty_Neutral>  (1) 
0.41365399808384745

>  <r_epik_State_Penalty>  (1) 
0.021437337975492542

>  <r_glide_ring_energy>  (1) 
0.1194441774127866

>  <r_i_docking_score>  (1) 
-5.9797239712366688

>  <r_i_glide_ecoul>  (1) 
-4.6332106362838115

>  <r_i_glide_eff_state_penalty>  (1) 
0.021437337975492542

>  <r_i_glide_einternal>  (1) 
21.07721366728525

>  <r_i_glide_emodel>  (1) 
-51.973432800969668

>  <r_i_glide_emodel_strain>  (1) 
8.1779208265601682

>  <r_i_glide_energy>  (1) 
-48.203185935880363

>  <r_i_glide_erotb>  (1) 
0.60855438394346106

>  <r_i_glide_esite>  (1) 
-0.090045170003992259

>  <r_i_glide_evdw>  (1) 
-43.56997529959655

>  <r_i_glide_gscore>  (1) 
-6.0011613092121614

>  <r_i_glide_gscore_strain>  (1) 
1.044480206640042

>  <r_i_glide_hbond>  (1) 
-0.16338461464609844

>  <r_i_glide_ligand_efficiency>  (1) 
-0.16610344364546303

>  <r_i_glide_ligand_efficiency_ln>  (1) 
-1.3046142170519426

>  <r_i_glide_ligand_efficiency_sa>  (1) 
-0.54846148670818751

>  <r_i_glide_lipo>  (1) 
-3.2130959109851105

>  <r_i_glide_metal>  (1) 
-0

>  <r_i_glide_rewards>  (1) 
-1.3141898437380639

>  <r_lp_Energy>  (1) 
46.704704999999997

>  <r_lp_tautomer_probability>  (1) 
0.99998399999999998

>  <s_epik_Chemistry_Notes>  (1) 
This compound has an imine and may undergo hydrolysis. This compound contains an acetal/aminal-like group ( X-CH(R)-Y where X, Y are N, S, or O) that may be acid/base labile, releasing an aldehyde. This compound has a N-S or N-O group and may undergo hydrolysis at high or low pH.

>  <s_epik_cmdline>  (1) 
J2VwaWtfcHl0aG9uJywgJy1waHQnLCAnMS4wJywgJy1waCcsICc3LjQnLCAnLXRuJywgJzgnLCAnLW1hJywgJzUwMCcsICctaW1hZScsICc8aW5maWxlLm1hZT4nLCAnLW9tYWUnLCAnPG91dGZpbGUubWFlPic=

>  <s_epik_input>  (1) 
W09IXVtDSDJdW0NIXShbQ0gyXVtPSF0pTjFTW0NASF0oW0NASF0oW05IXTEpW0NIMl1bQ0gyXVtOSDJdKVtOSF1bTkhdW0NASF0yQyg9TylOKFtDSDJdYyhjMjMpW2NIXVtjSF1bY0hdW2NIXTMpW0NASF0oW0NIMl1bQ0gyXTQpW0NIMl1DKD1DNDUpW0NIMl1bQ0gyXVtDSDJdW05IXTU=

>  <s_glide_docking_method>  (1) 
confgen

>  <s_i_glide_gridfile>  (1) 
gpcr_5ht2c_6bqh_protein_autoprepared_prepared

>  <s_lp_Force_Field>  (1) 
S-OPLS

>  <s_lp_Variant>  (1) 
DiffSBDD_84-4

>  <s_m_source_file>  (1) 
generated_GPCR_5HT2C_ligand_DiffSBDD_2026-06-23_prepared.sdf

>  <GenAI_Model>  (1) 
DiffSBDD

>  <Protein>  (1) 
GPCR_5HT2C

$$$$
DiffSBDD_26
     RDKit          3D

  0  0  0  0  0  0  0  0  0  0999 V3000
M  V30 BEGIN CTAB
M  V30 COUNTS 63 67 0 0 1
M  V30 BEGIN ATOM
M  V30 1 C 36.845255 30.947054 58.783280 0 CFG=1
M  V30 2 C 38.076963 27.082743 57.109983 0
M  V30 3 O 38.445521 25.695230 58.967543 0
M  V30 4 C 39.968909 28.683095 50.909238 0
M  V30 5 N 38.542044 32.498565 60.851438 0
M  V30 6 C 38.062034 28.333044 57.692954 0
M  V30 7 C 37.759870 27.906225 54.900732 0
M  V30 8 C 37.753053 29.248446 55.416669 0
M  V30 9 C 38.042027 33.064598 59.600916 0 CFG=1
M  V30 10 C 38.246766 25.823242 57.791228 0
M  V30 11 O 40.908778 34.984581 62.784058 0
M  V30 12 O 37.296338 30.182408 59.887804 0
M  V30 13 C 40.437669 31.234436 62.621564 0
M  V30 14 C 40.135396 32.751359 62.501060 0 CFG=1
M  V30 15 C 41.726872 33.531391 64.425433 0
M  V30 16 C 39.104372 31.489491 57.783177 0
M  V30 17 N 38.892250 30.611538 53.711730 0
M  V30 18 C 38.592656 28.417365 52.602350 0
M  V30 19 C 41.326488 33.642393 62.936295 0 CFG=2
M  V30 20 C 39.157346 29.655544 52.709301 0
M  V30 21 C 37.860253 29.457534 56.858819 0
M  V30 22 O 37.725413 24.817817 54.567667 0
M  V30 23 C 38.985113 32.923636 58.381029 0
M  V30 24 C 37.645936 30.414847 54.451625 0
M  V30 25 C 37.910042 26.864028 55.834578 0
M  V30 26 C 36.684933 32.399553 59.308899 0
M  V30 27 C 40.040695 29.841918 51.634178 0
M  V30 28 N 38.136454 24.854141 56.839274 0
M  V30 29 O 42.439245 32.351539 64.736050 0
M  V30 30 C 37.758961 30.864370 57.495725 0 CFG=1
M  V30 31 C 37.914548 25.398276 55.611553 0
M  V30 32 O 39.089774 27.789727 51.489049 0
M  V30 33 C 37.606240 27.644454 53.405109 0
M  V30 34 O 39.855558 33.029188 61.125442 0
M  V30 35 H 35.854245 30.548733 58.565390 0
M  V30 36 H 40.445137 28.333383 50.008036 0
M  V30 37 H 38.665109 31.499961 60.735053 0
M  V30 38 H 38.192291 28.435201 58.753243 0
M  V30 39 H 37.880313 34.127914 59.795461 0
M  V30 40 H 41.638561 35.559580 62.954261 0
M  V30 41 H 36.583168 30.111596 60.502626 0
M  V30 42 H 40.626824 30.928403 63.650024 0
M  V30 43 H 39.621848 30.605454 62.263538 0
M  V30 44 H 41.319594 30.971800 62.040250 0
M  V30 45 H 39.269255 33.003086 63.114011 0
M  V30 46 H 40.841606 33.602392 65.057239 0
M  V30 47 H 42.373585 34.366931 64.695783 0
M  V30 48 H 39.650243 31.538116 56.839514 0
M  V30 49 H 39.634035 30.792840 58.437566 0
M  V30 50 H 39.203820 31.562674 53.562091 0
M  V30 51 H 42.186986 33.452941 62.299295 0
M  V30 52 H 38.590345 33.573436 57.599841 0
M  V30 53 H 39.957979 33.338109 58.627951 0
M  V30 54 H 36.845262 30.171561 53.768043 0
M  V30 55 H 37.362277 31.371615 54.867428 0
M  V30 56 H 36.028754 32.435622 60.179561 0
M  V30 57 H 36.163891 32.996699 58.568090 0
M  V30 58 H 40.644493 30.706277 51.406228 0
M  V30 59 H 38.199726 23.867159 57.026037 0
M  V30 60 H 42.572588 32.310787 65.672294 0
M  V30 61 H 37.312383 31.532382 56.780691 0
M  V30 62 H 37.713850 26.605794 53.118722 0
M  V30 63 H 36.591156 27.914523 53.111620 0
M  V30 END ATOM
M  V30 BEGIN BOND
M  V30 1 2 6 2
M  V30 2 1 8 7
M  V30 3 1 9 5
M  V30 4 1 10 2
M  V30 5 2 10 3
M  V30 6 1 12 1
M  V30 7 1 14 13
M  V30 8 1 19 11
M  V30 9 1 19 14
M  V30 10 1 19 15
M  V30 11 1 20 17
M  V30 12 2 20 18
M  V30 13 1 21 6
M  V30 14 2 21 8
M  V30 15 1 23 9
M  V30 16 1 23 16
M  V30 17 1 24 8
M  V30 18 1 24 17
M  V30 19 1 25 2
M  V30 20 2 25 7
M  V30 21 1 26 1
M  V30 22 1 26 9
M  V30 23 2 27 4
M  V30 24 1 27 20
M  V30 25 1 28 10
M  V30 26 1 29 15
M  V30 27 1 30 1
M  V30 28 1 30 16
M  V30 29 1 30 21
M  V30 30 2 31 22
M  V30 31 1 31 25
M  V30 32 1 31 28
M  V30 33 1 32 4
M  V30 34 1 32 18
M  V30 35 1 33 7
M  V30 36 1 33 18
M  V30 37 1 34 5
M  V30 38 1 34 14
M  V30 39 1 1 35 CFG=3
M  V30 40 1 36 4
M  V30 41 1 37 5
M  V30 42 1 38 6
M  V30 43 1 9 39 CFG=1
M  V30 44 1 40 11
M  V30 45 1 41 12
M  V30 46 1 42 13
M  V30 47 1 43 13
M  V30 48 1 44 13
M  V30 49 1 14 45 CFG=1
M  V30 50 1 46 15
M  V30 51 1 47 15
M  V30 52 1 48 16
M  V30 53 1 49 16
M  V30 54 1 50 17
M  V30 55 1 19 51 CFG=3
M  V30 56 1 52 23
M  V30 57 1 53 23
M  V30 58 1 54 24
M  V30 59 1 55 24
M  V30 60 1 56 26
M  V30 61 1 57 26
M  V30 62 1 58 27
M  V30 63 1 59 28
M  V30 64 1 60 29
M  V30 65 1 30 61 CFG=3
M  V30 66 1 62 33
M  V30 67 1 63 33
M  V30 END BOND
M  V30 END CTAB
M  END
>  <i_epik_Tot_Q>  (1) 
0

>  <i_epik_Tot_abs_Q>  (1) 
0

>  <i_i_glide_confnum>  (1) 
411

>  <i_i_glide_lignum>  (1) 
67

>  <i_i_glide_posenum>  (1) 
37

>  <i_i_glide_rotatable_bonds>  (1) 
9

>  <i_lp_mmshare_version>  (1) 
72125

>  <i_m_source_file_index>  (1) 
27

>  <i_f3d_flags>  (1) 
0

>  <num_sample>  (1) 
100

>  <b_lp_Chiralities_Consistent>  (1) 
1

>  <r_epik_Charging_Adjusted_Penalty>  (1) 
0.011663948100313749

>  <r_epik_Ionization_Penalty>  (1) 
0.013971723249614831

>  <r_epik_Ionization_Penalty_Charging>  (1) 
0

>  <r_epik_Ionization_Penalty_Neutral>  (1) 
0.013971723249614831

>  <r_epik_State_Penalty>  (1) 
0.011663948100313749

>  <r_glide_ring_energy>  (1) 
1.4878355022131675

>  <r_i_docking_score>  (1) 
-5.9615365229801807

>  <r_i_glide_ecoul>  (1) 
-2.2111212093399355

>  <r_i_glide_eff_state_penalty>  (1) 
0.011663948100313749

>  <r_i_glide_einternal>  (1) 
11.033543799886438

>  <r_i_glide_emodel>  (1) 
-39.908053034476566

>  <r_i_glide_emodel_strain>  (1) 
0.87850008087548304

>  <r_i_glide_energy>  (1) 
-34.780872581277805

>  <r_i_glide_erotb>  (1) 
0.54550006929946782

>  <r_i_glide_esite>  (1) 
0

>  <r_i_glide_evdw>  (1) 
-32.569751371937869

>  <r_i_glide_gscore>  (1) 
-5.973200471080494

>  <r_i_glide_gscore_strain>  (1) 
0

>  <r_i_glide_hbond>  (1) 
0

>  <r_i_glide_ligand_efficiency>  (1) 
-0.17533930949941709

>  <r_i_glide_ligand_efficiency_ln>  (1) 
-1.3170706333618272

>  <r_i_glide_ligand_efficiency_sa>  (1) 
-0.56803129628215676

>  <r_i_glide_lipo>  (1) 
-2.9024326295620075

>  <r_i_glide_metal>  (1) 
-0

>  <r_i_glide_rewards>  (1) 
-1.6561121608200704

>  <r_lp_Energy>  (1) 
55.099730999999998

>  <r_lp_tautomer_probability>  (1) 
0.99894395353395549

>  <s_epik_Chemistry_Notes>  (1) 
This compound has a N-S or N-O group and may undergo hydrolysis at high or low pH.

>  <s_epik_cmdline>  (1) 
J2VwaWtfcHl0aG9uJywgJy1waHQnLCAnMS4wJywgJy1waCcsICc3LjQnLCAnLXRuJywgJzgnLCAnLW1hJywgJzUwMCcsICctaW1hZScsICc8aW5maWxlLm1hZT4nLCAnLW9tYWUnLCAnPG91dGZpbGUubWFlPic=

>  <s_epik_input>  (1) 
W09IXVtDSDJdW0NASF0oW09IXSlbQ0BIXShbQ0gzXSlPW05IXVtDQEhdKFtDSDJdW0NAQEhdMVtPSF0pW0NIMl1bQ0gyXVtDQEhdMWMoW2NIXTIpYyhjM2MoYzI0KUMoPU8pW05IXUM0PU8pW0NIMl1bTkhdYzVjKFtDSDJdMylvW2NIXVtjSF01

>  <s_glide_docking_method>  (1) 
confgen

>  <s_i_glide_gridfile>  (1) 
gpcr_5ht2c_6bqh_protein_autoprepared_prepared

>  <s_lp_Force_Field>  (1) 
S-OPLS

>  <s_lp_Variant>  (1) 
DiffSBDD_26-1

>  <s_m_source_file>  (1) 
generated_GPCR_5HT2C_ligand_DiffSBDD_2026-06-23_prepared.sdf

>  <GenAI_Model>  (1) 
DiffSBDD

>  <Protein>  (1) 
GPCR_5HT2C

$$$$
DiffSBDD_22
     RDKit          3D

  0  0  0  0  0  0  0  0  0  0999 V3000
M  V30 BEGIN CTAB
M  V30 COUNTS 47 50 0 0 1
M  V30 BEGIN ATOM
M  V30 1 C 40.440263 29.993650 50.949420 0
M  V30 2 C 40.186199 29.287963 60.944636 0
M  V30 3 C 38.543057 30.335558 54.161290 0
M  V30 4 F 38.862748 29.477063 60.841568 0
M  V30 5 N 39.317840 29.784593 53.032030 0 CFG=1 CHG=1
M  V30 6 C 38.589125 28.886762 52.109787 0 CFG=1
M  V30 7 C 39.391018 28.909616 50.830953 0 CFG=2
M  V30 8 O 40.045162 29.055518 55.536052 0
M  V30 9 O 38.845139 31.583325 57.559933 0
M  V30 10 N 40.373375 27.291815 57.076219 0
M  V30 11 O 36.655681 30.137756 58.167769 0
M  V30 12 C 38.682603 29.146864 57.400325 0 CFG=1
M  V30 13 C 39.415646 30.341783 55.435598 0 CFG=2
M  V30 14 C 41.456283 28.833122 58.762952 0
M  V30 15 N 40.845160 29.976139 61.767652 0
M  V30 16 C 40.033085 30.772189 52.205080 0
M  V30 17 C 41.622213 27.831779 57.606651 0
M  V30 18 C 39.355532 27.664200 51.699969 0
M  V30 19 C 37.371164 29.723118 57.025357 0 CFG=2
M  V30 20 C 39.444862 28.226728 56.491864 0 CFG=1
M  V30 21 C 40.847031 28.245259 60.057493 0
M  V30 22 C 38.621835 30.478686 56.714894 0 CFG=2
M  V30 23 H 40.457954 30.628788 50.062244 0
M  V30 24 H 41.420338 29.528297 51.059312 0
M  V30 25 H 37.676569 29.692472 54.295125 0
M  V30 26 H 38.155542 31.331831 53.942126 0
M  V30 27 H 37.503128 28.937680 52.067649 0
M  V30 28 H 38.859536 28.847540 49.885100 0
M  V30 29 H 38.120461 31.594713 58.173488 0
M  V30 30 H 39.927315 26.714738 57.775203 0
M  V30 31 H 36.033788 30.805006 57.847922 0
M  V30 32 H 38.838951 29.060541 58.465168 0
M  V30 33 H 40.185532 31.112168 55.374187 0
M  V30 34 H 40.911538 29.711927 58.430461 0
M  V30 35 H 42.445127 29.223145 58.967689 0
M  V30 36 H 40.252515 30.611001 62.284335 0
M  V30 37 H 39.373907 31.595646 51.934739 0
M  V30 38 H 40.845184 31.223357 52.757129 0
M  V30 39 H 42.165308 28.311411 56.792197 0
M  V30 40 H 42.244470 26.997181 57.932199 0
M  V30 41 H 38.784060 26.819121 51.321862 0
M  V30 42 H 40.232750 27.397581 52.281165 0
M  V30 43 H 36.841915 29.337756 56.183793 0
M  V30 44 H 38.712051 27.632203 55.943857 0
M  V30 45 H 40.021482 29.201831 53.465732 0
M  V30 46 H 41.622500 27.737720 60.628561 0
M  V30 47 H 40.096321 27.491890 59.818504 0
M  V30 END ATOM
M  V30 BEGIN BOND
M  V30 1 1 4 2
M  V30 2 1 5 3
M  V30 3 1 6 5
M  V30 4 1 7 1
M  V30 5 1 7 6
M  V30 6 1 13 3
M  V30 7 1 13 8
M  V30 8 2 15 2
M  V30 9 1 16 1
M  V30 10 1 16 5
M  V30 11 1 17 10
M  V30 12 1 17 14
M  V30 13 1 18 6
M  V30 14 1 18 7
M  V30 15 1 19 11
M  V30 16 1 19 12
M  V30 17 1 20 8
M  V30 18 1 20 10
M  V30 19 1 20 12
M  V30 20 1 21 2
M  V30 21 1 21 14
M  V30 22 1 22 9 CFG=1
M  V30 23 1 22 12
M  V30 24 1 22 13
M  V30 25 1 22 19
M  V30 26 1 23 1
M  V30 27 1 24 1
M  V30 28 1 25 3
M  V30 29 1 26 3
M  V30 30 1 6 27 CFG=3
M  V30 31 1 7 28 CFG=3
M  V30 32 1 29 9
M  V30 33 1 30 10
M  V30 34 1 31 11
M  V30 35 1 12 32 CFG=1
M  V30 36 1 13 33 CFG=3
M  V30 37 1 34 14
M  V30 38 1 35 14
M  V30 39 1 36 15
M  V30 40 1 37 16
M  V30 41 1 38 16
M  V30 42 1 39 17
M  V30 43 1 40 17
M  V30 44 1 41 18
M  V30 45 1 42 18
M  V30 46 1 19 43 CFG=3
M  V30 47 1 20 44 CFG=3
M  V30 48 1 5 45 CFG=1
M  V30 49 1 46 21
M  V30 50 1 47 21
M  V30 END BOND
M  V30 END CTAB
M  END
>  <i_epik_Tot_Q>  (1) 
1

>  <i_epik_Tot_abs_Q>  (1) 
1

>  <i_i_glide_confnum>  (1) 
223

>  <i_i_glide_lignum>  (1) 
54

>  <i_i_glide_posenum>  (1) 
258

>  <i_i_glide_rotatable_bonds>  (1) 
9

>  <i_lp_mmshare_version>  (1) 
72125

>  <i_m_source_file_index>  (1) 
23

>  <i_f3d_flags>  (1) 
0

>  <num_sample>  (1) 
100

>  <b_lp_Chiralities_Consistent>  (1) 
1

>  <r_epik_Charging_Adjusted_Penalty>  (1) 
0.69687758696528612

>  <r_epik_Ionization_Penalty>  (1) 
0.32102159834462574

>  <r_epik_Ionization_Penalty_Charging>  (1) 
0.0068758800046254996

>  <r_epik_Ionization_Penalty_Neutral>  (1) 
0.31414571834000021

>  <r_epik_State_Penalty>  (1) 
0.69000170696066065

>  <r_glide_ring_energy>  (1) 
1.6455033096424496

>  <r_i_docking_score>  (1) 
-5.9574215431512458

>  <r_i_glide_ecoul>  (1) 
-9.9829905462601509

>  <r_i_glide_eff_state_penalty>  (1) 
0.69000170696066065

>  <r_i_glide_einternal>  (1) 
7.3858100067934727

>  <r_i_glide_emodel>  (1) 
-37.672379572949161

>  <r_i_glide_emodel_strain>  (1) 
1.8028667689599871

>  <r_i_glide_energy>  (1) 
-32.848017470546196

>  <r_i_glide_erotb>  (1) 
1.3164448029953435

>  <r_i_glide_esite>  (1) 
0

>  <r_i_glide_evdw>  (1) 
-22.865026924286042

>  <r_i_glide_gscore>  (1) 
-6.6474232501119062

>  <r_i_glide_gscore_strain>  (1) 
0

>  <r_i_glide_hbond>  (1) 
-0.45599999999999996

>  <r_i_glide_ligand_efficiency>  (1) 
-0.27079188832505663

>  <r_i_glide_ligand_efficiency_ln>  (1) 
-1.4562111273767957

>  <r_i_glide_ligand_efficiency_sa>  (1) 
-0.75876952150925014

>  <r_i_glide_lipo>  (1) 
-2.4243888630169455

>  <r_i_glide_metal>  (1) 
-0

>  <r_i_glide_rewards>  (1) 
-2.4427792619369804

>  <r_lp_Energy>  (1) 
10.052434999999999

>  <r_lp_tautomer_probability>  (1) 
0.49999300000000002

>  <s_epik_Chemistry_Notes>  (1) 
This compound has an imine and may undergo hydrolysis. This compound contains an acetal/aminal-like group ( X-CH(R)-Y where X, Y are N, S, or O) that may be acid/base labile, releasing an aldehyde.

>  <s_epik_cmdline>  (1) 
J2VwaWtfcHl0aG9uJywgJy1waHQnLCAnMS4wJywgJy1waCcsICc3LjQnLCAnLXRuJywgJzgnLCAnLW1hJywgJzUwMCcsICctaW1hZScsICc8aW5maWxlLm1hZT4nLCAnLW9tYWUnLCAnPG91dGZpbGUubWFlPic=

>  <s_epik_input>  (1) 
W0NAQEhdMTJbQ0BIXShbQ0gyXTIpW0NIMl1bQ0gyXU4xW0NIMl1bQ0BASF0zT1tDQEhdKFtDSF0oW0NASF00W09IXSlbQ0BAXTM0W09IXSlbTkhdW0NIMl1bQ0gyXVxbQ0hdPUMoXEYpW05IMl0=

>  <s_glide_docking_method>  (1) 
confgen

>  <s_i_glide_gridfile>  (1) 
gpcr_5ht2c_6bqh_protein_autoprepared_prepared

>  <s_lp_Force_Field>  (1) 
S-OPLS

>  <s_lp_Variant>  (1) 
DiffSBDD_22-2

>  <s_m_source_file>  (1) 
generated_GPCR_5HT2C_ligand_DiffSBDD_2026-06-23_prepared.sdf

>  <GenAI_Model>  (1) 
DiffSBDD

>  <Protein>  (1) 
GPCR_5HT2C

$$$$
DiffSBDD_39
     RDKit          3D

  0  0  0  0  0  0  0  0  0  0999 V3000
M  V30 BEGIN CTAB
M  V30 COUNTS 44 46 0 0 1
M  V30 BEGIN ATOM
M  V30 1 C 39.147221 29.159168 53.113621 0
M  V30 2 C 38.904928 32.599680 61.711807 0
M  V30 3 C 37.975419 31.194385 58.342914 0
M  V30 4 O 38.124825 31.557702 62.167759 0
M  V30 5 O 39.645647 29.726654 52.141538 0
M  V30 6 C 39.472965 29.768658 61.537432 0 CFG=2
M  V30 7 C 39.033998 27.739047 58.749282 0
M  V30 8 C 39.593267 28.883038 55.576847 0
M  V30 9 O 40.705848 29.403950 60.948089 0
M  V30 10 C 39.065066 29.838150 54.489554 0 CFG=1
M  V30 11 N 38.414764 30.127002 60.535794 0
M  V30 12 O 37.173629 27.805886 52.968051 0
M  V30 13 C 38.676275 30.069843 59.113363 0 CFG=1
M  V30 14 C 38.837023 27.540270 55.563940 0 CFG=1
M  V30 15 C 39.017126 26.854703 54.192971 0
M  V30 16 O 38.215217 28.882160 58.539660 0
M  V30 17 C 39.140705 31.169025 61.198793 0 CFG=2
M  V30 18 O 39.348444 26.653569 56.553836 0
M  V30 19 C 39.765453 31.206011 54.525025 0
M  V30 20 C 38.581184 27.740652 53.004146 0 CFG=2
M  V30 21 C 38.630967 26.611629 57.785635 0
M  V30 22 H 39.610099 33.007688 62.432129 0
M  V30 23 H 38.401132 33.309565 61.059241 0
M  V30 24 H 38.380613 32.162035 58.635512 0
M  V30 25 H 38.110132 31.070653 57.269461 0
M  V30 26 H 36.907839 31.182035 58.566738 0
M  V30 27 H 39.243404 29.359327 62.519958 0
M  V30 28 H 38.894753 27.402634 59.774999 0
M  V30 29 H 40.093840 27.963793 58.620551 0
M  V30 30 H 40.659291 28.708991 55.441581 0
M  V30 31 H 39.505247 29.364951 56.543840 0
M  V30 32 H 40.874212 28.495907 61.155595 0
M  V30 33 H 38.004417 30.009259 54.679162 0
M  V30 34 H 36.845166 26.975488 52.647485 0
M  V30 35 H 39.742362 30.137231 58.903646 0
M  V30 36 H 37.771800 27.719717 55.721889 0
M  V30 37 H 38.464122 25.914693 54.177925 0
M  V30 38 H 40.065396 26.579775 54.065106 0
M  V30 39 H 39.344382 31.866888 53.767773 0
M  V30 40 H 39.629616 31.696633 55.488542 0
M  V30 41 H 40.837503 31.116793 54.343951 0
M  V30 42 H 38.926213 27.300705 52.068062 0
M  V30 43 H 37.551106 26.565935 57.636568 0
M  V30 44 H 38.905610 25.664033 58.249293 0
M  V30 END ATOM
M  V30 BEGIN BOND
M  V30 1 1 4 2
M  V30 2 2 5 1
M  V30 3 1 9 6
M  V30 4 1 10 1
M  V30 5 1 10 8
M  V30 6 1 11 6
M  V30 7 1 13 3
M  V30 8 1 13 11
M  V30 9 1 14 8
M  V30 10 1 15 14
M  V30 11 1 16 7
M  V30 12 1 16 13
M  V30 13 1 17 2
M  V30 14 1 17 4 CFG=1
M  V30 15 1 17 6
M  V30 16 1 17 11
M  V30 17 1 18 14
M  V30 18 1 19 10
M  V30 19 1 20 1
M  V30 20 1 20 12
M  V30 21 1 20 15
M  V30 22 1 21 7
M  V30 23 1 21 18
M  V30 24 1 22 2
M  V30 25 1 23 2
M  V30 26 1 24 3
M  V30 27 1 25 3
M  V30 28 1 26 3
M  V30 29 1 6 27 CFG=1
M  V30 30 1 28 7
M  V30 31 1 29 7
M  V30 32 1 30 8
M  V30 33 1 31 8
M  V30 34 1 32 9
M  V30 35 1 10 33 CFG=1
M  V30 36 1 34 12
M  V30 37 1 13 35 CFG=1
M  V30 38 1 14 36 CFG=1
M  V30 39 1 37 15
M  V30 40 1 38 15
M  V30 41 1 39 19
M  V30 42 1 40 19
M  V30 43 1 41 19
M  V30 44 1 20 42 CFG=3
M  V30 45 1 43 21
M  V30 46 1 44 21
M  V30 END BOND
M  V30 END CTAB
M  END
>  <i_epik_Tot_Q>  (1) 
0

>  <i_epik_Tot_abs_Q>  (1) 
0

>  <i_i_glide_confnum>  (1) 
170

>  <i_i_glide_lignum>  (1) 
87

>  <i_i_glide_posenum>  (1) 
265

>  <i_i_glide_rotatable_bonds>  (1) 
8

>  <i_lp_mmshare_version>  (1) 
72125

>  <i_m_source_file_index>  (1) 
40

>  <i_f3d_flags>  (1) 
0

>  <num_sample>  (1) 
100

>  <b_lp_Chiralities_Consistent>  (1) 
1

>  <r_epik_Charging_Adjusted_Penalty>  (1) 
0

>  <r_epik_Ionization_Penalty>  (1) 
7.7229051731594394e-07

>  <r_epik_Ionization_Penalty_Charging>  (1) 
0

>  <r_epik_Ionization_Penalty_Neutral>  (1) 
7.7229051731594394e-07

>  <r_epik_State_Penalty>  (1) 
-0

>  <r_glide_ring_energy>  (1) 
0

>  <r_i_docking_score>  (1) 
-5.9547318143926526

>  <r_i_glide_ecoul>  (1) 
-5.9524108579842148

>  <r_i_glide_eff_state_penalty>  (1) 
-0

>  <r_i_glide_einternal>  (1) 
6.5716435352783584

>  <r_i_glide_emodel>  (1) 
-43.939071073612794

>  <r_i_glide_emodel_strain>  (1) 
0.063570158102969287

>  <r_i_glide_energy>  (1) 
-33.450314879481454

>  <r_i_glide_erotb>  (1) 
1.2154630782883253

>  <r_i_glide_esite>  (1) 
0

>  <r_i_glide_evdw>  (1) 
-27.497904021497241

>  <r_i_glide_gscore>  (1) 
-5.9547318143926526

>  <r_i_glide_gscore_strain>  (1) 
0

>  <r_i_glide_hbond>  (1) 
-0.57191907275818343

>  <r_i_glide_ligand_efficiency>  (1) 
-0.28355865782822154

>  <r_i_glide_ligand_efficiency_ln>  (1) 
-1.4722954084399758

>  <r_i_glide_ligand_efficiency_sa>  (1) 
-0.78231683650446227

>  <r_i_glide_lipo>  (1) 
-2.0927496343163225

>  <r_i_glide_metal>  (1) 
-0

>  <r_i_glide_rewards>  (1) 
-2.2377693558339775

>  <r_lp_Energy>  (1) 
17.348379999999999

>  <r_lp_tautomer_probability>  (1) 
1

>  <s_epik_Chemistry_Notes>  (1) 
This compound contains an acetal/aminal-like group ( X-CH(R)-Y where X, Y are N, S, or O) that may be acid/base labile, releasing an aldehyde.

>  <s_epik_cmdline>  (1) 
J2VwaWtfcHl0aG9uJywgJy1waHQnLCAnMS4wJywgJy1waCcsICc3LjQnLCAnLXRuJywgJzgnLCAnLW1hJywgJzUwMCcsICctaW1hZScsICc8aW5maWxlLm1hZT4nLCAnLW9tYWUnLCAnPG91dGZpbGUubWFlPic=

>  <s_epik_input>  (1) 
Tz1DMVtDQEBIXShbQ0gzXSlbQ0gyXVtDQEBIXShbQ0gyXVtDQEhdMVtPSF0pT1tDSDJdW0NIMl1PW0NAQEhdKFtDSDNdKU4yW0NAQEhdKFtPSF0pQzIzW0NIMl1PMw==

>  <s_glide_docking_method>  (1) 
confgen

>  <s_i_glide_gridfile>  (1) 
gpcr_5ht2c_6bqh_protein_autoprepared_prepared

>  <s_lp_Force_Field>  (1) 
S-OPLS

>  <s_lp_Variant>  (1) 
DiffSBDD_39-2

>  <s_m_source_file>  (1) 
generated_GPCR_5HT2C_ligand_DiffSBDD_2026-06-23_prepared.sdf

>  <GenAI_Model>  (1) 
DiffSBDD

>  <Protein>  (1) 
GPCR_5HT2C

$$$$
DiffSBDD_86
     RDKit          3D

  0  0  0  0  0  0  0  0  0  0999 V3000
M  V30 BEGIN CTAB
M  V30 COUNTS 78 80 0 0 1
M  V30 BEGIN ATOM
M  V30 1 C 41.849015 28.472654 66.168220 0
M  V30 2 C 37.551570 33.108766 58.648928 0
M  V30 3 C 40.146645 27.924246 59.442462 0 CFG=2
M  V30 4 C 36.631039 34.025866 59.460599 0
M  V30 5 N 39.714292 28.825838 60.558241 0
M  V30 6 C 40.045487 31.239155 51.939461 0
M  V30 7 N 41.252188 29.145203 65.098532 0
M  V30 8 C 39.087582 28.709296 55.714837 0
M  V30 9 O 37.537998 26.600994 57.478701 0
M  V30 10 O 36.845087 28.137764 52.967924 0
M  V30 11 C 38.779164 29.472541 53.291871 0 CFG=2
M  V30 12 C 39.959002 28.785305 56.970010 0
M  V30 13 C 39.050344 29.996145 60.361241 0
M  V30 14 N 39.504356 29.629241 54.610899 0 CFG=1 CHG=1
M  V30 15 C 38.070625 28.108878 53.131173 0
M  V30 16 C 41.676987 28.707684 67.557488 0
M  V30 17 C 43.223341 26.888106 68.099358 0
M  V30 18 O 38.784955 30.365660 59.202826 0
M  V30 19 C 40.073291 28.377582 61.927247 0
M  V30 20 C 43.414155 26.641962 66.732672 0
M  V30 21 C 41.645994 28.028422 59.265970 0
M  V30 22 S 42.799223 27.338087 64.032086 0
M  V30 23 O 38.776825 27.076201 53.174996 0 CHG=-1
M  V30 24 C 39.591951 31.043512 55.100911 0
M  V30 25 C 39.459999 27.813325 58.056609 0 CFG=2
M  V30 26 C 40.508288 28.804433 51.316235 0
M  V30 27 O 38.045201 27.783418 58.176859 0
M  V30 28 N 37.645131 33.559136 57.247767 0 CHG=1
M  V30 29 C 41.173237 29.220803 62.607628 0
M  V30 30 C 42.739113 27.423297 65.783087 0
M  V30 31 O 40.845107 29.704420 67.976662 0
M  V30 32 C 38.377003 31.605783 55.864887 0
M  V30 33 C 41.649923 28.670382 63.914131 0
M  V30 34 C 39.245466 29.239435 50.635823 0
M  V30 35 C 39.608201 29.804132 52.004163 0
M  V30 36 O 38.720515 30.684071 61.353740 0 CHG=-1
M  V30 37 C 42.359001 27.918491 68.512562 0
M  V30 38 C 38.733988 32.982186 56.445820 0
M  V30 39 H 37.142447 32.099596 58.658390 0
M  V30 40 H 38.539815 33.078526 59.110501 0
M  V30 41 H 39.966258 26.937527 59.840363 0
M  V30 42 H 36.556488 33.675948 60.490732 0
M  V30 43 H 37.005752 35.049534 59.486738 0
M  V30 44 H 35.623504 34.043699 59.042950 0
M  V30 45 H 40.375757 31.505366 50.934429 0
M  V30 46 H 39.245155 31.917635 52.225370 0
M  V30 47 H 40.902881 31.338566 52.592858 0
M  V30 48 H 39.169632 27.663117 55.442806 0
M  V30 49 H 38.036518 28.888037 55.942551 0
M  V30 50 H 37.268951 26.971947 56.651497 0
M  V30 51 H 37.978450 30.207914 53.368108 0
M  V30 52 H 40.028890 29.790841 57.358479 0
M  V30 53 H 40.980120 28.521640 56.693251 0
M  V30 54 H 43.740756 26.288773 68.834614 0
M  V30 55 H 39.195640 28.353915 62.558933 0
M  V30 56 H 40.440048 27.352607 61.893943 0
M  V30 57 H 44.080164 25.854962 66.411467 0
M  V30 58 H 42.037580 27.306835 58.546680 0
M  V30 59 H 41.961677 29.031836 58.977776 0
M  V30 60 H 42.045140 27.780335 60.234313 0
M  V30 61 H 40.445113 31.114658 55.758468 0
M  V30 62 H 39.826769 31.744500 54.321202 0
M  V30 63 H 39.782379 26.834084 57.693077 0
M  V30 64 H 41.458341 29.199348 50.968097 0
M  V30 65 H 40.520003 27.770580 51.629452 0
M  V30 66 H 37.731110 34.565961 57.243264 0
M  V30 67 H 42.044631 29.252726 61.968705 0
M  V30 68 H 40.849221 30.250550 62.755883 0
M  V30 69 H 40.520178 29.556782 68.852061 0
M  V30 70 H 37.512364 31.687452 55.204955 0
M  V30 71 H 38.079534 30.957839 56.686692 0
M  V30 72 H 38.451468 28.502537 50.544030 0
M  V30 73 H 39.363671 29.882048 49.767761 0
M  V30 74 H 42.215895 28.107116 69.566138 0
M  V30 75 H 39.644806 32.938038 57.044210 0
M  V30 76 H 38.935475 33.672728 55.626084 0
M  V30 77 H 36.763552 33.304728 56.803050 0
M  V30 78 H 40.446162 29.342890 54.391787 0
M  V30 END ATOM
M  V30 BEGIN BOND
M  V30 1 1 4 2
M  V30 2 1 5 3
M  V30 3 1 7 1
M  V30 4 1 12 8
M  V30 5 1 13 5
M  V30 6 1 14 8
M  V30 7 1 14 11
M  V30 8 2 15 10
M  V30 9 1 15 11
M  V30 10 2 16 1
M  V30 11 2 18 13
M  V30 12 1 19 5
M  V30 13 1 20 17
M  V30 14 1 21 3
M  V30 15 1 23 15
M  V30 16 1 24 14
M  V30 17 1 25 3
M  V30 18 1 25 12
M  V30 19 1 27 9
M  V30 20 1 27 25
M  V30 21 1 28 2
M  V30 22 1 29 19
M  V30 23 1 30 1
M  V30 24 2 30 20
M  V30 25 1 30 22
M  V30 26 1 31 16
M  V30 27 1 32 24
M  V30 28 2 33 7
M  V30 29 1 33 22
M  V30 30 1 33 29
M  V30 31 1 34 26
M  V30 32 1 35 6
M  V30 33 1 35 11
M  V30 34 1 35 26
M  V30 35 1 35 34
M  V30 36 1 36 13
M  V30 37 1 37 16
M  V30 38 2 37 17
M  V30 39 1 38 28
M  V30 40 1 38 32
M  V30 41 1 39 2
M  V30 42 1 40 2
M  V30 43 1 3 41 CFG=1
M  V30 44 1 42 4
M  V30 45 1 43 4
M  V30 46 1 44 4
M  V30 47 1 45 6
M  V30 48 1 46 6
M  V30 49 1 47 6
M  V30 50 1 48 8
M  V30 51 1 49 8
M  V30 52 1 50 9
M  V30 53 1 11 51 CFG=1
M  V30 54 1 52 12
M  V30 55 1 53 12
M  V30 56 1 54 17
M  V30 57 1 55 19
M  V30 58 1 56 19
M  V30 59 1 57 20
M  V30 60 1 58 21
M  V30 61 1 59 21
M  V30 62 1 60 21
M  V30 63 1 61 24
M  V30 64 1 62 24
M  V30 65 1 25 63 CFG=3
M  V30 66 1 64 26
M  V30 67 1 65 26
M  V30 68 1 66 28
M  V30 69 1 67 29
M  V30 70 1 68 29
M  V30 71 1 69 31
M  V30 72 1 70 32
M  V30 73 1 71 32
M  V30 74 1 72 34
M  V30 75 1 73 34
M  V30 76 1 74 37
M  V30 77 1 75 38
M  V30 78 1 76 38
M  V30 79 1 77 28
M  V30 80 1 14 78 CFG=3
M  V30 END BOND
M  V30 END CTAB
M  END
>  <i_epik_Tot_Q>  (1) 
0

>  <i_epik_Tot_abs_Q>  (1) 
4

>  <i_i_glide_confnum>  (1) 
10868

>  <i_i_glide_lignum>  (1) 
205

>  <i_i_glide_posenum>  (1) 
106

>  <i_i_glide_rotatable_bonds>  (1) 
20

>  <i_lp_mmshare_version>  (1) 
72125

>  <i_m_source_file_index>  (1) 
87

>  <i_f3d_flags>  (1) 
0

>  <num_sample>  (1) 
100

>  <b_lp_Chiralities_Consistent>  (1) 
1

>  <r_epik_Charging_Adjusted_Penalty>  (1) 
0.22044164317972559

>  <r_epik_Ionization_Penalty>  (1) 
0.19516572318186753

>  <r_epik_Ionization_Penalty_Charging>  (1) 
0.026579669222116228

>  <r_epik_Ionization_Penalty_Neutral>  (1) 
0.16858605395975129

>  <r_epik_State_Penalty>  (1) 
0.19386197395760935

>  <r_glide_ring_energy>  (1) 
0

>  <r_i_docking_score>  (1) 
-5.9534379398212387

>  <r_i_glide_ecoul>  (1) 
-2.9743035459179703

>  <r_i_glide_eff_state_penalty>  (1) 
0.19386197395760935

>  <r_i_glide_einternal>  (1) 
14.738715487593815

>  <r_i_glide_emodel>  (1) 
-56.135689865129066

>  <r_i_glide_emodel_strain>  (1) 
3.2164473163723244

>  <r_i_glide_energy>  (1) 
-43.911106176261249

>  <r_i_glide_erotb>  (1) 
0.94715796475939662

>  <r_i_glide_esite>  (1) 
-0.092218269100510258

>  <r_i_glide_evdw>  (1) 
-40.93680263034328

>  <r_i_glide_gscore>  (1) 
-6.1472999137788484

>  <r_i_glide_gscore_strain>  (1) 
0

>  <r_i_glide_hbond>  (1) 
-0.35663035393699732

>  <r_i_glide_ligand_efficiency>  (1) 
-0.15666941946897997

>  <r_i_glide_ligand_efficiency_ln>  (1) 
-1.2837363522260656

>  <r_i_glide_ligand_efficiency_sa>  (1) 
-0.52671873525218149

>  <r_i_glide_lipo>  (1) 
-2.7722364137722777

>  <r_i_glide_metal>  (1) 
-0

>  <r_i_glide_rewards>  (1) 
-1.3803871783235997

>  <r_lp_Energy>  (1) 
38.677337999999999

>  <s_epik_cmdline>  (1) 
J2VwaWtfcHl0aG9uJywgJy1waHQnLCAnMS4wJywgJy1waCcsICc3LjQnLCAnLXRuJywgJzgnLCAnLW1hJywgJzUwMCcsICctaW1hZScsICc8aW5maWxlLm1hZT4nLCAnLW9tYWUnLCAnPG91dGZpbGUubWFlPic=

>  <s_epik_input>  (1) 
W09IXWMxW2NIXVtjSF1bY0hdYyhjMTIpc2MobjIpW0NIMl1bQ0gyXU4oQyg9TylbT0hdKVtDQEhdKFtDSDNdKVtDQEBIXShPW09IXSlbQ0gyXVtDSDJdTihbQ0BIXShDKD1PKVtPSF0pQzMoW0NIM10pW0NIMl1bQ0gyXTMpW0NIMl1bQ0gyXVtDSDJdW05IXVtDSDJdW0NIM10=

>  <s_glide_docking_method>  (1) 
confgen

>  <s_i_glide_gridfile>  (1) 
gpcr_5ht2c_6bqh_protein_autoprepared_prepared

>  <s_lp_Force_Field>  (1) 
S-OPLS

>  <s_lp_Variant>  (1) 
DiffSBDD_86-2

>  <s_m_source_file>  (1) 
generated_GPCR_5HT2C_ligand_DiffSBDD_2026-06-23_prepared.sdf

>  <GenAI_Model>  (1) 
DiffSBDD

>  <Protein>  (1) 
GPCR_5HT2C

$$$$
DiffSBDD_75
     RDKit          3D

  0  0  0  0  0  0  0  0  0  0999 V3000
M  V30 BEGIN CTAB
M  V30 COUNTS 76 77 0 0 1
M  V30 BEGIN ATOM
M  V30 1 C 40.365263 29.793059 62.375868 0
M  V30 2 C 37.262191 31.060102 60.813297 0
M  V30 3 O 38.845049 30.860543 58.052272 0
M  V30 4 C 41.067728 29.510021 65.321875 0
M  V30 5 C 39.815914 30.882678 55.456749 0 CFG=1
M  V30 6 C 39.062747 35.320313 61.191485 0
M  V30 7 C 39.157754 29.550831 57.614014 0 CFG=2
M  V30 8 C 39.644376 36.463718 61.767780 0
M  V30 9 O 38.044981 32.468549 55.197345 0
M  V30 10 C 39.081100 28.437906 55.257106 0 CFG=2
M  V30 11 O 36.922321 38.908397 61.367752 0
M  V30 12 S 39.245251 28.537492 60.222542 0
M  V30 13 C 41.731134 28.165495 64.967740 0
M  V30 14 C 37.622708 37.737168 61.295572 0
M  V30 15 C 40.092020 28.910424 58.660825 0
M  V30 16 C 39.841668 34.030360 61.145655 0
M  V30 17 C 37.760452 35.386425 60.654583 0
M  V30 18 O 37.169836 27.994536 53.878552 0
M  V30 19 C 39.082736 27.021949 55.873368 0
M  V30 20 C 39.763745 29.499188 56.166178 0 CFG=1
M  V30 21 O 41.166397 27.123690 65.739404 0
M  V30 22 O 38.184069 30.537889 61.757441 0
M  V30 23 O 42.033521 32.384464 62.032809 0
M  V30 24 C 41.777937 31.819972 65.353383 0
M  V30 25 N 41.512850 30.651253 64.499479 0
M  V30 26 C 40.941878 32.230935 62.582816 0
M  V30 27 C 38.928262 37.667867 61.815479 0
M  V30 28 C 39.875837 33.326486 62.509441 0
M  V30 29 C 40.579217 30.958878 63.379143 0 CFG=1
M  V30 30 C 37.041222 36.597413 60.704734 0
M  V30 31 C 37.623267 30.314642 54.213335 0
M  V30 32 C 39.405196 30.065282 61.196594 0 CFG=1
M  V30 33 C 40.742678 30.937752 54.245410 0
M  V30 34 C 37.683362 28.909394 54.828810 0 CFG=2
M  V30 35 C 38.449150 31.330767 54.986752 0
M  V30 36 H 41.328277 29.461578 61.989247 0
M  V30 37 H 39.949599 28.942863 62.913020 0
M  V30 38 H 36.368067 31.408502 61.330269 0
M  V30 39 H 37.681735 31.909165 60.274650 0
M  V30 40 H 36.951756 30.303627 60.091506 0
M  V30 41 H 38.109354 31.192605 57.552962 0
M  V30 42 H 41.285533 29.686962 66.375905 0
M  V30 43 H 39.982502 29.420590 65.287036 0
M  V30 44 H 38.210729 29.014570 57.638206 0
M  V30 45 H 40.645002 36.416706 62.173399 0
M  V30 46 H 38.044941 30.271215 53.212377 0
M  V30 47 H 39.645147 28.344272 54.335749 0
M  V30 48 H 36.233604 38.994555 60.720084 0
M  V30 49 H 41.628617 27.911765 63.914659 0
M  V30 50 H 42.800079 28.214414 65.174441 0
M  V30 51 H 40.982575 29.511022 58.844106 0
M  V30 52 H 40.450042 27.953460 58.281098 0
M  V30 53 H 39.462544 33.374127 60.362483 0
M  V30 54 H 40.845168 34.319185 60.859504 0
M  V30 55 H 37.313130 34.510488 60.206981 0
M  V30 56 H 37.758546 27.946091 53.140291 0
M  V30 57 H 38.432348 26.948312 56.744113 0
M  V30 58 H 38.736439 26.278299 55.154988 0
M  V30 59 H 40.086979 26.725493 56.177199 0
M  V30 60 H 40.795502 29.161954 56.255201 0
M  V30 61 H 41.199830 27.363286 66.653826 0
M  V30 62 H 42.442756 31.562035 66.178950 0
M  V30 63 H 42.284621 32.621949 64.816840 0
M  V30 64 H 40.854483 32.218995 65.776445 0
M  V30 65 H 39.382989 38.537797 62.252463 0
M  V30 66 H 40.109683 34.050235 63.289913 0
M  V30 67 H 38.893338 32.919670 62.743413 0
M  V30 68 H 39.605977 31.148666 63.830004 0
M  V30 69 H 36.045158 36.649022 60.294608 0
M  V30 70 H 36.591131 30.663925 54.168022 0
M  V30 71 H 40.165035 31.643317 56.154122 0
M  V30 72 H 39.821144 30.835626 60.547738 0
M  V30 73 H 40.445661 31.737622 53.576600 0
M  V30 74 H 41.769401 31.093322 54.567670 0
M  V30 75 H 40.675561 30.069435 53.608515 0
M  V30 76 H 37.073265 28.937982 55.715112 0
M  V30 END ATOM
M  V30 BEGIN BOND
M  V30 1 1 7 3
M  V30 2 1 8 6
M  V30 3 1 13 4
M  V30 4 1 14 11
M  V30 5 1 15 7
M  V30 6 1 15 12
M  V30 7 1 16 6
M  V30 8 2 17 6
M  V30 9 1 19 10
M  V30 10 1 20 5
M  V30 11 1 20 7
M  V30 12 1 20 10
M  V30 13 1 21 13
M  V30 14 1 22 2
M  V30 15 1 25 4
M  V30 16 1 25 24
M  V30 17 2 26 23
M  V30 18 2 27 8
M  V30 19 1 27 14
M  V30 20 1 28 16
M  V30 21 1 28 26
M  V30 22 1 29 1
M  V30 23 1 29 25
M  V30 24 1 29 26
M  V30 25 2 30 14
M  V30 26 1 30 17
M  V30 27 1 32 1
M  V30 28 1 32 12
M  V30 29 1 32 22
M  V30 30 1 33 5
M  V30 31 1 34 10
M  V30 32 1 34 18
M  V30 33 1 34 31
M  V30 34 1 35 5
M  V30 35 2 35 9
M  V30 36 1 35 31
M  V30 37 1 36 1
M  V30 38 1 37 1
M  V30 39 1 38 2
M  V30 40 1 39 2
M  V30 41 1 40 2
M  V30 42 1 41 3
M  V30 43 1 42 4
M  V30 44 1 43 4
M  V30 45 1 7 44 CFG=3
M  V30 46 1 45 8
M  V30 47 1 46 31
M  V30 48 1 10 47 CFG=3
M  V30 49 1 48 11
M  V30 50 1 49 13
M  V30 51 1 50 13
M  V30 52 1 51 15
M  V30 53 1 52 15
M  V30 54 1 53 16
M  V30 55 1 54 16
M  V30 56 1 55 17
M  V30 57 1 56 18
M  V30 58 1 57 19
M  V30 59 1 58 19
M  V30 60 1 59 19
M  V30 61 1 20 60 CFG=1
M  V30 62 1 61 21
M  V30 63 1 62 24
M  V30 64 1 63 24
M  V30 65 1 64 24
M  V30 66 1 65 27
M  V30 67 1 66 28
M  V30 68 1 67 28
M  V30 69 1 29 68 CFG=1
M  V30 70 1 69 30
M  V30 71 1 70 31
M  V30 72 1 5 71 CFG=1
M  V30 73 1 32 72 CFG=3
M  V30 74 1 73 33
M  V30 75 1 74 33
M  V30 76 1 75 33
M  V30 77 1 34 76 CFG=1
M  V30 END BOND
M  V30 END CTAB
M  END
>  <i_epik_Tot_Q>  (1) 
0

>  <i_epik_Tot_abs_Q>  (1) 
0

>  <i_i_glide_confnum>  (1) 
5

>  <i_i_glide_lignum>  (1) 
172

>  <i_i_glide_posenum>  (1) 
87

>  <i_i_glide_rotatable_bonds>  (1) 
18

>  <i_lp_mmshare_version>  (1) 
72125

>  <i_m_source_file_index>  (1) 
76

>  <i_f3d_flags>  (1) 
0

>  <num_sample>  (1) 
100

>  <b_lp_Chiralities_Consistent>  (1) 
1

>  <r_epik_Charging_Adjusted_Penalty>  (1) 
0.60615279515584763

>  <r_epik_Ionization_Penalty>  (1) 
0.6077244911787385

>  <r_epik_Ionization_Penalty_Charging>  (1) 
0

>  <r_epik_Ionization_Penalty_Neutral>  (1) 
0.6077244911787385

>  <r_epik_State_Penalty>  (1) 
0.60615279515584763

>  <r_glide_ring_energy>  (1) 
0

>  <r_i_docking_score>  (1) 
-5.9528432244479985

>  <r_i_glide_ecoul>  (1) 
-5.672572630610536

>  <r_i_glide_eff_state_penalty>  (1) 
0.60615279515584763

>  <r_i_glide_einternal>  (1) 
8.3837227799944465

>  <r_i_glide_emodel>  (1) 
-61.422440575808203

>  <r_i_glide_emodel_strain>  (1) 
0.91435136942040174

>  <r_i_glide_energy>  (1) 
-45.915636615977824

>  <r_i_glide_erotb>  (1) 
1.0176109525924779

>  <r_i_glide_esite>  (1) 
0

>  <r_i_glide_evdw>  (1) 
-40.243063985367286

>  <r_i_glide_gscore>  (1) 
-6.5589960196038462

>  <r_i_glide_gscore_strain>  (1) 
0

>  <r_i_glide_hbond>  (1) 
-0.35460823079147707

>  <r_i_glide_ligand_efficiency>  (1) 
-0.17008123498422853

>  <r_i_glide_ligand_efficiency_ln>  (1) 
-1.3067812040034679

>  <r_i_glide_ligand_efficiency_sa>  (1) 
-0.556346997752179

>  <r_i_glide_lipo>  (1) 
-3.507383474748301

>  <r_i_glide_metal>  (1) 
-0

>  <r_i_glide_rewards>  (1) 
-0.85157617279660003

>  <r_lp_Energy>  (1) 
23.098794999999999

>  <r_lp_tautomer_probability>  (1) 
0.99999993999736703

>  <s_epik_Chemistry_Notes>  (1) 
This compound contains an acetal/aminal-like group ( X-CH(R)-Y where X, Y are N, S, or O) that may be acid/base labile, releasing an aldehyde.

>  <s_epik_cmdline>  (1) 
J2VwaWtfcHl0aG9uJywgJy1waHQnLCAnMS4wJywgJy1waCcsICc3LjQnLCAnLXRuJywgJzgnLCAnLW1hJywgJzUwMCcsICctaW1hZScsICc8aW5maWxlLm1hZT4nLCAnLW9tYWUnLCAnPG91dGZpbGUubWFlPic=

>  <s_epik_input>  (1) 
W2NIXTFbY0hdYyhbT0hdKVtjSF1bY0hdYzFbQ0gyXVtDSDJdQyg9TylbQ0BIXShOKFtDSDNdKVtDSDJdW0NIMl1bT0hdKVtDSDJdW0NASF0oT1tDSDNdKVNbQ0gyXVtDQEBIXShbT0hdKVtDQEhdMltDQEBIXShbQ0gzXSlbQ0BIXShbT0hdKVtDSDJdQyhbT0hdKT1DMltDSDNd

>  <s_glide_docking_method>  (1) 
confgen

>  <s_i_glide_gridfile>  (1) 
gpcr_5ht2c_6bqh_protein_autoprepared_prepared

>  <s_lp_Force_Field>  (1) 
S-OPLS

>  <s_lp_Variant>  (1) 
DiffSBDD_75-9

>  <s_m_source_file>  (1) 
generated_GPCR_5HT2C_ligand_DiffSBDD_2026-06-23_prepared.sdf

>  <GenAI_Model>  (1) 
DiffSBDD

>  <Protein>  (1) 
GPCR_5HT2C

$$$$
DiffSBDD_73
     RDKit          3D

  0  0  0  0  0  0  0  0  0  0999 V3000
M  V30 BEGIN CTAB
M  V30 COUNTS 65 66 0 0 1
M  V30 BEGIN ATOM
M  V30 1 C 38.905083 29.370840 55.114624 0 CFG=1
M  V30 2 C 38.720326 31.859375 59.862542 0
M  V30 3 N 37.576800 36.114453 61.250375 0
M  V30 4 C 40.213369 30.571057 51.666779 0
M  V30 5 C 39.645139 30.520805 52.909636 0
M  V30 6 C 38.867974 30.793801 55.666492 0
M  V30 7 C 37.920386 37.532791 61.253676 0 CFG=2
M  V30 8 N 36.994653 33.518227 58.972516 0 CHG=1
M  V30 9 O 36.339649 36.200392 59.367765 0
M  V30 10 C 40.498707 28.449840 57.095496 0
M  V30 11 C 36.678439 34.032752 60.319914 0 CFG=1
M  V30 12 C 40.012188 28.046351 51.030311 0
M  V30 13 C 40.445280 29.432290 50.689825 0 CFG=1
M  V30 14 C 36.845131 35.552388 60.280397 0
M  V30 15 O 38.423648 30.950120 56.996607 0
M  V30 16 C 39.363295 37.188247 63.388293 0
M  V30 17 C 39.024363 29.342225 53.601421 0
M  V30 18 C 38.581491 28.092124 51.444912 0
M  V30 19 C 37.612869 32.180033 58.833202 0 CFG=1
M  V30 20 C 39.655009 28.253614 55.851744 0 CFG=1
M  V30 21 O 40.045138 29.773653 49.385476 0
M  V30 22 C 39.287705 37.715142 61.946309 0
M  V30 23 C 38.208263 32.193288 57.428047 0
M  V30 24 O 38.450372 33.222313 56.790787 0
M  V30 25 C 35.260164 33.616811 60.738456 0
M  V30 26 C 38.559262 28.261788 52.922754 0
M  V30 27 C 36.775540 38.365955 61.856746 0
M  V30 28 C 38.161092 28.303920 55.930025 0
M  V30 29 H 39.244869 30.938100 59.601797 0
M  V30 30 H 39.463029 32.656904 59.919672 0
M  V30 31 H 38.314204 31.697505 60.861737 0
M  V30 32 H 37.937247 35.539717 61.996899 0
M  V30 33 H 40.602915 31.521986 51.339708 0
M  V30 34 H 39.651419 31.450765 53.452404 0
M  V30 35 H 39.865847 31.228044 55.585073 0
M  V30 36 H 38.196498 31.376072 55.032020 0
M  V30 37 H 38.045081 37.870804 60.222430 0
M  V30 38 H 37.642631 34.168626 58.546390 0
M  V30 39 H 40.207568 29.334338 57.657583 0
M  V30 40 H 40.397974 27.583106 57.748796 0
M  V30 41 H 41.547920 28.537745 56.815703 0
M  V30 42 H 37.383233 33.662843 61.062026 0
M  V30 43 H 40.176478 27.356006 50.200740 0
M  V30 44 H 40.628528 27.737755 51.866615 0
M  V30 45 H 41.530586 29.414441 50.641788 0
M  V30 46 H 40.378829 37.283418 63.767754 0
M  V30 47 H 38.706923 37.736950 64.062201 0
M  V30 48 H 39.101220 36.133322 63.452070 0
M  V30 49 H 38.075944 27.159978 51.190202 0
M  V30 50 H 38.045125 28.904321 50.967796 0
M  V30 51 H 36.828017 31.424069 58.890868 0
M  V30 52 H 40.045082 27.451286 55.228144 0
M  V30 53 H 39.096060 29.738013 49.323785 0
M  V30 54 H 40.042012 37.180275 61.367801 0
M  V30 55 H 39.596128 38.760469 61.913361 0
M  V30 56 H 35.016630 33.986256 61.735070 0
M  V30 57 H 34.507851 33.998672 60.045808 0
M  V30 58 H 35.161868 32.531221 60.763300 0
M  V30 59 H 38.122988 27.444013 53.467952 0
M  V30 60 H 36.972109 39.434711 61.767483 0
M  V30 61 H 35.835506 38.177035 61.336764 0
M  V30 62 H 36.617569 38.135641 62.910503 0
M  V30 63 H 37.730799 28.578448 56.891117 0
M  V30 64 H 37.628782 27.494259 55.444217 0
M  V30 65 H 36.164030 33.539370 58.392945 0
M  V30 END ATOM
M  V30 BEGIN BOND
M  V30 1 2 5 4
M  V30 2 1 1 6 CFG=1
M  V30 3 1 7 3
M  V30 4 1 11 8
M  V30 5 1 13 4
M  V30 6 1 13 12
M  V30 7 1 14 3
M  V30 8 2 14 9
M  V30 9 1 14 11
M  V30 10 1 15 6
M  V30 11 1 17 1
M  V30 12 1 17 5
M  V30 13 1 18 12
M  V30 14 1 19 2
M  V30 15 1 19 8
M  V30 16 1 20 1
M  V30 17 1 20 10
M  V30 18 1 21 13
M  V30 19 1 22 7
M  V30 20 1 22 16
M  V30 21 1 23 15
M  V30 22 1 23 19
M  V30 23 2 24 23
M  V30 24 1 25 11
M  V30 25 2 26 17
M  V30 26 1 26 18
M  V30 27 1 27 7
M  V30 28 1 28 1
M  V30 29 1 28 20
M  V30 30 1 29 2
M  V30 31 1 30 2
M  V30 32 1 31 2
M  V30 33 1 32 3
M  V30 34 1 33 4
M  V30 35 1 34 5
M  V30 36 1 35 6
M  V30 37 1 36 6
M  V30 38 1 7 37 CFG=3
M  V30 39 1 38 8
M  V30 40 1 39 10
M  V30 41 1 40 10
M  V30 42 1 41 10
M  V30 43 1 11 42 CFG=1
M  V30 44 1 43 12
M  V30 45 1 44 12
M  V30 46 1 13 45 CFG=3
M  V30 47 1 46 16
M  V30 48 1 47 16
M  V30 49 1 48 16
M  V30 50 1 49 18
M  V30 51 1 50 18
M  V30 52 1 19 51 CFG=3
M  V30 53 1 20 52 CFG=3
M  V30 54 1 53 21
M  V30 55 1 54 22
M  V30 56 1 55 22
M  V30 57 1 56 25
M  V30 58 1 57 25
M  V30 59 1 58 25
M  V30 60 1 59 26
M  V30 61 1 60 27
M  V30 62 1 61 27
M  V30 63 1 62 27
M  V30 64 1 63 28
M  V30 65 1 64 28
M  V30 66 1 65 8
M  V30 END BOND
M  V30 END CTAB
M  END
>  <i_epik_Tot_Q>  (1) 
1

>  <i_epik_Tot_abs_Q>  (1) 
1

>  <i_i_glide_confnum>  (1) 
1663

>  <i_i_glide_lignum>  (1) 
160

>  <i_i_glide_posenum>  (1) 
314

>  <i_i_glide_rotatable_bonds>  (1) 
12

>  <i_lp_mmshare_version>  (1) 
72125

>  <i_m_source_file_index>  (1) 
74

>  <i_f3d_flags>  (1) 
0

>  <num_sample>  (1) 
100

>  <b_lp_Chiralities_Consistent>  (1) 
1

>  <r_epik_Charging_Adjusted_Penalty>  (1) 
2.336176939713237

>  <r_epik_Ionization_Penalty>  (1) 
1.168091143672223

>  <r_epik_Ionization_Penalty_Charging>  (1) 
1.1680884698566185

>  <r_epik_Ionization_Penalty_Neutral>  (1) 
2.673815604532901e-06

>  <r_epik_State_Penalty>  (1) 
1.1680884698566185

>  <r_glide_ring_energy>  (1) 
0

>  <r_i_docking_score>  (1) 
-5.9440113377139117

>  <r_i_glide_ecoul>  (1) 
-5.3073741446368405

>  <r_i_glide_eff_state_penalty>  (1) 
1.1680884698566185

>  <r_i_glide_einternal>  (1) 
10.474772440692654

>  <r_i_glide_emodel>  (1) 
-56.084164299675137

>  <r_i_glide_emodel_strain>  (1) 
5.1897909652344083

>  <r_i_glide_energy>  (1) 
-44.18001597905549

>  <r_i_glide_erotb>  (1) 
1.2613414017289797

>  <r_i_glide_esite>  (1) 
-0.16600749139734583

>  <r_i_glide_evdw>  (1) 
-38.872641834418651

>  <r_i_glide_gscore>  (1) 
-7.1120998075705302

>  <r_i_glide_gscore_strain>  (1) 
0.29744774130860208

>  <r_i_glide_hbond>  (1) 
-0.33955982058577727

>  <r_i_glide_ligand_efficiency>  (1) 
-0.21228611920406829

>  <r_i_glide_ligand_efficiency_ln>  (1) 
-1.3720523405007772

>  <r_i_glide_ligand_efficiency_sa>  (1) 
-0.64462568845735613

>  <r_i_glide_lipo>  (1) 
-3.5844669184310165

>  <r_i_glide_metal>  (1) 
-0

>  <r_i_glide_rewards>  (1) 
-1.8411165067775146

>  <r_lp_Energy>  (1) 
24.831178999999999

>  <s_epik_Chemistry_Notes>  (1) 
This compound has an ester and may undergo hydrolysis at high or low pH.

>  <s_epik_cmdline>  (1) 
J2VwaWtfcHl0aG9uJywgJy1waHQnLCAnMS4wJywgJy1waCcsICc3LjQnLCAnLXRuJywgJzgnLCAnLW1hJywgJzUwMCcsICctaW1hZScsICc8aW5maWxlLm1hZT4nLCAnLW9tYWUnLCAnPG91dGZpbGUubWFlPic=

>  <s_epik_input>  (1) 
W09IXVtDQEhdMVtDSF09W0NIXUMoPVtDSF1bQ0gyXVtDSDJdMSlbQ0BAXTIoW0NAQEhdKFtDSDNdKVtDSDJdMilbQ0gyXU9DKD1PKVtDQEBIXShbQ0gzXSlbTkhdW0NASF0oW0NIM10pQyg9TylbTkhdW0NAQEhdKFtDSDNdKVtDSDJdW0NIM10=

>  <s_glide_docking_method>  (1) 
confgen

>  <s_i_glide_gridfile>  (1) 
gpcr_5ht2c_6bqh_protein_autoprepared_prepared

>  <s_lp_Force_Field>  (1) 
S-OPLS

>  <s_lp_Variant>  (1) 
DiffSBDD_73-3

>  <s_m_source_file>  (1) 
generated_GPCR_5HT2C_ligand_DiffSBDD_2026-06-23_prepared.sdf

>  <GenAI_Model>  (1) 
DiffSBDD

>  <Protein>  (1) 
GPCR_5HT2C

$$$$
DiffSBDD_23
     RDKit          3D

  0  0  0  0  0  0  0  0  0  0999 V3000
M  V30 BEGIN CTAB
M  V30 COUNTS 68 70 0 0 1
M  V30 BEGIN ATOM
M  V30 1 C 42.078233 28.867094 64.803100 0
M  V30 2 C 42.158531 28.750368 66.213651 0
M  V30 3 C 40.111610 30.336533 51.501328 0
M  V30 4 O 36.045123 29.237326 58.567761 0 CHG=-1
M  V30 5 C 40.915318 28.899755 67.073451 0
M  V30 6 N 40.845156 29.119980 64.174851 0
M  V30 7 C 40.764541 30.091660 63.081522 0 CFG=1
M  V30 8 C 37.720549 30.850616 59.851538 0 CFG=2
M  V30 9 C 43.259708 28.730012 64.040712 0
M  V30 10 C 39.162463 30.260264 56.494358 0
M  V30 11 C 38.337474 28.408656 54.959394 0
M  V30 12 C 39.298167 30.284610 62.635873 0
M  V30 13 C 41.403261 31.436766 63.475068 0
M  V30 14 C 38.215122 27.823615 53.682787 0
M  V30 15 C 36.284764 33.792122 60.988370 0
M  V30 16 C 44.556755 28.375135 65.992472 0
M  V30 17 C 39.610741 30.254521 53.988989 0
M  V30 18 O 42.369570 31.815441 62.777862 0
M  V30 19 P 37.494088 29.508527 58.565155 0
M  V30 20 N 44.437854 28.492495 64.654035 0 CHG=1
M  V30 21 C 38.655287 35.308932 60.812908 0
M  V30 22 C 36.445142 34.950314 61.767755 0
M  V30 23 O 38.448810 28.400069 58.796209 0
M  V30 24 C 37.627403 35.709608 61.680349 0
M  V30 25 C 43.416111 28.500042 66.813730 0
M  V30 26 C 38.789875 28.451196 52.559653 0
M  V30 27 C 39.033460 29.625300 55.115103 0
M  V30 28 C 39.488975 29.666442 52.710453 0
M  V30 29 C 38.500265 34.153137 60.026655 0
M  V30 30 C 37.155934 32.156976 59.246184 0
M  V30 31 C 39.164975 30.946569 60.347925 0
M  V30 32 O 40.962311 32.017263 64.492756 0 CHG=-1
M  V30 33 C 37.315768 33.392645 60.109011 0
M  V30 34 O 37.919330 30.369041 57.153896 0
M  V30 35 C 35.005843 32.982150 61.097941 0
M  V30 36 O 39.168928 31.353741 61.707172 0
M  V30 37 H 39.417365 30.345601 50.660665 0
M  V30 38 H 40.395595 31.364982 51.720429 0
M  V30 39 H 41.007375 29.796289 51.193725 0
M  V30 40 H 41.149649 28.788450 68.132953 0
M  V30 41 H 40.474987 29.886674 66.928086 0
M  V30 42 H 40.171739 28.146887 66.811232 0
M  V30 43 H 39.991763 29.044450 64.719011 0
M  V30 44 H 41.313467 29.692101 62.229990 0
M  V30 45 H 37.099525 30.569203 60.700401 0
M  V30 46 H 43.294847 28.804577 62.967763 0
M  V30 47 H 39.571042 31.266657 56.391561 0
M  V30 48 H 39.891601 29.704453 57.082472 0
M  V30 49 H 37.895941 27.925428 55.819231 0
M  V30 50 H 38.690775 30.537758 63.504259 0
M  V30 51 H 38.881067 29.358330 62.234185 0
M  V30 52 H 37.680438 26.892899 53.565134 0
M  V30 53 H 45.554744 28.188231 66.365613 0
M  V30 54 H 40.145956 31.186222 54.106707 0
M  V30 55 H 39.563543 35.888778 60.747634 0
M  V30 56 H 35.661295 35.255631 62.447140 0
M  V30 57 H 37.745715 36.596349 62.284957 0
M  V30 58 H 43.502812 28.409497 67.886428 0
M  V30 59 H 38.694711 27.999597 51.582923 0
M  V30 60 H 39.289872 33.852091 59.355059 0
M  V30 61 H 36.113613 32.011541 58.967826 0
M  V30 62 H 37.656526 32.391219 58.307326 0
M  V30 63 H 39.743512 30.034214 60.200974 0
M  V30 64 H 39.645139 31.717867 59.767766 0
M  V30 65 H 34.409814 33.318392 61.946616 0
M  V30 66 H 34.405097 33.094153 60.194300 0
M  V30 67 H 35.224988 31.924835 61.245984 0
M  V30 68 H 45.276178 28.398625 64.078427 0
M  V30 END ATOM
M  V30 BEGIN BOND
M  V30 1 2 2 1
M  V30 2 1 5 2
M  V30 3 1 6 1
M  V30 4 1 7 6
M  V30 5 1 9 1
M  V30 6 1 12 7
M  V30 7 1 13 7
M  V30 8 1 14 11
M  V30 9 2 18 13
M  V30 10 1 19 4
M  V30 11 1 19 8
M  V30 12 2 20 9
M  V30 13 1 20 16
M  V30 14 2 22 15
M  V30 15 2 23 19
M  V30 16 2 24 21
M  V30 17 1 24 22
M  V30 18 1 25 2
M  V30 19 2 25 16
M  V30 20 2 26 14
M  V30 21 1 27 10
M  V30 22 2 27 11
M  V30 23 1 27 17
M  V30 24 1 28 3
M  V30 25 2 28 17
M  V30 26 1 28 26
M  V30 27 1 29 21
M  V30 28 1 30 8
M  V30 29 1 31 8
M  V30 30 1 32 13
M  V30 31 1 33 15
M  V30 32 2 33 29
M  V30 33 1 33 30
M  V30 34 1 34 10
M  V30 35 1 34 19
M  V30 36 1 35 15
M  V30 37 1 36 12
M  V30 38 1 36 31
M  V30 39 1 37 3
M  V30 40 1 38 3
M  V30 41 1 39 3
M  V30 42 1 40 5
M  V30 43 1 41 5
M  V30 44 1 42 5
M  V30 45 1 43 6
M  V30 46 1 7 44 CFG=3
M  V30 47 1 8 45 CFG=1
M  V30 48 1 46 9
M  V30 49 1 47 10
M  V30 50 1 48 10
M  V30 51 1 49 11
M  V30 52 1 50 12
M  V30 53 1 51 12
M  V30 54 1 52 14
M  V30 55 1 53 16
M  V30 56 1 54 17
M  V30 57 1 55 21
M  V30 58 1 56 22
M  V30 59 1 57 24
M  V30 60 1 58 25
M  V30 61 1 59 26
M  V30 62 1 60 29
M  V30 63 1 61 30
M  V30 64 1 62 30
M  V30 65 1 63 31
M  V30 66 1 64 31
M  V30 67 1 65 35
M  V30 68 1 66 35
M  V30 69 1 67 35
M  V30 70 1 68 20
M  V30 END BOND
M  V30 END CTAB
M  END
>  <i_epik_Tot_Q>  (1) 
-1

>  <i_epik_Tot_abs_Q>  (1) 
3

>  <i_i_glide_confnum>  (1) 
4204

>  <i_i_glide_lignum>  (1) 
58

>  <i_i_glide_posenum>  (1) 
179

>  <i_i_glide_rotatable_bonds>  (1) 
13

>  <i_lp_mmshare_version>  (1) 
72125

>  <i_m_source_file_index>  (1) 
24

>  <i_f3d_flags>  (1) 
0

>  <num_sample>  (1) 
100

>  <b_lp_Chiralities_Consistent>  (1) 
1

>  <r_epik_Charging_Adjusted_Penalty>  (1) 
1.2797278025130083

>  <r_epik_Ionization_Penalty>  (1) 
0.64011743969219936

>  <r_epik_Ionization_Penalty_Charging>  (1) 
0.64011720958933516

>  <r_epik_Ionization_Penalty_Neutral>  (1) 
2.3010286421690967e-07

>  <r_epik_State_Penalty>  (1) 
0.63961059292367306

>  <r_glide_ring_energy>  (1) 
0

>  <r_i_docking_score>  (1) 
-5.9400025714414753

>  <r_i_glide_ecoul>  (1) 
-6.0890732571567332

>  <r_i_glide_eff_state_penalty>  (1) 
0.63961059292367306

>  <r_i_glide_einternal>  (1) 
6.2983730653261869

>  <r_i_glide_emodel>  (1) 
-68.879692883804069

>  <r_i_glide_emodel_strain>  (1) 
1.2839075072914579

>  <r_i_glide_energy>  (1) 
-48.996247047662308

>  <r_i_glide_erotb>  (1) 
0.93981710635313198

>  <r_i_glide_esite>  (1) 
-0.059214144423458605

>  <r_i_glide_evdw>  (1) 
-42.907173790505574

>  <r_i_glide_gscore>  (1) 
-6.5796131643651483

>  <r_i_glide_gscore_strain>  (1) 
0

>  <r_i_glide_hbond>  (1) 
-0.21790531922648876

>  <r_i_glide_ligand_efficiency>  (1) 
-0.16500007142892986

>  <r_i_glide_ligand_efficiency_ln>  (1) 
-1.2959480807648363

>  <r_i_glide_ligand_efficiency_sa>  (1) 
-0.54481823192074341

>  <r_i_glide_lipo>  (1) 
-3.3043675257987073

>  <r_i_glide_metal>  (1) 
-0

>  <r_i_glide_rewards>  (1) 
-0.87922360317083648

>  <r_lp_Energy>  (1) 
41.185898999999999

>  <r_lp_tautomer_probability>  (1) 
0.99984579293731657

>  <s_epik_cmdline>  (1) 
J2VwaWtfcHl0aG9uJywgJy1waHQnLCAnMS4wJywgJy1waCcsICc3LjQnLCAnLXRuJywgJzgnLCAnLW1hJywgJzUwMCcsICctaW1hZScsICc8aW5maWxlLm1hZT4nLCAnLW9tYWUnLCAnPG91dGZpbGUubWFlPic=

>  <s_epik_input>  (1) 
W2NIXTFuW2NIXVtjSF1jKFtDSDNdKWMxW05IXVtDQEhdKEMoPU8pW09IXSlbQ0gyXU9bQ0gyXVtDQEBIXShbQ0gyXWMyW2NIXVtjSF1bY0hdW2NIXWMyW0NIM10pW1BAQF0oPU8pKFtPSF0pT1tDSDJdYzNbY0hdW2NIXVtjSF1jKFtDSDNdKVtjSF0z

>  <s_glide_docking_method>  (1) 
confgen

>  <s_i_glide_gridfile>  (1) 
gpcr_5ht2c_6bqh_protein_autoprepared_prepared

>  <s_lp_Force_Field>  (1) 
S-OPLS

>  <s_lp_Variant>  (1) 
DiffSBDD_23-2

>  <s_m_source_file>  (1) 
generated_GPCR_5HT2C_ligand_DiffSBDD_2026-06-23_prepared.sdf

>  <GenAI_Model>  (1) 
DiffSBDD

>  <Protein>  (1) 
GPCR_5HT2C

$$$$
DiffSBDD_17
     RDKit          3D

  0  0  0  0  0  0  0  0  0  0999 V3000
M  V30 BEGIN CTAB
M  V30 COUNTS 82 87 0 0 1
M  V30 BEGIN ATOM
M  V30 1 C 39.645209 35.701239 63.280366 0 CFG=1
M  V30 2 C 39.974883 34.522564 62.357424 0 CFG=1
M  V30 3 C 39.354287 31.501255 61.147745 0
M  V30 4 C 39.727510 25.956450 54.444468 0
M  V30 5 N 38.177658 27.254834 55.557102 0
M  V30 6 C 38.119856 28.495554 54.989570 0
M  V30 7 O 39.006568 33.449992 62.507999 0
M  V30 8 C 40.176160 35.177265 60.985100 0
M  V30 9 C 34.806654 33.543298 61.106484 0
M  V30 10 C 40.043324 30.732179 54.332319 0
M  V30 11 C 37.525925 29.787224 57.100366 0
M  V30 12 O 35.656068 34.536077 60.544250 0
M  V30 13 C 38.267184 29.689970 55.904754 0
M  V30 14 O 39.043769 35.389179 60.167780 0
M  V30 15 C 37.672335 30.949507 57.854121 0
M  V30 16 C 38.600617 26.995222 56.945488 0
M  V30 17 C 36.926830 31.213662 59.110816 0
M  V30 18 N 37.676715 33.276709 60.643559 0 CHG=1
M  V30 19 N 39.236307 31.911141 56.303891 0
M  V30 20 C 37.380781 32.741571 59.274908 0 CFG=1
M  V30 21 C 39.455960 31.241496 53.022985 0
M  V30 22 C 38.485945 31.945800 57.419802 0
M  V30 23 C 39.128443 30.785739 55.555891 0
M  V30 24 C 41.269994 33.862943 62.827788 0
M  V30 25 C 37.120622 36.421029 59.376678 0
M  V30 26 C 42.079739 34.368799 63.767840 0
M  V30 27 C 38.211661 26.081142 54.690657 0
M  V30 28 C 36.951562 34.518708 61.049826 0 CFG=1
M  V30 29 C 40.837249 36.537717 63.687290 0
M  V30 30 C 38.335184 36.536040 63.115688 0
M  V30 31 C 41.862137 35.690381 64.456512 0
M  V30 32 C 40.119099 26.777343 56.861372 0
M  V30 33 C 38.510104 33.160377 58.238305 0
M  V30 34 C 40.444895 25.732247 55.773397 0
M  V30 35 C 37.850210 36.899251 61.707558 0
M  V30 36 C 38.612817 32.784915 61.395020 0
M  V30 37 O 37.980283 28.659777 53.779091 0
M  V30 38 C 37.764697 35.793336 60.632022 0 CFG=1
M  V30 39 H 39.645163 35.175678 64.181107 0
M  V30 40 H 38.734364 30.655044 61.438074 0
M  V30 41 H 39.645045 31.390525 60.106279 0
M  V30 42 H 40.096033 26.867026 53.971774 0
M  V30 43 H 40.045157 25.183331 53.767815 0
M  V30 44 H 40.723268 36.114964 61.030800 0
M  V30 45 H 40.842676 34.537601 60.458008 0
M  V30 46 H 33.853929 33.558632 60.576907 0
M  V30 47 H 35.199610 32.531894 61.011275 0
M  V30 48 H 34.628296 33.737480 62.165187 0
M  V30 49 H 40.917990 31.337784 54.567449 0
M  V30 50 H 40.445085 29.737576 54.198486 0
M  V30 51 H 36.845709 29.007598 57.409391 0
M  V30 52 H 38.389516 27.688967 57.742035 0
M  V30 53 H 38.129127 26.068548 57.275582 0
M  V30 54 H 37.237399 30.531602 59.895912 0
M  V30 55 H 35.850080 31.115347 58.967918 0
M  V30 56 H 36.514899 33.283421 58.899341 0
M  V30 57 H 40.242097 31.450140 52.297396 0
M  V30 58 H 38.845134 30.473153 52.567863 0
M  V30 59 H 38.852284 32.136847 53.171954 0
M  V30 60 H 41.520885 32.917730 62.380153 0
M  V30 61 H 36.122063 36.808763 59.584134 0
M  V30 62 H 37.713364 37.256902 59.006059 0
M  V30 63 H 37.029089 35.701214 58.567674 0
M  V30 64 H 42.952642 33.822588 64.056384 0
M  V30 65 H 37.811263 25.196523 55.188316 0
M  V30 66 H 37.651353 26.204966 53.761706 0
M  V30 67 H 36.856369 34.479215 62.134161 0
M  V30 68 H 41.299212 37.044911 62.845070 0
M  V30 69 H 40.445025 37.303665 64.350626 0
M  V30 70 H 38.462699 37.480207 63.640384 0
M  V30 71 H 37.495069 36.137805 63.671005 0
M  V30 72 H 41.530769 35.501941 65.479145 0
M  V30 73 H 42.820952 36.201024 64.524686 0
M  V30 74 H 40.606855 27.719917 56.611268 0
M  V30 75 H 40.523590 26.462541 57.824045 0
M  V30 76 H 38.228834 34.027330 57.642654 0
M  V30 77 H 39.500186 33.308507 58.669521 0
M  V30 78 H 41.488540 25.737759 55.522449 0
M  V30 79 H 40.193285 24.741500 56.151250 0
M  V30 80 H 38.496459 37.691585 61.327109 0
M  V30 81 H 36.862482 37.353827 61.816464 0
M  V30 82 H 40.253450 31.428209 61.751644 0
M  V30 END ATOM
M  V30 BEGIN BOND
M  V30 1 1 2 1
M  V30 2 1 6 5
M  V30 3 1 2 7 CFG=3
M  V30 4 1 8 2
M  V30 5 1 12 9
M  V30 6 1 13 6
M  V30 7 1 13 11
M  V30 8 1 14 8
M  V30 9 2 15 11
M  V30 10 1 16 5
M  V30 11 1 17 15
M  V30 12 1 20 17
M  V30 13 1 20 18
M  V30 14 1 21 10
M  V30 15 1 22 15
M  V30 16 2 22 19
M  V30 17 1 23 10
M  V30 18 2 23 13
M  V30 19 1 23 19
M  V30 20 1 24 2
M  V30 21 2 26 24
M  V30 22 1 27 4
M  V30 23 1 27 5
M  V30 24 1 28 12
M  V30 25 1 28 18
M  V30 26 1 29 1
M  V30 27 1 30 1
M  V30 28 1 31 26
M  V30 29 1 31 29
M  V30 30 1 32 16
M  V30 31 1 33 20
M  V30 32 1 33 22
M  V30 33 1 34 4
M  V30 34 1 34 32
M  V30 35 1 35 30
M  V30 36 1 36 3
M  V30 37 1 36 7
M  V30 38 2 36 18
M  V30 39 2 37 6
M  V30 40 1 38 14
M  V30 41 1 38 25 CFG=3
M  V30 42 1 38 28
M  V30 43 1 38 35
M  V30 44 1 1 39 CFG=1
M  V30 45 1 40 3
M  V30 46 1 41 3
M  V30 47 1 42 4
M  V30 48 1 43 4
M  V30 49 1 44 8
M  V30 50 1 45 8
M  V30 51 1 46 9
M  V30 52 1 47 9
M  V30 53 1 48 9
M  V30 54 1 49 10
M  V30 55 1 50 10
M  V30 56 1 51 11
M  V30 57 1 52 16
M  V30 58 1 53 16
M  V30 59 1 54 17
M  V30 60 1 55 17
M  V30 61 1 20 56 CFG=3
M  V30 62 1 57 21
M  V30 63 1 58 21
M  V30 64 1 59 21
M  V30 65 1 60 24
M  V30 66 1 61 25
M  V30 67 1 62 25
M  V30 68 1 63 25
M  V30 69 1 64 26
M  V30 70 1 65 27
M  V30 71 1 66 27
M  V30 72 1 28 67 CFG=1
M  V30 73 1 68 29
M  V30 74 1 69 29
M  V30 75 1 70 30
M  V30 76 1 71 30
M  V30 77 1 72 31
M  V30 78 1 73 31
M  V30 79 1 74 32
M  V30 80 1 75 32
M  V30 81 1 76 33
M  V30 82 1 77 33
M  V30 83 1 78 34
M  V30 84 1 79 34
M  V30 85 1 80 35
M  V30 86 1 81 35
M  V30 87 1 82 3
M  V30 END BOND
M  V30 END CTAB
M  END
>  <i_epik_Tot_Q>  (1) 
1

>  <i_epik_Tot_abs_Q>  (1) 
1

>  <i_i_glide_confnum>  (1) 
9

>  <i_i_glide_lignum>  (1) 
41

>  <i_i_glide_posenum>  (1) 
199

>  <i_i_glide_rotatable_bonds>  (1) 
5

>  <i_lp_mmshare_version>  (1) 
72125

>  <i_m_source_file_index>  (1) 
18

>  <i_f3d_flags>  (1) 
0

>  <num_sample>  (1) 
100

>  <b_lp_Chiralities_Consistent>  (1) 
1

>  <r_epik_Charging_Adjusted_Penalty>  (1) 
0

>  <r_epik_Ionization_Penalty>  (1) 
0.00083164263378673008

>  <r_epik_Ionization_Penalty_Charging>  (1) 
0

>  <r_epik_Ionization_Penalty_Neutral>  (1) 
0.00083164263378673008

>  <r_epik_State_Penalty>  (1) 
-0

>  <r_glide_ring_energy>  (1) 
0.024669712861687145

>  <r_i_docking_score>  (1) 
-5.9316272989728809

>  <r_i_glide_ecoul>  (1) 
-0.019790862449219571

>  <r_i_glide_eff_state_penalty>  (1) 
-0

>  <r_i_glide_einternal>  (1) 
7.9073315330727141

>  <r_i_glide_emodel>  (1) 
-22.643444747964072

>  <r_i_glide_emodel_strain>  (1) 
5.7157827216141186

>  <r_i_glide_energy>  (1) 
-22.454469454828399

>  <r_i_glide_erotb>  (1) 
0.22580550804498301

>  <r_i_glide_esite>  (1) 
0

>  <r_i_glide_evdw>  (1) 
-22.434678592379178

>  <r_i_glide_gscore>  (1) 
-5.9316272989728809

>  <r_i_glide_gscore_strain>  (1) 
0.42894568040352965

>  <r_i_glide_hbond>  (1) 
0

>  <r_i_glide_ligand_efficiency>  (1) 
-0.15609545523612844

>  <r_i_glide_ligand_efficiency_ln>  (1) 
-1.2790333364551103

>  <r_i_glide_ligand_efficiency_sa>  (1) 
-0.52478908161695237

>  <r_i_glide_lipo>  (1) 
-3.6360102398809415

>  <r_i_glide_metal>  (1) 
-0

>  <r_i_glide_rewards>  (1) 
-1.8256656885541103

>  <r_lp_Energy>  (1) 
80.436117999999993

>  <r_lp_tautomer_probability>  (1) 
1

>  <s_epik_Chemistry_Notes>  (1) 
This compound has an imine and may undergo hydrolysis. This compound contains an acetal/aminal-like group ( X-CH(R)-Y where X, Y are N, S, or O) that may be acid/base labile, releasing an aldehyde.

>  <s_epik_cmdline>  (1) 
J2VwaWtfcHl0aG9uJywgJy1waHQnLCAnMS4wJywgJy1waCcsICc3LjQnLCAnLXRuJywgJzgnLCAnLW1hJywgJzUwMCcsICctaW1hZScsICc8aW5maWxlLm1hZT4nLCAnLW9tYWUnLCAnPG91dGZpbGUubWFlPic=

>  <s_epik_input>  (1) 
W0NIXTE9W0NIXVtDSDJdW0NIMl1bQ0BIXShbQ0BAXTEyMylbQ0gyXVtDSDJdW0NAQF0oW0NIM10pKE9bQ0gyXTMpW0NAQEhdKE9bQ0gzXSlOKEMoTzIpPVtDSDJdKVtDQEhdKFtDSDJdNClbQ0gyXWMoYzQ1KW5jKFtDSDJdW0NIM10pYyhbY0hdNSlDKD1PKU42W0NIMl1bQ0gyXVtDSDJdW0NIMl1bQ0gyXTY=

>  <s_glide_docking_method>  (1) 
confgen

>  <s_i_glide_gridfile>  (1) 
gpcr_5ht2c_6bqh_protein_autoprepared_prepared

>  <s_lp_Force_Field>  (1) 
S-OPLS

>  <s_lp_Variant>  (1) 
DiffSBDD_17-1

>  <s_m_source_file>  (1) 
generated_GPCR_5HT2C_ligand_DiffSBDD_2026-06-23_prepared.sdf

>  <GenAI_Model>  (1) 
DiffSBDD

>  <Protein>  (1) 
GPCR_5HT2C

$$$$
DiffSBDD_54
     RDKit          3D

  0  0  0  0  0  0  0  0  0  0999 V3000
M  V30 BEGIN CTAB
M  V30 COUNTS 42 43 0 0 1
M  V30 BEGIN ATOM
M  V30 1 C 39.487437 29.790214 55.975298 0
M  V30 2 C 36.726736 31.674910 60.172429 0
M  V30 3 C 39.182455 31.228388 60.164190 0
M  V30 4 C 37.429545 25.559893 56.449130 0
M  V30 5 C 39.234597 27.152411 57.291185 0
M  V30 6 S 37.747963 30.455395 57.837957 0 CHG=1
M  V30 7 C 38.123735 31.936339 55.914832 0
M  V30 8 N 36.566563 31.983345 61.444050 0
M  V30 9 C 41.138722 28.377698 58.380736 0
M  V30 10 C 35.498870 32.859998 61.318324 0
M  V30 11 N 35.023125 33.025556 60.072490 0
M  V30 12 N 35.856909 32.249509 59.367786 0
M  V30 13 N 39.283921 29.735262 57.451426 0 CFG=1 CHG=1
M  V30 14 C 39.623136 28.422826 58.095051 0 CFG=1
M  V30 15 C 39.409782 31.236091 55.445702 0
M  V30 16 C 37.731565 26.873603 57.179340 0
M  V30 17 O 38.045126 31.831691 57.332220 0
M  V30 18 C 37.809722 30.735733 59.663864 0 CFG=2
M  V30 19 H 38.729524 29.186145 55.474088 0
M  V30 20 H 40.453635 29.363568 55.707989 0
M  V30 21 H 39.184654 31.323301 61.250623 0
M  V30 22 H 39.425028 32.214053 59.767658 0
M  V30 23 H 39.986125 30.537768 59.932019 0
M  V30 24 H 36.355627 25.378118 56.399975 0
M  V30 25 H 37.883072 24.711330 56.962613 0
M  V30 26 H 37.810921 25.575652 55.427740 0
M  V30 27 H 39.677656 26.290858 57.793340 0
M  V30 28 H 39.690018 27.153349 56.300125 0
M  V30 29 H 38.147671 32.991670 55.638798 0
M  V30 30 H 37.245132 31.510322 55.427499 0
M  V30 31 H 41.402743 27.493012 58.961344 0
M  V30 32 H 41.488995 29.240176 58.946695 0
M  V30 33 H 41.723015 28.332936 57.461191 0
M  V30 34 H 35.061675 33.374074 62.162065 0
M  V30 35 H 35.774481 32.137739 58.345714 0
M  V30 36 H 39.131013 28.367759 59.065949 0
M  V30 37 H 40.276034 31.808788 55.776156 0
M  V30 38 H 39.450680 31.237651 54.355580 0
M  V30 39 H 37.286340 26.827376 58.167776 0
M  V30 40 H 37.245142 27.692599 56.662480 0
M  V30 41 H 37.615504 29.768607 60.126998 0
M  V30 42 H 39.988838 30.360092 57.810929 0
M  V30 END ATOM
M  V30 BEGIN BOND
M  V30 1 2 8 2
M  V30 2 1 10 8
M  V30 3 2 11 10
M  V30 4 1 12 2
M  V30 5 1 12 11
M  V30 6 1 13 1
M  V30 7 1 13 6
M  V30 8 1 14 5
M  V30 9 1 14 9
M  V30 10 1 14 13
M  V30 11 1 15 1
M  V30 12 1 15 7
M  V30 13 1 16 4
M  V30 14 1 16 5
M  V30 15 1 6 17 CFG=3
M  V30 16 1 17 7
M  V30 17 1 18 2
M  V30 18 1 18 3
M  V30 19 1 18 6
M  V30 20 1 19 1
M  V30 21 1 20 1
M  V30 22 1 21 3
M  V30 23 1 22 3
M  V30 24 1 23 3
M  V30 25 1 24 4
M  V30 26 1 25 4
M  V30 27 1 26 4
M  V30 28 1 27 5
M  V30 29 1 28 5
M  V30 30 1 29 7
M  V30 31 1 30 7
M  V30 32 1 31 9
M  V30 33 1 32 9
M  V30 34 1 33 9
M  V30 35 1 34 10
M  V30 36 1 35 12
M  V30 37 1 14 36 CFG=1
M  V30 38 1 37 15
M  V30 39 1 38 15
M  V30 40 1 39 16
M  V30 41 1 40 16
M  V30 42 1 18 41 CFG=1
M  V30 43 1 13 42 CFG=1
M  V30 END BOND
M  V30 END CTAB
M  END
>  <i_epik_Tot_Q>  (1) 
2

>  <i_epik_Tot_abs_Q>  (1) 
2

>  <i_i_glide_confnum>  (1) 
13

>  <i_i_glide_lignum>  (1) 
117

>  <i_i_glide_posenum>  (1) 
378

>  <i_i_glide_rotatable_bonds>  (1) 
5

>  <i_lp_mmshare_version>  (1) 
72125

>  <i_m_source_file_index>  (1) 
55

>  <i_f3d_flags>  (1) 
0

>  <num_sample>  (1) 
100

>  <b_lp_Chiralities_Consistent>  (1) 
1

>  <r_epik_Charging_Adjusted_Penalty>  (1) 
0.22285261290592212

>  <r_epik_Ionization_Penalty>  (1) 
0.11376846567106323

>  <r_epik_Ionization_Penalty_Charging>  (1) 
0.11142630645296109

>  <r_epik_Ionization_Penalty_Neutral>  (1) 
0.0023421592181021404

>  <r_epik_State_Penalty>  (1) 
0.11142630645296105

>  <r_glide_ring_energy>  (1) 
0

>  <r_i_docking_score>  (1) 
-5.9297586254488008

>  <r_i_glide_ecoul>  (1) 
-8.2281598029046457

>  <r_i_glide_eff_state_penalty>  (1) 
0.11142630645296105

>  <r_i_glide_einternal>  (1) 
7.0430318866628125

>  <r_i_glide_emodel>  (1) 
-43.057151189083896

>  <r_i_glide_emodel_strain>  (1) 
1.3113237033896645

>  <r_i_glide_energy>  (1) 
-28.493624944620311

>  <r_i_glide_erotb>  (1) 
0.96597774364564237

>  <r_i_glide_esite>  (1) 
-0.24869839677583735

>  <r_i_glide_evdw>  (1) 
-20.265465141715666

>  <r_i_glide_gscore>  (1) 
-6.0411849319017623

>  <r_i_glide_gscore_strain>  (1) 
0

>  <r_i_glide_hbond>  (1) 
-0.41115393775162157

>  <r_i_glide_ligand_efficiency>  (1) 
-0.32943103474715563

>  <r_i_glide_ligand_efficiency_ln>  (1) 
-1.5242138783815087

>  <r_i_glide_ligand_efficiency_sa>  (1) 
-0.86335354929894004

>  <r_i_glide_lipo>  (1) 
-1.4796147238939972

>  <r_i_glide_metal>  (1) 
-0

>  <r_i_glide_rewards>  (1) 
-2.6201983896044689

>  <r_lp_Energy>  (1) 
23.329950999999998

>  <r_lp_tautomer_probability>  (1) 
0.94828448534560383

>  <s_epik_cmdline>  (1) 
J2VwaWtfcHl0aG9uJywgJy1waHQnLCAnMS4wJywgJy1waCcsICc3LjQnLCAnLXRuJywgJzgnLCAnLW1hJywgJzUwMCcsICctaW1hZScsICc8aW5maWxlLm1hZT4nLCAnLW9tYWUnLCAnPG91dGZpbGUubWFlPic=

>  <s_epik_input>  (1) 
W0NIM11bQ0gyXVtDSDJdW0NASF0oW0NIM10pTihbQ0gyXVtDSDJdW0NIMl1PMSlbUytdMVtDQEBIXShbQ0gzXSljMm5bY0hdbltuSF0y

>  <s_glide_docking_method>  (1) 
confgen

>  <s_i_glide_gridfile>  (1) 
gpcr_5ht2c_6bqh_protein_autoprepared_prepared

>  <s_lp_Force_Field>  (1) 
S-OPLS

>  <s_lp_Variant>  (1) 
DiffSBDD_54-3

>  <s_m_source_file>  (1) 
generated_GPCR_5HT2C_ligand_DiffSBDD_2026-06-23_prepared.sdf

>  <GenAI_Model>  (1) 
DiffSBDD

>  <Protein>  (1) 
GPCR_5HT2C

$$$$
DiffSBDD_93
     RDKit          3D

  0  0  0  0  0  0  0  0  0  0999 V3000
M  V30 BEGIN CTAB
M  V30 COUNTS 83 84 0 0 1
M  V30 BEGIN ATOM
M  V30 1 C 39.408523 28.768362 61.137461 0
M  V30 2 O 40.761747 29.029557 61.431773 0
M  V30 3 C 38.245269 30.184060 54.233287 0
M  V30 4 C 40.797204 34.489625 62.079244 0
M  V30 5 O 38.301580 31.191848 61.866377 0
M  V30 6 C 37.117027 36.937606 63.406931 0
M  V30 7 N 35.819081 37.040853 63.676989 0
M  V30 8 O 37.971900 36.937678 64.286269 0
M  V30 9 O 39.437868 25.338048 58.161023 0
M  V30 10 C 41.698112 33.955838 63.177592 0
M  V30 11 C 38.974819 29.921712 55.542503 0
M  V30 12 C 37.943473 32.025128 59.636884 0
M  V30 13 C 38.911608 29.437089 58.737526 0
M  V30 14 C 38.465129 35.611330 61.490263 0 CFG=2
M  V30 15 C 37.519104 36.829364 61.916989 0 CFG=2
M  V30 16 C 39.014110 27.861801 54.432546 0 CFG=1
M  V30 17 C 39.928432 28.004368 56.776957 0 CFG=1
M  V30 18 C 41.404726 28.379593 56.661709 0
M  V30 19 C 38.434966 33.461800 59.996475 0
M  V30 20 S 38.445181 26.633704 58.567678 0 CHG=1
M  V30 21 O 35.929253 34.884299 59.767895 0
M  V30 22 N 38.864010 29.759427 60.192462 0
M  V30 23 O 37.254096 26.638901 57.368178 0
M  V30 24 O 37.244902 28.533777 52.816861 0
M  V30 25 F 37.247346 26.306446 54.779802 0
M  V30 26 C 40.702821 33.044964 62.525083 0
M  V30 27 C 36.248640 34.267594 61.001850 0
M  V30 28 C 37.778324 34.216039 61.207505 0 CFG=2
M  V30 29 C 38.384056 30.950188 60.663215 0
M  V30 30 C 38.144148 38.177783 61.520389 0
M  V30 31 C 39.340152 25.268081 54.709668 0
M  V30 32 C 39.490885 28.067527 58.258608 0 CFG=2
M  V30 33 O 36.006077 39.230088 61.767823 0
M  V30 34 C 39.706859 35.485687 62.434590 0
M  V30 35 C 38.445539 26.426445 54.244009 0 CFG=2
M  V30 36 C 37.183823 39.378094 61.367787 0
M  V30 37 C 38.459337 28.902375 53.425220 0 CFG=1
M  V30 38 O 37.666636 40.423691 60.877260 0 CHG=-1
M  V30 39 N 38.947157 28.481783 55.769417 0
M  V30 40 H 38.874132 28.810830 62.087975 0
M  V30 41 H 39.300017 27.740833 60.834454 0
M  V30 42 H 40.875014 28.953452 62.369933 0
M  V30 43 H 37.186226 30.351353 54.439335 0
M  V30 44 H 38.627098 31.067010 53.721358 0
M  V30 45 H 41.286741 34.686055 61.128892 0
M  V30 46 H 35.150738 37.076216 62.923561 0
M  V30 47 H 35.508264 37.112282 64.634346 0
M  V30 48 H 39.658865 25.439926 57.249381 0
M  V30 49 H 42.732436 33.706225 62.969115 0
M  V30 50 H 41.497277 34.259706 64.204373 0
M  V30 51 H 38.499092 30.471048 56.349742 0
M  V30 52 H 39.993477 30.284711 55.449281 0
M  V30 53 H 38.305748 31.836539 58.632703 0
M  V30 54 H 36.858463 31.989069 59.540007 0
M  V30 55 H 39.555313 30.185297 58.280845 0
M  V30 56 H 37.910333 29.555954 58.315832 0
M  V30 57 H 38.864333 35.901908 60.519788 0
M  V30 58 H 36.608428 36.773690 61.324439 0
M  V30 59 H 40.045190 27.748617 54.174189 0
M  V30 60 H 40.038737 26.961271 56.562084 0
M  V30 61 H 42.037897 27.490138 56.661114 0
M  V30 62 H 41.645245 28.937921 55.767919 0
M  V30 63 H 41.732715 28.936359 57.538744 0
M  V30 64 H 39.514283 33.414575 60.121023 0
M  V30 65 H 38.313939 34.074167 59.102657 0
M  V30 66 H 36.288872 34.371009 59.060424 0
M  V30 67 H 37.651520 27.004378 56.585567 0
M  V30 68 H 36.693080 28.140733 53.477928 0
M  V30 69 H 39.868539 32.742947 63.148524 0
M  V30 70 H 41.083518 32.285189 61.849186 0
M  V30 71 H 35.818767 33.264321 61.009825 0
M  V30 72 H 35.769882 34.781975 61.835823 0
M  V30 73 H 37.926521 33.623614 62.109579 0
M  V30 74 H 39.013009 38.414489 62.138892 0
M  V30 75 H 38.559401 38.058667 60.563521 0
M  V30 76 H 40.276943 25.289019 54.160653 0
M  V30 77 H 39.573495 25.251408 55.756952 0
M  V30 78 H 38.840716 24.310397 54.568007 0
M  V30 79 H 40.373125 27.849220 58.865644 0
M  V30 80 H 40.184071 36.460413 62.539151 0
M  V30 81 H 39.368225 35.201552 63.424450 0
M  V30 82 H 38.285443 26.253582 53.177051 0
M  V30 83 H 39.196670 29.069457 52.639078 0
M  V30 END ATOM
M  V30 BEGIN BOND
M  V30 1 1 2 1
M  V30 2 1 7 6
M  V30 3 2 8 6
M  V30 4 1 10 4
M  V30 5 1 11 3
M  V30 6 1 15 6
M  V30 7 1 15 14
M  V30 8 1 18 17
M  V30 9 1 19 12
M  V30 10 1 20 9
M  V30 11 1 22 1
M  V30 12 1 22 13
M  V30 13 1 23 20
M  V30 14 1 26 4
M  V30 15 1 26 10
M  V30 16 1 27 21
M  V30 17 1 28 14
M  V30 18 1 28 19
M  V30 19 1 28 27
M  V30 20 2 29 5
M  V30 21 1 29 12
M  V30 22 1 29 22
M  V30 23 1 30 15
M  V30 24 1 32 13
M  V30 25 1 32 17
M  V30 26 1 32 20
M  V30 27 1 34 4
M  V30 28 1 34 14
M  V30 29 1 35 16
M  V30 30 1 35 25
M  V30 31 1 35 31
M  V30 32 1 36 30
M  V30 33 2 36 33
M  V30 34 1 37 3
M  V30 35 1 37 16
M  V30 36 1 37 24
M  V30 37 1 38 36
M  V30 38 1 39 11
M  V30 39 1 39 16
M  V30 40 1 39 17
M  V30 41 1 40 1
M  V30 42 1 41 1
M  V30 43 1 42 2
M  V30 44 1 43 3
M  V30 45 1 44 3
M  V30 46 1 45 4
M  V30 47 1 46 7
M  V30 48 1 47 7
M  V30 49 1 48 9
M  V30 50 1 49 10
M  V30 51 1 50 10
M  V30 52 1 51 11
M  V30 53 1 52 11
M  V30 54 1 53 12
M  V30 55 1 54 12
M  V30 56 1 55 13
M  V30 57 1 56 13
M  V30 58 1 14 57 CFG=3
M  V30 59 1 15 58 CFG=3
M  V30 60 1 16 59 CFG=3
M  V30 61 1 17 60 CFG=3
M  V30 62 1 61 18
M  V30 63 1 62 18
M  V30 64 1 63 18
M  V30 65 1 64 19
M  V30 66 1 65 19
M  V30 67 1 66 21
M  V30 68 1 67 23
M  V30 69 1 68 24
M  V30 70 1 69 26
M  V30 71 1 70 26
M  V30 72 1 71 27
M  V30 73 1 72 27
M  V30 74 1 28 73 CFG=1
M  V30 75 1 74 30
M  V30 76 1 75 30
M  V30 77 1 76 31
M  V30 78 1 77 31
M  V30 79 1 78 31
M  V30 80 1 32 79 CFG=1
M  V30 81 1 80 34
M  V30 82 1 81 34
M  V30 83 1 35 82 CFG=3
M  V30 84 1 37 83 CFG=3
M  V30 END BOND
M  V30 END CTAB
M  END
>  <i_epik_Tot_Q>  (1) 
0

>  <i_epik_Tot_abs_Q>  (1) 
2

>  <i_i_glide_confnum>  (1) 
8005

>  <i_i_glide_lignum>  (1) 
214

>  <i_i_glide_posenum>  (1) 
140

>  <i_i_glide_rotatable_bonds>  (1) 
24

>  <i_lp_mmshare_version>  (1) 
72125

>  <i_m_source_file_index>  (1) 
94

>  <i_f3d_flags>  (1) 
0

>  <num_sample>  (1) 
100

>  <b_lp_Chiralities_Consistent>  (1) 
1

>  <r_epik_Charging_Adjusted_Penalty>  (1) 
0.37121505818338452

>  <r_epik_Ionization_Penalty>  (1) 
0.37121789513022985

>  <r_epik_Ionization_Penalty_Charging>  (1) 
0.00098257200063165957

>  <r_epik_Ionization_Penalty_Neutral>  (1) 
0.37023532312959817

>  <r_epik_State_Penalty>  (1) 
0.37023248618275284

>  <r_glide_ring_energy>  (1) 
0

>  <r_i_docking_score>  (1) 
-5.9271993973294403

>  <r_i_glide_ecoul>  (1) 
-4.4662464439885552

>  <r_i_glide_eff_state_penalty>  (1) 
0.37023248618275284

>  <r_i_glide_einternal>  (1) 
15.618093761461058

>  <r_i_glide_emodel>  (1) 
-40.862735440090567

>  <r_i_glide_emodel_strain>  (1) 
3.9126282907925543

>  <r_i_glide_energy>  (1) 
-28.473389630279598

>  <r_i_glide_erotb>  (1) 
0.82577533054746977

>  <r_i_glide_esite>  (1) 
0

>  <r_i_glide_evdw>  (1) 
-24.007143186291042

>  <r_i_glide_gscore>  (1) 
-6.2974318835121927

>  <r_i_glide_gscore_strain>  (1) 
0

>  <r_i_glide_hbond>  (1) 
-0.33615134314468725

>  <r_i_glide_ligand_efficiency>  (1) 
-0.15197947172639589

>  <r_i_glide_ligand_efficiency_ln>  (1) 
-1.2709598043479289

>  <r_i_glide_ligand_efficiency_sa>  (1) 
-0.51539452362180183

>  <r_i_glide_lipo>  (1) 
-3.4093483917641771

>  <r_i_glide_metal>  (1) 
-0

>  <r_i_glide_rewards>  (1) 
-1.5074133532379621

>  <r_lp_Energy>  (1) 
19.498639999999998

>  <s_epik_Chemistry_Notes>  (1) 
This compound contains an acetal/aminal-like group ( X-CH(R)-Y where X, Y are N, S, or O) that may be acid/base labile, releasing an aldehyde.

>  <s_epik_cmdline>  (1) 
J2VwaWtfcHl0aG9uJywgJy1waHQnLCAnMS4wJywgJy1waCcsICc3LjQnLCAnLXRuJywgJzgnLCAnLW1hJywgJzUwMCcsICctaW1hZScsICc8aW5maWxlLm1hZT4nLCAnLW9tYWUnLCAnPG91dGZpbGUubWFlPic=

>  <s_epik_input>  (1) 
W0NIMl0xW0NIMl1bQ0hdMVtDSDJdW0NAQEhdKFtDQEBIXShDKD1PKVtOSDJdKVtDSDJdQyg9TylbT0hdKVtDQEBIXShbQ0gyXVtPSF0pW0NIMl1bQ0gyXUMoPU8pTihbQ0gyXVtPSF0pW0NIMl1bQ0BASF0oW1MrXShbT0hdKVtPSF0pW0NASF0oW0NIM10pTjJbQ0gyXVtDSDJdW0NASF0oW09IXSlbQ0BASF0yW0NASF0oRilbQ0gzXQ==

>  <s_glide_docking_method>  (1) 
confgen

>  <s_i_glide_gridfile>  (1) 
gpcr_5ht2c_6bqh_protein_autoprepared_prepared

>  <s_lp_Force_Field>  (1) 
S-OPLS

>  <s_lp_Variant>  (1) 
DiffSBDD_93-2

>  <s_m_source_file>  (1) 
generated_GPCR_5HT2C_ligand_DiffSBDD_2026-06-23_prepared.sdf

>  <GenAI_Model>  (1) 
DiffSBDD

>  <Protein>  (1) 
GPCR_5HT2C

$$$$
DiffSBDD_67
     RDKit          3D

  0  0  0  0  0  0  0  0  0  0999 V3000
M  V30 BEGIN CTAB
M  V30 COUNTS 76 77 0 0 1
M  V30 BEGIN ATOM
M  V30 1 C 38.044423 29.972523 59.286484 0
M  V30 2 O 38.311713 36.063967 62.359236 0
M  V30 3 O 41.645049 30.584412 62.721461 0 CHG=-1
M  V30 4 C 38.692641 28.672562 58.763703 0 CFG=1
M  V30 5 O 41.094957 28.341684 58.538764 0
M  V30 6 C 39.528897 35.948922 62.486977 0
M  V30 7 C 38.470916 28.466904 57.213098 0 CFG=1
M  V30 8 C 36.639321 30.103651 59.298929 0
M  V30 9 C 40.309971 28.326130 60.808554 0
M  V30 10 C 39.265194 29.452020 56.315661 0
M  V30 11 N 39.518178 30.137851 52.567765 0
M  V30 12 C 39.115358 33.382837 60.686380 0
M  V30 13 C 40.121301 29.749152 50.389633 0
M  V30 14 C 37.059871 24.932284 56.358440 0
M  V30 15 C 36.044025 31.291633 59.767864 0
M  V30 16 C 39.940982 26.440815 56.366953 0
M  V30 17 C 37.597200 25.980672 57.354939 0
M  V30 18 C 38.247502 32.230161 60.210709 0
M  V30 19 C 39.410808 33.354453 62.203542 0 CFG=2
M  V30 20 C 39.848362 31.385328 51.892594 0
M  V30 21 C 40.128520 29.096208 51.748982 0
M  V30 22 C 39.772414 31.185010 50.382719 0
M  V30 23 C 38.293614 25.266271 58.508297 0
M  V30 24 O 41.988230 32.471677 61.682825 0
M  V30 25 O 40.399513 29.150479 49.367782 0
M  V30 26 C 38.963310 29.330359 54.807568 0
M  V30 27 C 39.824009 30.273282 53.987469 0
M  V30 28 C 41.250543 31.702605 62.336714 0
M  V30 29 C 40.445165 37.153848 62.405277 0
M  V30 30 C 40.188872 34.588596 62.735736 0
M  V30 31 C 38.523087 27.001400 56.652959 0 CFG=1
M  V30 32 C 38.845030 31.039242 59.755022 0
M  V30 33 N 39.998123 32.078021 62.631969 0
M  V30 34 C 40.132356 28.434623 59.296452 0
M  V30 35 C 36.846099 32.354410 60.218899 0
M  V30 36 H 38.091640 27.916532 59.257296 0
M  V30 37 H 37.430054 28.750806 57.054649 0
M  V30 38 H 36.017762 29.294861 58.946260 0
M  V30 39 H 39.691552 29.049814 61.337906 0
M  V30 40 H 40.045096 27.337999 61.161132 0
M  V30 41 H 41.351286 28.509737 61.076249 0
M  V30 42 H 39.056710 30.473381 56.638419 0
M  V30 43 H 40.335656 29.316938 56.447883 0
M  V30 44 H 40.045032 33.385034 60.118899 0
M  V30 45 H 38.606534 34.306676 60.410130 0
M  V30 46 H 37.869817 24.397344 55.860677 0
M  V30 47 H 36.445372 24.186995 56.859471 0
M  V30 48 H 36.445493 25.394189 55.586912 0
M  V30 49 H 34.969070 31.390812 59.773044 0
M  V30 50 H 40.504495 26.251080 57.277431 0
M  V30 51 H 39.890214 25.497468 55.824396 0
M  V30 52 H 40.545675 27.113388 55.762255 0
M  V30 53 H 36.733682 26.510251 57.758629 0
M  V30 54 H 38.445130 33.339916 62.690799 0
M  V30 55 H 39.159077 32.137759 52.238929 0
M  V30 56 H 40.845329 31.704471 52.167444 0
M  V30 57 H 41.170684 28.936729 52.000516 0
M  V30 58 H 39.575825 28.156664 51.778605 0
M  V30 59 H 40.518308 31.737739 49.819135 0
M  V30 60 H 38.786203 31.348018 49.958205 0
M  V30 61 H 39.158914 24.718045 58.146760 0
M  V30 62 H 38.628461 25.940699 59.288120 0
M  V30 63 H 37.645144 24.525778 58.967723 0
M  V30 64 H 39.163727 28.331822 54.426330 0
M  V30 65 H 37.906788 29.532939 54.625994 0
M  V30 66 H 39.590106 31.285250 54.324264 0
M  V30 67 H 40.879939 30.137844 54.187712 0
M  V30 68 H 41.353727 36.964832 62.975603 0
M  V30 69 H 40.726654 37.337895 61.369308 0
M  V30 70 H 39.957826 38.043285 62.803778 0
M  V30 71 H 40.350619 34.483235 63.808653 0
M  V30 72 H 41.178588 34.630321 62.283248 0
M  V30 73 H 38.052151 27.079089 55.675018 0
M  V30 74 H 39.915238 30.944325 59.767823 0
M  V30 75 H 39.416959 31.444759 63.161868 0
M  V30 76 H 36.385666 33.267273 60.569579 0
M  V30 END ATOM
M  V30 BEGIN BOND
M  V30 1 1 4 1
M  V30 2 2 6 2
M  V30 3 1 7 4
M  V30 4 2 8 1
M  V30 5 1 10 7
M  V30 6 1 15 8
M  V30 7 1 17 14
M  V30 8 1 18 12
M  V30 9 1 19 12
M  V30 10 1 20 11
M  V30 11 1 21 11
M  V30 12 1 21 13
M  V30 13 1 22 13
M  V30 14 1 22 20
M  V30 15 1 23 17
M  V30 16 2 25 13
M  V30 17 1 26 10
M  V30 18 1 27 11
M  V30 19 1 27 26
M  V30 20 1 28 3
M  V30 21 2 28 24
M  V30 22 1 29 6
M  V30 23 1 30 6
M  V30 24 1 30 19
M  V30 25 1 31 7
M  V30 26 1 31 16
M  V30 27 1 31 17
M  V30 28 1 32 1
M  V30 29 2 32 18
M  V30 30 1 33 19
M  V30 31 1 33 28
M  V30 32 1 34 4
M  V30 33 2 34 5
M  V30 34 1 34 9
M  V30 35 2 35 15
M  V30 36 1 35 18
M  V30 37 1 4 36 CFG=1
M  V30 38 1 7 37 CFG=1
M  V30 39 1 38 8
M  V30 40 1 39 9
M  V30 41 1 40 9
M  V30 42 1 41 9
M  V30 43 1 42 10
M  V30 44 1 43 10
M  V30 45 1 44 12
M  V30 46 1 45 12
M  V30 47 1 46 14
M  V30 48 1 47 14
M  V30 49 1 48 14
M  V30 50 1 49 15
M  V30 51 1 50 16
M  V30 52 1 51 16
M  V30 53 1 52 16
M  V30 54 1 53 17
M  V30 55 1 19 54 CFG=1
M  V30 56 1 55 20
M  V30 57 1 56 20
M  V30 58 1 57 21
M  V30 59 1 58 21
M  V30 60 1 59 22
M  V30 61 1 60 22
M  V30 62 1 61 23
M  V30 63 1 62 23
M  V30 64 1 63 23
M  V30 65 1 64 26
M  V30 66 1 65 26
M  V30 67 1 66 27
M  V30 68 1 67 27
M  V30 69 1 68 29
M  V30 70 1 69 29
M  V30 71 1 70 29
M  V30 72 1 71 30
M  V30 73 1 72 30
M  V30 74 1 31 73 CFG=3
M  V30 75 1 74 32
M  V30 76 1 75 33
M  V30 77 1 76 35
M  V30 END BOND
M  V30 END CTAB
M  END
>  <i_epik_Tot_Q>  (1) 
-1

>  <i_epik_Tot_abs_Q>  (1) 
1

>  <i_i_glide_confnum>  (1) 
246

>  <i_i_glide_lignum>  (1) 
151

>  <i_i_glide_posenum>  (1) 
151

>  <i_i_glide_rotatable_bonds>  (1) 
15

>  <i_lp_mmshare_version>  (1) 
72125

>  <i_m_source_file_index>  (1) 
68

>  <i_f3d_flags>  (1) 
0

>  <num_sample>  (1) 
100

>  <b_lp_Chiralities_Consistent>  (1) 
1

>  <r_epik_Charging_Adjusted_Penalty>  (1) 
0.60629678857330549

>  <r_epik_Ionization_Penalty>  (1) 
0.60629682340024582

>  <r_epik_Ionization_Penalty_Charging>  (1) 
0.00088625580114290448

>  <r_epik_Ionization_Penalty_Neutral>  (1) 
0.60541056759910294

>  <r_epik_State_Penalty>  (1) 
0.60541053277216261

>  <r_glide_ring_energy>  (1) 
0

>  <r_i_docking_score>  (1) 
-5.9259984335147111

>  <r_i_glide_ecoul>  (1) 
-3.2066240041901928

>  <r_i_glide_eff_state_penalty>  (1) 
0.60541053277216261

>  <r_i_glide_einternal>  (1) 
7.1417538550863657

>  <r_i_glide_emodel>  (1) 
-54.824498474725182

>  <r_i_glide_emodel_strain>  (1) 
0.26637944680955172

>  <r_i_glide_energy>  (1) 
-37.984659190437753

>  <r_i_glide_erotb>  (1) 
0.86140140191631331

>  <r_i_glide_esite>  (1) 
0

>  <r_i_glide_evdw>  (1) 
-34.778035186247557

>  <r_i_glide_gscore>  (1) 
-6.5314089662868735

>  <r_i_glide_gscore_strain>  (1) 
0

>  <r_i_glide_hbond>  (1) 
-0.14277278307298538

>  <r_i_glide_ligand_efficiency>  (1) 
-0.16931424095756317

>  <r_i_glide_ligand_efficiency_ln>  (1) 
-1.3008881766055767

>  <r_i_glide_ligand_efficiency_sa>  (1) 
-0.55383810943143807

>  <r_i_glide_lipo>  (1) 
-3.3755046801775954

>  <r_i_glide_metal>  (1) 
-0

>  <r_i_glide_rewards>  (1) 
-1.6546375450116999

>  <r_lp_Energy>  (1) 
18.776150999999999

>  <r_lp_tautomer_probability>  (1) 
0.99999992000000393

>  <s_epik_cmdline>  (1) 
J2VwaWtfcHl0aG9uJywgJy1waHQnLCAnMS4wJywgJy1waCcsICc3LjQnLCAnLXRuJywgJzgnLCAnLW1hJywgJzUwMCcsICctaW1hZScsICc8aW5maWxlLm1hZT4nLCAnLW9tYWUnLCAnPG91dGZpbGUubWFlPic=

>  <s_epik_input>  (1) 
Tz1DKFtDSDNdKVtDSDJdW0NASF0oW05IXUMoPU8pW09IXSlbQ0gyXWMoW2NIXTEpW2NIXVtjSF1bY0hdYzFbQ0BIXShDKD1PKVtDSDNdKVtDQEhdKFtDQEBIXShbQ0gzXSlbQ0hdKFtDSDNdKVtDSDNdKVtDSDJdW0NIMl1bQ0gyXU4yW0NIMl1bQ0gyXUMoPU8pW0NIMl0y

>  <s_glide_docking_method>  (1) 
confgen

>  <s_i_glide_gridfile>  (1) 
gpcr_5ht2c_6bqh_protein_autoprepared_prepared

>  <s_lp_Force_Field>  (1) 
S-OPLS

>  <s_lp_Variant>  (1) 
DiffSBDD_67-3

>  <s_m_source_file>  (1) 
generated_GPCR_5HT2C_ligand_DiffSBDD_2026-06-23_prepared.sdf

>  <GenAI_Model>  (1) 
DiffSBDD

>  <Protein>  (1) 
GPCR_5HT2C

$$$$
DiffSBDD_39
     RDKit          3D

  0  0  0  0  0  0  0  0  0  0999 V3000
M  V30 BEGIN CTAB
M  V30 COUNTS 44 46 0 0 1
M  V30 BEGIN ATOM
M  V30 1 C 39.285550 28.261343 51.744943 0
M  V30 2 C 35.359050 32.357918 61.097226 0
M  V30 3 C 37.114997 30.027866 58.096943 0
M  V30 4 O 36.424082 31.737775 61.735503 0
M  V30 5 O 39.644984 27.381781 50.967820 0
M  V30 6 C 38.160828 32.804101 60.620285 0 CFG=2
M  V30 7 C 38.861583 32.552160 56.821467 0
M  V30 8 C 39.867634 30.537107 52.840040 0
M  V30 9 O 38.427948 33.836319 59.701742 0
M  V30 10 C 39.680389 29.735365 51.528742 0 CFG=1
M  V30 11 N 37.745895 31.514862 59.965820 0
M  V30 12 O 37.054169 28.137756 52.576420 0
M  V30 13 C 37.620945 31.413143 58.526215 0 CFG=1
M  V30 14 C 38.806289 30.259762 53.913061 0 CFG=1
M  V30 15 C 38.711227 28.760476 54.204270 0
M  V30 16 O 38.845135 31.600716 57.889384 0
M  V30 17 C 36.757807 32.413173 60.489750 0 CFG=2
M  V30 18 O 39.195232 30.909157 55.112877 0
M  V30 19 C 40.855040 29.926938 50.560360 0
M  V30 20 C 38.395154 27.936112 52.948143 0 CFG=2
M  V30 21 C 38.338493 31.971865 55.502209 0
M  V30 22 H 34.969870 33.250958 61.581749 0
M  V30 23 H 34.651544 31.723003 60.571335 0
M  V30 24 H 36.136617 29.839818 58.539121 0
M  V30 25 H 37.017880 29.967668 57.014815 0
M  V30 26 H 37.810396 29.255938 58.428359 0
M  V30 27 H 38.635287 32.852541 61.598714 0
M  V30 28 H 39.893220 32.869914 56.670776 0
M  V30 29 H 38.305545 33.453712 57.082786 0
M  V30 30 H 40.845126 30.332991 53.268193 0
M  V30 31 H 39.861176 31.600771 52.606617 0
M  V30 32 H 39.360061 33.984568 59.686973 0
M  V30 33 H 38.845135 30.137756 50.979468 0
M  V30 34 H 36.845131 27.483449 51.918166 0
M  V30 35 H 36.920657 32.171929 58.169329 0
M  V30 36 H 37.831103 30.606595 53.575680 0
M  V30 37 H 37.948050 28.584345 54.962923 0
M  V30 38 H 39.645126 28.410563 54.640053 0
M  V30 39 H 40.664068 29.444816 49.600410 0
M  V30 40 H 41.023430 30.984749 50.358185 0
M  V30 41 H 41.776359 29.521402 50.967767 0
M  V30 42 H 38.511833 26.877714 53.182616 0
M  V30 43 H 38.353905 32.744995 54.732094 0
M  V30 44 H 37.304542 31.640381 55.594552 0
M  V30 END ATOM
M  V30 BEGIN BOND
M  V30 1 1 4 2
M  V30 2 2 5 1
M  V30 3 1 9 6
M  V30 4 1 10 1
M  V30 5 1 10 8
M  V30 6 1 11 6
M  V30 7 1 13 3
M  V30 8 1 13 11
M  V30 9 1 14 8
M  V30 10 1 15 14
M  V30 11 1 16 7
M  V30 12 1 16 13
M  V30 13 1 17 2
M  V30 14 1 17 4 CFG=1
M  V30 15 1 17 6
M  V30 16 1 17 11
M  V30 17 1 18 14
M  V30 18 1 19 10
M  V30 19 1 20 1
M  V30 20 1 20 12
M  V30 21 1 20 15
M  V30 22 1 21 7
M  V30 23 1 21 18
M  V30 24 1 22 2
M  V30 25 1 23 2
M  V30 26 1 24 3
M  V30 27 1 25 3
M  V30 28 1 26 3
M  V30 29 1 6 27 CFG=1
M  V30 30 1 28 7
M  V30 31 1 29 7
M  V30 32 1 30 8
M  V30 33 1 31 8
M  V30 34 1 32 9
M  V30 35 1 10 33 CFG=3
M  V30 36 1 34 12
M  V30 37 1 13 35 CFG=3
M  V30 38 1 14 36 CFG=3
M  V30 39 1 37 15
M  V30 40 1 38 15
M  V30 41 1 39 19
M  V30 42 1 40 19
M  V30 43 1 41 19
M  V30 44 1 20 42 CFG=1
M  V30 45 1 43 21
M  V30 46 1 44 21
M  V30 END BOND
M  V30 END CTAB
M  END
>  <i_epik_Tot_Q>  (1) 
0

>  <i_epik_Tot_abs_Q>  (1) 
0

>  <i_i_glide_confnum>  (1) 
163

>  <i_i_glide_lignum>  (1) 
87

>  <i_i_glide_posenum>  (1) 
150

>  <i_i_glide_rotatable_bonds>  (1) 
8

>  <i_lp_mmshare_version>  (1) 
72125

>  <i_m_source_file_index>  (1) 
40

>  <i_f3d_flags>  (1) 
0

>  <num_sample>  (1) 
100

>  <b_lp_Chiralities_Consistent>  (1) 
1

>  <r_epik_Charging_Adjusted_Penalty>  (1) 
0

>  <r_epik_Ionization_Penalty>  (1) 
7.7229051731594394e-07

>  <r_epik_Ionization_Penalty_Charging>  (1) 
0

>  <r_epik_Ionization_Penalty_Neutral>  (1) 
7.7229051731594394e-07

>  <r_epik_State_Penalty>  (1) 
-0

>  <r_glide_ring_energy>  (1) 
0

>  <r_i_docking_score>  (1) 
-5.924478138599742

>  <r_i_glide_ecoul>  (1) 
-7.9564507681357828

>  <r_i_glide_eff_state_penalty>  (1) 
-0

>  <r_i_glide_einternal>  (1) 
7.3154398714946938

>  <r_i_glide_emodel>  (1) 
-46.588163882603283

>  <r_i_glide_emodel_strain>  (1) 
0.40419318433883689

>  <r_i_glide_energy>  (1) 
-36.882235129989198

>  <r_i_glide_erotb>  (1) 
1.2154630782883253

>  <r_i_glide_esite>  (1) 
-0.12674105610835149

>  <r_i_glide_evdw>  (1) 
-28.925784361853417

>  <r_i_glide_gscore>  (1) 
-5.924478138599742

>  <r_i_glide_gscore_strain>  (1) 
0

>  <r_i_glide_hbond>  (1) 
-0.60799999999999998

>  <r_i_glide_ligand_efficiency>  (1) 
-0.2821180065999877

>  <r_i_glide_ligand_efficiency_ln>  (1) 
-1.4648152482334866

>  <r_i_glide_ligand_efficiency_sa>  (1) 
-0.77834218900115482

>  <r_i_glide_lipo>  (1) 
-1.7015015080842382

>  <r_i_glide_metal>  (1) 
-0

>  <r_i_glide_rewards>  (1) 
-2.0639418193824399

>  <r_lp_Energy>  (1) 
17.348379999999999

>  <r_lp_tautomer_probability>  (1) 
1

>  <s_epik_Chemistry_Notes>  (1) 
This compound contains an acetal/aminal-like group ( X-CH(R)-Y where X, Y are N, S, or O) that may be acid/base labile, releasing an aldehyde.

>  <s_epik_cmdline>  (1) 
J2VwaWtfcHl0aG9uJywgJy1waHQnLCAnMS4wJywgJy1waCcsICc3LjQnLCAnLXRuJywgJzgnLCAnLW1hJywgJzUwMCcsICctaW1hZScsICc8aW5maWxlLm1hZT4nLCAnLW9tYWUnLCAnPG91dGZpbGUubWFlPic=

>  <s_epik_input>  (1) 
Tz1DMVtDQEBIXShbQ0gzXSlbQ0gyXVtDQEBIXShbQ0gyXVtDQEhdMVtPSF0pT1tDSDJdW0NIMl1PW0NAQEhdKFtDSDNdKU4yW0NAQEhdKFtPSF0pQzIzW0NIMl1PMw==

>  <s_glide_docking_method>  (1) 
confgen

>  <s_i_glide_gridfile>  (1) 
gpcr_5ht2c_6bqh_protein_autoprepared_prepared

>  <s_lp_Force_Field>  (1) 
S-OPLS

>  <s_lp_Variant>  (1) 
DiffSBDD_39-2

>  <s_m_source_file>  (1) 
generated_GPCR_5HT2C_ligand_DiffSBDD_2026-06-23_prepared.sdf

>  <GenAI_Model>  (1) 
DiffSBDD

>  <Protein>  (1) 
GPCR_5HT2C

$$$$
DiffSBDD_2
     RDKit          3D

  0  0  0  0  0  0  0  0  0  0999 V3000
M  V30 BEGIN CTAB
M  V30 COUNTS 81 84 0 0 1
M  V30 BEGIN ATOM
M  V30 1 F 37.346964 27.716273 53.555936 0
M  V30 2 C 44.808031 27.941716 66.355722 0
M  V30 3 C 40.400749 31.046843 64.612873 0 CFG=2
M  V30 4 C 40.244397 28.250201 51.582243 0
M  V30 5 C 41.707971 31.730675 64.965267 0 CFG=2
M  V30 6 N 40.643027 29.632368 64.926217 0 CHG=1
M  V30 7 O 39.111858 29.753860 58.784844 0
M  V30 8 C 37.144803 32.639417 61.169934 0
M  V30 9 C 40.012262 32.628382 62.598176 0 CFG=1
M  V30 10 N 44.320014 28.897406 65.470884 0
M  V30 11 C 44.224768 26.834408 68.392239 0
M  V30 12 C 43.072034 29.572637 65.616748 0 CFG=2
M  V30 13 C 41.825567 33.152474 64.390029 0
M  V30 14 C 39.472052 27.401667 52.582186 0
M  V30 15 O 40.820736 30.537603 49.845903 0
M  V30 16 C 38.407692 31.997705 60.548996 0 CFG=2
M  V30 17 C 42.045129 29.344404 64.549614 0 CFG=2
M  V30 18 O 43.928491 27.760847 67.360266 0
M  V30 19 N 37.782261 30.538014 57.126030 0
M  V30 20 C 40.026892 31.181864 63.119954 0
M  V30 21 C 42.750549 30.689546 64.629691 0 CFG=1
M  V30 22 O 45.870556 27.337969 66.256435 0
M  V30 23 C 41.357111 33.349721 62.928393 0 CFG=2
M  V30 24 O 38.045001 28.937808 51.768309 0
M  V30 25 C 41.317453 34.871368 62.622246 0
M  V30 26 C 39.026121 29.117570 55.455171 0
M  V30 27 C 39.645737 30.512071 50.633382 0
M  V30 28 C 39.714695 32.662446 61.069816 0
M  V30 29 C 38.377889 28.371786 53.023189 0 CFG=1
M  V30 30 C 35.838255 31.887939 60.871615 0
M  V30 31 C 37.775438 29.300946 56.345155 0
M  V30 32 C 39.174548 29.059420 50.894828 0 CFG=1
M  V30 33 C 38.446116 30.665182 58.288264 0
M  V30 34 C 38.349454 32.031737 58.989174 0
M  V30 35 O 40.216638 35.513069 63.234569 0
M  V30 36 C 38.802705 29.521351 53.983927 0
M  V30 37 H 39.645127 31.450743 65.267800 0
M  V30 38 H 40.815985 27.737703 50.822330 0
M  V30 39 H 40.909108 28.937711 52.091710 0
M  V30 40 H 41.745643 31.842486 66.049907 0
M  V30 41 H 40.548257 29.497639 65.922097 0
M  V30 42 H 37.243213 32.681733 62.249879 0
M  V30 43 H 37.055413 33.672992 60.833588 0
M  V30 44 H 39.219320 33.155785 63.122854 0
M  V30 45 H 44.903816 29.114197 64.675798 0
M  V30 46 H 43.412683 26.816675 69.121947 0
M  V30 47 H 44.341420 25.827711 67.987717 0
M  V30 48 H 45.145630 27.111782 68.909490 0
M  V30 49 H 42.713710 29.745396 66.633047 0
M  V30 50 H 41.204747 33.792520 65.022517 0
M  V30 51 H 42.841480 33.525548 64.522783 0
M  V30 52 H 40.045457 26.999093 53.413090 0
M  V30 53 H 39.022567 26.557195 52.061778 0
M  V30 54 H 41.112773 31.435929 49.766293 0
M  V30 55 H 38.418139 30.956132 60.870067 0
M  V30 56 H 42.214743 28.726124 63.671049 0
M  V30 57 H 37.234382 31.320152 56.779595 0
M  V30 58 H 39.045587 30.726209 62.979883 0
M  V30 59 H 40.720561 30.605666 62.503841 0
M  V30 60 H 43.453230 30.926213 63.834137 0
M  V30 61 H 42.131308 32.908719 62.300916 0
M  V30 62 H 42.208039 35.357375 63.013183 0
M  V30 63 H 41.297664 35.068180 61.550153 0
M  V30 64 H 39.359409 28.079607 55.500686 0
M  V30 65 H 39.849554 29.700723 55.867747 0
M  V30 66 H 39.848776 31.036773 51.566426 0
M  V30 67 H 38.872944 31.078922 50.115107 0
M  V30 68 H 40.556207 32.185486 60.568138 0
M  V30 69 H 39.713578 33.697103 60.728289 0
M  V30 70 H 34.994849 32.377761 61.364113 0
M  V30 71 H 35.619677 31.864338 59.804681 0
M  V30 72 H 35.883678 30.860624 61.226253 0
M  V30 73 H 36.882752 29.337918 55.720191 0
M  V30 74 H 37.658529 28.445059 57.014846 0
M  V30 75 H 38.901806 28.572579 49.957337 0
M  V30 76 H 39.154942 32.648917 58.588996 0
M  V30 77 H 37.439652 32.525510 58.646317 0
M  V30 78 H 40.379392 36.445258 63.256109 0
M  V30 79 H 39.714465 29.991398 53.623975 0
M  V30 80 H 38.055972 30.314163 53.942331 0
M  V30 81 H 39.969290 29.036626 64.452624 0
M  V30 END ATOM
M  V30 BEGIN BOND
M  V30 1 1 5 3
M  V30 2 1 6 3
M  V30 3 1 10 2
M  V30 4 1 12 10
M  V30 5 1 13 5
M  V30 6 1 14 4
M  V30 7 1 16 8
M  V30 8 1 17 6
M  V30 9 1 17 12
M  V30 10 1 18 2
M  V30 11 1 18 11
M  V30 12 1 20 3
M  V30 13 1 20 9
M  V30 14 1 21 5
M  V30 15 1 21 12
M  V30 16 1 21 17
M  V30 17 2 22 2
M  V30 18 1 23 9
M  V30 19 1 23 13
M  V30 20 1 25 23
M  V30 21 1 27 15
M  V30 22 1 28 9
M  V30 23 1 28 16
M  V30 24 1 29 1 CFG=1
M  V30 25 1 29 14
M  V30 26 1 29 24
M  V30 27 1 30 8
M  V30 28 1 31 19
M  V30 29 1 31 26
M  V30 30 1 32 4
M  V30 31 1 32 24
M  V30 32 1 32 27
M  V30 33 2 33 7
M  V30 34 1 33 19
M  V30 35 1 34 16
M  V30 36 1 34 33
M  V30 37 1 35 25
M  V30 38 1 36 26
M  V30 39 1 36 29
M  V30 40 1 3 37 CFG=1
M  V30 41 1 38 4
M  V30 42 1 39 4
M  V30 43 1 5 40 CFG=1
M  V30 44 1 41 6
M  V30 45 1 42 8
M  V30 46 1 43 8
M  V30 47 1 9 44 CFG=1
M  V30 48 1 45 10
M  V30 49 1 46 11
M  V30 50 1 47 11
M  V30 51 1 48 11
M  V30 52 1 12 49 CFG=1
M  V30 53 1 50 13
M  V30 54 1 51 13
M  V30 55 1 52 14
M  V30 56 1 53 14
M  V30 57 1 54 15
M  V30 58 1 16 55 CFG=3
M  V30 59 1 17 56 CFG=3
M  V30 60 1 57 19
M  V30 61 1 58 20
M  V30 62 1 59 20
M  V30 63 1 21 60 CFG=3
M  V30 64 1 23 61 CFG=3
M  V30 65 1 62 25
M  V30 66 1 63 25
M  V30 67 1 64 26
M  V30 68 1 65 26
M  V30 69 1 66 27
M  V30 70 1 67 27
M  V30 71 1 68 28
M  V30 72 1 69 28
M  V30 73 1 70 30
M  V30 74 1 71 30
M  V30 75 1 72 30
M  V30 76 1 73 31
M  V30 77 1 74 31
M  V30 78 1 32 75 CFG=3
M  V30 79 1 76 34
M  V30 80 1 77 34
M  V30 81 1 78 35
M  V30 82 1 79 36
M  V30 83 1 80 36
M  V30 84 1 81 6
M  V30 END BOND
M  V30 END CTAB
M  END
>  <i_epik_Tot_Q>  (1) 
1

>  <i_epik_Tot_abs_Q>  (1) 
1

>  <i_i_glide_confnum>  (1) 
1652

>  <i_i_glide_lignum>  (1) 
4

>  <i_i_glide_posenum>  (1) 
337

>  <i_i_glide_rotatable_bonds>  (1) 
17

>  <i_lp_mmshare_version>  (1) 
72125

>  <i_m_source_file_index>  (1) 
3

>  <i_f3d_flags>  (1) 
0

>  <num_sample>  (1) 
100

>  <b_lp_Chiralities_Consistent>  (1) 
1

>  <r_epik_Charging_Adjusted_Penalty>  (1) 
0.00072413823026253119

>  <r_epik_Ionization_Penalty>  (1) 
0.00072547203534686021

>  <r_epik_Ionization_Penalty_Charging>  (1) 
0.00072413823026253119

>  <r_epik_Ionization_Penalty_Neutral>  (1) 
1.3338050843290484e-06

>  <r_epik_State_Penalty>  (1) 
-0

>  <r_glide_ring_energy>  (1) 
1.337252785472008

>  <r_i_docking_score>  (1) 
-5.9233097168792783

>  <r_i_glide_ecoul>  (1) 
-7.7002906553258867

>  <r_i_glide_eff_state_penalty>  (1) 
-0

>  <r_i_glide_einternal>  (1) 
17.92092364635127

>  <r_i_glide_emodel>  (1) 
-56.526977717431748

>  <r_i_glide_emodel_strain>  (1) 
1.9145386500163966

>  <r_i_glide_energy>  (1) 
-46.721278923855266

>  <r_i_glide_erotb>  (1) 
1.0068127819832642

>  <r_i_glide_esite>  (1) 
-0.1756283511717128

>  <r_i_glide_evdw>  (1) 
-39.020988268529379

>  <r_i_glide_gscore>  (1) 
-5.9233097168792783

>  <r_i_glide_gscore_strain>  (1) 
0

>  <r_i_glide_hbond>  (1) 
-0.11120286569488316

>  <r_i_glide_ligand_efficiency>  (1) 
-0.16453638102442439

>  <r_i_glide_ligand_efficiency_ln>  (1) 
-1.292306150888177

>  <r_i_glide_ligand_efficiency_sa>  (1) 
-0.54328715993905585

>  <r_i_glide_lipo>  (1) 
-3.4388051929114636

>  <r_i_glide_metal>  (1) 
-0

>  <r_i_glide_rewards>  (1) 
-0.098393077359129943

>  <r_lp_Energy>  (1) 
40.418917

>  <r_lp_tautomer_probability>  (1) 
1

>  <s_epik_Chemistry_Notes>  (1) 
This compound has an ester and may undergo hydrolysis at high or low pH.

>  <s_epik_cmdline>  (1) 
J2VwaWtfcHl0aG9uJywgJy1waHQnLCAnMS4wJywgJy1waCcsICc3LjQnLCAnLXRuJywgJzgnLCAnLW1hJywgJzUwMCcsICctaW1hZScsICc8aW5maWxlLm1hZT4nLCAnLW9tYWUnLCAnPG91dGZpbGUubWFlPic=

>  <s_epik_input>  (1) 
W09IXVtDSDJdW0NASF0oTzEpW0NIMl1bQ0gyXVtDQEBdMShGKVtDSDJdW0NIMl1bQ0gyXVtOSF1DKD1PKVtDSDJdW0NASF0oW0NIMl1bQ0gzXSlbQ0gyXVtDQEBIXShbQ0gyXTIpW0NAQEhdKFtDSDJdW09IXSlbQ0gyXVtDQEBIXShbQ0BASF0yMylbQ0BASF00W0NASF0oW05IXTMpW0NASF00W05IXUMoPU8pT1tDSDNd

>  <s_glide_docking_method>  (1) 
confgen

>  <s_i_glide_gridfile>  (1) 
gpcr_5ht2c_6bqh_protein_autoprepared_prepared

>  <s_lp_Force_Field>  (1) 
S-OPLS

>  <s_lp_Variant>  (1) 
DiffSBDD_2-1

>  <s_m_source_file>  (1) 
generated_GPCR_5HT2C_ligand_DiffSBDD_2026-06-23_prepared.sdf

>  <GenAI_Model>  (1) 
DiffSBDD

>  <Protein>  (1) 
GPCR_5HT2C

$$$$
DiffSBDD_62
     RDKit          3D

  0  0  0  0  0  0  0  0  0  0999 V3000
M  V30 BEGIN CTAB
M  V30 COUNTS 80 84 0 0 1
M  V30 BEGIN ATOM
M  V30 1 C 37.585355 29.669495 55.384158 0
M  V30 2 C 39.437724 26.872780 57.881385 0
M  V30 3 C 39.013278 33.648738 61.925883 0
M  V30 4 C 38.209612 31.782814 54.128064 0
M  V30 5 C 39.245332 27.337758 50.567799 0
M  V30 6 C 41.932373 27.281132 58.550566 0
M  V30 7 C 38.000840 33.047973 60.920458 0 CFG=2
M  V30 8 C 39.961656 28.572950 59.340617 0
M  V30 9 C 39.921248 30.395944 60.829110 0
M  V30 10 O 37.452280 28.537753 52.619630 0
M  V30 11 C 39.645228 28.022165 51.831838 0
M  V30 12 C 36.468814 29.814381 59.516345 0
M  V30 13 C 38.244290 31.026610 55.422306 0
M  V30 14 C 38.596297 28.155668 52.871894 0
M  V30 15 C 37.920877 29.689954 59.767756 0
M  V30 16 N 38.652291 28.683399 59.171580 0
M  V30 17 C 38.916552 35.189361 61.984086 0
M  V30 18 O 36.428138 34.137716 58.567861 0
M  V30 19 C 39.505186 28.831004 50.572067 0
M  V30 20 N 38.048390 27.328477 55.014182 0
M  V30 21 N 38.102658 27.715091 58.208933 0
M  V30 22 N 38.781381 31.486126 56.476956 0
M  V30 23 C 39.141547 32.885967 56.565897 0
M  V30 24 C 40.472231 27.639535 58.652925 0
M  V30 25 C 38.474686 30.522701 60.569185 0
M  V30 26 C 36.260275 31.035558 60.557222 0
M  V30 27 N 39.022435 27.861321 54.105976 0
M  V30 28 C 37.456603 33.199238 58.374469 0 CFG=2
M  V30 29 C 38.628659 28.572669 55.314294 0 CFG=1
M  V30 30 C 39.443144 37.337151 63.158657 0
M  V30 31 C 39.852567 35.869493 62.993402 0
M  V30 32 C 37.644734 31.558746 61.222411 0 CFG=2
M  V30 33 C 41.332145 35.748972 62.598411 0
M  V30 34 C 38.506372 33.317321 59.482533 0
M  V30 35 N 37.964396 33.632706 57.059680 0 CHG=1
M  V30 36 N 40.626892 29.491277 60.226419 0
M  V30 37 H 37.045124 29.550863 56.322625 0
M  V30 38 H 36.819783 29.617617 54.616668 0
M  V30 39 H 39.678516 26.789129 56.827916 0
M  V30 40 H 39.346031 25.865224 58.285987 0
M  V30 41 H 38.845212 33.249188 62.925740 0
M  V30 42 H 40.024134 33.349169 61.654112 0
M  V30 43 H 37.922762 31.080986 53.367761 0
M  V30 44 H 37.495658 32.605693 54.167811 0
M  V30 45 H 39.198519 32.137711 53.848157 0
M  V30 46 H 40.005136 26.677082 50.167766 0
M  V30 47 H 38.236234 26.938476 50.567780 0
M  V30 48 H 42.099966 26.208009 58.567734 0
M  V30 49 H 42.340367 27.661480 57.613601 0
M  V30 50 H 42.465560 27.738450 59.367754 0
M  V30 51 H 37.075730 33.604820 61.071592 0
M  V30 52 H 40.351857 31.104265 61.540237 0
M  V30 53 H 40.645897 27.785980 52.167745 0
M  V30 54 H 36.268417 30.099776 58.484760 0
M  V30 55 H 35.878659 28.937799 59.767685 0
M  V30 56 H 39.104538 35.637365 61.011191 0
M  V30 57 H 37.886078 35.454382 62.220216 0
M  V30 58 H 38.677357 29.530413 50.567729 0
M  V30 59 H 40.423268 29.200658 50.119155 0
M  V30 60 H 37.102676 27.326213 54.657211 0
M  V30 61 H 37.424443 27.124086 58.685416 0
M  V30 62 H 39.478920 33.330350 55.632613 0
M  V30 63 H 39.986848 33.002049 57.233641 0
M  V30 64 H 35.594236 30.710640 61.355733 0
M  V30 65 H 35.714365 31.846233 60.076747 0
M  V30 66 H 37.060870 32.192829 58.302445 0
M  V30 67 H 39.434509 28.680591 56.032771 0
M  V30 68 H 39.552192 37.892466 62.226491 0
M  V30 69 H 38.402121 37.407776 63.474358 0
M  V30 70 H 40.045075 37.831363 63.916975 0
M  V30 71 H 39.729656 35.388563 63.961096 0
M  V30 72 H 37.629718 31.375104 62.297220 0
M  V30 73 H 41.521046 36.185662 61.617639 0
M  V30 74 H 41.972725 36.260698 63.318706 0
M  V30 75 H 41.645314 34.706487 62.566460 0
M  V30 76 H 39.336112 32.647546 59.280863 0
M  V30 77 H 38.938783 34.308681 59.408313 0
M  V30 78 H 37.202277 33.485729 56.406451 0
M  V30 79 H 38.167738 34.620494 57.102546 0
M  V30 80 H 35.604827 33.675562 58.479361 0
M  V30 END ATOM
M  V30 BEGIN BOND
M  V30 1 1 7 3
M  V30 2 1 11 5
M  V30 3 1 13 1
M  V30 4 1 13 4
M  V30 5 2 14 10
M  V30 6 1 14 11
M  V30 7 1 15 12
M  V30 8 1 16 8
M  V30 9 1 16 15
M  V30 10 1 17 3
M  V30 11 1 19 5
M  V30 12 1 19 11
M  V30 13 1 21 2
M  V30 14 1 21 16
M  V30 15 2 22 13
M  V30 16 1 23 22
M  V30 17 1 24 2
M  V30 18 1 24 6
M  V30 19 2 24 8
M  V30 20 1 25 9
M  V30 21 2 25 15
M  V30 22 1 26 12
M  V30 23 1 27 14
M  V30 24 1 27 20
M  V30 25 1 28 18
M  V30 26 1 29 1
M  V30 27 1 29 20
M  V30 28 1 29 27
M  V30 29 1 31 17
M  V30 30 1 31 30
M  V30 31 1 32 7
M  V30 32 1 32 25
M  V30 33 1 32 26
M  V30 34 1 33 31
M  V30 35 1 34 7
M  V30 36 1 34 28
M  V30 37 1 35 23
M  V30 38 1 35 28
M  V30 39 1 36 8
M  V30 40 2 36 9
M  V30 41 1 37 1
M  V30 42 1 38 1
M  V30 43 1 39 2
M  V30 44 1 40 2
M  V30 45 1 41 3
M  V30 46 1 42 3
M  V30 47 1 43 4
M  V30 48 1 44 4
M  V30 49 1 45 4
M  V30 50 1 46 5
M  V30 51 1 47 5
M  V30 52 1 48 6
M  V30 53 1 49 6
M  V30 54 1 50 6
M  V30 55 1 7 51 CFG=3
M  V30 56 1 52 9
M  V30 57 1 53 11
M  V30 58 1 54 12
M  V30 59 1 55 12
M  V30 60 1 56 17
M  V30 61 1 57 17
M  V30 62 1 58 19
M  V30 63 1 59 19
M  V30 64 1 60 20
M  V30 65 1 61 21
M  V30 66 1 62 23
M  V30 67 1 63 23
M  V30 68 1 64 26
M  V30 69 1 65 26
M  V30 70 1 28 66 CFG=3
M  V30 71 1 29 67 CFG=1
M  V30 72 1 68 30
M  V30 73 1 69 30
M  V30 74 1 70 30
M  V30 75 1 71 31
M  V30 76 1 32 72 CFG=1
M  V30 77 1 73 33
M  V30 78 1 74 33
M  V30 79 1 75 33
M  V30 80 1 76 34
M  V30 81 1 77 34
M  V30 82 1 78 35
M  V30 83 1 79 35
M  V30 84 1 80 18
M  V30 END BOND
M  V30 END CTAB
M  END
>  <i_epik_Tot_Q>  (1) 
1

>  <i_epik_Tot_abs_Q>  (1) 
1

>  <i_i_glide_confnum>  (1) 
273

>  <i_i_glide_lignum>  (1) 
138

>  <i_i_glide_posenum>  (1) 
391

>  <i_i_glide_rotatable_bonds>  (1) 
14

>  <i_lp_mmshare_version>  (1) 
72125

>  <i_m_source_file_index>  (1) 
63

>  <i_f3d_flags>  (1) 
0

>  <num_sample>  (1) 
100

>  <b_lp_Chiralities_Consistent>  (1) 
1

>  <r_epik_Charging_Adjusted_Penalty>  (1) 
1.9108014557952604

>  <r_epik_Ionization_Penalty>  (1) 
0.8812751426241725

>  <r_epik_Ionization_Penalty_Charging>  (1) 
0.72483633588800112

>  <r_epik_Ionization_Penalty_Neutral>  (1) 
0.15643880673617139

>  <r_epik_State_Penalty>  (1) 
1.1859651199072592

>  <r_glide_ring_energy>  (1) 
0

>  <r_i_docking_score>  (1) 
-5.9190917155940976

>  <r_i_glide_ecoul>  (1) 
-3.1451982126818745

>  <r_i_glide_eff_state_penalty>  (1) 
1.1859651199072592

>  <r_i_glide_einternal>  (1) 
4.6626417625029219

>  <r_i_glide_emodel>  (1) 
-70.018744800102908

>  <r_i_glide_emodel_strain>  (1) 
1.0043737326135442

>  <r_i_glide_energy>  (1) 
-47.046103088044127

>  <r_i_glide_erotb>  (1) 
0.98469743448682379

>  <r_i_glide_esite>  (1) 
-0.21561760920479089

>  <r_i_glide_evdw>  (1) 
-43.900904875362251

>  <r_i_glide_gscore>  (1) 
-7.1050568355013572

>  <r_i_glide_gscore_strain>  (1) 
0

>  <r_i_glide_hbond>  (1) 
-0.22117613738887271

>  <r_i_glide_ligand_efficiency>  (1) 
-0.16441921432205828

>  <r_i_glide_ligand_efficiency_ln>  (1) 
-1.2913858969649759

>  <r_i_glide_ligand_efficiency_sa>  (1) 
-0.54290028401184998

>  <r_i_glide_lipo>  (1) 
-3.0622489734253953

>  <r_i_glide_metal>  (1) 
-0

>  <r_i_glide_rewards>  (1) 
-1.9238865742987281

>  <r_lp_Energy>  (1) 
41.955964999999999

>  <r_lp_tautomer_probability>  (1) 
0.49999399997599986

>  <s_epik_Chemistry_Notes>  (1) 
This compound has an imine and may undergo hydrolysis. This compound contains an acetal/aminal-like group ( X-CH(R)-Y where X, Y are N, S, or O) that may be acid/base labile, releasing an aldehyde.

>  <s_epik_cmdline>  (1) 
J2VwaWtfcHl0aG9uJywgJy1waHQnLCAnMS4wJywgJy1waCcsICc3LjQnLCAnLXRuJywgJzgnLCAnLW1hJywgJzUwMCcsICctaW1hZScsICc8aW5maWxlLm1hZT4nLCAnLW9tYWUnLCAnPG91dGZpbGUubWFlPic=

>  <s_epik_input>  (1) 
W0NIMl0xW0NIMl1bQ0hdMUMoPU8pTjJbTkhdW0NAQEhdMltDSDJdL0MoW0NIM10pPU4vW0NIMl1bTkhdW0NASF0oW09IXSlbQ0gyXVtDQEhdKFtDSDJdW0NIMl1bQ0hdKFtDSDNdKVtDSDNdKVtDQEBIXShbQ0gyXVtDSDJdMylDKFtDSF09TjQpPUMzTihDND01KVtOSF1bQ0gyXUM1W0NIM10=

>  <s_glide_docking_method>  (1) 
confgen

>  <s_i_glide_gridfile>  (1) 
gpcr_5ht2c_6bqh_protein_autoprepared_prepared

>  <s_lp_Force_Field>  (1) 
S-OPLS

>  <s_lp_Variant>  (1) 
DiffSBDD_62-4

>  <s_m_source_file>  (1) 
generated_GPCR_5HT2C_ligand_DiffSBDD_2026-06-23_prepared.sdf

>  <GenAI_Model>  (1) 
DiffSBDD

>  <Protein>  (1) 
GPCR_5HT2C

$$$$
DiffSBDD_9
     RDKit          3D

  0  0  0  0  0  0  0  0  0  0999 V3000
M  V30 BEGIN CTAB
M  V30 COUNTS 67 68 0 0 1
M  V30 BEGIN ATOM
M  V30 1 C 37.523350 32.633566 59.996649 0 CFG=1
M  V30 2 C 36.715591 25.551424 56.626310 0
M  V30 3 C 37.456265 37.747371 61.130738 0
M  V30 4 C 39.661927 30.010172 51.276472 0
M  V30 5 O 37.623793 36.729559 60.267674 0
M  V30 6 O 39.023803 27.763269 51.160827 0
M  V30 7 C 36.392392 33.336890 60.702080 0 CFG=1
M  V30 8 C 37.116793 32.201052 61.391495 0
M  V30 9 N 37.071867 31.672598 58.967579 0 CHG=1
M  V30 10 C 38.232534 28.939390 56.660089 0
M  V30 11 C 39.070427 26.961280 55.334916 0 CFG=2
M  V30 12 C 38.567329 27.326920 53.927519 0
M  V30 13 C 38.982809 28.737926 53.415136 0 CFG=1
M  V30 14 C 37.528551 29.559642 57.835353 0
M  V30 15 C 38.741142 28.938332 51.895628 0 CFG=1
M  V30 16 C 37.590388 26.539486 57.418737 0
M  V30 17 C 38.924009 29.924043 55.704593 0
M  V30 18 C 41.088581 27.173358 56.674808 0
M  V30 19 C 36.499750 34.756602 61.198649 0
M  V30 20 C 38.865376 33.299821 59.721523 0
M  V30 21 O 36.506168 29.105944 58.333709 0
M  V30 22 C 38.145560 30.813632 58.452830 0
M  V30 23 O 36.445674 37.938090 61.805937 0
M  V30 24 C 36.589895 35.780581 60.044771 0
M  V30 25 C 38.270563 27.574818 56.479608 0
M  V30 26 C 38.352594 29.845191 54.271368 0
M  V30 27 O 35.093016 32.941290 60.304869 0
M  V30 28 O 40.444795 27.316373 55.415576 0
M  V30 29 C 38.585011 25.758140 58.290424 0
M  V30 30 H 36.106478 26.066063 55.886560 0
M  V30 31 H 37.293893 24.791610 56.102325 0
M  V30 32 H 36.045597 25.020374 57.296653 0
M  V30 33 H 38.350022 38.371299 61.139028 0
M  V30 34 H 39.645139 30.956070 51.816461 0
M  V30 35 H 40.700830 29.673182 51.270781 0
M  V30 36 H 39.381763 30.218344 50.244131 0
M  V30 37 H 38.774145 27.899664 50.259036 0
M  V30 38 H 37.785312 32.455677 62.211880 0
M  V30 39 H 36.601237 31.248999 61.499552 0
M  V30 40 H 36.363389 31.080510 59.380601 0
M  V30 41 H 39.052343 25.877078 55.424944 0
M  V30 42 H 38.988783 26.563786 53.274347 0
M  V30 43 H 37.485093 27.198671 53.867275 0
M  V30 44 H 40.045134 28.901249 53.532724 0
M  V30 45 H 37.690958 29.177720 51.736962 0
M  V30 46 H 36.906983 26.953126 58.132065 0
M  V30 47 H 38.738778 30.960147 55.964783 0
M  V30 48 H 40.007295 29.800388 55.724127 0
M  V30 49 H 42.124112 27.485255 56.582965 0
M  V30 50 H 40.659621 27.811884 57.446277 0
M  V30 51 H 41.065021 26.142376 57.013979 0
M  V30 52 H 35.677644 34.937916 61.889457 0
M  V30 53 H 37.408069 34.830463 61.794945 0
M  V30 54 H 39.063549 34.108183 60.423700 0
M  V30 55 H 39.668772 32.577066 59.837575 0
M  V30 56 H 38.895392 33.712609 58.713656 0
M  V30 57 H 38.827321 31.383906 57.832748 0
M  V30 58 H 38.740347 30.464374 59.297752 0
M  V30 59 H 36.838719 35.264516 59.117100 0
M  V30 60 H 35.645009 36.281598 59.853237 0
M  V30 61 H 38.537348 30.805234 53.790307 0
M  V30 62 H 37.267064 29.741310 54.294872 0
M  V30 63 H 34.709533 33.620659 59.767559 0
M  V30 64 H 39.196678 26.423087 58.901691 0
M  V30 65 H 38.045314 25.095095 58.965966 0
M  V30 66 H 39.243948 25.126157 57.697782 0
M  V30 67 H 36.604076 32.134062 58.188410 0
M  V30 END ATOM
M  V30 BEGIN BOND
M  V30 1 1 5 3
M  V30 2 1 7 1
M  V30 3 1 8 1
M  V30 4 1 8 7
M  V30 5 1 9 1
M  V30 6 1 12 11
M  V30 7 1 13 12
M  V30 8 1 14 10
M  V30 9 1 15 4
M  V30 10 1 15 6
M  V30 11 1 15 13
M  V30 12 1 16 2
M  V30 13 1 17 10
M  V30 14 1 19 7
M  V30 15 1 1 20 CFG=1
M  V30 16 2 21 14
M  V30 17 1 22 9
M  V30 18 1 22 14
M  V30 19 2 23 3
M  V30 20 1 24 5
M  V30 21 1 24 19
M  V30 22 2 25 10
M  V30 23 1 25 11
M  V30 24 1 25 16
M  V30 25 1 26 13
M  V30 26 1 26 17
M  V30 27 1 7 27 CFG=3
M  V30 28 1 28 11
M  V30 29 1 28 18
M  V30 30 1 29 16
M  V30 31 1 30 2
M  V30 32 1 31 2
M  V30 33 1 32 2
M  V30 34 1 33 3
M  V30 35 1 34 4
M  V30 36 1 35 4
M  V30 37 1 36 4
M  V30 38 1 37 6
M  V30 39 1 38 8
M  V30 40 1 39 8
M  V30 41 1 40 9
M  V30 42 1 11 41 CFG=1
M  V30 43 1 42 12
M  V30 44 1 43 12
M  V30 45 1 13 44 CFG=3
M  V30 46 1 15 45 CFG=1
M  V30 47 1 46 16
M  V30 48 1 47 17
M  V30 49 1 48 17
M  V30 50 1 49 18
M  V30 51 1 50 18
M  V30 52 1 51 18
M  V30 53 1 52 19
M  V30 54 1 53 19
M  V30 55 1 54 20
M  V30 56 1 55 20
M  V30 57 1 56 20
M  V30 58 1 57 22
M  V30 59 1 58 22
M  V30 60 1 59 24
M  V30 61 1 60 24
M  V30 62 1 61 26
M  V30 63 1 62 26
M  V30 64 1 63 27
M  V30 65 1 64 29
M  V30 66 1 65 29
M  V30 67 1 66 29
M  V30 68 1 67 9
M  V30 END BOND
M  V30 END CTAB
M  END
>  <i_epik_Tot_Q>  (1) 
1

>  <i_epik_Tot_abs_Q>  (1) 
1

>  <i_i_glide_confnum>  (1) 
655

>  <i_i_glide_lignum>  (1) 
13

>  <i_i_glide_posenum>  (1) 
243

>  <i_i_glide_rotatable_bonds>  (1) 
13

>  <i_lp_mmshare_version>  (1) 
72125

>  <i_m_source_file_index>  (1) 
10

>  <i_f3d_flags>  (1) 
0

>  <num_sample>  (1) 
100

>  <b_lp_Chiralities_Consistent>  (1) 
1

>  <r_epik_Charging_Adjusted_Penalty>  (1) 
0.43257487955488089

>  <r_epik_Ionization_Penalty>  (1) 
0.21628819114950359

>  <r_epik_Ionization_Penalty_Charging>  (1) 
0.21628743977744047

>  <r_epik_Ionization_Penalty_Neutral>  (1) 
7.5137206312442099e-07

>  <r_epik_State_Penalty>  (1) 
0.21628743977744042

>  <r_glide_ring_energy>  (1) 
0

>  <r_i_docking_score>  (1) 
-5.9177179403267726

>  <r_i_glide_ecoul>  (1) 
-4.1018977087527242

>  <r_i_glide_eff_state_penalty>  (1) 
0.21628743977744042

>  <r_i_glide_einternal>  (1) 
20.341366089792572

>  <r_i_glide_emodel>  (1) 
-39.370560845414012

>  <r_i_glide_emodel_strain>  (1) 
4.3010175838282976

>  <r_i_glide_energy>  (1) 
-37.170637210707724

>  <r_i_glide_erotb>  (1) 
0.92691700141960698

>  <r_i_glide_esite>  (1) 
-0.15597874070764642

>  <r_i_glide_evdw>  (1) 
-33.068739501955001

>  <r_i_glide_gscore>  (1) 
-6.1340053801042131

>  <r_i_glide_gscore_strain>  (1) 
0.075254395957074394

>  <r_i_glide_hbond>  (1) 
-0.16706586573648111

>  <r_i_glide_ligand_efficiency>  (1) 
-0.20405923932161285

>  <r_i_glide_ligand_efficiency_ln>  (1) 
-1.3550073479554279

>  <r_i_glide_ligand_efficiency_sa>  (1) 
-0.6269346344044463

>  <r_i_glide_lipo>  (1) 
-3.0537645462977077

>  <r_i_glide_metal>  (1) 
-0

>  <r_i_glide_rewards>  (1) 
-1.4906459933284015

>  <r_lp_Energy>  (1) 
43.017908999999996

>  <s_epik_Chemistry_Notes>  (1) 
This compound has an ester and may undergo hydrolysis at high or low pH.

>  <s_epik_cmdline>  (1) 
J2VwaWtfcHl0aG9uJywgJy1waHQnLCAnMS4wJywgJy1waCcsICc3LjQnLCAnLXRuJywgJzgnLCAnLW1hJywgJzUwMCcsICctaW1hZScsICc8aW5maWxlLm1hZT4nLCAnLW9tYWUnLCAnPG91dGZpbGUubWFlPic=

>  <s_epik_input>  (1) 
Tz1bQ0hdT1tDSDJdW0NIMl1bQ0BAXShbQ0gyXTEpKFtPSF0pW0NAXTEoW0NIM10pW05IXVtDSDJdQyg9TylDMj1DKFtDSF0oW0NIM10pW0NIM10pW0NASF0oT1tDSDNdKVtDSDJdW0NAQEhdKFtDQEBIXShbQ0gzXSlbT0hdKVtDSDJdW0NIMl0y

>  <s_glide_docking_method>  (1) 
confgen

>  <s_i_glide_gridfile>  (1) 
gpcr_5ht2c_6bqh_protein_autoprepared_prepared

>  <s_lp_Force_Field>  (1) 
S-OPLS

>  <s_lp_Variant>  (1) 
DiffSBDD_9-1

>  <s_m_source_file>  (1) 
generated_GPCR_5HT2C_ligand_DiffSBDD_2026-06-23_prepared.sdf

>  <GenAI_Model>  (1) 
DiffSBDD

>  <Protein>  (1) 
GPCR_5HT2C

$$$$
DiffSBDD_43
     RDKit          3D

  0  0  0  0  0  0  0  0  0  0999 V3000
M  V30 BEGIN CTAB
M  V30 COUNTS 83 85 0 0 1
M  V30 BEGIN ATOM
M  V30 1 C 38.605900 28.322631 53.969692 0
M  V30 2 C 42.078941 32.214843 64.767510 0
M  V30 3 C 40.264071 36.074547 62.900288 0
M  V30 4 C 36.648718 31.418719 59.772645 0 CFG=2
M  V30 5 C 39.056149 32.107968 60.685614 0 CFG=2
M  V30 6 O 37.194995 38.436525 61.367754 0
M  V30 7 O 40.085935 30.921067 64.076076 0
M  V30 8 N 39.774011 26.735699 56.235451 0 CHG=1
M  V30 9 C 39.282752 36.918686 62.341947 0
M  V30 10 C 42.802087 31.011832 65.381992 0
M  V30 11 C 37.081727 30.007638 59.349053 0
M  V30 12 C 39.314415 31.246073 55.566860 0
M  V30 13 N 36.629740 36.937757 59.650421 0
M  V30 14 C 38.553803 36.499197 61.203317 0
M  V30 15 C 40.545797 32.067819 64.781761 0
M  V30 16 N 37.568289 37.322191 60.615357 0
M  V30 17 C 37.765339 32.473594 59.903294 0 CFG=1
M  V30 18 O 40.239551 29.679176 62.167852 0
M  V30 19 C 39.608818 26.069054 54.921307 0 CFG=1
M  V30 20 C 38.846889 31.651927 62.151250 0
M  V30 21 C 39.727643 28.215527 56.216979 0
M  V30 22 C 39.201875 32.459582 56.523651 0 CFG=1
M  V30 23 C 40.517105 34.811717 62.329593 0
M  V30 24 O 38.096331 32.993394 58.607397 0
M  V30 25 C 38.240560 33.521316 56.000389 0
M  V30 26 C 38.493806 28.734528 55.444505 0 CFG=1
M  V30 27 O 35.886548 31.337757 60.963370 0
M  V30 28 C 40.131912 30.982029 62.687896 0 CFG=1
M  V30 29 C 38.820727 35.244263 60.637574 0
M  V30 30 N 36.950550 30.651914 54.967763 0 CHG=1
M  V30 31 C 38.150540 25.771567 54.638032 0
M  V30 32 C 38.154301 30.223464 55.698431 0 CFG=2
M  V30 33 O 38.845134 31.959262 57.815708 0
M  V30 34 C 38.877712 26.833075 53.830668 0 CFG=1
M  V30 35 O 40.045130 33.154485 60.637559 0
M  V30 36 O 36.045080 29.474732 58.567764 0
M  V30 37 C 39.789704 34.390472 61.200705 0
M  V30 38 H 37.693936 28.554046 53.419323 0
M  V30 39 H 39.412582 28.873650 53.484038 0
M  V30 40 H 42.444770 32.379100 63.755999 0
M  V30 41 H 42.350557 33.111454 65.324977 0
M  V30 42 H 40.823632 36.397650 63.767270 0
M  V30 43 H 35.969017 31.826801 59.023689 0
M  V30 44 H 39.511655 31.270178 60.160611 0
M  V30 45 H 37.290388 39.175963 60.785363 0
M  V30 46 H 39.045379 26.395910 56.847171 0
M  V30 47 H 39.097468 37.880301 62.783598 0
M  V30 48 H 43.883617 31.151740 65.354638 0
M  V30 49 H 42.509559 30.868536 66.422321 0
M  V30 50 H 42.571370 30.095140 64.838870 0
M  V30 51 H 38.002277 30.006406 58.779818 0
M  V30 52 H 37.292405 29.338460 60.167752 0
M  V30 53 H 39.426092 31.575754 54.532931 0
M  V30 54 H 40.257972 30.760507 55.793669 0
M  V30 55 H 37.108704 36.535894 58.846154 0
M  V30 56 H 36.016556 36.229079 60.048261 0
M  V30 57 H 40.067144 32.966919 64.400620 0
M  V30 58 H 40.211988 31.965328 65.812849 0
M  V30 59 H 37.264098 33.274977 60.440669 0
M  V30 60 H 39.634275 29.134873 62.655116 0
M  V30 61 H 40.370005 25.337761 54.670852 0
M  V30 62 H 38.578993 32.508183 62.768512 0
M  V30 63 H 38.037875 30.930756 62.250737 0
M  V30 64 H 40.651542 28.579702 55.767667 0
M  V30 65 H 39.714232 28.567309 57.249386 0
M  V30 66 H 40.177538 32.937757 56.579615 0
M  V30 67 H 41.269362 34.168001 62.757345 0
M  V30 68 H 38.445174 33.785703 54.967761 0
M  V30 69 H 37.245140 33.128087 56.063034 0
M  V30 70 H 38.265677 34.438945 56.583573 0
M  V30 71 H 37.645142 28.201158 55.863541 0
M  V30 72 H 35.088488 30.871957 60.758144 0
M  V30 73 H 41.021913 31.514665 62.357060 0
M  V30 74 H 38.281776 34.942789 59.765989 0
M  V30 75 H 37.193386 30.989606 54.049126 0
M  V30 76 H 36.290496 29.892365 54.902617 0
M  V30 77 H 37.397340 26.090242 55.355286 0
M  V30 78 H 37.923597 24.820886 54.167760 0
M  V30 79 H 37.808954 30.221193 56.719799 0
M  V30 80 H 39.107293 26.541668 52.806855 0
M  V30 81 H 35.676579 30.185041 58.045458 0
M  V30 82 H 36.501586 31.398201 55.502020 0
M  V30 83 H 40.664442 26.448197 56.621763 0
M  V30 END ATOM
M  V30 BEGIN BOND
M  V30 1 1 9 3
M  V30 2 1 10 2
M  V30 3 1 11 4
M  V30 4 2 14 9
M  V30 5 1 15 2
M  V30 6 1 15 7
M  V30 7 1 16 6
M  V30 8 1 16 13
M  V30 9 1 16 14
M  V30 10 1 17 4
M  V30 11 1 17 5
M  V30 12 1 19 8
M  V30 13 1 20 5
M  V30 14 1 21 8
M  V30 15 1 22 12
M  V30 16 2 23 3
M  V30 17 1 24 17
M  V30 18 1 25 22
M  V30 19 1 26 1
M  V30 20 1 26 21
M  V30 21 1 27 4
M  V30 22 1 28 7
M  V30 23 1 28 18
M  V30 24 1 28 20
M  V30 25 1 29 14
M  V30 26 1 31 19
M  V30 27 1 32 12
M  V30 28 1 32 26
M  V30 29 1 32 30
M  V30 30 1 33 22
M  V30 31 1 33 24
M  V30 32 1 34 1
M  V30 33 1 34 19
M  V30 34 1 34 31
M  V30 35 1 35 5
M  V30 36 1 36 11
M  V30 37 1 37 23
M  V30 38 2 37 29
M  V30 39 1 37 35
M  V30 40 1 38 1
M  V30 41 1 39 1
M  V30 42 1 40 2
M  V30 43 1 41 2
M  V30 44 1 42 3
M  V30 45 1 4 43 CFG=3
M  V30 46 1 5 44 CFG=3
M  V30 47 1 45 6
M  V30 48 1 46 8
M  V30 49 1 47 9
M  V30 50 1 48 10
M  V30 51 1 49 10
M  V30 52 1 50 10
M  V30 53 1 51 11
M  V30 54 1 52 11
M  V30 55 1 53 12
M  V30 56 1 54 12
M  V30 57 1 55 13
M  V30 58 1 56 13
M  V30 59 1 57 15
M  V30 60 1 58 15
M  V30 61 1 17 59 CFG=1
M  V30 62 1 60 18
M  V30 63 1 19 61 CFG=3
M  V30 64 1 62 20
M  V30 65 1 63 20
M  V30 66 1 64 21
M  V30 67 1 65 21
M  V30 68 1 22 66 CFG=1
M  V30 69 1 67 23
M  V30 70 1 68 25
M  V30 71 1 69 25
M  V30 72 1 70 25
M  V30 73 1 26 71 CFG=1
M  V30 74 1 72 27
M  V30 75 1 28 73 CFG=1
M  V30 76 1 74 29
M  V30 77 1 75 30
M  V30 78 1 76 30
M  V30 79 1 77 31
M  V30 80 1 78 31
M  V30 81 1 32 79 CFG=1
M  V30 82 1 34 80 CFG=3
M  V30 83 1 81 36
M  V30 84 1 82 30
M  V30 85 1 83 8
M  V30 END BOND
M  V30 END CTAB
M  END
>  <i_epik_Tot_Q>  (1) 
2

>  <i_epik_Tot_abs_Q>  (1) 
2

>  <i_i_glide_confnum>  (1) 
4305

>  <i_i_glide_lignum>  (1) 
95

>  <i_i_glide_posenum>  (1) 
235

>  <i_i_glide_rotatable_bonds>  (1) 
21

>  <i_lp_mmshare_version>  (1) 
72125

>  <i_m_source_file_index>  (1) 
44

>  <i_f3d_flags>  (1) 
0

>  <num_sample>  (1) 
100

>  <b_lp_Chiralities_Consistent>  (1) 
1

>  <r_epik_Charging_Adjusted_Penalty>  (1) 
0.054628322637716921

>  <r_epik_Ionization_Penalty>  (1) 
0.057286365922034427

>  <r_epik_Ionization_Penalty_Charging>  (1) 
0.054628322637716921

>  <r_epik_Ionization_Penalty_Neutral>  (1) 
0.0026580432843175059

>  <r_epik_State_Penalty>  (1) 
-0

>  <r_glide_ring_energy>  (1) 
0

>  <r_i_docking_score>  (1) 
-5.9147201533024942

>  <r_i_glide_ecoul>  (1) 
-10.49128531848833

>  <r_i_glide_eff_state_penalty>  (1) 
-0

>  <r_i_glide_einternal>  (1) 
33.283811263262862

>  <r_i_glide_emodel>  (1) 
-58.25582551796272

>  <r_i_glide_emodel_strain>  (1) 
6.4253308506504823

>  <r_i_glide_energy>  (1) 
-55.795995148767211

>  <r_i_glide_erotb>  (1) 
1.0980815572756908

>  <r_i_glide_esite>  (1) 
-0.19688735153963469

>  <r_i_glide_evdw>  (1) 
-45.304709830278881

>  <r_i_glide_gscore>  (1) 
-5.9147201533024942

>  <r_i_glide_gscore_strain>  (1) 
0.60633271266262057

>  <r_i_glide_hbond>  (1) 
-0.66939957988363497

>  <r_i_glide_ligand_efficiency>  (1) 
-0.15985730144060795

>  <r_i_glide_ligand_efficiency_ln>  (1) 
-1.2827641405376005

>  <r_i_glide_ligand_efficiency_sa>  (1) 
-0.53267999300554802

>  <r_i_glide_lipo>  (1) 
-3.5538511068425302

>  <r_i_glide_metal>  (1) 
-0

>  <r_i_glide_rewards>  (1) 
0.63993190431218816

>  <r_lp_Energy>  (1) 
48.925089999999997

>  <r_lp_tautomer_probability>  (1) 
1

>  <s_epik_Chemistry_Notes>  (1) 
This compound contains an acetal/aminal-like group ( X-CH(R)-Y where X, Y are N, S, or O) that may be acid/base labile, releasing an aldehyde. This compound has a N-S or N-O group and may undergo hydrolysis at high or low pH.

>  <s_epik_cmdline>  (1) 
J2VwaWtfcHl0aG9uJywgJy1waHQnLCAnMS4wJywgJy1waCcsICc3LjQnLCAnLXRuJywgJzgnLCAnLW1hJywgJzUwMCcsICctaW1hZScsICc8aW5maWxlLm1hZT4nLCAnLW9tYWUnLCAnPG91dGZpbGUubWFlPic=

>  <s_epik_input>  (1) 
W0NASF0xMltDQEBIXShbQ0gyXTIpW0NIMl1bQ0BASF0oW0NIMl1bTkhdMSlbQ0BIXShbTkgyXSlbQ0gyXVtDQEBIXShbQ0gzXSlPT1tDQEBIXShbQ0BIXShbT0hdKVtDSDJdW09IXSlbQ0BIXShbQ0gyXVtDQEhdKFtPSF0pT1tDSDJdW0NIMl1bQ0gzXSlPYyhbY0hdMylbY0hdW2NIXVtjSF1jM04oW09IXSlbTkgyXQ==

>  <s_glide_docking_method>  (1) 
confgen

>  <s_i_glide_gridfile>  (1) 
gpcr_5ht2c_6bqh_protein_autoprepared_prepared

>  <s_lp_Force_Field>  (1) 
S-OPLS

>  <s_lp_Variant>  (1) 
DiffSBDD_43-1

>  <s_m_source_file>  (1) 
generated_GPCR_5HT2C_ligand_DiffSBDD_2026-06-23_prepared.sdf

>  <GenAI_Model>  (1) 
DiffSBDD

>  <Protein>  (1) 
GPCR_5HT2C

$$$$
DiffSBDD_20
     RDKit          3D

  0  0  0  0  0  0  0  0  0  0999 V3000
M  V30 BEGIN CTAB
M  V30 COUNTS 52 53 0 0 1
M  V30 BEGIN ATOM
M  V30 1 C 38.333165 31.606542 58.124622 0 CFG=2
M  V30 2 O 37.366411 29.495494 57.375906 0
M  V30 3 O 35.412282 31.336862 61.367715 0
M  V30 4 P 35.356459 32.710428 60.742091 0
M  V30 5 C 38.959102 30.700039 55.928863 0 CFG=1
M  V30 6 N 41.154096 30.960780 62.530155 0
M  V30 7 C 39.122050 30.126228 53.416081 0
M  V30 8 C 39.548408 29.343821 51.010481 0
M  V30 9 C 37.270185 31.566556 59.222311 0
M  V30 10 C 38.040221 33.519962 60.878478 0 CFG=2
M  V30 11 N 38.044872 32.606156 57.093503 0 CHG=1
M  V30 12 C 38.548390 30.270924 57.367113 0
M  V30 13 F 42.748574 32.537798 61.907071 0
M  V30 14 C 38.845860 29.051603 52.344880 0
M  V30 15 C 41.454244 32.151385 61.958062 0
M  V30 16 O 35.247537 33.807709 61.767831 0 CHG=-1
M  V30 17 O 34.304575 32.826097 59.662884 0 CHG=-1
M  V30 18 C 39.128160 32.612205 61.459492 0
M  V30 19 C 40.477231 32.998006 61.411326 0
M  V30 20 C 36.963614 32.911499 59.920103 0 CFG=2
M  V30 21 C 39.849245 30.604418 62.591264 0
M  V30 22 O 36.985431 30.135335 54.569183 0
M  V30 23 C 38.806441 31.392366 62.073474 0
M  V30 24 C 38.373656 29.878519 54.746001 0 CFG=2
M  V30 25 C 38.714237 32.218165 55.844620 0
M  V30 26 O 38.587531 34.615389 60.169292 0
M  V30 27 O 39.609224 29.563227 57.972536 0
M  V30 28 H 39.245104 31.941135 58.593921 0
M  V30 29 H 36.621876 30.061063 57.195703 0
M  V30 30 H 40.041359 30.582795 55.865386 0
M  V30 31 H 38.883893 31.117860 53.032443 0
M  V30 32 H 40.196500 30.141834 53.601928 0
M  V30 33 H 39.296439 28.591474 50.260955 0
M  V30 34 H 39.252116 30.311485 50.604948 0
M  V30 35 H 40.632888 29.354241 51.127755 0
M  V30 36 H 36.335245 31.206392 58.800197 0
M  V30 37 H 37.535258 30.794541 59.939565 0
M  V30 38 H 37.583236 33.974696 61.753057 0
M  V30 39 H 38.274905 33.538465 57.404291 0
M  V30 40 H 39.170652 28.074598 52.709345 0
M  V30 41 H 37.772899 28.966189 52.170719 0
M  V30 42 H 40.764618 33.936419 60.968011 0
M  V30 43 H 36.723094 33.649891 59.154136 0
M  V30 44 H 39.634722 29.661514 63.067574 0
M  V30 45 H 36.809122 31.063207 54.616281 0
M  V30 46 H 37.781298 31.064319 62.148203 0
M  V30 47 H 38.479670 28.820316 54.990648 0
M  V30 48 H 39.667442 32.743625 55.780887 0
M  V30 49 H 38.116700 32.523923 54.985075 0
M  V30 50 H 37.897262 35.252767 60.058793 0
M  V30 51 H 39.663361 28.711717 57.565777 0
M  V30 52 H 37.034394 32.545212 56.953739 0
M  V30 END ATOM
M  V30 BEGIN BOND
M  V30 1 2 4 3
M  V30 2 1 9 1
M  V30 3 1 11 1
M  V30 4 1 12 1
M  V30 5 1 12 2
M  V30 6 1 12 5
M  V30 7 1 14 7
M  V30 8 1 14 8
M  V30 9 2 15 6
M  V30 10 1 15 13
M  V30 11 1 16 4
M  V30 12 1 17 4
M  V30 13 1 18 10
M  V30 14 1 19 15
M  V30 15 2 19 18
M  V30 16 1 20 4
M  V30 17 1 20 9
M  V30 18 1 20 10
M  V30 19 1 21 6
M  V30 20 1 23 18
M  V30 21 2 23 21
M  V30 22 1 24 5
M  V30 23 1 24 7
M  V30 24 1 24 22
M  V30 25 1 25 5
M  V30 26 1 25 11
M  V30 27 1 26 10
M  V30 28 1 27 12
M  V30 29 1 1 28 CFG=1
M  V30 30 1 29 2
M  V30 31 1 5 30 CFG=1
M  V30 32 1 31 7
M  V30 33 1 32 7
M  V30 34 1 33 8
M  V30 35 1 34 8
M  V30 36 1 35 8
M  V30 37 1 36 9
M  V30 38 1 37 9
M  V30 39 1 10 38 CFG=1
M  V30 40 1 39 11
M  V30 41 1 40 14
M  V30 42 1 41 14
M  V30 43 1 42 19
M  V30 44 1 20 43 CFG=3
M  V30 45 1 44 21
M  V30 46 1 45 22
M  V30 47 1 46 23
M  V30 48 1 24 47 CFG=1
M  V30 49 1 48 25
M  V30 50 1 49 25
M  V30 51 1 50 26
M  V30 52 1 51 27
M  V30 53 1 52 11
M  V30 END BOND
M  V30 END CTAB
M  END
>  <i_epik_Tot_Q>  (1) 
-1

>  <i_epik_Tot_abs_Q>  (1) 
3

>  <i_i_glide_confnum>  (1) 
305

>  <i_i_glide_lignum>  (1) 
48

>  <i_i_glide_posenum>  (1) 
330

>  <i_i_glide_rotatable_bonds>  (1) 
12

>  <i_lp_mmshare_version>  (1) 
72125

>  <i_m_source_file_index>  (1) 
21

>  <i_f3d_flags>  (1) 
0

>  <num_sample>  (1) 
100

>  <b_lp_Chiralities_Consistent>  (1) 
1

>  <r_epik_Charging_Adjusted_Penalty>  (1) 
0.6119073465235404

>  <r_epik_Ionization_Penalty>  (1) 
0.30667552727884728

>  <r_epik_Ionization_Penalty_Charging>  (1) 
0.30666936404430589

>  <r_epik_Ionization_Penalty_Neutral>  (1) 
6.1632345413695363e-06

>  <r_epik_State_Penalty>  (1) 
0.3052379824792345

>  <r_glide_ring_energy>  (1) 
1.9592154643148372

>  <r_i_docking_score>  (1) 
-5.9095220168015929

>  <r_i_glide_ecoul>  (1) 
-10.159920186224131

>  <r_i_glide_eff_state_penalty>  (1) 
0.3052379824792345

>  <r_i_glide_einternal>  (1) 
24.239111761727887

>  <r_i_glide_emodel>  (1) 
-47.694559460398516

>  <r_i_glide_emodel_strain>  (1) 
3.3871400915697336

>  <r_i_glide_energy>  (1) 
-42.380292368642941

>  <r_i_glide_erotb>  (1) 
0.59271143775516177

>  <r_i_glide_esite>  (1) 
-0.14582114441257768

>  <r_i_glide_evdw>  (1) 
-32.220372182418814

>  <r_i_glide_gscore>  (1) 
-6.2147599992808278

>  <r_i_glide_gscore_strain>  (1) 
0

>  <r_i_glide_hbond>  (1) 
-0.55409294331931358

>  <r_i_glide_ligand_efficiency>  (1) 
-0.2188711858074664

>  <r_i_glide_ligand_efficiency_ln>  (1) 
-1.3756392994267017

>  <r_i_glide_ligand_efficiency_sa>  (1) 
-0.65661355742239935

>  <r_i_glide_lipo>  (1) 
-1.7856554366034227

>  <r_i_glide_metal>  (1) 
-0

>  <r_i_glide_rewards>  (1) 
-1.1868952756461151

>  <r_lp_Energy>  (1) 
8.755507999999999

>  <s_epik_cmdline>  (1) 
J2VwaWtfcHl0aG9uJywgJy1waHQnLCAnMS4wJywgJy1waCcsICc3LjQnLCAnLXRuJywgJzgnLCAnLW1hJywgJzUwMCcsICctaW1hZScsICc8aW5maWxlLm1hZT4nLCAnLW9tYWUnLCAnPG91dGZpbGUubWFlPic=

>  <s_epik_input>  (1) 
W0NIM11bQ0gyXVtDSDJdW0NAQEhdKFtPSF0pW0NASF0xW0NIMl1bTkhdW0NASF0oQzEoW09IXSlbT0hdKVtDSDJdW0NAQEhdKFAoPU8pKFtPSF0pW09IXSlbQ0BIXShbT0hdKWMoW2NIXTIpW2NIXVtjSF1uYzJG

>  <s_glide_docking_method>  (1) 
confgen

>  <s_i_glide_gridfile>  (1) 
gpcr_5ht2c_6bqh_protein_autoprepared_prepared

>  <s_lp_Force_Field>  (1) 
S-OPLS

>  <s_lp_Variant>  (1) 
DiffSBDD_20-2

>  <s_m_source_file>  (1) 
generated_GPCR_5HT2C_ligand_DiffSBDD_2026-06-23_prepared.sdf

>  <GenAI_Model>  (1) 
DiffSBDD

>  <Protein>  (1) 
GPCR_5HT2C

$$$$
DiffSBDD_93
     RDKit          3D

  0  0  0  0  0  0  0  0  0  0999 V3000
M  V30 BEGIN CTAB
M  V30 COUNTS 84 85 0 0 1
M  V30 BEGIN ATOM
M  V30 1 C 40.594115 30.803988 62.612423 0
M  V30 2 O 39.645342 30.537854 63.626088 0
M  V30 3 C 35.756218 33.677584 60.558250 0
M  V30 4 C 39.905387 30.698512 55.702740 0
M  V30 5 O 38.805640 32.302694 59.840576 0
M  V30 6 C 39.056816 26.444044 57.622757 0
M  V30 7 N 40.387635 26.525730 57.609904 0
M  V30 8 O 38.445737 25.738004 58.418977 0
M  V30 9 O 41.873903 35.738013 63.367855 0
M  V30 10 C 40.586379 30.959824 54.394648 0
M  V30 11 C 36.688769 33.682805 61.769253 0
M  V30 12 C 38.656694 30.025896 60.607468 0
M  V30 13 C 40.550113 33.184548 61.830573 0
M  V30 14 C 38.507881 28.836584 56.691386 0 CFG=1
M  V30 15 C 38.296748 27.278697 56.579604 0 CFG=1
M  V30 16 C 37.056181 35.712581 60.736335 0 CFG=1
M  V30 17 C 38.819655 35.038639 62.513386 0 CFG=1
M  V30 18 C 38.294166 36.137948 63.487389 0
M  V30 19 C 38.879240 29.218672 59.298820 0
M  V30 20 S 40.985285 34.586801 64.234390 0 CHG=1
M  V30 21 O 36.019375 30.537154 58.967767 0
M  V30 22 N 40.085106 31.794230 61.648534 0
M  V30 23 O 42.111122 33.347402 64.479547 0
M  V30 24 O 36.859171 34.493151 58.634033 0
M  V30 25 F 39.155203 36.137754 60.167759 0
M  V30 26 C 39.104945 31.213695 54.527303 0
M  V30 27 C 36.545340 29.509782 58.170384 0
M  V30 28 C 38.077791 29.593015 58.009371 0 CFG=2
M  V30 29 C 39.199633 31.474617 60.659785 0
M  V30 30 C 38.563107 26.623004 55.178478 0
M  V30 31 C 37.954060 38.159558 60.568005 0
M  V30 32 C 39.791861 33.905500 62.999335 0 CFG=2
M  V30 33 O 36.857076 27.737852 53.946020 0
M  V30 34 C 39.892635 29.271933 56.198764 0
M  V30 35 C 37.967418 36.712795 60.037142 0 CFG=2
M  V30 36 C 38.060433 27.406488 53.956991 0
M  V30 37 C 36.139572 34.928429 59.771153 0 CFG=1
M  V30 38 O 38.896800 27.655825 53.060950 0 CHG=-1
M  V30 39 N 37.787014 34.633534 61.451753 0 CFG=1 CHG=1
M  V30 40 H 40.911340 29.883961 62.122294 0
M  V30 41 H 41.498720 31.168911 63.097821 0
M  V30 42 H 39.503873 29.600827 63.719953 0
M  V30 43 H 35.888230 32.776419 59.968433 0
M  V30 44 H 34.709625 33.708822 60.866027 0
M  V30 45 H 40.044503 31.436678 56.487138 0
M  V30 46 H 40.849278 27.112815 56.932877 0
M  V30 47 H 40.929832 25.990458 58.270049 0
M  V30 48 H 41.880926 36.526256 63.898566 0
M  V30 49 H 41.333937 31.737712 54.486613 0
M  V30 50 H 40.839996 30.137799 53.734987 0
M  V30 51 H 37.039599 32.689427 62.048268 0
M  V30 52 H 36.045238 34.065081 62.567705 0
M  V30 53 H 38.985718 29.386176 61.421434 0
M  V30 54 H 37.595142 30.137918 60.806329 0
M  V30 55 H 40.446128 33.764961 60.912350 0
M  V30 56 H 41.628968 33.165847 61.990641 0
M  V30 57 H 37.820784 29.229338 55.943379 0
M  V30 58 H 37.245201 27.099514 56.791470 0
M  V30 59 H 36.445101 36.242629 61.462493 0
M  V30 60 H 39.621579 35.626333 62.095785 0
M  V30 61 H 38.752946 36.137839 64.472607 0
M  V30 62 H 38.519611 37.127096 63.107250 0
M  V30 63 H 37.211720 36.137757 63.627113 0
M  V30 64 H 39.948107 29.220929 59.088468 0
M  V30 65 H 38.639166 28.190788 59.558247 0
M  V30 66 H 35.714962 31.200551 58.336014 0
M  V30 67 H 42.666508 33.346180 63.715356 0
M  V30 68 H 36.461536 34.862534 57.851810 0
M  V30 69 H 38.426464 30.520330 54.030468 0
M  V30 70 H 38.774838 32.250468 54.551322 0
M  V30 71 H 36.072468 29.702460 57.208317 0
M  V30 72 H 36.214563 28.538012 58.529561 0
M  V30 73 H 38.285284 30.646694 57.821757 0
M  V30 74 H 39.627527 26.434929 55.026828 0
M  V30 75 H 38.094790 25.638215 55.143932 0
M  V30 76 H 36.951671 38.477059 60.855470 0
M  V30 77 H 38.624125 38.304778 61.408455 0
M  V30 78 H 38.292648 38.857858 59.801515 0
M  V30 79 H 39.245220 33.146701 63.546308 0
M  V30 80 H 40.624394 29.157775 56.992999 0
M  V30 81 H 40.237458 28.635155 55.385913 0
M  V30 82 H 37.719330 36.773499 58.976677 0
M  V30 83 H 35.272500 35.503869 59.444868 0
M  V30 84 H 38.304894 34.179398 60.706969 0
M  V30 END ATOM
M  V30 BEGIN BOND
M  V30 1 1 2 1
M  V30 2 1 7 6
M  V30 3 2 8 6
M  V30 4 1 10 4
M  V30 5 1 11 3
M  V30 6 1 15 6
M  V30 7 1 15 14
M  V30 8 1 18 17
M  V30 9 1 19 12
M  V30 10 1 20 9
M  V30 11 1 22 1
M  V30 12 1 22 13
M  V30 13 1 23 20
M  V30 14 1 26 4
M  V30 15 1 26 10
M  V30 16 1 27 21
M  V30 17 1 28 14
M  V30 18 1 28 19
M  V30 19 1 28 27
M  V30 20 2 29 5
M  V30 21 1 29 12
M  V30 22 1 29 22
M  V30 23 1 30 15
M  V30 24 1 32 13
M  V30 25 1 32 17
M  V30 26 1 32 20
M  V30 27 1 34 4
M  V30 28 1 34 14
M  V30 29 1 35 16
M  V30 30 1 35 25
M  V30 31 1 35 31
M  V30 32 1 36 30
M  V30 33 2 36 33
M  V30 34 1 37 3
M  V30 35 1 37 16
M  V30 36 1 37 24
M  V30 37 1 38 36
M  V30 38 1 39 11
M  V30 39 1 39 16
M  V30 40 1 39 17
M  V30 41 1 40 1
M  V30 42 1 41 1
M  V30 43 1 42 2
M  V30 44 1 43 3
M  V30 45 1 44 3
M  V30 46 1 45 4
M  V30 47 1 46 7
M  V30 48 1 47 7
M  V30 49 1 48 9
M  V30 50 1 49 10
M  V30 51 1 50 10
M  V30 52 1 51 11
M  V30 53 1 52 11
M  V30 54 1 53 12
M  V30 55 1 54 12
M  V30 56 1 55 13
M  V30 57 1 56 13
M  V30 58 1 14 57 CFG=3
M  V30 59 1 15 58 CFG=1
M  V30 60 1 16 59 CFG=1
M  V30 61 1 17 60 CFG=3
M  V30 62 1 61 18
M  V30 63 1 62 18
M  V30 64 1 63 18
M  V30 65 1 64 19
M  V30 66 1 65 19
M  V30 67 1 66 21
M  V30 68 1 67 23
M  V30 69 1 68 24
M  V30 70 1 69 26
M  V30 71 1 70 26
M  V30 72 1 71 27
M  V30 73 1 72 27
M  V30 74 1 28 73 CFG=3
M  V30 75 1 74 30
M  V30 76 1 75 30
M  V30 77 1 76 31
M  V30 78 1 77 31
M  V30 79 1 78 31
M  V30 80 1 32 79 CFG=1
M  V30 81 1 80 34
M  V30 82 1 81 34
M  V30 83 1 35 82 CFG=3
M  V30 84 1 37 83 CFG=3
M  V30 85 1 39 84 CFG=3
M  V30 END BOND
M  V30 END CTAB
M  END
>  <i_epik_Tot_Q>  (1) 
1

>  <i_epik_Tot_abs_Q>  (1) 
3

>  <i_i_glide_confnum>  (1) 
3504

>  <i_i_glide_lignum>  (1) 
222

>  <i_i_glide_posenum>  (1) 
283

>  <i_i_glide_rotatable_bonds>  (1) 
24

>  <i_lp_mmshare_version>  (1) 
72125

>  <i_m_source_file_index>  (1) 
94

>  <i_f3d_flags>  (1) 
0

>  <num_sample>  (1) 
100

>  <b_lp_Chiralities_Consistent>  (1) 
1

>  <r_epik_Charging_Adjusted_Penalty>  (1) 
0.90916677635763199

>  <r_epik_Ionization_Penalty>  (1) 
0.45507897092921873

>  <r_epik_Ionization_Penalty_Charging>  (1) 
0.45507471778648678

>  <r_epik_Ionization_Penalty_Neutral>  (1) 
4.2531427319391784e-06

>  <r_epik_State_Penalty>  (1) 
0.45409205857114521

>  <r_glide_ring_energy>  (1) 
0

>  <r_i_docking_score>  (1) 
-5.907694986207928

>  <r_i_glide_ecoul>  (1) 
-13.765644302934454

>  <r_i_glide_eff_state_penalty>  (1) 
0.45409205857114521

>  <r_i_glide_einternal>  (1) 
16.022571273341935

>  <r_i_glide_emodel>  (1) 
-38.709403298912079

>  <r_i_glide_emodel_strain>  (1) 
10.418432481670571

>  <r_i_glide_energy>  (1) 
-35.945790246849668

>  <r_i_glide_erotb>  (1) 
0.82188833391367333

>  <r_i_glide_esite>  (1) 
0

>  <r_i_glide_evdw>  (1) 
-22.18014594391521

>  <r_i_glide_gscore>  (1) 
-6.3617870447790734

>  <r_i_glide_gscore_strain>  (1) 
1.6046081204176428

>  <r_i_glide_hbond>  (1) 
-1.0450174718071079

>  <r_i_glide_ligand_efficiency>  (1) 
-0.1514793586207161

>  <r_i_glide_ligand_efficiency_ln>  (1) 
-1.2667775049378418

>  <r_i_glide_ligand_efficiency_sa>  (1) 
-0.51369853433501922

>  <r_i_glide_lipo>  (1) 
-2.7517583216149051

>  <r_i_glide_metal>  (1) 
-0

>  <r_i_glide_rewards>  (1) 
-1.8176537630524472

>  <r_lp_Energy>  (1) 
31.842893

>  <s_epik_Chemistry_Notes>  (1) 
This compound contains an acetal/aminal-like group ( X-CH(R)-Y where X, Y are N, S, or O) that may be acid/base labile, releasing an aldehyde.

>  <s_epik_cmdline>  (1) 
J2VwaWtfcHl0aG9uJywgJy1waHQnLCAnMS4wJywgJy1waCcsICc3LjQnLCAnLXRuJywgJzgnLCAnLW1hJywgJzUwMCcsICctaW1hZScsICc8aW5maWxlLm1hZT4nLCAnLW9tYWUnLCAnPG91dGZpbGUubWFlPic=

>  <s_epik_input>  (1) 
W0NIMl0xW0NIMl1bQ0hdMVtDSDJdW0NAQEhdKFtDQEBIXShDKD1PKVtOSDJdKVtDSDJdQyg9TylbT0hdKVtDQEBIXShbQ0gyXVtPSF0pW0NIMl1bQ0gyXUMoPU8pTihbQ0gyXVtPSF0pW0NIMl1bQ0BASF0oW1MrXShbT0hdKVtPSF0pW0NASF0oW0NIM10pTjJbQ0gyXVtDSDJdW0NASF0oW09IXSlbQ0BASF0yW0NASF0oRilbQ0gzXQ==

>  <s_glide_docking_method>  (1) 
confgen

>  <s_i_glide_gridfile>  (1) 
gpcr_5ht2c_6bqh_protein_autoprepared_prepared

>  <s_lp_Force_Field>  (1) 
S-OPLS

>  <s_lp_Variant>  (1) 
DiffSBDD_93-10

>  <s_m_source_file>  (1) 
generated_GPCR_5HT2C_ligand_DiffSBDD_2026-06-23_prepared.sdf

>  <GenAI_Model>  (1) 
DiffSBDD

>  <Protein>  (1) 
GPCR_5HT2C

$$$$
DiffSBDD_25
     RDKit          3D

  0  0  0  0  0  0  0  0  0  0999 V3000
M  V30 BEGIN CTAB
M  V30 COUNTS 68 71 0 0 1
M  V30 BEGIN ATOM
M  V30 1 C 40.496052 34.626571 62.952618 0
M  V30 2 C 38.538083 30.968581 55.478694 0
M  V30 3 O 40.260702 35.751410 63.442057 0 CHG=-1
M  V30 4 C 35.975002 31.589294 60.405389 0
M  V30 5 N 39.058934 32.023737 62.259533 0
M  V30 6 C 39.427631 29.816272 54.997899 0
M  V30 7 C 42.005081 34.001718 64.964116 0
M  V30 8 C 42.787190 31.857757 65.367753 0
M  V30 9 C 40.641086 27.223524 56.623857 0
M  V30 10 C 38.835868 28.437340 55.331848 0
M  V30 11 C 39.215580 27.825916 56.712417 0 CFG=2
M  V30 12 C 42.183068 29.818334 63.991665 0
M  V30 13 O 38.251825 25.820248 55.862887 0
M  V30 14 O 40.881441 30.720171 61.587542 0
M  V30 15 N 37.634919 30.423244 59.151536 0
M  V30 16 C 41.270277 32.168886 63.484134 0
M  V30 17 O 40.164621 34.321414 61.789180 0
M  V30 18 C 38.376431 25.957655 58.171821 0
M  V30 19 C 41.249210 33.583566 63.815908 0
M  V30 20 C 39.172501 28.851890 57.890292 0
M  V30 21 C 38.074870 29.945901 57.832513 0 CFG=2
M  V30 22 C 40.438639 31.577912 62.347549 0
M  V30 23 C 38.659282 30.668967 60.154809 0
M  V30 24 N 42.728973 33.153214 65.721722 0
M  V30 25 C 37.496400 24.790161 57.815604 0
M  V30 26 C 36.349640 30.842621 59.367760 0
M  V30 27 N 42.045129 35.337750 65.345971 0
M  V30 28 N 38.219938 26.767841 56.972832 0
M  V30 29 C 38.524666 31.170122 56.997469 0
M  V30 30 C 38.196594 31.591028 61.290178 0
M  V30 31 C 36.885856 23.841257 55.529631 0
M  V30 32 N 36.899601 31.997479 61.347354 0 CHG=1
M  V30 33 C 37.941192 24.536250 56.390989 0 CFG=1
M  V30 34 C 42.085246 31.313342 64.279721 0
M  V30 35 H 37.516533 30.828698 55.121035 0
M  V30 36 H 38.883547 31.893455 55.015170 0
M  V30 37 H 34.965397 31.938326 60.567289 0
M  V30 38 H 38.673704 32.694601 62.906360 0
M  V30 39 H 39.502598 29.895434 53.912761 0
M  V30 40 H 40.445202 29.921666 55.370990 0
M  V30 41 H 43.402450 31.224071 65.989342 0
M  V30 42 H 41.360132 27.979665 56.312043 0
M  V30 43 H 40.997431 26.845555 57.581513 0
M  V30 44 H 40.704642 26.408959 55.901654 0
M  V30 45 H 37.750709 28.492141 55.227282 0
M  V30 46 H 39.149652 27.747386 54.547036 0
M  V30 47 H 42.730738 29.308495 64.784866 0
M  V30 48 H 41.197236 29.354527 63.937255 0
M  V30 49 H 42.720205 29.631536 63.061560 0
M  V30 50 H 39.401806 25.621701 58.317892 0
M  V30 51 H 38.045138 26.479244 59.065099 0
M  V30 52 H 40.137549 29.356754 57.945643 0
M  V30 53 H 39.116880 28.321080 58.837363 0
M  V30 54 H 37.192526 29.509611 57.361543 0
M  V30 55 H 39.523436 31.109428 59.664654 0
M  V30 56 H 38.941817 29.704790 60.578217 0
M  V30 57 H 36.445182 25.080104 57.855431 0
M  V30 58 H 37.645138 23.926780 58.463560 0
M  V30 59 H 35.652538 30.537775 58.598999 0
M  V30 60 H 41.517714 36.043351 64.832496 0
M  V30 61 H 42.567889 35.646113 66.149075 0
M  V30 62 H 37.844218 32.001390 57.191520 0
M  V30 63 H 39.502967 31.516109 57.325482 0
M  V30 64 H 36.503979 22.937745 56.005723 0
M  V30 65 H 36.045139 24.506480 55.344720 0
M  V30 66 H 37.306812 23.560475 54.567758 0
M  V30 67 H 38.861504 23.954769 56.409035 0
M  V30 68 H 36.684933 32.608193 62.121532 0
M  V30 END ATOM
M  V30 BEGIN BOND
M  V30 1 1 3 1
M  V30 2 1 6 2
M  V30 3 1 10 6
M  V30 4 1 11 9 CFG=3
M  V30 5 1 11 10
M  V30 6 2 17 1
M  V30 7 1 19 1
M  V30 8 2 19 7
M  V30 9 1 19 16
M  V30 10 1 20 11
M  V30 11 1 21 15
M  V30 12 1 21 20
M  V30 13 1 22 5
M  V30 14 2 22 14
M  V30 15 1 22 16
M  V30 16 1 23 15
M  V30 17 1 24 7
M  V30 18 2 24 8
M  V30 19 1 25 18
M  V30 20 2 26 4
M  V30 21 1 26 15
M  V30 22 1 27 7
M  V30 23 1 28 11
M  V30 24 1 28 13
M  V30 25 1 28 18
M  V30 26 1 29 2
M  V30 27 1 29 21
M  V30 28 1 30 5
M  V30 29 1 30 23
M  V30 30 1 32 4
M  V30 31 2 32 30
M  V30 32 1 33 13
M  V30 33 1 33 25
M  V30 34 1 33 31
M  V30 35 1 34 8
M  V30 36 1 34 12
M  V30 37 2 34 16
M  V30 38 1 35 2
M  V30 39 1 36 2
M  V30 40 1 37 4
M  V30 41 1 38 5
M  V30 42 1 39 6
M  V30 43 1 40 6
M  V30 44 1 41 8
M  V30 45 1 42 9
M  V30 46 1 43 9
M  V30 47 1 44 9
M  V30 48 1 45 10
M  V30 49 1 46 10
M  V30 50 1 47 12
M  V30 51 1 48 12
M  V30 52 1 49 12
M  V30 53 1 50 18
M  V30 54 1 51 18
M  V30 55 1 52 20
M  V30 56 1 53 20
M  V30 57 1 21 54 CFG=3
M  V30 58 1 55 23
M  V30 59 1 56 23
M  V30 60 1 57 25
M  V30 61 1 58 25
M  V30 62 1 59 26
M  V30 63 1 60 27
M  V30 64 1 61 27
M  V30 65 1 62 29
M  V30 66 1 63 29
M  V30 67 1 64 31
M  V30 68 1 65 31
M  V30 69 1 66 31
M  V30 70 1 33 67 CFG=1
M  V30 71 1 68 32
M  V30 END BOND
M  V30 END CTAB
M  END
>  <i_epik_Tot_Q>  (1) 
0

>  <i_epik_Tot_abs_Q>  (1) 
2

>  <i_i_glide_confnum>  (1) 
2

>  <i_i_glide_lignum>  (1) 
66

>  <i_i_glide_posenum>  (1) 
306

>  <i_i_glide_rotatable_bonds>  (1) 
6

>  <i_lp_mmshare_version>  (1) 
72125

>  <i_m_source_file_index>  (1) 
26

>  <i_f3d_flags>  (1) 
0

>  <num_sample>  (1) 
100

>  <b_lp_Chiralities_Consistent>  (1) 
1

>  <r_epik_Charging_Adjusted_Penalty>  (1) 
2.0881109960433539

>  <r_epik_Ionization_Penalty>  (1) 
0.85183889184377526

>  <r_epik_Ionization_Penalty_Charging>  (1) 
0.8304268618792634

>  <r_epik_Ionization_Penalty_Neutral>  (1) 
0.02141202996451182

>  <r_epik_State_Penalty>  (1) 
1.2576841341640903

>  <r_glide_ring_energy>  (1) 
0

>  <r_i_docking_score>  (1) 
-5.8976169897601469

>  <r_i_glide_ecoul>  (1) 
-1.5435151391556083

>  <r_i_glide_eff_state_penalty>  (1) 
1.2576841341640903

>  <r_i_glide_einternal>  (1) 
5.4706903503618385

>  <r_i_glide_emodel>  (1) 
-67.934526378644023

>  <r_i_glide_emodel_strain>  (1) 
0.83424792836053996

>  <r_i_glide_energy>  (1) 
-45.992637228580563

>  <r_i_glide_erotb>  (1) 
0.45623875647966866

>  <r_i_glide_esite>  (1) 
-0.065664493967695955

>  <r_i_glide_evdw>  (1) 
-44.449122089424954

>  <r_i_glide_gscore>  (1) 
-7.1553011239242368

>  <r_i_glide_gscore_strain>  (1) 
0

>  <r_i_glide_hbond>  (1) 
-0.33706652901502721

>  <r_i_glide_ligand_efficiency>  (1) 
-0.17345932322823962

>  <r_i_glide_ligand_efficiency_ln>  (1) 
-1.3029490155913439

>  <r_i_glide_ligand_efficiency_sa>  (1) 
-0.56194087057181064

>  <r_i_glide_lipo>  (1) 
-3.1084837406716246

>  <r_i_glide_metal>  (1) 
-0

>  <r_i_glide_rewards>  (1) 
-1.6463417414049673

>  <r_lp_Energy>  (1) 
64.660426999999999

>  <s_epik_Chemistry_Notes>  (1) 
This compound has an imine and may undergo hydrolysis. This compound has a N-S or N-O group and may undergo hydrolysis at high or low pH.

>  <s_epik_cmdline>  (1) 
J2VwaWtfcHl0aG9uJywgJy1waHQnLCAnMS4wJywgJy1waCcsICc3LjQnLCAnLXRuJywgJzgnLCAnLW1hJywgJzUwMCcsICctaW1hZScsICc8aW5maWxlLm1hZT4nLCAnLW9tYWUnLCAnPG91dGZpbGUubWFlPic=

>  <s_epik_input>  (1) 
W09IXUMoPU8pYyhjMVtOSDJdKWMoYyhbY0hdbjEpW0NIM10pQyg9TylbTkhdQyg9TltDSF09W0NIXTIpW0NIMl1OMltDQEhdKFtDSDJdMylbQ0gyXVtDSDJdW0NIMl1bQ0gyXVtDQF0zKFtDSDNdKU40T1tDQEBIXShbQ0gzXSlbQ0gyXVtDSDJdNA==

>  <s_glide_docking_method>  (1) 
confgen

>  <s_i_glide_gridfile>  (1) 
gpcr_5ht2c_6bqh_protein_autoprepared_prepared

>  <s_lp_Force_Field>  (1) 
S-OPLS

>  <s_lp_Variant>  (1) 
DiffSBDD_25-6

>  <s_m_source_file>  (1) 
generated_GPCR_5HT2C_ligand_DiffSBDD_2026-06-23_prepared.sdf

>  <GenAI_Model>  (1) 
DiffSBDD

>  <Protein>  (1) 
GPCR_5HT2C

$$$$
DiffSBDD_93
     RDKit          3D

  0  0  0  0  0  0  0  0  0  0999 V3000
M  V30 BEGIN CTAB
M  V30 COUNTS 83 84 0 0 1
M  V30 BEGIN ATOM
M  V30 1 C 39.391184 28.946269 60.923693 0
M  V30 2 O 40.667210 29.479306 61.210304 0
M  V30 3 C 38.341251 30.191822 53.840714 0
M  V30 4 C 40.299767 34.698219 60.989986 0
M  V30 5 O 37.939252 31.196527 61.611776 0
M  V30 6 C 36.891046 36.903090 63.054113 0
M  V30 7 N 35.655829 36.945329 63.547392 0
M  V30 8 O 37.884713 36.937789 63.773515 0
M  V30 9 O 39.886779 25.403225 58.102870 0
M  V30 10 C 41.610977 34.452313 61.657757 0
M  V30 11 C 39.074737 29.948475 55.152298 0
M  V30 12 C 37.362491 31.859151 59.373672 0
M  V30 13 C 38.707812 29.438692 58.511526 0
M  V30 14 C 37.882517 35.592776 60.945416 0 CFG=2
M  V30 15 C 37.034612 36.820235 61.504117 0 CFG=2
M  V30 16 C 38.795279 27.821334 54.248547 0 CFG=1
M  V30 17 C 39.735102 28.021512 56.526047 0 CFG=1
M  V30 18 C 41.205708 27.995009 56.177039 0
M  V30 19 C 37.784639 33.343593 59.571560 0
M  V30 20 S 38.742983 26.573446 58.567988 0 CHG=1
M  V30 21 O 35.244927 34.537669 59.546051 0
M  V30 22 N 38.656299 29.799372 59.964015 0
M  V30 23 O 37.387397 26.309009 57.584487 0
M  V30 24 O 36.846040 28.523112 52.967118 0
M  V30 25 F 37.067677 26.404074 54.978802 0
M  V30 26 C 40.652125 33.304759 61.486004 0
M  V30 27 C 35.706923 34.060591 60.791282 0
M  V30 28 C 37.242096 34.142435 60.819625 0 CFG=2
M  V30 29 C 38.009826 30.917167 60.414311 0
M  V30 30 C 37.614341 38.171498 60.973441 0
M  V30 31 C 39.027680 25.206095 54.694636 0
M  V30 32 C 39.470910 28.163148 58.045578 0 CFG=2
M  V30 33 O 35.670572 39.311587 61.775732 0
M  V30 34 C 39.246066 35.508703 61.684308 0
M  V30 35 C 38.161926 26.396120 54.239032 0 CFG=2
M  V30 36 C 36.845467 39.448216 61.367747 0
M  V30 37 C 38.197807 28.796066 53.214441 0 CFG=1
M  V30 38 O 37.457318 40.534249 61.240201 0 CHG=-1
M  V30 39 N 38.805104 28.566241 55.527460 0
M  V30 40 H 38.845589 28.902886 61.868806 0
M  V30 41 H 39.510685 27.903306 60.661483 0
M  V30 42 H 40.778620 29.492644 62.151845 0
M  V30 43 H 37.374342 30.658705 54.038703 0
M  V30 44 H 38.913488 30.862631 53.199056 0
M  V30 45 H 40.402314 34.937013 59.932779 0
M  V30 46 H 34.865987 36.955478 62.925054 0
M  V30 47 H 35.513595 36.994561 64.545490 0
M  V30 48 H 40.081707 25.543047 57.190027 0
M  V30 49 H 42.444194 34.531647 60.967760 0
M  V30 50 H 41.748635 34.884449 62.648108 0
M  V30 51 H 38.755432 30.652476 55.918204 0
M  V30 52 H 40.135026 30.112433 54.969076 0
M  V30 53 H 37.606573 31.626484 58.343008 0
M  V30 54 H 36.282569 31.734896 59.412866 0
M  V30 55 H 39.223367 30.266081 58.025354 0
M  V30 56 H 37.697534 29.396982 58.100585 0
M  V30 57 H 38.099914 35.883150 59.918387 0
M  V30 58 H 36.048039 36.774712 61.044113 0
M  V30 59 H 39.811240 27.681544 53.904912 0
M  V30 60 H 39.568503 26.980340 56.381514 0
M  V30 61 H 41.845240 27.617691 56.977766 0
M  V30 62 H 41.244998 27.280402 55.367631 0
M  V30 63 H 41.604943 28.937754 55.836378 0
M  V30 64 H 38.864839 33.347611 59.534927 0
M  V30 65 H 37.511463 33.885422 58.665042 0
M  V30 66 H 34.302052 34.463129 59.520740 0
M  V30 67 H 37.612151 26.552692 56.695459 0
M  V30 68 H 36.408977 28.453555 53.802576 0
M  V30 69 H 40.157056 32.934642 62.381823 0
M  V30 70 H 40.892559 32.538718 60.753285 0
M  V30 71 H 35.381780 33.025954 60.883262 0
M  V30 72 H 35.244712 34.539536 61.648433 0
M  V30 73 H 37.526945 33.616462 61.728943 0
M  V30 74 H 38.644065 38.308070 61.302353 0
M  V30 75 H 37.646202 38.151041 59.885805 0
M  V30 76 H 39.980691 25.165951 54.168081 0
M  V30 77 H 39.236075 25.172750 55.748097 0
M  V30 78 H 38.488273 24.270006 54.563603 0
M  V30 79 H 40.438090 28.197187 58.549603 0
M  V30 80 H 39.671492 36.498962 61.833334 0
M  V30 81 H 39.108683 35.086580 62.681275 0
M  V30 82 H 37.821707 26.172877 53.227433 0
M  V30 83 H 38.736964 28.732335 52.267864 0
M  V30 END ATOM
M  V30 BEGIN BOND
M  V30 1 1 2 1
M  V30 2 1 7 6
M  V30 3 2 8 6
M  V30 4 1 10 4
M  V30 5 1 11 3
M  V30 6 1 15 6
M  V30 7 1 15 14
M  V30 8 1 18 17
M  V30 9 1 19 12
M  V30 10 1 20 9
M  V30 11 1 22 1
M  V30 12 1 22 13
M  V30 13 1 23 20
M  V30 14 1 26 4
M  V30 15 1 26 10
M  V30 16 1 27 21
M  V30 17 1 28 14
M  V30 18 1 28 19
M  V30 19 1 28 27
M  V30 20 2 29 5
M  V30 21 1 29 12
M  V30 22 1 29 22
M  V30 23 1 30 15
M  V30 24 1 32 13
M  V30 25 1 32 17
M  V30 26 1 32 20
M  V30 27 1 34 4
M  V30 28 1 34 14
M  V30 29 1 35 16
M  V30 30 1 35 25
M  V30 31 1 35 31
M  V30 32 1 36 30
M  V30 33 2 36 33
M  V30 34 1 37 3
M  V30 35 1 37 16
M  V30 36 1 37 24
M  V30 37 1 38 36
M  V30 38 1 39 11
M  V30 39 1 39 16
M  V30 40 1 39 17
M  V30 41 1 40 1
M  V30 42 1 41 1
M  V30 43 1 42 2
M  V30 44 1 43 3
M  V30 45 1 44 3
M  V30 46 1 45 4
M  V30 47 1 46 7
M  V30 48 1 47 7
M  V30 49 1 48 9
M  V30 50 1 49 10
M  V30 51 1 50 10
M  V30 52 1 51 11
M  V30 53 1 52 11
M  V30 54 1 53 12
M  V30 55 1 54 12
M  V30 56 1 55 13
M  V30 57 1 56 13
M  V30 58 1 14 57 CFG=3
M  V30 59 1 15 58 CFG=3
M  V30 60 1 16 59 CFG=3
M  V30 61 1 17 60 CFG=3
M  V30 62 1 61 18
M  V30 63 1 62 18
M  V30 64 1 63 18
M  V30 65 1 64 19
M  V30 66 1 65 19
M  V30 67 1 66 21
M  V30 68 1 67 23
M  V30 69 1 68 24
M  V30 70 1 69 26
M  V30 71 1 70 26
M  V30 72 1 71 27
M  V30 73 1 72 27
M  V30 74 1 28 73 CFG=1
M  V30 75 1 74 30
M  V30 76 1 75 30
M  V30 77 1 76 31
M  V30 78 1 77 31
M  V30 79 1 78 31
M  V30 80 1 32 79 CFG=1
M  V30 81 1 80 34
M  V30 82 1 81 34
M  V30 83 1 35 82 CFG=3
M  V30 84 1 37 83 CFG=3
M  V30 END BOND
M  V30 END CTAB
M  END
>  <i_epik_Tot_Q>  (1) 
0

>  <i_epik_Tot_abs_Q>  (1) 
2

>  <i_i_glide_confnum>  (1) 
8005

>  <i_i_glide_lignum>  (1) 
214

>  <i_i_glide_posenum>  (1) 
164

>  <i_i_glide_rotatable_bonds>  (1) 
24

>  <i_lp_mmshare_version>  (1) 
72125

>  <i_m_source_file_index>  (1) 
94

>  <i_f3d_flags>  (1) 
0

>  <num_sample>  (1) 
100

>  <b_lp_Chiralities_Consistent>  (1) 
1

>  <r_epik_Charging_Adjusted_Penalty>  (1) 
0.37121505818338452

>  <r_epik_Ionization_Penalty>  (1) 
0.37121789513022985

>  <r_epik_Ionization_Penalty_Charging>  (1) 
0.00098257200063165957

>  <r_epik_Ionization_Penalty_Neutral>  (1) 
0.37023532312959817

>  <r_epik_State_Penalty>  (1) 
0.37023248618275284

>  <r_glide_ring_energy>  (1) 
0

>  <r_i_docking_score>  (1) 
-5.8962692637792902

>  <r_i_glide_ecoul>  (1) 
-5.1518618256362867

>  <r_i_glide_eff_state_penalty>  (1) 
0.37023248618275284

>  <r_i_glide_einternal>  (1) 
14.330103686519223

>  <r_i_glide_emodel>  (1) 
-39.339453460120801

>  <r_i_glide_emodel_strain>  (1) 
4.918013268347849

>  <r_i_glide_energy>  (1) 
-27.429920006512063

>  <r_i_glide_erotb>  (1) 
0.82577533054746977

>  <r_i_glide_esite>  (1) 
-0.0028332539394354747

>  <r_i_glide_evdw>  (1) 
-22.278058180875774

>  <r_i_glide_gscore>  (1) 
-6.2665017499620435

>  <r_i_glide_gscore_strain>  (1) 
0.22950331708696226

>  <r_i_glide_hbond>  (1) 
-0.38696814787720729

>  <r_i_glide_ligand_efficiency>  (1) 
-0.15118639137895615

>  <r_i_glide_ligand_efficiency_ln>  (1) 
-1.2643275057107233

>  <r_i_glide_ligand_efficiency_sa>  (1) 
-0.51270502047233457

>  <r_i_glide_lipo>  (1) 
-3.5255277727407979

>  <r_i_glide_metal>  (1) 
-0

>  <r_i_glide_rewards>  (1) 
-1.5197690401498021

>  <r_lp_Energy>  (1) 
19.498639999999998

>  <s_epik_Chemistry_Notes>  (1) 
This compound contains an acetal/aminal-like group ( X-CH(R)-Y where X, Y are N, S, or O) that may be acid/base labile, releasing an aldehyde.

>  <s_epik_cmdline>  (1) 
J2VwaWtfcHl0aG9uJywgJy1waHQnLCAnMS4wJywgJy1waCcsICc3LjQnLCAnLXRuJywgJzgnLCAnLW1hJywgJzUwMCcsICctaW1hZScsICc8aW5maWxlLm1hZT4nLCAnLW9tYWUnLCAnPG91dGZpbGUubWFlPic=

>  <s_epik_input>  (1) 
W0NIMl0xW0NIMl1bQ0hdMVtDSDJdW0NAQEhdKFtDQEBIXShDKD1PKVtOSDJdKVtDSDJdQyg9TylbT0hdKVtDQEBIXShbQ0gyXVtPSF0pW0NIMl1bQ0gyXUMoPU8pTihbQ0gyXVtPSF0pW0NIMl1bQ0BASF0oW1MrXShbT0hdKVtPSF0pW0NASF0oW0NIM10pTjJbQ0gyXVtDSDJdW0NASF0oW09IXSlbQ0BASF0yW0NASF0oRilbQ0gzXQ==

>  <s_glide_docking_method>  (1) 
confgen

>  <s_i_glide_gridfile>  (1) 
gpcr_5ht2c_6bqh_protein_autoprepared_prepared

>  <s_lp_Force_Field>  (1) 
S-OPLS

>  <s_lp_Variant>  (1) 
DiffSBDD_93-2

>  <s_m_source_file>  (1) 
generated_GPCR_5HT2C_ligand_DiffSBDD_2026-06-23_prepared.sdf

>  <GenAI_Model>  (1) 
DiffSBDD

>  <Protein>  (1) 
GPCR_5HT2C

$$$$
DiffSBDD_39
     RDKit          3D

  0  0  0  0  0  0  0  0  0  0999 V3000
M  V30 BEGIN CTAB
M  V30 COUNTS 44 46 0 0 1
M  V30 BEGIN ATOM
M  V30 1 C 39.209089 28.002040 51.980412 0
M  V30 2 C 35.390158 32.374916 61.075636 0
M  V30 3 C 37.218997 30.018350 58.062362 0
M  V30 4 O 36.445355 31.738433 61.707534 0
M  V30 5 O 39.644658 27.125729 51.242865 0
M  V30 6 C 38.203051 32.788443 60.620748 0 CFG=2
M  V30 7 C 38.805665 32.600072 56.746576 0
M  V30 8 C 39.645254 30.357922 52.905410 0
M  V30 9 O 38.650194 33.737557 59.682857 0
M  V30 10 C 39.398910 29.487885 51.652570 0 CFG=1
M  V30 11 N 37.774879 31.513952 59.947998 0
M  V30 12 O 37.045394 27.737715 52.967780 0
M  V30 13 C 37.641188 31.427344 58.505569 0 CFG=1
M  V30 14 C 38.681703 30.060772 54.060418 0 CFG=1
M  V30 15 C 38.739809 28.575922 54.438706 0
M  V30 16 O 38.845148 31.709547 57.865781 0
M  V30 17 C 36.793127 32.424979 60.469540 0 CFG=2
M  V30 18 O 39.094710 30.802713 55.194947 0
M  V30 19 C 40.478674 29.741724 50.587154 0
M  V30 20 C 38.422383 27.653731 53.249926 0 CFG=2
M  V30 21 C 38.289176 31.937464 55.465747 0
M  V30 22 H 35.007929 33.265357 61.571100 0
M  V30 23 H 34.672310 31.737668 60.567908 0
M  V30 24 H 36.266697 29.760254 58.526332 0
M  V30 25 H 37.093083 29.965057 56.983630 0
M  V30 26 H 37.971223 29.289244 58.364666 0
M  V30 27 H 38.694333 32.782133 61.591815 0
M  V30 28 H 39.826353 32.937690 56.567629 0
M  V30 29 H 38.223156 33.494089 56.973536 0
M  V30 30 H 40.662507 30.211335 53.260638 0
M  V30 31 H 39.577300 31.411928 52.636931 0
M  V30 32 H 38.752933 33.275733 58.860223 0
M  V30 33 H 38.445110 29.737748 51.201992 0
M  V30 34 H 36.845067 27.086726 52.301945 0
M  V30 35 H 36.893950 32.148759 58.167773 0
M  V30 36 H 37.659798 30.308859 53.767731 0
M  V30 37 H 38.041497 28.379678 55.253384 0
M  V30 38 H 39.725596 28.334331 54.834622 0
M  V30 39 H 40.295035 29.164939 49.679937 0
M  V30 40 H 40.503649 30.793946 50.300598 0
M  V30 41 H 41.466672 29.480631 50.967772 0
M  V30 42 H 38.644947 26.622242 53.525713 0
M  V30 43 H 38.345461 32.639066 54.632306 0
M  V30 44 H 37.245126 31.656775 55.573257 0
M  V30 END ATOM
M  V30 BEGIN BOND
M  V30 1 1 4 2
M  V30 2 2 5 1
M  V30 3 1 9 6
M  V30 4 1 10 1
M  V30 5 1 10 8
M  V30 6 1 11 6
M  V30 7 1 13 3
M  V30 8 1 13 11
M  V30 9 1 14 8
M  V30 10 1 15 14
M  V30 11 1 16 7
M  V30 12 1 16 13
M  V30 13 1 17 2
M  V30 14 1 17 4 CFG=1
M  V30 15 1 17 6
M  V30 16 1 17 11
M  V30 17 1 18 14
M  V30 18 1 19 10
M  V30 19 1 20 1
M  V30 20 1 20 12
M  V30 21 1 20 15
M  V30 22 1 21 7
M  V30 23 1 21 18
M  V30 24 1 22 2
M  V30 25 1 23 2
M  V30 26 1 24 3
M  V30 27 1 25 3
M  V30 28 1 26 3
M  V30 29 1 6 27 CFG=1
M  V30 30 1 28 7
M  V30 31 1 29 7
M  V30 32 1 30 8
M  V30 33 1 31 8
M  V30 34 1 32 9
M  V30 35 1 10 33 CFG=3
M  V30 36 1 34 12
M  V30 37 1 13 35 CFG=3
M  V30 38 1 14 36 CFG=3
M  V30 39 1 37 15
M  V30 40 1 38 15
M  V30 41 1 39 19
M  V30 42 1 40 19
M  V30 43 1 41 19
M  V30 44 1 20 42 CFG=1
M  V30 45 1 43 21
M  V30 46 1 44 21
M  V30 END BOND
M  V30 END CTAB
M  END
>  <i_epik_Tot_Q>  (1) 
0

>  <i_epik_Tot_abs_Q>  (1) 
0

>  <i_i_glide_confnum>  (1) 
71

>  <i_i_glide_lignum>  (1) 
87

>  <i_i_glide_posenum>  (1) 
81

>  <i_i_glide_rotatable_bonds>  (1) 
8

>  <i_lp_mmshare_version>  (1) 
72125

>  <i_m_source_file_index>  (1) 
40

>  <i_f3d_flags>  (1) 
0

>  <num_sample>  (1) 
100

>  <b_lp_Chiralities_Consistent>  (1) 
1

>  <r_epik_Charging_Adjusted_Penalty>  (1) 
0

>  <r_epik_Ionization_Penalty>  (1) 
7.7229051731594394e-07

>  <r_epik_Ionization_Penalty_Charging>  (1) 
0

>  <r_epik_Ionization_Penalty_Neutral>  (1) 
7.7229051731594394e-07

>  <r_epik_State_Penalty>  (1) 
-0

>  <r_glide_ring_energy>  (1) 
0

>  <r_i_docking_score>  (1) 
-5.8853703435801252

>  <r_i_glide_ecoul>  (1) 
-8.7396297086963308

>  <r_i_glide_eff_state_penalty>  (1) 
-0

>  <r_i_glide_einternal>  (1) 
7.1829958912533414

>  <r_i_glide_emodel>  (1) 
-46.954725120036422

>  <r_i_glide_emodel_strain>  (1) 
0.59429541254610285

>  <r_i_glide_energy>  (1) 
-37.463558861333624

>  <r_i_glide_erotb>  (1) 
1.2154630782883253

>  <r_i_glide_esite>  (1) 
-0.12660857923071517

>  <r_i_glide_evdw>  (1) 
-28.723929152637297

>  <r_i_glide_gscore>  (1) 
-5.8853703435801252

>  <r_i_glide_gscore_strain>  (1) 
0

>  <r_i_glide_hbond>  (1) 
-0.60799999999999998

>  <r_i_glide_ligand_efficiency>  (1) 
-0.28025573064667264

>  <r_i_glide_ligand_efficiency_ln>  (1) 
-1.4551459249396272

>  <r_i_glide_ligand_efficiency_sa>  (1) 
-0.7732043108504606

>  <r_i_glide_lipo>  (1) 
-1.7206957051198724

>  <r_i_glide_metal>  (1) 
-0

>  <r_i_glide_rewards>  (1) 
-1.8983882235815484

>  <r_lp_Energy>  (1) 
17.348379999999999

>  <r_lp_tautomer_probability>  (1) 
1

>  <s_epik_Chemistry_Notes>  (1) 
This compound contains an acetal/aminal-like group ( X-CH(R)-Y where X, Y are N, S, or O) that may be acid/base labile, releasing an aldehyde.

>  <s_epik_cmdline>  (1) 
J2VwaWtfcHl0aG9uJywgJy1waHQnLCAnMS4wJywgJy1waCcsICc3LjQnLCAnLXRuJywgJzgnLCAnLW1hJywgJzUwMCcsICctaW1hZScsICc8aW5maWxlLm1hZT4nLCAnLW9tYWUnLCAnPG91dGZpbGUubWFlPic=

>  <s_epik_input>  (1) 
Tz1DMVtDQEBIXShbQ0gzXSlbQ0gyXVtDQEBIXShbQ0gyXVtDQEhdMVtPSF0pT1tDSDJdW0NIMl1PW0NAQEhdKFtDSDNdKU4yW0NAQEhdKFtPSF0pQzIzW0NIMl1PMw==

>  <s_glide_docking_method>  (1) 
confgen

>  <s_i_glide_gridfile>  (1) 
gpcr_5ht2c_6bqh_protein_autoprepared_prepared

>  <s_lp_Force_Field>  (1) 
S-OPLS

>  <s_lp_Variant>  (1) 
DiffSBDD_39-2

>  <s_m_source_file>  (1) 
generated_GPCR_5HT2C_ligand_DiffSBDD_2026-06-23_prepared.sdf

>  <GenAI_Model>  (1) 
DiffSBDD

>  <Protein>  (1) 
GPCR_5HT2C

$$$$
DiffSBDD_18
     RDKit          3D

  0  0  0  0  0  0  0  0  0  0999 V3000
M  V30 BEGIN CTAB
M  V30 COUNTS 77 79 0 0 1
M  V30 BEGIN ATOM
M  V30 1 C 38.075680 26.629266 56.972178 0
M  V30 2 C 41.182793 29.630478 65.508409 0 CFG=2
M  V30 3 C 38.849824 31.377759 53.999072 0
M  V30 4 C 39.056471 29.980039 54.046015 0
M  V30 5 C 38.765560 31.430448 56.435221 0
M  V30 6 O 40.845384 32.663385 65.500393 0
M  V30 7 C 41.334466 27.881988 57.705034 0
M  V30 8 C 44.627777 30.810204 65.560782 0
M  V30 9 C 39.858862 29.538063 62.289090 0
M  V30 10 C 39.617266 29.673776 51.618064 0
M  V30 11 C 41.765093 32.761395 66.342902 0
M  V30 12 C 38.709674 32.096685 55.197481 0
M  V30 13 C 40.720837 28.293716 60.069804 0
M  V30 14 C 43.560810 30.219608 65.081330 0
M  V30 15 C 44.655111 31.498115 66.914910 0
M  V30 16 C 42.866731 27.921332 57.799371 0
M  V30 17 C 37.906025 27.606282 58.143727 0
M  V30 18 C 41.146735 28.801322 62.546318 0 CFG=2
M  V30 19 C 41.224366 30.250514 66.947295 0
M  V30 20 C 40.817485 28.142511 65.687095 0
M  V30 21 C 43.420233 31.359926 67.845956 0
M  V30 22 C 39.648802 28.768430 50.429309 0
M  V30 23 C 42.427271 29.754471 64.616345 0
M  V30 24 C 38.192399 30.289912 59.404581 0
M  V30 25 C 41.961560 31.577500 67.317384 0 CFG=1
M  V30 26 N 40.045840 30.937671 51.474627 0 CHG=1
M  V30 27 C 39.098298 29.309471 55.281039 0
M  V30 28 P 38.991310 29.154242 58.142347 0 CFG=2 CHG=1
M  V30 29 N 42.275905 29.342758 63.296719 0
M  V30 30 O 42.534568 33.738461 66.472115 0 CHG=-1
M  V30 31 C 40.835607 29.354532 61.153876 0 CFG=2
M  V30 32 C 38.953397 30.029525 56.491743 0
M  V30 33 N 40.642144 28.788830 58.664117 0 CFG=2 CHG=1
M  V30 34 N 39.184629 29.165046 52.816780 0
M  V30 35 H 37.538702 25.703226 57.182064 0
M  V30 36 H 37.644741 27.025124 56.053970 0
M  V30 37 H 39.112848 26.359930 56.786560 0
M  V30 38 H 40.365753 30.124848 64.983109 0
M  V30 39 H 38.771128 31.904152 53.070417 0
M  V30 40 H 38.649652 31.996115 57.348118 0
M  V30 41 H 40.992476 26.856325 57.843784 0
M  V30 42 H 41.082611 28.162284 56.684857 0
M  V30 43 H 45.525657 30.893677 64.967656 0
M  V30 44 H 38.939517 28.962769 62.228501 0
M  V30 45 H 39.755022 30.535838 62.711430 0
M  V30 46 H 38.546639 33.164773 55.168723 0
M  V30 47 H 41.645076 27.737667 60.175603 0
M  V30 48 H 39.917696 27.597075 60.303130 0
M  V30 49 H 45.537588 31.140149 67.445906 0
M  V30 50 H 44.841836 32.555358 66.724292 0
M  V30 51 H 43.310547 27.377104 56.967821 0
M  V30 52 H 43.257667 28.937715 57.771110 0
M  V30 53 H 43.237035 27.428791 58.695836 0
M  V30 54 H 38.085660 27.051603 59.060404 0
M  V30 55 H 36.864303 27.925640 58.167680 0
M  V30 56 H 41.087125 27.725845 62.677248 0
M  V30 57 H 40.182284 30.378467 67.245438 0
M  V30 58 H 41.590371 29.485881 67.632743 0
M  V30 59 H 40.445187 27.677230 64.779249 0
M  V30 60 H 41.679204 27.567107 66.026355 0
M  V30 61 H 40.045163 28.028265 66.443154 0
M  V30 62 H 43.576109 32.061315 68.666564 0
M  V30 63 H 43.478544 30.381486 68.322259 0
M  V30 64 H 40.444586 28.032299 50.539200 0
M  V30 65 H 38.702723 28.236358 50.335098 0
M  V30 66 H 39.814690 29.328446 49.507470 0
M  V30 67 H 37.330532 30.803757 58.977807 0
M  V30 68 H 37.828598 29.737441 60.268174 0
M  V30 69 H 38.884614 31.052495 59.759536 0
M  V30 70 H 41.424189 31.919738 68.202946 0
M  V30 71 H 40.363702 31.265237 50.570405 0
M  V30 72 H 39.244775 28.243368 55.301363 0
M  V30 73 H 43.160138 29.240686 62.815689 0
M  V30 74 H 41.245117 30.305697 60.829022 0
M  V30 75 H 39.078227 28.161124 52.866144 0
M  V30 76 H 40.069564 31.562344 52.268177 0
M  V30 77 H 41.154303 29.657842 58.632609 0
M  V30 END ATOM
M  V30 BEGIN BOND
M  V30 1 1 4 3
M  V30 2 2 11 6
M  V30 3 2 12 3
M  V30 4 1 12 5
M  V30 5 2 14 8
M  V30 6 1 15 8
M  V30 7 1 16 7
M  V30 8 1 17 1
M  V30 9 1 18 9
M  V30 10 1 19 2
M  V30 11 1 20 2
M  V30 12 1 21 15
M  V30 13 1 22 10
M  V30 14 1 23 2
M  V30 15 2 23 14
M  V30 16 1 25 11
M  V30 17 1 25 19
M  V30 18 1 25 21
M  V30 19 2 26 10
M  V30 20 2 27 4
M  V30 21 1 28 17 CFG=3
M  V30 22 1 28 24
M  V30 23 1 29 18
M  V30 24 1 29 23
M  V30 25 1 30 11
M  V30 26 1 31 9
M  V30 27 1 31 13
M  V30 28 1 31 18
M  V30 29 2 32 5
M  V30 30 1 32 27
M  V30 31 1 32 28
M  V30 32 1 33 7
M  V30 33 1 33 13
M  V30 34 1 33 28
M  V30 35 1 34 4
M  V30 36 1 34 10
M  V30 37 1 35 1
M  V30 38 1 36 1
M  V30 39 1 37 1
M  V30 40 1 2 38 CFG=3
M  V30 41 1 39 3
M  V30 42 1 40 5
M  V30 43 1 41 7
M  V30 44 1 42 7
M  V30 45 1 43 8
M  V30 46 1 44 9
M  V30 47 1 45 9
M  V30 48 1 46 12
M  V30 49 1 47 13
M  V30 50 1 48 13
M  V30 51 1 49 15
M  V30 52 1 50 15
M  V30 53 1 51 16
M  V30 54 1 52 16
M  V30 55 1 53 16
M  V30 56 1 54 17
M  V30 57 1 55 17
M  V30 58 1 18 56 CFG=3
M  V30 59 1 57 19
M  V30 60 1 58 19
M  V30 61 1 59 20
M  V30 62 1 60 20
M  V30 63 1 61 20
M  V30 64 1 62 21
M  V30 65 1 63 21
M  V30 66 1 64 22
M  V30 67 1 65 22
M  V30 68 1 66 22
M  V30 69 1 67 24
M  V30 70 1 68 24
M  V30 71 1 69 24
M  V30 72 1 25 70 CFG=1
M  V30 73 1 71 26
M  V30 74 1 72 27
M  V30 75 1 73 29
M  V30 76 1 31 74 CFG=3
M  V30 77 1 75 34
M  V30 78 1 76 26
M  V30 79 1 33 77 CFG=1
M  V30 END BOND
M  V30 END CTAB
M  END
>  <i_epik_Tot_Q>  (1) 
2

>  <i_epik_Tot_abs_Q>  (1) 
4

>  <i_i_glide_confnum>  (1) 
212

>  <i_i_glide_lignum>  (1) 
43

>  <i_i_glide_posenum>  (1) 
212

>  <i_i_glide_rotatable_bonds>  (1) 
11

>  <i_lp_mmshare_version>  (1) 
72125

>  <i_m_source_file_index>  (1) 
19

>  <i_f3d_flags>  (1) 
0

>  <num_sample>  (1) 
100

>  <b_lp_Chiralities_Consistent>  (1) 
1

>  <r_epik_Charging_Adjusted_Penalty>  (1) 
0.035732071636325656

>  <r_epik_Ionization_Penalty>  (1) 
0.019213783482484162

>  <r_epik_Ionization_Penalty_Charging>  (1) 
0.019186760244236628

>  <r_epik_Ionization_Penalty_Neutral>  (1) 
2.7023238247534635e-05

>  <r_epik_State_Penalty>  (1) 
0.016545311392089028

>  <r_glide_ring_energy>  (1) 
0

>  <r_i_docking_score>  (1) 
-5.8842176596192344

>  <r_i_glide_ecoul>  (1) 
-3.6880254970329207

>  <r_i_glide_eff_state_penalty>  (1) 
0.016545311392089028

>  <r_i_glide_einternal>  (1) 
3.8261280575591989

>  <r_i_glide_emodel>  (1) 
-60.026510596649686

>  <r_i_glide_emodel_strain>  (1) 
1.5462006695505721

>  <r_i_glide_energy>  (1) 
-43.355710929890968

>  <r_i_glide_erotb>  (1) 
0.68654883804919686

>  <r_i_glide_esite>  (1) 
0

>  <r_i_glide_evdw>  (1) 
-39.66768543285805

>  <r_i_glide_gscore>  (1) 
-5.9007629710113232

>  <r_i_glide_gscore_strain>  (1) 
0

>  <r_i_glide_hbond>  (1) 
-0.03394565115233749

>  <r_i_glide_ligand_efficiency>  (1) 
-0.17306522528291865

>  <r_i_glide_ligand_efficiency_ln>  (1) 
-1.2999887277247364

>  <r_i_glide_ligand_efficiency_sa>  (1) 
-0.56066414621728966

>  <r_i_glide_lipo>  (1) 
-2.943140978304247

>  <r_i_glide_metal>  (1) 
-0

>  <r_i_glide_rewards>  (1) 
-1.0736370834060951

>  <r_lp_Energy>  (1) 
34.203074999999998

>  <s_epik_Chemistry_Notes>  (1) 
This compound has an imine and may undergo hydrolysis.

>  <s_epik_cmdline>  (1) 
J2VwaWtfcHl0aG9uJywgJy1waHQnLCAnMS4wJywgJy1waCcsICc3LjQnLCAnLXRuJywgJzgnLCAnLW1hJywgJzUwMCcsICctaW1hZScsICc8aW5maWxlLm1hZT4nLCAnLW9tYWUnLCAnPG91dGZpbGUubWFlPic=

>  <s_epik_input>  (1) 
W0hdL049QyhcW0NIM10pW05IXWMxW2NIXVtjSF1bY0hdYyhbY0hdMSlbUEBAK10oW0NIM10pKFtDSDJdW0NIM10pTihbQ0gyXVtDSDNdKVtDSDJdW0NASF0yW0NIMl1bQ0BASF0yW05IXUMzPUM9W0NIXVtDSDJdW0NIMl1bQ0BASF0oQyg9TylbT0hdKVtDSDJdW0NAQEhdM1tDSDNd

>  <s_glide_docking_method>  (1) 
confgen

>  <s_i_glide_gridfile>  (1) 
gpcr_5ht2c_6bqh_protein_autoprepared_prepared

>  <s_lp_Force_Field>  (1) 
S-OPLS

>  <s_lp_Variant>  (1) 
DiffSBDD_18-2

>  <s_m_source_file>  (1) 
generated_GPCR_5HT2C_ligand_DiffSBDD_2026-06-23_prepared.sdf

>  <GenAI_Model>  (1) 
DiffSBDD

>  <Protein>  (1) 
GPCR_5HT2C

$$$$
DiffSBDD_18
     RDKit          3D

  0  0  0  0  0  0  0  0  0  0999 V3000
M  V30 BEGIN CTAB
M  V30 COUNTS 77 79 0 0 1
M  V30 BEGIN ATOM
M  V30 1 C 34.875457 33.100701 61.528022 0
M  V30 2 C 38.041434 28.375477 55.329565 0 CFG=2
M  V30 3 C 38.830381 36.974277 62.874171 0
M  V30 4 C 39.401147 35.703152 62.675932 0
M  V30 5 C 37.118894 36.449987 61.229426 0
M  V30 6 O 36.618080 25.737757 56.118143 0
M  V30 7 C 37.650256 33.181334 57.269489 0
M  V30 8 C 39.047788 26.485051 58.286360 0
M  V30 9 C 39.122022 29.879331 59.501825 0
M  V30 10 C 40.902665 35.766818 64.659382 0
M  V30 11 C 37.413984 25.082746 55.418612 0
M  V30 12 C 37.687588 37.337842 62.148200 0
M  V30 13 C 38.960237 32.475350 59.318571 0
M  V30 14 C 38.587322 27.489116 57.594734 0
M  V30 15 C 39.541098 25.219014 57.638438 0
M  V30 16 C 38.728051 33.337809 56.184393 0
M  V30 17 C 36.012524 32.581301 60.644363 0
M  V30 18 C 37.834135 30.140140 58.725618 0 CFG=2
M  V30 19 C 38.863151 27.228102 54.676704 0
M  V30 20 C 38.490452 29.715932 54.708928 0
M  V30 21 C 39.857801 25.285570 56.128739 0
M  V30 22 C 42.201016 35.375330 65.292180 0
M  V30 23 C 38.061138 28.442144 56.872021 0
M  V30 24 C 35.556920 34.967835 58.946092 0
M  V30 25 C 38.784172 25.725619 55.105954 0 CFG=1
M  V30 26 N 40.045137 36.536069 65.360337 0 CHG=1
M  V30 27 C 38.843907 34.807466 61.743200 0
M  V30 28 P 36.887592 34.015802 59.783499 0 CFG=1 CHG=1
M  V30 29 N 37.496947 29.573321 57.427815 0
M  V30 30 O 37.210941 23.935440 54.967769 0 CHG=-1
M  V30 31 C 38.974488 31.113688 58.660054 0 CFG=2
M  V30 32 C 37.680605 35.174554 61.013846 0
M  V30 33 N 38.108165 33.484117 58.655582 0 CFG=2 CHG=1
M  V30 34 N 40.610767 35.291847 63.405133 0
M  V30 35 H 34.482374 32.311821 62.167760 0
M  V30 36 H 35.197712 33.922649 62.167915 0
M  V30 37 H 34.045148 33.446888 60.915041 0
M  V30 38 H 37.025847 28.227014 54.967760 0
M  V30 39 H 39.271279 37.685094 63.548688 0
M  V30 40 H 36.243518 36.753520 60.679495 0
M  V30 41 H 37.245141 32.184871 57.217122 0
M  V30 42 H 36.845164 33.835444 56.982065 0
M  V30 43 H 39.056725 26.512760 59.366011 0
M  V30 44 H 39.063119 29.978659 60.583983 0
M  V30 45 H 39.872970 29.174572 59.154617 0
M  V30 46 H 37.245126 38.311269 62.286842 0
M  V30 47 H 38.684079 32.303297 60.354747 0
M  V30 48 H 39.949156 32.937739 59.367756 0
M  V30 49 H 40.445730 24.937737 58.167767 0
M  V30 50 H 38.805039 24.435383 57.816649 0
M  V30 51 H 38.419159 32.812529 55.280160 0
M  V30 52 H 38.845126 34.377750 55.885243 0
M  V30 53 H 39.698001 32.937912 56.476099 0
M  V30 54 H 35.588230 31.900407 59.907016 0
M  V30 55 H 36.702958 32.006216 61.259223 0
M  V30 56 H 36.945212 30.374915 59.299576 0
M  V30 57 H 38.639439 27.256268 53.609099 0
M  V30 58 H 39.912024 27.515960 54.733464 0
M  V30 59 H 37.809906 30.529127 54.961065 0
M  V30 60 H 39.490004 29.992915 55.047806 0
M  V30 61 H 38.517237 29.657050 53.620242 0
M  V30 62 H 40.045133 24.257664 55.870047 0
M  V30 63 H 40.791300 25.824943 55.963629 0
M  V30 64 H 42.184692 34.327152 65.592893 0
M  V30 65 H 43.016304 35.524357 64.585494 0
M  V30 66 H 42.413092 35.988174 66.169223 0
M  V30 67 H 34.845134 35.212935 59.704368 0
M  V30 68 H 35.924040 35.917140 58.567763 0
M  V30 69 H 35.033330 34.414839 58.167809 0
M  V30 70 H 39.102286 25.242316 54.188280 0
M  V30 71 H 40.299087 36.864575 66.282334 0
M  V30 72 H 39.295794 33.842948 61.599397 0
M  V30 73 H 36.988219 30.193566 56.806795 0
M  V30 74 H 39.520304 31.081460 57.718979 0
M  V30 75 H 41.178760 34.529619 63.061931 0
M  V30 76 H 39.148949 36.783611 64.969376 0
M  V30 77 H 38.694709 34.296140 58.537781 0
M  V30 END ATOM
M  V30 BEGIN BOND
M  V30 1 1 4 3
M  V30 2 2 11 6
M  V30 3 2 12 3
M  V30 4 1 12 5
M  V30 5 2 14 8
M  V30 6 1 15 8
M  V30 7 1 16 7
M  V30 8 1 17 1
M  V30 9 1 18 9
M  V30 10 1 19 2
M  V30 11 1 20 2
M  V30 12 1 21 15
M  V30 13 1 22 10
M  V30 14 1 23 2
M  V30 15 2 23 14
M  V30 16 1 25 11
M  V30 17 1 25 19
M  V30 18 1 25 21
M  V30 19 2 26 10
M  V30 20 2 27 4
M  V30 21 1 28 17 CFG=1
M  V30 22 1 28 24
M  V30 23 1 29 18
M  V30 24 1 29 23
M  V30 25 1 30 11
M  V30 26 1 31 9
M  V30 27 1 31 13
M  V30 28 1 31 18
M  V30 29 2 32 5
M  V30 30 1 32 27
M  V30 31 1 32 28
M  V30 32 1 33 7
M  V30 33 1 33 13
M  V30 34 1 33 28
M  V30 35 1 34 4
M  V30 36 1 34 10
M  V30 37 1 35 1
M  V30 38 1 36 1
M  V30 39 1 37 1
M  V30 40 1 2 38 CFG=3
M  V30 41 1 39 3
M  V30 42 1 40 5
M  V30 43 1 41 7
M  V30 44 1 42 7
M  V30 45 1 43 8
M  V30 46 1 44 9
M  V30 47 1 45 9
M  V30 48 1 46 12
M  V30 49 1 47 13
M  V30 50 1 48 13
M  V30 51 1 49 15
M  V30 52 1 50 15
M  V30 53 1 51 16
M  V30 54 1 52 16
M  V30 55 1 53 16
M  V30 56 1 54 17
M  V30 57 1 55 17
M  V30 58 1 18 56 CFG=1
M  V30 59 1 57 19
M  V30 60 1 58 19
M  V30 61 1 59 20
M  V30 62 1 60 20
M  V30 63 1 61 20
M  V30 64 1 62 21
M  V30 65 1 63 21
M  V30 66 1 64 22
M  V30 67 1 65 22
M  V30 68 1 66 22
M  V30 69 1 67 24
M  V30 70 1 68 24
M  V30 71 1 69 24
M  V30 72 1 25 70 CFG=3
M  V30 73 1 71 26
M  V30 74 1 72 27
M  V30 75 1 73 29
M  V30 76 1 31 74 CFG=3
M  V30 77 1 75 34
M  V30 78 1 76 26
M  V30 79 1 33 77 CFG=3
M  V30 END BOND
M  V30 END CTAB
M  END
>  <i_epik_Tot_Q>  (1) 
2

>  <i_epik_Tot_abs_Q>  (1) 
4

>  <i_i_glide_confnum>  (1) 
704

>  <i_i_glide_lignum>  (1) 
45

>  <i_i_glide_posenum>  (1) 
260

>  <i_i_glide_rotatable_bonds>  (1) 
11

>  <i_lp_mmshare_version>  (1) 
72125

>  <i_m_source_file_index>  (1) 
19

>  <i_f3d_flags>  (1) 
0

>  <num_sample>  (1) 
100

>  <b_lp_Chiralities_Consistent>  (1) 
1

>  <r_epik_Charging_Adjusted_Penalty>  (1) 
0.035732071636325656

>  <r_epik_Ionization_Penalty>  (1) 
0.019213783482484162

>  <r_epik_Ionization_Penalty_Charging>  (1) 
0.019186760244236628

>  <r_epik_Ionization_Penalty_Neutral>  (1) 
2.7023238247534635e-05

>  <r_epik_State_Penalty>  (1) 
0.016545311392089028

>  <r_glide_ring_energy>  (1) 
0

>  <r_i_docking_score>  (1) 
-5.8815956610605911

>  <r_i_glide_ecoul>  (1) 
-3.2504457345531108

>  <r_i_glide_eff_state_penalty>  (1) 
0.016545311392089028

>  <r_i_glide_einternal>  (1) 
22.235795369189908

>  <r_i_glide_emodel>  (1) 
-37.648605051509023

>  <r_i_glide_emodel_strain>  (1) 
1.8056275141327376

>  <r_i_glide_energy>  (1) 
-32.26393288175511

>  <r_i_glide_erotb>  (1) 
0.68654883804919686

>  <r_i_glide_esite>  (1) 
-0.1735970800250517

>  <r_i_glide_evdw>  (1) 
-29.013487147201996

>  <r_i_glide_gscore>  (1) 
-5.8981409724526799

>  <r_i_glide_gscore_strain>  (1) 
0

>  <r_i_glide_hbond>  (1) 
-0.037472203154032852

>  <r_i_glide_ligand_efficiency>  (1) 
-0.17298810767825268

>  <r_i_glide_ligand_efficiency_ln>  (1) 
-1.2994094546985637

>  <r_i_glide_ligand_efficiency_sa>  (1) 
-0.56041431511512751

>  <r_i_glide_lipo>  (1) 
-3.516926627096526

>  <r_i_glide_metal>  (1) 
-0

>  <r_i_glide_rewards>  (1) 
-0.91845268268319935

>  <r_lp_Energy>  (1) 
40.287763999999996

>  <s_epik_Chemistry_Notes>  (1) 
This compound has an imine and may undergo hydrolysis.

>  <s_epik_cmdline>  (1) 
J2VwaWtfcHl0aG9uJywgJy1waHQnLCAnMS4wJywgJy1waCcsICc3LjQnLCAnLXRuJywgJzgnLCAnLW1hJywgJzUwMCcsICctaW1hZScsICc8aW5maWxlLm1hZT4nLCAnLW9tYWUnLCAnPG91dGZpbGUubWFlPic=

>  <s_epik_input>  (1) 
W0hdL049QyhcW0NIM10pW05IXWMxW2NIXVtjSF1bY0hdYyhbY0hdMSlbUEBAK10oW0NIM10pKFtDSDJdW0NIM10pTihbQ0gyXVtDSDNdKVtDSDJdW0NASF0yW0NIMl1bQ0BASF0yW05IXUMzPUM9W0NIXVtDSDJdW0NIMl1bQ0BASF0oQyg9TylbT0hdKVtDSDJdW0NAQEhdM1tDSDNd

>  <s_glide_docking_method>  (1) 
confgen

>  <s_i_glide_gridfile>  (1) 
gpcr_5ht2c_6bqh_protein_autoprepared_prepared

>  <s_lp_Force_Field>  (1) 
S-OPLS

>  <s_lp_Variant>  (1) 
DiffSBDD_18-4

>  <s_m_source_file>  (1) 
generated_GPCR_5HT2C_ligand_DiffSBDD_2026-06-23_prepared.sdf

>  <GenAI_Model>  (1) 
DiffSBDD

>  <Protein>  (1) 
GPCR_5HT2C

$$$$
DiffSBDD_23
     RDKit          3D

  0  0  0  0  0  0  0  0  0  0999 V3000
M  V30 BEGIN CTAB
M  V30 COUNTS 67 69 0 0 1
M  V30 BEGIN ATOM
M  V30 1 C 41.148675 29.608337 64.590894 0
M  V30 2 C 40.763681 29.093944 65.845115 0
M  V30 3 C 40.315618 30.021998 51.132506 0
M  V30 4 O 37.667723 27.624764 57.464235 0 CHG=-1
M  V30 5 C 39.712934 29.796845 66.684518 0
M  V30 6 N 40.564426 30.792082 64.099000 0
M  V30 7 C 40.670917 31.285338 62.726703 0 CFG=1
M  V30 8 C 38.066014 29.520204 59.422632 0 CFG=2
M  V30 9 C 42.130572 28.905225 63.850127 0
M  V30 10 C 38.189521 30.055981 55.742417 0
M  V30 11 C 37.936094 28.071044 54.184260 0
M  V30 12 C 39.279467 31.655292 62.166885 0
M  V30 13 C 41.592473 32.510918 62.680004 0
M  V30 14 C 38.174670 27.427197 52.957759 0
M  V30 15 C 37.348271 32.917922 59.189412 0
M  V30 16 C 42.330479 27.285017 65.490547 0
M  V30 17 C 39.245882 29.987453 53.433216 0
M  V30 18 O 42.445143 32.537779 61.767764 0
M  V30 19 P 38.749846 28.504271 57.960555 0
M  V30 20 N 42.716708 27.762880 64.285103 0
M  V30 21 C 35.555093 33.099500 61.354223 0
M  V30 22 C 37.132663 34.154039 59.828576 0
M  V30 23 O 40.039644 27.902711 58.365218 0
M  V30 24 C 36.240296 34.242528 60.909340 0
M  V30 25 C 41.365552 27.910839 66.301824 0
M  V30 26 C 38.948789 28.058722 51.965456 0
M  V30 27 C 38.469406 29.352071 54.424879 0
M  V30 28 C 39.486112 29.339454 52.201285 0
M  V30 29 C 35.773107 31.857310 60.733416 0
M  V30 30 C 36.873834 30.406303 58.967785 0
M  V30 31 C 39.171399 30.182457 60.273594 0
M  V30 32 O 41.420211 33.403042 63.541189 0 CHG=-1
M  V30 33 C 36.668492 31.755951 59.651896 0
M  V30 34 O 39.076242 29.727737 56.807180 0
M  V30 35 C 38.290659 32.846303 58.000401 0
M  V30 36 O 38.627952 30.556768 61.537764 0
M  V30 37 H 39.763331 30.058388 50.193080 0
M  V30 38 H 40.565559 31.045328 51.414612 0
M  V30 39 H 41.244896 29.476505 50.968051 0
M  V30 40 H 39.616428 29.338033 67.667809 0
M  V30 41 H 39.971478 30.845952 66.827753 0
M  V30 42 H 38.745202 29.737771 66.185694 0
M  V30 43 H 40.098693 31.413140 64.743326 0
M  V30 44 H 41.105540 30.538579 62.070039 0
M  V30 45 H 37.645592 28.782029 60.096801 0
M  V30 46 H 42.460336 29.266251 62.890074 0
M  V30 47 H 37.153694 29.836432 55.990222 0
M  V30 48 H 38.247157 31.131978 55.577307 0
M  V30 49 H 37.338205 27.583790 54.940221 0
M  V30 50 H 38.639546 32.023453 62.967757 0
M  V30 51 H 39.339183 32.479059 61.452458 0
M  V30 52 H 37.759437 26.451053 52.776791 0
M  V30 53 H 42.807987 26.373344 65.817980 0
M  V30 54 H 39.653118 30.971929 53.615318 0
M  V30 55 H 34.857295 33.177162 62.167760 0
M  V30 56 H 37.645473 35.038205 59.481372 0
M  V30 57 H 36.072785 35.192386 61.392453 0
M  V30 58 H 41.091957 27.486907 67.257304 0
M  V30 59 H 39.127812 27.561304 51.023206 0
M  V30 60 H 35.244855 30.982106 61.079555 0
M  V30 61 H 36.916521 30.596778 57.908569 0
M  V30 62 H 35.956522 29.825986 59.076006 0
M  V30 63 H 39.613231 31.033589 59.767351 0
M  V30 64 H 39.981114 29.475184 60.452689 0
M  V30 65 H 39.006295 33.666259 58.029561 0
M  V30 66 H 38.860335 31.924879 57.958627 0
M  V30 67 H 37.715578 32.935470 57.077909 0
M  V30 END ATOM
M  V30 BEGIN BOND
M  V30 1 2 2 1
M  V30 2 1 5 2
M  V30 3 1 6 1
M  V30 4 1 7 6
M  V30 5 1 9 1
M  V30 6 1 12 7
M  V30 7 1 13 7
M  V30 8 1 14 11
M  V30 9 2 18 13
M  V30 10 1 19 4
M  V30 11 1 19 8
M  V30 12 2 20 9
M  V30 13 1 20 16
M  V30 14 2 22 15
M  V30 15 2 23 19
M  V30 16 2 24 21
M  V30 17 1 24 22
M  V30 18 1 25 2
M  V30 19 2 25 16
M  V30 20 2 26 14
M  V30 21 1 27 10
M  V30 22 2 27 11
M  V30 23 1 27 17
M  V30 24 1 28 3
M  V30 25 2 28 17
M  V30 26 1 28 26
M  V30 27 1 29 21
M  V30 28 1 30 8
M  V30 29 1 31 8
M  V30 30 1 32 13
M  V30 31 1 33 15
M  V30 32 2 33 29
M  V30 33 1 33 30
M  V30 34 1 34 10
M  V30 35 1 34 19
M  V30 36 1 35 15
M  V30 37 1 36 12
M  V30 38 1 36 31
M  V30 39 1 37 3
M  V30 40 1 38 3
M  V30 41 1 39 3
M  V30 42 1 40 5
M  V30 43 1 41 5
M  V30 44 1 42 5
M  V30 45 1 43 6
M  V30 46 1 7 44 CFG=3
M  V30 47 1 8 45 CFG=1
M  V30 48 1 46 9
M  V30 49 1 47 10
M  V30 50 1 48 10
M  V30 51 1 49 11
M  V30 52 1 50 12
M  V30 53 1 51 12
M  V30 54 1 52 14
M  V30 55 1 53 16
M  V30 56 1 54 17
M  V30 57 1 55 21
M  V30 58 1 56 22
M  V30 59 1 57 24
M  V30 60 1 58 25
M  V30 61 1 59 26
M  V30 62 1 60 29
M  V30 63 1 61 30
M  V30 64 1 62 30
M  V30 65 1 63 31
M  V30 66 1 64 31
M  V30 67 1 65 35
M  V30 68 1 66 35
M  V30 69 1 67 35
M  V30 END BOND
M  V30 END CTAB
M  END
>  <i_epik_Tot_Q>  (1) 
-2

>  <i_epik_Tot_abs_Q>  (1) 
2

>  <i_i_glide_confnum>  (1) 
3353

>  <i_i_glide_lignum>  (1) 
57

>  <i_i_glide_posenum>  (1) 
218

>  <i_i_glide_rotatable_bonds>  (1) 
13

>  <i_lp_mmshare_version>  (1) 
72125

>  <i_m_source_file_index>  (1) 
24

>  <i_f3d_flags>  (1) 
0

>  <num_sample>  (1) 
100

>  <b_lp_Chiralities_Consistent>  (1) 
1

>  <r_epik_Charging_Adjusted_Penalty>  (1) 
0.24647158034106029

>  <r_epik_Ionization_Penalty>  (1) 
0.24647497421130457

>  <r_epik_Ionization_Penalty_Charging>  (1) 
0.00050661666566131989

>  <r_epik_Ionization_Penalty_Neutral>  (1) 
0.24596835754564325

>  <r_epik_State_Penalty>  (1) 
0.24596496367539897

>  <r_glide_ring_energy>  (1) 
0

>  <r_i_docking_score>  (1) 
-5.8798229616293964

>  <r_i_glide_ecoul>  (1) 
-1.0997658266694266

>  <r_i_glide_eff_state_penalty>  (1) 
0.24596496367539897

>  <r_i_glide_einternal>  (1) 
9.8039831265573021

>  <r_i_glide_emodel>  (1) 
-66.279720452164838

>  <r_i_glide_emodel_strain>  (1) 
2.549233026877026

>  <r_i_glide_energy>  (1) 
-53.523166039568203

>  <r_i_glide_erotb>  (1) 
0.94322731134637816

>  <r_i_glide_esite>  (1) 
0

>  <r_i_glide_evdw>  (1) 
-52.423400212898777

>  <r_i_glide_gscore>  (1) 
-6.1257879253047953

>  <r_i_glide_gscore_strain>  (1) 
0

>  <r_i_glide_hbond>  (1) 
0

>  <r_i_glide_ligand_efficiency>  (1) 
-0.16332841560081657

>  <r_i_glide_ligand_efficiency_ln>  (1) 
-1.282818515769006

>  <r_i_glide_ligand_efficiency_sa>  (1) 
-0.53929854599112259

>  <r_i_glide_lipo>  (1) 
-3.3133172333906478

>  <r_i_glide_metal>  (1) 
-0

>  <r_i_glide_rewards>  (1) 
-0.96956311861517275

>  <r_lp_Energy>  (1) 
45.739263999999999

>  <r_lp_tautomer_probability>  (1) 
0.99999999999999911

>  <s_epik_cmdline>  (1) 
J2VwaWtfcHl0aG9uJywgJy1waHQnLCAnMS4wJywgJy1waCcsICc3LjQnLCAnLXRuJywgJzgnLCAnLW1hJywgJzUwMCcsICctaW1hZScsICc8aW5maWxlLm1hZT4nLCAnLW9tYWUnLCAnPG91dGZpbGUubWFlPic=

>  <s_epik_input>  (1) 
W2NIXTFuW2NIXVtjSF1jKFtDSDNdKWMxW05IXVtDQEhdKEMoPU8pW09IXSlbQ0gyXU9bQ0gyXVtDQEBIXShbQ0gyXWMyW2NIXVtjSF1bY0hdW2NIXWMyW0NIM10pW1BAQF0oPU8pKFtPSF0pT1tDSDJdYzNbY0hdW2NIXVtjSF1jKFtDSDNdKVtjSF0z

>  <s_glide_docking_method>  (1) 
confgen

>  <s_i_glide_gridfile>  (1) 
gpcr_5ht2c_6bqh_protein_autoprepared_prepared

>  <s_lp_Force_Field>  (1) 
S-OPLS

>  <s_lp_Variant>  (1) 
DiffSBDD_23-1

>  <s_m_source_file>  (1) 
generated_GPCR_5HT2C_ligand_DiffSBDD_2026-06-23_prepared.sdf

>  <GenAI_Model>  (1) 
DiffSBDD

>  <Protein>  (1) 
GPCR_5HT2C

$$$$
DiffSBDD_41
     RDKit          3D

  0  0  0  0  0  0  0  0  0  0999 V3000
M  V30 BEGIN CTAB
M  V30 COUNTS 51 52 0 0 1
M  V30 BEGIN ATOM
M  V30 1 C 40.064450 29.802992 61.225371 0
M  V30 2 C 39.266763 28.777338 57.248062 0 CFG=1
M  V30 3 C 40.575282 30.455230 50.645479 0
M  V30 4 C 39.379065 29.932554 54.264646 0
M  V30 5 C 38.847010 27.921744 52.966510 0
M  V30 6 C 39.397078 28.506646 51.813047 0
M  V30 7 C 38.845561 28.620936 54.186315 0
M  V30 8 O 41.630172 32.849517 62.587912 0 CHG=-1
M  V30 9 C 39.317378 30.244757 56.816659 0
M  V30 10 S 40.263715 28.588945 58.770292 0
M  V30 11 N 39.644635 31.304049 49.896265 0 CHG=1
M  V30 12 C 41.640307 30.591897 63.426117 0
M  V30 13 C 41.245849 29.246190 63.286543 0
M  V30 14 C 39.403114 27.733195 50.515980 0
M  V30 15 C 37.832738 28.245811 57.441429 0
M  V30 16 C 41.245209 31.545400 62.462850 0
M  V30 17 C 39.397334 30.721803 55.540689 0
M  V30 18 C 40.460598 28.851328 62.185529 0
M  V30 19 C 38.503463 25.831955 58.168195 0
M  V30 20 C 39.908921 30.523797 53.094954 0
M  V30 21 C 37.644962 26.719563 57.260182 0
M  V30 22 F 42.400643 30.967299 64.483697 0
M  V30 23 C 40.454479 31.150947 61.367695 0
M  V30 24 C 39.939778 29.812636 51.876412 0
M  V30 25 C 39.222382 29.379940 60.041331 0
M  V30 26 H 39.819659 28.176364 56.529091 0
M  V30 27 H 41.406745 31.075302 50.974320 0
M  V30 28 H 41.017825 29.733575 49.965813 0
M  V30 29 H 38.428491 26.926702 52.918969 0
M  V30 30 H 38.418321 28.157140 55.039917 0
M  V30 31 H 39.310226 30.961515 57.622557 0
M  V30 32 H 40.162081 31.811219 49.192702 0
M  V30 33 H 38.921857 30.739936 49.461059 0
M  V30 34 H 41.548147 28.516895 64.022894 0
M  V30 35 H 38.862787 28.304685 49.767483 0
M  V30 36 H 40.418272 27.537013 50.169423 0
M  V30 37 H 38.895777 26.773575 50.621695 0
M  V30 38 H 37.388678 28.569081 58.380390 0
M  V30 39 H 37.245160 28.758110 56.690165 0
M  V30 40 H 39.482477 31.791903 55.416225 0
M  V30 41 H 40.162382 27.818978 62.078542 0
M  V30 42 H 38.172842 24.793920 58.121891 0
M  V30 43 H 39.552138 25.853842 57.870736 0
M  V30 44 H 38.445260 26.158684 59.204950 0
M  V30 45 H 40.319739 31.518070 53.141177 0
M  V30 46 H 36.598042 26.483010 57.447369 0
M  V30 47 H 37.825396 26.429616 56.225853 0
M  V30 48 H 40.151687 31.881849 60.631688 0
M  V30 49 H 38.703245 30.247848 59.636691 0
M  V30 50 H 38.459656 28.675563 60.371532 0
M  V30 51 H 39.222511 31.967968 50.530096 0
M  V30 END ATOM
M  V30 BEGIN BOND
M  V30 1 1 6 5
M  V30 2 1 7 4
M  V30 3 2 7 5
M  V30 4 1 9 2
M  V30 5 1 10 2
M  V30 6 1 11 3
M  V30 7 1 13 12
M  V30 8 1 14 6
M  V30 9 1 15 2
M  V30 10 1 16 8
M  V30 11 2 16 12
M  V30 12 1 17 4
M  V30 13 2 17 9
M  V30 14 1 18 1
M  V30 15 2 18 13
M  V30 16 2 20 4
M  V30 17 1 21 15
M  V30 18 1 21 19
M  V30 19 1 22 12
M  V30 20 2 23 1
M  V30 21 1 23 16
M  V30 22 1 24 3
M  V30 23 2 24 6
M  V30 24 1 24 20
M  V30 25 1 25 1
M  V30 26 1 25 10
M  V30 27 1 2 26 CFG=3
M  V30 28 1 27 3
M  V30 29 1 28 3
M  V30 30 1 29 5
M  V30 31 1 30 7
M  V30 32 1 31 9
M  V30 33 1 32 11
M  V30 34 1 33 11
M  V30 35 1 34 13
M  V30 36 1 35 14
M  V30 37 1 36 14
M  V30 38 1 37 14
M  V30 39 1 38 15
M  V30 40 1 39 15
M  V30 41 1 40 17
M  V30 42 1 41 18
M  V30 43 1 42 19
M  V30 44 1 43 19
M  V30 45 1 44 19
M  V30 46 1 45 20
M  V30 47 1 46 21
M  V30 48 1 47 21
M  V30 49 1 48 23
M  V30 50 1 49 25
M  V30 51 1 50 25
M  V30 52 1 51 11
M  V30 END BOND
M  V30 END CTAB
M  END
>  <i_epik_Tot_Q>  (1) 
0

>  <i_epik_Tot_abs_Q>  (1) 
2

>  <i_i_glide_confnum>  (1) 
26

>  <i_i_glide_lignum>  (1) 
91

>  <i_i_glide_posenum>  (1) 
330

>  <i_i_glide_rotatable_bonds>  (1) 
8

>  <i_lp_mmshare_version>  (1) 
72125

>  <i_m_source_file_index>  (1) 
42

>  <i_f3d_flags>  (1) 
0

>  <num_sample>  (1) 
100

>  <b_lp_Chiralities_Consistent>  (1) 
1

>  <r_epik_Charging_Adjusted_Penalty>  (1) 
2.7167828853708742

>  <r_epik_Ionization_Penalty>  (1) 
1.3565026725465308

>  <r_epik_Ionization_Penalty_Charging>  (1) 
1.3565026725465308

>  <r_epik_Ionization_Penalty_Neutral>  (1) 
0

>  <r_epik_State_Penalty>  (1) 
1.3602802128243434

>  <r_glide_ring_energy>  (1) 
0

>  <r_i_docking_score>  (1) 
-5.8775849400628468

>  <r_i_glide_ecoul>  (1) 
-4.6574450161482837

>  <r_i_glide_eff_state_penalty>  (1) 
1.3602802128243434

>  <r_i_glide_einternal>  (1) 
9.7622186719736472

>  <r_i_glide_emodel>  (1) 
-58.69431857392793

>  <r_i_glide_emodel_strain>  (1) 
0.013314387304262709

>  <r_i_glide_energy>  (1) 
-41.631992349063864

>  <r_i_glide_erotb>  (1) 
0.74153290357203427

>  <r_i_glide_esite>  (1) 
0

>  <r_i_glide_evdw>  (1) 
-36.974547332915584

>  <r_i_glide_gscore>  (1) 
-7.2378651528871902

>  <r_i_glide_gscore_strain>  (1) 
0

>  <r_i_glide_hbond>  (1) 
0

>  <r_i_glide_ligand_efficiency>  (1) 
-0.23510339760251386

>  <r_i_glide_ligand_efficiency_ln>  (1) 
-1.3931637678021642

>  <r_i_glide_ligand_efficiency_sa>  (1) 
-0.68744650490386283

>  <r_i_glide_lipo>  (1) 
-3.6548839886771791

>  <r_i_glide_metal>  (1) 
-0

>  <r_i_glide_rewards>  (1) 
-1.7771699487140231

>  <r_lp_Energy>  (1) 
21.037921999999998

>  <s_epik_cmdline>  (1) 
J2VwaWtfcHl0aG9uJywgJy1waHQnLCAnMS4wJywgJy1waCcsICc3LjQnLCAnLXRuJywgJzgnLCAnLW1hJywgJzUwMCcsICctaW1hZScsICc8aW5maWxlLm1hZT4nLCAnLW9tYWUnLCAnPG91dGZpbGUubWFlPic=

>  <s_epik_input>  (1) 
W09IXWMoW2NIXTEpYyhGKVtjSF1bY0hdYzFbQ0gyXVNbQ0BASF0oW0NIMl1bQ0gyXVtDSDNdKS9bQ0hdPVtDSF1cYzJbY0hdW2NIXWMoW0NIM10pYyhbY0hdMilbQ0gyXVtOSDJd

>  <s_glide_docking_method>  (1) 
confgen

>  <s_i_glide_gridfile>  (1) 
gpcr_5ht2c_6bqh_protein_autoprepared_prepared

>  <s_lp_Force_Field>  (1) 
S-OPLS

>  <s_lp_Variant>  (1) 
DiffSBDD_41-4

>  <s_m_source_file>  (1) 
generated_GPCR_5HT2C_ligand_DiffSBDD_2026-06-23_prepared.sdf

>  <GenAI_Model>  (1) 
DiffSBDD

>  <Protein>  (1) 
GPCR_5HT2C

$$$$
DiffSBDD_25
     RDKit          3D

  0  0  0  0  0  0  0  0  0  0999 V3000
M  V30 BEGIN CTAB
M  V30 COUNTS 68 71 0 0 1
M  V30 BEGIN ATOM
M  V30 1 C 39.123756 26.390992 57.636331 0
M  V30 2 C 40.948892 35.118729 61.705436 0
M  V30 3 O 39.645067 25.258642 57.529474 0 CHG=-1
M  V30 4 C 35.985152 32.521868 60.403576 0
M  V30 5 N 37.248993 30.137765 57.966059 0
M  V30 6 C 41.445065 34.744161 63.108300 0
M  V30 7 C 38.550359 26.408447 55.109054 0
M  V30 8 C 37.772935 28.273459 53.978157 0
M  V30 9 C 40.785162 32.191534 65.083130 0
M  V30 10 C 41.995176 33.307678 63.171972 0
M  V30 11 C 40.977711 32.195154 63.543034 0 CFG=2
M  V30 12 C 37.466234 30.558856 55.017706 0
M  V30 13 O 42.845113 30.741081 63.767756 0
M  V30 14 O 39.479432 29.462707 58.231584 0
M  V30 15 N 38.338382 32.401346 60.770032 0
M  V30 16 C 38.310680 28.522232 56.343316 0
M  V30 17 O 38.935884 26.937959 58.741577 0
M  V30 18 C 40.796127 29.686252 63.315394 0
M  V30 19 C 38.670286 27.122437 56.347150 0
M  V30 20 C 39.595635 32.395042 62.861187 0
M  V30 21 C 39.559764 32.896783 61.408942 0 CFG=2
M  V30 22 C 38.437547 29.390244 57.582635 0
M  V30 23 C 38.498181 31.320983 59.820477 0
M  V30 24 N 38.121640 26.977253 53.964503 0
M  V30 25 C 41.881638 28.657662 63.518995 0
M  V30 26 C 37.086640 32.892660 61.053525 0
M  V30 27 N 38.853063 25.057105 55.035735 0
M  V30 28 N 41.560197 30.914736 63.087236 0
M  V30 29 C 39.629991 34.446525 61.295165 0
M  V30 30 C 37.232407 31.007393 59.028927 0
M  V30 31 C 44.288778 28.885934 64.372985 0
M  V30 32 N 36.058764 31.608180 59.367763 0 CHG=1
M  V30 33 C 42.863017 29.448931 64.357748 0 CFG=1
M  V30 34 C 37.848423 29.088666 55.118856 0
M  V30 35 H 41.725675 34.925116 60.967770 0
M  V30 36 H 40.800169 36.198803 61.671922 0
M  V30 37 H 34.997508 32.909635 60.609410 0
M  V30 38 H 36.377682 30.070663 57.454804 0
M  V30 39 H 42.250283 35.432728 63.367931 0
M  V30 40 H 40.670345 34.913392 63.856109 0
M  V30 41 H 37.432722 28.683299 53.038098 0
M  V30 42 H 40.445153 33.163681 65.438204 0
M  V30 43 H 40.042167 31.468851 65.414541 0
M  V30 44 H 41.711550 31.976696 65.615982 0
M  V30 45 H 42.479031 33.071304 62.222962 0
M  V30 46 H 42.797350 33.296894 63.909410 0
M  V30 47 H 37.515829 30.891140 53.981683 0
M  V30 48 H 36.445143 30.699493 55.357776 0
M  V30 49 H 38.132145 31.214028 55.579631 0
M  V30 50 H 40.177585 29.739057 64.209470 0
M  V30 51 H 40.146814 29.450013 62.471890 0
M  V30 52 H 39.032440 33.138627 63.403548 0
M  V30 53 H 38.998257 31.489133 62.964057 0
M  V30 54 H 40.411256 32.471754 60.875860 0
M  V30 55 H 38.850874 30.435344 60.351574 0
M  V30 56 H 39.245137 31.658128 59.110332 0
M  V30 57 H 42.324980 28.368149 62.567755 0
M  V30 58 H 41.522688 27.756857 64.017498 0
M  V30 59 H 37.065308 33.619173 61.850251 0
M  V30 60 H 39.235283 24.570723 55.845162 0
M  V30 61 H 38.805604 24.548054 54.167849 0
M  V30 62 H 39.424346 34.731215 60.262256 0
M  V30 63 H 38.835832 34.902942 61.885767 0
M  V30 64 H 44.309842 27.885609 64.805254 0
M  V30 65 H 44.704599 28.823927 63.367728 0
M  V30 66 H 44.949722 29.518582 64.965635 0
M  V30 67 H 42.485577 29.532277 65.378568 0
M  V30 68 H 35.273477 31.352833 58.774812 0
M  V30 END ATOM
M  V30 BEGIN BOND
M  V30 1 1 3 1
M  V30 2 1 6 2
M  V30 3 1 10 6
M  V30 4 1 11 9 CFG=1
M  V30 5 1 11 10
M  V30 6 2 17 1
M  V30 7 1 19 1
M  V30 8 2 19 7
M  V30 9 1 19 16
M  V30 10 1 20 11
M  V30 11 1 21 15
M  V30 12 1 21 20
M  V30 13 1 22 5
M  V30 14 2 22 14
M  V30 15 1 22 16
M  V30 16 1 23 15
M  V30 17 1 24 7
M  V30 18 2 24 8
M  V30 19 1 25 18
M  V30 20 2 26 4
M  V30 21 1 26 15
M  V30 22 1 27 7
M  V30 23 1 28 11
M  V30 24 1 28 13
M  V30 25 1 28 18
M  V30 26 1 29 2
M  V30 27 1 29 21
M  V30 28 1 30 5
M  V30 29 1 30 23
M  V30 30 1 32 4
M  V30 31 2 32 30
M  V30 32 1 33 13
M  V30 33 1 33 25
M  V30 34 1 33 31
M  V30 35 1 34 8
M  V30 36 1 34 12
M  V30 37 2 34 16
M  V30 38 1 35 2
M  V30 39 1 36 2
M  V30 40 1 37 4
M  V30 41 1 38 5
M  V30 42 1 39 6
M  V30 43 1 40 6
M  V30 44 1 41 8
M  V30 45 1 42 9
M  V30 46 1 43 9
M  V30 47 1 44 9
M  V30 48 1 45 10
M  V30 49 1 46 10
M  V30 50 1 47 12
M  V30 51 1 48 12
M  V30 52 1 49 12
M  V30 53 1 50 18
M  V30 54 1 51 18
M  V30 55 1 52 20
M  V30 56 1 53 20
M  V30 57 1 21 54 CFG=3
M  V30 58 1 55 23
M  V30 59 1 56 23
M  V30 60 1 57 25
M  V30 61 1 58 25
M  V30 62 1 59 26
M  V30 63 1 60 27
M  V30 64 1 61 27
M  V30 65 1 62 29
M  V30 66 1 63 29
M  V30 67 1 64 31
M  V30 68 1 65 31
M  V30 69 1 66 31
M  V30 70 1 33 67 CFG=1
M  V30 71 1 68 32
M  V30 END BOND
M  V30 END CTAB
M  END
>  <i_epik_Tot_Q>  (1) 
0

>  <i_epik_Tot_abs_Q>  (1) 
2

>  <i_i_glide_confnum>  (1) 
55

>  <i_i_glide_lignum>  (1) 
66

>  <i_i_glide_posenum>  (1) 
139

>  <i_i_glide_rotatable_bonds>  (1) 
6

>  <i_lp_mmshare_version>  (1) 
72125

>  <i_m_source_file_index>  (1) 
26

>  <i_f3d_flags>  (1) 
0

>  <num_sample>  (1) 
100

>  <b_lp_Chiralities_Consistent>  (1) 
1

>  <r_epik_Charging_Adjusted_Penalty>  (1) 
2.0881109960433539

>  <r_epik_Ionization_Penalty>  (1) 
0.85183889184377526

>  <r_epik_Ionization_Penalty_Charging>  (1) 
0.8304268618792634

>  <r_epik_Ionization_Penalty_Neutral>  (1) 
0.02141202996451182

>  <r_epik_State_Penalty>  (1) 
1.2576841341640903

>  <r_glide_ring_energy>  (1) 
0.043875447634132647

>  <r_i_docking_score>  (1) 
-5.8652103359332219

>  <r_i_glide_ecoul>  (1) 
-6.7727902431860949

>  <r_i_glide_eff_state_penalty>  (1) 
1.2576841341640903

>  <r_i_glide_einternal>  (1) 
4.50576394781422

>  <r_i_glide_emodel>  (1) 
-71.219632736300085

>  <r_i_glide_emodel_strain>  (1) 
0.51290995423666175

>  <r_i_glide_energy>  (1) 
-48.589484965888097

>  <r_i_glide_erotb>  (1) 
0.45623875647966866

>  <r_i_glide_esite>  (1) 
-0.30789947156715647

>  <r_i_glide_evdw>  (1) 
-41.816694722702003

>  <r_i_glide_gscore>  (1) 
-7.1228944700973118

>  <r_i_glide_gscore_strain>  (1) 
0

>  <r_i_glide_hbond>  (1) 
-0.14917496795248972

>  <r_i_glide_ligand_efficiency>  (1) 
-0.17250618635097711

>  <r_i_glide_ligand_efficiency_ln>  (1) 
-1.2957894767851255

>  <r_i_glide_ligand_efficiency_sa>  (1) 
-0.5588530770959983

>  <r_i_glide_lipo>  (1) 
-3.0486122958580735

>  <r_i_glide_metal>  (1) 
-0

>  <r_i_glide_rewards>  (1) 
-0.96669321858624546

>  <r_lp_Energy>  (1) 
64.660426999999999

>  <s_epik_Chemistry_Notes>  (1) 
This compound has an imine and may undergo hydrolysis. This compound has a N-S or N-O group and may undergo hydrolysis at high or low pH.

>  <s_epik_cmdline>  (1) 
J2VwaWtfcHl0aG9uJywgJy1waHQnLCAnMS4wJywgJy1waCcsICc3LjQnLCAnLXRuJywgJzgnLCAnLW1hJywgJzUwMCcsICctaW1hZScsICc8aW5maWxlLm1hZT4nLCAnLW9tYWUnLCAnPG91dGZpbGUubWFlPic=

>  <s_epik_input>  (1) 
W09IXUMoPU8pYyhjMVtOSDJdKWMoYyhbY0hdbjEpW0NIM10pQyg9TylbTkhdQyg9TltDSF09W0NIXTIpW0NIMl1OMltDQEhdKFtDSDJdMylbQ0gyXVtDSDJdW0NIMl1bQ0gyXVtDQF0zKFtDSDNdKU40T1tDQEBIXShbQ0gzXSlbQ0gyXVtDSDJdNA==

>  <s_glide_docking_method>  (1) 
confgen

>  <s_i_glide_gridfile>  (1) 
gpcr_5ht2c_6bqh_protein_autoprepared_prepared

>  <s_lp_Force_Field>  (1) 
S-OPLS

>  <s_lp_Variant>  (1) 
DiffSBDD_25-6

>  <s_m_source_file>  (1) 
generated_GPCR_5HT2C_ligand_DiffSBDD_2026-06-23_prepared.sdf

>  <GenAI_Model>  (1) 
DiffSBDD

>  <Protein>  (1) 
GPCR_5HT2C

$$$$
DiffSBDD_42
     RDKit          3D

  0  0  0  0  0  0  0  0  0  0999 V3000
M  V30 BEGIN CTAB
M  V30 COUNTS 89 94 0 0 1
M  V30 BEGIN ATOM
M  V30 1 C 43.161078 27.990075 65.232953 0
M  V30 2 C 38.392931 28.724260 57.487456 0
M  V30 3 C 38.973687 29.337678 52.494991 0
M  V30 4 C 39.645141 29.315797 50.097159 0
M  V30 5 O 38.045191 32.918547 55.663235 0
M  V30 6 C 37.851174 30.067546 54.534146 0
M  V30 7 C 40.027669 30.211263 52.785610 0
M  V30 8 C 38.925169 30.942554 54.799899 0
M  V30 9 C 42.762840 29.190536 68.643685 0 CFG=2
M  V30 10 C 38.408331 27.157591 51.096842 0
M  V30 11 C 41.120268 29.125301 66.128267 0 CFG=1
M  V30 12 C 36.561535 33.182878 60.667128 0 CFG=1
M  V30 13 C 41.558376 29.241372 63.749620 0
M  V30 14 C 37.275389 34.110685 59.662506 0
M  V30 15 C 39.261744 30.566801 61.538732 0
M  V30 16 C 39.247300 29.997376 57.473717 0
M  V30 17 C 35.063574 32.928502 60.416275 0
M  V30 18 O 38.431985 32.549533 62.567756 0
M  V30 19 C 37.176780 29.612931 59.506590 0
M  V30 20 O 43.846839 30.048156 68.340777 0
M  V30 21 C 38.311137 31.772657 61.637460 0
M  V30 22 C 37.025177 28.946714 58.130936 0
M  V30 23 O 41.284267 31.733604 61.472981 0
M  V30 24 C 37.670201 33.394409 58.345717 0
M  V30 25 C 42.799104 28.351978 63.812323 0
M  V30 26 C 42.219514 32.524523 62.177599 0
M  V30 27 N 38.414253 31.185617 57.208365 0
M  V30 28 C 42.793522 27.964307 67.712166 0
M  V30 29 C 38.899392 31.853077 55.999060 0 CFG=2
M  V30 30 C 40.011120 30.989735 53.936235 0
M  V30 31 C 40.573806 30.859045 62.288182 0 CFG=2
M  V30 32 C 41.435943 29.963542 68.518884 0
M  V30 33 C 39.017080 28.531805 51.248843 0 CFG=2
M  V30 34 C 37.883596 29.252283 53.388401 0
M  V30 35 C 37.307218 31.167421 59.428034 0 CFG=2
M  V30 36 C 41.122790 30.350973 67.061883 0
M  V30 37 O 41.281203 29.658981 62.462771 0
M  V30 38 N 40.845197 29.572767 64.761441 0
M  V30 39 C 42.413028 28.332293 66.288400 0
M  V30 40 C 38.260623 31.938267 58.469244 0 CFG=2
M  V30 41 N 37.371304 31.957164 60.668718 0
M  V30 42 O 39.702861 27.337426 51.613107 0
M  V30 43 H 44.072603 27.428917 65.376008 0
M  V30 44 H 38.260311 28.337260 56.479376 0
M  V30 45 H 38.930322 27.945709 58.028018 0
M  V30 46 H 39.278372 30.343628 50.104022 0
M  V30 47 H 40.731096 29.337387 50.180805 0
M  V30 48 H 39.395348 28.919408 49.126967 0
M  V30 49 H 37.141094 32.654408 55.817135 0
M  V30 50 H 37.003966 30.026870 55.203680 0
M  V30 51 H 40.845134 30.288929 52.109390 0
M  V30 52 H 42.889705 28.859076 69.675636 0
M  V30 53 H 37.646993 26.889594 51.822461 0
M  V30 54 H 38.445125 26.594543 50.167936 0
M  V30 55 H 40.307481 28.466016 66.437255 0
M  V30 56 H 36.582133 33.682464 61.637638 0
M  V30 57 H 36.664279 34.987873 59.447057 0
M  V30 58 H 38.187848 34.486824 60.127481 0
M  V30 59 H 39.556849 30.328468 60.522914 0
M  V30 60 H 38.792649 29.704253 62.010337 0
M  V30 61 H 40.045179 29.867270 56.745028 0
M  V30 62 H 39.771586 30.083366 58.422040 0
M  V30 63 H 34.452570 33.744742 60.795430 0
M  V30 64 H 34.821006 32.817323 59.359604 0
M  V30 65 H 34.758722 32.019058 60.931200 0
M  V30 66 H 36.266439 29.416617 60.065352 0
M  V30 67 H 37.962089 29.085978 60.033735 0
M  V30 68 H 43.827941 30.781410 68.936403 0
M  V30 69 H 36.397040 29.565977 57.490760 0
M  V30 70 H 36.512970 27.989771 58.167748 0
M  V30 71 H 36.763309 33.360338 57.749829 0
M  V30 72 H 38.368068 34.041123 57.819946 0
M  V30 73 H 43.640704 28.878246 63.364964 0
M  V30 74 H 42.632138 27.440856 63.239336 0
M  V30 75 H 42.846391 33.042275 61.457278 0
M  V30 76 H 41.716670 33.271030 62.792322 0
M  V30 77 H 42.845535 31.909875 62.821435 0
M  V30 78 H 43.773841 27.485992 67.741186 0
M  V30 79 H 42.073192 27.226682 68.067213 0
M  V30 80 H 39.899227 32.253443 56.178398 0
M  V30 81 H 40.828082 31.659617 54.144834 0
M  V30 82 H 40.376141 31.371798 63.233512 0
M  V30 83 H 40.627770 29.337653 68.901051 0
M  V30 84 H 41.451333 30.854543 69.146727 0
M  V30 85 H 37.060743 28.584762 53.180787 0
M  V30 86 H 36.340503 31.363979 58.972087 0
M  V30 87 H 41.863655 31.072485 66.714692 0
M  V30 88 H 40.157503 30.857217 67.014769 0
M  V30 89 H 39.244895 32.051362 58.922354 0
M  V30 END ATOM
M  V30 BEGIN BOND
M  V30 1 2 7 3
M  V30 2 1 8 6
M  V30 3 1 14 12
M  V30 4 1 16 2
M  V30 5 1 17 12
M  V30 6 1 20 9
M  V30 7 1 21 15
M  V30 8 2 21 18
M  V30 9 1 22 2
M  V30 10 1 22 19
M  V30 11 1 24 14
M  V30 12 1 25 1
M  V30 13 1 25 13
M  V30 14 1 26 23
M  V30 15 1 27 16
M  V30 16 1 28 9
M  V30 17 1 29 5
M  V30 18 1 29 8
M  V30 19 1 29 27
M  V30 20 1 30 7
M  V30 21 2 30 8
M  V30 22 1 31 15
M  V30 23 1 31 23
M  V30 24 1 32 9
M  V30 25 1 33 3
M  V30 26 1 33 4 CFG=3
M  V30 27 1 33 10
M  V30 28 1 34 3
M  V30 29 2 34 6
M  V30 30 1 35 19
M  V30 31 1 36 11
M  V30 32 1 36 32
M  V30 33 1 37 13
M  V30 34 1 37 31
M  V30 35 1 38 11
M  V30 36 2 38 13
M  V30 37 2 39 1
M  V30 38 1 39 11
M  V30 39 1 39 28
M  V30 40 1 40 24
M  V30 41 1 40 27
M  V30 42 1 40 35
M  V30 43 1 41 12
M  V30 44 1 41 21
M  V30 45 1 41 35
M  V30 46 1 42 10
M  V30 47 1 42 33
M  V30 48 1 43 1
M  V30 49 1 44 2
M  V30 50 1 45 2
M  V30 51 1 46 4
M  V30 52 1 47 4
M  V30 53 1 48 4
M  V30 54 1 49 5
M  V30 55 1 50 6
M  V30 56 1 51 7
M  V30 57 1 9 52 CFG=1
M  V30 58 1 53 10
M  V30 59 1 54 10
M  V30 60 1 11 55 CFG=1
M  V30 61 1 12 56 CFG=1
M  V30 62 1 57 14
M  V30 63 1 58 14
M  V30 64 1 59 15
M  V30 65 1 60 15
M  V30 66 1 61 16
M  V30 67 1 62 16
M  V30 68 1 63 17
M  V30 69 1 64 17
M  V30 70 1 65 17
M  V30 71 1 66 19
M  V30 72 1 67 19
M  V30 73 1 68 20
M  V30 74 1 69 22
M  V30 75 1 70 22
M  V30 76 1 71 24
M  V30 77 1 72 24
M  V30 78 1 73 25
M  V30 79 1 74 25
M  V30 80 1 75 26
M  V30 81 1 76 26
M  V30 82 1 77 26
M  V30 83 1 78 28
M  V30 84 1 79 28
M  V30 85 1 29 80 CFG=1
M  V30 86 1 81 30
M  V30 87 1 31 82 CFG=1
M  V30 88 1 83 32
M  V30 89 1 84 32
M  V30 90 1 85 34
M  V30 91 1 35 86 CFG=3
M  V30 92 1 87 36
M  V30 93 1 88 36
M  V30 94 1 40 89 CFG=1
M  V30 END BOND
M  V30 END CTAB
M  END
>  <i_epik_Tot_Q>  (1) 
0

>  <i_epik_Tot_abs_Q>  (1) 
0

>  <i_i_glide_confnum>  (1) 
223

>  <i_i_glide_lignum>  (1) 
94

>  <i_i_glide_posenum>  (1) 
99

>  <i_i_glide_rotatable_bonds>  (1) 
11

>  <i_lp_mmshare_version>  (1) 
72125

>  <i_m_source_file_index>  (1) 
43

>  <i_f3d_flags>  (1) 
0

>  <num_sample>  (1) 
100

>  <b_lp_Chiralities_Consistent>  (1) 
1

>  <r_epik_Charging_Adjusted_Penalty>  (1) 
1.2329990640451991

>  <r_epik_Ionization_Penalty>  (1) 
0.090641377566339693

>  <r_epik_Ionization_Penalty_Charging>  (1) 
0

>  <r_epik_Ionization_Penalty_Neutral>  (1) 
0.090641377566339693

>  <r_epik_State_Penalty>  (1) 
1.2329990640451991

>  <r_glide_ring_energy>  (1) 
0

>  <r_i_docking_score>  (1) 
-5.8631313276811783

>  <r_i_glide_ecoul>  (1) 
-4.7273109345230218

>  <r_i_glide_eff_state_penalty>  (1) 
1.2329990640451991

>  <r_i_glide_einternal>  (1) 
8.3581095058402823

>  <r_i_glide_emodel>  (1) 
-54.918310672752781

>  <r_i_glide_emodel_strain>  (1) 
2.9166896803191378

>  <r_i_glide_energy>  (1) 
-48.097584570100238

>  <r_i_glide_erotb>  (1) 
0.39316795176799535

>  <r_i_glide_esite>  (1) 
-0.02912281179993479

>  <r_i_glide_evdw>  (1) 
-43.370273635577213

>  <r_i_glide_gscore>  (1) 
-7.0961303917263772

>  <r_i_glide_gscore_strain>  (1) 
0

>  <r_i_glide_hbond>  (1) 
-0.55271376228554581

>  <r_i_glide_ligand_efficiency>  (1) 
-0.13959836494478997

>  <r_i_glide_ligand_efficiency_ln>  (1) 
-1.2375559716225224

>  <r_i_glide_ligand_efficiency_sa>  (1) 
-0.48524763613067251

>  <r_i_glide_lipo>  (1) 
-2.9324272616483906

>  <r_i_glide_metal>  (1) 
-0

>  <r_i_glide_rewards>  (1) 
-1.0974241858031866

>  <r_lp_Energy>  (1) 
72.264139999999998

>  <s_epik_Chemistry_Notes>  (1) 
This compound has an imine and may undergo hydrolysis. This compound contains an acetal/aminal-like group ( X-CH(R)-Y where X, Y are N, S, or O) that may be acid/base labile, releasing an aldehyde.

>  <s_epik_cmdline>  (1) 
J2VwaWtfcHl0aG9uJywgJy1waHQnLCAnMS4wJywgJy1waCcsICc3LjQnLCAnLXRuJywgJzgnLCAnLW1hJywgJzUwMCcsICctaW1hZScsICc8aW5maWxlLm1hZT4nLCAnLW9tYWUnLCAnPG91dGZpbGUubWFlPic=

>  <s_epik_input>  (1) 
W0NIMl0xW0NIMl1bQ0BIXShbT0hdKVtDSDJdQyhbQ0BASF0xMik9W0NIXVtDSDJdQyg9TjIpT1tDQEBIXShPW0NIM10pW0NIMl1DKD1PKU4zW0NASF0oW0NIM10pW0NIMl1bQ0gyXVtDQEBIXShbQ0BIXTM0KU4oW0NIMl1bQ0gyXVtDSDJdW0NIMl00KVtDQEhdKFtPSF0pYyhbY0hdW2NIXTUpW2NIXVtjSF1jNUM2KFtDSDNdKVtDSDJdTzY=

>  <s_glide_docking_method>  (1) 
confgen

>  <s_i_glide_gridfile>  (1) 
gpcr_5ht2c_6bqh_protein_autoprepared_prepared

>  <s_lp_Force_Field>  (1) 
S-OPLS

>  <s_lp_Variant>  (1) 
DiffSBDD_42-3

>  <s_m_source_file>  (1) 
generated_GPCR_5HT2C_ligand_DiffSBDD_2026-06-23_prepared.sdf

>  <GenAI_Model>  (1) 
DiffSBDD

>  <Protein>  (1) 
GPCR_5HT2C

$$$$
DiffSBDD_39
     RDKit          3D

  0  0  0  0  0  0  0  0  0  0999 V3000
M  V30 BEGIN CTAB
M  V30 COUNTS 44 46 0 0 1
M  V30 BEGIN ATOM
M  V30 1 C 39.184490 27.970941 51.973763 0
M  V30 2 C 38.856817 31.672044 62.294777 0
M  V30 3 C 37.294756 33.865892 58.940229 0
M  V30 4 O 37.645137 31.106638 61.955518 0
M  V30 5 O 39.604594 27.094016 51.227371 0
M  V30 6 C 38.190599 30.220768 59.884727 0 CFG=2
M  V30 7 C 38.759261 32.745433 56.549553 0
M  V30 8 C 39.645137 30.313402 52.915283 0
M  V30 9 O 39.245135 29.996402 58.976653 0
M  V30 10 C 39.391441 29.457921 51.655075 0 CFG=1
M  V30 11 N 37.612664 31.603257 59.811331 0
M  V30 12 O 37.026576 27.737755 52.967760 0
M  V30 13 C 38.126392 32.570506 58.867110 0 CFG=1
M  V30 14 C 38.668769 30.014822 54.063504 0 CFG=1
M  V30 15 C 38.735294 28.532326 54.439719 0
M  V30 16 O 38.045137 32.072315 57.572275 0
M  V30 17 C 38.559426 31.281362 60.838616 0 CFG=2
M  V30 18 O 39.020879 30.771522 55.207979 0
M  V30 19 C 40.478219 29.701134 50.594689 0
M  V30 20 C 38.401167 27.623615 53.245314 0 CFG=2
M  V30 21 C 38.398567 32.045760 55.242416 0
M  V30 22 H 39.519080 31.036042 62.878566 0
M  V30 23 H 38.823388 32.726566 62.560151 0
M  V30 24 H 37.333065 34.271941 59.951053 0
M  V30 25 H 37.645138 34.629047 58.253266 0
M  V30 26 H 36.255230 33.643794 58.693482 0
M  V30 27 H 37.586654 29.362778 60.167759 0
M  V30 28 H 39.833908 32.722687 56.725676 0
M  V30 29 H 38.453270 33.786487 56.469420 0
M  V30 30 H 40.658397 30.153650 53.275791 0
M  V30 31 H 39.595070 31.367694 52.645598 0
M  V30 32 H 39.935416 29.534399 59.425350 0
M  V30 33 H 38.445144 29.737755 51.203995 0
M  V30 34 H 36.819576 27.095748 52.295614 0
M  V30 35 H 39.177178 32.780846 59.075782 0
M  V30 36 H 37.645131 30.242200 53.763997 0
M  V30 37 H 38.044024 28.333604 55.259953 0
M  V30 38 H 39.725317 28.289925 54.823956 0
M  V30 39 H 40.274026 29.149819 49.675937 0
M  V30 40 H 40.539251 30.757625 50.331916 0
M  V30 41 H 41.456327 29.397003 50.967761 0
M  V30 42 H 38.606844 26.585895 53.509576 0
M  V30 43 H 38.740952 32.636687 54.396852 0
M  V30 44 H 37.313237 31.959373 55.161283 0
M  V30 END ATOM
M  V30 BEGIN BOND
M  V30 1 1 4 2
M  V30 2 2 5 1
M  V30 3 1 9 6
M  V30 4 1 10 1
M  V30 5 1 10 8
M  V30 6 1 11 6
M  V30 7 1 13 3
M  V30 8 1 13 11
M  V30 9 1 14 8
M  V30 10 1 15 14
M  V30 11 1 16 7
M  V30 12 1 16 13
M  V30 13 1 17 2
M  V30 14 1 17 4 CFG=1
M  V30 15 1 17 6
M  V30 16 1 17 11
M  V30 17 1 18 14
M  V30 18 1 19 10
M  V30 19 1 20 1
M  V30 20 1 20 12
M  V30 21 1 20 15
M  V30 22 1 21 7
M  V30 23 1 21 18
M  V30 24 1 22 2
M  V30 25 1 23 2
M  V30 26 1 24 3
M  V30 27 1 25 3
M  V30 28 1 26 3
M  V30 29 1 6 27 CFG=1
M  V30 30 1 28 7
M  V30 31 1 29 7
M  V30 32 1 30 8
M  V30 33 1 31 8
M  V30 34 1 32 9
M  V30 35 1 10 33 CFG=3
M  V30 36 1 34 12
M  V30 37 1 13 35 CFG=1
M  V30 38 1 14 36 CFG=3
M  V30 39 1 37 15
M  V30 40 1 38 15
M  V30 41 1 39 19
M  V30 42 1 40 19
M  V30 43 1 41 19
M  V30 44 1 20 42 CFG=1
M  V30 45 1 43 21
M  V30 46 1 44 21
M  V30 END BOND
M  V30 END CTAB
M  END
>  <i_epik_Tot_Q>  (1) 
0

>  <i_epik_Tot_abs_Q>  (1) 
0

>  <i_i_glide_confnum>  (1) 
35

>  <i_i_glide_lignum>  (1) 
87

>  <i_i_glide_posenum>  (1) 
286

>  <i_i_glide_rotatable_bonds>  (1) 
8

>  <i_lp_mmshare_version>  (1) 
72125

>  <i_m_source_file_index>  (1) 
40

>  <i_f3d_flags>  (1) 
0

>  <num_sample>  (1) 
100

>  <b_lp_Chiralities_Consistent>  (1) 
1

>  <r_epik_Charging_Adjusted_Penalty>  (1) 
0

>  <r_epik_Ionization_Penalty>  (1) 
7.7229051731594394e-07

>  <r_epik_Ionization_Penalty_Charging>  (1) 
0

>  <r_epik_Ionization_Penalty_Neutral>  (1) 
7.7229051731594394e-07

>  <r_epik_State_Penalty>  (1) 
-0

>  <r_glide_ring_energy>  (1) 
0

>  <r_i_docking_score>  (1) 
-5.8537951211961561

>  <r_i_glide_ecoul>  (1) 
-3.7220999725278534

>  <r_i_glide_eff_state_penalty>  (1) 
-0

>  <r_i_glide_einternal>  (1) 
4.8039742609084577

>  <r_i_glide_emodel>  (1) 
-43.536179489489399

>  <r_i_glide_emodel_strain>  (1) 
0.03588965258725807

>  <r_i_glide_energy>  (1) 
-32.370474033157222

>  <r_i_glide_erotb>  (1) 
1.2154630782883253

>  <r_i_glide_esite>  (1) 
-0.051580451814760148

>  <r_i_glide_evdw>  (1) 
-28.648374060629372

>  <r_i_glide_gscore>  (1) 
-5.8537951211961561

>  <r_i_glide_gscore_strain>  (1) 
0

>  <r_i_glide_hbond>  (1) 
-0.56876851910695569

>  <r_i_glide_ligand_efficiency>  (1) 
-0.27875214862838837

>  <r_i_glide_ligand_efficiency_ln>  (1) 
-1.4473390150089354

>  <r_i_glide_ligand_efficiency_sa>  (1) 
-0.76905604206904421

>  <r_i_glide_lipo>  (1) 
-1.8669770567224742

>  <r_i_glide_metal>  (1) 
-0

>  <r_i_glide_rewards>  (1) 
-2.5911984729296442

>  <r_lp_Energy>  (1) 
17.348379999999999

>  <r_lp_tautomer_probability>  (1) 
1

>  <s_epik_Chemistry_Notes>  (1) 
This compound contains an acetal/aminal-like group ( X-CH(R)-Y where X, Y are N, S, or O) that may be acid/base labile, releasing an aldehyde.

>  <s_epik_cmdline>  (1) 
J2VwaWtfcHl0aG9uJywgJy1waHQnLCAnMS4wJywgJy1waCcsICc3LjQnLCAnLXRuJywgJzgnLCAnLW1hJywgJzUwMCcsICctaW1hZScsICc8aW5maWxlLm1hZT4nLCAnLW9tYWUnLCAnPG91dGZpbGUubWFlPic=

>  <s_epik_input>  (1) 
Tz1DMVtDQEBIXShbQ0gzXSlbQ0gyXVtDQEBIXShbQ0gyXVtDQEhdMVtPSF0pT1tDSDJdW0NIMl1PW0NAQEhdKFtDSDNdKU4yW0NAQEhdKFtPSF0pQzIzW0NIMl1PMw==

>  <s_glide_docking_method>  (1) 
confgen

>  <s_i_glide_gridfile>  (1) 
gpcr_5ht2c_6bqh_protein_autoprepared_prepared

>  <s_lp_Force_Field>  (1) 
S-OPLS

>  <s_lp_Variant>  (1) 
DiffSBDD_39-2

>  <s_m_source_file>  (1) 
generated_GPCR_5HT2C_ligand_DiffSBDD_2026-06-23_prepared.sdf

>  <GenAI_Model>  (1) 
DiffSBDD

>  <Protein>  (1) 
GPCR_5HT2C

$$$$
DiffSBDD_67
     RDKit          3D

  0  0  0  0  0  0  0  0  0  0999 V3000
M  V30 BEGIN CTAB
M  V30 COUNTS 76 77 0 0 1
M  V30 BEGIN ATOM
M  V30 1 C 37.699181 30.464945 59.604552 0
M  V30 2 O 41.956307 32.530412 62.709723 0
M  V30 3 O 39.864942 37.701774 62.167829 0 CHG=-1
M  V30 4 C 38.468857 29.188341 59.215677 0 CFG=1
M  V30 5 O 40.855059 29.337791 59.540371 0
M  V30 6 C 41.111165 33.340581 63.088560 0
M  V30 7 C 38.529911 28.879925 57.667851 0 CFG=1
M  V30 8 C 36.303651 30.414073 59.766757 0
M  V30 9 C 39.636424 28.622803 61.478781 0
M  V30 10 C 39.000610 30.068008 56.782973 0
M  V30 11 N 39.245179 30.436004 52.967779 0
M  V30 12 C 38.362756 34.178555 60.361981 0
M  V30 13 C 39.706714 29.420726 50.968591 0
M  V30 14 C 37.029961 26.094169 57.438494 0
M  V30 15 C 35.590918 31.570296 60.134379 0
M  V30 16 C 40.708886 27.446474 57.266897 0
M  V30 17 C 38.507568 26.216831 57.850635 0
M  V30 18 C 37.655670 32.850536 60.171708 0
M  V30 19 C 39.680492 34.236081 61.172121 0 CFG=2
M  V30 20 C 39.691394 31.436054 51.990023 0
M  V30 21 C 39.790227 29.209029 52.433130 0
M  V30 22 C 39.710342 30.848919 50.555833 0
M  V30 23 C 39.211402 24.921041 57.395765 0
M  V30 24 O 38.400049 36.177837 62.699210 0
M  V30 25 O 39.646159 28.496547 50.167777 0
M  V30 26 C 38.734197 29.882873 55.271457 0
M  V30 27 C 39.569183 30.776616 54.351344 0
M  V30 28 C 39.435535 36.533631 62.100116 0
M  V30 29 C 41.411738 34.341537 64.199819 0
M  V30 30 C 39.717611 33.387874 62.460822 0
M  V30 31 C 39.161886 27.488551 57.240012 0 CFG=1
M  V30 32 C 38.380766 31.693393 59.808839 0
M  V30 33 N 40.110731 35.638401 61.355765 0
M  V30 34 C 39.764113 29.071551 60.029018 0
M  V30 35 C 36.262102 32.781902 60.333943 0
M  V30 36 H 37.865322 28.386274 59.626652 0
M  V30 37 H 37.479077 28.806648 57.391605 0
M  V30 38 H 35.776330 29.484693 59.610115 0
M  V30 39 H 39.181700 29.409007 62.081070 0
M  V30 40 H 39.005373 27.737824 61.545349 0
M  V30 41 H 40.614939 28.384446 61.894827 0
M  V30 42 H 38.484079 30.980133 57.080972 0
M  V30 43 H 40.045173 30.273867 56.966995 0
M  V30 44 H 38.559436 34.538058 59.363120 0
M  V30 45 H 37.626349 34.865182 60.776850 0
M  V30 46 H 36.922809 26.029774 56.356123 0
M  V30 47 H 36.570814 25.202365 57.864070 0
M  V30 48 H 36.445216 26.944804 57.767773 0
M  V30 49 H 34.522151 31.529212 60.253744 0
M  V30 50 H 41.093902 27.186283 58.251258 0
M  V30 51 H 41.095600 26.699653 56.573471 0
M  V30 52 H 41.160398 28.388684 56.963833 0
M  V30 53 H 38.569318 26.268779 58.937843 0
M  V30 54 H 40.440715 33.794082 60.533808 0
M  V30 55 H 39.020924 32.282826 52.075120 0
M  V30 56 H 40.704435 31.737630 52.238730 0
M  V30 57 H 40.845382 29.337736 52.567763 0
M  V30 58 H 39.391123 28.268998 52.814563 0
M  V30 59 H 40.621310 31.112113 50.017290 0
M  V30 60 H 38.844465 31.110319 49.959131 0
M  V30 61 H 39.230415 24.838311 56.307695 0
M  V30 62 H 40.236891 24.866012 57.761371 0
M  V30 63 H 38.699582 24.033642 57.767588 0
M  V30 64 H 38.942659 28.874452 54.949275 0
M  V30 65 H 37.672071 30.037989 55.076673 0
M  V30 66 H 39.310712 31.818871 54.544773 0
M  V30 67 H 40.639395 30.666697 54.537618 0
M  V30 68 H 40.541813 34.966296 64.402483 0
M  V30 69 H 41.686699 33.820113 65.116535 0
M  V30 70 H 42.230121 34.996741 63.899836 0
M  V30 71 H 39.008774 33.768745 63.183137 0
M  V30 72 H 39.412690 32.363744 62.249287 0
M  V30 73 H 38.928586 27.338551 56.192089 0
M  V30 74 H 39.447783 31.748999 59.686301 0
M  V30 75 H 40.945118 35.941394 60.878615 0
M  V30 76 H 35.704189 33.667756 60.604498 0
M  V30 END ATOM
M  V30 BEGIN BOND
M  V30 1 1 4 1
M  V30 2 2 6 2
M  V30 3 1 7 4
M  V30 4 2 8 1
M  V30 5 1 10 7
M  V30 6 1 15 8
M  V30 7 1 17 14
M  V30 8 1 18 12
M  V30 9 1 19 12
M  V30 10 1 20 11
M  V30 11 1 21 11
M  V30 12 1 21 13
M  V30 13 1 22 13
M  V30 14 1 22 20
M  V30 15 1 23 17
M  V30 16 2 25 13
M  V30 17 1 26 10
M  V30 18 1 27 11
M  V30 19 1 27 26
M  V30 20 1 28 3
M  V30 21 2 28 24
M  V30 22 1 29 6
M  V30 23 1 30 6
M  V30 24 1 30 19
M  V30 25 1 31 7
M  V30 26 1 31 16
M  V30 27 1 31 17
M  V30 28 1 32 1
M  V30 29 2 32 18
M  V30 30 1 33 19
M  V30 31 1 33 28
M  V30 32 1 34 4
M  V30 33 2 34 5
M  V30 34 1 34 9
M  V30 35 2 35 15
M  V30 36 1 35 18
M  V30 37 1 4 36 CFG=1
M  V30 38 1 7 37 CFG=3
M  V30 39 1 38 8
M  V30 40 1 39 9
M  V30 41 1 40 9
M  V30 42 1 41 9
M  V30 43 1 42 10
M  V30 44 1 43 10
M  V30 45 1 44 12
M  V30 46 1 45 12
M  V30 47 1 46 14
M  V30 48 1 47 14
M  V30 49 1 48 14
M  V30 50 1 49 15
M  V30 51 1 50 16
M  V30 52 1 51 16
M  V30 53 1 52 16
M  V30 54 1 53 17
M  V30 55 1 19 54 CFG=3
M  V30 56 1 55 20
M  V30 57 1 56 20
M  V30 58 1 57 21
M  V30 59 1 58 21
M  V30 60 1 59 22
M  V30 61 1 60 22
M  V30 62 1 61 23
M  V30 63 1 62 23
M  V30 64 1 63 23
M  V30 65 1 64 26
M  V30 66 1 65 26
M  V30 67 1 66 27
M  V30 68 1 67 27
M  V30 69 1 68 29
M  V30 70 1 69 29
M  V30 71 1 70 29
M  V30 72 1 71 30
M  V30 73 1 72 30
M  V30 74 1 31 73 CFG=3
M  V30 75 1 74 32
M  V30 76 1 75 33
M  V30 77 1 76 35
M  V30 END BOND
M  V30 END CTAB
M  END
>  <i_epik_Tot_Q>  (1) 
-1

>  <i_epik_Tot_abs_Q>  (1) 
1

>  <i_i_glide_confnum>  (1) 
1373

>  <i_i_glide_lignum>  (1) 
151

>  <i_i_glide_posenum>  (1) 
146

>  <i_i_glide_rotatable_bonds>  (1) 
15

>  <i_lp_mmshare_version>  (1) 
72125

>  <i_m_source_file_index>  (1) 
68

>  <i_f3d_flags>  (1) 
0

>  <num_sample>  (1) 
100

>  <b_lp_Chiralities_Consistent>  (1) 
1

>  <r_epik_Charging_Adjusted_Penalty>  (1) 
0.60629678857330549

>  <r_epik_Ionization_Penalty>  (1) 
0.60629682340024582

>  <r_epik_Ionization_Penalty_Charging>  (1) 
0.00088625580114290448

>  <r_epik_Ionization_Penalty_Neutral>  (1) 
0.60541056759910294

>  <r_epik_State_Penalty>  (1) 
0.60541053277216261

>  <r_glide_ring_energy>  (1) 
0

>  <r_i_docking_score>  (1) 
-5.8490289064751044

>  <r_i_glide_ecoul>  (1) 
-1.1981893892810138

>  <r_i_glide_eff_state_penalty>  (1) 
0.60541053277216261

>  <r_i_glide_einternal>  (1) 
8.617881913319561

>  <r_i_glide_emodel>  (1) 
-52.792538357818131

>  <r_i_glide_emodel_strain>  (1) 
2.7100289077654338

>  <r_i_glide_energy>  (1) 
-39.378082234513869

>  <r_i_glide_erotb>  (1) 
0.86140140191631331

>  <r_i_glide_esite>  (1) 
0

>  <r_i_glide_evdw>  (1) 
-38.179892845232857

>  <r_i_glide_gscore>  (1) 
-6.4544394392472668

>  <r_i_glide_gscore_strain>  (1) 
0

>  <r_i_glide_hbond>  (1) 
0

>  <r_i_glide_ligand_efficiency>  (1) 
-0.16711511161357442

>  <r_i_glide_ligand_efficiency_ln>  (1) 
-1.2839916571737684

>  <r_i_glide_ligand_efficiency_sa>  (1) 
-0.54664461152256927

>  <r_i_glide_lipo>  (1) 
-3.2529094860336887

>  <r_i_glide_metal>  (1) 
-0

>  <r_i_glide_rewards>  (1) 
-1.9742083044760965

>  <r_lp_Energy>  (1) 
18.776150999999999

>  <r_lp_tautomer_probability>  (1) 
0.99999992000000393

>  <s_epik_cmdline>  (1) 
J2VwaWtfcHl0aG9uJywgJy1waHQnLCAnMS4wJywgJy1waCcsICc3LjQnLCAnLXRuJywgJzgnLCAnLW1hJywgJzUwMCcsICctaW1hZScsICc8aW5maWxlLm1hZT4nLCAnLW9tYWUnLCAnPG91dGZpbGUubWFlPic=

>  <s_epik_input>  (1) 
Tz1DKFtDSDNdKVtDSDJdW0NASF0oW05IXUMoPU8pW09IXSlbQ0gyXWMoW2NIXTEpW2NIXVtjSF1bY0hdYzFbQ0BIXShDKD1PKVtDSDNdKVtDQEhdKFtDQEBIXShbQ0gzXSlbQ0hdKFtDSDNdKVtDSDNdKVtDSDJdW0NIMl1bQ0gyXU4yW0NIMl1bQ0gyXUMoPU8pW0NIMl0y

>  <s_glide_docking_method>  (1) 
confgen

>  <s_i_glide_gridfile>  (1) 
gpcr_5ht2c_6bqh_protein_autoprepared_prepared

>  <s_lp_Force_Field>  (1) 
S-OPLS

>  <s_lp_Variant>  (1) 
DiffSBDD_67-3

>  <s_m_source_file>  (1) 
generated_GPCR_5HT2C_ligand_DiffSBDD_2026-06-23_prepared.sdf

>  <GenAI_Model>  (1) 
DiffSBDD

>  <Protein>  (1) 
GPCR_5HT2C

$$$$
DiffSBDD_16
     RDKit          3D

  0  0  0  0  0  0  0  0  0  0999 V3000
M  V30 BEGIN CTAB
M  V30 COUNTS 69 73 0 0 1
M  V30 BEGIN ATOM
M  V30 1 C 39.707860 27.094468 57.611847 0
M  V30 2 C 38.852007 33.985417 60.296660 0
M  V30 3 C 37.313836 30.100395 56.609169 0 CFG=1
M  V30 4 C 38.046657 31.455552 56.706019 0
M  V30 5 C 41.795001 28.203500 58.167790 0
M  V30 6 C 41.394127 28.262362 59.513522 0
M  V30 7 C 37.168994 26.740274 53.246549 0
M  V30 8 C 38.139198 27.244903 52.185736 0
M  V30 9 C 37.516191 29.439325 55.235366 0
M  V30 10 C 40.163846 27.737982 59.909530 0
M  V30 11 O 37.335080 25.018611 54.856921 0
M  V30 12 C 38.353918 31.555331 60.510441 0
M  V30 13 C 37.895770 31.246460 59.259996 0
M  V30 14 C 37.270711 29.885668 58.979509 0
M  V30 15 C 38.928621 32.846779 60.960219 0
M  V30 16 C 40.936847 27.652601 57.213067 0
M  V30 17 N 39.451461 35.066889 60.907216 0
M  V30 18 C 41.830110 34.200719 63.455200 0
M  V30 19 N 37.704263 29.282748 57.730608 0
M  V30 20 C 41.655425 32.710166 63.382217 0
M  V30 21 C 43.163659 28.712889 57.755159 0
M  V30 22 C 38.516889 28.681384 52.428006 0
M  V30 23 C 40.121373 30.137767 53.649998 0
M  V30 24 C 39.391933 28.765584 53.662243 0 CFG=1
M  V30 25 C 38.841676 26.467210 56.639235 0
M  V30 26 C 38.740907 28.505853 55.032777 0 CFG=2
M  V30 27 C 37.645533 26.177229 54.566243 0
M  V30 28 C 39.602224 32.984605 62.262021 0 CFG=2
M  V30 29 C 38.455619 27.022875 55.464430 0
M  V30 30 C 40.002337 34.447480 61.898675 0
M  V30 31 N 40.734244 32.145904 62.676014 0
M  V30 32 C 39.337697 27.116877 58.967687 0
M  V30 33 C 37.953568 32.188356 58.059996 0
M  V30 34 C 41.052151 35.022032 62.721825 0
M  V30 35 H 38.369099 34.143135 59.356417 0
M  V30 36 H 36.237266 30.137662 56.708693 0
M  V30 37 H 39.100656 31.275427 56.489582 0
M  V30 38 H 37.696825 32.127849 55.921622 0
M  V30 39 H 42.045081 28.686780 60.247460 0
M  V30 40 H 36.844945 25.801238 52.824690 0
M  V30 41 H 36.306270 27.391094 53.366347 0
M  V30 42 H 39.013410 26.596191 52.107305 0
M  V30 43 H 37.657940 27.206582 51.212361 0
M  V30 44 H 36.607784 28.937206 54.952627 0
M  V30 45 H 37.536659 30.259953 54.522256 0
M  V30 46 H 39.869497 27.774453 60.948563 0
M  V30 47 H 38.276724 30.779245 61.258028 0
M  V30 48 H 37.506171 29.201055 59.791591 0
M  V30 49 H 36.185878 29.997789 58.966340 0
M  V30 50 H 41.239421 27.610411 56.176848 0
M  V30 51 H 42.631011 34.568992 64.079442 0
M  V30 52 H 37.296342 28.365410 57.630798 0
M  V30 53 H 42.379380 32.127418 63.957903 0
M  V30 54 H 43.244780 28.841892 56.676447 0
M  V30 55 H 43.395505 29.673707 58.200698 0
M  V30 56 H 43.924943 27.990801 58.048376 0
M  V30 57 H 39.064506 29.038128 51.554026 0
M  V30 58 H 37.642454 29.317178 52.509590 0
M  V30 59 H 39.436757 30.980091 53.739192 0
M  V30 60 H 40.842652 30.222052 54.464261 0
M  V30 61 H 40.659528 30.283575 52.715875 0
M  V30 62 H 40.039002 27.903675 53.537087 0
M  V30 63 H 38.516345 25.465029 56.881547 0
M  V30 64 H 39.465218 28.908890 55.726948 0
M  V30 65 H 38.844717 32.993991 63.042284 0
M  V30 66 H 38.403152 26.681364 59.278187 0
M  V30 67 H 38.873928 32.766186 58.061841 0
M  V30 68 H 37.091101 32.855336 58.078042 0
M  V30 69 H 41.179635 36.095271 62.698787 0
M  V30 END ATOM
M  V30 BEGIN BOND
M  V30 1 1 4 3
M  V30 2 1 6 5
M  V30 3 1 8 7
M  V30 4 1 9 3
M  V30 5 2 10 6
M  V30 6 2 13 12
M  V30 7 1 14 13
M  V30 8 2 15 2
M  V30 9 1 15 12
M  V30 10 1 16 1
M  V30 11 2 16 5
M  V30 12 1 17 2
M  V30 13 1 19 3
M  V30 14 1 19 14
M  V30 15 1 20 18
M  V30 16 1 21 5
M  V30 17 1 22 8
M  V30 18 1 24 22
M  V30 19 1 24 23
M  V30 20 1 25 1
M  V30 21 1 26 9
M  V30 22 1 26 24
M  V30 23 1 27 7
M  V30 24 2 27 11
M  V30 25 1 28 15
M  V30 26 2 29 25
M  V30 27 1 29 26
M  V30 28 1 29 27
M  V30 29 2 30 17
M  V30 30 1 30 28
M  V30 31 2 31 20
M  V30 32 1 31 28
M  V30 33 2 32 1
M  V30 34 1 32 10
M  V30 35 1 33 4
M  V30 36 1 33 13
M  V30 37 2 34 18
M  V30 38 1 34 30
M  V30 39 1 35 2
M  V30 40 1 3 36 CFG=1
M  V30 41 1 37 4
M  V30 42 1 38 4
M  V30 43 1 39 6
M  V30 44 1 40 7
M  V30 45 1 41 7
M  V30 46 1 42 8
M  V30 47 1 43 8
M  V30 48 1 44 9
M  V30 49 1 45 9
M  V30 50 1 46 10
M  V30 51 1 47 12
M  V30 52 1 48 14
M  V30 53 1 49 14
M  V30 54 1 50 16
M  V30 55 1 51 18
M  V30 56 1 52 19
M  V30 57 1 53 20
M  V30 58 1 54 21
M  V30 59 1 55 21
M  V30 60 1 56 21
M  V30 61 1 57 22
M  V30 62 1 58 22
M  V30 63 1 59 23
M  V30 64 1 60 23
M  V30 65 1 61 23
M  V30 66 1 24 62 CFG=3
M  V30 67 1 63 25
M  V30 68 1 26 64 CFG=1
M  V30 69 1 28 65 CFG=1
M  V30 70 1 66 32
M  V30 71 1 67 33
M  V30 72 1 68 33
M  V30 73 1 69 34
M  V30 END BOND
M  V30 END CTAB
M  END
>  <i_epik_Tot_Q>  (1) 
0

>  <i_epik_Tot_abs_Q>  (1) 
0

>  <i_i_glide_confnum>  (1) 
24

>  <i_i_glide_lignum>  (1) 
40

>  <i_i_glide_posenum>  (1) 
61

>  <i_i_glide_rotatable_bonds>  (1) 
4

>  <i_lp_mmshare_version>  (1) 
72125

>  <i_m_source_file_index>  (1) 
17

>  <i_f3d_flags>  (1) 
0

>  <num_sample>  (1) 
100

>  <b_lp_Chiralities_Consistent>  (1) 
1

>  <r_epik_Charging_Adjusted_Penalty>  (1) 
0.56391873878667209

>  <r_epik_Ionization_Penalty>  (1) 
0.56391873878667209

>  <r_epik_Ionization_Penalty_Charging>  (1) 
0

>  <r_epik_Ionization_Penalty_Neutral>  (1) 
0.56391873878667209

>  <r_epik_State_Penalty>  (1) 
0.56391873878667209

>  <r_glide_ring_energy>  (1) 
0

>  <r_i_docking_score>  (1) 
-5.8384595577430467

>  <r_i_glide_ecoul>  (1) 
-0.57897127525977576

>  <r_i_glide_eff_state_penalty>  (1) 
0.56391873878667209

>  <r_i_glide_einternal>  (1) 
6.8758810097278911

>  <r_i_glide_emodel>  (1) 
-15.174936538850972

>  <r_i_glide_emodel_strain>  (1) 
4.9802298489225052

>  <r_i_glide_energy>  (1) 
-23.539598646845878

>  <r_i_glide_erotb>  (1) 
0.29265828080580603

>  <r_i_glide_esite>  (1) 
0

>  <r_i_glide_evdw>  (1) 
-22.960627371586103

>  <r_i_glide_gscore>  (1) 
-6.4023782965297187

>  <r_i_glide_gscore_strain>  (1) 
0.2450574622306263

>  <r_i_glide_hbond>  (1) 
0

>  <r_i_glide_ligand_efficiency>  (1) 
-0.17171939875714842

>  <r_i_glide_ligand_efficiency_ln>  (1) 
-1.2898794795490029

>  <r_i_glide_ligand_efficiency_sa>  (1) 
-0.55630419072193216

>  <r_i_glide_lipo>  (1) 
-3.6541309456142335

>  <r_i_glide_metal>  (1) 
-0

>  <r_i_glide_rewards>  (1) 
-2.0510860340836463

>  <r_lp_Energy>  (1) 
58.143042999999999

>  <s_epik_Chemistry_Notes>  (1) 
This compound has an imine and may undergo hydrolysis.

>  <s_epik_cmdline>  (1) 
J2VwaWtfcHl0aG9uJywgJy1waHQnLCAnMS4wJywgJy1waCcsICc3LjQnLCAnLXRuJywgJzgnLCAnLW1hJywgJzUwMCcsICctaW1hZScsICc8aW5maWxlLm1hZT4nLCAnLW9tYWUnLCAnPG91dGZpbGUubWFlPic=

>  <s_epik_input>  (1) 
W2NIXTFbY0hdW2NIXWMoW0NIM10pW2NIXWMxL1tDSF09QyhDKD1PKVtDSDJdW0NIMl1bQ0gyXVtDQEhdMltDSDNdKVxbQ0BASF0yW0NIMl1bQ0BASF0zW0NIMl1bQ0gyXUMoL1tDSDJdW05IXTMpPVtDSF1cQzQ9W0NIXU49QyhbQ0BASF00NSlbQ0hdPVtDSF1bQ0hdPU41

>  <s_glide_docking_method>  (1) 
confgen

>  <s_i_glide_gridfile>  (1) 
gpcr_5ht2c_6bqh_protein_autoprepared_prepared

>  <s_lp_Force_Field>  (1) 
S-OPLS

>  <s_lp_Variant>  (1) 
DiffSBDD_16-8

>  <s_m_source_file>  (1) 
generated_GPCR_5HT2C_ligand_DiffSBDD_2026-06-23_prepared.sdf

>  <GenAI_Model>  (1) 
DiffSBDD

>  <Protein>  (1) 
GPCR_5HT2C

$$$$
DiffSBDD_73
     RDKit          3D

  0  0  0  0  0  0  0  0  0  0999 V3000
M  V30 BEGIN CTAB
M  V30 COUNTS 64 65 0 0 1
M  V30 BEGIN ATOM
M  V30 1 C 38.120713 31.866237 60.028066 0 CFG=1
M  V30 2 C 40.519674 28.317277 57.831987 0
M  V30 3 N 38.818439 27.719711 53.539792 0
M  V30 4 C 39.243805 35.286903 61.379243 0
M  V30 5 C 38.777516 34.267755 60.594702 0
M  V30 6 C 38.317836 31.774638 58.513535 0
M  V30 7 C 39.489250 28.107404 52.294256 0 CFG=2
M  V30 8 N 38.428952 27.902792 56.507617 0
M  V30 9 O 40.322122 26.137747 54.142823 0
M  V30 10 C 35.483987 31.797059 59.767756 0
M  V30 11 C 38.577658 26.643755 55.731275 0 CFG=1
M  V30 12 C 40.580086 33.875906 63.177556 0
M  V30 13 C 40.137050 35.202905 62.614114 0 CFG=1
M  V30 14 C 39.314394 26.800036 54.385104 0
M  V30 15 O 38.705202 30.462465 58.121525 0
M  V30 16 C 40.419264 30.226976 51.106517 0
M  V30 17 C 39.059909 32.810113 60.704059 0
M  V30 18 C 41.189342 33.079206 62.069617 0
M  V30 19 C 39.606639 28.784542 56.677501 0 CFG=1
M  V30 20 C 36.724032 31.820870 60.632368 0 CFG=1
M  V30 21 O 41.245140 36.061528 62.445742 0
M  V30 22 C 39.764855 29.622953 52.356793 0
M  V30 23 C 39.169341 30.246083 56.876547 0
M  V30 24 O 39.245101 31.097913 55.991001 0
M  V30 25 C 39.153882 25.505720 56.598923 0
M  V30 26 C 40.124000 32.298072 61.371037 0
M  V30 27 C 38.628519 27.688066 51.101711 0
M  V30 28 C 37.629906 30.625608 60.760510 0
M  V30 29 H 41.197547 29.103820 58.167366 0
M  V30 30 H 39.940107 28.000117 58.699323 0
M  V30 31 H 41.146845 27.481519 57.526046 0
M  V30 32 H 37.971735 28.207380 53.789162 0
M  V30 33 H 38.918610 36.287755 61.134347 0
M  V30 34 H 38.105731 34.557562 59.799332 0
M  V30 35 H 37.399291 32.053232 57.997861 0
M  V30 36 H 39.080588 32.493518 58.208850 0
M  V30 37 H 40.445119 27.605994 52.167746 0
M  V30 38 H 37.646536 28.442026 56.163405 0
M  V30 39 H 35.498946 30.949828 59.080037 0
M  V30 40 H 34.594515 31.737740 60.389905 0
M  V30 41 H 35.418630 32.718394 59.188297 0
M  V30 42 H 37.566197 26.326118 55.474623 0
M  V30 43 H 41.308191 34.035712 63.974369 0
M  V30 44 H 39.746091 33.337755 63.631340 0
M  V30 45 H 39.544427 35.675566 63.398290 0
M  V30 46 H 40.659525 31.277573 51.272236 0
M  V30 47 H 41.345573 29.712096 50.855625 0
M  V30 48 H 39.756817 30.182594 50.241916 0
M  V30 49 H 41.892946 32.360771 62.490910 0
M  V30 50 H 41.761199 33.686173 61.367761 0
M  V30 51 H 40.214680 28.792768 55.774020 0
M  V30 52 H 36.591066 32.417603 61.533310 0
M  V30 53 H 41.467489 36.444960 63.283334 0
M  V30 54 H 38.837435 30.138990 52.567914 0
M  V30 55 H 40.403455 29.841272 53.212486 0
M  V30 56 H 39.035310 24.541529 56.103108 0
M  V30 57 H 40.217489 25.628951 56.796176 0
M  V30 58 H 38.639437 25.442256 57.558563 0
M  V30 59 H 40.250150 31.225508 61.392432 0
M  V30 60 H 39.083470 27.976841 50.156025 0
M  V30 61 H 38.498409 26.607454 51.068884 0
M  V30 62 H 37.645136 28.143043 51.160872 0
M  V30 63 H 37.377600 29.746882 60.167800 0
M  V30 64 H 38.042840 30.414565 61.745292 0
M  V30 END ATOM
M  V30 BEGIN BOND
M  V30 1 2 5 4
M  V30 2 1 1 6 CFG=3
M  V30 3 1 7 3
M  V30 4 1 11 8
M  V30 5 1 13 4
M  V30 6 1 13 12
M  V30 7 1 14 3
M  V30 8 2 14 9
M  V30 9 1 14 11
M  V30 10 1 15 6
M  V30 11 1 17 1
M  V30 12 1 17 5
M  V30 13 1 18 12
M  V30 14 1 19 2
M  V30 15 1 19 8
M  V30 16 1 20 1
M  V30 17 1 20 10
M  V30 18 1 21 13
M  V30 19 1 22 7
M  V30 20 1 22 16
M  V30 21 1 23 15
M  V30 22 1 23 19
M  V30 23 2 24 23
M  V30 24 1 25 11
M  V30 25 2 26 17
M  V30 26 1 26 18
M  V30 27 1 27 7
M  V30 28 1 28 1
M  V30 29 1 28 20
M  V30 30 1 29 2
M  V30 31 1 30 2
M  V30 32 1 31 2
M  V30 33 1 32 3
M  V30 34 1 33 4
M  V30 35 1 34 5
M  V30 36 1 35 6
M  V30 37 1 36 6
M  V30 38 1 7 37 CFG=3
M  V30 39 1 38 8
M  V30 40 1 39 10
M  V30 41 1 40 10
M  V30 42 1 41 10
M  V30 43 1 11 42 CFG=3
M  V30 44 1 43 12
M  V30 45 1 44 12
M  V30 46 1 13 45 CFG=1
M  V30 47 1 46 16
M  V30 48 1 47 16
M  V30 49 1 48 16
M  V30 50 1 49 18
M  V30 51 1 50 18
M  V30 52 1 19 51 CFG=3
M  V30 53 1 20 52 CFG=1
M  V30 54 1 53 21
M  V30 55 1 54 22
M  V30 56 1 55 22
M  V30 57 1 56 25
M  V30 58 1 57 25
M  V30 59 1 58 25
M  V30 60 1 59 26
M  V30 61 1 60 27
M  V30 62 1 61 27
M  V30 63 1 62 27
M  V30 64 1 63 28
M  V30 65 1 64 28
M  V30 END BOND
M  V30 END CTAB
M  END
>  <i_epik_Tot_Q>  (1) 
0

>  <i_epik_Tot_abs_Q>  (1) 
0

>  <i_i_glide_confnum>  (1) 
1291

>  <i_i_glide_lignum>  (1) 
158

>  <i_i_glide_posenum>  (1) 
178

>  <i_i_glide_rotatable_bonds>  (1) 
12

>  <i_lp_mmshare_version>  (1) 
72125

>  <i_m_source_file_index>  (1) 
74

>  <i_f3d_flags>  (1) 
0

>  <num_sample>  (1) 
100

>  <b_lp_Chiralities_Consistent>  (1) 
1

>  <r_epik_Charging_Adjusted_Penalty>  (1) 
0.088841992990236665

>  <r_epik_Ionization_Penalty>  (1) 
0.088842122646257599

>  <r_epik_Ionization_Penalty_Charging>  (1) 
0

>  <r_epik_Ionization_Penalty_Neutral>  (1) 
0.088842122646257599

>  <r_epik_State_Penalty>  (1) 
0.088841992990236665

>  <r_glide_ring_energy>  (1) 
0

>  <r_i_docking_score>  (1) 
-5.8328333633775413

>  <r_i_glide_ecoul>  (1) 
-1.8566925095977775

>  <r_i_glide_eff_state_penalty>  (1) 
0.088841992990236665

>  <r_i_glide_einternal>  (1) 
8.4278176511815666

>  <r_i_glide_emodel>  (1) 
-56.483317205260228

>  <r_i_glide_emodel_strain>  (1) 
0.11625774267760391

>  <r_i_glide_energy>  (1) 
-45.093728846113031

>  <r_i_glide_erotb>  (1) 
1.2671681791471729

>  <r_i_glide_esite>  (1) 
-0.010841430038664026

>  <r_i_glide_evdw>  (1) 
-43.237036336515253

>  <r_i_glide_gscore>  (1) 
-5.9216753563677784

>  <r_i_glide_gscore_strain>  (1) 
0

>  <r_i_glide_hbond>  (1) 
0

>  <r_i_glide_ligand_efficiency>  (1) 
-0.20831547726348362

>  <r_i_glide_ligand_efficiency_ln>  (1) 
-1.3463891996967725

>  <r_i_glide_ligand_efficiency_sa>  (1) 
-0.63256848092930973

>  <r_i_glide_lipo>  (1) 
-3.4576121385794645

>  <r_i_glide_metal>  (1) 
-0

>  <r_i_glide_rewards>  (1) 
-1.280034273631393

>  <r_lp_Energy>  (1) 
23.544556

>  <s_epik_Chemistry_Notes>  (1) 
This compound has an ester and may undergo hydrolysis at high or low pH.

>  <s_epik_cmdline>  (1) 
J2VwaWtfcHl0aG9uJywgJy1waHQnLCAnMS4wJywgJy1waCcsICc3LjQnLCAnLXRuJywgJzgnLCAnLW1hJywgJzUwMCcsICctaW1hZScsICc8aW5maWxlLm1hZT4nLCAnLW9tYWUnLCAnPG91dGZpbGUubWFlPic=

>  <s_epik_input>  (1) 
W09IXVtDQEhdMVtDSF09W0NIXUMoPVtDSF1bQ0gyXVtDSDJdMSlbQ0BAXTIoW0NAQEhdKFtDSDNdKVtDSDJdMilbQ0gyXU9DKD1PKVtDQEBIXShbQ0gzXSlbTkhdW0NASF0oW0NIM10pQyg9TylbTkhdW0NAQEhdKFtDSDNdKVtDSDJdW0NIM10=

>  <s_glide_docking_method>  (1) 
confgen

>  <s_i_glide_gridfile>  (1) 
gpcr_5ht2c_6bqh_protein_autoprepared_prepared

>  <s_lp_Force_Field>  (1) 
S-OPLS

>  <s_lp_Variant>  (1) 
DiffSBDD_73-1

>  <s_m_source_file>  (1) 
generated_GPCR_5HT2C_ligand_DiffSBDD_2026-06-23_prepared.sdf

>  <GenAI_Model>  (1) 
DiffSBDD

>  <Protein>  (1) 
GPCR_5HT2C

$$$$
DiffSBDD_67
     RDKit          3D

  0  0  0  0  0  0  0  0  0  0999 V3000
M  V30 BEGIN CTAB
M  V30 COUNTS 76 77 0 0 1
M  V30 BEGIN ATOM
M  V30 1 C 38.597268 32.131855 59.801781 0
M  V30 2 O 42.444665 33.976178 64.942855 0
M  V30 3 O 42.639541 28.582953 65.017854 0 CHG=-1
M  V30 4 C 37.763786 31.230462 58.877249 0 CFG=1
M  V30 5 O 36.366450 30.937923 60.842380 0
M  V30 6 C 41.866182 33.030832 65.475671 0
M  V30 7 C 38.663203 30.174347 58.126497 0 CFG=1
M  V30 8 C 38.459389 33.534204 59.737972 0
M  V30 9 C 35.600057 29.760105 58.897439 0
M  V30 10 C 38.632631 28.745521 58.753572 0
M  V30 11 N 38.636002 26.055207 57.290392 0
M  V30 12 C 41.261768 31.753561 62.531384 0
M  V30 13 C 37.485347 24.537690 56.035047 0
M  V30 14 C 39.877278 30.988493 54.507553 0
M  V30 15 C 39.228081 34.358248 60.587250 0
M  V30 16 C 37.379158 29.552566 55.916767 0
M  V30 17 C 39.141664 31.416480 55.802276 0
M  V30 18 C 40.276897 32.382298 61.562677 0
M  V30 19 C 40.614434 31.346094 63.876373 0 CFG=2
M  V30 20 C 39.448858 25.747022 56.099302 0
M  V30 21 C 37.661772 24.980667 57.452765 0
M  V30 22 C 38.517330 25.055318 55.084123 0
M  V30 23 C 38.060904 32.474339 55.498781 0
M  V30 24 O 43.258452 30.503978 64.185401 0
M  V30 25 O 36.568253 23.800314 55.679631 0
M  V30 26 C 39.843306 27.826895 58.487019 0
M  V30 27 C 39.409916 26.351521 58.492150 0
M  V30 28 C 42.367133 29.705025 64.544894 0
M  V30 29 C 42.424607 32.361926 66.725457 0
M  V30 30 C 40.546681 32.489257 64.919909 0
M  V30 31 C 38.633682 30.153595 56.555873 0 CFG=1
M  V30 32 C 39.504864 31.559069 60.721922 0
M  V30 33 N 41.074975 30.055209 64.422849 0
M  V30 34 C 36.555194 30.665043 59.654275 0
M  V30 35 C 40.137344 33.783466 61.497643 0
M  V30 36 H 37.313039 31.881459 58.134791 0
M  V30 37 H 39.659760 30.515580 58.316554 0
M  V30 38 H 37.765495 33.978093 59.039176 0
M  V30 39 H 34.742038 30.344499 58.567831 0
M  V30 40 H 36.044446 29.329216 58.013497 0
M  V30 41 H 35.254051 28.938399 59.522386 0
M  V30 42 H 38.525153 28.804721 59.836296 0
M  V30 43 H 37.735820 28.229176 58.425807 0
M  V30 44 H 41.644559 30.860871 62.038489 0
M  V30 45 H 42.122455 32.409105 62.676414 0
M  V30 46 H 39.464535 30.081792 54.068284 0
M  V30 47 H 39.827777 31.737871 53.723869 0
M  V30 48 H 40.929994 30.789901 54.706842 0
M  V30 49 H 39.121828 35.431813 60.538053 0
M  V30 50 H 36.483724 30.137255 56.117953 0
M  V30 51 H 37.469878 29.465632 54.835247 0
M  V30 52 H 37.246350 28.542049 56.290085 0
M  V30 53 H 39.884659 31.912709 56.426698 0
M  V30 54 H 39.578415 31.102896 63.639969 0
M  V30 55 H 39.896170 26.651301 55.684756 0
M  V30 56 H 40.260286 25.065324 56.362038 0
M  V30 57 H 38.061809 24.156532 58.043670 0
M  V30 58 H 36.732303 25.340093 57.895763 0
M  V30 59 H 39.014532 24.238906 54.567985 0
M  V30 60 H 38.071001 25.750532 54.372771 0
M  V30 61 H 37.251293 32.081988 54.882231 0
M  V30 62 H 37.622139 32.885051 56.402683 0
M  V30 63 H 38.485984 33.323759 54.967324 0
M  V30 64 H 40.357017 28.055269 57.557151 0
M  V30 65 H 40.587224 27.992850 59.267565 0
M  V30 66 H 40.267163 25.682419 58.567595 0
M  V30 67 H 38.785172 26.182255 59.367760 0
M  V30 68 H 41.727927 31.610174 67.097766 0
M  V30 69 H 43.370647 31.871654 66.494605 0
M  V30 70 H 42.594925 33.098829 67.509343 0
M  V30 71 H 40.045601 33.336421 64.457324 0
M  V30 72 H 39.937330 32.171515 65.763618 0
M  V30 73 H 39.397256 29.421885 56.308807 0
M  V30 74 H 39.614589 30.487613 60.777013 0
M  V30 75 H 40.368881 29.392826 64.711670 0
M  V30 76 H 40.728451 34.417722 62.143647 0
M  V30 END ATOM
M  V30 BEGIN BOND
M  V30 1 1 4 1
M  V30 2 2 6 2
M  V30 3 1 7 4
M  V30 4 2 8 1
M  V30 5 1 10 7
M  V30 6 1 15 8
M  V30 7 1 17 14
M  V30 8 1 18 12
M  V30 9 1 19 12
M  V30 10 1 20 11
M  V30 11 1 21 11
M  V30 12 1 21 13
M  V30 13 1 22 13
M  V30 14 1 22 20
M  V30 15 1 23 17
M  V30 16 2 25 13
M  V30 17 1 26 10
M  V30 18 1 27 11
M  V30 19 1 27 26
M  V30 20 1 28 3
M  V30 21 2 28 24
M  V30 22 1 29 6
M  V30 23 1 30 6
M  V30 24 1 30 19
M  V30 25 1 31 7
M  V30 26 1 31 16
M  V30 27 1 31 17
M  V30 28 1 32 1
M  V30 29 2 32 18
M  V30 30 1 33 19
M  V30 31 1 33 28
M  V30 32 1 34 4
M  V30 33 2 34 5
M  V30 34 1 34 9
M  V30 35 2 35 15
M  V30 36 1 35 18
M  V30 37 1 4 36 CFG=3
M  V30 38 1 7 37 CFG=3
M  V30 39 1 38 8
M  V30 40 1 39 9
M  V30 41 1 40 9
M  V30 42 1 41 9
M  V30 43 1 42 10
M  V30 44 1 43 10
M  V30 45 1 44 12
M  V30 46 1 45 12
M  V30 47 1 46 14
M  V30 48 1 47 14
M  V30 49 1 48 14
M  V30 50 1 49 15
M  V30 51 1 50 16
M  V30 52 1 51 16
M  V30 53 1 52 16
M  V30 54 1 53 17
M  V30 55 1 19 54 CFG=3
M  V30 56 1 55 20
M  V30 57 1 56 20
M  V30 58 1 57 21
M  V30 59 1 58 21
M  V30 60 1 59 22
M  V30 61 1 60 22
M  V30 62 1 61 23
M  V30 63 1 62 23
M  V30 64 1 63 23
M  V30 65 1 64 26
M  V30 66 1 65 26
M  V30 67 1 66 27
M  V30 68 1 67 27
M  V30 69 1 68 29
M  V30 70 1 69 29
M  V30 71 1 70 29
M  V30 72 1 71 30
M  V30 73 1 72 30
M  V30 74 1 31 73 CFG=3
M  V30 75 1 74 32
M  V30 76 1 75 33
M  V30 77 1 76 35
M  V30 END BOND
M  V30 END CTAB
M  END
>  <i_epik_Tot_Q>  (1) 
-1

>  <i_epik_Tot_abs_Q>  (1) 
1

>  <i_i_glide_confnum>  (1) 
2686

>  <i_i_glide_lignum>  (1) 
151

>  <i_i_glide_posenum>  (1) 
203

>  <i_i_glide_rotatable_bonds>  (1) 
15

>  <i_lp_mmshare_version>  (1) 
72125

>  <i_m_source_file_index>  (1) 
68

>  <i_f3d_flags>  (1) 
0

>  <num_sample>  (1) 
100

>  <b_lp_Chiralities_Consistent>  (1) 
1

>  <r_epik_Charging_Adjusted_Penalty>  (1) 
0.60629678857330549

>  <r_epik_Ionization_Penalty>  (1) 
0.60629682340024582

>  <r_epik_Ionization_Penalty_Charging>  (1) 
0.00088625580114290448

>  <r_epik_Ionization_Penalty_Neutral>  (1) 
0.60541056759910294

>  <r_epik_State_Penalty>  (1) 
0.60541053277216261

>  <r_glide_ring_energy>  (1) 
0

>  <r_i_docking_score>  (1) 
-5.8265966842869945

>  <r_i_glide_ecoul>  (1) 
-2.8618657762757937

>  <r_i_glide_eff_state_penalty>  (1) 
0.60541053277216261

>  <r_i_glide_einternal>  (1) 
13.752448115189924

>  <r_i_glide_emodel>  (1) 
-57.189977660487209

>  <r_i_glide_emodel_strain>  (1) 
4.3889184017747596

>  <r_i_glide_energy>  (1) 
-48.092709927710544

>  <r_i_glide_erotb>  (1) 
0.86140140191631331

>  <r_i_glide_esite>  (1) 
-0.081661967994215712

>  <r_i_glide_evdw>  (1) 
-45.230844151434752

>  <r_i_glide_gscore>  (1) 
-6.4320072170591569

>  <r_i_glide_gscore_strain>  (1) 
0.09722960044368989

>  <r_i_glide_hbond>  (1) 
-0.25921416543388043

>  <r_i_glide_ligand_efficiency>  (1) 
-0.16647419097962843

>  <r_i_glide_ligand_efficiency_ln>  (1) 
-1.2790672865471304

>  <r_i_glide_ligand_efficiency_sa>  (1) 
-0.54454811762936384

>  <r_i_glide_lipo>  (1) 
-3.1401274916628963

>  <r_i_glide_metal>  (1) 
-0

>  <r_i_glide_rewards>  (1) 
-1.2188125203150604

>  <r_lp_Energy>  (1) 
18.776150999999999

>  <r_lp_tautomer_probability>  (1) 
0.99999992000000393

>  <s_epik_cmdline>  (1) 
J2VwaWtfcHl0aG9uJywgJy1waHQnLCAnMS4wJywgJy1waCcsICc3LjQnLCAnLXRuJywgJzgnLCAnLW1hJywgJzUwMCcsICctaW1hZScsICc8aW5maWxlLm1hZT4nLCAnLW9tYWUnLCAnPG91dGZpbGUubWFlPic=

>  <s_epik_input>  (1) 
Tz1DKFtDSDNdKVtDSDJdW0NASF0oW05IXUMoPU8pW09IXSlbQ0gyXWMoW2NIXTEpW2NIXVtjSF1bY0hdYzFbQ0BIXShDKD1PKVtDSDNdKVtDQEhdKFtDQEBIXShbQ0gzXSlbQ0hdKFtDSDNdKVtDSDNdKVtDSDJdW0NIMl1bQ0gyXU4yW0NIMl1bQ0gyXUMoPU8pW0NIMl0y

>  <s_glide_docking_method>  (1) 
confgen

>  <s_i_glide_gridfile>  (1) 
gpcr_5ht2c_6bqh_protein_autoprepared_prepared

>  <s_lp_Force_Field>  (1) 
S-OPLS

>  <s_lp_Variant>  (1) 
DiffSBDD_67-3

>  <s_m_source_file>  (1) 
generated_GPCR_5HT2C_ligand_DiffSBDD_2026-06-23_prepared.sdf

>  <GenAI_Model>  (1) 
DiffSBDD

>  <Protein>  (1) 
GPCR_5HT2C

$$$$
DiffSBDD_73
     RDKit          3D

  0  0  0  0  0  0  0  0  0  0999 V3000
M  V30 BEGIN CTAB
M  V30 COUNTS 65 66 0 0 1
M  V30 BEGIN ATOM
M  V30 1 C 38.878123 27.742589 55.091661 0 CFG=1
M  V30 2 C 38.269096 30.088223 59.915086 0
M  V30 3 N 37.636348 34.575542 61.128804 0
M  V30 4 C 39.645187 30.588639 52.571264 0
M  V30 5 C 39.137274 29.857105 53.612117 0
M  V30 6 C 39.525293 28.580234 56.210077 0
M  V30 7 C 38.256185 35.892920 61.262814 0 CFG=2
M  V30 8 N 37.245182 32.047667 58.667418 0 CHG=1
M  V30 9 O 37.025644 34.830677 58.967761 0
M  V30 10 C 39.603755 25.589433 56.535433 0
M  V30 11 C 36.699656 32.661092 59.907225 0 CFG=1
M  V30 12 C 40.209193 28.636917 50.883266 0
M  V30 13 C 40.205235 30.092874 51.236208 0 CFG=1
M  V30 14 C 37.125999 34.130018 59.969102 0
M  V30 15 O 38.582082 29.044676 57.173455 0
M  V30 16 C 40.331631 36.974848 62.333184 0
M  V30 17 C 38.955040 28.378872 53.704713 0
M  V30 18 C 38.866445 28.058202 51.190751 0
M  V30 19 C 37.543941 30.593924 58.649175 0 CFG=1
M  V30 20 C 38.986755 26.216260 55.298779 0 CFG=1
M  V30 21 O 39.645297 30.828528 50.167751 0
M  V30 22 C 39.348384 35.800906 62.342130 0
M  V30 23 C 38.440160 30.360975 57.420181 0
M  V30 24 O 38.995902 31.268377 56.798882 0
M  V30 25 C 35.168283 32.532979 59.962196 0
M  V30 26 C 38.848584 27.590480 52.604548 0
M  V30 27 C 37.198533 36.964791 61.581466 0
M  V30 28 C 37.656228 26.894788 55.408915 0
M  V30 29 H 38.560952 29.042055 59.809763 0
M  V30 30 H 39.171206 30.666756 60.118609 0
M  V30 31 H 37.630750 30.137665 60.796582 0
M  V30 32 H 37.647581 33.964661 61.932912 0
M  V30 33 H 39.696710 31.660846 52.701405 0
M  V30 34 H 38.844383 30.424989 54.476291 0
M  V30 35 H 40.253765 27.975488 56.745875 0
M  V30 36 H 40.135199 29.382872 55.802361 0
M  V30 37 H 38.740784 36.146565 60.317639 0
M  V30 38 H 38.090362 32.541010 58.415275 0
M  V30 39 H 39.222703 26.048727 57.447167 0
M  V30 40 H 39.381634 24.522263 56.570686 0
M  V30 41 H 40.683974 25.725382 56.506278 0
M  V30 42 H 37.120123 32.196473 60.796031 0
M  V30 43 H 40.445136 28.516471 49.826011 0
M  V30 44 H 40.996637 28.137815 51.441319 0
M  V30 45 H 41.245073 30.411482 51.239991 0
M  V30 46 H 41.107465 36.831693 63.084643 0
M  V30 47 H 40.828201 37.069578 61.367596 0
M  V30 48 H 39.836761 37.919816 62.553792 0
M  V30 49 H 38.692643 27.181801 50.567760 0
M  V30 50 H 38.045136 28.744215 50.998913 0
M  V30 51 H 36.604673 30.054642 58.520586 0
M  V30 52 H 39.152737 25.584889 54.434887 0
M  V30 53 H 38.892063 30.363833 49.827263 0
M  V30 54 H 38.886118 35.725350 63.326181 0
M  V30 55 H 39.924332 34.884469 62.203339 0
M  V30 56 H 34.762285 32.993842 60.863812 0
M  V30 57 H 34.693991 33.013658 59.104980 0
M  V30 58 H 34.860325 31.488416 59.963054 0
M  V30 59 H 38.710847 26.535078 52.726396 0
M  V30 60 H 37.646839 37.953555 61.670389 0
M  V30 61 H 36.449401 37.027368 60.792007 0
M  V30 62 H 36.681920 36.752182 62.517379 0
M  V30 63 H 37.244890 26.938838 56.413477 0
M  V30 64 H 36.933569 26.715326 54.615445 0
M  V30 65 H 36.565290 32.190761 57.912022 0
M  V30 END ATOM
M  V30 BEGIN BOND
M  V30 1 2 5 4
M  V30 2 1 1 6 CFG=1
M  V30 3 1 7 3
M  V30 4 1 11 8
M  V30 5 1 13 4
M  V30 6 1 13 12
M  V30 7 1 14 3
M  V30 8 2 14 9
M  V30 9 1 14 11
M  V30 10 1 15 6
M  V30 11 1 17 1
M  V30 12 1 17 5
M  V30 13 1 18 12
M  V30 14 1 19 2
M  V30 15 1 19 8
M  V30 16 1 20 1
M  V30 17 1 20 10
M  V30 18 1 21 13
M  V30 19 1 22 7
M  V30 20 1 22 16
M  V30 21 1 23 15
M  V30 22 1 23 19
M  V30 23 2 24 23
M  V30 24 1 25 11
M  V30 25 2 26 17
M  V30 26 1 26 18
M  V30 27 1 27 7
M  V30 28 1 28 1
M  V30 29 1 28 20
M  V30 30 1 29 2
M  V30 31 1 30 2
M  V30 32 1 31 2
M  V30 33 1 32 3
M  V30 34 1 33 4
M  V30 35 1 34 5
M  V30 36 1 35 6
M  V30 37 1 36 6
M  V30 38 1 7 37 CFG=3
M  V30 39 1 38 8
M  V30 40 1 39 10
M  V30 41 1 40 10
M  V30 42 1 41 10
M  V30 43 1 11 42 CFG=1
M  V30 44 1 43 12
M  V30 45 1 44 12
M  V30 46 1 13 45 CFG=1
M  V30 47 1 46 16
M  V30 48 1 47 16
M  V30 49 1 48 16
M  V30 50 1 49 18
M  V30 51 1 50 18
M  V30 52 1 19 51 CFG=3
M  V30 53 1 20 52 CFG=3
M  V30 54 1 53 21
M  V30 55 1 54 22
M  V30 56 1 55 22
M  V30 57 1 56 25
M  V30 58 1 57 25
M  V30 59 1 58 25
M  V30 60 1 59 26
M  V30 61 1 60 27
M  V30 62 1 61 27
M  V30 63 1 62 27
M  V30 64 1 63 28
M  V30 65 1 64 28
M  V30 66 1 65 8
M  V30 END BOND
M  V30 END CTAB
M  END
>  <i_epik_Tot_Q>  (1) 
1

>  <i_epik_Tot_abs_Q>  (1) 
1

>  <i_i_glide_confnum>  (1) 
1663

>  <i_i_glide_lignum>  (1) 
160

>  <i_i_glide_posenum>  (1) 
326

>  <i_i_glide_rotatable_bonds>  (1) 
12

>  <i_lp_mmshare_version>  (1) 
72125

>  <i_m_source_file_index>  (1) 
74

>  <i_f3d_flags>  (1) 
0

>  <num_sample>  (1) 
100

>  <b_lp_Chiralities_Consistent>  (1) 
1

>  <r_epik_Charging_Adjusted_Penalty>  (1) 
2.336176939713237

>  <r_epik_Ionization_Penalty>  (1) 
1.168091143672223

>  <r_epik_Ionization_Penalty_Charging>  (1) 
1.1680884698566185

>  <r_epik_Ionization_Penalty_Neutral>  (1) 
2.673815604532901e-06

>  <r_epik_State_Penalty>  (1) 
1.1680884698566185

>  <r_glide_ring_energy>  (1) 
0

>  <r_i_docking_score>  (1) 
-5.8232800167077299

>  <r_i_glide_ecoul>  (1) 
-4.7088490742596978

>  <r_i_glide_eff_state_penalty>  (1) 
1.1680884698566185

>  <r_i_glide_einternal>  (1) 
10.222593899589146

>  <r_i_glide_emodel>  (1) 
-55.024428901161542

>  <r_i_glide_emodel_strain>  (1) 
7.4529128995883767

>  <r_i_glide_energy>  (1) 
-45.636398254556248

>  <r_i_glide_erotb>  (1) 
1.2613414017289797

>  <r_i_glide_esite>  (1) 
-0.14883803015297326

>  <r_i_glide_evdw>  (1) 
-40.927549180296552

>  <r_i_glide_gscore>  (1) 
-6.9913684865643484

>  <r_i_glide_gscore_strain>  (1) 
0.86322822489709417

>  <r_i_glide_hbond>  (1) 
-0.52000000000000002

>  <r_i_glide_ligand_efficiency>  (1) 
-0.20797428631099035

>  <r_i_glide_ligand_efficiency_ln>  (1) 
-1.3441840067869333

>  <r_i_glide_ligand_efficiency_sa>  (1) 
-0.63153242424566491

>  <r_i_glide_lipo>  (1) 
-4.1785508638483284

>  <r_i_glide_metal>  (1) 
-0

>  <r_i_glide_rewards>  (1) 
-1.5158443990353381

>  <r_lp_Energy>  (1) 
24.831178999999999

>  <s_epik_Chemistry_Notes>  (1) 
This compound has an ester and may undergo hydrolysis at high or low pH.

>  <s_epik_cmdline>  (1) 
J2VwaWtfcHl0aG9uJywgJy1waHQnLCAnMS4wJywgJy1waCcsICc3LjQnLCAnLXRuJywgJzgnLCAnLW1hJywgJzUwMCcsICctaW1hZScsICc8aW5maWxlLm1hZT4nLCAnLW9tYWUnLCAnPG91dGZpbGUubWFlPic=

>  <s_epik_input>  (1) 
W09IXVtDQEhdMVtDSF09W0NIXUMoPVtDSF1bQ0gyXVtDSDJdMSlbQ0BAXTIoW0NAQEhdKFtDSDNdKVtDSDJdMilbQ0gyXU9DKD1PKVtDQEBIXShbQ0gzXSlbTkhdW0NASF0oW0NIM10pQyg9TylbTkhdW0NAQEhdKFtDSDNdKVtDSDJdW0NIM10=

>  <s_glide_docking_method>  (1) 
confgen

>  <s_i_glide_gridfile>  (1) 
gpcr_5ht2c_6bqh_protein_autoprepared_prepared

>  <s_lp_Force_Field>  (1) 
S-OPLS

>  <s_lp_Variant>  (1) 
DiffSBDD_73-3

>  <s_m_source_file>  (1) 
generated_GPCR_5HT2C_ligand_DiffSBDD_2026-06-23_prepared.sdf

>  <GenAI_Model>  (1) 
DiffSBDD

>  <Protein>  (1) 
GPCR_5HT2C

$$$$
DiffSBDD_23
     RDKit          3D

  0  0  0  0  0  0  0  0  0  0999 V3000
M  V30 BEGIN CTAB
M  V30 COUNTS 67 69 0 0 1
M  V30 BEGIN ATOM
M  V30 1 C 42.522412 28.460511 64.968694 0
M  V30 2 C 42.509290 27.106685 64.603679 0
M  V30 3 C 39.959853 25.757344 56.262137 0
M  V30 4 O 37.366972 32.907600 59.906194 0 CHG=-1
M  V30 5 C 41.288988 26.238979 64.867999 0
M  V30 6 N 41.411410 29.026959 65.589866 0
M  V30 7 C 41.093743 30.438841 65.594235 0 CFG=1
M  V30 8 C 39.159399 31.897159 61.750446 0 CFG=2
M  V30 9 C 43.684055 29.225461 64.701240 0
M  V30 10 C 37.799138 29.374597 59.095529 0
M  V30 11 C 38.049220 29.640963 56.579146 0
M  V30 12 C 40.080805 30.765550 64.484310 0
M  V30 13 C 40.478058 30.670487 66.967444 0
M  V30 14 C 38.466986 29.159033 55.321322 0
M  V30 15 C 41.060770 34.587855 62.796560 0
M  V30 16 C 44.753459 27.412426 63.767960 0
M  V30 17 C 38.874276 27.596100 57.631962 0
M  V30 18 O 40.845939 31.689843 67.593827 0
M  V30 19 P 37.692051 31.640940 60.591500 0
M  V30 20 N 44.788918 28.718497 64.114137 0
M  V30 21 C 39.197434 36.469365 61.822897 0
M  V30 22 C 40.996241 35.877256 63.355312 0
M  V30 23 O 36.644582 30.939215 61.367761 0
M  V30 24 C 40.066123 36.815691 62.870414 0
M  V30 25 C 43.644548 26.571730 63.990828 0
M  V30 26 C 39.087037 27.897189 55.218678 0
M  V30 27 C 38.253656 28.860486 57.736666 0
M  V30 28 C 39.291914 27.114938 56.373291 0
M  V30 29 C 39.254668 35.183213 61.255673 0
M  V30 30 C 40.216503 32.834986 61.125252 0
M  V30 31 C 39.724288 30.513859 62.141852 0
M  V30 32 O 39.662535 29.805111 67.367902 0 CHG=-1
M  V30 33 C 40.180850 34.233676 61.738724 0
M  V30 34 O 38.426848 30.581422 59.476643 0
M  V30 35 C 42.069533 33.591554 63.337857 0
M  V30 36 O 40.671303 30.574940 63.201270 0
M  V30 37 H 40.763211 25.778693 55.524626 0
M  V30 38 H 40.392009 25.455751 57.217076 0
M  V30 39 H 39.236926 24.999407 55.958682 0
M  V30 40 H 41.317722 25.318280 64.286240 0
M  V30 41 H 41.242959 25.980122 65.926131 0
M  V30 42 H 40.371259 26.763339 64.596031 0
M  V30 43 H 40.698711 28.464978 66.041383 0
M  V30 44 H 41.968299 31.078277 65.514774 0
M  V30 45 H 38.754641 32.368211 62.645178 0
M  V30 46 H 43.734142 30.267086 64.972794 0
M  V30 47 H 38.024085 28.619922 59.850061 0
M  V30 48 H 36.716378 29.498495 59.065591 0
M  V30 49 H 37.570282 30.607845 56.655899 0
M  V30 50 H 39.201953 30.138331 64.604912 0
M  V30 51 H 39.747521 31.797608 64.582815 0
M  V30 52 H 38.310455 29.757056 54.435316 0
M  V30 53 H 45.639964 27.022825 63.297461 0
M  V30 54 H 39.028797 26.996307 58.517050 0
M  V30 55 H 38.483615 37.190399 61.453819 0
M  V30 56 H 41.662089 36.146948 64.161818 0
M  V30 57 H 40.021016 37.803534 63.304465 0
M  V30 58 H 43.673250 25.535316 63.692082 0
M  V30 59 H 39.404683 27.529522 54.254262 0
M  V30 60 H 38.584585 34.922786 60.452166 0
M  V30 61 H 41.206176 32.392109 61.194905 0
M  V30 62 H 40.040296 32.931721 60.053955 0
M  V30 63 H 40.228708 30.065132 61.286082 0
M  V30 64 H 38.919195 29.827784 62.406834 0
M  V30 65 H 42.751873 34.082798 64.032297 0
M  V30 66 H 41.576402 32.807281 63.895235 0
M  V30 67 H 42.679187 33.143670 62.554943 0
M  V30 END ATOM
M  V30 BEGIN BOND
M  V30 1 2 2 1
M  V30 2 1 5 2
M  V30 3 1 6 1
M  V30 4 1 7 6
M  V30 5 1 9 1
M  V30 6 1 12 7
M  V30 7 1 13 7
M  V30 8 1 14 11
M  V30 9 2 18 13
M  V30 10 1 19 4
M  V30 11 1 19 8
M  V30 12 2 20 9
M  V30 13 1 20 16
M  V30 14 2 22 15
M  V30 15 2 23 19
M  V30 16 2 24 21
M  V30 17 1 24 22
M  V30 18 1 25 2
M  V30 19 2 25 16
M  V30 20 2 26 14
M  V30 21 1 27 10
M  V30 22 2 27 11
M  V30 23 1 27 17
M  V30 24 1 28 3
M  V30 25 2 28 17
M  V30 26 1 28 26
M  V30 27 1 29 21
M  V30 28 1 30 8
M  V30 29 1 31 8
M  V30 30 1 32 13
M  V30 31 1 33 15
M  V30 32 2 33 29
M  V30 33 1 33 30
M  V30 34 1 34 10
M  V30 35 1 34 19
M  V30 36 1 35 15
M  V30 37 1 36 12
M  V30 38 1 36 31
M  V30 39 1 37 3
M  V30 40 1 38 3
M  V30 41 1 39 3
M  V30 42 1 40 5
M  V30 43 1 41 5
M  V30 44 1 42 5
M  V30 45 1 43 6
M  V30 46 1 7 44 CFG=3
M  V30 47 1 8 45 CFG=1
M  V30 48 1 46 9
M  V30 49 1 47 10
M  V30 50 1 48 10
M  V30 51 1 49 11
M  V30 52 1 50 12
M  V30 53 1 51 12
M  V30 54 1 52 14
M  V30 55 1 53 16
M  V30 56 1 54 17
M  V30 57 1 55 21
M  V30 58 1 56 22
M  V30 59 1 57 24
M  V30 60 1 58 25
M  V30 61 1 59 26
M  V30 62 1 60 29
M  V30 63 1 61 30
M  V30 64 1 62 30
M  V30 65 1 63 31
M  V30 66 1 64 31
M  V30 67 1 65 35
M  V30 68 1 66 35
M  V30 69 1 67 35
M  V30 END BOND
M  V30 END CTAB
M  END
>  <i_epik_Tot_Q>  (1) 
-2

>  <i_epik_Tot_abs_Q>  (1) 
2

>  <i_i_glide_confnum>  (1) 
722

>  <i_i_glide_lignum>  (1) 
57

>  <i_i_glide_posenum>  (1) 
192

>  <i_i_glide_rotatable_bonds>  (1) 
13

>  <i_lp_mmshare_version>  (1) 
72125

>  <i_m_source_file_index>  (1) 
24

>  <i_f3d_flags>  (1) 
0

>  <num_sample>  (1) 
100

>  <b_lp_Chiralities_Consistent>  (1) 
1

>  <r_epik_Charging_Adjusted_Penalty>  (1) 
0.24647158034106029

>  <r_epik_Ionization_Penalty>  (1) 
0.24647497421130457

>  <r_epik_Ionization_Penalty_Charging>  (1) 
0.00050661666566131989

>  <r_epik_Ionization_Penalty_Neutral>  (1) 
0.24596835754564325

>  <r_epik_State_Penalty>  (1) 
0.24596496367539897

>  <r_glide_ring_energy>  (1) 
0

>  <r_i_docking_score>  (1) 
-5.8223486179051234

>  <r_i_glide_ecoul>  (1) 
-3.6827676055840568

>  <r_i_glide_eff_state_penalty>  (1) 
0.24596496367539897

>  <r_i_glide_einternal>  (1) 
7.1262451342646775

>  <r_i_glide_emodel>  (1) 
-62.616363143173423

>  <r_i_glide_emodel_strain>  (1) 
1.6520517061314237

>  <r_i_glide_energy>  (1) 
-47.813355058307621

>  <r_i_glide_erotb>  (1) 
0.94322731134637816

>  <r_i_glide_esite>  (1) 
0

>  <r_i_glide_evdw>  (1) 
-44.130587452723567

>  <r_i_glide_gscore>  (1) 
-6.0683135815805223

>  <r_i_glide_gscore_strain>  (1) 
0

>  <r_i_glide_hbond>  (1) 
-0.16

>  <r_i_glide_ligand_efficiency>  (1) 
-0.16173190605292009

>  <r_i_glide_ligand_efficiency_ln>  (1) 
-1.2702791667456914

>  <r_i_glide_ligand_efficiency_sa>  (1) 
-0.53402698761180278

>  <r_i_glide_lipo>  (1) 
-3.4222812031264289

>  <r_i_glide_metal>  (1) 
-0

>  <r_i_glide_rewards>  (1) 
-0.67031517632668425

>  <r_lp_Energy>  (1) 
45.739263999999999

>  <r_lp_tautomer_probability>  (1) 
0.99999999999999911

>  <s_epik_cmdline>  (1) 
J2VwaWtfcHl0aG9uJywgJy1waHQnLCAnMS4wJywgJy1waCcsICc3LjQnLCAnLXRuJywgJzgnLCAnLW1hJywgJzUwMCcsICctaW1hZScsICc8aW5maWxlLm1hZT4nLCAnLW9tYWUnLCAnPG91dGZpbGUubWFlPic=

>  <s_epik_input>  (1) 
W2NIXTFuW2NIXVtjSF1jKFtDSDNdKWMxW05IXVtDQEhdKEMoPU8pW09IXSlbQ0gyXU9bQ0gyXVtDQEBIXShbQ0gyXWMyW2NIXVtjSF1bY0hdW2NIXWMyW0NIM10pW1BAQF0oPU8pKFtPSF0pT1tDSDJdYzNbY0hdW2NIXVtjSF1jKFtDSDNdKVtjSF0z

>  <s_glide_docking_method>  (1) 
confgen

>  <s_i_glide_gridfile>  (1) 
gpcr_5ht2c_6bqh_protein_autoprepared_prepared

>  <s_lp_Force_Field>  (1) 
S-OPLS

>  <s_lp_Variant>  (1) 
DiffSBDD_23-1

>  <s_m_source_file>  (1) 
generated_GPCR_5HT2C_ligand_DiffSBDD_2026-06-23_prepared.sdf

>  <GenAI_Model>  (1) 
DiffSBDD

>  <Protein>  (1) 
GPCR_5HT2C

$$$$
DiffSBDD_8
     RDKit          3D

  0  0  0  0  0  0  0  0  0  0999 V3000
M  V30 BEGIN CTAB
M  V30 COUNTS 46 50 0 0 1
M  V30 BEGIN ATOM
M  V30 1 C 38.444918 30.805843 55.976331 0
M  V30 2 O 38.649825 26.043810 58.567768 0
M  V30 3 C 38.296414 31.428430 54.797776 0
M  V30 4 C 40.061015 28.567906 59.649187 0
M  V30 5 N 40.048176 28.589687 58.186090 0
M  V30 6 C 40.256568 26.612870 56.725726 0
M  V30 7 C 38.800003 29.185837 60.299109 0
M  V30 8 C 38.450575 32.422994 60.837456 0
M  V30 9 N 37.645138 30.974504 57.071728 0
M  V30 10 C 39.173004 24.240038 56.967791 0
M  V30 11 C 37.974790 30.032262 58.207432 0 CFG=1
M  V30 12 N 37.284477 32.032594 61.162902 0
M  V30 13 C 38.139417 25.161973 57.561615 0 CFG=1
M  V30 14 C 39.592385 25.550053 57.596711 0 CFG=1
M  V30 15 C 39.422284 29.904419 56.259462 0
M  V30 16 N 37.022102 30.937544 60.400712 0
M  V30 17 C 39.242701 29.470667 57.486893 0
M  V30 18 C 39.192215 31.678523 59.810451 0
M  V30 19 C 37.066072 25.768763 56.679092 0
M  V30 20 C 40.999389 27.709598 57.521009 0
M  V30 21 C 35.645180 30.912030 59.932993 0
M  V30 22 C 38.237841 30.494182 59.658070 0 CFG=1
M  V30 23 H 37.494379 32.136449 54.640636 0
M  V30 24 H 38.973173 31.240267 53.977366 0
M  V30 25 H 40.941739 29.120884 59.975732 0
M  V30 26 H 40.192689 27.546444 60.007407 0
M  V30 27 H 39.520807 27.056213 56.056369 0
M  V30 28 H 40.971661 26.119578 56.071859 0
M  V30 29 H 38.954131 29.308243 61.371846 0
M  V30 30 H 38.045291 28.413515 60.175306 0
M  V30 31 H 38.904280 33.298048 61.302585 0
M  V30 32 H 36.679168 31.352728 56.980604 0
M  V30 33 H 39.203305 24.138228 55.885588 0
M  V30 34 H 39.394692 23.337826 57.526339 0
M  V30 35 H 40.232319 29.626415 55.601873 0
M  V30 36 H 39.245145 32.278666 58.901675 0
M  V30 37 H 40.171228 31.391719 60.179251 0
M  V30 38 H 36.972092 25.209500 55.748184 0
M  V30 39 H 36.099697 25.737676 57.189902 0
M  V30 40 H 37.295205 26.807251 56.443001 0
M  V30 41 H 41.627963 28.296686 56.851607 0
M  V30 42 H 41.674251 27.251805 58.245637 0
M  V30 43 H 35.464960 30.009442 59.350427 0
M  V30 44 H 34.976950 30.939125 60.794433 0
M  V30 45 H 35.446787 31.784048 59.309460 0
M  V30 46 H 37.220997 29.243897 58.195951 0
M  V30 END ATOM
M  V30 BEGIN BOND
M  V30 1 2 3 1
M  V30 2 1 5 4
M  V30 3 1 7 4
M  V30 4 1 9 1
M  V30 5 1 11 9
M  V30 6 2 12 8
M  V30 7 1 13 2
M  V30 8 1 13 10
M  V30 9 1 14 2
M  V30 10 1 14 6 CFG=1
M  V30 11 1 14 10
M  V30 12 1 14 13
M  V30 13 1 15 1
M  V30 14 1 16 12
M  V30 15 1 17 5
M  V30 16 1 17 11
M  V30 17 2 17 15
M  V30 18 1 18 8
M  V30 19 1 13 19 CFG=3
M  V30 20 1 20 5
M  V30 21 1 20 6
M  V30 22 1 21 16
M  V30 23 1 22 7
M  V30 24 1 22 11
M  V30 25 1 22 16 CFG=1
M  V30 26 1 22 18
M  V30 27 1 23 3
M  V30 28 1 24 3
M  V30 29 1 25 4
M  V30 30 1 26 4
M  V30 31 1 27 6
M  V30 32 1 28 6
M  V30 33 1 29 7
M  V30 34 1 30 7
M  V30 35 1 31 8
M  V30 36 1 32 9
M  V30 37 1 33 10
M  V30 38 1 34 10
M  V30 39 1 35 15
M  V30 40 1 36 18
M  V30 41 1 37 18
M  V30 42 1 38 19
M  V30 43 1 39 19
M  V30 44 1 40 19
M  V30 45 1 41 20
M  V30 46 1 42 20
M  V30 47 1 43 21
M  V30 48 1 44 21
M  V30 49 1 45 21
M  V30 50 1 11 46 CFG=1
M  V30 END BOND
M  V30 END CTAB
M  END
>  <i_epik_Tot_Q>  (1) 
0

>  <i_epik_Tot_abs_Q>  (1) 
0

>  <i_i_glide_confnum>  (1) 
17

>  <i_i_glide_lignum>  (1) 
11

>  <i_i_glide_posenum>  (1) 
382

>  <i_i_glide_rotatable_bonds>  (1) 
3

>  <i_lp_mmshare_version>  (1) 
72125

>  <i_m_source_file_index>  (1) 
9

>  <i_f3d_flags>  (1) 
0

>  <num_sample>  (1) 
100

>  <b_lp_Chiralities_Consistent>  (1) 
1

>  <r_epik_Charging_Adjusted_Penalty>  (1) 
0.0013502642422006258

>  <r_epik_Ionization_Penalty>  (1) 
0.0017789760984620326

>  <r_epik_Ionization_Penalty_Charging>  (1) 
0.0013502642422006258

>  <r_epik_Ionization_Penalty_Neutral>  (1) 
0.00042871185626140696

>  <r_epik_State_Penalty>  (1) 
-0

>  <r_glide_ring_energy>  (1) 
0

>  <r_i_docking_score>  (1) 
-5.8181884173712017

>  <r_i_glide_ecoul>  (1) 
-7.7606466056367438

>  <r_i_glide_eff_state_penalty>  (1) 
-0

>  <r_i_glide_einternal>  (1) 
3.4578774195838324

>  <r_i_glide_emodel>  (1) 
-40.667994565588735

>  <r_i_glide_emodel_strain>  (1) 
1.045767430399593

>  <r_i_glide_energy>  (1) 
-32.358218193556738

>  <r_i_glide_erotb>  (1) 
0.61104831889555555

>  <r_i_glide_esite>  (1) 
-0.13087450529796954

>  <r_i_glide_evdw>  (1) 
-24.597571587919997

>  <r_i_glide_gscore>  (1) 
-5.8181884173712017

>  <r_i_glide_gscore_strain>  (1) 
0

>  <r_i_glide_hbond>  (1) 
-0.11642686126133914

>  <r_i_glide_ligand_efficiency>  (1) 
-0.2644631098805092

>  <r_i_glide_ligand_efficiency_ln>  (1) 
-1.4221774727844929

>  <r_i_glide_ligand_efficiency_sa>  (1) 
-0.74103603539262408

>  <r_i_glide_lipo>  (1) 
-1.9799082913885149

>  <r_i_glide_metal>  (1) 
-0

>  <r_i_glide_rewards>  (1) 
-1.8080515080774227

>  <r_lp_Energy>  (1) 
30.330791999999999

>  <r_lp_tautomer_probability>  (1) 
1

>  <s_epik_Chemistry_Notes>  (1) 
This compound has an imine and may undergo hydrolysis.

>  <s_epik_cmdline>  (1) 
J2VwaWtfcHl0aG9uJywgJy1waHQnLCAnMS4wJywgJy1waCcsICc3LjQnLCAnLXRuJywgJzgnLCAnLW1hJywgJzUwMCcsICctaW1hZScsICc8aW5maWxlLm1hZT4nLCAnLW9tYWUnLCAnPG91dGZpbGUubWFlPic=

>  <s_epik_input>  (1) 
W0NIM11bQ0BAXTEyW0NAQF0oTzEpKFtDSDJdMilbQ0gyXVtDSDJdTihbQ0gyXVtDSDJdMyljKFtjSF1jKFtDSDNdKVtuSF00KWM0W0NAQF0zNU4oW0NIM10pTj1bQ0hdW0NIMl01

>  <s_glide_docking_method>  (1) 
confgen

>  <s_i_glide_gridfile>  (1) 
gpcr_5ht2c_6bqh_protein_autoprepared_prepared

>  <s_lp_Force_Field>  (1) 
S-OPLS

>  <s_lp_Variant>  (1) 
DiffSBDD_8-1

>  <s_m_source_file>  (1) 
generated_GPCR_5HT2C_ligand_DiffSBDD_2026-06-23_prepared.sdf

>  <GenAI_Model>  (1) 
DiffSBDD

>  <Protein>  (1) 
GPCR_5HT2C

$$$$
DiffSBDD_12
     RDKit          3D

  0  0  0  0  0  0  0  0  0  0999 V3000
M  V30 BEGIN CTAB
M  V30 COUNTS 68 70 0 0 1
M  V30 BEGIN ATOM
M  V30 1 C 38.521751 26.915175 53.854565 0 CFG=1
M  V30 2 C 39.591362 32.563200 61.056833 0
M  V30 3 N 39.133072 27.213142 55.171442 0 CFG=1 CHG=1
M  V30 4 C 36.071061 31.766755 60.139016 0
M  V30 5 O 39.244921 30.623607 56.706709 0
M  V30 6 O 37.525852 28.537677 52.298361 0
M  V30 7 N 42.445239 31.209183 63.367734 0 CHG=-1
M  V30 8 C 42.865793 30.200690 64.167397 0
M  V30 9 O 40.897244 33.113171 64.126727 0
M  V30 10 C 39.148427 28.694944 55.267653 0 CFG=1
M  V30 11 C 41.575859 28.805988 67.267467 0
M  V30 12 S 39.304382 29.083557 59.470269 0
M  V30 13 C 39.021116 31.601247 60.370906 0
M  V30 14 C 38.420127 26.529878 56.288449 0
M  V30 15 C 42.239902 28.597036 65.933365 0 CFG=1
M  V30 16 C 38.706101 28.527729 57.801539 0 CFG=1
M  V30 17 O 38.845158 28.137752 60.486574 0
M  V30 18 O 41.566620 26.539191 66.733131 0
M  V30 19 C 37.840573 29.163204 54.620979 0
M  V30 20 C 41.602570 27.284645 65.522426 0 CFG=2
M  V30 21 C 41.012225 32.466486 61.557952 0
M  V30 22 N 41.645138 27.479157 67.850450 0
M  V30 23 O 44.007099 29.738720 64.172493 0
M  V30 24 O 39.887091 30.924849 63.414246 0
M  V30 25 C 39.483308 29.232087 56.676015 0 CFG=2
M  V30 26 C 38.889675 27.010880 57.668193 0
M  V30 27 C 36.907493 30.727636 59.367794 0
M  V30 28 C 38.373275 30.624646 59.778513 0
M  V30 29 O 40.748733 29.338831 59.370141 0
M  V30 30 C 37.490279 28.048359 53.620904 0 CFG=2
M  V30 31 C 39.615178 26.834311 52.768039 0
M  V30 32 C 42.379371 26.521818 64.445292 0
M  V30 33 S 40.985778 31.896504 63.307463 0
M  V30 34 N 41.946566 29.686735 65.002657 0
M  V30 35 H 38.015441 25.948399 53.879102 0
M  V30 36 H 39.055847 33.470292 61.295968 0
M  V30 37 H 35.028565 31.734898 59.820611 0
M  V30 38 H 36.097524 31.583390 61.213409 0
M  V30 39 H 36.429085 32.780825 59.957114 0
M  V30 40 H 39.828811 31.063811 56.106662 0
M  V30 41 H 37.245401 27.849063 51.708816 0
M  V30 42 H 39.943250 29.044827 54.608532 0
M  V30 43 H 42.075790 29.549065 67.889084 0
M  V30 44 H 40.529634 29.093966 67.149621 0
M  V30 45 H 37.345376 26.698108 56.200647 0
M  V30 46 H 38.574447 25.452905 56.204947 0
M  V30 47 H 43.310289 28.459603 66.103588 0
M  V30 48 H 37.643528 28.755424 57.731835 0
M  V30 49 H 37.055326 29.276763 55.367249 0
M  V30 50 H 37.954737 30.139827 54.147526 0
M  V30 51 H 40.574636 27.453603 65.194241 0
M  V30 52 H 41.570121 31.738235 60.972567 0
M  V30 53 H 41.529800 33.422552 61.506950 0
M  V30 54 H 40.783751 27.337738 68.381718 0
M  V30 55 H 40.545481 29.061741 56.844811 0
M  V30 56 H 38.321371 26.498116 58.445013 0
M  V30 57 H 39.936414 26.744729 57.825445 0
M  V30 58 H 36.863251 30.942671 58.300538 0
M  V30 59 H 36.451800 29.747002 59.505279 0
M  V30 60 H 36.479925 27.691060 53.822222 0
M  V30 61 H 39.209091 26.494934 51.815732 0
M  V30 62 H 40.045134 27.813170 52.567855 0
M  V30 63 H 40.414955 26.147718 53.048870 0
M  V30 64 H 42.471305 27.124770 63.541729 0
M  V30 65 H 43.386853 26.275835 64.781337 0
M  V30 66 H 41.873792 25.592311 64.182564 0
M  V30 67 H 41.003202 30.053680 64.982930 0
M  V30 68 H 40.085962 26.878618 55.182926 0
M  V30 END ATOM
M  V30 BEGIN BOND
M  V30 1 1 3 1
M  V30 2 1 8 7
M  V30 3 1 10 3
M  V30 4 2 13 2
M  V30 5 1 14 3
M  V30 6 1 15 11
M  V30 7 1 16 12
M  V30 8 2 17 12
M  V30 9 1 19 10
M  V30 10 1 20 15
M  V30 11 1 20 18
M  V30 12 1 21 2
M  V30 13 1 22 11
M  V30 14 1 22 18
M  V30 15 2 23 8
M  V30 16 1 25 5
M  V30 17 1 25 10
M  V30 18 1 25 16
M  V30 19 1 26 14
M  V30 20 1 26 16
M  V30 21 1 27 4
M  V30 22 1 28 12
M  V30 23 2 28 13
M  V30 24 1 28 27
M  V30 25 2 29 12
M  V30 26 1 30 1
M  V30 27 1 30 6
M  V30 28 1 30 19
M  V30 29 1 31 1
M  V30 30 1 32 20
M  V30 31 1 33 7
M  V30 32 2 33 9
M  V30 33 1 33 21
M  V30 34 2 33 24
M  V30 35 1 34 8
M  V30 36 1 34 15
M  V30 37 1 1 35 CFG=1
M  V30 38 1 36 2
M  V30 39 1 37 4
M  V30 40 1 38 4
M  V30 41 1 39 4
M  V30 42 1 40 5
M  V30 43 1 41 6
M  V30 44 1 10 42 CFG=3
M  V30 45 1 43 11
M  V30 46 1 44 11
M  V30 47 1 45 14
M  V30 48 1 46 14
M  V30 49 1 15 47 CFG=1
M  V30 50 1 16 48 CFG=3
M  V30 51 1 49 19
M  V30 52 1 50 19
M  V30 53 1 20 51 CFG=3
M  V30 54 1 52 21
M  V30 55 1 53 21
M  V30 56 1 54 22
M  V30 57 1 25 55 CFG=1
M  V30 58 1 56 26
M  V30 59 1 57 26
M  V30 60 1 58 27
M  V30 61 1 59 27
M  V30 62 1 30 60 CFG=1
M  V30 63 1 61 31
M  V30 64 1 62 31
M  V30 65 1 63 31
M  V30 66 1 64 32
M  V30 67 1 65 32
M  V30 68 1 66 32
M  V30 69 1 67 34
M  V30 70 1 3 68 CFG=3
M  V30 END BOND
M  V30 END CTAB
M  END
>  <i_epik_Tot_Q>  (1) 
0

>  <i_epik_Tot_abs_Q>  (1) 
2

>  <i_i_glide_confnum>  (1) 
2328

>  <i_i_glide_lignum>  (1) 
19

>  <i_i_glide_posenum>  (1) 
116

>  <i_i_glide_rotatable_bonds>  (1) 
11

>  <i_lp_mmshare_version>  (1) 
72125

>  <i_m_source_file_index>  (1) 
13

>  <i_f3d_flags>  (1) 
0

>  <num_sample>  (1) 
100

>  <b_lp_Chiralities_Consistent>  (1) 
1

>  <r_epik_Charging_Adjusted_Penalty>  (1) 
0.60912623126161669

>  <r_epik_Ionization_Penalty>  (1) 
0.30573665464692801

>  <r_epik_Ionization_Penalty_Charging>  (1) 
0.30464155940026277

>  <r_epik_Ionization_Penalty_Neutral>  (1) 
0.0010950952466652615

>  <r_epik_State_Penalty>  (1) 
0.30448467186135392

>  <r_glide_ring_energy>  (1) 
0

>  <r_i_docking_score>  (1) 
-5.8147893926409688

>  <r_i_glide_ecoul>  (1) 
-4.5850534907660272

>  <r_i_glide_eff_state_penalty>  (1) 
0.30448467186135392

>  <r_i_glide_einternal>  (1) 
6.7674274612530505

>  <r_i_glide_emodel>  (1) 
-56.658638943359421

>  <r_i_glide_emodel_strain>  (1) 
0.018266185966922421

>  <r_i_glide_energy>  (1) 
-45.415529425064648

>  <r_i_glide_erotb>  (1) 
0.67758354065758886

>  <r_i_glide_esite>  (1) 
-0.041648515315144963

>  <r_i_glide_evdw>  (1) 
-40.830475934298619

>  <r_i_glide_gscore>  (1) 
-6.1192740645023225

>  <r_i_glide_gscore_strain>  (1) 
0

>  <r_i_glide_hbond>  (1) 
-0.46637884222899384

>  <r_i_glide_ligand_efficiency>  (1) 
-0.17102321743061674

>  <r_i_glide_ligand_efficiency_ln>  (1) 
-1.2846500761523116

>  <r_i_glide_ligand_efficiency_sa>  (1) 
-0.55404883348067102

>  <r_i_glide_lipo>  (1) 
-2.6201299078137681

>  <r_i_glide_metal>  (1) 
-0

>  <r_i_glide_rewards>  (1) 
-0.93941851947217059

>  <r_lp_Energy>  (1) 
-2.0210079999999997

>  <s_epik_Chemistry_Notes>  (1) 
This compound has a N-S or N-O group and may undergo hydrolysis at high or low pH.

>  <s_epik_cmdline>  (1) 
J2VwaWtfcHl0aG9uJywgJy1waHQnLCAnMS4wJywgJy1waCcsICc3LjQnLCAnLXRuJywgJzgnLCAnLW1hJywgJzUwMCcsICctaW1hZScsICc8aW5maWxlLm1hZT4nLCAnLW9tYWUnLCAnPG91dGZpbGUubWFlPic=

>  <s_epik_input>  (1) 
W0NIM11bQ0BASF0xW0NASF0oW09IXSlbQ0gyXVtDQEhdKE4xMilbQ0BASF0oW09IXSlbQ0BASF0oW0NIMl1bQ0gyXTIpUyg9TykoPU8pQyhbQ0gyXVtDSDNdKT1DPVtDSF1bQ0gyXVMoPU8pKD1PKVtOSF1DKD1PKVtOSF1bQ0BIXTNbQ0gyXVtOSF1PW0NAQEhdM1tDSDNd

>  <s_glide_docking_method>  (1) 
confgen

>  <s_i_glide_gridfile>  (1) 
gpcr_5ht2c_6bqh_protein_autoprepared_prepared

>  <s_lp_Force_Field>  (1) 
S-OPLS

>  <s_lp_Variant>  (1) 
DiffSBDD_12-1

>  <s_m_source_file>  (1) 
generated_GPCR_5HT2C_ligand_DiffSBDD_2026-06-23_prepared.sdf

>  <GenAI_Model>  (1) 
DiffSBDD

>  <Protein>  (1) 
GPCR_5HT2C

$$$$
DiffSBDD_73
     RDKit          3D

  0  0  0  0  0  0  0  0  0  0999 V3000
M  V30 BEGIN CTAB
M  V30 COUNTS 65 66 0 0 1
M  V30 BEGIN ATOM
M  V30 1 C 38.544437 29.417402 55.306514 0 CFG=1
M  V30 2 C 39.021900 32.472422 59.796658 0
M  V30 3 N 37.669521 35.233107 61.205377 0
M  V30 4 C 40.045560 30.687387 51.992315 0
M  V30 5 C 39.389862 30.580414 53.186901 0
M  V30 6 C 39.649478 30.069817 56.151870 0
M  V30 7 C 38.479625 36.386622 61.614936 0 CFG=2
M  V30 8 N 37.072505 33.378508 58.466389 0 CHG=1
M  V30 9 O 36.766140 36.206848 59.367919 0
M  V30 10 C 37.811303 27.968267 57.449540 0
M  V30 11 C 36.335857 33.864252 59.652824 0 CFG=1
M  V30 12 C 40.112093 28.137724 51.289451 0
M  V30 13 C 40.445220 29.578972 51.022208 0 CFG=1
M  V30 14 C 36.928470 35.219059 60.081499 0
M  V30 15 O 39.164372 30.685341 57.342398 0
M  V30 16 C 40.377841 34.865640 62.540665 0
M  V30 17 C 38.835699 29.362563 53.826445 0
M  V30 18 C 38.680503 28.042508 51.658181 0
M  V30 19 C 37.993199 32.239927 58.678342 0 CFG=1
M  V30 20 C 37.645137 28.379525 55.995419 0 CFG=1
M  V30 21 O 40.045834 29.925652 49.717329 0
M  V30 22 C 39.979830 36.015537 61.599842 0
M  V30 23 C 38.703572 31.956698 57.345211 0
M  V30 24 O 38.824402 32.764765 56.423231 0
M  V30 25 C 34.839357 33.942971 59.315173 0
M  V30 26 C 38.543452 28.229124 53.130935 0
M  V30 27 C 38.015160 36.908920 62.982675 0
M  V30 28 C 37.103223 29.737622 55.629011 0
M  V30 29 H 39.644493 31.588020 59.910695 0
M  V30 30 H 39.659010 33.331895 59.588897 0
M  V30 31 H 38.555380 32.623140 60.767928 0
M  V30 32 H 37.718055 34.401563 61.773573 0
M  V30 33 H 40.371938 31.673039 51.696243 0
M  V30 34 H 39.264134 31.503128 53.737194 0
M  V30 35 H 40.363529 29.296861 56.435404 0
M  V30 36 H 40.211054 30.797691 55.567795 0
M  V30 37 H 38.357071 37.214524 60.914388 0
M  V30 38 H 37.555070 34.155406 58.034775 0
M  V30 39 H 37.695047 28.813027 58.126760 0
M  V30 40 H 37.051916 27.232463 57.715435 0
M  V30 41 H 38.790486 27.515590 57.607100 0
M  V30 42 H 36.425681 33.146931 60.469141 0
M  V30 43 H 40.321120 27.535456 50.404717 0
M  V30 44 H 40.718098 27.737729 52.099068 0
M  V30 45 H 41.532866 29.640753 50.969370 0
M  V30 46 H 41.440358 34.644577 62.445568 0
M  V30 47 H 40.193633 35.118429 63.584831 0
M  V30 48 H 39.833179 33.950307 62.317064 0
M  V30 49 H 38.310238 27.045316 51.415550 0
M  V30 50 H 38.044807 28.740671 51.118318 0
M  V30 51 H 37.382046 31.375182 58.940668 0
M  V30 52 H 37.250955 27.552634 55.412358 0
M  V30 53 H 39.105878 29.821277 49.630063 0
M  V30 54 H 40.269111 35.743782 60.582832 0
M  V30 55 H 40.572082 36.896584 61.852474 0
M  V30 56 H 34.245835 34.138031 60.202194 0
M  V30 57 H 34.620886 34.707880 58.567721 0
M  V30 58 H 34.477683 32.987496 58.933851 0
M  V30 59 H 38.140736 27.382200 53.652289 0
M  V30 60 H 38.642605 37.737207 63.313603 0
M  V30 61 H 36.984069 37.263724 62.940820 0
M  V30 62 H 38.069535 36.137939 63.749951 0
M  V30 63 H 36.845147 30.370944 56.463526 0
M  V30 64 H 36.445122 29.825105 54.772171 0
M  V30 65 H 36.386463 33.032565 57.794295 0
M  V30 END ATOM
M  V30 BEGIN BOND
M  V30 1 2 5 4
M  V30 2 1 1 6 CFG=1
M  V30 3 1 7 3
M  V30 4 1 11 8
M  V30 5 1 13 4
M  V30 6 1 13 12
M  V30 7 1 14 3
M  V30 8 2 14 9
M  V30 9 1 14 11
M  V30 10 1 15 6
M  V30 11 1 17 1
M  V30 12 1 17 5
M  V30 13 1 18 12
M  V30 14 1 19 2
M  V30 15 1 19 8
M  V30 16 1 20 1
M  V30 17 1 20 10
M  V30 18 1 21 13
M  V30 19 1 22 7
M  V30 20 1 22 16
M  V30 21 1 23 15
M  V30 22 1 23 19
M  V30 23 2 24 23
M  V30 24 1 25 11
M  V30 25 2 26 17
M  V30 26 1 26 18
M  V30 27 1 27 7
M  V30 28 1 28 1
M  V30 29 1 28 20
M  V30 30 1 29 2
M  V30 31 1 30 2
M  V30 32 1 31 2
M  V30 33 1 32 3
M  V30 34 1 33 4
M  V30 35 1 34 5
M  V30 36 1 35 6
M  V30 37 1 36 6
M  V30 38 1 7 37 CFG=3
M  V30 39 1 38 8
M  V30 40 1 39 10
M  V30 41 1 40 10
M  V30 42 1 41 10
M  V30 43 1 11 42 CFG=1
M  V30 44 1 43 12
M  V30 45 1 44 12
M  V30 46 1 13 45 CFG=3
M  V30 47 1 46 16
M  V30 48 1 47 16
M  V30 49 1 48 16
M  V30 50 1 49 18
M  V30 51 1 50 18
M  V30 52 1 19 51 CFG=1
M  V30 53 1 20 52 CFG=3
M  V30 54 1 53 21
M  V30 55 1 54 22
M  V30 56 1 55 22
M  V30 57 1 56 25
M  V30 58 1 57 25
M  V30 59 1 58 25
M  V30 60 1 59 26
M  V30 61 1 60 27
M  V30 62 1 61 27
M  V30 63 1 62 27
M  V30 64 1 63 28
M  V30 65 1 64 28
M  V30 66 1 65 8
M  V30 END BOND
M  V30 END CTAB
M  END
>  <i_epik_Tot_Q>  (1) 
1

>  <i_epik_Tot_abs_Q>  (1) 
1

>  <i_i_glide_confnum>  (1) 
2834

>  <i_i_glide_lignum>  (1) 
160

>  <i_i_glide_posenum>  (1) 
208

>  <i_i_glide_rotatable_bonds>  (1) 
12

>  <i_lp_mmshare_version>  (1) 
72125

>  <i_m_source_file_index>  (1) 
74

>  <i_f3d_flags>  (1) 
0

>  <num_sample>  (1) 
100

>  <b_lp_Chiralities_Consistent>  (1) 
1

>  <r_epik_Charging_Adjusted_Penalty>  (1) 
2.336176939713237

>  <r_epik_Ionization_Penalty>  (1) 
1.168091143672223

>  <r_epik_Ionization_Penalty_Charging>  (1) 
1.1680884698566185

>  <r_epik_Ionization_Penalty_Neutral>  (1) 
2.673815604532901e-06

>  <r_epik_State_Penalty>  (1) 
1.1680884698566185

>  <r_glide_ring_energy>  (1) 
0

>  <r_i_docking_score>  (1) 
-5.8130399450242667

>  <r_i_glide_ecoul>  (1) 
-5.4614797662591137

>  <r_i_glide_eff_state_penalty>  (1) 
1.1680884698566185

>  <r_i_glide_einternal>  (1) 
12.008726769278784

>  <r_i_glide_emodel>  (1) 
-53.916845245984206

>  <r_i_glide_emodel_strain>  (1) 
3.3189417608772374

>  <r_i_glide_energy>  (1) 
-41.320062758964653

>  <r_i_glide_erotb>  (1) 
1.2613414017289797

>  <r_i_glide_esite>  (1) 
-0.13433792364461766

>  <r_i_glide_evdw>  (1) 
-35.858582992705543

>  <r_i_glide_gscore>  (1) 
-6.9811284148808852

>  <r_i_glide_gscore_strain>  (1) 
0

>  <r_i_glide_hbond>  (1) 
-0.52000000000000002

>  <r_i_glide_ligand_efficiency>  (1) 
-0.20760856946515238

>  <r_i_glide_ligand_efficiency_ln>  (1) 
-1.3418202975808209

>  <r_i_glide_ligand_efficiency_sa>  (1) 
-0.63042189250476421

>  <r_i_glide_lipo>  (1) 
-3.1990937981292484

>  <r_i_glide_metal>  (1) 
-0

>  <r_i_glide_rewards>  (1) 
-1.7768869802618541

>  <r_lp_Energy>  (1) 
24.831178999999999

>  <s_epik_Chemistry_Notes>  (1) 
This compound has an ester and may undergo hydrolysis at high or low pH.

>  <s_epik_cmdline>  (1) 
J2VwaWtfcHl0aG9uJywgJy1waHQnLCAnMS4wJywgJy1waCcsICc3LjQnLCAnLXRuJywgJzgnLCAnLW1hJywgJzUwMCcsICctaW1hZScsICc8aW5maWxlLm1hZT4nLCAnLW9tYWUnLCAnPG91dGZpbGUubWFlPic=

>  <s_epik_input>  (1) 
W09IXVtDQEhdMVtDSF09W0NIXUMoPVtDSF1bQ0gyXVtDSDJdMSlbQ0BAXTIoW0NAQEhdKFtDSDNdKVtDSDJdMilbQ0gyXU9DKD1PKVtDQEBIXShbQ0gzXSlbTkhdW0NASF0oW0NIM10pQyg9TylbTkhdW0NAQEhdKFtDSDNdKVtDSDJdW0NIM10=

>  <s_glide_docking_method>  (1) 
confgen

>  <s_i_glide_gridfile>  (1) 
gpcr_5ht2c_6bqh_protein_autoprepared_prepared

>  <s_lp_Force_Field>  (1) 
S-OPLS

>  <s_lp_Variant>  (1) 
DiffSBDD_73-3

>  <s_m_source_file>  (1) 
generated_GPCR_5HT2C_ligand_DiffSBDD_2026-06-23_prepared.sdf

>  <GenAI_Model>  (1) 
DiffSBDD

>  <Protein>  (1) 
GPCR_5HT2C

$$$$
DiffSBDD_67
     RDKit          3D

  0  0  0  0  0  0  0  0  0  0999 V3000
M  V30 BEGIN CTAB
M  V30 COUNTS 77 78 0 0 1
M  V30 BEGIN ATOM
M  V30 1 C 38.521565 31.047771 56.100761 0
M  V30 2 O 40.791272 32.046897 61.960361 0
M  V30 3 O 36.045159 29.814090 59.767738 0 CHG=-1
M  V30 4 C 38.631520 29.566494 55.686718 0 CFG=1
M  V30 5 O 40.536016 28.363754 56.583657 0
M  V30 6 C 39.604570 31.724491 61.987955 0
M  V30 7 C 38.951507 29.206398 54.157196 0 CFG=1
M  V30 8 C 38.078918 32.002775 55.170550 0
M  V30 9 C 38.523479 28.140148 57.886650 0
M  V30 10 C 37.613291 28.853797 53.486303 0
M  V30 11 N 37.952405 25.267295 54.685477 0 CFG=1 CHG=1
M  V30 12 C 38.945046 33.270828 59.252832 0
M  V30 13 C 37.821115 24.818105 56.952868 0
M  V30 14 C 39.582764 28.661033 51.042765 0
M  V30 15 C 37.975670 33.341364 55.536884 0
M  V30 16 C 40.845072 30.855256 54.195584 0
M  V30 17 C 40.381016 29.647638 51.909679 0
M  V30 18 C 38.663245 32.815183 57.799382 0
M  V30 19 C 37.917523 32.790048 60.308920 0 CFG=2
M  V30 20 C 39.315327 25.430812 55.257144 0
M  V30 21 C 36.938928 25.054146 55.751434 0
M  V30 22 C 39.297928 24.951408 56.713445 0
M  V30 23 C 40.822941 30.772677 50.962765 0
M  V30 24 O 35.744201 31.371060 61.275933 0
M  V30 25 O 37.364225 24.537754 58.051879 0
M  V30 26 C 36.998438 27.528845 53.916579 0
M  V30 27 C 37.617968 26.174764 53.548736 0
M  V30 28 C 36.371302 30.888257 60.305607 0
M  V30 29 C 39.181432 30.287930 62.261624 0
M  V30 30 C 38.491544 32.752366 61.751261 0
M  V30 31 C 39.783143 30.204565 53.272549 0 CFG=1
M  V30 32 C 38.845140 31.463547 57.417681 0
M  V30 33 N 37.424746 31.515517 59.828850 0
M  V30 34 C 39.350418 28.660922 56.709284 0
M  V30 35 C 38.213633 33.737742 56.851785 0
M  V30 36 H 37.597275 29.278531 55.855784 0
M  V30 37 H 39.542457 28.296382 54.139835 0
M  V30 38 H 37.815150 31.710640 54.175487 0
M  V30 39 H 37.618764 27.647806 57.530009 0
M  V30 40 H 39.101841 27.427405 58.475833 0
M  V30 41 H 38.219053 28.949120 58.549234 0
M  V30 42 H 36.904343 29.631257 53.767806 0
M  V30 43 H 37.603580 28.907731 52.409043 0
M  V30 44 H 39.944931 32.937864 59.515026 0
M  V30 45 H 38.997198 34.351850 59.365453 0
M  V30 46 H 38.702369 29.122231 50.600080 0
M  V30 47 H 40.188622 28.308096 50.207607 0
M  V30 48 H 39.301173 27.768151 51.589092 0
M  V30 49 H 37.645146 34.066035 54.814741 0
M  V30 50 H 41.261793 30.139655 54.897666 0
M  V30 51 H 41.645134 31.337756 53.695852 0
M  V30 52 H 40.482041 31.681897 54.787760 0
M  V30 53 H 41.245115 29.059546 52.138642 0
M  V30 54 H 37.070363 33.478792 60.285096 0
M  V30 55 H 40.041061 24.888330 54.659733 0
M  V30 56 H 39.621749 26.464427 55.210000 0
M  V30 57 H 36.289197 25.902502 55.948519 0
M  V30 58 H 36.325766 24.176828 55.544707 0
M  V30 59 H 39.769301 25.660879 57.390731 0
M  V30 60 H 39.761990 23.979884 56.858228 0
M  V30 61 H 40.011790 31.470126 50.757365 0
M  V30 62 H 41.645141 31.337481 51.371698 0
M  V30 63 H 41.175741 30.386903 50.005803 0
M  V30 64 H 36.845146 27.571021 54.967771 0
M  V30 65 H 36.045153 27.551384 53.418233 0
M  V30 66 H 36.853920 25.651885 52.968222 0
M  V30 67 H 38.490634 26.296481 52.914243 0
M  V30 68 H 39.137288 29.727900 61.328504 0
M  V30 69 H 39.886892 29.796147 62.932474 0
M  V30 70 H 38.193885 30.263325 62.721332 0
M  V30 71 H 38.876068 33.739673 62.009374 0
M  V30 72 H 37.687922 32.549762 62.459466 0
M  V30 73 H 39.148692 31.008410 52.927762 0
M  V30 74 H 39.196249 30.751734 58.143577 0
M  V30 75 H 37.895883 31.109610 59.036492 0
M  V30 76 H 38.045145 34.764196 57.130120 0
M  V30 77 H 38.015023 24.356669 54.248433 0
M  V30 END ATOM
M  V30 BEGIN BOND
M  V30 1 1 4 1
M  V30 2 2 6 2
M  V30 3 1 7 4
M  V30 4 2 8 1
M  V30 5 1 10 7
M  V30 6 1 15 8
M  V30 7 1 17 14
M  V30 8 1 18 12
M  V30 9 1 19 12
M  V30 10 1 20 11
M  V30 11 1 21 11
M  V30 12 1 21 13
M  V30 13 1 22 13
M  V30 14 1 22 20
M  V30 15 1 23 17
M  V30 16 2 25 13
M  V30 17 1 26 10
M  V30 18 1 27 11
M  V30 19 1 27 26
M  V30 20 1 28 3
M  V30 21 2 28 24
M  V30 22 1 29 6
M  V30 23 1 30 6
M  V30 24 1 30 19
M  V30 25 1 31 7
M  V30 26 1 31 16
M  V30 27 1 31 17
M  V30 28 1 32 1
M  V30 29 2 32 18
M  V30 30 1 33 19
M  V30 31 1 33 28
M  V30 32 1 34 4
M  V30 33 2 34 5
M  V30 34 1 34 9
M  V30 35 2 35 15
M  V30 36 1 35 18
M  V30 37 1 4 36 CFG=3
M  V30 38 1 7 37 CFG=1
M  V30 39 1 38 8
M  V30 40 1 39 9
M  V30 41 1 40 9
M  V30 42 1 41 9
M  V30 43 1 42 10
M  V30 44 1 43 10
M  V30 45 1 44 12
M  V30 46 1 45 12
M  V30 47 1 46 14
M  V30 48 1 47 14
M  V30 49 1 48 14
M  V30 50 1 49 15
M  V30 51 1 50 16
M  V30 52 1 51 16
M  V30 53 1 52 16
M  V30 54 1 53 17
M  V30 55 1 19 54 CFG=1
M  V30 56 1 55 20
M  V30 57 1 56 20
M  V30 58 1 57 21
M  V30 59 1 58 21
M  V30 60 1 59 22
M  V30 61 1 60 22
M  V30 62 1 61 23
M  V30 63 1 62 23
M  V30 64 1 63 23
M  V30 65 1 64 26
M  V30 66 1 65 26
M  V30 67 1 66 27
M  V30 68 1 67 27
M  V30 69 1 68 29
M  V30 70 1 69 29
M  V30 71 1 70 29
M  V30 72 1 71 30
M  V30 73 1 72 30
M  V30 74 1 31 73 CFG=3
M  V30 75 1 74 32
M  V30 76 1 75 33
M  V30 77 1 76 35
M  V30 78 1 11 77 CFG=3
M  V30 END BOND
M  V30 END CTAB
M  END
>  <i_epik_Tot_Q>  (1) 
0

>  <i_epik_Tot_abs_Q>  (1) 
2

>  <i_i_glide_confnum>  (1) 
2287

>  <i_i_glide_lignum>  (1) 
150

>  <i_i_glide_posenum>  (1) 
194

>  <i_i_glide_rotatable_bonds>  (1) 
15

>  <i_lp_mmshare_version>  (1) 
72125

>  <i_m_source_file_index>  (1) 
68

>  <i_f3d_flags>  (1) 
0

>  <num_sample>  (1) 
100

>  <b_lp_Chiralities_Consistent>  (1) 
1

>  <r_epik_Charging_Adjusted_Penalty>  (1) 
0.5296149838886226

>  <r_epik_Ionization_Penalty>  (1) 
0.26529925199373078

>  <r_epik_Ionization_Penalty_Charging>  (1) 
0.26525061984488274

>  <r_epik_Ionization_Penalty_Neutral>  (1) 
4.8632148848023016e-05

>  <r_epik_State_Penalty>  (1) 
0.26436436404373981

>  <r_glide_ring_energy>  (1) 
0

>  <r_i_docking_score>  (1) 
-5.8118151344022504

>  <r_i_glide_ecoul>  (1) 
-3.2263083138247737

>  <r_i_glide_eff_state_penalty>  (1) 
0.26436436404373981

>  <r_i_glide_einternal>  (1) 
12.764382161311978

>  <r_i_glide_emodel>  (1) 
-37.938955313212148

>  <r_i_glide_emodel_strain>  (1) 
4.0315035457561947

>  <r_i_glide_energy>  (1) 
-28.957072540993426

>  <r_i_glide_erotb>  (1) 
0.8581402996549512

>  <r_i_glide_esite>  (1) 
-0.10005441343708105

>  <r_i_glide_evdw>  (1) 
-25.730764227168653

>  <r_i_glide_gscore>  (1) 
-6.07617949844599

>  <r_i_glide_gscore_strain>  (1) 
0.0078758864390486849

>  <r_i_glide_hbond>  (1) 
-0.16

>  <r_i_glide_ligand_efficiency>  (1) 
-0.16605186098292143

>  <r_i_glide_ligand_efficiency_ln>  (1) 
-1.2758224082886047

>  <r_i_glide_ligand_efficiency_sa>  (1) 
-0.54316664820535354

>  <r_i_glide_lipo>  (1) 
-3.2968612318677577

>  <r_i_glide_metal>  (1) 
-0

>  <r_i_glide_rewards>  (1) 
-1.6147955808030023

>  <r_lp_Energy>  (1) 
26.316364

>  <r_lp_tautomer_probability>  (1) 
0.99994994000300153

>  <s_epik_cmdline>  (1) 
J2VwaWtfcHl0aG9uJywgJy1waHQnLCAnMS4wJywgJy1waCcsICc3LjQnLCAnLXRuJywgJzgnLCAnLW1hJywgJzUwMCcsICctaW1hZScsICc8aW5maWxlLm1hZT4nLCAnLW9tYWUnLCAnPG91dGZpbGUubWFlPic=

>  <s_epik_input>  (1) 
Tz1DKFtDSDNdKVtDSDJdW0NASF0oW05IXUMoPU8pW09IXSlbQ0gyXWMoW2NIXTEpW2NIXVtjSF1bY0hdYzFbQ0BIXShDKD1PKVtDSDNdKVtDQEhdKFtDQEBIXShbQ0gzXSlbQ0hdKFtDSDNdKVtDSDNdKVtDSDJdW0NIMl1bQ0gyXU4yW0NIMl1bQ0gyXUMoPU8pW0NIMl0y

>  <s_glide_docking_method>  (1) 
confgen

>  <s_i_glide_gridfile>  (1) 
gpcr_5ht2c_6bqh_protein_autoprepared_prepared

>  <s_lp_Force_Field>  (1) 
S-OPLS

>  <s_lp_Variant>  (1) 
DiffSBDD_67-2

>  <s_m_source_file>  (1) 
generated_GPCR_5HT2C_ligand_DiffSBDD_2026-06-23_prepared.sdf

>  <GenAI_Model>  (1) 
DiffSBDD

>  <Protein>  (1) 
GPCR_5HT2C

$$$$
DiffSBDD_73
     RDKit          3D

  0  0  0  0  0  0  0  0  0  0999 V3000
M  V30 BEGIN CTAB
M  V30 COUNTS 64 65 0 0 1
M  V30 BEGIN ATOM
M  V30 1 C 37.141282 33.704263 61.107533 0 CFG=1
M  V30 2 C 39.737481 29.332782 57.843141 0
M  V30 3 N 38.306971 28.622167 54.810001 0
M  V30 4 C 40.811257 34.024661 62.431107 0
M  V30 5 C 39.659015 33.622102 61.802607 0
M  V30 6 C 37.237089 32.191997 60.915620 0
M  V30 7 C 39.073814 27.509982 54.256000 0 CFG=2
M  V30 8 N 37.645141 30.496028 57.033309 0
M  V30 9 O 39.844264 30.240925 54.371703 0
M  V30 10 C 35.108784 33.667502 59.367803 0
M  V30 11 C 37.876939 30.865175 55.617052 0 CFG=2
M  V30 12 C 40.062513 36.414595 63.155925 0
M  V30 13 C 41.155995 35.400648 62.998394 0 CFG=1
M  V30 14 C 38.771813 29.881056 54.858085 0
M  V30 15 O 37.784332 31.887122 59.641908 0
M  V30 16 C 38.050471 28.016352 51.931288 0
M  V30 17 C 38.437490 34.435655 61.467184 0
M  V30 18 C 39.589035 36.678636 61.767702 0
M  V30 19 C 38.793574 30.554187 57.963753 0 CFG=1
M  V30 20 C 36.027123 34.405064 60.312295 0 CFG=1
M  V30 21 O 41.751989 35.243240 64.268310 0
M  V30 22 C 39.291836 27.625090 52.727249 0
M  V30 23 C 38.322776 30.678834 59.421819 0
M  V30 24 O 38.445049 29.796697 60.272533 0
M  V30 25 C 38.312442 32.335563 55.456105 0
M  V30 26 C 38.432435 35.797357 61.471786 0
M  V30 27 C 38.392126 26.193081 54.656254 0
M  V30 28 C 35.872916 34.203608 61.786956 0
M  V30 29 H 40.463776 29.307241 58.657372 0
M  V30 30 H 39.179459 28.395962 57.870398 0
M  V30 31 H 40.329101 29.338725 56.931253 0
M  V30 32 H 37.408970 28.417759 55.221752 0
M  V30 33 H 41.579279 33.279338 62.578835 0
M  V30 34 H 39.631684 32.583259 61.523089 0
M  V30 35 H 37.793322 31.741888 61.737801 0
M  V30 36 H 36.241707 31.751443 60.967081 0
M  V30 37 H 40.045149 27.506941 54.750446 0
M  V30 38 H 36.861175 31.060027 57.367739 0
M  V30 39 H 34.648977 32.795633 59.833132 0
M  V30 40 H 34.318176 34.326955 59.009523 0
M  V30 41 H 35.701508 33.337760 58.522618 0
M  V30 42 H 36.903360 30.794510 55.129568 0
M  V30 43 H 39.267504 36.072673 63.820852 0
M  V30 44 H 40.445130 37.337776 63.583460 0
M  V30 45 H 41.944976 35.813191 62.367730 0
M  V30 46 H 38.244267 27.971241 50.861114 0
M  V30 47 H 37.245133 27.337782 52.167776 0
M  V30 48 H 37.717090 29.024110 52.169368 0
M  V30 49 H 40.356495 36.537903 61.003562 0
M  V30 50 H 39.247047 37.711397 61.690871 0
M  V30 51 H 39.348796 31.461594 57.748095 0
M  V30 52 H 36.228782 35.407570 59.948556 0
M  V30 53 H 42.044736 36.094267 64.567626 0
M  V30 54 H 40.045135 28.378697 52.512031 0
M  V30 55 H 39.687784 26.683648 52.345196 0
M  V30 56 H 38.248603 32.637874 54.410801 0
M  V30 57 H 37.660498 33.001086 56.024067 0
M  V30 58 H 39.338375 32.509064 55.781500 0
M  V30 59 H 37.522635 36.317858 61.229939 0
M  V30 60 H 39.019822 25.337902 54.409324 0
M  V30 61 H 38.216381 26.154728 55.731700 0
M  V30 62 H 37.431271 26.062598 54.158033 0
M  V30 63 H 35.135893 33.471956 62.110420 0
M  V30 64 H 35.940119 35.079602 62.428645 0
M  V30 END ATOM
M  V30 BEGIN BOND
M  V30 1 2 5 4
M  V30 2 1 1 6 CFG=3
M  V30 3 1 7 3
M  V30 4 1 11 8
M  V30 5 1 13 4
M  V30 6 1 13 12
M  V30 7 1 14 3
M  V30 8 2 14 9
M  V30 9 1 14 11
M  V30 10 1 15 6
M  V30 11 1 17 1
M  V30 12 1 17 5
M  V30 13 1 18 12
M  V30 14 1 19 2
M  V30 15 1 19 8
M  V30 16 1 20 1
M  V30 17 1 20 10
M  V30 18 1 21 13
M  V30 19 1 22 7
M  V30 20 1 22 16
M  V30 21 1 23 15
M  V30 22 1 23 19
M  V30 23 2 24 23
M  V30 24 1 25 11
M  V30 25 2 26 17
M  V30 26 1 26 18
M  V30 27 1 27 7
M  V30 28 1 28 1
M  V30 29 1 28 20
M  V30 30 1 29 2
M  V30 31 1 30 2
M  V30 32 1 31 2
M  V30 33 1 32 3
M  V30 34 1 33 4
M  V30 35 1 34 5
M  V30 36 1 35 6
M  V30 37 1 36 6
M  V30 38 1 7 37 CFG=1
M  V30 39 1 38 8
M  V30 40 1 39 10
M  V30 41 1 40 10
M  V30 42 1 41 10
M  V30 43 1 11 42 CFG=3
M  V30 44 1 43 12
M  V30 45 1 44 12
M  V30 46 1 13 45 CFG=3
M  V30 47 1 46 16
M  V30 48 1 47 16
M  V30 49 1 48 16
M  V30 50 1 49 18
M  V30 51 1 50 18
M  V30 52 1 19 51 CFG=3
M  V30 53 1 20 52 CFG=1
M  V30 54 1 53 21
M  V30 55 1 54 22
M  V30 56 1 55 22
M  V30 57 1 56 25
M  V30 58 1 57 25
M  V30 59 1 58 25
M  V30 60 1 59 26
M  V30 61 1 60 27
M  V30 62 1 61 27
M  V30 63 1 62 27
M  V30 64 1 63 28
M  V30 65 1 64 28
M  V30 END BOND
M  V30 END CTAB
M  END
>  <i_epik_Tot_Q>  (1) 
0

>  <i_epik_Tot_abs_Q>  (1) 
0

>  <i_i_glide_confnum>  (1) 
1916

>  <i_i_glide_lignum>  (1) 
159

>  <i_i_glide_posenum>  (1) 
391

>  <i_i_glide_rotatable_bonds>  (1) 
12

>  <i_lp_mmshare_version>  (1) 
72125

>  <i_m_source_file_index>  (1) 
74

>  <i_f3d_flags>  (1) 
0

>  <num_sample>  (1) 
100

>  <b_lp_Chiralities_Consistent>  (1) 
1

>  <r_epik_Charging_Adjusted_Penalty>  (1) 
0.088841992990236665

>  <r_epik_Ionization_Penalty>  (1) 
0.088842122646257599

>  <r_epik_Ionization_Penalty_Charging>  (1) 
0

>  <r_epik_Ionization_Penalty_Neutral>  (1) 
0.088842122646257599

>  <r_epik_State_Penalty>  (1) 
0.088841992990236665

>  <r_glide_ring_energy>  (1) 
0

>  <r_i_docking_score>  (1) 
-5.8117582242431309

>  <r_i_glide_ecoul>  (1) 
-4.7008741807474381

>  <r_i_glide_eff_state_penalty>  (1) 
0.088841992990236665

>  <r_i_glide_einternal>  (1) 
10.758591089035942

>  <r_i_glide_emodel>  (1) 
-54.753433603849828

>  <r_i_glide_emodel_strain>  (1) 
0.5022863163549971

>  <r_i_glide_energy>  (1) 
-45.290582609172276

>  <r_i_glide_erotb>  (1) 
1.2671681791471729

>  <r_i_glide_esite>  (1) 
-0.012000752782721268

>  <r_i_glide_evdw>  (1) 
-40.589708428424835

>  <r_i_glide_gscore>  (1) 
-5.900600217233368

>  <r_i_glide_gscore_strain>  (1) 
0

>  <r_i_glide_hbond>  (1) 
-0.24616788334002856

>  <r_i_glide_ligand_efficiency>  (1) 
-0.20756279372296896

>  <r_i_glide_ligand_efficiency_ln>  (1) 
-1.3415244387915772

>  <r_i_glide_ligand_efficiency_sa>  (1) 
-0.6302828903908706

>  <r_i_glide_lipo>  (1) 
-3.0103851748922654

>  <r_i_glide_metal>  (1) 
-0

>  <r_i_glide_rewards>  (1) 
-1.1645980368321673

>  <r_lp_Energy>  (1) 
22.608298999999999

>  <s_epik_Chemistry_Notes>  (1) 
This compound has an ester and may undergo hydrolysis at high or low pH.

>  <s_epik_cmdline>  (1) 
J2VwaWtfcHl0aG9uJywgJy1waHQnLCAnMS4wJywgJy1waCcsICc3LjQnLCAnLXRuJywgJzgnLCAnLW1hJywgJzUwMCcsICctaW1hZScsICc8aW5maWxlLm1hZT4nLCAnLW9tYWUnLCAnPG91dGZpbGUubWFlPic=

>  <s_epik_input>  (1) 
W09IXVtDQEhdMVtDSF09W0NIXUMoPVtDSF1bQ0gyXVtDSDJdMSlbQ0BAXTIoW0NAQEhdKFtDSDNdKVtDSDJdMilbQ0gyXU9DKD1PKVtDQEBIXShbQ0gzXSlbTkhdW0NASF0oW0NIM10pQyg9TylbTkhdW0NAQEhdKFtDSDNdKVtDSDJdW0NIM10=

>  <s_glide_docking_method>  (1) 
confgen

>  <s_i_glide_gridfile>  (1) 
gpcr_5ht2c_6bqh_protein_autoprepared_prepared

>  <s_lp_Force_Field>  (1) 
S-OPLS

>  <s_lp_Variant>  (1) 
DiffSBDD_73-2

>  <s_m_source_file>  (1) 
generated_GPCR_5HT2C_ligand_DiffSBDD_2026-06-23_prepared.sdf

>  <GenAI_Model>  (1) 
DiffSBDD

>  <Protein>  (1) 
GPCR_5HT2C

$$$$
DiffSBDD_52
     RDKit          3D

  0  0  0  0  0  0  0  0  0  0999 V3000
M  V30 BEGIN CTAB
M  V30 COUNTS 68 70 0 0 1
M  V30 BEGIN ATOM
M  V30 1 C 38.540773 31.355985 60.144455 0 CFG=1
M  V30 2 O 37.725962 31.875044 61.169156 0
M  V30 3 C 38.592449 29.793388 55.186919 0 CFG=2
M  V30 4 C 38.828266 26.091843 55.082871 0
M  V30 5 C 39.491256 30.576190 61.023399 0 CFG=2
M  V30 6 O 38.249466 27.382985 55.199937 0
M  V30 7 C 39.227505 28.400129 55.336363 0
M  V30 8 O 41.261962 32.388583 66.512408 0 CHG=-1
M  V30 9 O 39.642422 30.722606 54.959123 0
M  V30 10 C 36.415930 30.343413 59.254222 0
M  V30 11 C 39.845361 31.540041 62.159204 0 CFG=2
M  V30 12 C 41.818729 32.862533 63.200247 0
M  V30 13 S 40.845177 35.737718 66.054942 0
M  V30 14 O 37.646011 24.519313 57.404087 0
M  V30 15 C 42.127046 33.271566 66.316490 0
M  V30 16 O 38.702091 32.393054 62.200790 0
M  V30 17 O 40.568189 30.137733 60.212207 0
M  V30 18 C 37.767279 30.240995 56.406963 0
M  V30 19 C 41.009286 33.838945 64.072763 0
M  V30 20 C 38.800650 29.252729 58.674586 0 CFG=2
M  V30 21 O 43.244707 33.337743 66.874168 0
M  V30 22 C 39.977675 30.865274 53.587895 0
M  V30 23 C 38.562305 30.394862 57.703456 0 CFG=2
M  V30 24 C 41.788111 34.375938 65.302917 0 CFG=1
M  V30 25 C 41.102101 32.408653 61.915979 0
M  V30 26 C 38.149607 27.892087 58.453997 0
M  V30 27 C 37.927330 30.450141 59.085545 0 CFG=2
M  V30 28 C 37.716304 25.037624 55.031082 0
M  V30 29 C 36.872758 24.969721 56.311665 0
M  V30 30 C 40.228750 29.120335 59.271986 0 CFG=2
M  V30 31 C 40.556826 27.810474 59.997477 0
M  V30 32 H 39.052121 32.187766 59.657233 0
M  V30 33 H 37.918806 29.787877 54.326802 0
M  V30 34 H 39.422770 26.037740 54.169594 0
M  V30 35 H 39.503948 25.894451 55.916440 0
M  V30 36 H 38.968823 29.721637 61.459705 0
M  V30 37 H 39.972642 28.255921 54.567534 0
M  V30 38 H 39.788234 28.317774 56.264105 0
M  V30 39 H 35.935081 29.815663 58.435143 0
M  V30 40 H 35.969633 31.336994 59.307261 0
M  V30 41 H 36.180817 29.807708 60.167737 0
M  V30 42 H 39.941075 30.981334 63.091763 0
M  V30 43 H 42.758323 33.337636 62.921921 0
M  V30 44 H 42.097734 31.983088 63.782522 0
M  V30 45 H 41.283251 36.701377 65.233902 0
M  V30 46 H 38.299839 25.173457 57.597583 0
M  V30 47 H 37.330406 31.211210 56.172885 0
M  V30 48 H 36.925013 29.568928 56.534780 0
M  V30 49 H 40.693458 34.680381 63.455524 0
M  V30 50 H 40.095652 33.337805 64.393146 0
M  V30 51 H 40.950974 31.337744 53.512506 0
M  V30 52 H 39.245272 31.488823 53.074607 0
M  V30 53 H 40.045330 29.912323 53.063395 0
M  V30 54 H 39.397889 31.074578 57.563913 0
M  V30 55 H 42.729751 34.807190 64.959766 0
M  V30 56 H 41.835646 31.842236 61.346302 0
M  V30 57 H 40.848803 33.268163 61.295249 0
M  V30 58 H 37.163770 27.966783 58.001910 0
M  V30 59 H 38.045145 27.388082 59.407681 0
M  V30 60 H 38.761659 27.252472 57.825099 0
M  V30 61 H 37.067771 25.253843 54.181467 0
M  V30 62 H 38.151479 24.058395 54.832871 0
M  V30 63 H 36.044466 24.277100 56.167593 0
M  V30 64 H 36.445093 25.944308 56.547418 0
M  V30 65 H 40.934094 29.207972 58.444741 0
M  V30 66 H 40.441457 26.945685 59.345694 0
M  V30 67 H 39.933058 27.684958 60.880642 0
M  V30 68 H 41.593964 27.814996 60.334137 0
M  V30 END ATOM
M  V30 BEGIN BOND
M  V30 1 1 2 1
M  V30 2 1 5 1
M  V30 3 1 6 4
M  V30 4 1 7 3
M  V30 5 1 7 6
M  V30 6 1 9 3
M  V30 7 1 11 5
M  V30 8 1 15 8
M  V30 9 1 16 2
M  V30 10 1 16 11
M  V30 11 1 17 5
M  V30 12 1 18 3
M  V30 13 1 19 12
M  V30 14 2 21 15
M  V30 15 1 22 9
M  V30 16 1 23 18
M  V30 17 1 23 20
M  V30 18 1 24 13
M  V30 19 1 24 15
M  V30 20 1 24 19
M  V30 21 1 25 11
M  V30 22 1 25 12
M  V30 23 1 20 26 CFG=3
M  V30 24 1 27 1
M  V30 25 1 27 10 CFG=3
M  V30 26 1 27 20
M  V30 27 1 27 23
M  V30 28 1 28 4
M  V30 29 1 29 14
M  V30 30 1 29 28
M  V30 31 1 30 17
M  V30 32 1 30 20
M  V30 33 1 31 30
M  V30 34 1 1 32 CFG=3
M  V30 35 1 3 33 CFG=3
M  V30 36 1 34 4
M  V30 37 1 35 4
M  V30 38 1 5 36 CFG=1
M  V30 39 1 37 7
M  V30 40 1 38 7
M  V30 41 1 39 10
M  V30 42 1 40 10
M  V30 43 1 41 10
M  V30 44 1 11 42 CFG=1
M  V30 45 1 43 12
M  V30 46 1 44 12
M  V30 47 1 45 13
M  V30 48 1 46 14
M  V30 49 1 47 18
M  V30 50 1 48 18
M  V30 51 1 49 19
M  V30 52 1 50 19
M  V30 53 1 51 22
M  V30 54 1 52 22
M  V30 55 1 53 22
M  V30 56 1 23 54 CFG=3
M  V30 57 1 24 55 CFG=3
M  V30 58 1 56 25
M  V30 59 1 57 25
M  V30 60 1 58 26
M  V30 61 1 59 26
M  V30 62 1 60 26
M  V30 63 1 61 28
M  V30 64 1 62 28
M  V30 65 1 63 29
M  V30 66 1 64 29
M  V30 67 1 30 65 CFG=3
M  V30 68 1 66 31
M  V30 69 1 67 31
M  V30 70 1 68 31
M  V30 END BOND
M  V30 END CTAB
M  END
>  <i_epik_Tot_Q>  (1) 
-1

>  <i_epik_Tot_abs_Q>  (1) 
1

>  <i_i_glide_confnum>  (1) 
1367

>  <i_i_glide_lignum>  (1) 
108

>  <i_i_glide_posenum>  (1) 
334

>  <i_i_glide_rotatable_bonds>  (1) 
15

>  <i_lp_mmshare_version>  (1) 
72125

>  <i_m_source_file_index>  (1) 
53

>  <i_f3d_flags>  (1) 
0

>  <num_sample>  (1) 
100

>  <b_lp_Chiralities_Consistent>  (1) 
1

>  <r_epik_Charging_Adjusted_Penalty>  (1) 
9.782978408037009e-05

>  <r_epik_Ionization_Penalty>  (1) 
0.00048272347956945452

>  <r_epik_Ionization_Penalty_Charging>  (1) 
9.782978408037009e-05

>  <r_epik_Ionization_Penalty_Neutral>  (1) 
0.00038489369548908443

>  <r_epik_State_Penalty>  (1) 
-0

>  <r_glide_ring_energy>  (1) 
0

>  <r_i_docking_score>  (1) 
-5.8117302419101406

>  <r_i_glide_ecoul>  (1) 
-3.2979303618186817

>  <r_i_glide_eff_state_penalty>  (1) 
-0

>  <r_i_glide_einternal>  (1) 
7.0443318535943629

>  <r_i_glide_emodel>  (1) 
-47.423469332474745

>  <r_i_glide_emodel_strain>  (1) 
0.57719935872404449

>  <r_i_glide_energy>  (1) 
-39.104560705459612

>  <r_i_glide_erotb>  (1) 
1.0396015441343791

>  <r_i_glide_esite>  (1) 
0

>  <r_i_glide_evdw>  (1) 
-35.806630343640933

>  <r_i_glide_gscore>  (1) 
-5.8117302419101406

>  <r_i_glide_gscore_strain>  (1) 
0

>  <r_i_glide_hbond>  (1) 
-0.39452455679304066

>  <r_i_glide_ligand_efficiency>  (1) 
-0.18747516909387552

>  <r_i_glide_ligand_efficiency_ln>  (1) 
-1.3107232776926725

>  <r_i_glide_ligand_efficiency_sa>  (1) 
-0.58893086899530545

>  <r_i_glide_lipo>  (1) 
-3.0884615814107659

>  <r_i_glide_metal>  (1) 
-0

>  <r_i_glide_rewards>  (1) 
-1.0833245763858641

>  <r_lp_Energy>  (1) 
56.475065000000001

>  <r_lp_tautomer_probability>  (1) 
1

>  <s_epik_cmdline>  (1) 
J2VwaWtfcHl0aG9uJywgJy1waHQnLCAnMS4wJywgJy1waCcsICc3LjQnLCAnLXRuJywgJzgnLCAnLW1hJywgJzUwMCcsICctaW1hZScsICc8aW5maWxlLm1hZT4nLCAnLW9tYWUnLCAnPG91dGZpbGUubWFlPic=

>  <s_epik_input>  (1) 
W09IXUMoPU8pW0NASF0oW1NIXSlbQ0gyXVtDSDJdW0NIMl1bQ0BASF0oT08xKVtDQEhdKE9bQ0BIXTJbQ0gzXSlbQ0BIXTFbQ0BdKFtDSDNdKShbQ0BdMjNbQ0gzXSlbQ0BASF0zW0NIMl1bQ0BASF0oT1tDSDNdKVtDSDJdT1tDSDJdW0NIMl1bQ0gyXVtPSF0=

>  <s_glide_docking_method>  (1) 
confgen

>  <s_i_glide_gridfile>  (1) 
gpcr_5ht2c_6bqh_protein_autoprepared_prepared

>  <s_lp_Force_Field>  (1) 
S-OPLS

>  <s_lp_Variant>  (1) 
DiffSBDD_52-1

>  <s_m_source_file>  (1) 
generated_GPCR_5HT2C_ligand_DiffSBDD_2026-06-23_prepared.sdf

>  <GenAI_Model>  (1) 
DiffSBDD

>  <Protein>  (1) 
GPCR_5HT2C

$$$$
DiffSBDD_25
     RDKit          3D

  0  0  0  0  0  0  0  0  0  0999 V3000
M  V30 BEGIN CTAB
M  V30 COUNTS 68 71 0 0 1
M  V30 BEGIN ATOM
M  V30 1 C 40.810558 31.365195 63.774523 0
M  V30 2 C 40.186912 25.737927 57.889707 0
M  V30 3 O 39.791126 30.774067 63.371774 0 CHG=-1
M  V30 4 C 36.634690 30.537768 59.199444 0
M  V30 5 N 39.589794 31.688428 60.999474 0
M  V30 6 C 39.543623 25.082360 56.680410 0
M  V30 7 C 41.819410 33.667164 64.378050 0
M  V30 8 C 41.167944 35.661273 63.398067 0
M  V30 9 C 37.383814 26.231794 54.568012 0
M  V30 10 C 39.718282 25.941305 55.432193 0
M  V30 11 C 38.588926 26.967051 55.196993 0 CFG=2
M  V30 12 C 39.434336 35.875427 61.567405 0
M  V30 13 O 39.568608 27.212130 53.038762 0
M  V30 14 O 38.029596 33.391595 61.379635 0
M  V30 15 N 38.420549 29.066664 58.592708 0
M  V30 16 C 40.117339 33.614560 62.587368 0
M  V30 17 O 41.740964 30.772339 64.362367 0
M  V30 18 C 38.166852 28.962594 53.717516 0
M  V30 19 C 40.926941 32.892457 63.560965 0
M  V30 20 C 38.074948 27.681277 56.498715 0
M  V30 21 C 38.985463 28.005135 57.723894 0 CFG=2
M  V30 22 C 39.138581 32.917636 61.637334 0
M  V30 23 C 39.331348 29.687213 59.545393 0
M  V30 24 N 41.944796 35.002519 64.273021 0
M  V30 25 C 37.955769 28.547805 52.286166 0
M  V30 26 C 37.104668 29.483768 58.538182 0
M  V30 27 N 42.590413 33.062692 65.367753 0
M  V30 28 N 39.108743 27.957058 54.228308 0
M  V30 29 C 39.285015 26.754303 58.577855 0
M  V30 30 C 38.769793 30.944469 60.196153 0
M  V30 31 C 39.273489 27.337757 50.567758 0
M  V30 32 N 37.467938 31.294912 59.991913 0 CHG=1
M  V30 33 C 39.314475 28.042282 51.919287 0 CFG=2
M  V30 34 C 40.250221 35.033299 62.542040 0
M  V30 35 H 41.139000 26.204483 57.637273 0
M  V30 36 H 40.445139 24.937767 58.567772 0
M  V30 37 H 35.609792 30.877475 59.149886 0
M  V30 38 H 40.506500 31.300618 61.159739 0
M  V30 39 H 40.045141 24.137755 56.530667 0
M  V30 40 H 38.501769 24.823205 56.868567 0
M  V30 41 H 41.290813 36.732813 63.367755 0
M  V30 42 H 36.986508 25.460029 55.226612 0
M  V30 43 H 36.580387 26.937777 54.381763 0
M  V30 44 H 37.629001 25.747122 53.624031 0
M  V30 45 H 40.688223 26.439945 55.463813 0
M  V30 46 H 39.781428 25.271971 54.573298 0
M  V30 47 H 39.788284 36.906622 61.564844 0
M  V30 48 H 39.521342 35.504903 60.545549 0
M  V30 49 H 38.382925 35.896473 61.855906 0
M  V30 50 H 37.218264 29.049541 54.243348 0
M  V30 51 H 38.653441 29.937762 53.756783 0
M  V30 52 H 37.245141 27.094197 56.893965 0
M  V30 53 H 37.645147 28.625141 56.185271 0
M  V30 54 H 39.926855 28.395799 57.334880 0
M  V30 55 H 40.276990 29.905160 59.055289 0
M  V30 56 H 39.548103 28.982118 60.347809 0
M  V30 57 H 37.645149 29.337755 51.625497 0
M  V30 58 H 37.218699 27.749621 52.215232 0
M  V30 59 H 36.471082 28.890442 57.903336 0
M  V30 60 H 42.584612 32.050834 65.481907 0
M  V30 61 H 43.234311 33.589931 65.934741 0
M  V30 62 H 39.801964 27.038387 59.491518 0
M  V30 63 H 38.357902 26.280196 58.898870 0
M  V30 64 H 38.970396 28.050785 49.800093 0
M  V30 65 H 40.232667 26.937759 50.251840 0
M  V30 66 H 38.538521 26.537657 50.567766 0
M  V30 67 H 40.042423 28.856022 51.894563 0
M  V30 68 H 37.183480 32.140922 60.477573 0
M  V30 END ATOM
M  V30 BEGIN BOND
M  V30 1 1 3 1
M  V30 2 1 6 2
M  V30 3 1 10 6
M  V30 4 1 11 9 CFG=3
M  V30 5 1 11 10
M  V30 6 2 17 1
M  V30 7 1 19 1
M  V30 8 2 19 7
M  V30 9 1 19 16
M  V30 10 1 20 11
M  V30 11 1 21 15
M  V30 12 1 21 20
M  V30 13 1 22 5
M  V30 14 2 22 14
M  V30 15 1 22 16
M  V30 16 1 23 15
M  V30 17 1 24 7
M  V30 18 2 24 8
M  V30 19 1 25 18
M  V30 20 2 26 4
M  V30 21 1 26 15
M  V30 22 1 27 7
M  V30 23 1 28 11
M  V30 24 1 28 13
M  V30 25 1 28 18
M  V30 26 1 29 2
M  V30 27 1 29 21
M  V30 28 1 30 5
M  V30 29 1 30 23
M  V30 30 1 32 4
M  V30 31 2 32 30
M  V30 32 1 33 13
M  V30 33 1 33 25
M  V30 34 1 33 31
M  V30 35 1 34 8
M  V30 36 1 34 12
M  V30 37 2 34 16
M  V30 38 1 35 2
M  V30 39 1 36 2
M  V30 40 1 37 4
M  V30 41 1 38 5
M  V30 42 1 39 6
M  V30 43 1 40 6
M  V30 44 1 41 8
M  V30 45 1 42 9
M  V30 46 1 43 9
M  V30 47 1 44 9
M  V30 48 1 45 10
M  V30 49 1 46 10
M  V30 50 1 47 12
M  V30 51 1 48 12
M  V30 52 1 49 12
M  V30 53 1 50 18
M  V30 54 1 51 18
M  V30 55 1 52 20
M  V30 56 1 53 20
M  V30 57 1 21 54 CFG=3
M  V30 58 1 55 23
M  V30 59 1 56 23
M  V30 60 1 57 25
M  V30 61 1 58 25
M  V30 62 1 59 26
M  V30 63 1 60 27
M  V30 64 1 61 27
M  V30 65 1 62 29
M  V30 66 1 63 29
M  V30 67 1 64 31
M  V30 68 1 65 31
M  V30 69 1 66 31
M  V30 70 1 33 67 CFG=3
M  V30 71 1 68 32
M  V30 END BOND
M  V30 END CTAB
M  END
>  <i_epik_Tot_Q>  (1) 
0

>  <i_epik_Tot_abs_Q>  (1) 
2

>  <i_i_glide_confnum>  (1) 
102

>  <i_i_glide_lignum>  (1) 
65

>  <i_i_glide_posenum>  (1) 
148

>  <i_i_glide_rotatable_bonds>  (1) 
6

>  <i_lp_mmshare_version>  (1) 
72125

>  <i_m_source_file_index>  (1) 
26

>  <i_f3d_flags>  (1) 
0

>  <num_sample>  (1) 
100

>  <b_lp_Chiralities_Consistent>  (1) 
1

>  <r_epik_Charging_Adjusted_Penalty>  (1) 
2.0881109960433539

>  <r_epik_Ionization_Penalty>  (1) 
0.85183889184377526

>  <r_epik_Ionization_Penalty_Charging>  (1) 
0.8304268618792634

>  <r_epik_Ionization_Penalty_Neutral>  (1) 
0.02141202996451182

>  <r_epik_State_Penalty>  (1) 
1.2576841341640903

>  <r_glide_ring_energy>  (1) 
0.038362801895993927

>  <r_i_docking_score>  (1) 
-5.8089875221435943

>  <r_i_glide_ecoul>  (1) 
1.9647765819219933

>  <r_i_glide_eff_state_penalty>  (1) 
1.2576841341640903

>  <r_i_glide_einternal>  (1) 
11.533050661469218

>  <r_i_glide_emodel>  (1) 
-50.029900430502678

>  <r_i_glide_emodel_strain>  (1) 
0.92134828761490439

>  <r_i_glide_energy>  (1) 
-39.509204664445001

>  <r_i_glide_erotb>  (1) 
0.45623875647966866

>  <r_i_glide_esite>  (1) 
-0.029285500695438345

>  <r_i_glide_evdw>  (1) 
-41.473981246366996

>  <r_i_glide_gscore>  (1) 
-7.0666716563076841

>  <r_i_glide_gscore_strain>  (1) 
0

>  <r_i_glide_hbond>  (1) 
0

>  <r_i_glide_ligand_efficiency>  (1) 
-0.17085257418069394

>  <r_i_glide_ligand_efficiency_ln>  (1) 
-1.2833682802224864

>  <r_i_glide_ligand_efficiency_sa>  (1) 
-0.55349601559441286

>  <r_i_glide_lipo>  (1) 
-4.3506788859279277

>  <r_i_glide_metal>  (1) 
-0

>  <r_i_glide_rewards>  (1) 
-1.3639634511339342

>  <r_lp_Energy>  (1) 
63.998362

>  <s_epik_Chemistry_Notes>  (1) 
This compound has an imine and may undergo hydrolysis. This compound has a N-S or N-O group and may undergo hydrolysis at high or low pH.

>  <s_epik_cmdline>  (1) 
J2VwaWtfcHl0aG9uJywgJy1waHQnLCAnMS4wJywgJy1waCcsICc3LjQnLCAnLXRuJywgJzgnLCAnLW1hJywgJzUwMCcsICctaW1hZScsICc8aW5maWxlLm1hZT4nLCAnLW9tYWUnLCAnPG91dGZpbGUubWFlPic=

>  <s_epik_input>  (1) 
W09IXUMoPU8pYyhjMVtOSDJdKWMoYyhbY0hdbjEpW0NIM10pQyg9TylbTkhdQyg9TltDSF09W0NIXTIpW0NIMl1OMltDQEhdKFtDSDJdMylbQ0gyXVtDSDJdW0NIMl1bQ0gyXVtDQF0zKFtDSDNdKU40T1tDQEBIXShbQ0gzXSlbQ0gyXVtDSDJdNA==

>  <s_glide_docking_method>  (1) 
confgen

>  <s_i_glide_gridfile>  (1) 
gpcr_5ht2c_6bqh_protein_autoprepared_prepared

>  <s_lp_Force_Field>  (1) 
S-OPLS

>  <s_lp_Variant>  (1) 
DiffSBDD_25-5

>  <s_m_source_file>  (1) 
generated_GPCR_5HT2C_ligand_DiffSBDD_2026-06-23_prepared.sdf

>  <GenAI_Model>  (1) 
DiffSBDD

>  <Protein>  (1) 
GPCR_5HT2C

$$$$
DiffSBDD_49
     RDKit          3D

  0  0  0  0  0  0  0  0  0  0999 V3000
M  V30 BEGIN CTAB
M  V30 COUNTS 75 80 0 0 1
M  V30 BEGIN ATOM
M  V30 1 N 38.373442 27.738355 53.657142 0 CHG=1
M  V30 2 C 39.247405 25.768613 55.639696 0
M  V30 3 C 38.889889 27.254055 57.456661 0 CFG=2
M  V30 4 O 39.078920 29.810897 53.349258 0
M  V30 5 C 39.267109 27.253555 55.947963 0 CFG=2
M  V30 6 C 37.010448 34.201558 59.902319 0 CFG=1
M  V30 7 O 38.075234 33.488102 61.910476 0
M  V30 8 O 39.645140 25.337773 54.567783 0
M  V30 9 C 38.725554 24.888215 56.705302 0 CFG=2
M  V30 10 C 37.245133 36.639631 58.987301 0
M  V30 11 C 38.845138 34.709275 62.039256 0
M  V30 12 C 38.752595 28.639959 52.804837 0
M  V30 13 C 40.282024 29.219373 58.238864 0
M  V30 14 C 38.071831 30.733203 55.379513 0
M  V30 15 C 37.305887 25.103857 57.160056 0
M  V30 16 C 36.782265 33.538307 61.269002 0 CFG=1
M  V30 17 C 38.943045 29.605555 54.793061 0 CFG=1
M  V30 18 F 36.845134 36.356299 61.049568 0
M  V30 19 C 41.382976 26.973445 58.126913 0
M  V30 20 C 38.924299 35.568434 60.760647 0
M  V30 21 N 38.846582 28.503649 51.475878 0
M  V30 22 C 38.571773 31.402996 56.682219 0
M  V30 23 C 39.184361 30.055399 58.893434 0
M  V30 24 C 38.113499 30.786286 58.040061 0 CFG=1
M  V30 25 C 35.645099 34.236106 62.004982 0
M  V30 26 C 37.386856 31.816716 58.967755 0 CFG=2
M  V30 27 C 37.523843 35.663690 60.140709 0 CFG=1
M  V30 28 C 37.957343 33.264310 59.080743 0
M  V30 29 C 37.103182 31.212210 60.354103 0
M  V30 30 C 36.217536 32.119837 61.147946 0
M  V30 31 C 38.371739 28.140011 55.037992 0 CFG=1
M  V30 32 C 40.057110 27.714365 58.358078 0 CFG=2
M  V30 33 C 38.446216 25.839283 57.828712 0 CFG=2
M  V30 34 H 38.027034 27.894181 57.628604 0
M  V30 35 H 40.297608 27.573485 55.804405 0
M  V30 36 H 36.062565 34.253810 59.362305 0
M  V30 37 H 39.271537 23.986047 56.972584 0
M  V30 38 H 37.645139 36.325856 58.030940 0
M  V30 39 H 36.170685 36.760882 58.839380 0
M  V30 40 H 37.652791 37.627210 59.205528 0
M  V30 41 H 38.445132 35.337728 62.833924 0
M  V30 42 H 39.848657 34.442908 62.369874 0
M  V30 43 H 41.215492 29.449136 58.754275 0
M  V30 44 H 40.445132 29.504707 57.209843 0
M  V30 45 H 37.027944 30.429667 55.468679 0
M  V30 46 H 38.054903 31.526999 54.630880 0
M  V30 47 H 36.637111 25.671177 56.514914 0
M  V30 48 H 36.845255 24.280911 57.701628 0
M  V30 49 H 39.962210 29.693433 55.162258 0
M  V30 50 H 41.845866 27.209361 57.169421 0
M  V30 51 H 42.111762 27.240145 58.894313 0
M  V30 52 H 41.243475 25.895240 58.167730 0
M  V30 53 H 39.305041 36.556036 61.013481 0
M  V30 54 H 39.653094 35.142013 60.075807 0
M  V30 55 H 38.605396 27.624847 51.038098 0
M  V30 56 H 39.161988 29.280194 50.908611 0
M  V30 57 H 38.125980 32.388485 56.594229 0
M  V30 58 H 39.645180 31.586437 56.658945 0
M  V30 59 H 38.677593 29.397567 59.598686 0
M  V30 60 H 39.645137 30.801637 59.530296 0
M  V30 61 H 37.359157 30.038723 57.791164 0
M  V30 62 H 34.948004 34.537754 61.235238 0
M  V30 63 H 34.964754 33.621604 62.567758 0
M  V30 64 H 35.919335 35.087048 62.621026 0
M  V30 65 H 36.405190 31.963884 58.567765 0
M  V30 66 H 38.947005 33.184599 59.526988 0
M  V30 67 H 38.102171 33.740314 58.115424 0
M  V30 68 H 36.615590 30.241316 60.249380 0
M  V30 69 H 38.006778 31.062294 60.944646 0
M  V30 70 H 35.229095 32.134355 60.683259 0
M  V30 71 H 36.090922 31.711335 62.145622 0
M  V30 72 H 37.337314 28.163317 55.372033 0
M  V30 73 H 39.782718 27.502135 59.392495 0
M  V30 74 H 38.667490 25.524733 58.846345 0
M  V30 75 H 38.106900 26.801318 53.385052 0
M  V30 END ATOM
M  V30 BEGIN BOND
M  V30 1 1 5 2
M  V30 2 1 5 3
M  V30 3 2 8 2
M  V30 4 1 9 2
M  V30 5 1 11 7
M  V30 6 2 12 1
M  V30 7 1 12 4
M  V30 8 1 15 9
M  V30 9 1 16 6
M  V30 10 1 16 7
M  V30 11 1 17 4
M  V30 12 1 17 14
M  V30 13 1 20 11
M  V30 14 1 21 12
M  V30 15 1 22 14
M  V30 16 1 23 13
M  V30 17 1 24 22
M  V30 18 1 24 23
M  V30 19 1 16 25 CFG=1
M  V30 20 1 26 24
M  V30 21 1 27 6
M  V30 22 1 27 10
M  V30 23 1 27 18 CFG=1
M  V30 24 1 27 20
M  V30 25 1 28 6
M  V30 26 1 28 26
M  V30 27 1 29 26
M  V30 28 1 30 16
M  V30 29 1 30 29
M  V30 30 1 31 1
M  V30 31 1 31 5
M  V30 32 1 31 17
M  V30 33 1 32 3
M  V30 34 1 32 13
M  V30 35 1 32 19
M  V30 36 1 33 3
M  V30 37 1 33 9
M  V30 38 1 33 15
M  V30 39 1 3 34 CFG=3
M  V30 40 1 5 35 CFG=1
M  V30 41 1 6 36 CFG=3
M  V30 42 1 9 37 CFG=1
M  V30 43 1 38 10
M  V30 44 1 39 10
M  V30 45 1 40 10
M  V30 46 1 41 11
M  V30 47 1 42 11
M  V30 48 1 43 13
M  V30 49 1 44 13
M  V30 50 1 45 14
M  V30 51 1 46 14
M  V30 52 1 47 15
M  V30 53 1 48 15
M  V30 54 1 17 49 CFG=1
M  V30 55 1 50 19
M  V30 56 1 51 19
M  V30 57 1 52 19
M  V30 58 1 53 20
M  V30 59 1 54 20
M  V30 60 1 55 21
M  V30 61 1 56 21
M  V30 62 1 57 22
M  V30 63 1 58 22
M  V30 64 1 59 23
M  V30 65 1 60 23
M  V30 66 1 24 61 CFG=3
M  V30 67 1 62 25
M  V30 68 1 63 25
M  V30 69 1 64 25
M  V30 70 1 26 65 CFG=3
M  V30 71 1 66 28
M  V30 72 1 67 28
M  V30 73 1 68 29
M  V30 74 1 69 29
M  V30 75 1 70 30
M  V30 76 1 71 30
M  V30 77 1 31 72 CFG=1
M  V30 78 1 32 73 CFG=1
M  V30 79 1 33 74 CFG=1
M  V30 80 1 75 1
M  V30 END BOND
M  V30 END CTAB
M  END
>  <i_epik_Tot_Q>  (1) 
1

>  <i_epik_Tot_abs_Q>  (1) 
1

>  <i_i_glide_confnum>  (1) 
4

>  <i_i_glide_lignum>  (1) 
102

>  <i_i_glide_posenum>  (1) 
166

>  <i_i_glide_rotatable_bonds>  (1) 
1

>  <i_lp_mmshare_version>  (1) 
72125

>  <i_m_source_file_index>  (1) 
50

>  <i_f3d_flags>  (1) 
0

>  <num_sample>  (1) 
100

>  <b_lp_Chiralities_Consistent>  (1) 
1

>  <r_epik_Charging_Adjusted_Penalty>  (1) 
0.054352883593996412

>  <r_epik_Ionization_Penalty>  (1) 
0.020131263556531623

>  <r_epik_Ionization_Penalty_Charging>  (1) 
0.012484738498558263

>  <r_epik_Ionization_Penalty_Neutral>  (1) 
0.0076465250579733583

>  <r_epik_State_Penalty>  (1) 
0.041868145095438146

>  <r_glide_ring_energy>  (1) 
0

>  <r_i_docking_score>  (1) 
-5.8052730375759278

>  <r_i_glide_ecoul>  (1) 
-1.8457144268609529

>  <r_i_glide_eff_state_penalty>  (1) 
0.041868145095438146

>  <r_i_glide_einternal>  (1) 
4.6649436526204537

>  <r_i_glide_emodel>  (1) 
-21.448030760186292

>  <r_i_glide_emodel_strain>  (1) 
8.2216896056469722

>  <r_i_glide_energy>  (1) 
-29.480528562398405

>  <r_i_glide_erotb>  (1) 
0.094491925132231133

>  <r_i_glide_esite>  (1) 
0

>  <r_i_glide_evdw>  (1) 
-27.634814135537454

>  <r_i_glide_gscore>  (1) 
-5.8471411826713657

>  <r_i_glide_gscore_strain>  (1) 
1.055422401411743

>  <r_i_glide_hbond>  (1) 
0

>  <r_i_glide_ligand_efficiency>  (1) 
-0.17591736477502812

>  <r_i_glide_ligand_efficiency_ln>  (1) 
-1.2910626654617725

>  <r_i_glide_ligand_efficiency_sa>  (1) 
-0.56426098675830128

>  <r_i_glide_lipo>  (1) 
-3.0543397207316763

>  <r_i_glide_metal>  (1) 
-0

>  <r_i_glide_rewards>  (1) 
-2.2841179176776474

>  <r_lp_Energy>  (1) 
45.880542999999996

>  <s_epik_Chemistry_Notes>  (1) 
This compound has an imine and may undergo hydrolysis.

>  <s_epik_cmdline>  (1) 
J2VwaWtfcHl0aG9uJywgJy1waHQnLCAnMS4wJywgJy1waCcsICc3LjQnLCAnLXRuJywgJzgnLCAnLW1hJywgJzUwMCcsICctaW1hZScsICc8aW5maWxlLm1hZT4nLCAnLW9tYWUnLCAnPG91dGZpbGUubWFlPic=

>  <s_epik_input>  (1) 
W0NIMl0xW0NASF0yW0NAQEhdMUMoPU8pW0NASF0oW0NAQEhdMjMpW0NASF00W0NAQEhdKE9DKD1ONClbTkgyXSlbQ0gyXVtDSDJdW0NAQEhdKFtDSDJdW0NIMl1bQ0BASF0zW0NIM10pW0NAQEhdKFtDSDJdW0NIMl01KVtDSDJdW0NAQEhdKFtDQEBdNTZbQ0gzXSlbQ0BdKEYpKFtDSDNdKVtDSDJdW0NIMl1PNg==

>  <s_glide_docking_method>  (1) 
confgen

>  <s_i_glide_gridfile>  (1) 
gpcr_5ht2c_6bqh_protein_autoprepared_prepared

>  <s_lp_Force_Field>  (1) 
S-OPLS

>  <s_lp_Variant>  (1) 
DiffSBDD_49-1

>  <s_m_source_file>  (1) 
generated_GPCR_5HT2C_ligand_DiffSBDD_2026-06-23_prepared.sdf

>  <GenAI_Model>  (1) 
DiffSBDD

>  <Protein>  (1) 
GPCR_5HT2C

$$$$
DiffSBDD_53
     RDKit          3D

  0  0  0  0  0  0  0  0  0  0999 V3000
M  V30 BEGIN CTAB
M  V30 COUNTS 82 86 0 0 1
M  V30 BEGIN ATOM
M  V30 1 C 39.250613 31.597443 54.909217 0
M  V30 2 C 37.028908 32.988331 61.699658 0
M  V30 3 C 41.246025 35.467774 63.074645 0
M  V30 4 C 37.956410 32.358769 55.285646 0
M  V30 5 C 40.090523 32.647150 62.179836 0
M  V30 6 C 38.183030 26.752167 57.489604 0
M  V30 7 C 39.134518 27.397551 53.239243 0
M  V30 8 N 39.063338 30.261816 54.329813 0
M  V30 9 N 40.505767 36.138206 66.005227 0 CHG=1
M  V30 10 C 35.926013 31.086087 59.741495 0
M  V30 11 C 38.213058 29.313690 55.035457 0 CFG=1
M  V30 12 N 37.647243 32.309103 56.737158 0 CHG=1
M  V30 13 C 40.168947 33.781266 61.457481 0
M  V30 14 C 39.150584 31.565694 61.728950 0
M  V30 15 C 38.128460 28.028362 54.195513 0 CFG=1
M  V30 16 C 38.657084 32.901493 59.751622 0 CFG=1
M  V30 17 C 38.699458 29.108398 56.507110 0 CFG=2
M  V30 18 C 41.732965 35.512362 65.487873 0
M  V30 19 O 36.845140 27.737766 53.752799 0
M  V30 20 C 38.132555 33.580634 57.567496 0
M  V30 21 C 35.618733 33.165582 61.115241 0
M  V30 22 C 35.008441 31.828376 60.694718 0
M  V30 23 C 37.985932 32.090793 60.876623 0
M  V30 24 O 37.690604 33.408469 58.879180 0
M  V30 25 C 37.296785 30.828003 60.340470 0
M  V30 26 C 39.226551 27.706990 56.863279 0 CFG=2
M  V30 27 O 37.660887 29.495980 57.375248 0
M  V30 28 C 41.472054 33.289887 64.243358 0
M  V30 29 N 39.872248 27.158330 55.654942 0 CFG=1 CHG=1
M  V30 30 O 39.419221 33.944209 60.304980 0
M  V30 31 C 40.845121 26.112787 55.948487 0
M  V30 32 C 38.896757 26.797521 54.607608 0 CFG=2
M  V30 33 C 40.889494 32.396679 63.390712 0
M  V30 34 C 41.074198 34.919998 61.706570 0
M  V30 35 C 41.460015 34.760428 64.198611 0
M  V30 36 H 39.949634 31.591909 55.744827 0
M  V30 37 H 39.762612 32.138270 54.127840 0
M  V30 38 H 36.925560 32.499174 62.654083 0
M  V30 39 H 37.462064 33.969495 61.890714 0
M  V30 40 H 41.267345 36.546578 63.136322 0
M  V30 41 H 38.031944 33.402062 54.978048 0
M  V30 42 H 37.110227 31.953908 54.731081 0
M  V30 43 H 37.958336 27.083462 58.505677 0
M  V30 44 H 37.251157 26.721219 56.923843 0
M  V30 45 H 38.548883 25.730960 57.583391 0
M  V30 46 H 38.731895 26.835965 52.395402 0
M  V30 47 H 40.044584 27.927810 52.982527 0
M  V30 48 H 38.719062 30.359704 53.377495 0
M  V30 49 H 40.707851 36.572106 66.893903 0
M  V30 50 H 40.207764 36.848327 65.349695 0
M  V30 51 H 36.046694 31.739643 58.903742 0
M  V30 52 H 35.485730 30.163830 59.367561 0
M  V30 53 H 37.201922 29.725286 55.065500 0
M  V30 54 H 36.616712 32.197069 56.824085 0
M  V30 55 H 39.740959 30.831625 61.177375 0
M  V30 56 H 38.770166 31.050562 62.612960 0
M  V30 57 H 39.292277 32.226843 59.193613 0
M  V30 58 H 39.530992 29.777234 56.728396 0
M  V30 59 H 42.103547 34.821352 66.244204 0
M  V30 60 H 42.520318 36.249757 65.338943 0
M  V30 61 H 36.456571 27.088996 54.318793 0
M  V30 62 H 39.212425 33.694295 57.500689 0
M  V30 63 H 37.645165 34.465976 57.160539 0
M  V30 64 H 35.656066 33.835780 60.256904 0
M  V30 65 H 34.971542 33.657123 61.842068 0
M  V30 66 H 34.072800 32.021708 60.167760 0
M  V30 67 H 34.821048 31.204718 61.568976 0
M  V30 68 H 37.953256 30.313181 59.645498 0
M  V30 69 H 37.156337 30.137805 61.162178 0
M  V30 70 H 40.002073 27.842166 57.620272 0
M  V30 71 H 36.919366 28.914883 57.268222 0
M  V30 72 H 41.963038 32.852884 65.102652 0
M  V30 73 H 40.403178 25.269241 56.473279 0
M  V30 74 H 41.245122 25.737762 55.011295 0
M  V30 75 H 41.642484 26.537779 56.567417 0
M  V30 76 H 38.377114 25.847171 54.734256 0
M  V30 77 H 40.987618 31.358888 63.674780 0
M  V30 78 H 42.045114 34.646968 61.317662 0
M  V30 79 H 40.738884 35.749083 61.081601 0
M  V30 80 H 40.413724 27.919818 55.271775 0
M  V30 81 H 39.779778 35.445870 66.123930 0
M  V30 82 H 38.010894 31.447005 57.124506 0
M  V30 END ATOM
M  V30 BEGIN BOND
M  V30 1 1 4 1
M  V30 2 1 8 1
M  V30 3 1 11 8
M  V30 4 1 12 4
M  V30 5 2 13 5
M  V30 6 1 14 5
M  V30 7 1 15 7
M  V30 8 1 15 11
M  V30 9 1 17 11
M  V30 10 1 18 9
M  V30 11 1 15 19 CFG=3
M  V30 12 1 20 12
M  V30 13 1 21 2
M  V30 14 1 22 10
M  V30 15 1 22 21
M  V30 16 1 23 2
M  V30 17 1 23 14
M  V30 18 1 23 16
M  V30 19 1 24 16
M  V30 20 1 24 20
M  V30 21 1 25 10
M  V30 22 1 25 23
M  V30 23 1 26 6
M  V30 24 1 26 17
M  V30 25 1 27 17
M  V30 26 1 29 26
M  V30 27 1 30 13
M  V30 28 1 30 16
M  V30 29 1 31 29
M  V30 30 1 32 7
M  V30 31 1 32 15
M  V30 32 1 32 29
M  V30 33 1 33 5
M  V30 34 2 33 28
M  V30 35 1 34 3
M  V30 36 1 34 13
M  V30 37 2 35 3
M  V30 38 1 35 18
M  V30 39 1 35 28
M  V30 40 1 36 1
M  V30 41 1 37 1
M  V30 42 1 38 2
M  V30 43 1 39 2
M  V30 44 1 40 3
M  V30 45 1 41 4
M  V30 46 1 42 4
M  V30 47 1 43 6
M  V30 48 1 44 6
M  V30 49 1 45 6
M  V30 50 1 46 7
M  V30 51 1 47 7
M  V30 52 1 48 8
M  V30 53 1 49 9
M  V30 54 1 50 9
M  V30 55 1 51 10
M  V30 56 1 52 10
M  V30 57 1 11 53 CFG=1
M  V30 58 1 54 12
M  V30 59 1 55 14
M  V30 60 1 56 14
M  V30 61 1 16 57 CFG=3
M  V30 62 1 17 58 CFG=1
M  V30 63 1 59 18
M  V30 64 1 60 18
M  V30 65 1 61 19
M  V30 66 1 62 20
M  V30 67 1 63 20
M  V30 68 1 64 21
M  V30 69 1 65 21
M  V30 70 1 66 22
M  V30 71 1 67 22
M  V30 72 1 68 25
M  V30 73 1 69 25
M  V30 74 1 26 70 CFG=1
M  V30 75 1 71 27
M  V30 76 1 72 28
M  V30 77 1 73 31
M  V30 78 1 74 31
M  V30 79 1 75 31
M  V30 80 1 32 76 CFG=3
M  V30 81 1 77 33
M  V30 82 1 78 34
M  V30 83 1 79 34
M  V30 84 1 29 80 CFG=3
M  V30 85 1 81 9
M  V30 86 1 82 12
M  V30 END BOND
M  V30 END CTAB
M  END
>  <i_epik_Tot_Q>  (1) 
3

>  <i_epik_Tot_abs_Q>  (1) 
3

>  <i_i_glide_confnum>  (1) 
35

>  <i_i_glide_lignum>  (1) 
114

>  <i_i_glide_posenum>  (1) 
134

>  <i_i_glide_rotatable_bonds>  (1) 
10

>  <i_lp_mmshare_version>  (1) 
72125

>  <i_m_source_file_index>  (1) 
54

>  <i_f3d_flags>  (1) 
0

>  <num_sample>  (1) 
100

>  <b_lp_Chiralities_Consistent>  (1) 
1

>  <r_epik_Charging_Adjusted_Penalty>  (1) 
1.5449594399157651

>  <r_epik_Ionization_Penalty>  (1) 
0.47240059175592303

>  <r_epik_Ionization_Penalty_Charging>  (1) 
0.40568266018177357

>  <r_epik_Ionization_Penalty_Neutral>  (1) 
0.066717931574149458

>  <r_epik_State_Penalty>  (1) 
1.1392767797339916

>  <r_glide_ring_energy>  (1) 
0.00056355326545655675

>  <r_i_docking_score>  (1) 
-5.8035431777212283

>  <r_i_glide_ecoul>  (1) 
-10.950429318296157

>  <r_i_glide_eff_state_penalty>  (1) 
1.1392767797339916

>  <r_i_glide_einternal>  (1) 
9.3434572055811085

>  <r_i_glide_emodel>  (1) 
-49.632176150063373

>  <r_i_glide_emodel_strain>  (1) 
1.5263894927641388

>  <r_i_glide_energy>  (1) 
-42.044975827241615

>  <r_i_glide_erotb>  (1) 
0.58947078011706677

>  <r_i_glide_esite>  (1) 
-0.16748611366990426

>  <r_i_glide_evdw>  (1) 
-31.094546508945456

>  <r_i_glide_gscore>  (1) 
-6.9428199574552201

>  <r_i_glide_gscore_strain>  (1) 
0

>  <r_i_glide_hbond>  (1) 
-0.11393587414756899

>  <r_i_glide_ligand_efficiency>  (1) 
-0.16581551936346367

>  <r_i_glide_ligand_efficiency_ln>  (1) 
-1.2740065302109334

>  <r_i_glide_ligand_efficiency_sa>  (1) 
-0.54239355909624987

>  <r_i_glide_lipo>  (1) 
-3.5001127266307268

>  <r_i_glide_metal>  (1) 
-0

>  <r_i_glide_rewards>  (1) 
-0.55346429993239021

>  <r_lp_Energy>  (1) 
63.319117999999996

>  <s_epik_Chemistry_Notes>  (1) 
This compound contains an acetal/aminal-like group ( X-CH(R)-Y where X, Y are N, S, or O) that may be acid/base labile, releasing an aldehyde.

>  <s_epik_cmdline>  (1) 
J2VwaWtfcHl0aG9uJywgJy1waHQnLCAnMS4wJywgJy1waCcsICc3LjQnLCAnLXRuJywgJzgnLCAnLW1hJywgJzUwMCcsICctaW1hZScsICc8aW5maWxlLm1hZT4nLCAnLW9tYWUnLCAnPG91dGZpbGUubWFlPic=

>  <s_epik_input>  (1) 
W09IXVtDQEBdMTJbQ0BASF0oW0NIMl0xKU4oW0NIM10pW0NASF0oW0NIM10pW0NASF0oW09IXSlbQ0BIXTJbTkhdW0NIMl1bQ0gyXVtOSF1bQ0gyXU9bQ0BIXTNPQyhbQ0gyXVtDSF09QyhbQ0gyXVtOSDJdKVtDSF09W0NIXTQpPUM0W0NIMl1DMzVbQ0gyXVtDSDJdW0NIMl1bQ0gyXVtDSDJdNQ==

>  <s_glide_docking_method>  (1) 
confgen

>  <s_i_glide_gridfile>  (1) 
gpcr_5ht2c_6bqh_protein_autoprepared_prepared

>  <s_lp_Force_Field>  (1) 
S-OPLS

>  <s_lp_Variant>  (1) 
DiffSBDD_53-6

>  <s_m_source_file>  (1) 
generated_GPCR_5HT2C_ligand_DiffSBDD_2026-06-23_prepared.sdf

>  <GenAI_Model>  (1) 
DiffSBDD

>  <Protein>  (1) 
GPCR_5HT2C

$$$$
DiffSBDD_73
     RDKit          3D

  0  0  0  0  0  0  0  0  0  0999 V3000
M  V30 BEGIN CTAB
M  V30 COUNTS 64 65 0 0 1
M  V30 BEGIN ATOM
M  V30 1 C 37.801170 33.014176 60.292980 0 CFG=1
M  V30 2 C 40.044714 31.378646 55.140643 0
M  V30 3 N 38.645965 28.807561 53.886713 0
M  V30 4 C 38.162592 36.319465 62.229300 0
M  V30 5 C 37.804430 35.349512 61.332533 0
M  V30 6 C 37.562612 33.270728 58.806333 0
M  V30 7 C 39.272666 28.464478 52.608742 0 CFG=2
M  V30 8 N 38.894230 29.981906 56.838880 0
M  V30 9 O 39.645013 27.174839 55.102543 0
M  V30 10 C 35.419928 31.840304 60.544875 0
M  V30 11 C 38.270204 28.746647 56.312927 0 CFG=1
M  V30 12 C 40.425984 35.271525 63.137547 0
M  V30 13 C 39.400741 36.377430 63.125076 0 CFG=1
M  V30 14 C 38.920085 28.167841 55.036723 0
M  V30 15 O 38.076111 32.222142 57.999600 0
M  V30 16 C 40.774541 29.561790 50.786421 0
M  V30 17 C 38.554293 34.122548 60.950431 0
M  V30 18 C 40.814636 34.979205 61.725963 0
M  V30 19 C 38.765093 31.165437 55.963436 0 CFG=1
M  V30 20 C 36.739052 32.308514 61.125465 0 CFG=1
M  V30 21 O 40.045180 37.617876 62.944917 0
M  V30 22 C 39.951326 29.738772 52.055188 0
M  V30 23 C 38.437147 32.465966 56.721074 0
M  V30 24 O 38.445142 33.574057 56.184478 0
M  V30 25 C 38.193477 27.699848 57.437635 0
M  V30 26 C 39.885255 33.968050 61.145666 0
M  V30 27 C 38.203847 27.865733 51.692561 0
M  V30 28 C 38.014427 31.587430 60.790728 0
M  V30 29 H 39.788231 31.737930 54.145621 0
M  V30 30 H 40.694597 32.124254 55.594217 0
M  V30 31 H 40.630899 30.467495 55.027002 0
M  V30 32 H 38.011353 29.591776 53.904105 0
M  V30 33 H 37.475102 37.140632 62.370042 0
M  V30 34 H 36.848161 35.486671 60.849035 0
M  V30 35 H 36.495681 33.383780 58.615012 0
M  V30 36 H 38.029025 34.217624 58.537568 0
M  V30 37 H 40.045037 27.700438 52.721390 0
M  V30 38 H 38.499083 30.211830 57.741422 0
M  V30 39 H 35.562392 31.360195 59.575246 0
M  V30 40 H 34.949433 31.126285 61.220989 0
M  V30 41 H 34.748044 32.688889 60.411705 0
M  V30 42 H 37.245151 28.993548 56.050482 0
M  V30 43 H 41.301367 35.582075 63.710196 0
M  V30 44 H 40.045144 34.378186 63.634263 0
M  V30 45 H 38.999292 36.422314 64.138254 0
M  V30 46 H 41.161152 30.520761 50.438476 0
M  V30 47 H 41.628961 28.937845 51.017592 0
M  V30 48 H 40.205309 29.113465 49.972062 0
M  V30 49 H 41.802505 34.523007 61.711247 0
M  V30 50 H 40.873958 35.868083 61.094301 0
M  V30 51 H 37.929770 31.012637 55.279071 0
M  V30 52 H 36.648650 32.663850 62.150323 0
M  V30 53 H 40.680715 37.737728 63.643987 0
M  V30 54 H 39.245145 30.537904 51.890508 0
M  V30 55 H 40.623976 30.130472 52.809716 0
M  V30 56 H 37.668115 26.802377 57.108717 0
M  V30 57 H 39.186665 27.397773 57.772435 0
M  V30 58 H 37.654891 28.092627 58.300570 0
M  V30 59 H 40.348804 33.045074 60.828485 0
M  V30 60 H 38.596420 27.624691 50.704935 0
M  V30 61 H 37.820756 26.938622 52.120510 0
M  V30 62 H 37.361811 28.544096 51.579044 0
M  V30 63 H 37.947102 30.766494 60.080506 0
M  V30 64 H 38.711562 31.423131 61.609703 0
M  V30 END ATOM
M  V30 BEGIN BOND
M  V30 1 2 5 4
M  V30 2 1 1 6 CFG=3
M  V30 3 1 7 3
M  V30 4 1 11 8
M  V30 5 1 13 4
M  V30 6 1 13 12
M  V30 7 1 14 3
M  V30 8 2 14 9
M  V30 9 1 14 11
M  V30 10 1 15 6
M  V30 11 1 17 1
M  V30 12 1 17 5
M  V30 13 1 18 12
M  V30 14 1 19 2
M  V30 15 1 19 8
M  V30 16 1 20 1
M  V30 17 1 20 10
M  V30 18 1 21 13
M  V30 19 1 22 7
M  V30 20 1 22 16
M  V30 21 1 23 15
M  V30 22 1 23 19
M  V30 23 2 24 23
M  V30 24 1 25 11
M  V30 25 2 26 17
M  V30 26 1 26 18
M  V30 27 1 27 7
M  V30 28 1 28 1
M  V30 29 1 28 20
M  V30 30 1 29 2
M  V30 31 1 30 2
M  V30 32 1 31 2
M  V30 33 1 32 3
M  V30 34 1 33 4
M  V30 35 1 34 5
M  V30 36 1 35 6
M  V30 37 1 36 6
M  V30 38 1 7 37 CFG=1
M  V30 39 1 38 8
M  V30 40 1 39 10
M  V30 41 1 40 10
M  V30 42 1 41 10
M  V30 43 1 11 42 CFG=3
M  V30 44 1 43 12
M  V30 45 1 44 12
M  V30 46 1 13 45 CFG=1
M  V30 47 1 46 16
M  V30 48 1 47 16
M  V30 49 1 48 16
M  V30 50 1 49 18
M  V30 51 1 50 18
M  V30 52 1 19 51 CFG=3
M  V30 53 1 20 52 CFG=1
M  V30 54 1 53 21
M  V30 55 1 54 22
M  V30 56 1 55 22
M  V30 57 1 56 25
M  V30 58 1 57 25
M  V30 59 1 58 25
M  V30 60 1 59 26
M  V30 61 1 60 27
M  V30 62 1 61 27
M  V30 63 1 62 27
M  V30 64 1 63 28
M  V30 65 1 64 28
M  V30 END BOND
M  V30 END CTAB
M  END
>  <i_epik_Tot_Q>  (1) 
0

>  <i_epik_Tot_abs_Q>  (1) 
0

>  <i_i_glide_confnum>  (1) 
2386

>  <i_i_glide_lignum>  (1) 
158

>  <i_i_glide_posenum>  (1) 
290

>  <i_i_glide_rotatable_bonds>  (1) 
12

>  <i_lp_mmshare_version>  (1) 
72125

>  <i_m_source_file_index>  (1) 
74

>  <i_f3d_flags>  (1) 
0

>  <num_sample>  (1) 
100

>  <b_lp_Chiralities_Consistent>  (1) 
1

>  <r_epik_Charging_Adjusted_Penalty>  (1) 
0.088841992990236665

>  <r_epik_Ionization_Penalty>  (1) 
0.088842122646257599

>  <r_epik_Ionization_Penalty_Charging>  (1) 
0

>  <r_epik_Ionization_Penalty_Neutral>  (1) 
0.088842122646257599

>  <r_epik_State_Penalty>  (1) 
0.088841992990236665

>  <r_glide_ring_energy>  (1) 
0

>  <r_i_docking_score>  (1) 
-5.8014247282383824

>  <r_i_glide_ecoul>  (1) 
-4.3466422870549568

>  <r_i_glide_eff_state_penalty>  (1) 
0.088841992990236665

>  <r_i_glide_einternal>  (1) 
7.7062621948718082

>  <r_i_glide_emodel>  (1) 
-52.81686157195611

>  <r_i_glide_emodel_strain>  (1) 
2.0590837249150553

>  <r_i_glide_energy>  (1) 
-43.092699230324818

>  <r_i_glide_erotb>  (1) 
1.2671681791471729

>  <r_i_glide_esite>  (1) 
-0.085144517953668619

>  <r_i_glide_evdw>  (1) 
-38.746056943269863

>  <r_i_glide_gscore>  (1) 
-5.8902667212286195

>  <r_i_glide_gscore_strain>  (1) 
0

>  <r_i_glide_hbond>  (1) 
-0.32000000000000001

>  <r_i_glide_ligand_efficiency>  (1) 
-0.20719374029422793

>  <r_i_glide_ligand_efficiency_ln>  (1) 
-1.3391391645090549

>  <r_i_glide_ligand_efficiency_sa>  (1) 
-0.62916222681912271

>  <r_i_glide_lipo>  (1) 
-2.9295795146697232

>  <r_i_glide_metal>  (1) 
-0

>  <r_i_glide_rewards>  (1) 
-1.2334116775306632

>  <r_lp_Energy>  (1) 
23.544556

>  <s_epik_Chemistry_Notes>  (1) 
This compound has an ester and may undergo hydrolysis at high or low pH.

>  <s_epik_cmdline>  (1) 
J2VwaWtfcHl0aG9uJywgJy1waHQnLCAnMS4wJywgJy1waCcsICc3LjQnLCAnLXRuJywgJzgnLCAnLW1hJywgJzUwMCcsICctaW1hZScsICc8aW5maWxlLm1hZT4nLCAnLW9tYWUnLCAnPG91dGZpbGUubWFlPic=

>  <s_epik_input>  (1) 
W09IXVtDQEhdMVtDSF09W0NIXUMoPVtDSF1bQ0gyXVtDSDJdMSlbQ0BAXTIoW0NAQEhdKFtDSDNdKVtDSDJdMilbQ0gyXU9DKD1PKVtDQEBIXShbQ0gzXSlbTkhdW0NASF0oW0NIM10pQyg9TylbTkhdW0NAQEhdKFtDSDNdKVtDSDJdW0NIM10=

>  <s_glide_docking_method>  (1) 
confgen

>  <s_i_glide_gridfile>  (1) 
gpcr_5ht2c_6bqh_protein_autoprepared_prepared

>  <s_lp_Force_Field>  (1) 
S-OPLS

>  <s_lp_Variant>  (1) 
DiffSBDD_73-1

>  <s_m_source_file>  (1) 
generated_GPCR_5HT2C_ligand_DiffSBDD_2026-06-23_prepared.sdf

>  <GenAI_Model>  (1) 
DiffSBDD

>  <Protein>  (1) 
GPCR_5HT2C

$$$$
DiffSBDD_42
     RDKit          3D

  0  0  0  0  0  0  0  0  0  0999 V3000
M  V30 BEGIN CTAB
M  V30 COUNTS 89 94 0 0 1
M  V30 BEGIN ATOM
M  V30 1 C 40.827322 29.628947 66.092495 0
M  V30 2 C 38.115955 28.802904 58.303036 0
M  V30 3 C 39.260592 28.904012 52.853884 0
M  V30 4 C 38.947629 26.675337 51.696910 0
M  V30 5 O 39.245652 32.509573 56.241789 0 CHG=-1
M  V30 6 C 39.583575 31.005624 54.033292 0
M  V30 7 C 38.828756 28.310706 54.047320 0
M  V30 8 C 39.164400 30.409075 55.233861 0
M  V30 9 C 41.941640 26.160084 65.832233 0 CFG=2
M  V30 10 C 40.224453 28.534071 50.474916 0
M  V30 11 C 42.947992 28.874254 65.010177 0 CFG=1
M  V30 12 C 37.576497 33.299022 61.381172 0 CFG=1
M  V30 13 C 42.063902 31.044434 64.393380 0
M  V30 14 C 37.444630 34.111625 60.077154 0
M  V30 15 C 39.982527 33.293722 63.030518 0
M  V30 16 C 37.280402 29.982810 57.734761 0
M  V30 17 C 36.248198 32.638693 61.767746 0
M  V30 18 O 40.837347 31.693062 61.453119 0
M  V30 19 C 39.112427 29.969517 60.249725 0
M  V30 20 O 40.735627 25.899756 65.148959 0
M  V30 21 C 39.871259 32.373667 61.796367 0
M  V30 22 C 38.248695 28.818862 59.781894 0
M  V30 23 O 41.925765 34.508896 63.458945 0
M  V30 24 C 37.274090 33.213027 58.829951 0
M  V30 25 C 40.833996 30.934869 65.321109 0
M  V30 26 C 42.445295 35.305243 64.508648 0
M  V30 27 N 38.044861 31.237114 57.509813 0 CFG=2 CHG=1
M  V30 28 C 41.761378 27.389979 66.745962 0
M  V30 29 C 39.188982 31.234371 56.551356 0 CFG=2
M  V30 30 C 38.783200 29.047778 55.221068 0
M  V30 31 C 41.284940 33.346954 63.870603 0 CFG=2
M  V30 32 C 43.085306 26.339944 64.810922 0
M  V30 33 C 39.357618 28.109659 51.612958 0 CFG=2
M  V30 34 C 39.637577 30.261402 52.856170 0
M  V30 35 C 38.367956 31.320044 60.103631 0 CFG=2
M  V30 36 C 43.006366 27.676262 64.044302 0
M  V30 37 O 42.127694 32.234388 63.678332 0
M  V30 38 N 42.952790 30.134284 64.263267 0
M  V30 39 C 41.776986 28.694190 65.961574 0
M  V30 40 C 38.312730 32.064311 58.743901 0 CFG=2
M  V30 41 N 38.654541 32.315772 61.152911 0
M  V30 42 O 38.845201 28.858898 50.538142 0
M  V30 43 H 40.005980 29.470945 66.777862 0
M  V30 44 H 39.137632 28.764236 57.927986 0
M  V30 45 H 37.632339 27.865596 58.021980 0
M  V30 46 H 39.658235 26.138303 52.321463 0
M  V30 47 H 37.947422 26.573962 52.115381 0
M  V30 48 H 38.939076 26.236266 50.702096 0
M  V30 49 H 39.880048 32.037752 54.021267 0
M  V30 50 H 38.544196 27.270459 54.068679 0
M  V30 51 H 42.148725 25.283498 66.448147 0
M  V30 52 H 40.898263 29.380109 50.553558 0
M  V30 53 H 40.445209 27.759309 49.767841 0
M  V30 54 H 43.849039 28.853621 65.624595 0
M  V30 55 H 37.790731 34.011622 62.165755 0
M  V30 56 H 36.603293 34.799362 60.148895 0
M  V30 57 H 38.330683 34.734442 59.952153 0
M  V30 58 H 39.244179 32.938812 63.733624 0
M  V30 59 H 39.734288 34.323156 62.778054 0
M  V30 60 H 36.420720 30.178073 58.376079 0
M  V30 61 H 36.817215 29.715606 56.786644 0
M  V30 62 H 35.554340 33.372546 62.167940 0
M  V30 63 H 35.719710 32.178955 60.935225 0
M  V30 64 H 36.445353 31.856192 62.494850 0
M  V30 65 H 40.087504 29.965808 59.758185 0
M  V30 66 H 39.283502 29.759392 61.307188 0
M  V30 67 H 40.482227 26.684559 64.685165 0
M  V30 68 H 38.657697 27.870327 60.134636 0
M  V30 69 H 37.244521 28.937510 60.167759 0
M  V30 70 H 36.271969 32.789507 58.838711 0
M  V30 71 H 37.324065 33.829012 57.931443 0
M  V30 72 H 39.918558 30.984272 64.732653 0
M  V30 73 H 40.830200 31.725177 66.068618 0
M  V30 74 H 42.845079 36.222808 64.086366 0
M  V30 75 H 41.678539 35.592802 65.229442 0
M  V30 76 H 43.243431 34.772228 65.021634 0
M  V30 77 H 40.853769 27.298435 67.343630 0
M  V30 78 H 42.590298 27.427642 67.453284 0
M  V30 79 H 39.999895 30.749726 57.091957 0
M  V30 80 H 38.473164 28.560502 56.091936 0
M  V30 81 H 41.027402 33.472104 64.922800 0
M  V30 82 H 44.038846 26.299318 65.339207 0
M  V30 83 H 43.097443 25.504793 64.109419 0
M  V30 84 H 39.975196 30.733662 51.947124 0
M  V30 85 H 37.340499 31.029675 60.277886 0
M  V30 86 H 42.129015 27.680168 63.396089 0
M  V30 87 H 43.871604 27.766853 63.386661 0
M  V30 88 H 39.271004 32.569179 58.655287 0
M  V30 89 H 37.382775 31.802550 56.989376 0
M  V30 END ATOM
M  V30 BEGIN BOND
M  V30 1 2 7 3
M  V30 2 1 8 6
M  V30 3 1 14 12
M  V30 4 1 16 2
M  V30 5 1 17 12
M  V30 6 1 20 9
M  V30 7 1 21 15
M  V30 8 2 21 18
M  V30 9 1 22 2
M  V30 10 1 22 19
M  V30 11 1 24 14
M  V30 12 1 25 1
M  V30 13 1 25 13
M  V30 14 1 26 23
M  V30 15 1 27 16
M  V30 16 1 28 9
M  V30 17 1 29 5
M  V30 18 1 29 8
M  V30 19 1 29 27
M  V30 20 1 30 7
M  V30 21 2 30 8
M  V30 22 1 31 15
M  V30 23 1 31 23
M  V30 24 1 32 9
M  V30 25 1 33 3
M  V30 26 1 33 4 CFG=1
M  V30 27 1 33 10
M  V30 28 1 34 3
M  V30 29 2 34 6
M  V30 30 1 35 19
M  V30 31 1 36 11
M  V30 32 1 36 32
M  V30 33 1 37 13
M  V30 34 1 37 31
M  V30 35 1 38 11
M  V30 36 2 38 13
M  V30 37 2 39 1
M  V30 38 1 39 11
M  V30 39 1 39 28
M  V30 40 1 40 24
M  V30 41 1 40 27
M  V30 42 1 40 35
M  V30 43 1 41 12
M  V30 44 1 41 21
M  V30 45 1 41 35
M  V30 46 1 42 10
M  V30 47 1 42 33
M  V30 48 1 43 1
M  V30 49 1 44 2
M  V30 50 1 45 2
M  V30 51 1 46 4
M  V30 52 1 47 4
M  V30 53 1 48 4
M  V30 54 1 49 6
M  V30 55 1 50 7
M  V30 56 1 9 51 CFG=1
M  V30 57 1 52 10
M  V30 58 1 53 10
M  V30 59 1 11 54 CFG=1
M  V30 60 1 12 55 CFG=1
M  V30 61 1 56 14
M  V30 62 1 57 14
M  V30 63 1 58 15
M  V30 64 1 59 15
M  V30 65 1 60 16
M  V30 66 1 61 16
M  V30 67 1 62 17
M  V30 68 1 63 17
M  V30 69 1 64 17
M  V30 70 1 65 19
M  V30 71 1 66 19
M  V30 72 1 67 20
M  V30 73 1 68 22
M  V30 74 1 69 22
M  V30 75 1 70 24
M  V30 76 1 71 24
M  V30 77 1 72 25
M  V30 78 1 73 25
M  V30 79 1 74 26
M  V30 80 1 75 26
M  V30 81 1 76 26
M  V30 82 1 77 28
M  V30 83 1 78 28
M  V30 84 1 29 79 CFG=1
M  V30 85 1 80 30
M  V30 86 1 31 81 CFG=1
M  V30 87 1 82 32
M  V30 88 1 83 32
M  V30 89 1 84 34
M  V30 90 1 35 85 CFG=1
M  V30 91 1 86 36
M  V30 92 1 87 36
M  V30 93 1 40 88 CFG=3
M  V30 94 1 27 89 CFG=3
M  V30 END BOND
M  V30 END CTAB
M  END
>  <i_epik_Tot_Q>  (1) 
0

>  <i_epik_Tot_abs_Q>  (1) 
2

>  <i_i_glide_confnum>  (1) 
62

>  <i_i_glide_lignum>  (1) 
92

>  <i_i_glide_posenum>  (1) 
324

>  <i_i_glide_rotatable_bonds>  (1) 
10

>  <i_lp_mmshare_version>  (1) 
72125

>  <i_m_source_file_index>  (1) 
43

>  <i_f3d_flags>  (1) 
0

>  <num_sample>  (1) 
100

>  <b_lp_Chiralities_Consistent>  (1) 
1

>  <r_epik_Charging_Adjusted_Penalty>  (1) 
0.10762157237222084

>  <r_epik_Ionization_Penalty>  (1) 
0.015049648649627746

>  <r_epik_Ionization_Penalty_Charging>  (1) 
0.014590701191951229

>  <r_epik_Ionization_Penalty_Neutral>  (1) 
0.0004589474576765184

>  <r_epik_State_Penalty>  (1) 
0.093030871180269606

>  <r_glide_ring_energy>  (1) 
0

>  <r_i_docking_score>  (1) 
-5.7857077506662957

>  <r_i_glide_ecoul>  (1) 
-5.6442946921137951

>  <r_i_glide_eff_state_penalty>  (1) 
0.093030871180269606

>  <r_i_glide_einternal>  (1) 
25.161306870777999

>  <r_i_glide_emodel>  (1) 
-23.505780201534421

>  <r_i_glide_emodel_strain>  (1) 
13.326009113990821

>  <r_i_glide_energy>  (1) 
-44.864149697703326

>  <r_i_glide_erotb>  (1) 
0.39316795176799535

>  <r_i_glide_esite>  (1) 
-0.12029811399648389

>  <r_i_glide_evdw>  (1) 
-39.21985500558953

>  <r_i_glide_gscore>  (1) 
-5.8787386218465656

>  <r_i_glide_gscore_strain>  (1) 
2.3315022784977053

>  <r_i_glide_hbond>  (1) 
-0.13174568920036536

>  <r_i_glide_ligand_efficiency>  (1) 
-0.13775494644443562

>  <r_i_glide_ligand_efficiency_ln>  (1) 
-1.2212138491756355

>  <r_i_glide_ligand_efficiency_sa>  (1) 
-0.4788398643057642

>  <r_i_glide_lipo>  (1) 
-3.791445676850262

>  <r_i_glide_metal>  (1) 
-0

>  <r_i_glide_rewards>  (1) 
-1.7522824179686083

>  <r_lp_Energy>  (1) 
81.408011000000002

>  <s_epik_Chemistry_Notes>  (1) 
This compound has an imine and may undergo hydrolysis. This compound contains an acetal/aminal-like group ( X-CH(R)-Y where X, Y are N, S, or O) that may be acid/base labile, releasing an aldehyde.

>  <s_epik_cmdline>  (1) 
J2VwaWtfcHl0aG9uJywgJy1waHQnLCAnMS4wJywgJy1waCcsICc3LjQnLCAnLXRuJywgJzgnLCAnLW1hJywgJzUwMCcsICctaW1hZScsICc8aW5maWxlLm1hZT4nLCAnLW9tYWUnLCAnPG91dGZpbGUubWFlPic=

>  <s_epik_input>  (1) 
W0NIMl0xW0NIMl1bQ0BIXShbT0hdKVtDSDJdQyhbQ0BASF0xMik9W0NIXVtDSDJdQyg9TjIpT1tDQEBIXShPW0NIM10pW0NIMl1DKD1PKU4zW0NASF0oW0NIM10pW0NIMl1bQ0gyXVtDQEBIXShbQ0BIXTM0KU4oW0NIMl1bQ0gyXVtDSDJdW0NIMl00KVtDQEhdKFtPSF0pYyhbY0hdW2NIXTUpW2NIXVtjSF1jNUM2KFtDSDNdKVtDSDJdTzY=

>  <s_glide_docking_method>  (1) 
confgen

>  <s_i_glide_gridfile>  (1) 
gpcr_5ht2c_6bqh_protein_autoprepared_prepared

>  <s_lp_Force_Field>  (1) 
S-OPLS

>  <s_lp_Variant>  (1) 
DiffSBDD_42-1

>  <s_m_source_file>  (1) 
generated_GPCR_5HT2C_ligand_DiffSBDD_2026-06-23_prepared.sdf

>  <GenAI_Model>  (1) 
DiffSBDD

>  <Protein>  (1) 
GPCR_5HT2C

$$$$
DiffSBDD_53
     RDKit          3D

  0  0  0  0  0  0  0  0  0  0999 V3000
M  V30 BEGIN CTAB
M  V30 COUNTS 81 85 0 0 1
M  V30 BEGIN ATOM
M  V30 1 C 39.568791 29.357717 57.501471 0
M  V30 2 C 41.400383 32.998086 61.747352 0
M  V30 3 C 42.980869 29.137206 65.832545 0
M  V30 4 C 39.745879 28.616713 58.831557 0
M  V30 5 C 41.613572 31.753287 64.760599 0
M  V30 6 C 37.568855 27.835058 52.458269 0
M  V30 7 C 40.221687 30.794694 54.635781 0
M  V30 8 N 38.270958 29.048949 56.855751 0 CHG=1
M  V30 9 N 41.645140 29.354294 69.111403 0
M  V30 10 C 38.837711 34.462582 62.054161 0
M  V30 11 C 38.191871 29.229926 55.382495 0 CFG=1
M  V30 12 N 38.761445 29.086337 59.789027 0
M  V30 13 C 42.034888 30.664249 64.084833 0
M  V30 14 C 40.551409 32.656075 64.138733 0
M  V30 15 C 38.751357 30.560074 54.919212 0 CFG=1
M  V30 16 C 40.266457 30.858002 62.499444 0 CFG=1
M  V30 17 C 38.903762 28.082441 54.643866 0 CFG=2
M  V30 18 C 42.789051 29.012760 68.285124 0
M  V30 19 O 38.146106 31.700074 55.501561 0
M  V30 20 C 39.289931 29.297827 61.105142 0
M  V30 21 C 41.289709 34.537021 61.632345 0
M  V30 22 C 39.921783 34.972934 61.110070 0
M  V30 23 C 40.285673 32.394867 62.638085 0
M  V30 24 O 39.947514 30.515049 61.185224 0
M  V30 25 C 38.898278 32.930711 62.177502 0
M  V30 26 C 38.899785 28.244570 53.097217 0 CFG=2
M  V30 27 O 38.336680 26.846066 55.042075 0
M  V30 28 C 42.658987 31.272988 67.044710 0
M  V30 29 N 39.245129 29.611464 52.589348 0 CFG=2 CHG=1
M  V30 30 O 41.501947 30.334177 62.861787 0
M  V30 31 C 40.269863 29.655857 51.515707 0
M  V30 32 C 39.225441 30.799524 53.499766 0 CFG=2
M  V30 33 C 42.146527 32.111100 66.087596 0
M  V30 34 C 43.125648 29.755114 64.497399 0
M  V30 35 C 42.810664 29.802196 66.985479 0
M  V30 36 H 40.397201 29.060845 56.861529 0
M  V30 37 H 39.645146 30.436402 57.645329 0
M  V30 38 H 42.388139 32.734843 62.126919 0
M  V30 39 H 41.334898 32.537817 60.761179 0
M  V30 40 H 43.086768 28.062132 65.862441 0
M  V30 41 H 39.659156 27.535965 58.705675 0
M  V30 42 H 40.753052 28.812860 59.205707 0
M  V30 43 H 37.292921 26.814133 52.717924 0
M  V30 44 H 36.749296 28.489334 52.756080 0
M  V30 45 H 37.645141 27.866864 51.370299 0
M  V30 46 H 40.637247 31.737754 54.967703 0
M  V30 47 H 40.898817 29.961141 54.735415 0
M  V30 48 H 37.575600 29.640443 57.293923 0
M  V30 49 H 40.796682 29.020545 68.668806 0
M  V30 50 H 41.701080 28.855365 69.987740 0
M  V30 51 H 37.856207 34.767971 61.690640 0
M  V30 52 H 38.971903 34.938197 63.022865 0
M  V30 53 H 37.135271 29.214912 55.114378 0
M  V30 54 H 37.980745 28.445705 59.819178 0
M  V30 55 H 39.645141 32.488111 64.714309 0
M  V30 56 H 40.819319 33.697471 64.313481 0
M  V30 57 H 39.527163 30.453027 63.197475 0
M  V30 58 H 39.940938 28.023132 54.967748 0
M  V30 59 H 42.776589 27.939616 68.090215 0
M  V30 60 H 43.703877 29.227995 68.837369 0
M  V30 61 H 37.195568 31.676372 55.446383 0
M  V30 62 H 38.451102 29.337764 61.800041 0
M  V30 63 H 39.945658 28.479466 61.410610 0
M  V30 64 H 42.045135 34.937829 60.967755 0
M  V30 65 H 41.480894 35.004521 62.598103 0
M  V30 66 H 39.761639 34.581635 60.104654 0
M  V30 67 H 39.875791 36.060081 61.036245 0
M  V30 68 H 38.649759 32.531522 61.193641 0
M  V30 69 H 38.111944 32.568141 62.837076 0
M  V30 70 H 39.645118 27.544650 52.715608 0
M  V30 71 H 37.513189 26.709819 54.594632 0
M  V30 72 H 42.924988 31.737700 67.983114 0
M  V30 73 H 41.200256 29.151688 51.767760 0
M  V30 74 H 39.879628 29.161047 50.625300 0
M  V30 75 H 40.503347 30.684790 51.237518 0
M  V30 76 H 39.013401 31.741362 52.999558 0
M  V30 77 H 42.061539 33.150425 66.368631 0
M  V30 78 H 43.211120 28.952372 63.763412 0
M  V30 79 H 44.070889 30.297313 64.461323 0
M  V30 80 H 38.418587 29.805752 52.044312 0
M  V30 81 H 38.043810 28.081971 57.041419 0
M  V30 END ATOM
M  V30 BEGIN BOND
M  V30 1 1 4 1
M  V30 2 1 8 1
M  V30 3 1 11 8
M  V30 4 1 12 4
M  V30 5 2 13 5
M  V30 6 1 14 5
M  V30 7 1 15 7
M  V30 8 1 15 11
M  V30 9 1 17 11
M  V30 10 1 18 9
M  V30 11 1 15 19 CFG=1
M  V30 12 1 20 12
M  V30 13 1 21 2
M  V30 14 1 22 10
M  V30 15 1 22 21
M  V30 16 1 23 2
M  V30 17 1 23 14
M  V30 18 1 23 16
M  V30 19 1 24 16
M  V30 20 1 24 20
M  V30 21 1 25 10
M  V30 22 1 25 23
M  V30 23 1 26 6
M  V30 24 1 26 17
M  V30 25 1 27 17
M  V30 26 1 29 26
M  V30 27 1 30 13
M  V30 28 1 30 16
M  V30 29 1 31 29
M  V30 30 1 32 7
M  V30 31 1 32 15
M  V30 32 1 32 29
M  V30 33 1 33 5
M  V30 34 2 33 28
M  V30 35 1 34 3
M  V30 36 1 34 13
M  V30 37 2 35 3
M  V30 38 1 35 18
M  V30 39 1 35 28
M  V30 40 1 36 1
M  V30 41 1 37 1
M  V30 42 1 38 2
M  V30 43 1 39 2
M  V30 44 1 40 3
M  V30 45 1 41 4
M  V30 46 1 42 4
M  V30 47 1 43 6
M  V30 48 1 44 6
M  V30 49 1 45 6
M  V30 50 1 46 7
M  V30 51 1 47 7
M  V30 52 1 48 8
M  V30 53 1 49 9
M  V30 54 1 50 9
M  V30 55 1 51 10
M  V30 56 1 52 10
M  V30 57 1 11 53 CFG=3
M  V30 58 1 54 12
M  V30 59 1 55 14
M  V30 60 1 56 14
M  V30 61 1 16 57 CFG=1
M  V30 62 1 17 58 CFG=1
M  V30 63 1 59 18
M  V30 64 1 60 18
M  V30 65 1 61 19
M  V30 66 1 62 20
M  V30 67 1 63 20
M  V30 68 1 64 21
M  V30 69 1 65 21
M  V30 70 1 66 22
M  V30 71 1 67 22
M  V30 72 1 68 25
M  V30 73 1 69 25
M  V30 74 1 26 70 CFG=3
M  V30 75 1 71 27
M  V30 76 1 72 28
M  V30 77 1 73 31
M  V30 78 1 74 31
M  V30 79 1 75 31
M  V30 80 1 32 76 CFG=3
M  V30 81 1 77 33
M  V30 82 1 78 34
M  V30 83 1 79 34
M  V30 84 1 29 80 CFG=3
M  V30 85 1 81 8
M  V30 END BOND
M  V30 END CTAB
M  END
>  <i_epik_Tot_Q>  (1) 
2

>  <i_epik_Tot_abs_Q>  (1) 
2

>  <i_i_glide_confnum>  (1) 
447

>  <i_i_glide_lignum>  (1) 
111

>  <i_i_glide_posenum>  (1) 
100

>  <i_i_glide_rotatable_bonds>  (1) 
10

>  <i_lp_mmshare_version>  (1) 
72125

>  <i_m_source_file_index>  (1) 
54

>  <i_f3d_flags>  (1) 
0

>  <num_sample>  (1) 
100

>  <b_lp_Chiralities_Consistent>  (1) 
1

>  <r_epik_Charging_Adjusted_Penalty>  (1) 
1.1947924258661535

>  <r_epik_Ionization_Penalty>  (1) 
1.111601378610803

>  <r_epik_Ionization_Penalty_Charging>  (1) 
0.15856543202638063

>  <r_epik_Ionization_Penalty_Neutral>  (1) 
0.95303594658442226

>  <r_epik_State_Penalty>  (1) 
1.036226993839773

>  <r_glide_ring_energy>  (1) 
0.00054242717464313866

>  <r_i_docking_score>  (1) 
-5.7769500814381232

>  <r_i_glide_ecoul>  (1) 
-4.0185291339566627

>  <r_i_glide_eff_state_penalty>  (1) 
1.036226993839773

>  <r_i_glide_einternal>  (1) 
5.816165860612923

>  <r_i_glide_emodel>  (1) 
-53.792181177356952

>  <r_i_glide_emodel_strain>  (1) 
4.2479244655837505

>  <r_i_glide_energy>  (1) 
-42.575820035177813

>  <r_i_glide_erotb>  (1) 
0.59168961163588141

>  <r_i_glide_esite>  (1) 
-0.0011008924389731059

>  <r_i_glide_evdw>  (1) 
-38.557290901221151

>  <r_i_glide_gscore>  (1) 
-6.8131770752778964

>  <r_i_glide_gscore_strain>  (1) 
0.061981116395937619

>  <r_i_glide_hbond>  (1) 
-0.35393372682776991

>  <r_i_glide_ligand_efficiency>  (1) 
-0.16505571661251781

>  <r_i_glide_ligand_efficiency_ln>  (1) 
-1.2681687553748189

>  <r_i_glide_ligand_efficiency_sa>  (1) 
-0.53990819391524225

>  <r_i_glide_lipo>  (1) 
-3.8324034420494595

>  <r_i_glide_metal>  (1) 
-0

>  <r_i_glide_rewards>  (1) 
-0.74876582683895621

>  <r_lp_Energy>  (1) 
67.197417000000002

>  <s_epik_Chemistry_Notes>  (1) 
This compound contains an acetal/aminal-like group ( X-CH(R)-Y where X, Y are N, S, or O) that may be acid/base labile, releasing an aldehyde.

>  <s_epik_cmdline>  (1) 
J2VwaWtfcHl0aG9uJywgJy1waHQnLCAnMS4wJywgJy1waCcsICc3LjQnLCAnLXRuJywgJzgnLCAnLW1hJywgJzUwMCcsICctaW1hZScsICc8aW5maWxlLm1hZT4nLCAnLW9tYWUnLCAnPG91dGZpbGUubWFlPic=

>  <s_epik_input>  (1) 
W09IXVtDQEBdMTJbQ0BASF0oW0NIMl0xKU4oW0NIM10pW0NASF0oW0NIM10pW0NASF0oW09IXSlbQ0BIXTJbTkhdW0NIMl1bQ0gyXVtOSF1bQ0gyXU9bQ0BIXTNPQyhbQ0gyXVtDSF09QyhbQ0gyXVtOSDJdKVtDSF09W0NIXTQpPUM0W0NIMl1DMzVbQ0gyXVtDSDJdW0NIMl1bQ0gyXVtDSDJdNQ==

>  <s_glide_docking_method>  (1) 
confgen

>  <s_i_glide_gridfile>  (1) 
gpcr_5ht2c_6bqh_protein_autoprepared_prepared

>  <s_lp_Force_Field>  (1) 
S-OPLS

>  <s_lp_Variant>  (1) 
DiffSBDD_53-3

>  <s_m_source_file>  (1) 
generated_GPCR_5HT2C_ligand_DiffSBDD_2026-06-23_prepared.sdf

>  <GenAI_Model>  (1) 
DiffSBDD

>  <Protein>  (1) 
GPCR_5HT2C

$$$$
DiffSBDD_83
     RDKit          3D

  0  0  0  0  0  0  0  0  0  0999 V3000
M  V30 BEGIN CTAB
M  V30 COUNTS 54 55 0 0 1
M  V30 BEGIN ATOM
M  V30 1 C 38.746228 31.143730 61.758255 0
M  V30 2 C 39.232503 30.667551 55.995849 0
M  V30 3 N 39.244249 31.936260 55.494512 0
M  V30 4 O 36.876901 26.186776 55.208053 0
M  V30 5 O 39.374981 30.898553 62.923776 0
M  V30 6 C 36.840941 32.552260 60.914811 0
M  V30 7 C 35.735638 33.565745 61.145935 0
M  V30 8 C 37.913976 24.801688 56.581088 0
M  V30 9 C 39.341520 28.018205 50.489096 0
M  V30 10 C 37.645374 32.138572 61.937856 0
M  V30 11 C 39.676547 29.497638 55.188804 0
M  V30 12 C 38.001669 32.867867 58.673449 0
M  V30 13 N 38.817304 32.866381 56.359093 0
M  V30 14 O 40.308153 29.776843 62.876093 0
M  V30 15 C 38.993462 27.126420 54.328482 0 CFG=1
M  V30 16 C 37.230874 28.366789 52.898442 0
M  V30 17 C 36.831450 25.425558 56.291359 0
M  V30 18 O 39.049799 30.607402 60.693002 0
M  V30 19 C 38.207421 25.853951 54.755625 0 CFG=1
M  V30 20 C 38.766241 30.754383 57.271949 0
M  V30 21 O 38.919871 25.042276 55.731026 0
M  V30 22 C 39.593333 28.185803 51.986213 0
M  V30 23 C 38.515646 27.527232 52.885176 0 CFG=1
M  V30 24 C 38.516257 32.158159 57.451956 0
M  V30 25 Cl 38.044818 23.737760 57.915657 0
M  V30 26 C 36.962984 32.056864 59.473698 0
M  V30 27 C 38.861243 28.214414 55.432473 0
M  V30 28 H 39.541530 32.184046 54.561153 0
M  V30 29 H 34.759981 33.110375 60.974439 0
M  V30 30 H 35.749213 33.957749 62.161656 0
M  V30 31 H 35.843329 34.405395 60.459634 0
M  V30 32 H 40.165829 28.438712 49.915407 0
M  V30 33 H 39.245960 26.965998 50.222091 0
M  V30 34 H 38.444982 28.537645 50.167612 0
M  V30 35 H 37.495226 32.537761 62.928383 0
M  V30 36 H 39.598440 29.797297 54.153265 0
M  V30 37 H 40.734906 29.314009 55.368369 0
M  V30 38 H 37.564982 33.829437 58.396267 0
M  V30 39 H 38.854172 33.103459 59.310463 0
M  V30 40 H 39.754191 29.076536 63.198366 0
M  V30 41 H 40.035486 26.809983 54.263492 0
M  V30 42 H 37.374041 29.337503 53.368116 0
M  V30 43 H 36.863644 28.536709 51.890033 0
M  V30 44 H 36.445143 27.846613 53.439631 0
M  V30 45 H 35.880192 25.403428 56.799861 0
M  V30 46 H 38.044867 25.195343 53.912023 0
M  V30 47 H 38.624261 29.945986 57.975080 0
M  V30 48 H 39.700177 29.249712 52.178790 0
M  V30 49 H 40.561131 27.737646 52.167695 0
M  V30 50 H 38.267799 26.607788 52.358592 0
M  V30 51 H 37.131532 30.984483 59.440196 0
M  V30 52 H 35.995954 32.160545 58.980710 0
M  V30 53 H 39.137459 27.797553 56.402769 0
M  V30 54 H 37.810744 28.493018 55.529203 0
M  V30 END ATOM
M  V30 BEGIN BOND
M  V30 1 1 3 2
M  V30 2 1 5 1
M  V30 3 1 7 6
M  V30 4 1 10 1
M  V30 5 2 10 6
M  V30 6 1 11 2
M  V30 7 1 13 3
M  V30 8 1 14 5
M  V30 9 1 17 4
M  V30 10 2 17 8
M  V30 11 2 18 1
M  V30 12 1 19 4
M  V30 13 1 19 15
M  V30 14 2 20 2
M  V30 15 1 21 8
M  V30 16 1 21 19
M  V30 17 1 22 9
M  V30 18 1 23 15
M  V30 19 1 23 16
M  V30 20 1 23 22
M  V30 21 1 24 12
M  V30 22 2 24 13
M  V30 23 1 24 20
M  V30 24 1 25 8
M  V30 25 1 26 6
M  V30 26 1 26 12
M  V30 27 1 27 11
M  V30 28 1 27 15
M  V30 29 1 28 3
M  V30 30 1 29 7
M  V30 31 1 30 7
M  V30 32 1 31 7
M  V30 33 1 32 9
M  V30 34 1 33 9
M  V30 35 1 34 9
M  V30 36 1 35 10
M  V30 37 1 36 11
M  V30 38 1 37 11
M  V30 39 1 38 12
M  V30 40 1 39 12
M  V30 41 1 40 14
M  V30 42 1 15 41 CFG=3
M  V30 43 1 42 16
M  V30 44 1 43 16
M  V30 45 1 44 16
M  V30 46 1 45 17
M  V30 47 1 19 46 CFG=3
M  V30 48 1 47 20
M  V30 49 1 48 22
M  V30 50 1 49 22
M  V30 51 1 23 50 CFG=3
M  V30 52 1 51 26
M  V30 53 1 52 26
M  V30 54 1 53 27
M  V30 55 1 54 27
M  V30 END BOND
M  V30 END CTAB
M  END
>  <i_epik_Tot_Q>  (1) 
0

>  <i_epik_Tot_abs_Q>  (1) 
0

>  <i_i_glide_confnum>  (1) 
1528

>  <i_i_glide_lignum>  (1) 
190

>  <i_i_glide_posenum>  (1) 
251

>  <i_i_glide_rotatable_bonds>  (1) 
12

>  <i_lp_mmshare_version>  (1) 
72125

>  <i_m_source_file_index>  (1) 
84

>  <i_f3d_flags>  (1) 
0

>  <num_sample>  (1) 
100

>  <b_lp_Chiralities_Consistent>  (1) 
1

>  <r_epik_Charging_Adjusted_Penalty>  (1) 
0.41067983895260396

>  <r_epik_Ionization_Penalty>  (1) 
0.00076996626271645392

>  <r_epik_Ionization_Penalty_Charging>  (1) 
0

>  <r_epik_Ionization_Penalty_Neutral>  (1) 
0.00076996626271645392

>  <r_epik_State_Penalty>  (1) 
0.41067983895260396

>  <r_glide_ring_energy>  (1) 
0

>  <r_i_docking_score>  (1) 
-5.7605901658639578

>  <r_i_glide_ecoul>  (1) 
-2.3362140147128754

>  <r_i_glide_eff_state_penalty>  (1) 
0.41067983895260396

>  <r_i_glide_einternal>  (1) 
3.8981657575459128

>  <r_i_glide_emodel>  (1) 
-52.592524280905486

>  <r_i_glide_emodel_strain>  (1) 
0.93703759429556754

>  <r_i_glide_energy>  (1) 
-39.444690894792544

>  <r_i_glide_erotb>  (1) 
1.1080255732668134

>  <r_i_glide_esite>  (1) 
-0.039426486208068795

>  <r_i_glide_evdw>  (1) 
-37.108476880079671

>  <r_i_glide_gscore>  (1) 
-6.1712700048165621

>  <r_i_glide_gscore_strain>  (1) 
0

>  <r_i_glide_hbond>  (1) 
-0.26271199174660614

>  <r_i_glide_ligand_efficiency>  (1) 
-0.21335519132829472

>  <r_i_glide_ligand_efficiency_ln>  (1) 
-1.3409704198618777

>  <r_i_glide_ligand_efficiency_sa>  (1) 
-0.64006557398488428

>  <r_i_glide_lipo>  (1) 
-3.0814565797452071

>  <r_i_glide_metal>  (1) 
-0

>  <r_i_glide_rewards>  (1) 
-1.6898445741725783

>  <r_lp_Energy>  (1) 
15.920629999999999

>  <r_lp_tautomer_probability>  (1) 
0.5

>  <s_epik_Chemistry_Notes>  (1) 
This compound contains an acetal/aminal-like group ( X-CH(R)-Y where X, Y are N, S, or O) that may be acid/base labile, releasing an aldehyde.

>  <s_epik_cmdline>  (1) 
J2VwaWtfcHl0aG9uJywgJy1waHQnLCAnMS4wJywgJy1waCcsICc3LjQnLCAnLXRuJywgJzgnLCAnLW1hJywgJzUwMCcsICctaW1hZScsICc8aW5maWxlLm1hZT4nLCAnLW9tYWUnLCAnPG91dGZpbGUubWFlPic=

>  <s_epik_input>  (1) 
W09IXU9DKD1PKVxbQ0hdPUMoXFtDSDNdKVtDSDJdW0NIMl1jKFtjSF0xKW5bbkhdYzFbQ0gyXVtDSDJdW0NASF0oW0NAQEhdKFtDSDNdKVtDSDJdW0NIM10pW0NAQEhdKE8yKU9bQ0hdPUMyQ2w=

>  <s_glide_docking_method>  (1) 
confgen

>  <s_i_glide_gridfile>  (1) 
gpcr_5ht2c_6bqh_protein_autoprepared_prepared

>  <s_lp_Force_Field>  (1) 
S-OPLS

>  <s_lp_Variant>  (1) 
DiffSBDD_83-1

>  <s_m_source_file>  (1) 
generated_GPCR_5HT2C_ligand_DiffSBDD_2026-06-23_prepared.sdf

>  <GenAI_Model>  (1) 
DiffSBDD

>  <Protein>  (1) 
GPCR_5HT2C

$$$$
DiffSBDD_84
     RDKit          3D

  0  0  0  0  0  0  0  0  0  0999 V3000
M  V30 BEGIN CTAB
M  V30 COUNTS 77 81 0 0 1
M  V30 BEGIN ATOM
M  V30 1 C 41.313615 34.750091 63.882473 0
M  V30 2 C 37.760916 29.422553 55.991532 0
M  V30 3 C 38.445189 31.744351 57.970459 0
M  V30 4 C 42.818519 29.746105 64.497804 0
M  V30 5 S 40.584449 29.845259 62.002843 0
M  V30 6 C 39.536623 26.986218 53.221205 0
M  V30 7 C 39.260373 27.405835 55.543320 0
M  V30 8 C 35.717456 34.062754 61.358059 0
M  V30 9 O 43.656465 28.813124 65.142894 0
M  V30 10 C 36.848635 30.438482 59.328521 0
M  V30 11 C 39.719823 27.412929 56.997172 0
M  V30 12 C 37.896348 28.054620 55.295029 0 CFG=2
M  V30 13 C 37.139533 32.914891 59.748875 0
M  V30 14 N 40.822962 36.137783 63.778185 0 CHG=1
M  V30 15 C 41.315548 29.358652 64.577103 0
M  V30 16 C 40.672415 33.859362 62.803043 0
M  V30 17 N 39.959580 26.890922 54.614765 0
M  V30 18 C 36.773913 34.086564 60.441809 0
M  V30 19 N 39.480648 31.927906 60.902815 0
M  V30 20 N 37.829093 30.562510 58.248975 0
M  V30 21 C 38.707633 28.236375 52.913245 0
M  V30 22 C 36.436721 31.722638 60.009284 0
M  V30 23 N 40.514120 30.187364 63.671476 0
M  V30 24 C 40.700513 29.402981 65.998237 0
M  V30 25 C 38.111068 29.329925 57.484888 0 CFG=2
M  V30 26 O 39.144557 31.906101 56.967268 0
M  V30 27 C 35.370026 31.717327 60.915075 0
M  V30 28 O 41.139301 28.312365 66.781678 0
M  V30 29 C 37.481052 28.173691 53.812771 0
M  V30 30 C 40.747117 31.581963 61.536180 0 CFG=1
M  V30 31 C 39.547674 28.797311 57.662160 0
M  V30 32 N 39.509796 32.965346 59.917619 0
M  V30 33 N 40.582736 31.622938 63.979644 0 CHG=1
M  V30 34 C 35.004417 32.891790 61.576695 0
M  V30 35 C 38.385295 32.934621 58.966501 0 CFG=1
M  V30 36 C 41.111659 32.374129 62.817150 0 CFG=2
M  V30 37 H 41.090771 34.370958 64.882527 0
M  V30 38 H 42.397902 34.758219 63.773470 0
M  V30 39 H 36.742411 29.799243 55.886807 0
M  V30 40 H 38.403802 30.134022 55.473590 0
M  V30 41 H 42.997564 30.722858 64.947691 0
M  V30 42 H 43.153345 29.808331 63.462318 0
M  V30 43 H 40.406520 26.951787 52.568994 0
M  V30 44 H 38.919676 26.137778 52.967211 0
M  V30 45 H 35.458831 34.937752 61.902571 0
M  V30 46 H 43.506520 27.953521 64.777042 0
M  V30 47 H 35.946656 29.973722 58.926141 0
M  V30 48 H 37.250980 29.762457 60.084383 0
M  V30 49 H 40.762788 27.101682 57.052201 0
M  V30 50 H 41.308551 36.754660 64.426288 0
M  V30 51 H 40.982884 36.490583 62.845629 0
M  V30 52 H 41.201314 28.336924 64.210143 0
M  V30 53 H 40.940766 34.282647 61.833805 0
M  V30 54 H 39.584438 33.925635 62.863330 0
M  V30 55 H 37.325451 35.000761 60.282816 0
M  V30 56 H 38.739091 32.109705 61.576081 0
M  V30 57 H 39.281822 29.146390 53.097459 0
M  V30 58 H 38.407707 28.247380 51.864000 0
M  V30 59 H 40.945001 30.335061 66.508767 0
M  V30 60 H 39.614222 29.336913 65.940460 0
M  V30 61 H 37.454809 28.560270 57.897168 0
M  V30 62 H 34.845117 30.805229 61.114964 0
M  V30 63 H 40.595358 28.235375 67.556526 0
M  V30 64 H 36.845113 29.042206 53.645982 0
M  V30 65 H 36.878668 27.307463 53.536699 0
M  V30 66 H 41.538274 31.669476 60.793784 0
M  V30 67 H 40.264942 29.493158 57.229153 0
M  V30 68 H 39.789085 28.721148 58.722722 0
M  V30 69 H 40.384403 32.922899 59.397890 0
M  V30 70 H 39.632213 31.902051 64.177066 0
M  V30 71 H 34.186661 32.887342 62.282564 0
M  V30 72 H 38.423390 33.841735 58.363597 0
M  V30 73 H 42.198341 32.335788 62.901622 0
M  V30 74 H 41.160016 31.731222 64.800911 0
M  V30 75 H 37.245138 27.336710 55.774190 0
M  V30 76 H 39.142117 26.663804 57.540447 0
M  V30 77 H 39.833755 36.180213 63.980837 0
M  V30 END ATOM
M  V30 BEGIN BOND
M  V30 1 1 9 4
M  V30 2 1 11 7
M  V30 3 1 12 2
M  V30 4 1 12 7
M  V30 5 1 14 1
M  V30 6 1 15 4
M  V30 7 1 16 1
M  V30 8 1 17 6
M  V30 9 2 17 7
M  V30 10 1 18 8
M  V30 11 2 18 13
M  V30 12 1 20 3
M  V30 13 1 20 10
M  V30 14 1 21 6
M  V30 15 1 22 10
M  V30 16 1 22 13
M  V30 17 1 23 5
M  V30 18 1 23 15
M  V30 19 1 24 15
M  V30 20 1 25 2
M  V30 21 1 25 20
M  V30 22 2 26 3
M  V30 23 2 27 22
M  V30 24 1 28 24
M  V30 25 1 29 12
M  V30 26 1 29 21
M  V30 27 1 30 5
M  V30 28 1 30 19
M  V30 29 1 31 11
M  V30 30 1 31 25
M  V30 31 1 32 19
M  V30 32 1 33 23
M  V30 33 2 34 8
M  V30 34 1 34 27
M  V30 35 1 35 3
M  V30 36 1 35 13
M  V30 37 1 35 32
M  V30 38 1 36 16
M  V30 39 1 36 30
M  V30 40 1 36 33
M  V30 41 1 37 1
M  V30 42 1 38 1
M  V30 43 1 39 2
M  V30 44 1 40 2
M  V30 45 1 41 4
M  V30 46 1 42 4
M  V30 47 1 43 6
M  V30 48 1 44 6
M  V30 49 1 45 8
M  V30 50 1 46 9
M  V30 51 1 47 10
M  V30 52 1 48 10
M  V30 53 1 49 11
M  V30 54 1 50 14
M  V30 55 1 51 14
M  V30 56 1 52 15
M  V30 57 1 53 16
M  V30 58 1 54 16
M  V30 59 1 55 18
M  V30 60 1 56 19
M  V30 61 1 57 21
M  V30 62 1 58 21
M  V30 63 1 59 24
M  V30 64 1 60 24
M  V30 65 1 25 61 CFG=1
M  V30 66 1 62 27
M  V30 67 1 63 28
M  V30 68 1 64 29
M  V30 69 1 65 29
M  V30 70 1 30 66 CFG=3
M  V30 71 1 67 31
M  V30 72 1 68 31
M  V30 73 1 69 32
M  V30 74 1 70 33
M  V30 75 1 71 34
M  V30 76 1 35 72 CFG=3
M  V30 77 1 36 73 CFG=1
M  V30 78 1 74 33
M  V30 79 1 12 75 CFG=1
M  V30 80 1 76 11
M  V30 81 1 77 14
M  V30 END BOND
M  V30 END CTAB
M  END
>  <i_epik_Tot_Q>  (1) 
2

>  <i_epik_Tot_abs_Q>  (1) 
2

>  <i_i_glide_confnum>  (1) 
664

>  <i_i_glide_lignum>  (1) 
198

>  <i_i_glide_posenum>  (1) 
241

>  <i_i_glide_rotatable_bonds>  (1) 
11

>  <i_lp_mmshare_version>  (1) 
72125

>  <i_m_source_file_index>  (1) 
85

>  <i_f3d_flags>  (1) 
0

>  <num_sample>  (1) 
100

>  <b_lp_Chiralities_Consistent>  (1) 
1

>  <r_epik_Charging_Adjusted_Penalty>  (1) 
0.034284474231679775

>  <r_epik_Ionization_Penalty>  (1) 
0.42650113434003467

>  <r_epik_Ionization_Penalty_Charging>  (1) 
0.012847136256187231

>  <r_epik_Ionization_Penalty_Neutral>  (1) 
0.41365399808384745

>  <r_epik_State_Penalty>  (1) 
0.021437337975492542

>  <r_glide_ring_energy>  (1) 
0.20284343658850437

>  <r_i_docking_score>  (1) 
-5.7550917141613498

>  <r_i_glide_ecoul>  (1) 
-4.5787095594306972

>  <r_i_glide_eff_state_penalty>  (1) 
0.021437337975492542

>  <r_i_glide_einternal>  (1) 
15.038006410272125

>  <r_i_glide_emodel>  (1) 
-52.911959011364104

>  <r_i_glide_emodel_strain>  (1) 
0.19554727092634039

>  <r_i_glide_energy>  (1) 
-37.840004254091454

>  <r_i_glide_erotb>  (1) 
0.60855438394346106

>  <r_i_glide_esite>  (1) 
-0.19306240946875874

>  <r_i_glide_evdw>  (1) 
-33.261294694660755

>  <r_i_glide_gscore>  (1) 
-5.7765290521368424

>  <r_i_glide_gscore_strain>  (1) 
0

>  <r_i_glide_hbond>  (1) 
-0.19113606479921622

>  <r_i_glide_ligand_efficiency>  (1) 
-0.15986365872670416

>  <r_i_glide_ligand_efficiency_ln>  (1) 
-1.2556055274203506

>  <r_i_glide_ligand_efficiency_sa>  (1) 
-0.52785817085769582

>  <r_i_glide_lipo>  (1) 
-2.6153964372581111

>  <r_i_glide_metal>  (1) 
-0

>  <r_i_glide_rewards>  (1) 
-1.0356173559065751

>  <r_lp_Energy>  (1) 
53.693352999999995

>  <r_lp_tautomer_probability>  (1) 
0.99998399999999998

>  <s_epik_Chemistry_Notes>  (1) 
This compound has an imine and may undergo hydrolysis. This compound contains an acetal/aminal-like group ( X-CH(R)-Y where X, Y are N, S, or O) that may be acid/base labile, releasing an aldehyde. This compound has a N-S or N-O group and may undergo hydrolysis at high or low pH.

>  <s_epik_cmdline>  (1) 
J2VwaWtfcHl0aG9uJywgJy1waHQnLCAnMS4wJywgJy1waCcsICc3LjQnLCAnLXRuJywgJzgnLCAnLW1hJywgJzUwMCcsICctaW1hZScsICc8aW5maWxlLm1hZT4nLCAnLW9tYWUnLCAnPG91dGZpbGUubWFlPic=

>  <s_epik_input>  (1) 
W09IXVtDSDJdW0NIXShbQ0gyXVtPSF0pTjFTW0NASF0oW0NASF0oW05IXTEpW0NIMl1bQ0gyXVtOSDJdKVtOSF1bTkhdW0NASF0yQyg9TylOKFtDSDJdYyhjMjMpW2NIXVtjSF1bY0hdW2NIXTMpW0NASF0oW0NIMl1bQ0gyXTQpW0NIMl1DKD1DNDUpW0NIMl1bQ0gyXVtDSDJdW05IXTU=

>  <s_glide_docking_method>  (1) 
confgen

>  <s_i_glide_gridfile>  (1) 
gpcr_5ht2c_6bqh_protein_autoprepared_prepared

>  <s_lp_Force_Field>  (1) 
S-OPLS

>  <s_lp_Variant>  (1) 
DiffSBDD_84-1

>  <s_m_source_file>  (1) 
generated_GPCR_5HT2C_ligand_DiffSBDD_2026-06-23_prepared.sdf

>  <GenAI_Model>  (1) 
DiffSBDD

>  <Protein>  (1) 
GPCR_5HT2C

$$$$
DiffSBDD_25
     RDKit          3D

  0  0  0  0  0  0  0  0  0  0999 V3000
M  V30 BEGIN CTAB
M  V30 COUNTS 68 71 0 0 1
M  V30 BEGIN ATOM
M  V30 1 C 40.939360 34.647791 63.089310 0
M  V30 2 C 39.975464 26.824750 58.484891 0
M  V30 3 O 40.791273 35.872117 63.283370 0 CHG=-1
M  V30 4 C 36.525390 31.728870 60.239380 0
M  V30 5 N 39.249973 32.162564 62.580963 0
M  V30 6 C 39.610927 26.551787 57.021753 0
M  V30 7 C 41.862808 34.315041 65.488051 0
M  V30 8 C 42.139616 32.240906 66.481895 0
M  V30 9 C 37.749009 28.323383 54.916663 0
M  V30 10 C 39.883528 27.764348 56.122451 0
M  V30 11 C 38.731547 28.802923 56.015006 0 CFG=2
M  V30 12 C 41.459668 30.035148 65.436983 0
M  V30 13 O 40.041299 29.828783 54.383651 0
M  V30 14 O 40.916402 30.514134 62.631391 0
M  V30 15 N 38.125325 30.037793 59.668787 0
M  V30 16 C 41.144575 32.298653 64.255307 0
M  V30 17 O 40.822691 34.130910 61.959411 0
M  V30 18 C 38.551797 31.295438 55.424752 0
M  V30 19 C 41.304562 33.744016 64.291880 0
M  V30 20 C 37.925540 28.974010 57.329055 0
M  V30 21 C 38.714578 29.108536 58.666715 0 CFG=2
M  V30 22 C 40.480588 31.572277 63.083211 0
M  V30 23 C 38.962329 30.364576 60.816809 0
M  V30 24 N 42.253297 33.576993 66.544730 0
M  V30 25 C 38.442214 31.403941 53.930794 0
M  V30 26 C 36.915362 30.690733 59.501564 0
M  V30 27 N 42.048058 35.687629 65.610998 0
M  V30 28 N 39.364744 30.090518 55.644970 0
M  V30 29 C 38.977225 27.700463 59.262238 0
M  V30 30 C 38.510678 31.622353 61.568262 0
M  V30 31 C 39.852963 30.387809 52.034519 0
M  V30 32 N 37.335995 32.224204 61.240585 0 CHG=1
M  V30 33 C 39.784181 30.886761 53.486411 0 CFG=2
M  V30 34 C 41.594524 31.553787 65.384218 0
M  V30 35 H 40.976563 27.255998 58.550377 0
M  V30 36 H 40.035835 25.850753 58.965098 0
M  V30 37 H 35.588567 32.251861 60.103207 0
M  V30 38 H 38.877559 33.016249 62.966618 0
M  V30 39 H 40.229850 25.723081 56.673254 0
M  V30 40 H 38.581931 26.204000 56.930109 0
M  V30 41 H 42.472788 31.696926 67.353770 0
M  V30 42 H 37.361491 27.329369 55.142538 0
M  V30 43 H 36.891935 28.989059 54.828035 0
M  V30 44 H 38.217965 28.250055 53.935890 0
M  V30 45 H 40.808802 28.244570 56.447312 0
M  V30 46 H 40.110753 27.390736 55.122327 0
M  V30 47 H 41.622783 29.675067 66.454330 0
M  V30 48 H 40.459805 29.703238 65.151254 0
M  V30 49 H 42.196351 29.556787 64.791512 0
M  V30 50 H 37.568901 31.325930 55.887683 0
M  V30 51 H 39.108958 32.155342 55.799762 0
M  V30 52 H 37.228303 28.145758 57.440132 0
M  V30 53 H 37.278497 29.811461 57.130359 0
M  V30 54 H 39.683320 29.547821 58.424266 0
M  V30 55 H 39.985995 30.476763 60.461277 0
M  V30 56 H 38.907151 29.531363 61.517567 0
M  V30 57 H 38.227486 32.418971 53.592692 0
M  V30 58 H 37.646659 30.741892 53.604375 0
M  V30 59 H 36.297405 30.304257 58.712559 0
M  V30 60 H 41.765432 36.325523 64.865217 0
M  V30 61 H 42.418691 36.099639 66.452540 0
M  V30 62 H 39.363118 27.780494 60.276128 0
M  V30 63 H 38.045138 27.150032 59.343417 0
M  V30 64 H 39.685215 31.205563 51.331290 0
M  V30 65 H 40.829524 29.956077 51.807546 0
M  V30 66 H 39.110197 29.612214 51.841818 0
M  V30 67 H 40.530446 31.647556 53.660122 0
M  V30 68 H 37.114931 33.039834 61.794362 0
M  V30 END ATOM
M  V30 BEGIN BOND
M  V30 1 1 3 1
M  V30 2 1 6 2
M  V30 3 1 10 6
M  V30 4 1 11 9 CFG=3
M  V30 5 1 11 10
M  V30 6 2 17 1
M  V30 7 1 19 1
M  V30 8 2 19 7
M  V30 9 1 19 16
M  V30 10 1 20 11
M  V30 11 1 21 15
M  V30 12 1 21 20
M  V30 13 1 22 5
M  V30 14 2 22 14
M  V30 15 1 22 16
M  V30 16 1 23 15
M  V30 17 1 24 7
M  V30 18 2 24 8
M  V30 19 1 25 18
M  V30 20 2 26 4
M  V30 21 1 26 15
M  V30 22 1 27 7
M  V30 23 1 28 11
M  V30 24 1 28 13
M  V30 25 1 28 18
M  V30 26 1 29 2
M  V30 27 1 29 21
M  V30 28 1 30 5
M  V30 29 1 30 23
M  V30 30 1 32 4
M  V30 31 2 32 30
M  V30 32 1 33 13
M  V30 33 1 33 25
M  V30 34 1 33 31
M  V30 35 1 34 8
M  V30 36 1 34 12
M  V30 37 2 34 16
M  V30 38 1 35 2
M  V30 39 1 36 2
M  V30 40 1 37 4
M  V30 41 1 38 5
M  V30 42 1 39 6
M  V30 43 1 40 6
M  V30 44 1 41 8
M  V30 45 1 42 9
M  V30 46 1 43 9
M  V30 47 1 44 9
M  V30 48 1 45 10
M  V30 49 1 46 10
M  V30 50 1 47 12
M  V30 51 1 48 12
M  V30 52 1 49 12
M  V30 53 1 50 18
M  V30 54 1 51 18
M  V30 55 1 52 20
M  V30 56 1 53 20
M  V30 57 1 21 54 CFG=3
M  V30 58 1 55 23
M  V30 59 1 56 23
M  V30 60 1 57 25
M  V30 61 1 58 25
M  V30 62 1 59 26
M  V30 63 1 60 27
M  V30 64 1 61 27
M  V30 65 1 62 29
M  V30 66 1 63 29
M  V30 67 1 64 31
M  V30 68 1 65 31
M  V30 69 1 66 31
M  V30 70 1 33 67 CFG=3
M  V30 71 1 68 32
M  V30 END BOND
M  V30 END CTAB
M  END
>  <i_epik_Tot_Q>  (1) 
0

>  <i_epik_Tot_abs_Q>  (1) 
2

>  <i_i_glide_confnum>  (1) 
110

>  <i_i_glide_lignum>  (1) 
65

>  <i_i_glide_posenum>  (1) 
306

>  <i_i_glide_rotatable_bonds>  (1) 
6

>  <i_lp_mmshare_version>  (1) 
72125

>  <i_m_source_file_index>  (1) 
26

>  <i_f3d_flags>  (1) 
0

>  <num_sample>  (1) 
100

>  <b_lp_Chiralities_Consistent>  (1) 
1

>  <r_epik_Charging_Adjusted_Penalty>  (1) 
2.0881109960433539

>  <r_epik_Ionization_Penalty>  (1) 
0.85183889184377526

>  <r_epik_Ionization_Penalty_Charging>  (1) 
0.8304268618792634

>  <r_epik_Ionization_Penalty_Neutral>  (1) 
0.02141202996451182

>  <r_epik_State_Penalty>  (1) 
1.2576841341640903

>  <r_glide_ring_energy>  (1) 
0.038362801895993927

>  <r_i_docking_score>  (1) 
-5.7541640243153012

>  <r_i_glide_ecoul>  (1) 
-3.2728655460353471

>  <r_i_glide_eff_state_penalty>  (1) 
1.2576841341640903

>  <r_i_glide_einternal>  (1) 
6.626785263681839

>  <r_i_glide_emodel>  (1) 
-52.790496267999181

>  <r_i_glide_emodel_strain>  (1) 
2.1043492782317799

>  <r_i_glide_energy>  (1) 
-41.133173505947724

>  <r_i_glide_erotb>  (1) 
0.45623875647966866

>  <r_i_glide_esite>  (1) 
-0.030926351275954791

>  <r_i_glide_evdw>  (1) 
-37.860307959912376

>  <r_i_glide_gscore>  (1) 
-7.0118481584793919

>  <r_i_glide_gscore_strain>  (1) 
0

>  <r_i_glide_hbond>  (1) 
-0.21084540330394752

>  <r_i_glide_ligand_efficiency>  (1) 
-0.16924011836221475

>  <r_i_glide_ligand_efficiency_ln>  (1) 
-1.2712562318051892

>  <r_i_glide_ligand_efficiency_sa>  (1) 
-0.548272284695829

>  <r_i_glide_lipo>  (1) 
-2.9470157055032447

>  <r_i_glide_metal>  (1) 
-0

>  <r_i_glide_rewards>  (1) 
-1.8953542249749922

>  <r_lp_Energy>  (1) 
63.998362

>  <s_epik_Chemistry_Notes>  (1) 
This compound has an imine and may undergo hydrolysis. This compound has a N-S or N-O group and may undergo hydrolysis at high or low pH.

>  <s_epik_cmdline>  (1) 
J2VwaWtfcHl0aG9uJywgJy1waHQnLCAnMS4wJywgJy1waCcsICc3LjQnLCAnLXRuJywgJzgnLCAnLW1hJywgJzUwMCcsICctaW1hZScsICc8aW5maWxlLm1hZT4nLCAnLW9tYWUnLCAnPG91dGZpbGUubWFlPic=

>  <s_epik_input>  (1) 
W09IXUMoPU8pYyhjMVtOSDJdKWMoYyhbY0hdbjEpW0NIM10pQyg9TylbTkhdQyg9TltDSF09W0NIXTIpW0NIMl1OMltDQEhdKFtDSDJdMylbQ0gyXVtDSDJdW0NIMl1bQ0gyXVtDQF0zKFtDSDNdKU40T1tDQEBIXShbQ0gzXSlbQ0gyXVtDSDJdNA==

>  <s_glide_docking_method>  (1) 
confgen

>  <s_i_glide_gridfile>  (1) 
gpcr_5ht2c_6bqh_protein_autoprepared_prepared

>  <s_lp_Force_Field>  (1) 
S-OPLS

>  <s_lp_Variant>  (1) 
DiffSBDD_25-5

>  <s_m_source_file>  (1) 
generated_GPCR_5HT2C_ligand_DiffSBDD_2026-06-23_prepared.sdf

>  <GenAI_Model>  (1) 
DiffSBDD

>  <Protein>  (1) 
GPCR_5HT2C

$$$$
DiffSBDD_93
     RDKit          3D

  0  0  0  0  0  0  0  0  0  0999 V3000
M  V30 BEGIN CTAB
M  V30 COUNTS 83 84 0 0 1
M  V30 BEGIN ATOM
M  V30 1 C 39.606920 31.147047 61.945149 0
M  V30 2 O 38.727596 30.137761 62.357678 0
M  V30 3 C 40.048578 36.341238 63.715836 0
M  V30 4 C 38.619801 29.249958 53.109100 0
M  V30 5 O 38.427576 32.110801 58.664302 0
M  V30 6 C 38.823337 26.415761 54.674889 0
M  V30 7 N 37.645222 26.109590 54.135423 0
M  V30 8 O 39.893041 26.043489 54.199209 0
M  V30 9 O 36.142809 31.708121 61.364683 0
M  V30 10 C 39.472432 29.744851 51.951064 0
M  V30 11 C 39.706871 35.985335 62.295146 0
M  V30 12 C 39.186558 29.946390 59.385487 0
M  V30 13 C 38.778437 33.353280 61.130589 0
M  V30 14 C 38.273711 28.732235 55.665939 0 CFG=1
M  V30 15 C 38.793976 27.269316 55.940564 0 CFG=1
M  V30 16 C 37.950275 37.304506 62.854499 0 CFG=1
M  V30 17 C 37.546401 35.627831 61.000195 0 CFG=1
M  V30 18 C 38.045137 36.461883 59.846287 0
M  V30 19 C 39.339075 29.511027 57.917821 0
M  V30 20 S 35.901920 33.376078 61.166978 0 CHG=1
M  V30 21 O 36.287354 30.137834 58.681161 0
M  V30 22 N 39.037902 31.944515 60.841388 0
M  V30 23 O 34.938450 33.446394 59.767353 0
M  V30 24 O 38.408821 36.937720 65.336142 0
M  V30 25 F 36.045134 38.858566 63.367760 0
M  V30 26 C 39.264912 28.277048 52.137983 0
M  V30 27 C 36.710559 29.372285 57.587394 0
M  V30 28 C 38.110946 29.602681 56.969643 0 CFG=2
M  V30 29 C 38.845148 31.433131 59.601439 0
M  V30 30 C 38.049636 26.488180 57.073748 0
M  V30 31 C 35.621014 36.661339 63.767780 0
M  V30 32 C 37.505786 34.099664 60.631255 0 CFG=2
M  V30 33 O 39.870746 25.046811 57.546763 0
M  V30 34 C 39.070563 29.502541 54.556875 0
M  V30 35 C 36.424464 37.649987 62.964371 0 CFG=2
M  V30 36 C 38.638790 25.107939 57.362832 0
M  V30 37 C 38.937990 37.323117 64.087117 0 CFG=1
M  V30 38 O 37.842601 24.145702 57.396448 0 CHG=-1
M  V30 39 N 38.239173 35.997516 62.259536 0
M  V30 40 H 40.573746 30.722608 61.670628 0
M  V30 41 H 39.827237 31.756312 62.822221 0
M  V30 42 H 39.058306 29.693332 63.129913 0
M  V30 43 H 40.045239 35.450740 64.344936 0
M  V30 44 H 41.047570 36.763441 63.767006 0
M  V30 45 H 37.544954 29.337751 52.985274 0
M  V30 46 H 36.795852 26.432041 54.569809 0
M  V30 47 H 37.606998 25.549408 53.297382 0
M  V30 48 H 36.374680 31.354156 60.514435 0
M  V30 49 H 39.024779 30.137727 51.041560 0
M  V30 50 H 40.451742 30.149225 52.188799 0
M  V30 51 H 40.208773 35.056125 62.076863 0
M  V30 52 H 40.121267 36.738056 61.621600 0
M  V30 53 H 40.139142 29.707393 59.854776 0
M  V30 54 H 38.436855 29.327003 59.877064 0
M  V30 55 H 39.630731 33.835965 60.655498 0
M  V30 56 H 38.826800 33.483557 62.210555 0
M  V30 57 H 37.270191 28.633300 55.252360 0
M  V30 58 H 39.844290 27.346398 56.223846 0
M  V30 59 H 38.338887 38.058985 62.167611 0
M  V30 60 H 36.496142 35.889376 61.089420 0
M  V30 61 H 37.498786 36.270998 58.922534 0
M  V30 62 H 38.011666 37.533838 60.038280 0
M  V30 63 H 39.077938 36.137761 59.767760 0
M  V30 64 H 40.139953 30.081861 57.455117 0
M  V30 65 H 39.727475 28.501173 57.979748 0
M  V30 66 H 35.899283 30.908333 58.264510 0
M  V30 67 H 35.431033 33.054938 59.058363 0
M  V30 68 H 37.959029 37.674467 65.720719 0
M  V30 69 H 40.140876 27.710818 52.420039 0
M  V30 70 H 38.605082 27.772927 51.434324 0
M  V30 71 H 36.045060 29.737753 56.809523 0
M  V30 72 H 36.463819 28.341775 57.800419 0
M  V30 73 H 38.062742 30.644886 56.654224 0
M  V30 74 H 38.116621 27.008176 58.026793 0
M  V30 75 H 36.988903 26.378690 56.843045 0
M  V30 76 H 35.693713 35.663895 63.348717 0
M  V30 77 H 35.945120 36.625961 64.806565 0
M  V30 78 H 34.566154 36.937676 63.767737 0
M  V30 79 H 37.460211 34.055294 59.546919 0
M  V30 80 H 38.946446 30.576189 54.702917 0
M  V30 81 H 40.137945 29.337456 54.662293 0
M  V30 82 H 36.035630 37.680939 61.950809 0
M  V30 83 H 39.489693 38.240289 64.221242 0
M  V30 END ATOM
M  V30 BEGIN BOND
M  V30 1 1 2 1
M  V30 2 1 7 6
M  V30 3 2 8 6
M  V30 4 1 10 4
M  V30 5 1 11 3
M  V30 6 1 15 6
M  V30 7 1 15 14
M  V30 8 1 18 17
M  V30 9 1 19 12
M  V30 10 1 20 9
M  V30 11 1 22 1
M  V30 12 1 22 13
M  V30 13 1 23 20
M  V30 14 1 26 4
M  V30 15 1 26 10
M  V30 16 1 27 21
M  V30 17 1 28 14
M  V30 18 1 28 19
M  V30 19 1 28 27
M  V30 20 2 29 5
M  V30 21 1 29 12
M  V30 22 1 29 22
M  V30 23 1 30 15
M  V30 24 1 32 13
M  V30 25 1 32 17
M  V30 26 1 32 20
M  V30 27 1 34 4
M  V30 28 1 34 14
M  V30 29 1 35 16
M  V30 30 1 35 25
M  V30 31 1 35 31
M  V30 32 1 36 30
M  V30 33 2 36 33
M  V30 34 1 37 3
M  V30 35 1 37 16
M  V30 36 1 37 24
M  V30 37 1 38 36
M  V30 38 1 39 11
M  V30 39 1 39 16
M  V30 40 1 39 17
M  V30 41 1 40 1
M  V30 42 1 41 1
M  V30 43 1 42 2
M  V30 44 1 43 3
M  V30 45 1 44 3
M  V30 46 1 45 4
M  V30 47 1 46 7
M  V30 48 1 47 7
M  V30 49 1 48 9
M  V30 50 1 49 10
M  V30 51 1 50 10
M  V30 52 1 51 11
M  V30 53 1 52 11
M  V30 54 1 53 12
M  V30 55 1 54 12
M  V30 56 1 55 13
M  V30 57 1 56 13
M  V30 58 1 14 57 CFG=3
M  V30 59 1 15 58 CFG=1
M  V30 60 1 16 59 CFG=3
M  V30 61 1 17 60 CFG=1
M  V30 62 1 61 18
M  V30 63 1 62 18
M  V30 64 1 63 18
M  V30 65 1 64 19
M  V30 66 1 65 19
M  V30 67 1 66 21
M  V30 68 1 67 23
M  V30 69 1 68 24
M  V30 70 1 69 26
M  V30 71 1 70 26
M  V30 72 1 71 27
M  V30 73 1 72 27
M  V30 74 1 28 73 CFG=3
M  V30 75 1 74 30
M  V30 76 1 75 30
M  V30 77 1 76 31
M  V30 78 1 77 31
M  V30 79 1 78 31
M  V30 80 1 32 79 CFG=3
M  V30 81 1 80 34
M  V30 82 1 81 34
M  V30 83 1 35 82 CFG=3
M  V30 84 1 37 83 CFG=1
M  V30 END BOND
M  V30 END CTAB
M  END
>  <i_epik_Tot_Q>  (1) 
0

>  <i_epik_Tot_abs_Q>  (1) 
2

>  <i_i_glide_confnum>  (1) 
5924

>  <i_i_glide_lignum>  (1) 
215

>  <i_i_glide_posenum>  (1) 
46

>  <i_i_glide_rotatable_bonds>  (1) 
24

>  <i_lp_mmshare_version>  (1) 
72125

>  <i_m_source_file_index>  (1) 
94

>  <i_f3d_flags>  (1) 
0

>  <num_sample>  (1) 
100

>  <b_lp_Chiralities_Consistent>  (1) 
1

>  <r_epik_Charging_Adjusted_Penalty>  (1) 
0.37121505818338452

>  <r_epik_Ionization_Penalty>  (1) 
0.37121789513022985

>  <r_epik_Ionization_Penalty_Charging>  (1) 
0.00098257200063165957

>  <r_epik_Ionization_Penalty_Neutral>  (1) 
0.37023532312959817

>  <r_epik_State_Penalty>  (1) 
0.37023248618275284

>  <r_glide_ring_energy>  (1) 
0

>  <r_i_docking_score>  (1) 
-5.7520089445122498

>  <r_i_glide_ecoul>  (1) 
-10.548022510082713

>  <r_i_glide_eff_state_penalty>  (1) 
0.37023248618275284

>  <r_i_glide_einternal>  (1) 
54.777732333403357

>  <r_i_glide_emodel>  (1) 
-25.355341119882794

>  <r_i_glide_emodel_strain>  (1) 
10.988874196151073

>  <r_i_glide_energy>  (1) 
-38.746886238222743

>  <r_i_glide_erotb>  (1) 
0.82577533054746977

>  <r_i_glide_esite>  (1) 
-0.014726231551142461

>  <r_i_glide_evdw>  (1) 
-28.198863728140033

>  <r_i_glide_gscore>  (1) 
-6.122241430695003

>  <r_i_glide_gscore_strain>  (1) 
1.7472185490377683

>  <r_i_glide_hbond>  (1) 
-0.61076197105558949

>  <r_i_glide_ligand_efficiency>  (1) 
-0.14748740883364744

>  <r_i_glide_ligand_efficiency_ln>  (1) 
-1.233393998187184

>  <r_i_glide_ligand_efficiency_sa>  (1) 
-0.50016098853717395

>  <r_i_glide_lipo>  (1) 
-3.2173598514675281

>  <r_i_glide_metal>  (1) 
-0

>  <r_i_glide_rewards>  (1) 
-1.8602406932865714

>  <r_lp_Energy>  (1) 
10.604659999999999

>  <s_epik_Chemistry_Notes>  (1) 
This compound contains an acetal/aminal-like group ( X-CH(R)-Y where X, Y are N, S, or O) that may be acid/base labile, releasing an aldehyde.

>  <s_epik_cmdline>  (1) 
J2VwaWtfcHl0aG9uJywgJy1waHQnLCAnMS4wJywgJy1waCcsICc3LjQnLCAnLXRuJywgJzgnLCAnLW1hJywgJzUwMCcsICctaW1hZScsICc8aW5maWxlLm1hZT4nLCAnLW9tYWUnLCAnPG91dGZpbGUubWFlPic=

>  <s_epik_input>  (1) 
W0NIMl0xW0NIMl1bQ0hdMVtDSDJdW0NAQEhdKFtDQEBIXShDKD1PKVtOSDJdKVtDSDJdQyg9TylbT0hdKVtDQEBIXShbQ0gyXVtPSF0pW0NIMl1bQ0gyXUMoPU8pTihbQ0gyXVtPSF0pW0NIMl1bQ0BASF0oW1MrXShbT0hdKVtPSF0pW0NASF0oW0NIM10pTjJbQ0gyXVtDSDJdW0NASF0oW09IXSlbQ0BASF0yW0NASF0oRilbQ0gzXQ==

>  <s_glide_docking_method>  (1) 
confgen

>  <s_i_glide_gridfile>  (1) 
gpcr_5ht2c_6bqh_protein_autoprepared_prepared

>  <s_lp_Force_Field>  (1) 
S-OPLS

>  <s_lp_Variant>  (1) 
DiffSBDD_93-3

>  <s_m_source_file>  (1) 
generated_GPCR_5HT2C_ligand_DiffSBDD_2026-06-23_prepared.sdf

>  <GenAI_Model>  (1) 
DiffSBDD

>  <Protein>  (1) 
GPCR_5HT2C

$$$$
DiffSBDD_25
     RDKit          3D

  0  0  0  0  0  0  0  0  0  0999 V3000
M  V30 BEGIN CTAB
M  V30 COUNTS 68 71 0 0 1
M  V30 BEGIN ATOM
M  V30 1 C 38.158214 30.388419 55.268035 0
M  V30 2 C 41.244694 35.312783 62.271870 0
M  V30 3 O 38.592957 31.253161 56.054717 0 CHG=-1
M  V30 4 C 36.364448 33.190247 60.289605 0
M  V30 5 N 37.579229 30.405995 58.301460 0
M  V30 6 C 41.652763 34.847019 63.674596 0
M  V30 7 C 38.175623 27.875918 54.639507 0
M  V30 8 C 38.697649 26.186205 56.131943 0
M  V30 9 C 40.829070 32.118415 65.403185 0
M  V30 10 C 42.159818 33.395648 63.694343 0
M  V30 11 C 41.117159 32.263138 63.883472 0 CFG=2
M  V30 12 C 39.177488 26.535484 58.587551 0
M  V30 13 O 42.963547 30.783984 64.058508 0
M  V30 14 O 39.546180 29.357875 59.038358 0
M  V30 15 N 38.593794 32.783415 61.030574 0
M  V30 16 C 38.594622 28.463202 57.000053 0
M  V30 17 O 37.645281 30.680146 54.167921 0
M  V30 18 C 40.931103 29.783595 63.452155 0
M  V30 19 C 38.292176 28.895819 55.647785 0
M  V30 20 C 39.782617 32.544776 63.153857 0
M  V30 21 C 39.794332 33.201860 61.763326 0 CFG=2
M  V30 22 C 38.663326 29.432308 58.184966 0
M  V30 23 C 38.690601 31.543909 60.280668 0
M  V30 24 N 38.351435 26.564590 54.891804 0
M  V30 25 C 42.009530 28.732447 63.545871 0
M  V30 26 C 37.404925 33.477062 61.063685 0
M  V30 27 N 37.888124 28.203211 53.318429 0
M  V30 28 N 41.708679 31.019706 63.345878 0
M  V30 29 C 39.898278 34.753057 61.822828 0
M  V30 30 C 37.538412 31.361301 59.287259 0
M  V30 31 C 44.433758 28.884851 64.364935 0
M  V30 32 N 36.444199 32.169058 59.367774 0 CHG=1
M  V30 33 C 43.002048 29.421938 64.460162 0 CFG=1
M  V30 34 C 38.823859 27.074050 57.212313 0
M  V30 35 H 42.004150 35.072644 61.528696 0
M  V30 36 H 41.179798 36.402134 62.275671 0
M  V30 37 H 35.431344 33.735353 60.297182 0
M  V30 38 H 36.813969 30.447891 57.635644 0
M  V30 39 H 42.461221 35.495426 64.012890 0
M  V30 40 H 40.847311 34.997455 64.393812 0
M  V30 41 H 38.859393 25.128041 56.276300 0
M  V30 42 H 40.494472 33.066039 65.824725 0
M  V30 43 H 40.043835 31.396841 65.622555 0
M  V30 44 H 41.713214 31.819310 65.966447 0
M  V30 45 H 42.760049 33.216051 62.801716 0
M  V30 46 H 42.845145 33.328922 64.534587 0
M  V30 47 H 39.193577 25.447423 58.568026 0
M  V30 48 H 40.166918 26.873061 58.894584 0
M  V30 49 H 38.445122 26.841183 59.334343 0
M  V30 50 H 40.318929 29.749272 64.351136 0
M  V30 51 H 40.274604 29.637650 62.593555 0
M  V30 52 H 39.245139 33.241623 63.767688 0
M  V30 53 H 39.168474 31.645787 63.148188 0
M  V30 54 H 40.659209 32.826995 61.213946 0
M  V30 55 H 38.702152 30.709091 60.981694 0
M  V30 56 H 39.645163 31.576600 59.767852 0
M  V30 57 H 42.444862 28.537854 62.567720 0
M  V30 58 H 41.643728 27.788986 63.952143 0
M  V30 59 H 37.381292 34.289422 61.768294 0
M  V30 60 H 37.701705 29.168497 53.056319 0
M  V30 61 H 37.763555 27.495764 52.609555 0
M  V30 62 H 39.692281 35.162260 60.832089 0
M  V30 63 H 39.140139 35.170904 62.484893 0
M  V30 64 H 44.477886 27.830322 64.636009 0
M  V30 65 H 44.828827 28.987450 63.355248 0
M  V30 66 H 45.098386 29.430970 65.035005 0
M  V30 67 H 42.649560 29.361047 65.491254 0
M  V30 68 H 35.722335 31.967274 58.674723 0
M  V30 END ATOM
M  V30 BEGIN BOND
M  V30 1 1 3 1
M  V30 2 1 6 2
M  V30 3 1 10 6
M  V30 4 1 11 9 CFG=1
M  V30 5 1 11 10
M  V30 6 2 17 1
M  V30 7 1 19 1
M  V30 8 2 19 7
M  V30 9 1 19 16
M  V30 10 1 20 11
M  V30 11 1 21 15
M  V30 12 1 21 20
M  V30 13 1 22 5
M  V30 14 2 22 14
M  V30 15 1 22 16
M  V30 16 1 23 15
M  V30 17 1 24 7
M  V30 18 2 24 8
M  V30 19 1 25 18
M  V30 20 2 26 4
M  V30 21 1 26 15
M  V30 22 1 27 7
M  V30 23 1 28 11
M  V30 24 1 28 13
M  V30 25 1 28 18
M  V30 26 1 29 2
M  V30 27 1 29 21
M  V30 28 1 30 5
M  V30 29 1 30 23
M  V30 30 1 32 4
M  V30 31 2 32 30
M  V30 32 1 33 13
M  V30 33 1 33 25
M  V30 34 1 33 31
M  V30 35 1 34 8
M  V30 36 1 34 12
M  V30 37 2 34 16
M  V30 38 1 35 2
M  V30 39 1 36 2
M  V30 40 1 37 4
M  V30 41 1 38 5
M  V30 42 1 39 6
M  V30 43 1 40 6
M  V30 44 1 41 8
M  V30 45 1 42 9
M  V30 46 1 43 9
M  V30 47 1 44 9
M  V30 48 1 45 10
M  V30 49 1 46 10
M  V30 50 1 47 12
M  V30 51 1 48 12
M  V30 52 1 49 12
M  V30 53 1 50 18
M  V30 54 1 51 18
M  V30 55 1 52 20
M  V30 56 1 53 20
M  V30 57 1 21 54 CFG=3
M  V30 58 1 55 23
M  V30 59 1 56 23
M  V30 60 1 57 25
M  V30 61 1 58 25
M  V30 62 1 59 26
M  V30 63 1 60 27
M  V30 64 1 61 27
M  V30 65 1 62 29
M  V30 66 1 63 29
M  V30 67 1 64 31
M  V30 68 1 65 31
M  V30 69 1 66 31
M  V30 70 1 33 67 CFG=1
M  V30 71 1 68 32
M  V30 END BOND
M  V30 END CTAB
M  END
>  <i_epik_Tot_Q>  (1) 
0

>  <i_epik_Tot_abs_Q>  (1) 
2

>  <i_i_glide_confnum>  (1) 
66

>  <i_i_glide_lignum>  (1) 
66

>  <i_i_glide_posenum>  (1) 
302

>  <i_i_glide_rotatable_bonds>  (1) 
6

>  <i_lp_mmshare_version>  (1) 
72125

>  <i_m_source_file_index>  (1) 
26

>  <i_f3d_flags>  (1) 
0

>  <num_sample>  (1) 
100

>  <b_lp_Chiralities_Consistent>  (1) 
1

>  <r_epik_Charging_Adjusted_Penalty>  (1) 
2.0881109960433539

>  <r_epik_Ionization_Penalty>  (1) 
0.85183889184377526

>  <r_epik_Ionization_Penalty_Charging>  (1) 
0.8304268618792634

>  <r_epik_Ionization_Penalty_Neutral>  (1) 
0.02141202996451182

>  <r_epik_State_Penalty>  (1) 
1.2576841341640903

>  <r_glide_ring_energy>  (1) 
0.043875447634132647

>  <r_i_docking_score>  (1) 
-5.7513039310970679

>  <r_i_glide_ecoul>  (1) 
-6.8766389520510973

>  <r_i_glide_eff_state_penalty>  (1) 
1.2576841341640903

>  <r_i_glide_einternal>  (1) 
4.4097528712016292

>  <r_i_glide_emodel>  (1) 
-71.202544205624633

>  <r_i_glide_emodel_strain>  (1) 
0

>  <r_i_glide_energy>  (1) 
-48.417602386787983

>  <r_i_glide_erotb>  (1) 
0.45623875647966866

>  <r_i_glide_esite>  (1) 
-0.27012874938817211

>  <r_i_glide_evdw>  (1) 
-41.540963434736888

>  <r_i_glide_gscore>  (1) 
-7.0089880652611587

>  <r_i_glide_gscore_strain>  (1) 
0

>  <r_i_glide_hbond>  (1) 
-0.30509879287249775

>  <r_i_glide_ligand_efficiency>  (1) 
-0.16915599797344316

>  <r_i_glide_ligand_efficiency_ln>  (1) 
-1.2706243569903841

>  <r_i_glide_ligand_efficiency_sa>  (1) 
-0.54799976729163669

>  <r_i_glide_lipo>  (1) 
-3.2051792324168975

>  <r_i_glide_metal>  (1) 
-0

>  <r_i_glide_rewards>  (1) 
-0.5762760325187517

>  <r_lp_Energy>  (1) 
64.660426999999999

>  <s_epik_Chemistry_Notes>  (1) 
This compound has an imine and may undergo hydrolysis. This compound has a N-S or N-O group and may undergo hydrolysis at high or low pH.

>  <s_epik_cmdline>  (1) 
J2VwaWtfcHl0aG9uJywgJy1waHQnLCAnMS4wJywgJy1waCcsICc3LjQnLCAnLXRuJywgJzgnLCAnLW1hJywgJzUwMCcsICctaW1hZScsICc8aW5maWxlLm1hZT4nLCAnLW9tYWUnLCAnPG91dGZpbGUubWFlPic=

>  <s_epik_input>  (1) 
W09IXUMoPU8pYyhjMVtOSDJdKWMoYyhbY0hdbjEpW0NIM10pQyg9TylbTkhdQyg9TltDSF09W0NIXTIpW0NIMl1OMltDQEhdKFtDSDJdMylbQ0gyXVtDSDJdW0NIMl1bQ0gyXVtDQF0zKFtDSDNdKU40T1tDQEBIXShbQ0gzXSlbQ0gyXVtDSDJdNA==

>  <s_glide_docking_method>  (1) 
confgen

>  <s_i_glide_gridfile>  (1) 
gpcr_5ht2c_6bqh_protein_autoprepared_prepared

>  <s_lp_Force_Field>  (1) 
S-OPLS

>  <s_lp_Variant>  (1) 
DiffSBDD_25-6

>  <s_m_source_file>  (1) 
generated_GPCR_5HT2C_ligand_DiffSBDD_2026-06-23_prepared.sdf

>  <GenAI_Model>  (1) 
DiffSBDD

>  <Protein>  (1) 
GPCR_5HT2C

$$$$
DiffSBDD_4
     RDKit          3D

  0  0  0  0  0  0  0  0  0  0999 V3000
M  V30 BEGIN CTAB
M  V30 COUNTS 72 75 0 0 1
M  V30 BEGIN ATOM
M  V30 1 C 39.384301 28.695362 55.981218 0
M  V30 2 C 39.066033 37.512720 61.803896 0
M  V30 3 C 38.602402 32.805560 61.271099 0
M  V30 4 N 38.835262 29.263533 54.756214 0
M  V30 5 C 37.626298 31.421110 54.931007 0
M  V30 6 O 38.045210 30.552573 61.856870 0
M  V30 7 C 39.793494 25.737742 54.815819 0
M  V30 8 C 39.200378 28.060089 51.122830 0
M  V30 9 C 38.201937 31.355059 60.940172 0
M  V30 10 O 38.116871 27.251112 53.761228 0
M  V30 11 C 38.422165 26.421530 54.898755 0 CFG=2
M  V30 12 C 39.751653 30.169215 52.065796 0
M  V30 13 C 36.631100 33.883656 59.158357 0
M  V30 14 O 39.289662 32.744487 56.076888 0
M  V30 15 O 40.445227 25.737846 53.768790 0
M  V30 16 C 37.676856 29.635707 59.247792 0
M  V30 17 C 37.636500 35.672276 60.699504 0 CFG=1
M  V30 18 C 38.939630 28.373426 53.626401 0 CFG=1
M  V30 19 C 37.525041 29.893442 54.926777 0
M  V30 20 C 38.765367 29.005801 52.240110 0 CFG=2
M  V30 21 O 37.752510 31.567483 57.334289 0
M  V30 22 N 38.027012 31.009301 59.630127 0
M  V30 23 C 36.666147 35.375532 59.527446 0
M  V30 24 N 39.645172 28.938392 50.024275 0 CHG=1
M  V30 25 C 38.294956 31.973659 58.555501 0 CFG=2
M  V30 26 C 39.946738 30.278643 50.560144 0
M  V30 27 C 38.321789 31.991073 56.166641 0
M  V30 28 C 38.078971 33.461702 58.888167 0 CFG=2
M  V30 29 O 38.923145 35.094403 60.460837 0
M  V30 30 C 37.873052 37.185330 60.890627 0 CFG=1
M  V30 31 S 38.350721 27.285132 56.484873 0
M  V30 32 C 36.186722 29.509608 58.952258 0
M  V30 33 C 38.966860 33.720127 60.096829 0 CFG=1
M  V30 34 O 36.726836 37.770096 61.469756 0
M  V30 35 H 40.404538 28.352831 55.802423 0
M  V30 36 H 39.458867 29.454258 56.753918 0
M  V30 37 H 39.991564 37.054798 61.452443 0
M  V30 38 H 39.246102 38.586763 61.823437 0
M  V30 39 H 38.900949 37.169205 62.825244 0
M  V30 40 H 39.430837 32.785220 61.980243 0
M  V30 41 H 37.758114 33.203015 61.828718 0
M  V30 42 H 36.608277 31.788671 54.893684 0
M  V30 43 H 38.119650 31.789489 54.034625 0
M  V30 44 H 40.136596 25.262677 55.735250 0
M  V30 45 H 40.045358 27.450307 51.438841 0
M  V30 46 H 38.410859 27.379491 50.810731 0
M  V30 47 H 37.672756 25.630422 54.925506 0
M  V30 48 H 39.423623 31.103416 52.516525 0
M  V30 49 H 40.706205 29.917669 52.522452 0
M  V30 50 H 36.023792 33.737807 58.264701 0
M  V30 51 H 36.175382 33.295357 59.955451 0
M  V30 52 H 38.249526 29.340391 58.383125 0
M  V30 53 H 37.969015 28.914705 60.012727 0
M  V30 54 H 37.229998 35.265344 61.624326 0
M  V30 55 H 39.939631 27.983747 53.617242 0
M  V30 56 H 37.037146 29.564534 55.844211 0
M  V30 57 H 36.848478 29.589896 54.128433 0
M  V30 58 H 37.733479 29.320096 52.091459 0
M  V30 59 H 35.661260 35.724556 59.763857 0
M  V30 60 H 36.988417 35.938863 58.649886 0
M  V30 61 H 38.885009 29.053663 49.361859 0
M  V30 62 H 39.323660 31.831685 58.383173 0
M  V30 63 H 39.245344 30.996343 50.132515 0
M  V30 64 H 40.957001 30.600043 50.302377 0
M  V30 65 H 38.441825 34.055427 58.052095 0
M  V30 66 H 38.043331 37.651286 59.919176 0
M  V30 67 H 35.916146 28.535601 58.569063 0
M  V30 68 H 35.643318 29.737711 59.857791 0
M  V30 69 H 35.851875 30.173708 58.169005 0
M  V30 70 H 40.006094 33.520344 59.827455 0
M  V30 71 H 36.570576 37.363372 62.308579 0
M  V30 72 H 40.445672 28.542975 49.555228 0
M  V30 END ATOM
M  V30 BEGIN BOND
M  V30 1 1 4 1
M  V30 2 1 9 3
M  V30 3 2 9 6
M  V30 4 1 11 7
M  V30 5 1 11 10
M  V30 6 2 15 7
M  V30 7 1 18 4
M  V30 8 1 18 10
M  V30 9 1 19 4
M  V30 10 1 19 5
M  V30 11 1 20 8
M  V30 12 1 20 12
M  V30 13 1 20 18
M  V30 14 1 22 9
M  V30 15 1 22 16
M  V30 16 1 23 13
M  V30 17 1 23 17
M  V30 18 1 24 8
M  V30 19 1 25 21
M  V30 20 1 25 22
M  V30 21 1 26 12
M  V30 22 1 26 24
M  V30 23 1 27 5
M  V30 24 2 27 14
M  V30 25 1 27 21
M  V30 26 1 28 13
M  V30 27 1 28 25
M  V30 28 1 29 17
M  V30 29 1 30 2
M  V30 30 1 30 17
M  V30 31 1 31 1
M  V30 32 1 31 11
M  V30 33 1 32 16
M  V30 34 1 33 3
M  V30 35 1 33 28
M  V30 36 1 33 29
M  V30 37 1 34 30
M  V30 38 1 35 1
M  V30 39 1 36 1
M  V30 40 1 37 2
M  V30 41 1 38 2
M  V30 42 1 39 2
M  V30 43 1 40 3
M  V30 44 1 41 3
M  V30 45 1 42 5
M  V30 46 1 43 5
M  V30 47 1 44 7
M  V30 48 1 45 8
M  V30 49 1 46 8
M  V30 50 1 11 47 CFG=1
M  V30 51 1 48 12
M  V30 52 1 49 12
M  V30 53 1 50 13
M  V30 54 1 51 13
M  V30 55 1 52 16
M  V30 56 1 53 16
M  V30 57 1 17 54 CFG=1
M  V30 58 1 18 55 CFG=3
M  V30 59 1 56 19
M  V30 60 1 57 19
M  V30 61 1 20 58 CFG=3
M  V30 62 1 59 23
M  V30 63 1 60 23
M  V30 64 1 61 24
M  V30 65 1 25 62 CFG=3
M  V30 66 1 63 26
M  V30 67 1 64 26
M  V30 68 1 28 65 CFG=3
M  V30 69 1 30 66 CFG=3
M  V30 70 1 67 32
M  V30 71 1 68 32
M  V30 72 1 69 32
M  V30 73 1 33 70 CFG=3
M  V30 74 1 71 34
M  V30 75 1 72 24
M  V30 END BOND
M  V30 END CTAB
M  END
>  <i_epik_Tot_Q>  (1) 
1

>  <i_epik_Tot_abs_Q>  (1) 
1

>  <i_i_glide_confnum>  (1) 
455

>  <i_i_glide_lignum>  (1) 
7

>  <i_i_glide_posenum>  (1) 
195

>  <i_i_glide_rotatable_bonds>  (1) 
10

>  <i_lp_mmshare_version>  (1) 
72125

>  <i_m_source_file_index>  (1) 
5

>  <i_f3d_flags>  (1) 
0

>  <num_sample>  (1) 
100

>  <b_lp_Chiralities_Consistent>  (1) 
1

>  <r_epik_Charging_Adjusted_Penalty>  (1) 
0.68239231030887826

>  <r_epik_Ionization_Penalty>  (1) 
0.68239482879591951

>  <r_epik_Ionization_Penalty_Charging>  (1) 
0.00029009099004162725

>  <r_epik_Ionization_Penalty_Neutral>  (1) 
0.68210473780587788

>  <r_epik_State_Penalty>  (1) 
0.68210221931883663

>  <r_glide_ring_energy>  (1) 
0.17891050555161442

>  <r_i_docking_score>  (1) 
-5.7471094377816945

>  <r_i_glide_ecoul>  (1) 
-2.651786723546194

>  <r_i_glide_eff_state_penalty>  (1) 
0.68210221931883663

>  <r_i_glide_einternal>  (1) 
3.3322598778505359

>  <r_i_glide_emodel>  (1) 
-55.730053459285649

>  <r_i_glide_emodel_strain>  (1) 
0.51481834945970917

>  <r_i_glide_energy>  (1) 
-37.605421135079318

>  <r_i_glide_erotb>  (1) 
0.570329169500843

>  <r_i_glide_esite>  (1) 
-0.18093797351788485

>  <r_i_glide_evdw>  (1) 
-34.953634411533123

>  <r_i_glide_gscore>  (1) 
-6.4292116571005309

>  <r_i_glide_gscore_strain>  (1) 
0

>  <r_i_glide_hbond>  (1) 
-0.13052257567781145

>  <r_i_glide_ligand_efficiency>  (1) 
-0.169032630522991

>  <r_i_glide_ligand_efficiency_ln>  (1) 
-1.2696976757654657

>  <r_i_glide_ligand_efficiency_sa>  (1) 
-0.54760010464325826

>  <r_i_glide_lipo>  (1) 
-2.9033496738411366

>  <r_i_glide_metal>  (1) 
-0

>  <r_i_glide_rewards>  (1) 
-1.639280874455957

>  <r_lp_Energy>  (1) 
42.884645999999996

>  <r_lp_tautomer_probability>  (1) 
0.99990000499974985

>  <s_epik_Chemistry_Notes>  (1) 
This compound has an ester and may undergo hydrolysis at high or low pH. This compound contains an acetal/aminal-like group ( X-CH(R)-Y where X, Y are N, S, or O) that may be acid/base labile, releasing an aldehyde.

>  <s_epik_cmdline>  (1) 
J2VwaWtfcHl0aG9uJywgJy1waHQnLCAnMS4wJywgJy1waCcsICc3LjQnLCAnLXRuJywgJzgnLCAnLW1hJywgJzUwMCcsICctaW1hZScsICc8aW5maWxlLm1hZT4nLCAnLW9tYWUnLCAnPG91dGZpbGUubWFlPic=

>  <s_epik_input>  (1) 
W0NIMl0xW0NIMl1bTkhdW0NIMl1bQ0BIXTFbQ0BASF0yT1tDQEBIXShbQ0hdPU8pU1tDSDJdTjJbQ0gyXVtDSDJdQyg9TylPW0NAQEhdM04oW0NIMl1bQ0gzXSlDKD1PKVtDSDJdW0NAQEhdKFtDQEBIXTM0KU9bQ0BIXShbQ0gyXVtDSDJdNClbQ0BIXShbQ0gzXSlbT0hd

>  <s_glide_docking_method>  (1) 
confgen

>  <s_i_glide_gridfile>  (1) 
gpcr_5ht2c_6bqh_protein_autoprepared_prepared

>  <s_lp_Force_Field>  (1) 
S-OPLS

>  <s_lp_Variant>  (1) 
DiffSBDD_4-2

>  <s_m_source_file>  (1) 
generated_GPCR_5HT2C_ligand_DiffSBDD_2026-06-23_prepared.sdf

>  <GenAI_Model>  (1) 
DiffSBDD

>  <Protein>  (1) 
GPCR_5HT2C

$$$$
DiffSBDD_82
     RDKit          3D

  0  0  0  0  0  0  0  0  0  0999 V3000
M  V30 BEGIN CTAB
M  V30 COUNTS 37 38 0 0 1
M  V30 BEGIN ATOM
M  V30 1 C 39.884841 28.499412 55.825671 0 CFG=2
M  V30 2 O 37.645273 30.313205 57.323376 0
M  V30 3 C 39.724011 28.696333 57.319100 0 CFG=2
M  V30 4 O 38.445042 27.128510 58.574048 0
M  V30 5 C 37.245447 26.194437 54.593647 0
M  V30 6 C 38.722819 28.068222 54.909242 0 CFG=2
M  V30 7 C 39.298371 29.850565 53.196900 0
M  V30 8 C 40.616765 27.588672 56.778528 0
M  V30 9 O 38.502221 26.667638 55.059484 0
M  V30 10 N 37.446242 29.080936 58.005250 0
M  V30 11 C 39.083178 28.486993 53.491547 0
M  V30 12 F 39.128511 30.791317 54.157248 0
M  V30 13 C 37.011769 24.567797 56.552794 0
M  V30 14 C 39.897912 29.264965 50.917023 0
M  V30 15 C 39.248228 27.517144 52.476983 0
M  V30 16 C 39.645136 27.909726 51.190214 0
M  V30 17 C 38.494558 28.223110 58.018677 0
M  V30 18 C 39.716731 30.231511 51.915276 0
M  V30 19 Cl 40.445137 29.737761 49.367762 0
M  V30 20 C 37.073951 24.734115 55.030748 0
M  V30 21 H 40.506355 29.281433 55.396846 0
M  V30 22 H 36.788238 30.741139 57.330515 0
M  V30 23 H 40.225024 29.550970 57.770196 0
M  V30 24 H 36.446900 26.821914 54.967843 0
M  V30 25 H 37.165139 26.254332 53.510488 0
M  V30 26 H 37.831806 28.625519 55.200524 0
M  V30 27 H 41.690241 27.725629 56.891381 0
M  V30 28 H 40.284875 26.553749 56.851290 0
M  V30 29 H 36.520389 29.009829 58.401381 0
M  V30 30 H 36.845231 23.525549 56.822229 0
M  V30 31 H 37.943360 24.882290 57.021588 0
M  V30 32 H 36.204298 25.162601 56.979176 0
M  V30 33 H 39.095623 26.474345 52.691139 0
M  V30 34 H 39.783248 27.166779 50.418296 0
M  V30 35 H 39.905617 31.273160 51.698745 0
M  V30 36 H 36.162723 24.330305 54.589779 0
M  V30 37 H 37.895199 24.139161 54.630470 0
M  V30 END ATOM
M  V30 BEGIN BOND
M  V30 1 1 3 1
M  V30 2 1 6 1
M  V30 3 1 8 1
M  V30 4 1 8 3
M  V30 5 1 9 5
M  V30 6 1 9 6
M  V30 7 1 10 2
M  V30 8 1 11 6
M  V30 9 2 11 7
M  V30 10 1 12 7
M  V30 11 1 15 11
M  V30 12 1 16 14
M  V30 13 2 16 15
M  V30 14 1 17 3
M  V30 15 2 17 4
M  V30 16 1 17 10
M  V30 17 1 18 7
M  V30 18 2 18 14
M  V30 19 1 19 14
M  V30 20 1 20 5
M  V30 21 1 20 13
M  V30 22 1 1 21 CFG=3
M  V30 23 1 22 2
M  V30 24 1 3 23 CFG=1
M  V30 25 1 24 5
M  V30 26 1 25 5
M  V30 27 1 6 26 CFG=1
M  V30 28 1 27 8
M  V30 29 1 28 8
M  V30 30 1 29 10
M  V30 31 1 30 13
M  V30 32 1 31 13
M  V30 33 1 32 13
M  V30 34 1 33 15
M  V30 35 1 34 16
M  V30 36 1 35 18
M  V30 37 1 36 20
M  V30 38 1 37 20
M  V30 END BOND
M  V30 END CTAB
M  END
>  <i_epik_Tot_Q>  (1) 
0

>  <i_epik_Tot_abs_Q>  (1) 
0

>  <i_i_glide_confnum>  (1) 
139

>  <i_i_glide_lignum>  (1) 
189

>  <i_i_glide_posenum>  (1) 
102

>  <i_i_glide_rotatable_bonds>  (1) 
8

>  <i_lp_mmshare_version>  (1) 
72125

>  <i_m_source_file_index>  (1) 
83

>  <i_f3d_flags>  (1) 
0

>  <num_sample>  (1) 
100

>  <b_lp_Chiralities_Consistent>  (1) 
1

>  <r_epik_Charging_Adjusted_Penalty>  (1) 
0

>  <r_epik_Ionization_Penalty>  (1) 
0.011497294520252079

>  <r_epik_Ionization_Penalty_Charging>  (1) 
0

>  <r_epik_Ionization_Penalty_Neutral>  (1) 
0.011497294520252079

>  <r_epik_State_Penalty>  (1) 
-0

>  <r_glide_ring_energy>  (1) 
0

>  <r_i_docking_score>  (1) 
-5.7451058192323821

>  <r_i_glide_ecoul>  (1) 
-3.77934239662908

>  <r_i_glide_eff_state_penalty>  (1) 
-0

>  <r_i_glide_einternal>  (1) 
4.9952009783173992

>  <r_i_glide_emodel>  (1) 
-39.936172013352163

>  <r_i_glide_emodel_strain>  (1) 
0.46600119483183278

>  <r_i_glide_energy>  (1) 
-30.352207196034001

>  <r_i_glide_erotb>  (1) 
1.2126053731810509

>  <r_i_glide_esite>  (1) 
-0.024157503171809994

>  <r_i_glide_evdw>  (1) 
-26.572864799404922

>  <r_i_glide_gscore>  (1) 
-5.7451058192323821

>  <r_i_glide_gscore_strain>  (1) 
0

>  <r_i_glide_hbond>  (1) 
-0.16

>  <r_i_glide_ligand_efficiency>  (1) 
-0.28725529096161911

>  <r_i_glide_ligand_efficiency_ln>  (1) 
-1.4378105002821966

>  <r_i_glide_ligand_efficiency_sa>  (1) 
-0.77973082224631463

>  <r_i_glide_lipo>  (1) 
-3.4808261924797956

>  <r_i_glide_metal>  (1) 
-0

>  <r_i_glide_rewards>  (1) 
-1.3971828972972189

>  <r_lp_Energy>  (1) 
29.806459999999998

>  <r_lp_tautomer_probability>  (1) 
1

>  <s_epik_Chemistry_Notes>  (1) 
This compound has a N-S or N-O group and may undergo hydrolysis at high or low pH.

>  <s_epik_cmdline>  (1) 
J2VwaWtfcHl0aG9uJywgJy1waHQnLCAnMS4wJywgJy1waCcsICc3LjQnLCAnLXRuJywgJzgnLCAnLW1hJywgJzUwMCcsICctaW1hZScsICc8aW5maWxlLm1hZT4nLCAnLW9tYWUnLCAnPG91dGZpbGUubWFlPic=

>  <s_epik_input>  (1) 
W09IXVtOSF1DKD1PKVtDQEBIXShbQ0gyXTEpW0NAQEhdMVtDQEhdKE9bQ0gyXVtDSDJdW0NIM10pYyhjMkYpW2NIXVtjSF1jKENsKVtjSF0y

>  <s_glide_docking_method>  (1) 
confgen

>  <s_i_glide_gridfile>  (1) 
gpcr_5ht2c_6bqh_protein_autoprepared_prepared

>  <s_lp_Force_Field>  (1) 
S-OPLS

>  <s_lp_Variant>  (1) 
DiffSBDD_82-1

>  <s_m_source_file>  (1) 
generated_GPCR_5HT2C_ligand_DiffSBDD_2026-06-23_prepared.sdf

>  <GenAI_Model>  (1) 
DiffSBDD

>  <Protein>  (1) 
GPCR_5HT2C

$$$$
DiffSBDD_91
     RDKit          3D

  0  0  0  0  0  0  0  0  0  0999 V3000
M  V30 BEGIN CTAB
M  V30 COUNTS 47 48 0 0 1
M  V30 BEGIN ATOM
M  V30 1 N 38.886448 31.140439 62.178442 0
M  V30 2 C 39.999630 29.309762 61.116272 0
M  V30 3 C 39.484739 29.318252 59.861041 0
M  V30 4 C 38.813220 29.408393 53.223203 0 CFG=1
M  V30 5 O 38.811077 27.057684 52.829041 0
M  V30 6 C 38.543498 29.213682 57.201531 0
M  V30 7 C 39.533129 28.241792 57.684135 0
M  V30 8 C 38.459738 30.279421 59.319636 0
M  V30 9 C 39.557481 29.945213 50.771334 0 CFG=2
M  V30 10 C 40.426796 29.337732 49.683478 0
M  V30 11 O 36.845647 28.100669 52.967758 0 CHG=-1
M  V30 12 C 37.855195 31.307176 59.972910 0
M  V30 13 C 38.095664 28.072839 52.982013 0
M  V30 14 C 38.561882 32.128246 54.864375 0
M  V30 15 C 38.095477 31.672635 61.339935 0
M  V30 16 O 39.645142 31.337669 50.564481 0
M  V30 17 C 39.200282 29.595728 54.730735 0 CFG=1
M  V30 18 C 39.653292 31.056948 55.035356 0
M  V30 19 N 39.748013 30.137884 62.204713 0
M  V30 20 N 38.068325 30.112183 57.973611 0
M  V30 21 C 39.971093 28.303146 58.945015 0
M  V30 22 N 40.445141 29.880930 63.379251 0
M  V30 23 C 38.118819 29.104202 55.747471 0
M  V30 24 C 39.985499 29.592752 52.209390 0
M  V30 25 H 40.734587 28.558085 61.374477 0
M  V30 26 H 38.050264 30.137787 53.000976 0
M  V30 27 H 39.881387 27.499504 56.980163 0
M  V30 28 H 38.539582 29.601074 50.606949 0
M  V30 29 H 40.445127 28.253709 49.783925 0
M  V30 30 H 41.439319 29.737788 49.724610 0
M  V30 31 H 40.015731 29.558702 48.699970 0
M  V30 32 H 37.134563 31.904344 59.429245 0
M  V30 33 H 38.932637 33.104435 55.174841 0
M  V30 34 H 37.679743 31.916326 55.468944 0
M  V30 35 H 38.242724 32.218904 53.826711 0
M  V30 36 H 37.493786 32.527580 61.647360 0
M  V30 37 H 40.540496 31.616656 50.683000 0
M  V30 38 H 40.059002 28.954445 54.903506 0
M  V30 39 H 40.506633 31.334303 54.421075 0
M  V30 40 H 40.042477 31.123523 56.051332 0
M  V30 41 H 40.702429 27.584762 59.285379 0
M  V30 42 H 40.506850 30.757214 63.892958 0
M  V30 43 H 39.875472 29.234419 63.927255 0
M  V30 44 H 37.864643 28.056942 55.584441 0
M  V30 45 H 37.190890 29.657877 55.600204 0
M  V30 46 H 40.688093 30.344403 52.552350 0
M  V30 47 H 40.553562 28.668441 52.167756 0
M  V30 END ATOM
M  V30 BEGIN BOND
M  V30 1 2 3 2
M  V30 2 1 7 6
M  V30 3 1 8 3
M  V30 4 1 10 9
M  V30 5 2 12 8
M  V30 6 1 13 4
M  V30 7 2 13 5
M  V30 8 1 13 11
M  V30 9 2 15 1
M  V30 10 1 15 12
M  V30 11 1 16 9
M  V30 12 1 17 4
M  V30 13 1 18 14
M  V30 14 1 18 17
M  V30 15 1 19 1
M  V30 16 1 19 2
M  V30 17 2 20 6
M  V30 18 1 20 8
M  V30 19 1 21 3
M  V30 20 2 21 7
M  V30 21 1 22 19
M  V30 22 1 23 6
M  V30 23 1 23 17
M  V30 24 1 24 4
M  V30 25 1 24 9
M  V30 26 1 25 2
M  V30 27 1 4 26 CFG=3
M  V30 28 1 27 7
M  V30 29 1 9 28 CFG=3
M  V30 30 1 29 10
M  V30 31 1 30 10
M  V30 32 1 31 10
M  V30 33 1 32 12
M  V30 34 1 33 14
M  V30 35 1 34 14
M  V30 36 1 35 14
M  V30 37 1 36 15
M  V30 38 1 37 16
M  V30 39 1 17 38 CFG=1
M  V30 40 1 39 18
M  V30 41 1 40 18
M  V30 42 1 41 21
M  V30 43 1 42 22
M  V30 44 1 43 22
M  V30 45 1 44 23
M  V30 46 1 45 23
M  V30 47 1 46 24
M  V30 48 1 47 24
M  V30 END BOND
M  V30 END CTAB
M  END
>  <i_epik_Tot_Q>  (1) 
-1

>  <i_epik_Tot_abs_Q>  (1) 
1

>  <i_i_glide_confnum>  (1) 
175

>  <i_i_glide_lignum>  (1) 
211

>  <i_i_glide_posenum>  (1) 
291

>  <i_i_glide_rotatable_bonds>  (1) 
8

>  <i_lp_mmshare_version>  (1) 
72125

>  <i_m_source_file_index>  (1) 
92

>  <i_f3d_flags>  (1) 
0

>  <num_sample>  (1) 
100

>  <b_lp_Chiralities_Consistent>  (1) 
1

>  <r_epik_Charging_Adjusted_Penalty>  (1) 
0.00040007819211634345

>  <r_epik_Ionization_Penalty>  (1) 
0.00040449686215294139

>  <r_epik_Ionization_Penalty_Charging>  (1) 
0.00040007819211634345

>  <r_epik_Ionization_Penalty_Neutral>  (1) 
4.4186700365979628e-06

>  <r_epik_State_Penalty>  (1) 
-0

>  <r_glide_ring_energy>  (1) 
0

>  <r_i_docking_score>  (1) 
-5.7444017895586201

>  <r_i_glide_ecoul>  (1) 
-1.2347335802463357

>  <r_i_glide_eff_state_penalty>  (1) 
-0

>  <r_i_glide_einternal>  (1) 
11.449194604229877

>  <r_i_glide_emodel>  (1) 
-44.905739434334002

>  <r_i_glide_emodel_strain>  (1) 
1.0112403333607176

>  <r_i_glide_energy>  (1) 
-34.748796778730672

>  <r_i_glide_erotb>  (1) 
0.85685710586464559

>  <r_i_glide_esite>  (1) 
0

>  <r_i_glide_evdw>  (1) 
-33.514063198484337

>  <r_i_glide_gscore>  (1) 
-5.7444017895586201

>  <r_i_glide_gscore_strain>  (1) 
0

>  <r_i_glide_hbond>  (1) 
-0.32000000000000001

>  <r_i_glide_ligand_efficiency>  (1) 
-0.23935007456494251

>  <r_i_glide_ligand_efficiency_ln>  (1) 
-1.3748989416635233

>  <r_i_glide_ligand_efficiency_sa>  (1) 
-0.69040508438866899

>  <r_i_glide_lipo>  (1) 
-2.2940689427032877

>  <r_i_glide_metal>  (1) 
-0

>  <r_i_glide_rewards>  (1) 
-2.12627675575881

>  <r_lp_Energy>  (1) 
41.094901

>  <r_lp_tautomer_probability>  (1) 
1

>  <s_epik_Chemistry_Notes>  (1) 
This compound has an imine and may undergo hydrolysis.

>  <s_epik_cmdline>  (1) 
J2VwaWtfcHl0aG9uJywgJy1waHQnLCAnMS4wJywgJy1waCcsICc3LjQnLCAnLXRuJywgJzgnLCAnLW1hJywgJzUwMCcsICctaW1hZScsICc8aW5maWxlLm1hZT4nLCAnLW9tYWUnLCAnPG91dGZpbGUubWFlPic=

>  <s_epik_input>  (1) 
W0NIXT0xTihbTkgyXSlOPVtDSF1bQ0hdPWMoYzEyKW5jKFtjSF1bY0hdMilbQ0gyXVtDQEhdKFtDSDJdW0NIM10pW0NASF0oQyg9TylbT0hdKVtDSDJdW0NASF0oW0NIM10pW09IXQ==

>  <s_glide_docking_method>  (1) 
confgen

>  <s_i_glide_gridfile>  (1) 
gpcr_5ht2c_6bqh_protein_autoprepared_prepared

>  <s_lp_Force_Field>  (1) 
S-OPLS

>  <s_lp_Variant>  (1) 
DiffSBDD_91-1

>  <s_m_source_file>  (1) 
generated_GPCR_5HT2C_ligand_DiffSBDD_2026-06-23_prepared.sdf

>  <GenAI_Model>  (1) 
DiffSBDD

>  <Protein>  (1) 
GPCR_5HT2C

$$$$
DiffSBDD_18
     RDKit          3D

  0  0  0  0  0  0  0  0  0  0999 V3000
M  V30 BEGIN CTAB
M  V30 COUNTS 77 79 0 0 1
M  V30 BEGIN ATOM
M  V30 1 C 34.340487 31.737843 59.150100 0
M  V30 2 C 37.728973 28.597721 56.034580 0 CFG=2
M  V30 3 C 40.522637 31.311476 62.637002 0
M  V30 4 C 40.096174 32.648084 62.678150 0
M  V30 5 C 38.609979 30.747952 61.232083 0
M  V30 6 O 37.100636 24.589766 57.768389 0
M  V30 7 C 36.274174 34.878746 59.023207 0
M  V30 8 C 41.102387 28.133834 57.121920 0
M  V30 9 C 38.044406 32.868081 55.727214 0
M  V30 10 C 40.947889 34.950958 63.239238 0
M  V30 11 C 37.695903 24.970633 56.742593 0
M  V30 12 C 39.784833 30.363962 61.908295 0
M  V30 13 C 38.133661 33.243807 58.278864 0
M  V30 14 C 40.104480 28.853193 56.657428 0
M  V30 15 C 40.978409 26.656650 57.445430 0
M  V30 16 C 37.244585 36.048428 59.224208 0
M  V30 17 C 35.584788 31.150220 59.851417 0
M  V30 18 C 39.080677 31.878582 56.170236 0 CFG=2
M  V30 19 C 37.645094 27.491162 57.137257 0
M  V30 20 C 37.475294 28.097329 54.591495 0
M  V30 21 C 39.630823 26.101797 57.928569 0
M  V30 22 C 40.295113 35.588915 62.044642 0
M  V30 23 C 39.036571 29.371962 56.099571 0
M  V30 24 C 35.360732 33.343231 61.629095 0
M  V30 25 C 38.527344 26.248195 56.861470 0 CFG=1
M  V30 26 N 41.635520 35.736956 64.086759 0 CHG=1
M  V30 27 C 38.904710 33.041263 62.014820 0
M  V30 28 P 36.575801 32.578306 60.422920 0 CFG=1 CHG=1
M  V30 29 N 39.020134 30.605091 55.475972 0
M  V30 30 O 37.677051 24.402691 55.629427 0 CHG=-1
M  V30 31 C 37.968661 32.281537 57.121792 0 CFG=2
M  V30 32 C 38.152922 32.084544 61.287208 0
M  V30 33 N 36.842819 33.504748 58.973052 0 CFG=1 CHG=1
M  V30 34 N 40.894774 33.596959 63.484869 0
M  V30 35 H 33.894270 30.964128 58.526859 0
M  V30 36 H 33.565323 32.115706 59.767841 0
M  V30 37 H 34.513066 32.632834 58.567786 0
M  V30 38 H 36.957377 29.337576 56.266783 0
M  V30 39 H 41.418754 31.010828 63.160638 0
M  V30 40 H 38.047509 30.009172 60.678700 0
M  V30 41 H 35.620113 34.958898 58.167943 0
M  V30 42 H 35.551304 34.989224 59.815697 0
M  V30 43 H 42.097963 28.538956 57.183577 0
M  V30 44 H 38.344372 33.909071 55.612730 0
M  V30 45 H 37.288181 32.536269 55.018797 0
M  V30 46 H 40.115519 29.335491 61.874042 0
M  V30 47 H 38.900431 32.866462 58.950963 0
M  V30 48 H 38.531475 34.137575 57.851511 0
M  V30 49 H 41.243434 26.140974 56.522102 0
M  V30 50 H 41.748402 26.427358 58.175951 0
M  V30 51 H 36.725967 36.879696 59.700628 0
M  V30 52 H 38.081615 35.784095 59.869605 0
M  V30 53 H 37.620760 36.447059 58.282446 0
M  V30 54 H 36.155226 30.528292 59.162896 0
M  V30 55 H 35.295513 30.537646 60.699927 0
M  V30 56 H 40.092807 32.251457 56.309194 0
M  V30 57 H 37.917038 27.949710 58.087144 0
M  V30 58 H 36.632673 27.172238 57.367740 0
M  V30 59 H 37.236754 28.919498 53.918813 0
M  V30 60 H 38.352245 27.595088 54.182402 0
M  V30 61 H 36.654373 27.383587 54.552488 0
M  V30 62 H 39.345079 26.541319 58.886387 0
M  V30 63 H 39.787564 25.045684 58.145268 0
M  V30 64 H 39.289284 35.937889 62.275078 0
M  V30 65 H 40.859580 36.482028 61.772739 0
M  V30 66 H 40.327275 34.963633 61.152935 0
M  V30 67 H 34.870744 32.540472 62.167759 0
M  V30 68 H 35.817180 34.045179 62.327276 0
M  V30 69 H 34.522961 33.832821 61.143269 0
M  V30 70 H 39.011378 26.348522 55.889654 0
M  V30 71 H 41.683218 36.743801 63.933033 0
M  V30 72 H 38.541520 34.046369 62.078662 0
M  V30 73 H 38.247823 30.648016 54.827329 0
M  V30 74 H 37.264393 31.472230 57.316321 0
M  V30 75 H 41.551032 33.239950 64.163952 0
M  V30 76 H 42.094217 35.338409 64.893642 0
M  V30 77 H 36.198045 33.044828 58.334170 0
M  V30 END ATOM
M  V30 BEGIN BOND
M  V30 1 1 4 3
M  V30 2 2 11 6
M  V30 3 2 12 3
M  V30 4 1 12 5
M  V30 5 2 14 8
M  V30 6 1 15 8
M  V30 7 1 16 7
M  V30 8 1 17 1
M  V30 9 1 18 9
M  V30 10 1 19 2
M  V30 11 1 20 2
M  V30 12 1 21 15
M  V30 13 1 22 10
M  V30 14 1 23 2
M  V30 15 2 23 14
M  V30 16 1 25 11
M  V30 17 1 25 19
M  V30 18 1 25 21
M  V30 19 2 26 10
M  V30 20 2 27 4
M  V30 21 1 28 17 CFG=3
M  V30 22 1 28 24
M  V30 23 1 29 18
M  V30 24 1 29 23
M  V30 25 1 30 11
M  V30 26 1 31 9
M  V30 27 1 31 13
M  V30 28 1 31 18
M  V30 29 2 32 5
M  V30 30 1 32 27
M  V30 31 1 32 28
M  V30 32 1 33 7
M  V30 33 1 33 13
M  V30 34 1 33 28
M  V30 35 1 34 4
M  V30 36 1 34 10
M  V30 37 1 35 1
M  V30 38 1 36 1
M  V30 39 1 37 1
M  V30 40 1 2 38 CFG=1
M  V30 41 1 39 3
M  V30 42 1 40 5
M  V30 43 1 41 7
M  V30 44 1 42 7
M  V30 45 1 43 8
M  V30 46 1 44 9
M  V30 47 1 45 9
M  V30 48 1 46 12
M  V30 49 1 47 13
M  V30 50 1 48 13
M  V30 51 1 49 15
M  V30 52 1 50 15
M  V30 53 1 51 16
M  V30 54 1 52 16
M  V30 55 1 53 16
M  V30 56 1 54 17
M  V30 57 1 55 17
M  V30 58 1 18 56 CFG=1
M  V30 59 1 57 19
M  V30 60 1 58 19
M  V30 61 1 59 20
M  V30 62 1 60 20
M  V30 63 1 61 20
M  V30 64 1 62 21
M  V30 65 1 63 21
M  V30 66 1 64 22
M  V30 67 1 65 22
M  V30 68 1 66 22
M  V30 69 1 67 24
M  V30 70 1 68 24
M  V30 71 1 69 24
M  V30 72 1 25 70 CFG=3
M  V30 73 1 71 26
M  V30 74 1 72 27
M  V30 75 1 73 29
M  V30 76 1 31 74 CFG=1
M  V30 77 1 75 34
M  V30 78 1 76 26
M  V30 79 1 33 77 CFG=3
M  V30 END BOND
M  V30 END CTAB
M  END
>  <i_epik_Tot_Q>  (1) 
2

>  <i_epik_Tot_abs_Q>  (1) 
4

>  <i_i_glide_confnum>  (1) 
745

>  <i_i_glide_lignum>  (1) 
44

>  <i_i_glide_posenum>  (1) 
318

>  <i_i_glide_rotatable_bonds>  (1) 
11

>  <i_lp_mmshare_version>  (1) 
72125

>  <i_m_source_file_index>  (1) 
19

>  <i_f3d_flags>  (1) 
0

>  <num_sample>  (1) 
100

>  <b_lp_Chiralities_Consistent>  (1) 
1

>  <r_epik_Charging_Adjusted_Penalty>  (1) 
0.035732071636325656

>  <r_epik_Ionization_Penalty>  (1) 
0.019213783482484162

>  <r_epik_Ionization_Penalty_Charging>  (1) 
0.019186760244236628

>  <r_epik_Ionization_Penalty_Neutral>  (1) 
2.7023238247534635e-05

>  <r_epik_State_Penalty>  (1) 
0.016545311392089028

>  <r_glide_ring_energy>  (1) 
0

>  <r_i_docking_score>  (1) 
-5.7420067903293415

>  <r_i_glide_ecoul>  (1) 
-7.9075465673299909

>  <r_i_glide_eff_state_penalty>  (1) 
0.016545311392089028

>  <r_i_glide_einternal>  (1) 
3.3204987517633562

>  <r_i_glide_emodel>  (1) 
-44.793567384390172

>  <r_i_glide_emodel_strain>  (1) 
5.8044217745180475

>  <r_i_glide_energy>  (1) 
-31.652298119505648

>  <r_i_glide_erotb>  (1) 
0.68654883804919686

>  <r_i_glide_esite>  (1) 
-0.12853804031998592

>  <r_i_glide_evdw>  (1) 
-23.744751552175657

>  <r_i_glide_gscore>  (1) 
-5.7585521017214303

>  <r_i_glide_gscore_strain>  (1) 
0.45110544362951188

>  <r_i_glide_hbond>  (1) 
-0.20000000000000001

>  <r_i_glide_ligand_efficiency>  (1) 
-0.16888255265674534

>  <r_i_glide_ligand_efficiency_ln>  (1) 
-1.2685703578188279

>  <r_i_glide_ligand_efficiency_sa>  (1) 
-0.54711391061665826

>  <r_i_glide_lipo>  (1) 
-2.7866162053445658

>  <r_i_glide_metal>  (1) 
-0

>  <r_i_glide_rewards>  (1) 
-1.4076825750273065

>  <r_lp_Energy>  (1) 
34.808309999999999

>  <s_epik_Chemistry_Notes>  (1) 
This compound has an imine and may undergo hydrolysis.

>  <s_epik_cmdline>  (1) 
J2VwaWtfcHl0aG9uJywgJy1waHQnLCAnMS4wJywgJy1waCcsICc3LjQnLCAnLXRuJywgJzgnLCAnLW1hJywgJzUwMCcsICctaW1hZScsICc8aW5maWxlLm1hZT4nLCAnLW9tYWUnLCAnPG91dGZpbGUubWFlPic=

>  <s_epik_input>  (1) 
W0hdL049QyhcW0NIM10pW05IXWMxW2NIXVtjSF1bY0hdYyhbY0hdMSlbUEBAK10oW0NIM10pKFtDSDJdW0NIM10pTihbQ0gyXVtDSDNdKVtDSDJdW0NASF0yW0NIMl1bQ0BASF0yW05IXUMzPUM9W0NIXVtDSDJdW0NIMl1bQ0BASF0oQyg9TylbT0hdKVtDSDJdW0NAQEhdM1tDSDNd

>  <s_glide_docking_method>  (1) 
confgen

>  <s_i_glide_gridfile>  (1) 
gpcr_5ht2c_6bqh_protein_autoprepared_prepared

>  <s_lp_Force_Field>  (1) 
S-OPLS

>  <s_lp_Variant>  (1) 
DiffSBDD_18-3

>  <s_m_source_file>  (1) 
generated_GPCR_5HT2C_ligand_DiffSBDD_2026-06-23_prepared.sdf

>  <GenAI_Model>  (1) 
DiffSBDD

>  <Protein>  (1) 
GPCR_5HT2C

$$$$
DiffSBDD_25
     RDKit          3D

  0  0  0  0  0  0  0  0  0  0999 V3000
M  V30 BEGIN CTAB
M  V30 COUNTS 68 71 0 0 1
M  V30 BEGIN ATOM
M  V30 1 C 40.684747 34.469068 62.978965 0
M  V30 2 C 40.168789 26.898315 58.116907 0
M  V30 3 O 40.469554 34.103228 61.805568 0 CHG=-1
M  V30 4 C 36.371041 31.274913 60.295510 0
M  V30 5 N 39.331584 31.851841 62.313787 0
M  V30 6 C 40.395409 27.257837 56.638408 0
M  V30 7 C 42.052497 33.984415 65.123501 0
M  V30 8 C 42.842619 31.885418 65.700588 0
M  V30 9 C 37.245094 28.409258 54.565016 0
M  V30 10 C 39.144950 27.239952 55.734470 0
M  V30 11 C 38.298034 28.544086 55.709682 0 CFG=2
M  V30 12 C 42.361485 29.757977 64.414049 0
M  V30 13 O 39.645191 29.439536 54.028012 0
M  V30 14 O 41.154510 30.431148 61.943848 0
M  V30 15 N 38.037979 29.796157 59.417374 0
M  V30 16 C 41.441996 32.056232 63.711214 0
M  V30 17 O 40.378113 35.607533 63.392191 0
M  V30 18 C 38.603066 31.036893 55.355797 0
M  V30 19 C 41.383508 33.488570 63.953505 0
M  V30 20 C 37.620733 28.804182 57.094231 0
M  V30 21 C 38.556045 28.938196 58.327086 0 CFG=2
M  V30 22 C 40.682977 31.376877 62.569655 0
M  V30 23 C 38.999377 30.181985 60.437643 0
M  V30 24 N 42.738639 33.195765 65.973261 0
M  V30 25 C 38.733516 31.465183 53.917989 0
M  V30 26 C 36.761663 30.325994 59.444256 0
M  V30 27 N 42.042229 35.337640 65.432191 0
M  V30 28 N 39.176411 29.684935 55.378927 0
M  V30 29 C 38.954918 27.527429 58.826581 0
M  V30 30 C 38.518612 31.310876 61.353674 0
M  V30 31 C 40.046239 30.530291 51.921060 0
M  V30 32 N 37.252197 31.793334 61.227301 0 CHG=1
M  V30 33 C 39.930003 30.686796 53.442837 0 CFG=2
M  V30 34 C 42.219653 31.264917 64.606418 0
M  V30 35 H 41.072156 27.184036 58.655980 0
M  V30 36 H 40.103497 25.814429 58.214368 0
M  V30 37 H 35.377850 31.700224 60.313600 0
M  V30 38 H 38.929249 32.617717 62.832949 0
M  V30 39 H 40.908954 28.216929 56.571048 0
M  V30 40 H 41.112509 26.538957 56.240025 0
M  V30 41 H 43.428999 31.301826 66.395572 0
M  V30 42 H 36.703427 27.464114 54.568428 0
M  V30 43 H 36.531817 29.232284 54.594993 0
M  V30 44 H 37.672969 28.416887 53.563080 0
M  V30 45 H 39.484281 27.029104 54.719123 0
M  V30 46 H 38.514911 26.390407 56.000620 0
M  V30 47 H 42.893541 29.306745 65.251071 0
M  V30 48 H 41.387759 29.269925 64.354076 0
M  V30 49 H 42.933915 29.529800 63.513847 0
M  V30 50 H 37.568569 31.135984 55.677334 0
M  V30 51 H 39.210460 31.680058 55.993617 0
M  V30 52 H 36.883895 28.042428 57.367737 0
M  V30 53 H 37.022293 29.696827 56.958281 0
M  V30 54 H 39.461902 29.450846 58.003221 0
M  V30 55 H 39.909654 30.490420 59.924328 0
M  V30 56 H 39.213018 29.310352 61.055625 0
M  V30 57 H 38.831366 32.537959 53.806152 0
M  V30 58 H 37.851443 31.136960 53.383791 0
M  V30 59 H 36.089200 29.918638 58.709019 0
M  V30 60 H 41.520406 35.998919 64.858275 0
M  V30 61 H 42.486670 35.697637 66.260516 0
M  V30 62 H 39.182763 27.535712 59.889355 0
M  V30 63 H 38.106521 26.848285 58.742538 0
M  V30 64 H 40.128662 31.497849 51.428278 0
M  V30 65 H 40.914442 29.937174 51.645840 0
M  V30 66 H 39.190195 30.005997 51.504654 0
M  V30 67 H 40.846923 31.094132 53.868613 0
M  V30 68 H 37.023565 32.542804 61.864130 0
M  V30 END ATOM
M  V30 BEGIN BOND
M  V30 1 1 3 1
M  V30 2 1 6 2
M  V30 3 1 10 6
M  V30 4 1 11 9 CFG=3
M  V30 5 1 11 10
M  V30 6 2 17 1
M  V30 7 1 19 1
M  V30 8 2 19 7
M  V30 9 1 19 16
M  V30 10 1 20 11
M  V30 11 1 21 15
M  V30 12 1 21 20
M  V30 13 1 22 5
M  V30 14 2 22 14
M  V30 15 1 22 16
M  V30 16 1 23 15
M  V30 17 1 24 7
M  V30 18 2 24 8
M  V30 19 1 25 18
M  V30 20 2 26 4
M  V30 21 1 26 15
M  V30 22 1 27 7
M  V30 23 1 28 11
M  V30 24 1 28 13
M  V30 25 1 28 18
M  V30 26 1 29 2
M  V30 27 1 29 21
M  V30 28 1 30 5
M  V30 29 1 30 23
M  V30 30 1 32 4
M  V30 31 2 32 30
M  V30 32 1 33 13
M  V30 33 1 33 25
M  V30 34 1 33 31
M  V30 35 1 34 8
M  V30 36 1 34 12
M  V30 37 2 34 16
M  V30 38 1 35 2
M  V30 39 1 36 2
M  V30 40 1 37 4
M  V30 41 1 38 5
M  V30 42 1 39 6
M  V30 43 1 40 6
M  V30 44 1 41 8
M  V30 45 1 42 9
M  V30 46 1 43 9
M  V30 47 1 44 9
M  V30 48 1 45 10
M  V30 49 1 46 10
M  V30 50 1 47 12
M  V30 51 1 48 12
M  V30 52 1 49 12
M  V30 53 1 50 18
M  V30 54 1 51 18
M  V30 55 1 52 20
M  V30 56 1 53 20
M  V30 57 1 21 54 CFG=3
M  V30 58 1 55 23
M  V30 59 1 56 23
M  V30 60 1 57 25
M  V30 61 1 58 25
M  V30 62 1 59 26
M  V30 63 1 60 27
M  V30 64 1 61 27
M  V30 65 1 62 29
M  V30 66 1 63 29
M  V30 67 1 64 31
M  V30 68 1 65 31
M  V30 69 1 66 31
M  V30 70 1 33 67 CFG=1
M  V30 71 1 68 32
M  V30 END BOND
M  V30 END CTAB
M  END
>  <i_epik_Tot_Q>  (1) 
0

>  <i_epik_Tot_abs_Q>  (1) 
2

>  <i_i_glide_confnum>  (1) 
167

>  <i_i_glide_lignum>  (1) 
65

>  <i_i_glide_posenum>  (1) 
132

>  <i_i_glide_rotatable_bonds>  (1) 
6

>  <i_lp_mmshare_version>  (1) 
72125

>  <i_m_source_file_index>  (1) 
26

>  <i_f3d_flags>  (1) 
0

>  <num_sample>  (1) 
100

>  <b_lp_Chiralities_Consistent>  (1) 
1

>  <r_epik_Charging_Adjusted_Penalty>  (1) 
2.0881109960433539

>  <r_epik_Ionization_Penalty>  (1) 
0.85183889184377526

>  <r_epik_Ionization_Penalty_Charging>  (1) 
0.8304268618792634

>  <r_epik_Ionization_Penalty_Neutral>  (1) 
0.02141202996451182

>  <r_epik_State_Penalty>  (1) 
1.2576841341640903

>  <r_glide_ring_energy>  (1) 
0.21033026237355121

>  <r_i_docking_score>  (1) 
-5.7418682800913849

>  <r_i_glide_ecoul>  (1) 
-3.9635159963583573

>  <r_i_glide_eff_state_penalty>  (1) 
1.2576841341640903

>  <r_i_glide_einternal>  (1) 
7.2838793652345544

>  <r_i_glide_emodel>  (1) 
-53.678828195318644

>  <r_i_glide_emodel_strain>  (1) 
1.1108643800633899

>  <r_i_glide_energy>  (1) 
-41.386509852602849

>  <r_i_glide_erotb>  (1) 
0.45623875647966866

>  <r_i_glide_esite>  (1) 
-0.010089136527352667

>  <r_i_glide_evdw>  (1) 
-37.422993856244489

>  <r_i_glide_gscore>  (1) 
-6.9995524142554757

>  <r_i_glide_gscore_strain>  (1) 
0

>  <r_i_glide_hbond>  (1) 
-0.32000000000000001

>  <r_i_glide_ligand_efficiency>  (1) 
-0.1688784788262172

>  <r_i_glide_ligand_efficiency_ln>  (1) 
-1.2685397570221826

>  <r_i_glide_ligand_efficiency_sa>  (1) 
-0.54710071298720286

>  <r_i_glide_lipo>  (1) 
-2.8634045326783748

>  <r_i_glide_metal>  (1) 
-0

>  <r_i_glide_rewards>  (1) 
-1.796620409263439

>  <r_lp_Energy>  (1) 
63.998362

>  <s_epik_Chemistry_Notes>  (1) 
This compound has an imine and may undergo hydrolysis. This compound has a N-S or N-O group and may undergo hydrolysis at high or low pH.

>  <s_epik_cmdline>  (1) 
J2VwaWtfcHl0aG9uJywgJy1waHQnLCAnMS4wJywgJy1waCcsICc3LjQnLCAnLXRuJywgJzgnLCAnLW1hJywgJzUwMCcsICctaW1hZScsICc8aW5maWxlLm1hZT4nLCAnLW9tYWUnLCAnPG91dGZpbGUubWFlPic=

>  <s_epik_input>  (1) 
W09IXUMoPU8pYyhjMVtOSDJdKWMoYyhbY0hdbjEpW0NIM10pQyg9TylbTkhdQyg9TltDSF09W0NIXTIpW0NIMl1OMltDQEhdKFtDSDJdMylbQ0gyXVtDSDJdW0NIMl1bQ0gyXVtDQF0zKFtDSDNdKU40T1tDQEBIXShbQ0gzXSlbQ0gyXVtDSDJdNA==

>  <s_glide_docking_method>  (1) 
confgen

>  <s_i_glide_gridfile>  (1) 
gpcr_5ht2c_6bqh_protein_autoprepared_prepared

>  <s_lp_Force_Field>  (1) 
S-OPLS

>  <s_lp_Variant>  (1) 
DiffSBDD_25-5

>  <s_m_source_file>  (1) 
generated_GPCR_5HT2C_ligand_DiffSBDD_2026-06-23_prepared.sdf

>  <GenAI_Model>  (1) 
DiffSBDD

>  <Protein>  (1) 
GPCR_5HT2C

$$$$
DiffSBDD_83
     RDKit          3D

  0  0  0  0  0  0  0  0  0  0999 V3000
M  V30 BEGIN CTAB
M  V30 COUNTS 54 55 0 0 1
M  V30 BEGIN ATOM
M  V30 1 C 38.028275 36.848526 60.967030 0
M  V30 2 C 38.213613 28.810370 58.834414 0
M  V30 3 N 37.121281 29.184832 58.167961 0
M  V30 4 O 38.340411 27.827185 53.514397 0
M  V30 5 O 37.301328 37.847345 60.452290 0
M  V30 6 C 38.538825 34.464245 60.446313 0
M  V30 7 C 39.522990 34.324972 61.602624 0
M  V30 8 C 38.857572 29.930860 53.994357 0
M  V30 9 C 37.680635 24.376016 57.607989 0
M  V30 10 C 37.865877 35.609166 60.167064 0
M  V30 11 C 38.842135 27.472569 58.543142 0
M  V30 12 C 37.578834 32.112720 60.321831 0
M  V30 13 N 36.848796 30.398269 58.658614 0
M  V30 14 O 37.645144 39.163146 60.967737 0
M  V30 15 C 38.473148 27.327279 55.923174 0 CFG=1
M  V30 16 C 38.911834 24.932946 55.017126 0
M  V30 17 C 38.241334 29.117114 53.208617 0
M  V30 18 O 38.746178 36.962903 61.962721 0
M  V30 19 C 39.180065 27.936250 54.697770 0 CFG=2
M  V30 20 C 38.623349 29.796417 59.789735 0
M  V30 21 O 39.505549 29.326315 54.991088 0
M  V30 22 C 36.969644 25.322701 56.630934 0
M  V30 23 C 37.874404 25.937452 55.546222 0 CFG=1
M  V30 24 C 37.710408 30.797970 59.637004 0
M  V30 25 Cl 38.845141 31.639812 53.783142 0
M  V30 26 C 38.355163 33.219466 59.599132 0
M  V30 27 C 39.462551 27.359533 57.131246 0
M  V30 28 H 36.078795 30.958709 58.289434 0
M  V30 29 H 39.931218 33.314931 61.652278 0
M  V30 30 H 40.368814 35.003042 61.483566 0
M  V30 31 H 39.032395 34.514734 62.555044 0
M  V30 32 H 37.197777 24.432121 58.567780 0
M  V30 33 H 37.627295 23.338320 57.286682 0
M  V30 34 H 38.726590 24.629932 57.768190 0
M  V30 35 H 37.185012 35.642541 59.329673 0
M  V30 36 H 39.636701 27.299805 59.270440 0
M  V30 37 H 38.119630 26.685750 58.730085 0
M  V30 38 H 37.941657 32.002456 61.343730 0
M  V30 39 H 36.527713 32.391779 60.406605 0
M  V30 40 H 36.995238 39.255612 61.647355 0
M  V30 41 H 37.645297 27.998811 56.103545 0
M  V30 42 H 39.661211 24.653948 55.756425 0
M  V30 43 H 38.417454 24.024250 54.676430 0
M  V30 44 H 39.450611 25.337024 54.167815 0
M  V30 45 H 37.649687 29.336373 52.334852 0
M  V30 46 H 40.083760 27.373557 54.503145 0
M  V30 47 H 39.459862 29.769349 60.472773 0
M  V30 48 H 36.479492 26.125728 57.182204 0
M  V30 49 H 36.155624 24.770760 56.158473 0
M  V30 50 H 37.190080 26.121532 54.717799 0
M  V30 51 H 37.852624 33.461595 58.661360 0
M  V30 52 H 39.347623 32.864138 59.324228 0
M  V30 53 H 40.147478 28.201658 57.034824 0
M  V30 54 H 40.107325 26.481070 57.092371 0
M  V30 END ATOM
M  V30 BEGIN BOND
M  V30 1 2 3 2
M  V30 2 1 5 1
M  V30 3 1 7 6
M  V30 4 1 10 1
M  V30 5 2 10 6
M  V30 6 1 11 2
M  V30 7 1 13 3
M  V30 8 1 14 5
M  V30 9 1 17 4
M  V30 10 2 17 8
M  V30 11 2 18 1
M  V30 12 1 19 4
M  V30 13 1 19 15
M  V30 14 1 20 2
M  V30 15 1 21 8
M  V30 16 1 21 19
M  V30 17 1 22 9
M  V30 18 1 23 15
M  V30 19 1 23 16
M  V30 20 1 23 22
M  V30 21 1 24 12
M  V30 22 1 24 13
M  V30 23 2 24 20
M  V30 24 1 25 8
M  V30 25 1 26 6
M  V30 26 1 26 12
M  V30 27 1 27 11
M  V30 28 1 27 15
M  V30 29 1 28 13
M  V30 30 1 29 7
M  V30 31 1 30 7
M  V30 32 1 31 7
M  V30 33 1 32 9
M  V30 34 1 33 9
M  V30 35 1 34 9
M  V30 36 1 35 10
M  V30 37 1 36 11
M  V30 38 1 37 11
M  V30 39 1 38 12
M  V30 40 1 39 12
M  V30 41 1 40 14
M  V30 42 1 15 41 CFG=1
M  V30 43 1 42 16
M  V30 44 1 43 16
M  V30 45 1 44 16
M  V30 46 1 45 17
M  V30 47 1 19 46 CFG=3
M  V30 48 1 47 20
M  V30 49 1 48 22
M  V30 50 1 49 22
M  V30 51 1 23 50 CFG=3
M  V30 52 1 51 26
M  V30 53 1 52 26
M  V30 54 1 53 27
M  V30 55 1 54 27
M  V30 END BOND
M  V30 END CTAB
M  END
>  <i_epik_Tot_Q>  (1) 
0

>  <i_epik_Tot_abs_Q>  (1) 
0

>  <i_i_glide_confnum>  (1) 
462

>  <i_i_glide_lignum>  (1) 
197

>  <i_i_glide_posenum>  (1) 
189

>  <i_i_glide_rotatable_bonds>  (1) 
12

>  <i_lp_mmshare_version>  (1) 
72125

>  <i_m_source_file_index>  (1) 
84

>  <i_f3d_flags>  (1) 
0

>  <num_sample>  (1) 
100

>  <b_lp_Chiralities_Consistent>  (1) 
1

>  <r_epik_Charging_Adjusted_Penalty>  (1) 
0.41067983895260396

>  <r_epik_Ionization_Penalty>  (1) 
0.00090540554532319911

>  <r_epik_Ionization_Penalty_Charging>  (1) 
0

>  <r_epik_Ionization_Penalty_Neutral>  (1) 
0.00090540554532319911

>  <r_epik_State_Penalty>  (1) 
0.41067983895260396

>  <r_glide_ring_energy>  (1) 
0

>  <r_i_docking_score>  (1) 
-5.7367815115978376

>  <r_i_glide_ecoul>  (1) 
-2.8987053868899371

>  <r_i_glide_eff_state_penalty>  (1) 
0.41067983895260396

>  <r_i_glide_einternal>  (1) 
5.9373349451063948

>  <r_i_glide_emodel>  (1) 
-49.05595401845347

>  <r_i_glide_emodel_strain>  (1) 
0.79488896226202144

>  <r_i_glide_energy>  (1) 
-37.720429244120034

>  <r_i_glide_erotb>  (1) 
1.1080255732668134

>  <r_i_glide_esite>  (1) 
-0.10000000000000001

>  <r_i_glide_evdw>  (1) 
-34.821723857230097

>  <r_i_glide_gscore>  (1) 
-6.1474613505504418

>  <r_i_glide_gscore_strain>  (1) 
0

>  <r_i_glide_hbond>  (1) 
-0.16

>  <r_i_glide_ligand_efficiency>  (1) 
-0.21247338931843843

>  <r_i_glide_ligand_efficiency_ln>  (1) 
-1.3354281576650673

>  <r_i_glide_ligand_efficiency_sa>  (1) 
-0.63742016795531542

>  <r_i_glide_lipo>  (1) 
-3.2044877740205076

>  <r_i_glide_metal>  (1) 
-0

>  <r_i_glide_rewards>  (1) 
-1.6151071489017519

>  <r_lp_Energy>  (1) 
14.495433999999999

>  <r_lp_tautomer_probability>  (1) 
0.5

>  <s_epik_Chemistry_Notes>  (1) 
This compound contains an acetal/aminal-like group ( X-CH(R)-Y where X, Y are N, S, or O) that may be acid/base labile, releasing an aldehyde.

>  <s_epik_cmdline>  (1) 
J2VwaWtfcHl0aG9uJywgJy1waHQnLCAnMS4wJywgJy1waCcsICc3LjQnLCAnLXRuJywgJzgnLCAnLW1hJywgJzUwMCcsICctaW1hZScsICc8aW5maWxlLm1hZT4nLCAnLW9tYWUnLCAnPG91dGZpbGUubWFlPic=

>  <s_epik_input>  (1) 
W09IXU9DKD1PKS9bQ0hdPUMoXFtDSDNdKVtDSDJdW0NIMl1jKFtjSF0xKW5bbkhdYzFbQ0gyXVtDSDJdW0NASF0oW0NAQEhdKFtDSDNdKVtDSDJdW0NIM10pW0NAQEhdKE8yKU9bQ0hdPUMyQ2w=

>  <s_glide_docking_method>  (1) 
confgen

>  <s_i_glide_gridfile>  (1) 
gpcr_5ht2c_6bqh_protein_autoprepared_prepared

>  <s_lp_Force_Field>  (1) 
S-OPLS

>  <s_lp_Variant>  (1) 
DiffSBDD_83-8

>  <s_m_source_file>  (1) 
generated_GPCR_5HT2C_ligand_DiffSBDD_2026-06-23_prepared.sdf

>  <GenAI_Model>  (1) 
DiffSBDD

>  <Protein>  (1) 
GPCR_5HT2C

$$$$
DiffSBDD_25
     RDKit          3D

  0  0  0  0  0  0  0  0  0  0999 V3000
M  V30 BEGIN CTAB
M  V30 COUNTS 68 71 0 0 1
M  V30 BEGIN ATOM
M  V30 1 C 40.520202 34.573079 62.966225 0
M  V30 2 C 39.183270 30.711458 55.654940 0
M  V30 3 O 40.274649 35.707184 63.429990 0 CHG=-1
M  V30 4 C 36.052912 31.516371 60.367603 0
M  V30 5 N 39.094844 31.964401 62.298490 0
M  V30 6 C 38.880918 29.347682 55.029235 0
M  V30 7 C 42.010972 33.994367 65.003987 0
M  V30 8 C 42.792644 31.862094 65.464184 0
M  V30 9 C 40.446206 26.523816 57.250300 0
M  V30 10 C 39.787663 28.238683 55.585720 0
M  V30 11 C 39.371794 27.591297 56.929111 0 CFG=2
M  V30 12 C 42.201268 29.788567 64.135077 0
M  V30 13 O 37.977697 26.190371 55.583706 0
M  V30 14 O 40.915828 30.614851 61.713345 0
M  V30 15 N 37.729341 30.273362 59.212761 0
M  V30 16 C 41.288073 32.125892 63.563020 0
M  V30 17 O 40.207187 34.244390 61.804184 0
M  V30 18 C 37.636375 26.046741 57.876994 0
M  V30 19 C 41.264447 33.549337 63.860356 0
M  V30 20 C 39.301722 28.642145 58.077126 0
M  V30 21 C 38.208221 29.743292 57.931700 0 CFG=2
M  V30 22 C 40.468417 31.505002 62.432553 0
M  V30 23 C 38.725507 30.538578 60.238529 0
M  V30 24 N 42.731143 33.165256 65.785089 0
M  V30 25 C 37.532825 24.698544 57.199324 0
M  V30 26 C 36.445595 30.726557 59.367833 0
M  V30 27 N 42.045040 35.337813 65.356283 0
M  V30 28 N 38.043074 26.964701 56.813896 0
M  V30 29 C 38.584135 30.958363 57.046379 0
M  V30 30 C 38.249191 31.509193 61.322905 0
M  V30 31 C 37.076222 24.100727 54.741398 0
M  V30 32 N 36.957364 31.939485 61.326723 0 CHG=1
M  V30 33 C 37.053728 25.151437 55.840508 0 CFG=2
M  V30 34 C 42.098560 31.290506 64.385787 0
M  V30 35 H 38.813620 31.493698 54.990103 0
M  V30 36 H 40.260954 30.865651 55.685900 0
M  V30 37 H 35.046650 31.892495 60.483327 0
M  V30 38 H 38.704637 32.663793 62.911238 0
M  V30 39 H 37.823799 29.091571 55.108477 0
M  V30 40 H 39.083069 29.429787 53.960916 0
M  V30 41 H 43.404830 31.244729 66.104972 0
M  V30 42 H 41.445007 26.960973 57.252877 0
M  V30 43 H 40.320824 26.057232 58.225396 0
M  V30 44 H 40.445078 25.728588 56.504165 0
M  V30 45 H 39.885608 27.463355 54.824701 0
M  V30 46 H 40.795255 28.639327 55.702071 0
M  V30 47 H 42.733064 29.297805 64.950684 0
M  V30 48 H 41.217007 29.322547 64.071293 0
M  V30 49 H 42.758871 29.580365 63.221568 0
M  V30 50 H 38.258129 26.046270 58.770299 0
M  V30 51 H 36.635451 26.356079 58.167718 0
M  V30 52 H 40.276850 29.116111 58.200455 0
M  V30 53 H 39.129509 28.099414 59.006091 0
M  V30 54 H 37.336343 29.277190 57.473234 0
M  V30 55 H 39.614348 30.942144 59.757755 0
M  V30 56 H 38.976252 29.585823 60.705562 0
M  V30 57 H 36.845158 24.021265 57.701503 0
M  V30 58 H 38.509208 24.215902 57.134447 0
M  V30 59 H 35.768900 30.409593 58.585503 0
M  V30 60 H 41.516775 36.029803 64.825389 0
M  V30 61 H 42.554830 35.664205 66.160590 0
M  V30 62 H 37.670156 31.537186 56.898628 0
M  V30 63 H 39.245146 31.633602 57.586502 0
M  V30 64 H 36.444461 23.249847 54.993765 0
M  V30 65 H 36.705144 24.537860 53.813626 0
M  V30 66 H 38.085915 23.737749 54.567759 0
M  V30 67 H 36.047115 25.566915 55.919438 0
M  V30 68 H 36.731008 32.580802 62.072418 0
M  V30 END ATOM
M  V30 BEGIN BOND
M  V30 1 1 3 1
M  V30 2 1 6 2
M  V30 3 1 10 6
M  V30 4 1 11 9 CFG=1
M  V30 5 1 11 10
M  V30 6 2 17 1
M  V30 7 1 19 1
M  V30 8 2 19 7
M  V30 9 1 19 16
M  V30 10 1 20 11
M  V30 11 1 21 15
M  V30 12 1 21 20
M  V30 13 1 22 5
M  V30 14 2 22 14
M  V30 15 1 22 16
M  V30 16 1 23 15
M  V30 17 1 24 7
M  V30 18 2 24 8
M  V30 19 1 25 18
M  V30 20 2 26 4
M  V30 21 1 26 15
M  V30 22 1 27 7
M  V30 23 1 28 11
M  V30 24 1 28 13
M  V30 25 1 28 18
M  V30 26 1 29 2
M  V30 27 1 29 21
M  V30 28 1 30 5
M  V30 29 1 30 23
M  V30 30 1 32 4
M  V30 31 2 32 30
M  V30 32 1 33 13
M  V30 33 1 33 25
M  V30 34 1 33 31
M  V30 35 1 34 8
M  V30 36 1 34 12
M  V30 37 2 34 16
M  V30 38 1 35 2
M  V30 39 1 36 2
M  V30 40 1 37 4
M  V30 41 1 38 5
M  V30 42 1 39 6
M  V30 43 1 40 6
M  V30 44 1 41 8
M  V30 45 1 42 9
M  V30 46 1 43 9
M  V30 47 1 44 9
M  V30 48 1 45 10
M  V30 49 1 46 10
M  V30 50 1 47 12
M  V30 51 1 48 12
M  V30 52 1 49 12
M  V30 53 1 50 18
M  V30 54 1 51 18
M  V30 55 1 52 20
M  V30 56 1 53 20
M  V30 57 1 21 54 CFG=3
M  V30 58 1 55 23
M  V30 59 1 56 23
M  V30 60 1 57 25
M  V30 61 1 58 25
M  V30 62 1 59 26
M  V30 63 1 60 27
M  V30 64 1 61 27
M  V30 65 1 62 29
M  V30 66 1 63 29
M  V30 67 1 64 31
M  V30 68 1 65 31
M  V30 69 1 66 31
M  V30 70 1 33 67 CFG=1
M  V30 71 1 68 32
M  V30 END BOND
M  V30 END CTAB
M  END
>  <i_epik_Tot_Q>  (1) 
0

>  <i_epik_Tot_abs_Q>  (1) 
2

>  <i_i_glide_confnum>  (1) 
267

>  <i_i_glide_lignum>  (1) 
65

>  <i_i_glide_posenum>  (1) 
224

>  <i_i_glide_rotatable_bonds>  (1) 
6

>  <i_lp_mmshare_version>  (1) 
72125

>  <i_m_source_file_index>  (1) 
26

>  <i_f3d_flags>  (1) 
0

>  <num_sample>  (1) 
100

>  <b_lp_Chiralities_Consistent>  (1) 
1

>  <r_epik_Charging_Adjusted_Penalty>  (1) 
2.0881109960433539

>  <r_epik_Ionization_Penalty>  (1) 
0.85183889184377526

>  <r_epik_Ionization_Penalty_Charging>  (1) 
0.8304268618792634

>  <r_epik_Ionization_Penalty_Neutral>  (1) 
0.02141202996451182

>  <r_epik_State_Penalty>  (1) 
1.2576841341640903

>  <r_glide_ring_energy>  (1) 
0.32687530329123604

>  <r_i_docking_score>  (1) 
-5.7309900794578024

>  <r_i_glide_ecoul>  (1) 
-2.1022920994792145

>  <r_i_glide_eff_state_penalty>  (1) 
1.2576841341640903

>  <r_i_glide_einternal>  (1) 
13.209133904106473

>  <r_i_glide_emodel>  (1) 
-54.545635992012279

>  <r_i_glide_emodel_strain>  (1) 
0.72757970535886329

>  <r_i_glide_energy>  (1) 
-44.859150546603871

>  <r_i_glide_erotb>  (1) 
0.45623875647966866

>  <r_i_glide_esite>  (1) 
-0.050074001973547146

>  <r_i_glide_evdw>  (1) 
-42.756858447124657

>  <r_i_glide_gscore>  (1) 
-6.9886742136218922

>  <r_i_glide_gscore_strain>  (1) 
0

>  <r_i_glide_hbond>  (1) 
-0.33112122660305893

>  <r_i_glide_ligand_efficiency>  (1) 
-0.1685585317487589

>  <r_i_glide_ligand_efficiency_ln>  (1) 
-1.2661364573790317

>  <r_i_glide_ligand_efficiency_sa>  (1) 
-0.54606420865928473

>  <r_i_glide_lipo>  (1) 
-3.1236880805751999

>  <r_i_glide_metal>  (1) 
-0

>  <r_i_glide_rewards>  (1) 
-1.4868429236716398

>  <r_lp_Energy>  (1) 
63.998362

>  <s_epik_Chemistry_Notes>  (1) 
This compound has an imine and may undergo hydrolysis. This compound has a N-S or N-O group and may undergo hydrolysis at high or low pH.

>  <s_epik_cmdline>  (1) 
J2VwaWtfcHl0aG9uJywgJy1waHQnLCAnMS4wJywgJy1waCcsICc3LjQnLCAnLXRuJywgJzgnLCAnLW1hJywgJzUwMCcsICctaW1hZScsICc8aW5maWxlLm1hZT4nLCAnLW9tYWUnLCAnPG91dGZpbGUubWFlPic=

>  <s_epik_input>  (1) 
W09IXUMoPU8pYyhjMVtOSDJdKWMoYyhbY0hdbjEpW0NIM10pQyg9TylbTkhdQyg9TltDSF09W0NIXTIpW0NIMl1OMltDQEhdKFtDSDJdMylbQ0gyXVtDSDJdW0NIMl1bQ0gyXVtDQF0zKFtDSDNdKU40T1tDQEBIXShbQ0gzXSlbQ0gyXVtDSDJdNA==

>  <s_glide_docking_method>  (1) 
confgen

>  <s_i_glide_gridfile>  (1) 
gpcr_5ht2c_6bqh_protein_autoprepared_prepared

>  <s_lp_Force_Field>  (1) 
S-OPLS

>  <s_lp_Variant>  (1) 
DiffSBDD_25-5

>  <s_m_source_file>  (1) 
generated_GPCR_5HT2C_ligand_DiffSBDD_2026-06-23_prepared.sdf

>  <GenAI_Model>  (1) 
DiffSBDD

>  <Protein>  (1) 
GPCR_5HT2C

$$$$
DiffSBDD_88
     RDKit          3D

  0  0  0  0  0  0  0  0  0  0999 V3000
M  V30 BEGIN CTAB
M  V30 COUNTS 46 47 0 0 1
M  V30 BEGIN ATOM
M  V30 1 C 39.291018 29.846468 54.682004 0
M  V30 2 O 38.251297 24.677133 56.598365 0
M  V30 3 O 38.617578 32.439858 62.172682 0
M  V30 4 C 38.005419 27.844286 53.168932 0
M  V30 5 C 39.973307 27.775589 57.287687 0
M  V30 6 C 40.360550 35.233345 61.597967 0
M  V30 7 C 38.607554 28.937732 52.521519 0
M  V30 8 C 39.966230 26.300825 56.820037 0
M  V30 9 C 38.276074 32.056536 58.188420 0 CFG=1
M  V30 10 C 36.811011 30.021712 58.770059 0
M  V30 11 C 39.291811 33.202624 61.483040 0
M  V30 12 C 38.786025 25.504971 57.367799 0
M  V30 13 C 37.251160 33.190435 58.357518 0
M  V30 14 C 39.246295 29.941376 53.277703 0
M  V30 15 C 38.045113 27.748842 54.572329 0
M  V30 16 C 39.043578 33.283544 59.961448 0 CFG=1
M  V30 17 C 38.692832 28.747634 55.333033 0
M  V30 18 O 38.845132 31.964104 59.482732 0
M  V30 19 C 38.760439 28.625439 56.852122 0 CFG=2
M  V30 20 C 37.729199 33.968926 59.576417 0
M  V30 21 N 40.327862 34.008547 61.944401 0
M  V30 22 C 37.754785 30.672231 57.733983 0 CFG=2
M  V30 23 O 38.921671 29.876502 57.520903 0
M  V30 24 O 38.445119 25.737742 58.546690 0 CHG=-1
M  V30 25 H 39.787859 30.613098 55.259162 0
M  V30 26 H 37.514823 27.075825 52.589006 0
M  V30 27 H 40.888680 28.249471 56.930895 0
M  V30 28 H 40.041658 27.796729 58.376817 0
M  V30 29 H 41.183210 35.876997 61.920771 0
M  V30 30 H 39.571162 35.666432 60.976095 0
M  V30 31 H 38.577493 29.010079 51.444444 0
M  V30 32 H 40.013334 26.221094 55.734300 0
M  V30 33 H 40.845135 25.802840 57.208784 0
M  V30 34 H 39.051552 32.393420 57.497500 0
M  V30 35 H 35.976476 30.675187 59.016783 0
M  V30 36 H 36.367343 29.099130 58.400549 0
M  V30 37 H 37.338203 29.792413 59.696074 0
M  V30 38 H 37.193736 33.804608 57.458454 0
M  V30 39 H 36.249645 32.826931 58.567763 0
M  V30 40 H 39.705431 30.782481 52.779175 0
M  V30 41 H 37.585727 26.905469 55.067208 0
M  V30 42 H 39.881675 33.714407 59.412816 0
M  V30 43 H 37.854207 28.131229 57.194524 0
M  V30 44 H 36.989249 33.889876 60.374972 0
M  V30 45 H 37.861092 35.028330 59.367764 0
M  V30 46 H 37.245158 30.784508 56.777787 0
M  V30 END ATOM
M  V30 BEGIN BOND
M  V30 1 2 7 4
M  V30 2 1 8 5
M  V30 3 2 11 3
M  V30 4 2 12 2
M  V30 5 1 12 8
M  V30 6 1 13 9
M  V30 7 2 14 1
M  V30 8 1 14 7
M  V30 9 1 15 4
M  V30 10 1 16 11
M  V30 11 1 17 1
M  V30 12 2 17 15
M  V30 13 1 18 9
M  V30 14 1 18 16
M  V30 15 1 19 5
M  V30 16 1 19 17
M  V30 17 1 20 13
M  V30 18 1 20 16
M  V30 19 2 21 6
M  V30 20 1 21 11
M  V30 21 1 22 9
M  V30 22 1 22 10
M  V30 23 1 23 19
M  V30 24 1 23 22
M  V30 25 1 24 12
M  V30 26 1 25 1
M  V30 27 1 26 4
M  V30 28 1 27 5
M  V30 29 1 28 5
M  V30 30 1 29 6
M  V30 31 1 30 6
M  V30 32 1 31 7
M  V30 33 1 32 8
M  V30 34 1 33 8
M  V30 35 1 9 34 CFG=3
M  V30 36 1 35 10
M  V30 37 1 36 10
M  V30 38 1 37 10
M  V30 39 1 38 13
M  V30 40 1 39 13
M  V30 41 1 40 14
M  V30 42 1 41 15
M  V30 43 1 16 42 CFG=3
M  V30 44 1 19 43 CFG=1
M  V30 45 1 44 20
M  V30 46 1 45 20
M  V30 47 1 22 46 CFG=3
M  V30 END BOND
M  V30 END CTAB
M  END
>  <i_epik_Tot_Q>  (1) 
-1

>  <i_epik_Tot_abs_Q>  (1) 
1

>  <i_i_glide_confnum>  (1) 
845

>  <i_i_glide_lignum>  (1) 
208

>  <i_i_glide_posenum>  (1) 
188

>  <i_i_glide_rotatable_bonds>  (1) 
9

>  <i_lp_mmshare_version>  (1) 
72125

>  <i_m_source_file_index>  (1) 
89

>  <i_f3d_flags>  (1) 
0

>  <num_sample>  (1) 
100

>  <b_lp_Chiralities_Consistent>  (1) 
1

>  <r_epik_Charging_Adjusted_Penalty>  (1) 
0.00097316561850613933

>  <r_epik_Ionization_Penalty>  (1) 
0.00097316561914866995

>  <r_epik_Ionization_Penalty_Charging>  (1) 
0.00097316561850613933

>  <r_epik_Ionization_Penalty_Neutral>  (1) 
6.4253058124533643e-13

>  <r_epik_State_Penalty>  (1) 
-0

>  <r_glide_ring_energy>  (1) 
0

>  <r_i_docking_score>  (1) 
-5.7252968207216126

>  <r_i_glide_ecoul>  (1) 
-3.6359460528430145

>  <r_i_glide_eff_state_penalty>  (1) 
-0

>  <r_i_glide_einternal>  (1) 
8.7550302817372199

>  <r_i_glide_emodel>  (1) 
-48.581918348665141

>  <r_i_glide_emodel_strain>  (1) 
0.32625556412179435

>  <r_i_glide_energy>  (1) 
-38.152959551806518

>  <r_i_glide_erotb>  (1) 
1.1933401275703905

>  <r_i_glide_esite>  (1) 
0

>  <r_i_glide_evdw>  (1) 
-34.5170134989635

>  <r_i_glide_gscore>  (1) 
-5.7252968207216126

>  <r_i_glide_gscore_strain>  (1) 
0

>  <r_i_glide_hbond>  (1) 
0

>  <r_i_glide_ligand_efficiency>  (1) 
-0.23855403419673385

>  <r_i_glide_ligand_efficiency_ln>  (1) 
-1.3703262459509322

>  <r_i_glide_ligand_efficiency_sa>  (1) 
-0.68810890663067648

>  <r_i_glide_lipo>  (1) 
-2.064034177633125

>  <r_i_glide_metal>  (1) 
-0

>  <r_i_glide_rewards>  (1) 
-2.5833601877842516

>  <r_lp_Energy>  (1) 
7.8123529999999999

>  <r_lp_tautomer_probability>  (1) 
1

>  <s_epik_Chemistry_Notes>  (1) 
This compound has an imine and may undergo hydrolysis.

>  <s_epik_cmdline>  (1) 
J2VwaWtfcHl0aG9uJywgJy1waHQnLCAnMS4wJywgJy1waCcsICc3LjQnLCAnLXRuJywgJzgnLCAnLW1hJywgJzUwMCcsICctaW1hZScsICc8aW5maWxlLm1hZT4nLCAnLW9tYWUnLCAnPG91dGZpbGUubWFlPic=

>  <s_epik_input>  (1) 
W2NIXTFbY0hdW2NIXVtjSF1bY0hdYzFbQ0BASF0oW0NIMl1bQ0gyXUMoPU8pW09IXSlPW0NAQEhdKFtDSDNdKVtDQEhdMltDSDJdW0NIMl1bQ0BIXShPMilDKD1PKU49W0NIMl0=

>  <s_glide_docking_method>  (1) 
confgen

>  <s_i_glide_gridfile>  (1) 
gpcr_5ht2c_6bqh_protein_autoprepared_prepared

>  <s_lp_Force_Field>  (1) 
S-OPLS

>  <s_lp_Variant>  (1) 
DiffSBDD_88-1

>  <s_m_source_file>  (1) 
generated_GPCR_5HT2C_ligand_DiffSBDD_2026-06-23_prepared.sdf

>  <GenAI_Model>  (1) 
DiffSBDD

>  <Protein>  (1) 
GPCR_5HT2C

$$$$
DiffSBDD_73
     RDKit          3D

  0  0  0  0  0  0  0  0  0  0999 V3000
M  V30 BEGIN CTAB
M  V30 COUNTS 65 66 0 0 1
M  V30 BEGIN ATOM
M  V30 1 C 39.426847 27.355129 57.451539 0 CFG=1
M  V30 2 C 38.479362 32.010505 57.158730 0
M  V30 3 N 38.552527 35.124084 60.762120 0
M  V30 4 C 39.234170 29.160066 54.038251 0
M  V30 5 C 39.259434 28.832134 55.366702 0
M  V30 6 C 38.445204 28.030456 58.394809 0
M  V30 7 C 39.337159 35.389986 61.966707 0 CFG=2
M  V30 8 N 36.845063 32.478038 58.967760 0 CHG=1
M  V30 9 O 37.575696 33.207557 61.510614 0
M  V30 10 C 41.487333 28.033641 58.987808 0
M  V30 11 C 37.017600 33.908089 59.295151 0 CFG=2
M  V30 12 C 39.174863 26.767006 53.045348 0
M  V30 13 C 39.046039 28.240531 52.844571 0 CFG=1
M  V30 14 C 37.746206 34.057646 60.635147 0
M  V30 15 O 38.653507 29.433196 58.395778 0
M  V30 16 C 39.449169 36.961061 63.998525 0
M  V30 17 C 39.053990 27.497487 56.012035 0
M  V30 18 C 38.062467 26.362920 53.968691 0
M  V30 19 C 38.056614 31.717349 58.611408 0 CFG=1
M  V30 20 C 40.908811 27.321705 57.785272 0 CFG=1
M  V30 21 O 37.845193 28.537754 52.167758 0
M  V30 22 C 38.710105 36.583451 62.711234 0
M  V30 23 C 37.682773 30.240434 58.831450 0
M  V30 24 O 36.638460 29.860740 59.367393 0
M  V30 25 C 35.643231 34.589006 59.365883 0
M  V30 26 C 38.531106 26.417983 55.377031 0
M  V30 27 C 40.801233 35.631430 61.560432 0
M  V30 28 C 40.079739 26.075391 57.949426 0
M  V30 29 H 39.460798 31.589731 56.947207 0
M  V30 30 H 37.766114 31.603504 56.439382 0
M  V30 31 H 38.563334 33.078840 56.964538 0
M  V30 32 H 38.625649 35.780351 59.998752 0
M  V30 33 H 39.405018 30.195227 53.779272 0
M  V30 34 H 39.462115 29.645664 56.037933 0
M  V30 35 H 37.431225 27.785362 58.074388 0
M  V30 36 H 38.568628 27.645890 59.407544 0
M  V30 37 H 39.328344 34.527431 62.635963 0
M  V30 38 H 36.179013 32.348975 58.199604 0
M  V30 39 H 40.831392 27.953007 59.854663 0
M  V30 40 H 42.445143 27.584032 59.243639 0
M  V30 41 H 41.644359 29.088056 58.760796 0
M  V30 42 H 37.596948 34.390032 58.507283 0
M  V30 43 H 39.103405 26.279191 52.075964 0
M  V30 44 H 40.155521 26.498784 53.442666 0
M  V30 45 H 39.843338 28.516314 52.153101 0
M  V30 46 H 38.917132 37.737752 64.544572 0
M  V30 47 H 39.565412 36.116142 64.672458 0
M  V30 48 H 40.443035 37.337770 63.767766 0
M  V30 49 H 37.768775 25.337743 53.767800 0
M  V30 50 H 37.140871 26.937118 53.871360 0
M  V30 51 H 38.866259 31.976443 59.293281 0
M  V30 52 H 41.586726 27.319412 56.933556 0
M  V30 53 H 37.646006 27.826016 51.575706 0
M  V30 54 H 38.673531 37.454263 62.055257 0
M  V30 55 H 37.674569 36.347414 62.960468 0
M  V30 56 H 35.739209 35.653281 59.583743 0
M  V30 57 H 35.112293 34.502827 58.416911 0
M  V30 58 H 35.011733 34.143077 60.136560 0
M  V30 59 H 38.411499 25.500887 55.934443 0
M  V30 60 H 41.448847 35.727153 62.432030 0
M  V30 61 H 41.186093 34.800678 60.971047 0
M  V30 62 H 40.913407 36.537827 60.967740 0
M  V30 63 H 39.835785 25.752324 58.958869 0
M  V30 64 H 40.276813 25.268162 57.246855 0
M  V30 65 H 36.451924 32.030533 59.784904 0
M  V30 END ATOM
M  V30 BEGIN BOND
M  V30 1 2 5 4
M  V30 2 1 1 6 CFG=1
M  V30 3 1 7 3
M  V30 4 1 11 8
M  V30 5 1 13 4
M  V30 6 1 13 12
M  V30 7 1 14 3
M  V30 8 2 14 9
M  V30 9 1 14 11
M  V30 10 1 15 6
M  V30 11 1 17 1
M  V30 12 1 17 5
M  V30 13 1 18 12
M  V30 14 1 19 2
M  V30 15 1 19 8
M  V30 16 1 20 1
M  V30 17 1 20 10
M  V30 18 1 21 13
M  V30 19 1 22 7
M  V30 20 1 22 16
M  V30 21 1 23 15
M  V30 22 1 23 19
M  V30 23 2 24 23
M  V30 24 1 25 11
M  V30 25 2 26 17
M  V30 26 1 26 18
M  V30 27 1 27 7
M  V30 28 1 28 1
M  V30 29 1 28 20
M  V30 30 1 29 2
M  V30 31 1 30 2
M  V30 32 1 31 2
M  V30 33 1 32 3
M  V30 34 1 33 4
M  V30 35 1 34 5
M  V30 36 1 35 6
M  V30 37 1 36 6
M  V30 38 1 7 37 CFG=1
M  V30 39 1 38 8
M  V30 40 1 39 10
M  V30 41 1 40 10
M  V30 42 1 41 10
M  V30 43 1 11 42 CFG=3
M  V30 44 1 43 12
M  V30 45 1 44 12
M  V30 46 1 13 45 CFG=3
M  V30 47 1 46 16
M  V30 48 1 47 16
M  V30 49 1 48 16
M  V30 50 1 49 18
M  V30 51 1 50 18
M  V30 52 1 19 51 CFG=1
M  V30 53 1 20 52 CFG=3
M  V30 54 1 53 21
M  V30 55 1 54 22
M  V30 56 1 55 22
M  V30 57 1 56 25
M  V30 58 1 57 25
M  V30 59 1 58 25
M  V30 60 1 59 26
M  V30 61 1 60 27
M  V30 62 1 61 27
M  V30 63 1 62 27
M  V30 64 1 63 28
M  V30 65 1 64 28
M  V30 66 1 65 8
M  V30 END BOND
M  V30 END CTAB
M  END
>  <i_epik_Tot_Q>  (1) 
1

>  <i_epik_Tot_abs_Q>  (1) 
1

>  <i_i_glide_confnum>  (1) 
1814

>  <i_i_glide_lignum>  (1) 
161

>  <i_i_glide_posenum>  (1) 
281

>  <i_i_glide_rotatable_bonds>  (1) 
12

>  <i_lp_mmshare_version>  (1) 
72125

>  <i_m_source_file_index>  (1) 
74

>  <i_f3d_flags>  (1) 
0

>  <num_sample>  (1) 
100

>  <b_lp_Chiralities_Consistent>  (1) 
1

>  <r_epik_Charging_Adjusted_Penalty>  (1) 
2.336176939713237

>  <r_epik_Ionization_Penalty>  (1) 
1.168091143672223

>  <r_epik_Ionization_Penalty_Charging>  (1) 
1.1680884698566185

>  <r_epik_Ionization_Penalty_Neutral>  (1) 
2.673815604532901e-06

>  <r_epik_State_Penalty>  (1) 
1.1680884698566185

>  <r_glide_ring_energy>  (1) 
0

>  <r_i_docking_score>  (1) 
-5.7229540587572414

>  <r_i_glide_ecoul>  (1) 
-7.116117349717368

>  <r_i_glide_eff_state_penalty>  (1) 
1.1680884698566185

>  <r_i_glide_einternal>  (1) 
10.248312303189111

>  <r_i_glide_emodel>  (1) 
-66.0083300966362

>  <r_i_glide_emodel_strain>  (1) 
0.21780360069222127

>  <r_i_glide_energy>  (1) 
-47.400056829427776

>  <r_i_glide_erotb>  (1) 
1.2613414017289797

>  <r_i_glide_esite>  (1) 
-0.14443037658665456

>  <r_i_glide_evdw>  (1) 
-40.283939479710405

>  <r_i_glide_gscore>  (1) 
-6.8910425286138599

>  <r_i_glide_gscore_strain>  (1) 
0

>  <r_i_glide_hbond>  (1) 
-0.20000000000000001

>  <r_i_glide_ligand_efficiency>  (1) 
-0.2043912163841872

>  <r_i_glide_ligand_efficiency_ln>  (1) 
-1.3210258299938367

>  <r_i_glide_ligand_efficiency_sa>  (1) 
-0.62065211362047512

>  <r_i_glide_lipo>  (1) 
-3.2608731437189769

>  <r_i_glide_metal>  (1) 
-0

>  <r_i_glide_rewards>  (1) 
-1.4654658335940816

>  <r_lp_Energy>  (1) 
23.653385

>  <s_epik_Chemistry_Notes>  (1) 
This compound has an ester and may undergo hydrolysis at high or low pH.

>  <s_epik_cmdline>  (1) 
J2VwaWtfcHl0aG9uJywgJy1waHQnLCAnMS4wJywgJy1waCcsICc3LjQnLCAnLXRuJywgJzgnLCAnLW1hJywgJzUwMCcsICctaW1hZScsICc8aW5maWxlLm1hZT4nLCAnLW9tYWUnLCAnPG91dGZpbGUubWFlPic=

>  <s_epik_input>  (1) 
W09IXVtDQEhdMVtDSF09W0NIXUMoPVtDSF1bQ0gyXVtDSDJdMSlbQ0BAXTIoW0NAQEhdKFtDSDNdKVtDSDJdMilbQ0gyXU9DKD1PKVtDQEBIXShbQ0gzXSlbTkhdW0NASF0oW0NIM10pQyg9TylbTkhdW0NAQEhdKFtDSDNdKVtDSDJdW0NIM10=

>  <s_glide_docking_method>  (1) 
confgen

>  <s_i_glide_gridfile>  (1) 
gpcr_5ht2c_6bqh_protein_autoprepared_prepared

>  <s_lp_Force_Field>  (1) 
S-OPLS

>  <s_lp_Variant>  (1) 
DiffSBDD_73-4

>  <s_m_source_file>  (1) 
generated_GPCR_5HT2C_ligand_DiffSBDD_2026-06-23_prepared.sdf

>  <GenAI_Model>  (1) 
DiffSBDD

>  <Protein>  (1) 
GPCR_5HT2C

$$$$
DiffSBDD_83
     RDKit          3D

  0  0  0  0  0  0  0  0  0  0999 V3000
M  V30 BEGIN CTAB
M  V30 COUNTS 54 55 0 0 1
M  V30 BEGIN ATOM
M  V30 1 C 38.640459 36.507250 62.235066 0
M  V30 2 C 38.586133 30.334200 57.369955 0
M  V30 3 N 38.183064 29.600384 58.449776 0
M  V30 4 O 40.019113 25.743029 55.984435 0
M  V30 5 O 39.272879 36.231906 63.388408 0
M  V30 6 C 37.668598 35.262582 60.301942 0
M  V30 7 C 37.169530 36.531708 59.615936 0
M  V30 8 C 37.994582 25.156935 56.674239 0
M  V30 9 C 39.058143 27.265395 50.757349 0
M  V30 10 C 38.330951 35.263678 61.494360 0
M  V30 11 C 38.955660 29.709631 56.067449 0
M  V30 12 C 38.079534 32.711193 60.111651 0
M  V30 13 N 37.921657 30.335249 59.538686 0
M  V30 14 O 39.339934 37.337697 64.326146 0
M  V30 15 C 39.005788 27.540011 54.661646 0 CFG=1
M  V30 16 C 38.052608 29.217829 52.954551 0
M  V30 17 C 39.255287 25.210838 56.932911 0
M  V30 18 O 38.362372 37.645408 61.855467 0
M  V30 19 C 38.981278 26.026779 55.008535 0 CFG=2
M  V30 20 C 38.592560 31.633606 57.762414 0
M  V30 21 O 37.664483 25.646292 55.478084 0
M  V30 22 C 39.559625 27.390276 52.189420 0
M  V30 23 C 38.471646 27.763909 53.220884 0 CFG=1
M  V30 24 C 38.188581 31.581264 59.136144 0
M  V30 25 Cl 36.845382 24.537851 57.767759 0
M  V30 26 C 37.372511 33.964285 59.550011 0
M  V30 27 C 38.305548 28.346033 55.783428 0
M  V30 28 H 38.089193 28.595442 58.460157 0
M  V30 29 H 36.645332 36.293594 58.690571 0
M  V30 30 H 36.464370 37.064370 60.251253 0
M  V30 31 H 37.995536 37.193743 59.354470 0
M  V30 32 H 39.900987 26.930040 50.167420 0
M  V30 33 H 38.252525 26.537904 50.658930 0
M  V30 34 H 38.725920 28.218016 50.344671 0
M  V30 35 H 38.654436 34.335996 61.938354 0
M  V30 36 H 38.733021 30.417891 55.272259 0
M  V30 37 H 40.040002 29.592980 56.062687 0
M  V30 38 H 39.108203 32.959435 60.373836 0
M  V30 39 H 37.597363 32.385515 61.034998 0
M  V30 40 H 40.215331 37.670918 64.167944 0
M  V30 41 H 40.045182 27.822133 54.675374 0
M  V30 42 H 38.900499 29.901225 53.029843 0
M  V30 43 H 37.645461 29.315235 51.952593 0
M  V30 44 H 37.275724 29.562600 53.635718 0
M  V30 45 H 39.779069 24.891351 57.820860 0
M  V30 46 H 39.205524 25.382564 54.168010 0
M  V30 47 H 38.871146 32.493636 57.173259 0
M  V30 48 H 40.356974 28.132712 52.167619 0
M  V30 49 H 40.041217 26.453496 52.468856 0
M  V30 50 H 37.594694 27.127024 53.077418 0
M  V30 51 H 36.295506 33.797454 59.500673 0
M  V30 52 H 37.700312 34.125200 58.521538 0
M  V30 53 H 38.367619 27.774657 56.703970 0
M  V30 54 H 37.245138 28.464563 55.570762 0
M  V30 END ATOM
M  V30 BEGIN BOND
M  V30 1 1 3 2
M  V30 2 1 5 1
M  V30 3 1 7 6
M  V30 4 1 10 1
M  V30 5 2 10 6
M  V30 6 1 11 2
M  V30 7 1 13 3
M  V30 8 1 14 5
M  V30 9 1 17 4
M  V30 10 2 17 8
M  V30 11 2 18 1
M  V30 12 1 19 4
M  V30 13 1 19 15
M  V30 14 2 20 2
M  V30 15 1 21 8
M  V30 16 1 21 19
M  V30 17 1 22 9
M  V30 18 1 23 15
M  V30 19 1 23 16
M  V30 20 1 23 22
M  V30 21 1 24 12
M  V30 22 2 24 13
M  V30 23 1 24 20
M  V30 24 1 25 8
M  V30 25 1 26 6
M  V30 26 1 26 12
M  V30 27 1 27 11
M  V30 28 1 27 15
M  V30 29 1 28 3
M  V30 30 1 29 7
M  V30 31 1 30 7
M  V30 32 1 31 7
M  V30 33 1 32 9
M  V30 34 1 33 9
M  V30 35 1 34 9
M  V30 36 1 35 10
M  V30 37 1 36 11
M  V30 38 1 37 11
M  V30 39 1 38 12
M  V30 40 1 39 12
M  V30 41 1 40 14
M  V30 42 1 15 41 CFG=3
M  V30 43 1 42 16
M  V30 44 1 43 16
M  V30 45 1 44 16
M  V30 46 1 45 17
M  V30 47 1 19 46 CFG=3
M  V30 48 1 47 20
M  V30 49 1 48 22
M  V30 50 1 49 22
M  V30 51 1 23 50 CFG=3
M  V30 52 1 51 26
M  V30 53 1 52 26
M  V30 54 1 53 27
M  V30 55 1 54 27
M  V30 END BOND
M  V30 END CTAB
M  END
>  <i_epik_Tot_Q>  (1) 
0

>  <i_epik_Tot_abs_Q>  (1) 
0

>  <i_i_glide_confnum>  (1) 
1104

>  <i_i_glide_lignum>  (1) 
193

>  <i_i_glide_posenum>  (1) 
299

>  <i_i_glide_rotatable_bonds>  (1) 
12

>  <i_lp_mmshare_version>  (1) 
72125

>  <i_m_source_file_index>  (1) 
84

>  <i_f3d_flags>  (1) 
0

>  <num_sample>  (1) 
100

>  <b_lp_Chiralities_Consistent>  (1) 
1

>  <r_epik_Charging_Adjusted_Penalty>  (1) 
0.41067983895260396

>  <r_epik_Ionization_Penalty>  (1) 
0.00076996626271645392

>  <r_epik_Ionization_Penalty_Charging>  (1) 
0

>  <r_epik_Ionization_Penalty_Neutral>  (1) 
0.00076996626271645392

>  <r_epik_State_Penalty>  (1) 
0.41067983895260396

>  <r_glide_ring_energy>  (1) 
0

>  <r_i_docking_score>  (1) 
-5.7224882967356701

>  <r_i_glide_ecoul>  (1) 
-3.0082073466857207

>  <r_i_glide_eff_state_penalty>  (1) 
0.41067983895260396

>  <r_i_glide_einternal>  (1) 
3.6499965110216301

>  <r_i_glide_emodel>  (1) 
-49.935839369980258

>  <r_i_glide_emodel_strain>  (1) 
1.8679847263106666

>  <r_i_glide_energy>  (1) 
-37.413626572566507

>  <r_i_glide_erotb>  (1) 
1.1080255732668134

>  <r_i_glide_esite>  (1) 
-0.007995750088170139

>  <r_i_glide_evdw>  (1) 
-34.405419225880784

>  <r_i_glide_gscore>  (1) 
-6.1331681356882743

>  <r_i_glide_gscore_strain>  (1) 
0

>  <r_i_glide_hbond>  (1) 
-0.32000000000000001

>  <r_i_glide_ligand_efficiency>  (1) 
-0.21194401099021001

>  <r_i_glide_ligand_efficiency_ln>  (1) 
-1.332100932887218

>  <r_i_glide_ligand_efficiency_sa>  (1) 
-0.63583203297063018

>  <r_i_glide_lipo>  (1) 
-2.8394772131113832

>  <r_i_glide_metal>  (1) 
-0

>  <r_i_glide_rewards>  (1) 
-1.9022186824586371

>  <r_lp_Energy>  (1) 
16.144891999999999

>  <r_lp_tautomer_probability>  (1) 
0.5

>  <s_epik_Chemistry_Notes>  (1) 
This compound contains an acetal/aminal-like group ( X-CH(R)-Y where X, Y are N, S, or O) that may be acid/base labile, releasing an aldehyde.

>  <s_epik_cmdline>  (1) 
J2VwaWtfcHl0aG9uJywgJy1waHQnLCAnMS4wJywgJy1waCcsICc3LjQnLCAnLXRuJywgJzgnLCAnLW1hJywgJzUwMCcsICctaW1hZScsICc8aW5maWxlLm1hZT4nLCAnLW9tYWUnLCAnPG91dGZpbGUubWFlPic=

>  <s_epik_input>  (1) 
W09IXU9DKD1PKS9bQ0hdPUMoXFtDSDNdKVtDSDJdW0NIMl1jKFtjSF0xKW5bbkhdYzFbQ0gyXVtDSDJdW0NASF0oW0NAQEhdKFtDSDNdKVtDSDJdW0NIM10pW0NAQEhdKE8yKU9bQ0hdPUMyQ2w=

>  <s_glide_docking_method>  (1) 
confgen

>  <s_i_glide_gridfile>  (1) 
gpcr_5ht2c_6bqh_protein_autoprepared_prepared

>  <s_lp_Force_Field>  (1) 
S-OPLS

>  <s_lp_Variant>  (1) 
DiffSBDD_83-4

>  <s_m_source_file>  (1) 
generated_GPCR_5HT2C_ligand_DiffSBDD_2026-06-23_prepared.sdf

>  <GenAI_Model>  (1) 
DiffSBDD

>  <Protein>  (1) 
GPCR_5HT2C

$$$$
DiffSBDD_3
     RDKit          3D

  0  0  0  0  0  0  0  0  0  0999 V3000
M  V30 BEGIN CTAB
M  V30 COUNTS 72 76 0 0 1
M  V30 BEGIN ATOM
M  V30 1 C 41.063607 27.436489 66.017099 0
M  V30 2 C 40.958405 33.831714 64.661527 0
M  V30 3 N 40.445065 36.809355 66.583289 0
M  V30 4 C 41.949425 30.892729 64.447308 0
M  V30 5 N 42.030741 29.572952 64.009543 0
M  V30 6 C 40.509188 30.642816 62.751861 0
M  V30 7 C 39.448381 28.055907 52.316481 0 CFG=2
M  V30 8 C 42.888987 28.491954 64.531714 0 CFG=1
M  V30 9 C 41.219132 35.950427 66.535104 0
M  V30 10 C 42.665062 31.356922 65.491662 0
M  V30 11 O 39.159718 29.544202 55.858350 0
M  V30 12 C 36.063235 30.042378 58.825893 0
M  V30 13 C 41.110672 29.471637 62.982541 0
M  V30 14 C 38.499458 30.503432 59.049630 0
M  V30 15 C 38.329807 27.289746 55.739901 0 CFG=1
M  V30 16 C 44.397259 28.760514 64.351170 0
M  V30 17 C 39.566514 26.720000 55.079572 0
M  V30 18 C 42.487167 28.009093 65.944884 0
M  V30 19 O 38.575817 32.937840 58.919754 0
M  V30 20 O 40.045138 29.337749 52.074365 0
M  V30 21 N 38.475417 28.267896 53.365167 0
M  V30 22 C 39.180140 32.063865 61.103029 0
M  V30 23 C 39.204349 28.796761 51.048229 0 CFG=1
M  V30 24 C 41.903661 33.761978 65.770312 0
M  V30 25 O 39.443433 29.737844 59.267125 0
M  V30 26 N 41.032281 31.571764 63.669303 0
M  V30 27 C 37.388793 30.159405 58.044834 0 CFG=1
M  V30 28 N 37.645075 28.871552 57.396037 0
M  V30 29 C 38.428486 28.669589 56.326688 0
M  V30 30 C 42.642568 32.677723 66.096949 0
M  V30 31 C 38.361655 31.852859 59.801769 0 CFG=2
M  V30 32 C 39.052542 27.295954 51.073011 0
M  V30 33 C 40.876110 28.153287 62.274705 0
M  V30 34 N 39.531589 30.817594 61.768604 0
M  V30 35 N 42.043260 34.883999 66.567744 0
M  V30 36 C 40.610353 32.881866 63.786507 0
M  V30 37 C 38.380270 27.097068 54.223907 0 CFG=2
M  V30 38 H 40.841184 27.080595 67.023030 0
M  V30 39 H 40.316846 28.190722 65.765265 0
M  V30 40 H 40.936053 26.597235 65.332801 0
M  V30 41 H 40.463527 34.781133 64.524098 0
M  V30 42 H 42.734227 27.627630 63.890831 0
M  V30 43 H 43.322455 30.654551 65.965631 0
M  V30 44 H 35.731746 30.998630 59.226741 0
M  V30 45 H 35.255829 29.737758 58.167769 0
M  V30 46 H 36.122907 29.337760 59.653113 0
M  V30 47 H 37.703832 26.586141 56.286656 0
M  V30 48 H 44.971836 27.856725 64.557514 0
M  V30 49 H 44.618113 29.050850 63.325024 0
M  V30 50 H 44.792811 29.538440 65.000212 0
M  V30 51 H 40.449842 27.346571 55.041631 0
M  V30 52 H 39.766294 25.661927 55.237739 0
M  V30 53 H 43.181467 27.228724 66.257611 0
M  V30 54 H 42.585023 28.799488 66.686045 0
M  V30 55 H 37.894694 32.937871 58.260334 0
M  V30 56 H 38.764560 29.063499 53.926483 0
M  V30 57 H 40.089519 32.628175 60.891683 0
M  V30 58 H 38.534603 32.656620 61.749285 0
M  V30 59 H 38.271407 29.337762 50.967772 0
M  V30 60 H 37.312394 30.938334 57.286701 0
M  V30 61 H 37.106160 28.088869 57.732181 0
M  V30 62 H 43.293462 32.799005 66.951643 0
M  V30 63 H 37.324587 31.926552 60.117571 0
M  V30 64 H 39.821218 26.718469 50.567863 0
M  V30 65 H 38.045142 26.901785 50.999520 0
M  V30 66 H 40.850739 27.337758 62.990337 0
M  V30 67 H 39.908445 28.148342 61.773736 0
M  V30 68 H 41.645131 27.983789 61.522965 0
M  V30 69 H 39.299541 29.990441 61.231815 0
M  V30 70 H 42.718979 34.825421 67.314134 0
M  V30 71 H 39.891015 33.136403 63.053398 0
M  V30 72 H 37.808406 26.250611 53.847550 0
M  V30 END ATOM
M  V30 BEGIN BOND
M  V30 1 1 5 4
M  V30 2 1 8 5
M  V30 3 3 9 3
M  V30 4 2 10 4
M  V30 5 1 13 5
M  V30 6 2 13 6
M  V30 7 1 16 8
M  V30 8 1 17 15
M  V30 9 1 18 1
M  V30 10 1 18 8
M  V30 11 1 20 7
M  V30 12 1 7 21 CFG=1
M  V30 13 1 23 7
M  V30 14 1 23 20
M  V30 15 1 24 2
M  V30 16 2 25 14
M  V30 17 1 26 4
M  V30 18 1 26 6
M  V30 19 1 27 12
M  V30 20 1 27 14
M  V30 21 1 28 27
M  V30 22 2 29 11
M  V30 23 1 29 15
M  V30 24 1 29 28
M  V30 25 1 30 10
M  V30 26 2 30 24
M  V30 27 1 31 14
M  V30 28 1 31 19
M  V30 29 1 31 22
M  V30 30 1 32 7
M  V30 31 1 32 23
M  V30 32 1 33 13
M  V30 33 1 34 6
M  V30 34 1 34 22
M  V30 35 1 35 9
M  V30 36 1 35 24
M  V30 37 2 36 2
M  V30 38 1 36 26
M  V30 39 1 37 15
M  V30 40 1 37 17
M  V30 41 1 37 21
M  V30 42 1 38 1
M  V30 43 1 39 1
M  V30 44 1 40 1
M  V30 45 1 41 2
M  V30 46 1 8 42 CFG=3
M  V30 47 1 43 10
M  V30 48 1 44 12
M  V30 49 1 45 12
M  V30 50 1 46 12
M  V30 51 1 15 47 CFG=1
M  V30 52 1 48 16
M  V30 53 1 49 16
M  V30 54 1 50 16
M  V30 55 1 51 17
M  V30 56 1 52 17
M  V30 57 1 53 18
M  V30 58 1 54 18
M  V30 59 1 55 19
M  V30 60 1 56 21
M  V30 61 1 57 22
M  V30 62 1 58 22
M  V30 63 1 23 59 CFG=1
M  V30 64 1 27 60 CFG=3
M  V30 65 1 61 28
M  V30 66 1 62 30
M  V30 67 1 31 63 CFG=1
M  V30 68 1 64 32
M  V30 69 1 65 32
M  V30 70 1 66 33
M  V30 71 1 67 33
M  V30 72 1 68 33
M  V30 73 1 69 34
M  V30 74 1 70 35
M  V30 75 1 71 36
M  V30 76 1 37 72 CFG=3
M  V30 END BOND
M  V30 END CTAB
M  END
>  <i_epik_Tot_Q>  (1) 
0

>  <i_epik_Tot_abs_Q>  (1) 
0

>  <i_i_glide_confnum>  (1) 
1433

>  <i_i_glide_lignum>  (1) 
5

>  <i_i_glide_posenum>  (1) 
197

>  <i_i_glide_rotatable_bonds>  (1) 
14

>  <i_lp_mmshare_version>  (1) 
72125

>  <i_m_source_file_index>  (1) 
4

>  <i_f3d_flags>  (1) 
0

>  <num_sample>  (1) 
100

>  <b_lp_Chiralities_Consistent>  (1) 
1

>  <r_epik_Charging_Adjusted_Penalty>  (1) 
1.1379790187908705e-13

>  <r_epik_Ionization_Penalty>  (1) 
1.2816857149940913e-05

>  <r_epik_Ionization_Penalty_Charging>  (1) 
1.1379790187908705e-13

>  <r_epik_Ionization_Penalty_Neutral>  (1) 
1.2816857036143011e-05

>  <r_epik_State_Penalty>  (1) 
-0

>  <r_glide_ring_energy>  (1) 
0

>  <r_i_docking_score>  (1) 
-5.7091361283572217

>  <r_i_glide_ecoul>  (1) 
-2.1870672482712674

>  <r_i_glide_eff_state_penalty>  (1) 
-0

>  <r_i_glide_einternal>  (1) 
14.62363839943062

>  <r_i_glide_emodel>  (1) 
-61.44495972591735

>  <r_i_glide_emodel_strain>  (1) 
1.1537233903663378

>  <r_i_glide_energy>  (1) 
-50.786533783393693

>  <r_i_glide_erotb>  (1) 
0.94635060674965676

>  <r_i_glide_esite>  (1) 
-0.035132945162987921

>  <r_i_glide_evdw>  (1) 
-48.599466535122424

>  <r_i_glide_gscore>  (1) 
-5.7091361283572217

>  <r_i_glide_gscore_strain>  (1) 
0

>  <r_i_glide_hbond>  (1) 
0

>  <r_i_glide_ligand_efficiency>  (1) 
-0.15430097644208707

>  <r_i_glide_ligand_efficiency_ln>  (1) 
-1.2381777851003213

>  <r_i_glide_ligand_efficiency_sa>  (1) 
-0.51416508543063011

>  <r_i_glide_lipo>  (1) 
-3.0880210180838672

>  <r_i_glide_metal>  (1) 
-0

>  <r_i_glide_rewards>  (1) 
-0.7742993578632118

>  <r_lp_Energy>  (1) 
56.905592999999996

>  <r_lp_tautomer_probability>  (1) 
1

>  <s_epik_Chemistry_Notes>  (1) 
This compound has an imine and may undergo hydrolysis.

>  <s_epik_cmdline>  (1) 
J2VwaWtfcHl0aG9uJywgJy1waHQnLCAnMS4wJywgJy1waCcsICc3LjQnLCAnLXRuJywgJzgnLCAnLW1hJywgJzUwMCcsICctaW1hZScsICc8aW5maWxlLm1hZT4nLCAnLW9tYWUnLCAnPG91dGZpbGUubWFlPic=

>  <s_epik_input>  (1) 
TiNDW05IXUMoPVtDSF1bQ0hdMSlbQ0hdPVtDSF1OKEM9MTIpQyg9QyhbQ0gzXSlOMltDQEBIXShbQ0gzXSlbQ0gyXVtDSDNdKVtOSF1bQ0gyXVtDQEBIXShbT0hdKUMoPU8pW0NASF0oW0NIM10pW05IXUMoPU8pW0NAQEhdM1tDSDJdW0NAQEhdM1tOSF1DNDVbQ0hdKE80KVtDSDJdNQ==

>  <s_glide_docking_method>  (1) 
confgen

>  <s_i_glide_gridfile>  (1) 
gpcr_5ht2c_6bqh_protein_autoprepared_prepared

>  <s_lp_Force_Field>  (1) 
S-OPLS

>  <s_lp_Variant>  (1) 
DiffSBDD_3-1

>  <s_m_source_file>  (1) 
generated_GPCR_5HT2C_ligand_DiffSBDD_2026-06-23_prepared.sdf

>  <GenAI_Model>  (1) 
DiffSBDD

>  <Protein>  (1) 
GPCR_5HT2C

$$$$
DiffSBDD_35
     RDKit          3D

  0  0  0  0  0  0  0  0  0  0999 V3000
M  V30 BEGIN CTAB
M  V30 COUNTS 52 54 0 0 1
M  V30 BEGIN ATOM
M  V30 1 N 37.816721 34.400719 60.329455 0
M  V30 2 C 38.235320 27.210266 54.643848 0
M  V30 3 C 36.675482 32.285417 60.382215 0
M  V30 4 C 39.556270 28.124469 59.384324 0
M  V30 5 N 38.845130 32.441496 59.353435 0
M  V30 6 C 36.743916 33.655495 60.655361 0
M  V30 7 C 38.483139 28.114329 55.871655 0 CFG=2
M  V30 8 O 38.032766 31.468702 54.257892 0
M  V30 9 C 40.511074 27.186575 57.161507 0
M  V30 10 C 38.699796 27.837352 53.319150 0
M  V30 11 C 38.302309 29.316764 53.173670 0
M  V30 12 C 37.781704 31.705181 59.726413 0
M  V30 13 C 38.533859 30.165827 54.443702 0 CFG=2
M  V30 14 C 40.812043 27.743469 58.547992 0
M  V30 15 C 37.133617 29.829221 58.063354 0
M  V30 16 C 37.825025 29.499927 55.645269 0 CFG=2
M  V30 17 N 37.818497 30.368932 56.855386 0 CHG=1
M  V30 18 C 38.798007 33.736092 59.703435 0
M  V30 19 C 37.841763 30.196952 59.387013 0 CFG=1
M  V30 20 C 39.975502 28.263007 56.239130 0
M  V30 21 C 39.307370 29.656476 59.456299 0
M  V30 22 C 35.453969 31.485315 60.768266 0
M  V30 23 H 38.714519 26.240432 54.782253 0
M  V30 24 H 37.166429 27.001233 54.572352 0
M  V30 25 H 39.690800 27.752813 60.401409 0
M  V30 26 H 38.685967 27.592602 59.005101 0
M  V30 27 H 35.929313 34.164516 61.150583 0
M  V30 28 H 37.994145 27.587204 56.684819 0
M  V30 29 H 38.456290 31.865102 53.509937 0
M  V30 30 H 39.846930 26.323599 57.218987 0
M  V30 31 H 41.443154 26.807518 56.739033 0
M  V30 32 H 39.771054 27.729295 53.215353 0
M  V30 33 H 38.282995 27.267657 52.487512 0
M  V30 34 H 38.829103 29.738422 52.318270 0
M  V30 35 H 37.245136 29.336141 52.934860 0
M  V30 36 H 39.602952 30.275277 54.622344 0
M  V30 37 H 41.387308 26.937807 58.967979 0
M  V30 38 H 41.521783 28.570361 58.501883 0
M  V30 39 H 36.091431 30.137778 58.082846 0
M  V30 40 H 37.045950 28.751389 58.038746 0
M  V30 41 H 36.783648 29.361708 55.367921 0
M  V30 42 H 38.769523 30.607720 57.092597 0
M  V30 43 H 39.669419 34.317859 59.449006 0
M  V30 44 H 37.313649 29.665353 60.167873 0
M  V30 45 H 40.603173 28.265194 55.367761 0
M  V30 46 H 40.177431 29.236172 56.677571 0
M  V30 47 H 39.766069 30.012129 60.379858 0
M  V30 48 H 39.877480 30.137695 58.667543 0
M  V30 49 H 34.845093 31.337689 59.877716 0
M  V30 50 H 34.848345 32.037929 61.487859 0
M  V30 51 H 35.702842 30.537779 61.225757 0
M  V30 52 H 37.333604 31.224294 56.594637 0
M  V30 END ATOM
M  V30 BEGIN BOND
M  V30 1 1 6 1
M  V30 2 2 6 3
M  V30 3 1 7 2
M  V30 4 1 10 2
M  V30 5 1 11 10
M  V30 6 1 12 3
M  V30 7 2 12 5
M  V30 8 1 13 8
M  V30 9 1 13 11
M  V30 10 1 14 4
M  V30 11 1 14 9
M  V30 12 1 16 7
M  V30 13 1 16 13
M  V30 14 1 17 15
M  V30 15 1 17 16
M  V30 16 2 18 1
M  V30 17 1 18 5
M  V30 18 1 19 12
M  V30 19 1 19 15
M  V30 20 1 20 7
M  V30 21 1 20 9
M  V30 22 1 21 4
M  V30 23 1 21 19
M  V30 24 1 22 3
M  V30 25 1 23 2
M  V30 26 1 24 2
M  V30 27 1 25 4
M  V30 28 1 26 4
M  V30 29 1 27 6
M  V30 30 1 7 28 CFG=1
M  V30 31 1 29 8
M  V30 32 1 30 9
M  V30 33 1 31 9
M  V30 34 1 32 10
M  V30 35 1 33 10
M  V30 36 1 34 11
M  V30 37 1 35 11
M  V30 38 1 13 36 CFG=1
M  V30 39 1 37 14
M  V30 40 1 38 14
M  V30 41 1 39 15
M  V30 42 1 40 15
M  V30 43 1 16 41 CFG=3
M  V30 44 1 42 17
M  V30 45 1 43 18
M  V30 46 1 19 44 CFG=1
M  V30 47 1 45 20
M  V30 48 1 46 20
M  V30 49 1 47 21
M  V30 50 1 48 21
M  V30 51 1 49 22
M  V30 52 1 50 22
M  V30 53 1 51 22
M  V30 54 1 52 17
M  V30 END BOND
M  V30 END CTAB
M  END
>  <i_epik_Tot_Q>  (1) 
1

>  <i_epik_Tot_abs_Q>  (1) 
1

>  <i_i_glide_confnum>  (1) 
1

>  <i_i_glide_lignum>  (1) 
79

>  <i_i_glide_posenum>  (1) 
170

>  <i_i_glide_rotatable_bonds>  (1) 
2

>  <i_lp_mmshare_version>  (1) 
72125

>  <i_m_source_file_index>  (1) 
36

>  <i_f3d_flags>  (1) 
0

>  <num_sample>  (1) 
100

>  <b_lp_Chiralities_Consistent>  (1) 
1

>  <r_epik_Charging_Adjusted_Penalty>  (1) 
0.039208821755369223

>  <r_epik_Ionization_Penalty>  (1) 
0.019605249659357914

>  <r_epik_Ionization_Penalty_Charging>  (1) 
0.019604410877684601

>  <r_epik_Ionization_Penalty_Neutral>  (1) 
8.3878167331114202e-07

>  <r_epik_State_Penalty>  (1) 
0.019604410877684622

>  <r_glide_ring_energy>  (1) 
0

>  <r_i_docking_score>  (1) 
-5.7068552129296375

>  <r_i_glide_ecoul>  (1) 
-2.1013869502269538

>  <r_i_glide_eff_state_penalty>  (1) 
0.019604410877684622

>  <r_i_glide_einternal>  (1) 
0.55404460875491135

>  <r_i_glide_emodel>  (1) 
-31.729962729104827

>  <r_i_glide_emodel_strain>  (1) 
1.1729985632110527

>  <r_i_glide_energy>  (1) 
-26.78642062469013

>  <r_i_glide_erotb>  (1) 
0.1989582782383891

>  <r_i_glide_esite>  (1) 
-0.10000000000000001

>  <r_i_glide_evdw>  (1) 
-24.685033674463178

>  <r_i_glide_gscore>  (1) 
-5.7264596238073224

>  <r_i_glide_gscore_strain>  (1) 
0

>  <r_i_glide_hbond>  (1) 
-0.10397711572887343

>  <r_i_glide_ligand_efficiency>  (1) 
-0.25940250967861989

>  <r_i_glide_ligand_efficiency_ln>  (1) 
-1.3949635766416721

>  <r_i_glide_ligand_efficiency_sa>  (1) 
-0.72685603459020776

>  <r_i_glide_lipo>  (1) 
-2.1717274557334942

>  <r_i_glide_metal>  (1) 
-0

>  <r_i_glide_rewards>  (1) 
-2.0002536043261414

>  <r_lp_Energy>  (1) 
40.847864000000001

>  <r_lp_tautomer_probability>  (1) 
1

>  <s_epik_Chemistry_Notes>  (1) 
This compound contains an electron-poor aromatic ring that is susceptible to covalent hydrolysis at low pH, typically resulting in measured values for nitrogen ring protonation that are around two units higher than predicted values.

>  <s_epik_cmdline>  (1) 
J2VwaWtfcHl0aG9uJywgJy1waHQnLCAnMS4wJywgJy1waCcsICc3LjQnLCAnLXRuJywgJzgnLCAnLW1hJywgJzUwMCcsICctaW1hZScsICc8aW5maWxlLm1hZT4nLCAnLW9tYWUnLCAnPG91dGZpbGUubWFlPic=

>  <s_epik_input>  (1) 
W0NIM11jMVtjSF1uW2NIXW5jMVtDQEhdKFtDSDJdW0NIMl1bQ0gyXVtDSDJdW0NIMl0yKVtDSDJdW05IXVtDQEhdKFtDQEhdMjMpW0NASF0oW09IXSlbQ0gyXVtDSDJdW0NIMl0z

>  <s_glide_docking_method>  (1) 
confgen

>  <s_i_glide_gridfile>  (1) 
gpcr_5ht2c_6bqh_protein_autoprepared_prepared

>  <s_lp_Force_Field>  (1) 
S-OPLS

>  <s_lp_Variant>  (1) 
DiffSBDD_35-1

>  <s_m_source_file>  (1) 
generated_GPCR_5HT2C_ligand_DiffSBDD_2026-06-23_prepared.sdf

>  <GenAI_Model>  (1) 
DiffSBDD

>  <Protein>  (1) 
GPCR_5HT2C

$$$$
DiffSBDD_83
     RDKit          3D

  0  0  0  0  0  0  0  0  0  0999 V3000
M  V30 BEGIN CTAB
M  V30 COUNTS 54 55 0 0 1
M  V30 BEGIN ATOM
M  V30 1 C 39.254904 28.331656 51.797336 0
M  V30 2 C 38.670023 32.259843 56.956652 0
M  V30 3 N 38.774429 32.666893 55.689007 0
M  V30 4 O 36.432557 35.001553 59.469550 0
M  V30 5 O 39.684951 28.021757 50.567793 0
M  V30 6 C 38.341977 27.173506 53.826419 0
M  V30 7 C 38.004632 25.921353 54.618364 0
M  V30 8 C 36.967790 36.632973 60.870265 0
M  V30 9 C 40.960272 33.703752 62.083320 0
M  V30 10 C 38.902175 27.107975 52.581566 0
M  V30 11 C 38.461507 33.274639 58.042583 0
M  V30 12 C 39.217118 29.059801 55.255494 0
M  V30 13 N 38.967369 31.524957 55.013820 0
M  V30 14 O 40.045131 29.198875 49.772110 0
M  V30 15 C 38.123515 33.613700 60.583321 0 CFG=1
M  V30 16 C 38.802318 31.399773 61.904369 0
M  V30 17 C 36.566884 36.305220 59.692215 0
M  V30 18 O 39.179263 29.484002 52.218463 0
M  V30 19 C 36.853253 34.492477 60.765732 0 CFG=1
M  V30 20 C 38.804419 30.836973 57.080042 0
M  V30 21 O 37.180777 35.586160 61.673910 0
M  V30 22 C 39.569446 33.654329 62.736272 0
M  V30 23 C 38.463822 32.906827 61.948700 0 CFG=1
M  V30 24 C 38.997001 30.415966 55.805275 0
M  V30 25 Cl 37.207917 38.266407 61.367741 0
M  V30 26 C 38.002446 28.480238 54.534163 0
M  V30 27 C 37.919654 32.678191 59.359013 0
M  V30 28 H 39.082060 31.519653 54.009086 0
M  V30 29 H 36.926109 25.835502 54.749649 0
M  V30 30 H 38.361453 25.002666 54.167938 0
M  V30 31 H 38.459049 25.982397 55.607277 0
M  V30 32 H 41.673603 34.173313 62.760634 0
M  V30 33 H 41.341632 32.710690 61.848382 0
M  V30 34 H 40.955817 34.295771 61.170152 0
M  V30 35 H 39.108444 26.149054 52.130739 0
M  V30 36 H 39.427067 33.737715 58.238281 0
M  V30 37 H 37.805880 34.066687 57.681557 0
M  V30 38 H 39.536335 28.385311 56.050690 0
M  V30 39 H 40.045232 29.121313 54.565790 0
M  V30 40 H 39.194597 29.453385 49.433434 0
M  V30 41 H 38.929540 34.301705 60.336191 0
M  V30 42 H 39.684872 31.190534 61.300570 0
M  V30 43 H 38.996721 31.009377 62.904688 0
M  V30 44 H 37.972355 30.818578 61.501728 0
M  V30 45 H 36.323200 36.941084 58.855024 0
M  V30 46 H 36.017332 33.924406 61.177856 0
M  V30 47 H 38.771215 30.228712 57.970303 0
M  V30 48 H 39.245116 34.675851 62.937365 0
M  V30 49 H 39.671221 33.187293 63.716602 0
M  V30 50 H 37.568254 32.937748 62.567760 0
M  V30 51 H 37.519861 29.194082 53.867701 0
M  V30 52 H 37.245370 28.276353 55.283429 0
M  V30 53 H 36.880579 32.361807 59.252609 0
M  V30 54 H 38.489261 31.770429 59.508291 0
M  V30 END ATOM
M  V30 BEGIN BOND
M  V30 1 2 3 2
M  V30 2 1 5 1
M  V30 3 1 7 6
M  V30 4 1 10 1
M  V30 5 2 10 6
M  V30 6 1 11 2
M  V30 7 1 13 3
M  V30 8 1 14 5
M  V30 9 1 17 4
M  V30 10 2 17 8
M  V30 11 2 18 1
M  V30 12 1 19 4
M  V30 13 1 19 15
M  V30 14 1 20 2
M  V30 15 1 21 8
M  V30 16 1 21 19
M  V30 17 1 22 9
M  V30 18 1 23 15
M  V30 19 1 23 16
M  V30 20 1 23 22
M  V30 21 1 24 12
M  V30 22 1 24 13
M  V30 23 2 24 20
M  V30 24 1 25 8
M  V30 25 1 26 6
M  V30 26 1 26 12
M  V30 27 1 27 11
M  V30 28 1 27 15
M  V30 29 1 28 13
M  V30 30 1 29 7
M  V30 31 1 30 7
M  V30 32 1 31 7
M  V30 33 1 32 9
M  V30 34 1 33 9
M  V30 35 1 34 9
M  V30 36 1 35 10
M  V30 37 1 36 11
M  V30 38 1 37 11
M  V30 39 1 38 12
M  V30 40 1 39 12
M  V30 41 1 40 14
M  V30 42 1 15 41 CFG=3
M  V30 43 1 42 16
M  V30 44 1 43 16
M  V30 45 1 44 16
M  V30 46 1 45 17
M  V30 47 1 19 46 CFG=1
M  V30 48 1 47 20
M  V30 49 1 48 22
M  V30 50 1 49 22
M  V30 51 1 23 50 CFG=1
M  V30 52 1 51 26
M  V30 53 1 52 26
M  V30 54 1 53 27
M  V30 55 1 54 27
M  V30 END BOND
M  V30 END CTAB
M  END
>  <i_epik_Tot_Q>  (1) 
0

>  <i_epik_Tot_abs_Q>  (1) 
0

>  <i_i_glide_confnum>  (1) 
1530

>  <i_i_glide_lignum>  (1) 
194

>  <i_i_glide_posenum>  (1) 
307

>  <i_i_glide_rotatable_bonds>  (1) 
12

>  <i_lp_mmshare_version>  (1) 
72125

>  <i_m_source_file_index>  (1) 
84

>  <i_f3d_flags>  (1) 
0

>  <num_sample>  (1) 
100

>  <b_lp_Chiralities_Consistent>  (1) 
1

>  <r_epik_Charging_Adjusted_Penalty>  (1) 
0.41067983895260396

>  <r_epik_Ionization_Penalty>  (1) 
0.00090540554532319911

>  <r_epik_Ionization_Penalty_Charging>  (1) 
0

>  <r_epik_Ionization_Penalty_Neutral>  (1) 
0.00090540554532319911

>  <r_epik_State_Penalty>  (1) 
0.41067983895260396

>  <r_glide_ring_energy>  (1) 
0

>  <r_i_docking_score>  (1) 
-5.7022804107251952

>  <r_i_glide_ecoul>  (1) 
-1.3581263032321798

>  <r_i_glide_eff_state_penalty>  (1) 
0.41067983895260396

>  <r_i_glide_einternal>  (1) 
13.704489142185814

>  <r_i_glide_emodel>  (1) 
-48.717972859981586

>  <r_i_glide_emodel_strain>  (1) 
0

>  <r_i_glide_energy>  (1) 
-41.564189924690133

>  <r_i_glide_erotb>  (1) 
1.1080255732668134

>  <r_i_glide_esite>  (1) 
0

>  <r_i_glide_evdw>  (1) 
-40.20606362145795

>  <r_i_glide_gscore>  (1) 
-6.1129602496777995

>  <r_i_glide_gscore_strain>  (1) 
0

>  <r_i_glide_hbond>  (1) 
-0.32000000000000001

>  <r_i_glide_ligand_efficiency>  (1) 
-0.21119557076759982

>  <r_i_glide_ligand_efficiency_ln>  (1) 
-1.3273968701770178

>  <r_i_glide_ligand_efficiency_sa>  (1) 
-0.63358671230279962

>  <r_i_glide_lipo>  (1) 
-2.7671540855997367

>  <r_i_glide_metal>  (1) 
-0

>  <r_i_glide_rewards>  (1) 
-1.9198096107871518

>  <r_lp_Energy>  (1) 
15.108011999999999

>  <r_lp_tautomer_probability>  (1) 
0.5

>  <s_epik_Chemistry_Notes>  (1) 
This compound contains an acetal/aminal-like group ( X-CH(R)-Y where X, Y are N, S, or O) that may be acid/base labile, releasing an aldehyde.

>  <s_epik_cmdline>  (1) 
J2VwaWtfcHl0aG9uJywgJy1waHQnLCAnMS4wJywgJy1waCcsICc3LjQnLCAnLXRuJywgJzgnLCAnLW1hJywgJzUwMCcsICctaW1hZScsICc8aW5maWxlLm1hZT4nLCAnLW9tYWUnLCAnPG91dGZpbGUubWFlPic=

>  <s_epik_input>  (1) 
W09IXU9DKD1PKVxbQ0hdPUMoXFtDSDNdKVtDSDJdW0NIMl1jKFtjSF0xKW5bbkhdYzFbQ0gyXVtDSDJdW0NASF0oW0NAQEhdKFtDSDNdKVtDSDJdW0NIM10pW0NAQEhdKE8yKU9bQ0hdPUMyQ2w=

>  <s_glide_docking_method>  (1) 
confgen

>  <s_i_glide_gridfile>  (1) 
gpcr_5ht2c_6bqh_protein_autoprepared_prepared

>  <s_lp_Force_Field>  (1) 
S-OPLS

>  <s_lp_Variant>  (1) 
DiffSBDD_83-5

>  <s_m_source_file>  (1) 
generated_GPCR_5HT2C_ligand_DiffSBDD_2026-06-23_prepared.sdf

>  <GenAI_Model>  (1) 
DiffSBDD

>  <Protein>  (1) 
GPCR_5HT2C

$$$$
DiffSBDD_20
     RDKit          3D

  0  0  0  0  0  0  0  0  0  0999 V3000
M  V30 BEGIN CTAB
M  V30 COUNTS 53 54 0 0 1
M  V30 BEGIN ATOM
M  V30 1 C 38.660095 31.124007 57.388029 0 CFG=2
M  V30 2 O 37.645095 28.950066 57.091300 0
M  V30 3 O 35.929573 33.633378 59.680398 0
M  V30 4 P 37.365737 33.903091 59.455990 0
M  V30 5 C 38.997379 29.911014 55.317928 0 CFG=1
M  V30 6 N 41.483155 32.382100 63.866777 0
M  V30 7 C 39.009308 28.887915 52.945488 0
M  V30 8 C 39.210097 27.795814 50.634373 0
M  V30 9 C 37.902462 31.182485 58.738690 0
M  V30 10 C 38.091698 31.757031 61.214360 0 CFG=2
M  V30 11 N 38.045137 31.905494 56.308073 0 CHG=1
M  V30 12 C 38.813999 29.694755 56.829865 0
M  V30 13 F 41.321445 34.680608 63.528100 0
M  V30 14 C 38.717206 27.652302 52.075136 0
M  V30 15 C 40.860537 33.432868 63.277214 0
M  V30 16 O 38.024821 35.015905 60.167745 0 CHG=-1
M  V30 17 O 37.645131 34.105926 57.805040 0
M  V30 18 C 39.277553 31.980458 62.149034 0
M  V30 19 C 39.756653 33.274403 62.413828 0
M  V30 20 C 38.311211 32.280553 59.757006 0 CFG=2
M  V30 21 C 41.008656 31.141768 63.610900 0
M  V30 22 O 39.460636 27.581473 54.914958 0
M  V30 23 C 39.917666 30.891333 62.762115 0
M  V30 24 C 38.688071 28.671380 54.437376 0 CFG=1
M  V30 25 C 38.122818 31.146450 55.042089 0
M  V30 26 O 36.845404 32.130320 61.767738 0
M  V30 27 O 39.953479 29.074044 57.377938 0
M  V30 28 H 39.645134 31.558649 57.480314 0
M  V30 29 H 36.962661 29.541656 57.378022 0
M  V30 30 H 40.034378 30.208566 55.146324 0
M  V30 31 H 38.426004 29.725819 52.569909 0
M  V30 32 H 40.045140 29.193796 52.824466 0
M  V30 33 H 38.861764 26.947383 50.046215 0
M  V30 34 H 38.844890 28.709339 50.167761 0
M  V30 35 H 40.297980 27.811933 50.583802 0
M  V30 36 H 36.824579 31.200292 58.581296 0
M  V30 37 H 38.100843 30.218880 59.205354 0
M  V30 38 H 37.996820 30.672968 61.191073 0
M  V30 39 H 38.458889 32.826401 56.256178 0
M  V30 40 H 39.188798 26.763582 52.493598 0
M  V30 41 H 37.645076 27.457522 52.076085 0
M  V30 42 H 37.110051 34.846567 57.546855 0
M  V30 43 H 39.290083 34.135277 61.966428 0
M  V30 44 H 39.374441 32.475469 59.630088 0
M  V30 45 H 41.519408 30.323732 64.097180 0
M  V30 46 H 39.173750 26.794489 54.475139 0
M  V30 47 H 39.578531 29.880087 62.588569 0
M  V30 48 H 37.634441 28.404777 54.535468 0
M  V30 49 H 38.519212 31.762631 54.234122 0
M  V30 50 H 37.108843 30.849122 54.769335 0
M  V30 51 H 36.323627 32.570679 61.093625 0
M  V30 52 H 40.109002 28.292193 56.861911 0
M  V30 53 H 37.055224 32.031121 56.539361 0
M  V30 END ATOM
M  V30 BEGIN BOND
M  V30 1 2 4 3
M  V30 2 1 9 1
M  V30 3 1 11 1
M  V30 4 1 12 1
M  V30 5 1 12 2
M  V30 6 1 12 5
M  V30 7 1 14 7
M  V30 8 1 14 8
M  V30 9 2 15 6
M  V30 10 1 15 13
M  V30 11 1 16 4
M  V30 12 1 17 4
M  V30 13 1 18 10
M  V30 14 1 19 15
M  V30 15 2 19 18
M  V30 16 1 20 4
M  V30 17 1 20 9
M  V30 18 1 20 10
M  V30 19 1 21 6
M  V30 20 1 23 18
M  V30 21 2 23 21
M  V30 22 1 24 5
M  V30 23 1 24 7
M  V30 24 1 24 22
M  V30 25 1 25 5
M  V30 26 1 25 11
M  V30 27 1 26 10
M  V30 28 1 27 12
M  V30 29 1 1 28 CFG=1
M  V30 30 1 29 2
M  V30 31 1 5 30 CFG=1
M  V30 32 1 31 7
M  V30 33 1 32 7
M  V30 34 1 33 8
M  V30 35 1 34 8
M  V30 36 1 35 8
M  V30 37 1 36 9
M  V30 38 1 37 9
M  V30 39 1 10 38 CFG=3
M  V30 40 1 39 11
M  V30 41 1 40 14
M  V30 42 1 41 14
M  V30 43 1 42 17
M  V30 44 1 43 19
M  V30 45 1 20 44 CFG=1
M  V30 46 1 45 21
M  V30 47 1 46 22
M  V30 48 1 47 23
M  V30 49 1 24 48 CFG=3
M  V30 50 1 49 25
M  V30 51 1 50 25
M  V30 52 1 51 26
M  V30 53 1 52 27
M  V30 54 1 53 11
M  V30 END BOND
M  V30 END CTAB
M  END
>  <i_epik_Tot_Q>  (1) 
0

>  <i_epik_Tot_abs_Q>  (1) 
2

>  <i_i_glide_confnum>  (1) 
223

>  <i_i_glide_lignum>  (1) 
49

>  <i_i_glide_posenum>  (1) 
258

>  <i_i_glide_rotatable_bonds>  (1) 
13

>  <i_lp_mmshare_version>  (1) 
72125

>  <i_m_source_file_index>  (1) 
21

>  <i_f3d_flags>  (1) 
0

>  <num_sample>  (1) 
100

>  <b_lp_Chiralities_Consistent>  (1) 
1

>  <r_epik_Charging_Adjusted_Penalty>  (1) 
0.5459377507147144

>  <r_epik_Ionization_Penalty>  (1) 
0.54595169612510452

>  <r_epik_Ionization_Penalty_Charging>  (1) 
0.0068991791537532298

>  <r_epik_Ionization_Penalty_Neutral>  (1) 
0.53905251697135126

>  <r_epik_State_Penalty>  (1) 
0.53903857156096113

>  <r_glide_ring_energy>  (1) 
0

>  <r_i_docking_score>  (1) 
-5.6978953009725171

>  <r_i_glide_ecoul>  (1) 
-9.4883403301677305

>  <r_i_glide_eff_state_penalty>  (1) 
0.53903857156096113

>  <r_i_glide_einternal>  (1) 
12.831766690236876

>  <r_i_glide_emodel>  (1) 
-51.192009688962223

>  <r_i_glide_emodel_strain>  (1) 
5.2342884898936717

>  <r_i_glide_energy>  (1) 
-41.910244791119361

>  <r_i_glide_erotb>  (1) 
0.70809137694380864

>  <r_i_glide_esite>  (1) 
-0.11844984519539298

>  <r_i_glide_evdw>  (1) 
-32.42190446095163

>  <r_i_glide_gscore>  (1) 
-6.236933872533478

>  <r_i_glide_gscore_strain>  (1) 
0.30857212247341792

>  <r_i_glide_hbond>  (1) 
-0.78875733494037936

>  <r_i_glide_ligand_efficiency>  (1) 
-0.21103315929527841

>  <r_i_glide_ligand_efficiency_ln>  (1) 
-1.3263760889207787

>  <r_i_glide_ligand_efficiency_sa>  (1) 
-0.63309947788583532

>  <r_i_glide_lipo>  (1) 
-2.0736418986858234

>  <r_i_glide_metal>  (1) 
-0

>  <r_i_glide_rewards>  (1) 
-1.2284020205563659

>  <r_lp_Energy>  (1) 
8.4589179999999988

>  <s_epik_cmdline>  (1) 
J2VwaWtfcHl0aG9uJywgJy1waHQnLCAnMS4wJywgJy1waCcsICc3LjQnLCAnLXRuJywgJzgnLCAnLW1hJywgJzUwMCcsICctaW1hZScsICc8aW5maWxlLm1hZT4nLCAnLW9tYWUnLCAnPG91dGZpbGUubWFlPic=

>  <s_epik_input>  (1) 
W0NIM11bQ0gyXVtDSDJdW0NAQEhdKFtPSF0pW0NASF0xW0NIMl1bTkhdW0NASF0oQzEoW09IXSlbT0hdKVtDSDJdW0NAQEhdKFAoPU8pKFtPSF0pW09IXSlbQ0BIXShbT0hdKWMoW2NIXTIpW2NIXVtjSF1uYzJG

>  <s_glide_docking_method>  (1) 
confgen

>  <s_i_glide_gridfile>  (1) 
gpcr_5ht2c_6bqh_protein_autoprepared_prepared

>  <s_lp_Force_Field>  (1) 
S-OPLS

>  <s_lp_Variant>  (1) 
DiffSBDD_20-3

>  <s_m_source_file>  (1) 
generated_GPCR_5HT2C_ligand_DiffSBDD_2026-06-23_prepared.sdf

>  <GenAI_Model>  (1) 
DiffSBDD

>  <Protein>  (1) 
GPCR_5HT2C

$$$$
DiffSBDD_69
     RDKit          3D

  0  0  0  0  0  0  0  0  0  0999 V3000
M  V30 BEGIN CTAB
M  V30 COUNTS 57 57 0 0 1
M  V30 BEGIN ATOM
M  V30 1 C 37.962650 32.964072 58.515506 0
M  V30 2 N 37.422332 27.551595 53.507776 0 CHG=1
M  V30 3 C 38.323275 32.529973 56.092473 0
M  V30 4 C 38.926225 28.727580 51.915338 0 CFG=1
M  V30 5 C 38.759476 32.987454 57.470653 0
M  V30 6 C 38.761057 28.158713 53.352931 0 CFG=1
M  V30 7 C 37.243908 32.885840 59.615204 0
M  V30 8 C 40.250305 30.336564 50.365812 0
M  V30 9 C 38.333160 30.458096 54.665667 0
M  V30 10 C 39.068460 29.105514 54.551422 0
M  V30 11 C 38.169862 31.990551 61.756090 0
M  V30 12 C 38.579335 35.795315 60.966892 0 CFG=1
M  V30 13 C 38.953629 34.294061 61.006408 0
M  V30 14 C 37.351546 36.206998 60.126466 0
M  V30 15 N 38.824941 31.161261 55.873959 0 CHG=1
M  V30 16 C 36.848435 37.357414 62.223878 0
M  V30 17 C 40.201446 29.581415 51.704180 0
M  V30 18 C 38.901896 27.592414 50.874148 0
M  V30 19 S 38.404720 36.537752 62.615436 0
M  V30 20 C 36.818767 37.516957 60.705560 0
M  V30 21 C 37.782656 33.269800 60.999197 0 CFG=1
M  V30 22 H 36.710579 28.266050 53.481086 0
M  V30 23 H 37.255303 26.903790 52.746605 0
M  V30 24 H 37.245182 32.537336 56.009590 0
M  V30 25 H 38.711712 33.212375 55.336162 0
M  V30 26 H 38.051856 29.337763 51.717062 0
M  V30 27 H 39.775090 33.337709 57.560434 0
M  V30 28 H 39.464440 27.329353 53.445279 0
M  V30 29 H 36.221888 32.534937 59.581028 0
M  V30 30 H 41.137921 30.968448 50.316428 0
M  V30 31 H 40.297982 29.658911 49.513874 0
M  V30 32 H 39.378791 30.978247 50.233197 0
M  V30 33 H 37.254057 30.314473 54.743839 0
M  V30 34 H 38.515942 31.077698 53.786820 0
M  V30 35 H 40.131057 29.337725 54.567310 0
M  V30 36 H 38.901175 28.543377 55.472112 0
M  V30 37 H 37.330773 31.297764 61.816343 0
M  V30 38 H 38.992740 31.473202 61.261867 0
M  V30 39 H 38.485357 32.215558 62.774148 0
M  V30 40 H 39.449380 36.303765 60.567799 0
M  V30 41 H 39.548312 34.142766 61.907936 0
M  V30 42 H 39.660219 34.079072 60.205660 0
M  V30 43 H 37.591704 36.308440 59.069111 0
M  V30 44 H 36.550351 35.473946 60.198993 0
M  V30 45 H 39.833458 31.206073 55.843360 0
M  V30 46 H 36.045178 36.707617 62.567788 0
M  V30 47 H 36.746037 38.306720 62.745490 0
M  V30 48 H 40.304351 30.324614 52.492269 0
M  V30 49 H 41.081657 28.941217 51.767730 0
M  V30 50 H 39.790555 26.966575 50.930087 0
M  V30 51 H 38.045000 26.937715 50.991570 0
M  V30 52 H 38.845141 27.990471 49.862314 0
M  V30 53 H 35.815551 37.737765 60.342011 0
M  V30 54 H 37.465774 38.344103 60.410382 0
M  V30 55 H 36.954174 33.712979 61.553316 0
M  V30 56 H 37.366968 27.048762 54.382177 0
M  V30 57 H 38.549749 30.620876 56.682532 0
M  V30 END ATOM
M  V30 BEGIN BOND
M  V30 1 2 5 1
M  V30 2 1 5 3
M  V30 3 1 6 2
M  V30 4 1 6 4
M  V30 5 2 7 1
M  V30 6 1 10 6
M  V30 7 1 10 9
M  V30 8 1 13 12
M  V30 9 1 14 12
M  V30 10 1 15 3
M  V30 11 1 15 9
M  V30 12 1 17 4
M  V30 13 1 17 8
M  V30 14 1 18 4
M  V30 15 1 19 12
M  V30 16 1 19 16
M  V30 17 1 20 14
M  V30 18 1 20 16
M  V30 19 1 21 7
M  V30 20 1 21 11
M  V30 21 1 21 13
M  V30 22 1 22 2
M  V30 23 1 23 2
M  V30 24 1 24 3
M  V30 25 1 25 3
M  V30 26 1 4 26 CFG=3
M  V30 27 1 27 5
M  V30 28 1 6 28 CFG=3
M  V30 29 1 29 7
M  V30 30 1 30 8
M  V30 31 1 31 8
M  V30 32 1 32 8
M  V30 33 1 33 9
M  V30 34 1 34 9
M  V30 35 1 35 10
M  V30 36 1 36 10
M  V30 37 1 37 11
M  V30 38 1 38 11
M  V30 39 1 39 11
M  V30 40 1 12 40 CFG=3
M  V30 41 1 41 13
M  V30 42 1 42 13
M  V30 43 1 43 14
M  V30 44 1 44 14
M  V30 45 1 45 15
M  V30 46 1 46 16
M  V30 47 1 47 16
M  V30 48 1 48 17
M  V30 49 1 49 17
M  V30 50 1 50 18
M  V30 51 1 51 18
M  V30 52 1 52 18
M  V30 53 1 53 20
M  V30 54 1 54 20
M  V30 55 1 21 55 CFG=1
M  V30 56 1 56 2
M  V30 57 1 57 15
M  V30 END BOND
M  V30 END CTAB
M  END
>  <i_epik_Tot_Q>  (1) 
2

>  <i_epik_Tot_abs_Q>  (1) 
2

>  <i_i_glide_confnum>  (1) 
182

>  <i_i_glide_lignum>  (1) 
153

>  <i_i_glide_posenum>  (1) 
267

>  <i_i_glide_rotatable_bonds>  (1) 
10

>  <i_lp_mmshare_version>  (1) 
72125

>  <i_m_source_file_index>  (1) 
70

>  <i_f3d_flags>  (1) 
0

>  <num_sample>  (1) 
100

>  <b_lp_Chiralities_Consistent>  (1) 
1

>  <r_epik_Charging_Adjusted_Penalty>  (1) 
0.029112061252425856

>  <r_epik_Ionization_Penalty>  (1) 
0.014593894863530521

>  <r_epik_Ionization_Penalty_Charging>  (1) 
0.014593894863530521

>  <r_epik_Ionization_Penalty_Neutral>  (1) 
0

>  <r_epik_State_Penalty>  (1) 
0.014518166388895335

>  <r_glide_ring_energy>  (1) 
0

>  <r_i_docking_score>  (1) 
-5.6963544758649958

>  <r_i_glide_ecoul>  (1) 
-1.6832572908386094

>  <r_i_glide_eff_state_penalty>  (1) 
0.014518166388895335

>  <r_i_glide_einternal>  (1) 
5.6170207997194339

>  <r_i_glide_emodel>  (1) 
-48.060902196686172

>  <r_i_glide_emodel_strain>  (1) 
0.54370443331515617

>  <r_i_glide_energy>  (1) 
-32.75636758300238

>  <r_i_glide_erotb>  (1) 
1.5199289784806138

>  <r_i_glide_esite>  (1) 
-0.028425195078478984

>  <r_i_glide_evdw>  (1) 
-31.073110292163769

>  <r_i_glide_gscore>  (1) 
-5.7108726422538911

>  <r_i_glide_gscore_strain>  (1) 
0

>  <r_i_glide_hbond>  (1) 
0

>  <r_i_glide_ligand_efficiency>  (1) 
-0.27125497504119028

>  <r_i_glide_ligand_efficiency_ln>  (1) 
-1.4084121335895852

>  <r_i_glide_ligand_efficiency_sa>  (1) 
-0.74837190860479741

>  <r_i_glide_lipo>  (1) 
-3.2534533947632123

>  <r_i_glide_metal>  (1) 
-0

>  <r_i_glide_rewards>  (1) 
-2.1427789226588345

>  <r_lp_Energy>  (1) 
-1.0378579999999999

>  <s_epik_cmdline>  (1) 
J2VwaWtfcHl0aG9uJywgJy1waHQnLCAnMS4wJywgJy1waCcsICc3LjQnLCAnLXRuJywgJzgnLCAnLW1hJywgJzUwMCcsICctaW1hZScsICc8aW5maWxlLm1hZT4nLCAnLW9tYWUnLCAnPG91dGZpbGUubWFlPic=

>  <s_epik_input>  (1) 
UzFbQ0gyXVtDSDJdW0NIMl1bQ0BASF0xW0NIMl1bQ0BIXShbQ0gzXSlbQ0hdPUM9W0NIXVtDSDJdW05IXVtDSDJdW0NIMl1bQ0BASF0oW05IMl0pW0NASF0oW0NIM10pW0NIMl1bQ0gzXQ==

>  <s_glide_docking_method>  (1) 
confgen

>  <s_i_glide_gridfile>  (1) 
gpcr_5ht2c_6bqh_protein_autoprepared_prepared

>  <s_lp_Force_Field>  (1) 
S-OPLS

>  <s_lp_Variant>  (1) 
DiffSBDD_69-1

>  <s_m_source_file>  (1) 
generated_GPCR_5HT2C_ligand_DiffSBDD_2026-06-23_prepared.sdf

>  <GenAI_Model>  (1) 
DiffSBDD

>  <Protein>  (1) 
GPCR_5HT2C

$$$$
DiffSBDD_56
     RDKit          3D

  0  0  0  0  0  0  0  0  0  0999 V3000
M  V30 BEGIN CTAB
M  V30 COUNTS 73 78 0 0 1
M  V30 BEGIN ATOM
M  V30 1 C 38.470157 32.170674 61.383449 0 CFG=1
M  V30 2 C 41.252294 34.241578 61.619156 0
M  V30 3 C 38.819996 34.454118 60.884588 0
M  V30 4 C 38.021565 26.758367 56.272483 0
M  V30 5 C 36.143667 30.992378 61.224194 0
M  V30 6 C 41.288741 31.610268 63.182861 0
M  V30 7 C 39.792434 34.196782 62.058093 0 CFG=1
M  V30 8 C 36.970672 32.133087 61.785562 0
M  V30 9 C 41.995076 30.085966 64.981942 0
M  V30 10 C 38.106009 26.739071 54.883900 0
M  V30 11 C 39.375062 30.034945 54.097035 0
M  V30 12 C 38.402335 27.899765 56.993317 0
M  V30 13 C 41.005898 32.623214 64.181313 0
M  V30 14 C 35.820567 30.937480 59.744209 0
M  V30 15 C 38.600461 27.895475 54.185334 0
M  V30 16 C 41.302604 32.337755 65.536019 0
M  V30 17 N 39.987862 31.918652 63.519184 0
M  V30 18 N 37.430513 31.977975 58.205680 0 CFG=1 CHG=1
M  V30 19 F 41.866691 30.784144 67.258396 0
M  V30 20 C 38.690948 33.108199 60.169164 0 CFG=2
M  V30 21 C 41.687860 31.053221 65.942330 0
M  V30 22 C 38.685105 27.306969 51.671663 0
M  V30 23 F 42.474624 28.878365 65.366563 0
M  V30 24 C 38.240850 31.811207 56.980043 0
M  V30 25 C 38.848942 29.005073 56.332792 0
M  V30 26 C 39.309884 32.806222 62.537107 0 CFG=2
M  V30 27 C 41.904427 30.405469 63.614926 0
M  V30 28 S 39.370955 30.427465 57.179953 0
M  V30 29 C 38.845100 28.196005 52.864467 0
M  V30 30 C 39.299645 29.520991 52.842034 0
M  V30 31 C 37.047374 30.732444 58.888982 0
M  V30 32 O 37.718202 25.623809 54.170691 0
M  V30 33 N 38.949284 29.030042 54.980816 0
M  V30 34 C 37.629303 33.196461 59.037240 0
M  V30 35 C 41.645100 35.552267 60.975350 0
M  V30 36 C 37.077462 24.550822 54.864071 0
M  V30 37 O 39.277006 27.951937 50.567601 0
M  V30 38 H 38.853308 31.172394 61.184298 0
M  V30 39 H 41.933602 34.130126 62.458790 0
M  V30 40 H 41.444865 33.391523 60.967760 0
M  V30 41 H 37.854084 34.757615 61.291677 0
M  V30 42 H 39.065307 35.250771 60.193430 0
M  V30 43 H 37.661204 25.889445 56.809399 0
M  V30 44 H 35.200347 30.936773 61.765951 0
M  V30 45 H 36.749731 30.138371 61.441294 0
M  V30 46 H 39.639085 34.952321 62.829551 0
M  V30 47 H 36.967801 31.929827 62.848670 0
M  V30 48 H 36.453342 33.084369 61.658716 0
M  V30 49 H 39.687790 30.996208 54.473464 0
M  V30 50 H 38.344115 27.906212 58.078131 0
M  V30 51 H 35.245142 30.039650 59.555398 0
M  V30 52 H 35.194815 31.770277 59.424254 0
M  V30 53 H 41.244804 33.129506 66.268492 0
M  V30 54 H 39.648846 32.867519 59.706469 0
M  V30 55 H 39.201194 26.359807 51.823568 0
M  V30 56 H 37.645648 27.114209 51.460558 0
M  V30 57 H 37.583236 31.597642 56.138317 0
M  V30 58 H 38.796308 32.716472 56.737970 0
M  V30 59 H 38.553532 33.133720 63.227608 0
M  V30 60 H 42.290536 29.712289 62.884718 0
M  V30 61 H 39.565484 30.042481 51.933549 0
M  V30 62 H 37.865326 30.277476 59.444667 0
M  V30 63 H 36.774771 30.007041 58.120197 0
M  V30 64 H 36.664772 33.498369 59.444882 0
M  V30 65 H 37.894384 34.016203 58.369819 0
M  V30 66 H 42.576666 35.351270 60.452996 0
M  V30 67 H 41.779011 36.330696 61.727753 0
M  V30 68 H 40.928055 35.922487 60.259408 0
M  V30 69 H 36.689935 23.812313 54.167921 0
M  V30 70 H 36.220672 24.895681 55.444385 0
M  V30 71 H 37.775318 24.036234 55.526173 0
M  V30 72 H 40.204296 28.026276 50.729019 0
M  V30 73 H 36.523587 32.147890 57.741943 0
M  V30 END ATOM
M  V30 BEGIN BOND
M  V30 1 1 7 2
M  V30 2 1 7 3
M  V30 3 1 8 1
M  V30 4 1 8 5
M  V30 5 2 10 4
M  V30 6 1 12 4
M  V30 7 2 13 6
M  V30 8 1 14 5
M  V30 9 1 15 10
M  V30 10 1 16 13
M  V30 11 1 17 6
M  V30 12 1 17 13
M  V30 13 1 20 1
M  V30 14 1 20 3
M  V30 15 1 21 9
M  V30 16 2 21 16
M  V30 17 1 21 19
M  V30 18 1 23 9
M  V30 19 1 24 18
M  V30 20 2 25 12
M  V30 21 1 26 1
M  V30 22 1 26 7
M  V30 23 1 26 17
M  V30 24 1 27 6
M  V30 25 2 27 9
M  V30 26 1 28 24
M  V30 27 1 28 25
M  V30 28 2 29 15
M  V30 29 1 29 22
M  V30 30 2 30 11
M  V30 31 1 30 29
M  V30 32 1 31 14
M  V30 33 1 31 18
M  V30 34 1 32 10
M  V30 35 1 33 11
M  V30 36 1 33 15
M  V30 37 1 33 25
M  V30 38 1 34 18
M  V30 39 1 34 20
M  V30 40 1 35 2
M  V30 41 1 36 32
M  V30 42 1 37 22
M  V30 43 1 1 38 CFG=3
M  V30 44 1 39 2
M  V30 45 1 40 2
M  V30 46 1 41 3
M  V30 47 1 42 3
M  V30 48 1 43 4
M  V30 49 1 44 5
M  V30 50 1 45 5
M  V30 51 1 7 46 CFG=1
M  V30 52 1 47 8
M  V30 53 1 48 8
M  V30 54 1 49 11
M  V30 55 1 50 12
M  V30 56 1 51 14
M  V30 57 1 52 14
M  V30 58 1 53 16
M  V30 59 1 20 54 CFG=3
M  V30 60 1 55 22
M  V30 61 1 56 22
M  V30 62 1 57 24
M  V30 63 1 58 24
M  V30 64 1 26 59 CFG=1
M  V30 65 1 60 27
M  V30 66 1 61 30
M  V30 67 1 62 31
M  V30 68 1 63 31
M  V30 69 1 64 34
M  V30 70 1 65 34
M  V30 71 1 66 35
M  V30 72 1 67 35
M  V30 73 1 68 35
M  V30 74 1 69 36
M  V30 75 1 70 36
M  V30 76 1 71 36
M  V30 77 1 72 37
M  V30 78 1 18 73 CFG=3
M  V30 END BOND
M  V30 END CTAB
M  END
>  <i_epik_Tot_Q>  (1) 
1

>  <i_epik_Tot_abs_Q>  (1) 
1

>  <i_i_glide_confnum>  (1) 
283

>  <i_i_glide_lignum>  (1) 
123

>  <i_i_glide_posenum>  (1) 
124

>  <i_i_glide_rotatable_bonds>  (1) 
8

>  <i_lp_mmshare_version>  (1) 
72125

>  <i_m_source_file_index>  (1) 
57

>  <i_f3d_flags>  (1) 
0

>  <num_sample>  (1) 
100

>  <b_lp_Chiralities_Consistent>  (1) 
1

>  <r_epik_Charging_Adjusted_Penalty>  (1) 
1.9649939919035475

>  <r_epik_Ionization_Penalty>  (1) 
0.98409533599364529

>  <r_epik_Ionization_Penalty_Charging>  (1) 
0.98249699595177398

>  <r_epik_Ionization_Penalty_Neutral>  (1) 
0.0015983400418712683

>  <r_epik_State_Penalty>  (1) 
0.98249699595177364

>  <r_glide_ring_energy>  (1) 
0

>  <r_i_docking_score>  (1) 
-5.694999038196201

>  <r_i_glide_ecoul>  (1) 
-4.0743691232982941

>  <r_i_glide_eff_state_penalty>  (1) 
0.98249699595177364

>  <r_i_glide_einternal>  (1) 
8.6100053247896504

>  <r_i_glide_emodel>  (1) 
-29.061170545771127

>  <r_i_glide_emodel_strain>  (1) 
1.1595517396460764

>  <r_i_glide_energy>  (1) 
-29.528250783628202

>  <r_i_glide_erotb>  (1) 
0.36855175673704876

>  <r_i_glide_esite>  (1) 
-0.10000000000000001

>  <r_i_glide_evdw>  (1) 
-25.453881660329909

>  <r_i_glide_gscore>  (1) 
-6.6774960341479748

>  <r_i_glide_gscore_strain>  (1) 
0

>  <r_i_glide_hbond>  (1) 
-0.17195780099843944

>  <r_i_glide_ligand_efficiency>  (1) 
-0.15391889292422165

>  <r_i_glide_ligand_efficiency_ln>  (1) 
-1.2351117816648114

>  <r_i_glide_ligand_efficiency_sa>  (1) 
-0.51289189838324512

>  <r_i_glide_lipo>  (1) 
-3.9525699535198147

>  <r_i_glide_metal>  (1) 
-0

>  <r_i_glide_rewards>  (1) 
-0.93767058485553156

>  <r_lp_Energy>  (1) 
108.178613

>  <s_epik_Chemistry_Notes>  (1) 
This compound contains an acetal/aminal-like group ( X-CH(R)-Y where X, Y are N, S, or O) that may be acid/base labile, releasing an aldehyde.

>  <s_epik_cmdline>  (1) 
J2VwaWtfcHl0aG9uJywgJy1waHQnLCAnMS4wJywgJy1waCcsICc3LjQnLCAnLXRuJywgJzgnLCAnLW1hJywgJzUwMCcsICctaW1hZScsICc8aW5maWxlLm1hZT4nLCAnLW9tYWUnLCAnPG91dGZpbGUubWFlPic=

>  <s_epik_input>  (1) 
RmMoW2NIXTEpYyhGKVtjSF1jKGMxMilOMltDQEhdM1tDQEBIXShbQ0gyXVtDSDNdKVtDSDJdW0NAQEhdKFtDQEBIXTM0KVtDSDJdTihbQ0gyXVtDSDJdW0NIMl1bQ0gyXTQpW0NIMl1TYyhbY0hdW2NIXWM1T1tDSDNdKW4oYzU2KVtjSF1bY0hdYzZbQ0gyXVtPSF0=

>  <s_glide_docking_method>  (1) 
confgen

>  <s_i_glide_gridfile>  (1) 
gpcr_5ht2c_6bqh_protein_autoprepared_prepared

>  <s_lp_Force_Field>  (1) 
S-OPLS

>  <s_lp_Variant>  (1) 
DiffSBDD_56-2

>  <s_m_source_file>  (1) 
generated_GPCR_5HT2C_ligand_DiffSBDD_2026-06-23_prepared.sdf

>  <GenAI_Model>  (1) 
DiffSBDD

>  <Protein>  (1) 
GPCR_5HT2C

$$$$
DiffSBDD_83
     RDKit          3D

  0  0  0  0  0  0  0  0  0  0999 V3000
M  V30 BEGIN CTAB
M  V30 COUNTS 54 55 0 0 1
M  V30 BEGIN ATOM
M  V30 1 C 39.518694 28.904012 51.628409 0
M  V30 2 C 38.471783 32.035124 57.765565 0
M  V30 3 N 38.380428 30.907241 58.478659 0
M  V30 4 O 36.045240 34.918250 60.201687 0
M  V30 5 O 39.855431 28.560460 50.381816 0
M  V30 6 C 38.448163 27.852114 53.629776 0
M  V30 7 C 37.933523 26.637196 54.377945 0
M  V30 8 C 35.897765 32.902128 61.123265 0
M  V30 9 C 39.650029 36.928847 63.640197 0
M  V30 10 C 38.986178 27.737365 52.383584 0
M  V30 11 C 38.115489 33.344248 58.401197 0
M  V30 12 C 39.499062 29.546371 55.262031 0
M  V30 13 N 38.752106 29.960230 57.607276 0
M  V30 14 O 40.045125 29.707161 49.502024 0
M  V30 15 C 38.495139 34.873477 60.547739 0 CFG=1
M  V30 16 C 40.951753 34.892029 61.465740 0
M  V30 17 C 35.395129 33.757759 60.301372 0
M  V30 18 O 39.645143 30.042128 52.080508 0
M  V30 19 C 37.086993 34.669213 61.179370 0 CFG=2
M  V30 20 C 38.909009 31.791549 56.422907 0
M  V30 21 O 36.986653 33.338716 61.756964 0
M  V30 22 C 39.346212 36.693757 62.154587 0
M  V30 23 C 39.465755 35.207962 61.730673 0 CFG=1
M  V30 24 C 39.075511 30.441214 56.374029 0
M  V30 25 Cl 35.245109 31.337809 61.367752 0
M  V30 26 C 38.301220 29.177188 54.377781 0
M  V30 27 C 38.902987 33.618087 59.709577 0
M  V30 28 H 38.771051 28.985231 57.867580 0
M  V30 29 H 38.494971 26.488451 55.300611 0
M  V30 30 H 36.881176 26.763681 54.632070 0
M  V30 31 H 38.025103 25.736370 53.774760 0
M  V30 32 H 39.645177 37.992941 63.874884 0
M  V30 33 H 38.905005 36.450104 64.274901 0
M  V30 34 H 40.627974 36.537774 63.922066 0
M  V30 35 H 39.036433 26.768776 51.906680 0
M  V30 36 H 38.293965 34.137738 57.681168 0
M  V30 37 H 37.044540 33.342708 58.538727 0
M  V30 38 H 39.951116 28.645225 55.677960 0
M  V30 39 H 40.276068 30.031836 54.670523 0
M  V30 40 H 39.150382 29.852436 49.209543 0
M  V30 41 H 38.439753 35.743197 59.893017 0
M  V30 42 H 41.313271 35.389681 60.567763 0
M  V30 43 H 41.583745 35.223321 62.289288 0
M  V30 44 H 41.121233 33.819521 61.367813 0
M  V30 45 H 34.529464 33.658503 59.662205 0
M  V30 46 H 36.896761 35.379370 61.985536 0
M  V30 47 H 39.066202 32.501573 55.624669 0
M  V30 48 H 40.014133 37.305275 61.548688 0
M  V30 49 H 38.346326 37.079521 61.956139 0
M  V30 50 H 39.177335 34.584159 62.578373 0
M  V30 51 H 37.982705 30.010324 53.754709 0
M  V30 52 H 37.439158 29.037947 55.032396 0
M  V30 53 H 38.875286 32.738166 60.352244 0
M  V30 54 H 39.940502 33.711608 59.397968 0
M  V30 END ATOM
M  V30 BEGIN BOND
M  V30 1 2 3 2
M  V30 2 1 5 1
M  V30 3 1 7 6
M  V30 4 1 10 1
M  V30 5 2 10 6
M  V30 6 1 11 2
M  V30 7 1 13 3
M  V30 8 1 14 5
M  V30 9 1 17 4
M  V30 10 2 17 8
M  V30 11 2 18 1
M  V30 12 1 19 4
M  V30 13 1 19 15
M  V30 14 1 20 2
M  V30 15 1 21 8
M  V30 16 1 21 19
M  V30 17 1 22 9
M  V30 18 1 23 15
M  V30 19 1 23 16
M  V30 20 1 23 22
M  V30 21 1 24 12
M  V30 22 1 24 13
M  V30 23 2 24 20
M  V30 24 1 25 8
M  V30 25 1 26 6
M  V30 26 1 26 12
M  V30 27 1 27 11
M  V30 28 1 27 15
M  V30 29 1 28 13
M  V30 30 1 29 7
M  V30 31 1 30 7
M  V30 32 1 31 7
M  V30 33 1 32 9
M  V30 34 1 33 9
M  V30 35 1 34 9
M  V30 36 1 35 10
M  V30 37 1 36 11
M  V30 38 1 37 11
M  V30 39 1 38 12
M  V30 40 1 39 12
M  V30 41 1 40 14
M  V30 42 1 15 41 CFG=3
M  V30 43 1 42 16
M  V30 44 1 43 16
M  V30 45 1 44 16
M  V30 46 1 45 17
M  V30 47 1 19 46 CFG=1
M  V30 48 1 47 20
M  V30 49 1 48 22
M  V30 50 1 49 22
M  V30 51 1 23 50 CFG=1
M  V30 52 1 51 26
M  V30 53 1 52 26
M  V30 54 1 53 27
M  V30 55 1 54 27
M  V30 END BOND
M  V30 END CTAB
M  END
>  <i_epik_Tot_Q>  (1) 
0

>  <i_epik_Tot_abs_Q>  (1) 
0

>  <i_i_glide_confnum>  (1) 
127

>  <i_i_glide_lignum>  (1) 
196

>  <i_i_glide_posenum>  (1) 
361

>  <i_i_glide_rotatable_bonds>  (1) 
12

>  <i_lp_mmshare_version>  (1) 
72125

>  <i_m_source_file_index>  (1) 
84

>  <i_f3d_flags>  (1) 
0

>  <num_sample>  (1) 
100

>  <b_lp_Chiralities_Consistent>  (1) 
1

>  <r_epik_Charging_Adjusted_Penalty>  (1) 
0.41067983895260396

>  <r_epik_Ionization_Penalty>  (1) 
0.00090540554532319911

>  <r_epik_Ionization_Penalty_Charging>  (1) 
0

>  <r_epik_Ionization_Penalty_Neutral>  (1) 
0.00090540554532319911

>  <r_epik_State_Penalty>  (1) 
0.41067983895260396

>  <r_glide_ring_energy>  (1) 
0

>  <r_i_docking_score>  (1) 
-5.6895279510323773

>  <r_i_glide_ecoul>  (1) 
-4.1948391976314863

>  <r_i_glide_eff_state_penalty>  (1) 
0.41067983895260396

>  <r_i_glide_einternal>  (1) 
9.6466504768178183

>  <r_i_glide_emodel>  (1) 
-55.213250304755668

>  <r_i_glide_emodel_strain>  (1) 
1.3496749458512411

>  <r_i_glide_energy>  (1) 
-45.481325575703011

>  <r_i_glide_erotb>  (1) 
1.1080255732668134

>  <r_i_glide_esite>  (1) 
-0.018705241598313865

>  <r_i_glide_evdw>  (1) 
-41.286486378071523

>  <r_i_glide_gscore>  (1) 
-6.1002077899849816

>  <r_i_glide_gscore_strain>  (1) 
0

>  <r_i_glide_hbond>  (1) 
-0.32000000000000001

>  <r_i_glide_ligand_efficiency>  (1) 
-0.2107232574456436

>  <r_i_glide_ligand_efficiency_ln>  (1) 
-1.3244283078012589

>  <r_i_glide_ligand_efficiency_sa>  (1) 
-0.63216977233693095

>  <r_i_glide_lipo>  (1) 
-2.5828573881343071

>  <r_i_glide_metal>  (1) 
-0

>  <r_i_glide_rewards>  (1) 
-1.5931205349708746

>  <r_lp_Energy>  (1) 
14.869823999999999

>  <r_lp_tautomer_probability>  (1) 
0.5

>  <s_epik_Chemistry_Notes>  (1) 
This compound contains an acetal/aminal-like group ( X-CH(R)-Y where X, Y are N, S, or O) that may be acid/base labile, releasing an aldehyde.

>  <s_epik_cmdline>  (1) 
J2VwaWtfcHl0aG9uJywgJy1waHQnLCAnMS4wJywgJy1waCcsICc3LjQnLCAnLXRuJywgJzgnLCAnLW1hJywgJzUwMCcsICctaW1hZScsICc8aW5maWxlLm1hZT4nLCAnLW9tYWUnLCAnPG91dGZpbGUubWFlPic=

>  <s_epik_input>  (1) 
W09IXU9DKD1PKVxbQ0hdPUMoXFtDSDNdKVtDSDJdW0NIMl1jKFtjSF0xKW5bbkhdYzFbQ0gyXVtDSDJdW0NASF0oW0NAQEhdKFtDSDNdKVtDSDJdW0NIM10pW0NAQEhdKE8yKU9bQ0hdPUMyQ2w=

>  <s_glide_docking_method>  (1) 
confgen

>  <s_i_glide_gridfile>  (1) 
gpcr_5ht2c_6bqh_protein_autoprepared_prepared

>  <s_lp_Force_Field>  (1) 
S-OPLS

>  <s_lp_Variant>  (1) 
DiffSBDD_83-7

>  <s_m_source_file>  (1) 
generated_GPCR_5HT2C_ligand_DiffSBDD_2026-06-23_prepared.sdf

>  <GenAI_Model>  (1) 
DiffSBDD

>  <Protein>  (1) 
GPCR_5HT2C

$$$$
DiffSBDD_56
     RDKit          3D

  0  0  0  0  0  0  0  0  0  0999 V3000
M  V30 BEGIN CTAB
M  V30 COUNTS 73 78 0 0 1
M  V30 BEGIN ATOM
M  V30 1 C 40.012957 33.790282 62.840620 0 CFG=1
M  V30 2 C 41.254110 30.460832 62.878933 0
M  V30 3 C 41.308334 32.424078 61.275284 0
M  V30 4 C 38.233752 28.699572 58.051477 0
M  V30 5 C 38.858345 36.224591 62.800638 0
M  V30 6 C 41.801407 31.903086 65.473689 0
M  V30 7 C 41.711842 31.928653 62.645260 0 CFG=1
M  V30 8 C 40.133782 35.344709 62.912707 0
M  V30 9 C 41.351124 31.902376 67.886277 0
M  V30 10 C 38.435121 28.267883 56.745229 0
M  V30 11 C 38.777656 31.356117 54.894513 0
M  V30 12 C 38.197192 30.075776 58.355158 0
M  V30 13 C 42.309055 33.246045 65.584428 0
M  V30 14 C 38.038536 36.235061 61.492962 0
M  V30 15 C 38.610338 29.231854 55.700473 0
M  V30 16 C 42.352010 33.845916 66.858702 0
M  V30 17 N 41.076321 32.971574 64.969582 0
M  V30 18 N 38.199940 34.289835 59.920297 0 CFG=1 CHG=1
M  V30 19 F 41.798259 33.852910 69.178878 0
M  V30 20 C 39.965522 33.166653 61.424570 0 CFG=2
M  V30 21 C 41.799185 33.219026 67.980510 0
M  V30 22 C 38.899257 27.911489 53.499601 0
M  V30 23 F 40.927253 31.254866 68.990666 0
M  V30 24 C 37.526683 33.128340 59.276928 0
M  V30 25 C 38.361915 31.002727 57.359738 0
M  V30 26 C 41.239191 33.118994 63.518172 0 CFG=2
M  V30 27 C 41.439518 31.221311 66.661163 0
M  V30 28 S 38.317257 32.754248 57.666748 0
M  V30 29 C 38.815989 29.145584 54.344723 0
M  V30 30 C 38.929181 30.458945 53.879034 0
M  V30 31 C 37.434730 34.894473 61.034042 0
M  V30 32 O 38.471382 26.920427 56.438252 0
M  V30 33 N 38.570377 30.616852 56.070259 0
M  V30 34 C 39.645471 34.084778 60.217340 0
M  V30 35 C 39.759026 30.169814 62.929316 0
M  V30 36 C 38.229648 25.949732 57.448086 0
M  V30 37 O 37.573404 27.636362 53.099044 0
M  V30 38 H 39.121704 33.446591 63.361128 0
M  V30 39 H 41.643413 29.840013 62.068948 0
M  V30 40 H 41.728753 30.053340 63.771121 0
M  V30 41 H 42.100718 33.097018 60.970843 0
M  V30 42 H 41.255701 31.605036 60.568257 0
M  V30 43 H 38.101663 27.976856 58.846345 0
M  V30 44 H 39.204879 37.249675 62.932115 0
M  V30 45 H 38.195877 36.089924 63.652287 0
M  V30 46 H 42.801634 31.911021 62.699730 0
M  V30 47 H 40.536679 35.577404 63.901259 0
M  V30 48 H 40.900542 35.700254 62.223079 0
M  V30 49 H 38.789785 32.436010 54.923409 0
M  V30 50 H 38.040355 30.395481 59.374487 0
M  V30 51 H 37.209894 36.925990 61.653234 0
M  V30 52 H 38.615388 36.694401 60.692343 0
M  V30 53 H 42.842177 34.795168 66.968926 0
M  V30 54 H 39.187867 32.409106 61.451292 0
M  V30 55 H 39.515268 28.074170 52.616847 0
M  V30 56 H 39.321045 27.066987 54.042543 0
M  V30 57 H 37.533242 32.284356 59.959862 0
M  V30 58 H 36.481398 33.363814 59.069805 0
M  V30 59 H 42.037911 33.853495 63.376604 0
M  V30 60 H 41.229670 30.159519 66.626470 0
M  V30 61 H 39.105095 30.706320 52.843455 0
M  V30 62 H 37.321891 34.192311 61.852880 0
M  V30 63 H 36.426908 35.084838 60.666220 0
M  V30 64 H 40.168146 35.039486 60.273847 0
M  V30 65 H 40.047035 33.636122 59.328273 0
M  V30 66 H 39.650561 29.098359 63.062780 0
M  V30 67 H 39.244158 30.384217 61.997487 0
M  V30 68 H 39.260289 30.684904 63.748864 0
M  V30 69 H 38.276628 24.953876 57.007443 0
M  V30 70 H 37.235593 26.071647 57.878774 0
M  V30 71 H 38.979312 25.994592 58.239462 0
M  V30 72 H 37.561297 26.880000 52.528977 0
M  V30 73 H 38.182017 34.997355 59.198625 0
M  V30 END ATOM
M  V30 BEGIN BOND
M  V30 1 1 7 2
M  V30 2 1 7 3
M  V30 3 1 8 1
M  V30 4 1 8 5
M  V30 5 2 10 4
M  V30 6 1 12 4
M  V30 7 2 13 6
M  V30 8 1 14 5
M  V30 9 1 15 10
M  V30 10 1 16 13
M  V30 11 1 17 6
M  V30 12 1 17 13
M  V30 13 1 20 1
M  V30 14 1 20 3
M  V30 15 1 21 9
M  V30 16 2 21 16
M  V30 17 1 21 19
M  V30 18 1 23 9
M  V30 19 1 24 18
M  V30 20 2 25 12
M  V30 21 1 26 1
M  V30 22 1 26 7
M  V30 23 1 26 17
M  V30 24 1 27 6
M  V30 25 2 27 9
M  V30 26 1 28 24
M  V30 27 1 28 25
M  V30 28 2 29 15
M  V30 29 1 29 22
M  V30 30 2 30 11
M  V30 31 1 30 29
M  V30 32 1 31 14
M  V30 33 1 31 18
M  V30 34 1 32 10
M  V30 35 1 33 11
M  V30 36 1 33 15
M  V30 37 1 33 25
M  V30 38 1 34 18
M  V30 39 1 34 20
M  V30 40 1 35 2
M  V30 41 1 36 32
M  V30 42 1 37 22
M  V30 43 1 1 38 CFG=1
M  V30 44 1 39 2
M  V30 45 1 40 2
M  V30 46 1 41 3
M  V30 47 1 42 3
M  V30 48 1 43 4
M  V30 49 1 44 5
M  V30 50 1 45 5
M  V30 51 1 7 46 CFG=3
M  V30 52 1 47 8
M  V30 53 1 48 8
M  V30 54 1 49 11
M  V30 55 1 50 12
M  V30 56 1 51 14
M  V30 57 1 52 14
M  V30 58 1 53 16
M  V30 59 1 20 54 CFG=1
M  V30 60 1 55 22
M  V30 61 1 56 22
M  V30 62 1 57 24
M  V30 63 1 58 24
M  V30 64 1 26 59 CFG=1
M  V30 65 1 60 27
M  V30 66 1 61 30
M  V30 67 1 62 31
M  V30 68 1 63 31
M  V30 69 1 64 34
M  V30 70 1 65 34
M  V30 71 1 66 35
M  V30 72 1 67 35
M  V30 73 1 68 35
M  V30 74 1 69 36
M  V30 75 1 70 36
M  V30 76 1 71 36
M  V30 77 1 72 37
M  V30 78 1 18 73 CFG=3
M  V30 END BOND
M  V30 END CTAB
M  END
>  <i_epik_Tot_Q>  (1) 
1

>  <i_epik_Tot_abs_Q>  (1) 
1

>  <i_i_glide_confnum>  (1) 
230

>  <i_i_glide_lignum>  (1) 
123

>  <i_i_glide_posenum>  (1) 
325

>  <i_i_glide_rotatable_bonds>  (1) 
8

>  <i_lp_mmshare_version>  (1) 
72125

>  <i_m_source_file_index>  (1) 
57

>  <i_f3d_flags>  (1) 
0

>  <num_sample>  (1) 
100

>  <b_lp_Chiralities_Consistent>  (1) 
1

>  <r_epik_Charging_Adjusted_Penalty>  (1) 
1.9649939919035475

>  <r_epik_Ionization_Penalty>  (1) 
0.98409533599364529

>  <r_epik_Ionization_Penalty_Charging>  (1) 
0.98249699595177398

>  <r_epik_Ionization_Penalty_Neutral>  (1) 
0.0015983400418712683

>  <r_epik_State_Penalty>  (1) 
0.98249699595177364

>  <r_glide_ring_energy>  (1) 
0

>  <r_i_docking_score>  (1) 
-5.6830733027829723

>  <r_i_glide_ecoul>  (1) 
-1.3030334969580792

>  <r_i_glide_eff_state_penalty>  (1) 
0.98249699595177364

>  <r_i_glide_einternal>  (1) 
6.333625781034776

>  <r_i_glide_emodel>  (1) 
-40.495065336238383

>  <r_i_glide_emodel_strain>  (1) 
4.3909656679713862

>  <r_i_glide_energy>  (1) 
-43.064295015457269

>  <r_i_glide_erotb>  (1) 
0.36855175673704876

>  <r_i_glide_esite>  (1) 
-0.042770410848576565

>  <r_i_glide_evdw>  (1) 
-41.76126151849919

>  <r_i_glide_gscore>  (1) 
-6.665570298734746

>  <r_i_glide_gscore_strain>  (1) 
0.097741416992846553

>  <r_i_glide_hbond>  (1) 
-0.033204928554043181

>  <r_i_glide_ligand_efficiency>  (1) 
-0.15359657575089114

>  <r_i_glide_ligand_efficiency_ln>  (1) 
-1.2325253692325873

>  <r_i_glide_ligand_efficiency_sa>  (1) 
-0.51181786605511248

>  <r_i_glide_lipo>  (1) 
-3.9862316423135202

>  <r_i_glide_metal>  (1) 
-0

>  <r_i_glide_rewards>  (1) 
-0.78613839027983068

>  <r_lp_Energy>  (1) 
108.178613

>  <s_epik_Chemistry_Notes>  (1) 
This compound contains an acetal/aminal-like group ( X-CH(R)-Y where X, Y are N, S, or O) that may be acid/base labile, releasing an aldehyde.

>  <s_epik_cmdline>  (1) 
J2VwaWtfcHl0aG9uJywgJy1waHQnLCAnMS4wJywgJy1waCcsICc3LjQnLCAnLXRuJywgJzgnLCAnLW1hJywgJzUwMCcsICctaW1hZScsICc8aW5maWxlLm1hZT4nLCAnLW9tYWUnLCAnPG91dGZpbGUubWFlPic=

>  <s_epik_input>  (1) 
RmMoW2NIXTEpYyhGKVtjSF1jKGMxMilOMltDQEhdM1tDQEBIXShbQ0gyXVtDSDNdKVtDSDJdW0NAQEhdKFtDQEBIXTM0KVtDSDJdTihbQ0gyXVtDSDJdW0NIMl1bQ0gyXTQpW0NIMl1TYyhbY0hdW2NIXWM1T1tDSDNdKW4oYzU2KVtjSF1bY0hdYzZbQ0gyXVtPSF0=

>  <s_glide_docking_method>  (1) 
confgen

>  <s_i_glide_gridfile>  (1) 
gpcr_5ht2c_6bqh_protein_autoprepared_prepared

>  <s_lp_Force_Field>  (1) 
S-OPLS

>  <s_lp_Variant>  (1) 
DiffSBDD_56-2

>  <s_m_source_file>  (1) 
generated_GPCR_5HT2C_ligand_DiffSBDD_2026-06-23_prepared.sdf

>  <GenAI_Model>  (1) 
DiffSBDD

>  <Protein>  (1) 
GPCR_5HT2C

$$$$
DiffSBDD_82
     RDKit          3D

  0  0  0  0  0  0  0  0  0  0999 V3000
M  V30 BEGIN CTAB
M  V30 COUNTS 37 38 0 0 1
M  V30 BEGIN ATOM
M  V30 1 C 39.593700 27.825949 57.019225 0 CFG=2
M  V30 2 O 40.309959 29.048896 61.661172 0
M  V30 3 C 39.794780 27.323552 58.449960 0 CFG=2
M  V30 4 O 38.482302 28.830256 59.771132 0
M  V30 5 C 37.890597 30.931758 57.712039 0
M  V30 6 C 39.203534 29.246850 56.580959 0 CFG=2
M  V30 7 C 38.673674 28.371280 54.233290 0
M  V30 8 C 38.605452 26.863388 57.640900 0
M  V30 9 O 37.929882 29.658891 57.062352 0
M  V30 10 N 40.473900 28.137532 60.588678 0
M  V30 11 C 39.273547 29.360040 55.056451 0
M  V30 12 F 38.007274 27.330717 54.787936 0
M  V30 13 C 37.896180 33.480034 57.514801 0
M  V30 14 C 39.478298 29.536950 52.251042 0
M  V30 15 C 39.952445 30.445468 54.460934 0
M  V30 16 C 40.043825 30.536116 53.061457 0
M  V30 17 C 39.510718 28.165971 59.651686 0
M  V30 18 C 38.783683 28.461621 52.834377 0
M  V30 19 Cl 39.645135 29.626136 50.547158 0
M  V30 20 C 38.061692 32.144130 56.780149 0
M  V30 21 H 40.337169 27.396638 56.349070 0
M  V30 22 H 40.906388 28.738710 62.326420 0
M  V30 23 H 40.601511 26.603647 58.567439 0
M  V30 24 H 36.927299 30.991492 58.216328 0
M  V30 25 H 38.644017 30.985192 58.496898 0
M  V30 26 H 39.981112 29.893391 56.990454 0
M  V30 27 H 38.620979 25.830629 57.301015 0
M  V30 28 H 37.616203 27.243384 57.888302 0
M  V30 29 H 41.392352 27.713879 60.585405 0
M  V30 30 H 38.032709 34.316621 56.831659 0
M  V30 31 H 36.903721 33.565025 57.952742 0
M  V30 32 H 38.624692 33.575292 58.320125 0
M  V30 33 H 40.415931 31.200462 55.076399 0
M  V30 34 H 40.571397 31.359544 52.607360 0
M  V30 35 H 38.341831 27.699562 52.208175 0
M  V30 36 H 39.056614 32.144502 56.352477 0
M  V30 37 H 37.358211 32.084678 55.948669 0
M  V30 END ATOM
M  V30 BEGIN BOND
M  V30 1 1 3 1
M  V30 2 1 6 1
M  V30 3 1 8 1
M  V30 4 1 8 3
M  V30 5 1 9 5
M  V30 6 1 9 6
M  V30 7 1 10 2
M  V30 8 1 11 6
M  V30 9 2 11 7
M  V30 10 1 12 7
M  V30 11 1 15 11
M  V30 12 1 16 14
M  V30 13 2 16 15
M  V30 14 1 17 3
M  V30 15 2 17 4
M  V30 16 1 17 10
M  V30 17 1 18 7
M  V30 18 2 18 14
M  V30 19 1 19 14
M  V30 20 1 20 5
M  V30 21 1 20 13
M  V30 22 1 1 21 CFG=3
M  V30 23 1 22 2
M  V30 24 1 3 23 CFG=3
M  V30 25 1 24 5
M  V30 26 1 25 5
M  V30 27 1 6 26 CFG=1
M  V30 28 1 27 8
M  V30 29 1 28 8
M  V30 30 1 29 10
M  V30 31 1 30 13
M  V30 32 1 31 13
M  V30 33 1 32 13
M  V30 34 1 33 15
M  V30 35 1 34 16
M  V30 36 1 35 18
M  V30 37 1 36 20
M  V30 38 1 37 20
M  V30 END BOND
M  V30 END CTAB
M  END
>  <i_epik_Tot_Q>  (1) 
0

>  <i_epik_Tot_abs_Q>  (1) 
0

>  <i_i_glide_confnum>  (1) 
50

>  <i_i_glide_lignum>  (1) 
189

>  <i_i_glide_posenum>  (1) 
13

>  <i_i_glide_rotatable_bonds>  (1) 
8

>  <i_lp_mmshare_version>  (1) 
72125

>  <i_m_source_file_index>  (1) 
83

>  <i_f3d_flags>  (1) 
0

>  <num_sample>  (1) 
100

>  <b_lp_Chiralities_Consistent>  (1) 
1

>  <r_epik_Charging_Adjusted_Penalty>  (1) 
0

>  <r_epik_Ionization_Penalty>  (1) 
0.011497294520252079

>  <r_epik_Ionization_Penalty_Charging>  (1) 
0

>  <r_epik_Ionization_Penalty_Neutral>  (1) 
0.011497294520252079

>  <r_epik_State_Penalty>  (1) 
-0

>  <r_glide_ring_energy>  (1) 
0

>  <r_i_docking_score>  (1) 
-5.682841221558304

>  <r_i_glide_ecoul>  (1) 
-1.9050145339971258

>  <r_i_glide_eff_state_penalty>  (1) 
-0

>  <r_i_glide_einternal>  (1) 
6.9333539528653034

>  <r_i_glide_emodel>  (1) 
-39.039662768879353

>  <r_i_glide_emodel_strain>  (1) 
1.216242331510621

>  <r_i_glide_energy>  (1) 
-31.311004224735555

>  <r_i_glide_erotb>  (1) 
1.2126053731810509

>  <r_i_glide_esite>  (1) 
0

>  <r_i_glide_evdw>  (1) 
-29.40598969073843

>  <r_i_glide_gscore>  (1) 
-5.682841221558304

>  <r_i_glide_gscore_strain>  (1) 
0

>  <r_i_glide_hbond>  (1) 
0

>  <r_i_glide_ligand_efficiency>  (1) 
-0.28414206107791518

>  <r_i_glide_ligand_efficiency_ln>  (1) 
-1.4222277251082489

>  <r_i_glide_ligand_efficiency_sa>  (1) 
-0.77128021620547904

>  <r_i_glide_lipo>  (1) 
-2.5166081016245236

>  <r_i_glide_metal>  (1) 
-0

>  <r_i_glide_rewards>  (1) 
-2.6227868284783411

>  <r_lp_Energy>  (1) 
29.806459999999998

>  <r_lp_tautomer_probability>  (1) 
1

>  <s_epik_Chemistry_Notes>  (1) 
This compound has a N-S or N-O group and may undergo hydrolysis at high or low pH.

>  <s_epik_cmdline>  (1) 
J2VwaWtfcHl0aG9uJywgJy1waHQnLCAnMS4wJywgJy1waCcsICc3LjQnLCAnLXRuJywgJzgnLCAnLW1hJywgJzUwMCcsICctaW1hZScsICc8aW5maWxlLm1hZT4nLCAnLW9tYWUnLCAnPG91dGZpbGUubWFlPic=

>  <s_epik_input>  (1) 
W09IXVtOSF1DKD1PKVtDQEBIXShbQ0gyXTEpW0NAQEhdMVtDQEhdKE9bQ0gyXVtDSDJdW0NIM10pYyhjMkYpW2NIXVtjSF1jKENsKVtjSF0y

>  <s_glide_docking_method>  (1) 
confgen

>  <s_i_glide_gridfile>  (1) 
gpcr_5ht2c_6bqh_protein_autoprepared_prepared

>  <s_lp_Force_Field>  (1) 
S-OPLS

>  <s_lp_Variant>  (1) 
DiffSBDD_82-1

>  <s_m_source_file>  (1) 
generated_GPCR_5HT2C_ligand_DiffSBDD_2026-06-23_prepared.sdf

>  <GenAI_Model>  (1) 
DiffSBDD

>  <Protein>  (1) 
GPCR_5HT2C

$$$$
DiffSBDD_33
     RDKit          3D

  0  0  0  0  0  0  0  0  0  0999 V3000
M  V30 BEGIN CTAB
M  V30 COUNTS 36 39 0 0 1
M  V30 BEGIN ATOM
M  V30 1 O 36.845140 31.127869 58.967760 0
M  V30 2 C 38.589038 31.799583 55.774484 0
M  V30 3 C 40.045127 30.461172 50.388801 0
M  V30 4 C 39.558859 29.838695 52.846483 0
M  V30 5 C 38.182541 31.436350 58.630070 0 CFG=2
M  V30 6 O 38.623886 28.613543 51.113305 0
M  V30 7 C 38.570913 28.761964 57.110579 0 CFG=2
M  V30 8 C 38.256548 32.829654 57.925705 0
M  V30 9 N 38.732869 29.456087 55.845359 0
M  V30 10 C 38.034605 28.101087 52.304525 0
M  V30 11 C 38.835415 28.665532 53.484061 0 CFG=2
M  V30 12 F 40.845137 28.537782 51.367763 0
M  V30 13 C 38.737423 30.609033 56.338717 0
M  V30 14 C 38.811664 30.346893 57.726790 0 CFG=1
M  V30 15 C 39.454602 29.100167 58.292212 0
M  V30 16 C 39.796659 29.348573 51.414223 0 CFG=1
M  V30 17 C 37.950280 29.033276 54.689086 0
M  V30 18 C 38.445136 32.968041 56.589640 0
M  V30 19 H 36.284548 31.337765 58.215795 0
M  V30 20 H 38.519122 31.885708 54.702308 0
M  V30 21 H 39.245182 31.198306 50.378843 0
M  V30 22 H 40.975018 30.987152 50.605712 0
M  V30 23 H 40.124736 30.047753 49.383075 0
M  V30 24 H 38.904472 30.704833 52.860416 0
M  V30 25 H 40.463487 30.137724 53.372134 0
M  V30 26 H 38.765144 31.486365 59.550105 0
M  V30 27 H 37.567333 28.367122 57.262104 0
M  V30 28 H 38.129796 33.703249 58.548112 0
M  V30 29 H 38.045105 27.010725 52.299509 0
M  V30 30 H 36.992888 28.423442 52.333538 0
M  V30 31 H 39.568641 27.916196 53.785778 0
M  V30 32 H 39.112267 28.756879 59.266336 0
M  V30 33 H 40.528492 29.002549 58.146308 0
M  V30 34 H 37.356480 28.162141 54.967082 0
M  V30 35 H 37.233472 29.809448 54.415022 0
M  V30 36 H 38.456542 33.950444 56.140592 0
M  V30 END ATOM
M  V30 BEGIN BOND
M  V30 1 1 5 1
M  V30 2 1 8 5
M  V30 3 1 9 7
M  V30 4 1 10 6
M  V30 5 1 11 4
M  V30 6 1 11 10
M  V30 7 2 13 2
M  V30 8 1 13 9
M  V30 9 1 14 5
M  V30 10 1 14 7
M  V30 11 1 14 13
M  V30 12 1 15 7
M  V30 13 1 14 15 CFG=1
M  V30 14 1 16 3
M  V30 15 1 16 4
M  V30 16 1 16 6
M  V30 17 1 16 12 CFG=1
M  V30 18 1 17 9
M  V30 19 1 17 11
M  V30 20 1 18 2
M  V30 21 2 18 8
M  V30 22 1 19 1
M  V30 23 1 20 2
M  V30 24 1 21 3
M  V30 25 1 22 3
M  V30 26 1 23 3
M  V30 27 1 24 4
M  V30 28 1 25 4
M  V30 29 1 5 26 CFG=1
M  V30 30 1 7 27 CFG=3
M  V30 31 1 28 8
M  V30 32 1 29 10
M  V30 33 1 30 10
M  V30 34 1 11 31 CFG=1
M  V30 35 1 32 15
M  V30 36 1 33 15
M  V30 37 1 34 17
M  V30 38 1 35 17
M  V30 39 1 36 18
M  V30 END BOND
M  V30 END CTAB
M  END
>  <i_epik_Tot_Q>  (1) 
0

>  <i_epik_Tot_abs_Q>  (1) 
0

>  <i_i_glide_confnum>  (1) 
30

>  <i_i_glide_lignum>  (1) 
77

>  <i_i_glide_posenum>  (1) 
125

>  <i_i_glide_rotatable_bonds>  (1) 
3

>  <i_lp_mmshare_version>  (1) 
72125

>  <i_m_source_file_index>  (1) 
34

>  <i_f3d_flags>  (1) 
0

>  <num_sample>  (1) 
100

>  <b_lp_Chiralities_Consistent>  (1) 
1

>  <r_epik_Charging_Adjusted_Penalty>  (1) 
0

>  <r_epik_Ionization_Penalty>  (1) 
1.6271736615724652e-05

>  <r_epik_Ionization_Penalty_Charging>  (1) 
0

>  <r_epik_Ionization_Penalty_Neutral>  (1) 
1.6271736615724652e-05

>  <r_epik_State_Penalty>  (1) 
-0

>  <r_glide_ring_energy>  (1) 
0

>  <r_i_docking_score>  (1) 
-5.6815641384069195

>  <r_i_glide_ecoul>  (1) 
-4.0500381025485321

>  <r_i_glide_eff_state_penalty>  (1) 
-0

>  <r_i_glide_einternal>  (1) 
5.9136385703672527

>  <r_i_glide_emodel>  (1) 
-35.012734030695427

>  <r_i_glide_emodel_strain>  (1) 
0.031179564983858654

>  <r_i_glide_energy>  (1) 
-28.701537227154041

>  <r_i_glide_erotb>  (1) 
0.55502837294367569

>  <r_i_glide_esite>  (1) 
0

>  <r_i_glide_evdw>  (1) 
-24.651499124605508

>  <r_i_glide_gscore>  (1) 
-5.6815641384069195

>  <r_i_glide_gscore_strain>  (1) 
0

>  <r_i_glide_hbond>  (1) 
-0.16

>  <r_i_glide_ligand_efficiency>  (1) 
-0.31564245213371778

>  <r_i_glide_ligand_efficiency_ln>  (1) 
-1.4604167652809088

>  <r_i_glide_ligand_efficiency_sa>  (1) 
-0.82721724007643438

>  <r_i_glide_lipo>  (1) 
-1.9558332127127034

>  <r_i_glide_metal>  (1) 
-0

>  <r_i_glide_rewards>  (1) 
-2.2806786270253361

>  <r_lp_Energy>  (1) 
31.382234999999998

>  <r_lp_tautomer_probability>  (1) 
1

>  <s_epik_cmdline>  (1) 
J2VwaWtfcHl0aG9uJywgJy1waHQnLCAnMS4wJywgJy1waCcsICc3LjQnLCAnLXRuJywgJzgnLCAnLW1hJywgJzUwMCcsICctaW1hZScsICc8aW5maWxlLm1hZT4nLCAnLW9tYWUnLCAnPG91dGZpbGUubWFlPic=

>  <s_epik_input>  (1) 
W09IXVtDQEBIXTFbQ0hdPVtDSF1bQ0hdPUMyTihbQ0hdKEMxMjMpW0NIMl0zKVtDSDJdW0NAQEhdKFtDSDJdTzQpW0NIMl1bQ0BdNChGKVtDSDNd

>  <s_glide_docking_method>  (1) 
confgen

>  <s_i_glide_gridfile>  (1) 
gpcr_5ht2c_6bqh_protein_autoprepared_prepared

>  <s_lp_Force_Field>  (1) 
S-OPLS

>  <s_lp_Variant>  (1) 
DiffSBDD_33-1

>  <s_m_source_file>  (1) 
generated_GPCR_5HT2C_ligand_DiffSBDD_2026-06-23_prepared.sdf

>  <GenAI_Model>  (1) 
DiffSBDD

>  <Protein>  (1) 
GPCR_5HT2C

$$$$
DiffSBDD_23
     RDKit          3D

  0  0  0  0  0  0  0  0  0  0999 V3000
M  V30 BEGIN CTAB
M  V30 COUNTS 67 69 0 0 1
M  V30 BEGIN ATOM
M  V30 1 C 41.175834 29.358402 64.642670 0
M  V30 2 C 40.845526 28.896212 65.933335 0
M  V30 3 C 40.437785 30.243479 51.070848 0
M  V30 4 O 37.645138 27.948835 57.494479 0 CHG=-1
M  V30 5 C 39.985943 29.733153 66.864881 0
M  V30 6 N 40.712776 30.613023 64.198718 0
M  V30 7 C 40.854368 31.148543 62.846209 0 CFG=1
M  V30 8 C 38.210450 29.875107 59.392039 0 CFG=2
M  V30 9 C 41.978860 28.529977 63.818580 0
M  V30 10 C 38.476676 30.267471 55.751983 0
M  V30 11 C 38.164111 28.281140 54.195664 0
M  V30 12 C 39.493952 31.618596 62.296577 0
M  V30 13 C 41.826262 32.336046 62.835582 0
M  V30 14 C 38.363740 27.638252 52.957878 0
M  V30 15 C 36.356445 32.589043 60.606859 0
M  V30 16 C 42.116061 26.893992 65.450009 0
M  V30 17 C 39.447533 30.201051 53.404309 0
M  V30 18 O 42.445134 32.537772 61.767855 0
M  V30 19 P 38.806821 28.710703 57.998696 0
M  V30 20 N 42.447055 27.319601 64.209395 0
M  V30 21 C 38.368392 34.538220 60.285360 0
M  V30 22 C 36.323544 33.774600 61.367756 0
M  V30 23 O 40.000709 27.968418 58.462157 0
M  V30 24 C 37.328276 34.746049 61.207848 0
M  V30 25 C 41.323886 27.640559 66.342086 0
M  V30 26 C 39.103088 28.275405 51.942646 0
M  V30 27 C 38.705607 29.563634 54.421087 0
M  V30 28 C 39.645140 29.557544 52.164127 0
M  V30 29 C 38.404769 33.360014 59.514654 0
M  V30 30 C 37.450341 31.108622 58.827307 0
M  V30 31 C 39.333573 30.169013 60.403827 0
M  V30 32 O 41.908760 33.038045 63.869561 0 CHG=-1
M  V30 33 C 37.403035 32.378796 59.673319 0
M  V30 34 O 39.317845 29.832240 56.812487 0
M  V30 35 C 35.268608 31.554157 60.789194 0
M  V30 36 O 38.763460 30.593101 61.636954 0
M  V30 37 H 39.908314 30.181631 50.119363 0
M  V30 38 H 40.600293 31.297696 51.298044 0
M  V30 39 H 41.408558 29.761734 50.956883 0
M  V30 40 H 40.010319 29.337800 67.879788 0
M  V30 41 H 40.342562 30.761841 66.905554 0
M  V30 42 H 38.950972 29.735873 66.521756 0
M  V30 43 H 40.520633 31.319058 64.895136 0
M  V30 44 H 41.257352 30.417310 62.154923 0
M  V30 45 H 37.477727 29.301166 59.953061 0
M  V30 46 H 42.261011 28.842568 62.827256 0
M  V30 47 H 37.425150 30.168553 56.018344 0
M  V30 48 H 38.652780 31.335071 55.613203 0
M  V30 49 H 37.593062 27.792163 54.970517 0
M  V30 50 H 38.873590 32.037524 63.082422 0
M  V30 51 H 39.638142 32.441237 61.600006 0
M  V30 52 H 37.946779 26.656699 52.786398 0
M  V30 53 H 42.497417 25.925639 65.740247 0
M  V30 54 H 39.860759 31.184600 53.574298 0
M  V30 55 H 39.139851 35.284629 60.167762 0
M  V30 56 H 35.526212 33.938444 62.077499 0
M  V30 57 H 37.301146 35.652227 61.795230 0
M  V30 58 H 41.088208 27.253784 67.323220 0
M  V30 59 H 39.252554 27.781417 50.993991 0
M  V30 60 H 39.203510 33.206154 58.803737 0
M  V30 61 H 37.907001 31.443022 57.904738 0
M  V30 62 H 36.444972 30.800727 58.554466 0
M  V30 63 H 40.029731 30.900393 60.006950 0
M  V30 64 H 39.910492 29.269582 60.616538 0
M  V30 65 H 34.845156 31.629890 61.788456 0
M  V30 66 H 34.481145 31.737741 60.056805 0
M  V30 67 H 35.645042 30.538624 60.677022 0
M  V30 END ATOM
M  V30 BEGIN BOND
M  V30 1 2 2 1
M  V30 2 1 5 2
M  V30 3 1 6 1
M  V30 4 1 7 6
M  V30 5 1 9 1
M  V30 6 1 12 7
M  V30 7 1 13 7
M  V30 8 1 14 11
M  V30 9 2 18 13
M  V30 10 1 19 4
M  V30 11 1 19 8
M  V30 12 2 20 9
M  V30 13 1 20 16
M  V30 14 2 22 15
M  V30 15 2 23 19
M  V30 16 2 24 21
M  V30 17 1 24 22
M  V30 18 1 25 2
M  V30 19 2 25 16
M  V30 20 2 26 14
M  V30 21 1 27 10
M  V30 22 2 27 11
M  V30 23 1 27 17
M  V30 24 1 28 3
M  V30 25 2 28 17
M  V30 26 1 28 26
M  V30 27 1 29 21
M  V30 28 1 30 8
M  V30 29 1 31 8
M  V30 30 1 32 13
M  V30 31 1 33 15
M  V30 32 2 33 29
M  V30 33 1 33 30
M  V30 34 1 34 10
M  V30 35 1 34 19
M  V30 36 1 35 15
M  V30 37 1 36 12
M  V30 38 1 36 31
M  V30 39 1 37 3
M  V30 40 1 38 3
M  V30 41 1 39 3
M  V30 42 1 40 5
M  V30 43 1 41 5
M  V30 44 1 42 5
M  V30 45 1 43 6
M  V30 46 1 7 44 CFG=3
M  V30 47 1 8 45 CFG=1
M  V30 48 1 46 9
M  V30 49 1 47 10
M  V30 50 1 48 10
M  V30 51 1 49 11
M  V30 52 1 50 12
M  V30 53 1 51 12
M  V30 54 1 52 14
M  V30 55 1 53 16
M  V30 56 1 54 17
M  V30 57 1 55 21
M  V30 58 1 56 22
M  V30 59 1 57 24
M  V30 60 1 58 25
M  V30 61 1 59 26
M  V30 62 1 60 29
M  V30 63 1 61 30
M  V30 64 1 62 30
M  V30 65 1 63 31
M  V30 66 1 64 31
M  V30 67 1 65 35
M  V30 68 1 66 35
M  V30 69 1 67 35
M  V30 END BOND
M  V30 END CTAB
M  END
>  <i_epik_Tot_Q>  (1) 
-2

>  <i_epik_Tot_abs_Q>  (1) 
2

>  <i_i_glide_confnum>  (1) 
3353

>  <i_i_glide_lignum>  (1) 
57

>  <i_i_glide_posenum>  (1) 
218

>  <i_i_glide_rotatable_bonds>  (1) 
13

>  <i_lp_mmshare_version>  (1) 
72125

>  <i_m_source_file_index>  (1) 
24

>  <i_f3d_flags>  (1) 
0

>  <num_sample>  (1) 
100

>  <b_lp_Chiralities_Consistent>  (1) 
1

>  <r_epik_Charging_Adjusted_Penalty>  (1) 
0.24647158034106029

>  <r_epik_Ionization_Penalty>  (1) 
0.24647497421130457

>  <r_epik_Ionization_Penalty_Charging>  (1) 
0.00050661666566131989

>  <r_epik_Ionization_Penalty_Neutral>  (1) 
0.24596835754564325

>  <r_epik_State_Penalty>  (1) 
0.24596496367539897

>  <r_glide_ring_energy>  (1) 
0

>  <r_i_docking_score>  (1) 
-5.6805375238816787

>  <r_i_glide_ecoul>  (1) 
-1.4459262145142706

>  <r_i_glide_eff_state_penalty>  (1) 
0.24596496367539897

>  <r_i_glide_einternal>  (1) 
13.014597615084773

>  <r_i_glide_emodel>  (1) 
-61.542500698488993

>  <r_i_glide_emodel_strain>  (1) 
4.9646833728955677

>  <r_i_glide_energy>  (1) 
-53.464107647506182

>  <r_i_glide_erotb>  (1) 
0.94322731134637816

>  <r_i_glide_esite>  (1) 
0

>  <r_i_glide_evdw>  (1) 
-52.018181432991909

>  <r_i_glide_gscore>  (1) 
-5.9265024875570775

>  <r_i_glide_gscore_strain>  (1) 
0.24117084322389193

>  <r_i_glide_hbond>  (1) 
0

>  <r_i_glide_ligand_efficiency>  (1) 
-0.1577927089967133

>  <r_i_glide_ligand_efficiency_ln>  (1) 
-1.2393398173227759

>  <r_i_glide_ligand_efficiency_sa>  (1) 
-0.52102004551314807

>  <r_i_glide_lipo>  (1) 
-3.4841114364884436

>  <r_i_glide_metal>  (1) 
-0

>  <r_i_glide_rewards>  (1) 
-0.8089912018121681

>  <r_lp_Energy>  (1) 
45.739263999999999

>  <r_lp_tautomer_probability>  (1) 
0.99999999999999911

>  <s_epik_cmdline>  (1) 
J2VwaWtfcHl0aG9uJywgJy1waHQnLCAnMS4wJywgJy1waCcsICc3LjQnLCAnLXRuJywgJzgnLCAnLW1hJywgJzUwMCcsICctaW1hZScsICc8aW5maWxlLm1hZT4nLCAnLW9tYWUnLCAnPG91dGZpbGUubWFlPic=

>  <s_epik_input>  (1) 
W2NIXTFuW2NIXVtjSF1jKFtDSDNdKWMxW05IXVtDQEhdKEMoPU8pW09IXSlbQ0gyXU9bQ0gyXVtDQEBIXShbQ0gyXWMyW2NIXVtjSF1bY0hdW2NIXWMyW0NIM10pW1BAQF0oPU8pKFtPSF0pT1tDSDJdYzNbY0hdW2NIXVtjSF1jKFtDSDNdKVtjSF0z

>  <s_glide_docking_method>  (1) 
confgen

>  <s_i_glide_gridfile>  (1) 
gpcr_5ht2c_6bqh_protein_autoprepared_prepared

>  <s_lp_Force_Field>  (1) 
S-OPLS

>  <s_lp_Variant>  (1) 
DiffSBDD_23-1

>  <s_m_source_file>  (1) 
generated_GPCR_5HT2C_ligand_DiffSBDD_2026-06-23_prepared.sdf

>  <GenAI_Model>  (1) 
DiffSBDD

>  <Protein>  (1) 
GPCR_5HT2C

$$$$
DiffSBDD_91
     RDKit          3D

  0  0  0  0  0  0  0  0  0  0999 V3000
M  V30 BEGIN CTAB
M  V30 COUNTS 47 48 0 0 1
M  V30 BEGIN ATOM
M  V30 1 N 39.186691 26.937754 52.975603 0
M  V30 2 C 39.149788 29.312986 52.716651 0
M  V30 3 C 38.963408 29.762348 53.984062 0
M  V30 4 C 38.746931 31.733294 60.445334 0 CFG=1
M  V30 5 O 40.845224 30.726529 61.016420 0
M  V30 6 C 38.539823 30.868467 56.548194 0
M  V30 7 C 38.694410 31.735945 55.374168 0
M  V30 8 C 38.813060 28.918422 55.219764 0
M  V30 9 C 36.278922 32.727478 60.346469 0 CFG=2
M  V30 10 C 36.628894 34.090213 59.728319 0
M  V30 11 O 39.511008 31.340191 62.685534 0 CHG=-1
M  V30 12 C 38.840613 27.562304 55.310185 0
M  V30 13 C 39.791199 31.220143 61.472452 0
M  V30 14 C 38.873134 28.332535 59.898937 0
M  V30 15 C 39.024874 26.664349 54.205675 0
M  V30 16 O 35.197075 32.937795 61.227181 0
M  V30 17 C 38.644449 30.789972 59.188108 0 CFG=1
M  V30 18 C 37.903311 29.448287 59.448721 0
M  V30 19 N 39.245189 28.018158 52.218569 0
M  V30 20 N 38.619128 29.596889 56.441630 0
M  V30 21 C 38.894583 31.199629 54.167762 0
M  V30 22 N 39.423421 27.870707 50.850544 0
M  V30 23 C 38.277362 31.559058 57.887141 0
M  V30 24 C 37.412905 32.094202 61.172066 0
M  V30 25 H 39.244710 30.033658 51.915667 0
M  V30 26 H 39.181446 32.673677 60.106973 0
M  V30 27 H 38.632482 32.802363 55.534771 0
M  V30 28 H 35.930981 32.033177 59.582696 0
M  V30 29 H 37.456763 34.016763 59.025705 0
M  V30 30 H 36.911455 34.816524 60.490862 0
M  V30 31 H 35.778359 34.495378 59.178386 0
M  V30 32 H 38.715990 27.113090 56.285403 0
M  V30 33 H 38.445043 27.338051 59.828566 0
M  V30 34 H 39.197564 28.477540 60.929318 0
M  V30 35 H 39.766368 28.305627 59.274137 0
M  V30 36 H 39.016414 25.620855 54.520496 0
M  V30 37 H 35.433482 33.621167 61.835612 0
M  V30 38 H 39.645106 30.479450 58.937326 0
M  V30 39 H 37.386372 29.106984 58.555209 0
M  V30 40 H 37.099875 29.578116 60.167759 0
M  V30 41 H 39.001626 31.850577 53.313326 0
M  V30 42 H 40.375717 27.546767 50.698577 0
M  V30 43 H 38.785359 27.141018 50.537623 0
M  V30 44 H 38.847090 32.488056 57.873592 0
M  V30 45 H 37.245148 31.862969 57.896086 0
M  V30 46 H 37.028435 31.203481 61.668093 0
M  V30 47 H 37.637869 32.792831 61.980170 0
M  V30 END ATOM
M  V30 BEGIN BOND
M  V30 1 2 3 2
M  V30 2 1 7 6
M  V30 3 1 8 3
M  V30 4 1 10 9
M  V30 5 2 12 8
M  V30 6 1 13 4
M  V30 7 2 13 5
M  V30 8 1 13 11
M  V30 9 2 15 1
M  V30 10 1 15 12
M  V30 11 1 16 9
M  V30 12 1 17 4
M  V30 13 1 18 14
M  V30 14 1 18 17
M  V30 15 1 19 1
M  V30 16 1 19 2
M  V30 17 2 20 6
M  V30 18 1 20 8
M  V30 19 1 21 3
M  V30 20 2 21 7
M  V30 21 1 22 19
M  V30 22 1 23 6
M  V30 23 1 23 17
M  V30 24 1 24 4
M  V30 25 1 24 9
M  V30 26 1 25 2
M  V30 27 1 4 26 CFG=3
M  V30 28 1 27 7
M  V30 29 1 9 28 CFG=3
M  V30 30 1 29 10
M  V30 31 1 30 10
M  V30 32 1 31 10
M  V30 33 1 32 12
M  V30 34 1 33 14
M  V30 35 1 34 14
M  V30 36 1 35 14
M  V30 37 1 36 15
M  V30 38 1 37 16
M  V30 39 1 17 38 CFG=3
M  V30 40 1 39 18
M  V30 41 1 40 18
M  V30 42 1 41 21
M  V30 43 1 42 22
M  V30 44 1 43 22
M  V30 45 1 44 23
M  V30 46 1 45 23
M  V30 47 1 46 24
M  V30 48 1 47 24
M  V30 END BOND
M  V30 END CTAB
M  END
>  <i_epik_Tot_Q>  (1) 
-1

>  <i_epik_Tot_abs_Q>  (1) 
1

>  <i_i_glide_confnum>  (1) 
206

>  <i_i_glide_lignum>  (1) 
211

>  <i_i_glide_posenum>  (1) 
306

>  <i_i_glide_rotatable_bonds>  (1) 
8

>  <i_lp_mmshare_version>  (1) 
72125

>  <i_m_source_file_index>  (1) 
92

>  <i_f3d_flags>  (1) 
0

>  <num_sample>  (1) 
100

>  <b_lp_Chiralities_Consistent>  (1) 
1

>  <r_epik_Charging_Adjusted_Penalty>  (1) 
0.00040007819211634345

>  <r_epik_Ionization_Penalty>  (1) 
0.00040449686215294139

>  <r_epik_Ionization_Penalty_Charging>  (1) 
0.00040007819211634345

>  <r_epik_Ionization_Penalty_Neutral>  (1) 
4.4186700365979628e-06

>  <r_epik_State_Penalty>  (1) 
-0

>  <r_glide_ring_energy>  (1) 
0

>  <r_i_docking_score>  (1) 
-5.6721215082743939

>  <r_i_glide_ecoul>  (1) 
-3.2271186874362785

>  <r_i_glide_eff_state_penalty>  (1) 
-0

>  <r_i_glide_einternal>  (1) 
10.250427815568372

>  <r_i_glide_emodel>  (1) 
-52.4317664032788

>  <r_i_glide_emodel_strain>  (1) 
1.2872347984689725

>  <r_i_glide_energy>  (1) 
-42.163992184013864

>  <r_i_glide_erotb>  (1) 
0.85685710586464559

>  <r_i_glide_esite>  (1) 
0

>  <r_i_glide_evdw>  (1) 
-38.936873496577583

>  <r_i_glide_gscore>  (1) 
-5.6721215082743939

>  <r_i_glide_gscore_strain>  (1) 
0

>  <r_i_glide_hbond>  (1) 
-0.12937824312365412

>  <r_i_glide_ligand_efficiency>  (1) 
-0.23633839617809974

>  <r_i_glide_ligand_efficiency_ln>  (1) 
-1.3575989536262207

>  <r_i_glide_ligand_efficiency_sa>  (1) 
-0.68171790067001281

>  <r_i_glide_lipo>  (1) 
-1.4364664016371356

>  <r_i_glide_metal>  (1) 
-0

>  <r_i_glide_rewards>  (1) 
-2.5322224914339286

>  <r_lp_Energy>  (1) 
41.094901

>  <r_lp_tautomer_probability>  (1) 
1

>  <s_epik_Chemistry_Notes>  (1) 
This compound has an imine and may undergo hydrolysis.

>  <s_epik_cmdline>  (1) 
J2VwaWtfcHl0aG9uJywgJy1waHQnLCAnMS4wJywgJy1waCcsICc3LjQnLCAnLXRuJywgJzgnLCAnLW1hJywgJzUwMCcsICctaW1hZScsICc8aW5maWxlLm1hZT4nLCAnLW9tYWUnLCAnPG91dGZpbGUubWFlPic=

>  <s_epik_input>  (1) 
W0NIXT0xTihbTkgyXSlOPVtDSF1bQ0hdPWMoYzEyKW5jKFtjSF1bY0hdMilbQ0gyXVtDQEhdKFtDSDJdW0NIM10pW0NASF0oQyg9TylbT0hdKVtDSDJdW0NASF0oW0NIM10pW09IXQ==

>  <s_glide_docking_method>  (1) 
confgen

>  <s_i_glide_gridfile>  (1) 
gpcr_5ht2c_6bqh_protein_autoprepared_prepared

>  <s_lp_Force_Field>  (1) 
S-OPLS

>  <s_lp_Variant>  (1) 
DiffSBDD_91-1

>  <s_m_source_file>  (1) 
generated_GPCR_5HT2C_ligand_DiffSBDD_2026-06-23_prepared.sdf

>  <GenAI_Model>  (1) 
DiffSBDD

>  <Protein>  (1) 
GPCR_5HT2C

$$$$
DiffSBDD_15
     RDKit          3D

  0  0  0  0  0  0  0  0  0  0999 V3000
M  V30 BEGIN CTAB
M  V30 COUNTS 75 76 0 0 1
M  V30 BEGIN ATOM
M  V30 1 C 37.295183 30.715796 61.414252 0
M  V30 2 C 37.645137 32.081316 56.933922 0
M  V30 3 N 43.471502 26.963132 64.858606 0
M  V30 4 C 38.669079 33.161895 57.047203 0 CFG=2
M  V30 5 C 37.723358 28.009653 54.155963 0
M  V30 6 C 40.663095 29.251539 63.611695 0
M  V30 7 O 43.745682 28.158959 66.766903 0
M  V30 8 C 42.103316 27.402119 64.605285 0
M  V30 9 C 38.057697 35.247174 61.366697 0
M  V30 10 C 38.386628 30.041768 55.522932 0
M  V30 11 C 44.179082 27.379535 65.919247 0
M  V30 12 O 39.109369 24.137778 57.046207 0
M  V30 13 C 39.728356 32.889891 56.009539 0
M  V30 14 C 36.908455 29.736526 57.637795 0
M  V30 15 C 42.085671 28.712194 63.803150 0
M  V30 16 C 39.155172 33.265210 58.481131 0
M  V30 17 C 38.039987 30.567786 56.960674 0 CFG=2
M  V30 18 C 40.624300 30.559076 62.825483 0
M  V30 19 C 37.645301 26.616785 53.978287 0
M  V30 20 C 38.869770 34.151829 60.655510 0 CFG=2
M  V30 21 C 38.326546 28.539106 55.315682 0
M  V30 22 C 39.727154 32.850303 62.688297 0
M  V30 23 C 37.639046 30.072414 60.059905 0
M  V30 24 C 38.864140 27.672145 56.285890 0
M  V30 25 C 38.763476 26.279067 56.122927 0
M  V30 26 C 36.483492 30.148256 59.054582 0
M  V30 27 O 41.245137 30.667974 61.770586 0
M  V30 28 O 38.302018 33.984963 59.359419 0
M  V30 29 C 38.153997 25.750336 54.964093 0
M  V30 30 C 37.457551 32.234482 61.541459 0
M  V30 31 C 39.287756 25.362427 57.185167 0
M  V30 32 O 39.872571 25.866537 58.167920 0 CHG=-1
M  V30 33 N 39.882052 31.549335 63.342449 0
M  V30 34 C 38.892558 32.790830 61.393992 0 CFG=1
M  V30 35 H 37.857980 30.216618 62.200203 0
M  V30 36 H 36.240530 30.537734 61.593863 0
M  V30 37 H 37.244926 32.293640 55.953975 0
M  V30 38 H 37.002978 32.375323 57.767676 0
M  V30 39 H 43.895354 26.326123 64.199989 0
M  V30 40 H 38.201295 34.116410 56.797577 0
M  V30 41 H 37.316613 28.672159 53.405700 0
M  V30 42 H 40.062552 28.521332 63.068509 0
M  V30 43 H 40.189341 29.391657 64.584919 0
M  V30 44 H 41.586735 26.617622 64.050751 0
M  V30 45 H 41.555065 27.519146 65.541776 0
M  V30 46 H 38.465626 35.478078 62.351257 0
M  V30 47 H 38.076790 36.169061 60.784946 0
M  V30 48 H 37.010385 34.965927 61.491134 0
M  V30 49 H 37.690601 30.484689 54.809588 0
M  V30 50 H 39.378933 30.344148 55.200352 0
M  V30 51 H 45.186711 26.937429 65.925323 0
M  V30 52 H 40.280351 31.971199 56.169256 0
M  V30 53 H 39.305976 32.869939 55.004745 0
M  V30 54 H 40.445150 33.667850 56.072226 0
M  V30 55 H 37.174869 28.689137 57.733626 0
M  V30 56 H 36.045153 29.737797 56.981691 0
M  V30 57 H 42.689565 29.465232 64.311226 0
M  V30 58 H 42.554630 28.542944 62.833784 0
M  V30 59 H 39.245097 32.248219 58.815357 0
M  V30 60 H 40.111244 33.738141 58.501835 0
M  V30 61 H 38.936653 30.427585 57.560416 0
M  V30 62 H 37.181734 26.211684 53.090766 0
M  V30 63 H 39.891473 34.525472 60.561075 0
M  V30 64 H 39.247719 33.545134 63.367776 0
M  V30 65 H 40.717814 33.261395 62.481986 0
M  V30 66 H 38.553480 30.497804 59.675304 0
M  V30 67 H 37.889177 29.017357 60.167832 0
M  V30 68 H 39.329127 28.077663 57.172322 0
M  V30 69 H 35.696023 29.465029 59.375135 0
M  V30 70 H 36.011132 31.128686 59.070848 0
M  V30 71 H 38.076620 24.681592 54.831215 0
M  V30 72 H 37.053320 32.557269 62.499029 0
M  V30 73 H 36.803319 32.677205 60.791004 0
M  V30 74 H 39.397578 31.396080 64.214028 0
M  V30 75 H 39.454062 32.096114 60.788329 0
M  V30 END ATOM
M  V30 BEGIN BOND
M  V30 1 1 4 2
M  V30 2 1 8 3
M  V30 3 1 11 3
M  V30 4 2 11 7
M  V30 5 1 13 4
M  V30 6 1 15 6
M  V30 7 1 15 8
M  V30 8 1 16 4
M  V30 9 1 17 2
M  V30 10 1 17 10
M  V30 11 1 17 14
M  V30 12 1 18 6
M  V30 13 2 19 5
M  V30 14 1 20 9
M  V30 15 1 21 5
M  V30 16 1 21 10
M  V30 17 1 23 1
M  V30 18 2 24 21
M  V30 19 1 25 24
M  V30 20 1 26 14
M  V30 21 1 26 23
M  V30 22 2 27 18
M  V30 23 1 28 16
M  V30 24 1 28 20
M  V30 25 1 29 19
M  V30 26 2 29 25
M  V30 27 1 30 1
M  V30 28 2 31 12
M  V30 29 1 31 25
M  V30 30 1 32 31
M  V30 31 1 33 18
M  V30 32 1 33 22
M  V30 33 1 34 20
M  V30 34 1 34 22
M  V30 35 1 34 30
M  V30 36 1 35 1
M  V30 37 1 36 1
M  V30 38 1 37 2
M  V30 39 1 38 2
M  V30 40 1 39 3
M  V30 41 1 4 40 CFG=3
M  V30 42 1 41 5
M  V30 43 1 42 6
M  V30 44 1 43 6
M  V30 45 1 44 8
M  V30 46 1 45 8
M  V30 47 1 46 9
M  V30 48 1 47 9
M  V30 49 1 48 9
M  V30 50 1 49 10
M  V30 51 1 50 10
M  V30 52 1 51 11
M  V30 53 1 52 13
M  V30 54 1 53 13
M  V30 55 1 54 13
M  V30 56 1 55 14
M  V30 57 1 56 14
M  V30 58 1 57 15
M  V30 59 1 58 15
M  V30 60 1 59 16
M  V30 61 1 60 16
M  V30 62 1 17 61 CFG=1
M  V30 63 1 62 19
M  V30 64 1 20 63 CFG=3
M  V30 65 1 64 22
M  V30 66 1 65 22
M  V30 67 1 66 23
M  V30 68 1 67 23
M  V30 69 1 68 24
M  V30 70 1 69 26
M  V30 71 1 70 26
M  V30 72 1 71 29
M  V30 73 1 72 30
M  V30 74 1 73 30
M  V30 75 1 74 33
M  V30 76 1 34 75 CFG=3
M  V30 END BOND
M  V30 END CTAB
M  END
>  <i_epik_Tot_Q>  (1) 
-1

>  <i_epik_Tot_abs_Q>  (1) 
1

>  <i_i_glide_confnum>  (1) 
433

>  <i_i_glide_lignum>  (1) 
32

>  <i_i_glide_posenum>  (1) 
301

>  <i_i_glide_rotatable_bonds>  (1) 
11

>  <i_lp_mmshare_version>  (1) 
72125

>  <i_m_source_file_index>  (1) 
16

>  <i_f3d_flags>  (1) 
0

>  <num_sample>  (1) 
100

>  <b_lp_Chiralities_Consistent>  (1) 
1

>  <r_epik_Charging_Adjusted_Penalty>  (1) 
0.00039988353432540339

>  <r_epik_Ionization_Penalty>  (1) 
0.00039992702821499621

>  <r_epik_Ionization_Penalty_Charging>  (1) 
0.00039988353432540339

>  <r_epik_Ionization_Penalty_Neutral>  (1) 
4.349388959280561e-08

>  <r_epik_State_Penalty>  (1) 
-0

>  <r_glide_ring_energy>  (1) 
0

>  <r_i_docking_score>  (1) 
-5.6660072415256302

>  <r_i_glide_ecoul>  (1) 
-4.8009974912413025

>  <r_i_glide_eff_state_penalty>  (1) 
-0

>  <r_i_glide_einternal>  (1) 
15.872482935757937

>  <r_i_glide_emodel>  (1) 
-25.656547512659682

>  <r_i_glide_emodel_strain>  (1) 
1.2770425723656942

>  <r_i_glide_energy>  (1) 
-28.210012138375355

>  <r_i_glide_erotb>  (1) 
0.81156586864238245

>  <r_i_glide_esite>  (1) 
-0.0055647721765613757

>  <r_i_glide_evdw>  (1) 
-23.409014647134054

>  <r_i_glide_gscore>  (1) 
-5.6660072415256302

>  <r_i_glide_gscore_strain>  (1) 
0

>  <r_i_glide_hbond>  (1) 
-0.32000000000000001

>  <r_i_glide_ligand_efficiency>  (1) 
-0.16664727180957736

>  <r_i_glide_ligand_efficiency_ln>  (1) 
-1.2517799257729501

>  <r_i_glide_ligand_efficiency_sa>  (1) 
-0.53987246840500336

>  <r_i_glide_lipo>  (1) 
-2.7266462412103429

>  <r_i_glide_metal>  (1) 
-0

>  <r_i_glide_rewards>  (1) 
-1.5347617407382093

>  <r_lp_Energy>  (1) 
34.150776999999998

>  <r_lp_tautomer_probability>  (1) 
1

>  <s_epik_cmdline>  (1) 
J2VwaWtfcHl0aG9uJywgJy1waHQnLCAnMS4wJywgJy1waCcsICc3LjQnLCAnLXRuJywgJzgnLCAnLW1hJywgJzUwMCcsICctaW1hZScsICc8aW5maWxlLm1hZT4nLCAnLW9tYWUnLCAnPG91dGZpbGUubWFlPic=

>  <s_epik_input>  (1) 
Tz1bQ0hdW05IXVtDSDJdW0NIMl1bQ0gyXUMoPU8pW05IXVtDSDJdW0NAQEhdKFtDQEhdKFtDSDNdKU9bQ0gyXTEpW0NIMl1bQ0gyXVtDSDJdW0NIMl1bQ0gyXVtDQEhdKFtDSDJdW0NAQEhdMVtDSDNdKVtDSDJdYzJbY0hdW2NIXVtjSF1jKFtjSF0yKUMoPU8pW09IXQ==

>  <s_glide_docking_method>  (1) 
confgen

>  <s_i_glide_gridfile>  (1) 
gpcr_5ht2c_6bqh_protein_autoprepared_prepared

>  <s_lp_Force_Field>  (1) 
S-OPLS

>  <s_lp_Variant>  (1) 
DiffSBDD_15-2

>  <s_m_source_file>  (1) 
generated_GPCR_5HT2C_ligand_DiffSBDD_2026-06-23_prepared.sdf

>  <GenAI_Model>  (1) 
DiffSBDD

>  <Protein>  (1) 
GPCR_5HT2C

$$$$
DiffSBDD_0
     RDKit          3D

  0  0  0  0  0  0  0  0  0  0999 V3000
M  V30 BEGIN CTAB
M  V30 COUNTS 61 60 0 0 1
M  V30 BEGIN ATOM
M  V30 1 C 40.301612 29.330862 51.457360 0
M  V30 2 C 37.765574 26.341502 54.858060 0
M  V30 3 C 37.518195 36.571740 61.539084 0 CFG=1
M  V30 4 C 37.816004 29.622308 56.063306 0
M  V30 5 C 37.970447 27.776874 54.348937 0 CFG=1
M  V30 6 C 38.549557 30.863062 59.774050 0
M  V30 7 C 37.870692 35.108180 61.225640 0
M  V30 8 C 37.890962 30.076573 58.600470 0 CFG=2
M  V30 9 C 39.883222 28.605894 50.171207 0
M  V30 10 C 38.518297 28.645244 55.464470 0
M  V30 11 C 38.361138 30.501990 57.173170 0 CFG=2
M  V30 12 C 38.858046 27.808780 53.079277 0 CFG=1
M  V30 13 O 38.045151 27.337020 52.036321 0
M  V30 14 C 36.799677 34.364928 60.405534 0
M  V30 15 C 36.981348 32.840329 60.382731 0
M  V30 16 O 38.045139 31.843943 56.867414 0
M  V30 17 C 39.297255 29.216591 52.635313 0
M  V30 18 O 38.606770 37.144893 62.232543 0
M  V30 19 C 38.365403 32.391529 59.882359 0
M  V30 20 C 40.563659 30.810833 51.156965 0
M  V30 21 C 37.239838 37.422389 60.293539 0
M  V30 22 O 36.478633 30.137791 58.701264 0
M  V30 23 C 38.236697 28.586424 58.824571 0
M  V30 24 H 41.244860 28.889156 51.767649 0
M  V30 25 H 37.137375 26.327133 55.749007 0
M  V30 26 H 37.279943 25.715879 54.109558 0
M  V30 27 H 38.716833 25.875591 55.118042 0
M  V30 28 H 36.649113 36.609035 62.197957 0
M  V30 29 H 36.798651 29.814138 55.753133 0
M  V30 30 H 36.989178 28.184161 54.093743 0
M  V30 31 H 39.622121 30.672306 59.736942 0
M  V30 32 H 38.224874 30.428915 60.721671 0
M  V30 33 H 38.818319 35.073481 60.686791 0
M  V30 34 H 38.042601 34.581000 62.164718 0
M  V30 35 H 38.845024 28.797747 49.940549 0
M  V30 36 H 40.445127 28.937799 49.301470 0
M  V30 37 H 40.009718 27.526706 50.261522 0
M  V30 38 H 39.534533 28.448607 55.776380 0
M  V30 39 H 39.448721 30.426580 57.143225 0
M  V30 40 H 39.723298 27.156524 53.200951 0
M  V30 41 H 37.558213 26.573622 52.312840 0
M  V30 42 H 35.809541 34.581811 60.807295 0
M  V30 43 H 36.802736 34.739835 59.381009 0
M  V30 44 H 36.809317 32.440567 61.382980 0
M  V30 45 H 36.199572 32.425284 59.749289 0
M  V30 46 H 37.091370 31.939168 56.858445 0
M  V30 47 H 38.384221 29.737444 52.388101 0
M  V30 48 H 39.730408 29.754540 53.478745 0
M  V30 49 H 39.390157 37.037155 61.715387 0
M  V30 50 H 38.631657 32.906797 58.962442 0
M  V30 51 H 39.101736 32.737310 60.606470 0
M  V30 52 H 39.677576 31.300834 50.753058 0
M  V30 53 H 40.845521 31.337775 52.065546 0
M  V30 54 H 41.371221 30.939616 50.436205 0
M  V30 55 H 36.320845 37.107922 59.799069 0
M  V30 56 H 37.115445 38.471816 60.562770 0
M  V30 57 H 38.044985 37.350687 59.563629 0
M  V30 58 H 36.140431 30.857734 58.170813 0
M  V30 59 H 39.292825 28.398298 58.628285 0
M  V30 60 H 38.045143 28.276784 59.852423 0
M  V30 61 H 37.660136 27.924929 58.173687 0
M  V30 END ATOM
M  V30 BEGIN BOND
M  V30 1 1 5 2
M  V30 2 1 7 3
M  V30 3 1 8 6
M  V30 4 1 9 1
M  V30 5 2 10 4
M  V30 6 1 10 5
M  V30 7 1 11 4
M  V30 8 1 11 8
M  V30 9 1 12 5
M  V30 10 1 13 12
M  V30 11 1 14 7
M  V30 12 1 15 14
M  V30 13 1 16 11
M  V30 14 1 17 1
M  V30 15 1 17 12
M  V30 16 1 18 3
M  V30 17 1 19 6
M  V30 18 1 19 15
M  V30 19 1 20 1
M  V30 20 1 21 3
M  V30 21 1 8 22 CFG=3
M  V30 22 1 23 8
M  V30 23 1 24 1
M  V30 24 1 25 2
M  V30 25 1 26 2
M  V30 26 1 27 2
M  V30 27 1 3 28 CFG=1
M  V30 28 1 29 4
M  V30 29 1 5 30 CFG=3
M  V30 30 1 31 6
M  V30 31 1 32 6
M  V30 32 1 33 7
M  V30 33 1 34 7
M  V30 34 1 35 9
M  V30 35 1 36 9
M  V30 36 1 37 9
M  V30 37 1 38 10
M  V30 38 1 11 39 CFG=1
M  V30 39 1 12 40 CFG=1
M  V30 40 1 41 13
M  V30 41 1 42 14
M  V30 42 1 43 14
M  V30 43 1 44 15
M  V30 44 1 45 15
M  V30 45 1 46 16
M  V30 46 1 47 17
M  V30 47 1 48 17
M  V30 48 1 49 18
M  V30 49 1 50 19
M  V30 50 1 51 19
M  V30 51 1 52 20
M  V30 52 1 53 20
M  V30 53 1 54 20
M  V30 54 1 55 21
M  V30 55 1 56 21
M  V30 56 1 57 21
M  V30 57 1 58 22
M  V30 58 1 59 23
M  V30 59 1 60 23
M  V30 60 1 61 23
M  V30 END BOND
M  V30 END CTAB
M  END
>  <i_epik_Tot_Q>  (1) 
0

>  <i_epik_Tot_abs_Q>  (1) 
0

>  <i_i_glide_confnum>  (1) 
1681

>  <i_i_glide_lignum>  (1) 
1

>  <i_i_glide_posenum>  (1) 
24

>  <i_i_glide_rotatable_bonds>  (1) 
16

>  <i_lp_mmshare_version>  (1) 
72125

>  <i_m_source_file_index>  (1) 
1

>  <i_f3d_flags>  (1) 
0

>  <num_sample>  (1) 
100

>  <b_lp_Chiralities_Consistent>  (1) 
1

>  <r_epik_Charging_Adjusted_Penalty>  (1) 
0

>  <r_epik_Ionization_Penalty>  (1) 
5.9169763795933225e-07

>  <r_epik_Ionization_Penalty_Charging>  (1) 
0

>  <r_epik_Ionization_Penalty_Neutral>  (1) 
5.9169763795933225e-07

>  <r_epik_State_Penalty>  (1) 
-0

>  <r_glide_ring_energy>  (1) 
0

>  <r_i_docking_score>  (1) 
-5.6657606874668804

>  <r_i_glide_ecoul>  (1) 
-8.1451935677304483

>  <r_i_glide_eff_state_penalty>  (1) 
-0

>  <r_i_glide_einternal>  (1) 
6.6044110841392794

>  <r_i_glide_emodel>  (1) 
-46.553574853658425

>  <r_i_glide_emodel_strain>  (1) 
0.70295559545390773

>  <r_i_glide_energy>  (1) 
-39.112429422824874

>  <r_i_glide_erotb>  (1) 
1.894024340436764

>  <r_i_glide_esite>  (1) 
0

>  <r_i_glide_evdw>  (1) 
-30.96723585509443

>  <r_i_glide_gscore>  (1) 
-5.6657606874668804

>  <r_i_glide_gscore_strain>  (1) 
0

>  <r_i_glide_hbond>  (1) 
-0.35601365960620263

>  <r_i_glide_ligand_efficiency>  (1) 
-0.2463374211942122

>  <r_i_glide_ligand_efficiency_ln>  (1) 
-1.3700323085070294

>  <r_i_glide_ligand_efficiency_sa>  (1) 
-0.70055085803600725

>  <r_i_glide_lipo>  (1) 
-2.9194790803222417

>  <r_i_glide_metal>  (1) 
-0

>  <r_i_glide_rewards>  (1) 
-1.5141514600609121

>  <r_lp_Energy>  (1) 
8.761194999999999

>  <r_lp_tautomer_probability>  (1) 
1

>  <s_epik_cmdline>  (1) 
J2VwaWtfcHl0aG9uJywgJy1waHQnLCAnMS4wJywgJy1waCcsICc3LjQnLCAnLXRuJywgJzgnLCAnLW1hJywgJzUwMCcsICctaW1hZScsICc8aW5maWxlLm1hZT4nLCAnLW9tYWUnLCAnPG91dGZpbGUubWFlPic=

>  <s_epik_input>  (1) 
W0NIM11bQ0hdKFtDSDNdKVtDSDJdW0NASF0oW09IXSlbQ0BASF0oW0NIM10pXFtDSF09W0NIXVxbQ0BASF0oW09IXSlbQ0BAXShbT0hdKShbQ0gzXSlbQ0gyXVtDSDJdW0NIMl1bQ0gyXVtDSDJdW0NAQEhdKFtPSF0pW0NIM10=

>  <s_glide_docking_method>  (1) 
confgen

>  <s_i_glide_gridfile>  (1) 
gpcr_5ht2c_6bqh_protein_autoprepared_prepared

>  <s_lp_Force_Field>  (1) 
S-OPLS

>  <s_lp_Variant>  (1) 
DiffSBDD_0-1

>  <s_m_source_file>  (1) 
generated_GPCR_5HT2C_ligand_DiffSBDD_2026-06-23_prepared.sdf

>  <GenAI_Model>  (1) 
DiffSBDD

>  <Protein>  (1) 
GPCR_5HT2C

$$$$
DiffSBDD_16
     RDKit          3D

  0  0  0  0  0  0  0  0  0  0999 V3000
M  V30 BEGIN CTAB
M  V30 COUNTS 69 73 0 0 1
M  V30 BEGIN ATOM
M  V30 1 C 38.223447 28.955454 58.371318 0
M  V30 2 C 44.537488 29.727172 65.262388 0
M  V30 3 C 39.682487 31.683631 61.406547 0 CFG=1
M  V30 4 C 40.479168 32.479218 62.450628 0
M  V30 5 C 39.421957 28.856722 56.242969 0
M  V30 6 C 39.834099 27.542942 56.525473 0
M  V30 7 C 36.257578 33.156609 60.622507 0
M  V30 8 C 36.070958 33.944723 59.310500 0
M  V30 9 C 39.354877 32.591885 60.201044 0
M  V30 10 C 39.434604 26.926637 57.724196 0
M  V30 11 O 35.528521 30.937755 61.073266 0
M  V30 12 C 42.600025 29.752704 63.790554 0
M  V30 13 C 41.486539 30.321742 63.237268 0
M  V30 14 C 40.741534 29.635890 62.093372 0
M  V30 15 C 43.398398 30.279657 64.925233 0
M  V30 16 C 38.632469 29.559428 57.164159 0
M  V30 17 N 45.174466 30.280361 66.345082 0
M  V30 18 C 43.048922 32.175183 68.522828 0
M  V30 19 N 40.467576 30.532393 60.972630 0
M  V30 20 C 41.783883 32.007745 67.739634 0
M  V30 21 C 39.812281 29.511173 54.942251 0
M  V30 22 C 37.383490 34.217736 58.567053 0
M  V30 23 C 39.082955 33.197805 56.909154 0
M  V30 24 C 38.008470 32.947665 57.971985 0 CFG=1
M  V30 25 C 37.340523 29.690240 59.324919 0
M  V30 26 C 38.480018 31.976214 59.063469 0 CFG=2
M  V30 27 C 36.337871 31.626580 60.468924 0
M  V30 28 C 43.022176 31.426330 65.797232 0 CFG=2
M  V30 29 C 37.385887 31.032801 59.577212 0
M  V30 30 C 44.243471 31.088521 66.726443 0
M  V30 31 N 41.757579 31.485941 66.560780 0
M  V30 32 C 38.621475 27.625780 58.640398 0
M  V30 33 C 40.882079 31.652009 63.674431 0
M  V30 34 C 44.216770 31.709453 68.042357 0
M  V30 35 H 44.989875 28.879601 64.767513 0
M  V30 36 H 38.759183 31.333389 61.870323 0
M  V30 37 H 41.379494 32.883623 61.985134 0
M  V30 38 H 39.898272 33.339653 62.785188 0
M  V30 39 H 40.447974 27.004424 55.818409 0
M  V30 40 H 35.358971 33.337444 61.215209 0
M  V30 41 H 37.054964 33.549313 61.245358 0
M  V30 42 H 35.366014 33.430481 58.655903 0
M  V30 43 H 35.606763 34.902063 59.546060 0
M  V30 44 H 38.932482 33.497104 60.614241 0
M  V30 45 H 40.281904 32.943285 59.768398 0
M  V30 46 H 39.745256 25.914215 57.939853 0
M  V30 47 H 42.927947 28.816219 63.362167 0
M  V30 48 H 41.298605 28.768217 61.735719 0
M  V30 49 H 39.791624 29.261182 62.478351 0
M  V30 50 H 38.303270 30.550585 56.925572 0
M  V30 51 H 42.965204 32.634243 69.497160 0
M  V30 52 H 39.946018 30.028110 60.266547 0
M  V30 53 H 40.873663 32.341948 68.243637 0
M  V30 54 H 39.235190 30.419935 54.763834 0
M  V30 55 H 40.859474 29.775613 54.966719 0
M  V30 56 H 39.642013 28.833545 54.105691 0
M  V30 57 H 37.245188 34.935706 57.769748 0
M  V30 58 H 38.044964 34.745199 59.242638 0
M  V30 59 H 40.045090 33.337578 57.383443 0
M  V30 60 H 39.209392 32.345984 56.245559 0
M  V30 61 H 38.843364 34.045721 56.265366 0
M  V30 62 H 37.245514 32.451317 57.393595 0
M  V30 63 H 36.577876 29.101928 59.799403 0
M  V30 64 H 39.242743 31.352230 58.622432 0
M  V30 65 H 43.246583 32.380803 65.321856 0
M  V30 66 H 38.317370 27.146818 59.555786 0
M  V30 67 H 40.016245 31.456460 64.304552 0
M  V30 68 H 41.535641 32.332715 64.187906 0
M  V30 69 H 45.142434 31.751623 68.595888 0
M  V30 END ATOM
M  V30 BEGIN BOND
M  V30 1 1 4 3
M  V30 2 1 6 5
M  V30 3 1 8 7
M  V30 4 1 9 3
M  V30 5 2 10 6
M  V30 6 2 13 12
M  V30 7 1 14 13
M  V30 8 2 15 2
M  V30 9 1 15 12
M  V30 10 1 16 1
M  V30 11 2 16 5
M  V30 12 1 17 2
M  V30 13 1 19 3
M  V30 14 1 19 14
M  V30 15 1 20 18
M  V30 16 1 21 5
M  V30 17 1 22 8
M  V30 18 1 24 22
M  V30 19 1 24 23
M  V30 20 1 25 1
M  V30 21 1 26 9
M  V30 22 1 26 24
M  V30 23 1 27 7
M  V30 24 2 27 11
M  V30 25 1 28 15
M  V30 26 2 29 25
M  V30 27 1 29 26
M  V30 28 1 29 27
M  V30 29 2 30 17
M  V30 30 1 30 28
M  V30 31 2 31 20
M  V30 32 1 31 28
M  V30 33 2 32 1
M  V30 34 1 32 10
M  V30 35 1 33 4
M  V30 36 1 33 13
M  V30 37 2 34 18
M  V30 38 1 34 30
M  V30 39 1 35 2
M  V30 40 1 3 36 CFG=1
M  V30 41 1 37 4
M  V30 42 1 38 4
M  V30 43 1 39 6
M  V30 44 1 40 7
M  V30 45 1 41 7
M  V30 46 1 42 8
M  V30 47 1 43 8
M  V30 48 1 44 9
M  V30 49 1 45 9
M  V30 50 1 46 10
M  V30 51 1 47 12
M  V30 52 1 48 14
M  V30 53 1 49 14
M  V30 54 1 50 16
M  V30 55 1 51 18
M  V30 56 1 52 19
M  V30 57 1 53 20
M  V30 58 1 54 21
M  V30 59 1 55 21
M  V30 60 1 56 21
M  V30 61 1 57 22
M  V30 62 1 58 22
M  V30 63 1 59 23
M  V30 64 1 60 23
M  V30 65 1 61 23
M  V30 66 1 24 62 CFG=3
M  V30 67 1 63 25
M  V30 68 1 26 64 CFG=3
M  V30 69 1 28 65 CFG=3
M  V30 70 1 66 32
M  V30 71 1 67 33
M  V30 72 1 68 33
M  V30 73 1 69 34
M  V30 END BOND
M  V30 END CTAB
M  END
>  <i_epik_Tot_Q>  (1) 
0

>  <i_epik_Tot_abs_Q>  (1) 
0

>  <i_i_glide_confnum>  (1) 
21

>  <i_i_glide_lignum>  (1) 
40

>  <i_i_glide_posenum>  (1) 
165

>  <i_i_glide_rotatable_bonds>  (1) 
4

>  <i_lp_mmshare_version>  (1) 
72125

>  <i_m_source_file_index>  (1) 
17

>  <i_f3d_flags>  (1) 
0

>  <num_sample>  (1) 
100

>  <b_lp_Chiralities_Consistent>  (1) 
1

>  <r_epik_Charging_Adjusted_Penalty>  (1) 
0.56391873878667209

>  <r_epik_Ionization_Penalty>  (1) 
0.56391873878667209

>  <r_epik_Ionization_Penalty_Charging>  (1) 
0

>  <r_epik_Ionization_Penalty_Neutral>  (1) 
0.56391873878667209

>  <r_epik_State_Penalty>  (1) 
0.56391873878667209

>  <r_glide_ring_energy>  (1) 
0

>  <r_i_docking_score>  (1) 
-5.6621240801435091

>  <r_i_glide_ecoul>  (1) 
-3.272352394702172

>  <r_i_glide_eff_state_penalty>  (1) 
0.56391873878667209

>  <r_i_glide_einternal>  (1) 
1.6366663614680306

>  <r_i_glide_emodel>  (1) 
-31.934922551698129

>  <r_i_glide_emodel_strain>  (1) 
0.48187112668409782

>  <r_i_glide_energy>  (1) 
-33.183092347246713

>  <r_i_glide_erotb>  (1) 
0.29265828080580603

>  <r_i_glide_esite>  (1) 
-0.062089864789461824

>  <r_i_glide_evdw>  (1) 
-29.910739952544542

>  <r_i_glide_gscore>  (1) 
-6.2260428189301811

>  <r_i_glide_gscore_strain>  (1) 
0

>  <r_i_glide_hbond>  (1) 
-0.38984966629924767

>  <r_i_glide_ligand_efficiency>  (1) 
-0.16653306118069144

>  <r_i_glide_ligand_efficiency_ln>  (1) 
-1.2509220265046521

>  <r_i_glide_ligand_efficiency_sa>  (1) 
-0.53950247030383325

>  <r_i_glide_lipo>  (1) 
-2.4804232085906404

>  <r_i_glide_metal>  (1) 
-0

>  <r_i_glide_rewards>  (1) 
-1.5999485032240846

>  <r_lp_Energy>  (1) 
58.143042999999999

>  <s_epik_Chemistry_Notes>  (1) 
This compound has an imine and may undergo hydrolysis.

>  <s_epik_cmdline>  (1) 
J2VwaWtfcHl0aG9uJywgJy1waHQnLCAnMS4wJywgJy1waCcsICc3LjQnLCAnLXRuJywgJzgnLCAnLW1hJywgJzUwMCcsICctaW1hZScsICc8aW5maWxlLm1hZT4nLCAnLW9tYWUnLCAnPG91dGZpbGUubWFlPic=

>  <s_epik_input>  (1) 
W2NIXTFbY0hdW2NIXWMoW0NIM10pW2NIXWMxL1tDSF09QyhDKD1PKVtDSDJdW0NIMl1bQ0gyXVtDQEhdMltDSDNdKVxbQ0BASF0yW0NIMl1bQ0BASF0zW0NIMl1bQ0gyXUMoL1tDSDJdW05IXTMpPVtDSF1cQzQ9W0NIXU49QyhbQ0BASF00NSlbQ0hdPVtDSF1bQ0hdPU41

>  <s_glide_docking_method>  (1) 
confgen

>  <s_i_glide_gridfile>  (1) 
gpcr_5ht2c_6bqh_protein_autoprepared_prepared

>  <s_lp_Force_Field>  (1) 
S-OPLS

>  <s_lp_Variant>  (1) 
DiffSBDD_16-8

>  <s_m_source_file>  (1) 
generated_GPCR_5HT2C_ligand_DiffSBDD_2026-06-23_prepared.sdf

>  <GenAI_Model>  (1) 
DiffSBDD

>  <Protein>  (1) 
GPCR_5HT2C

$$$$
DiffSBDD_32
     RDKit          3D

  0  0  0  0  0  0  0  0  0  0999 V3000
M  V30 BEGIN CTAB
M  V30 COUNTS 65 67 0 0 1
M  V30 BEGIN ATOM
M  V30 1 C 36.942279 37.607461 59.522676 0
M  V30 2 O 35.645136 38.923894 63.367757 0
M  V30 3 O 37.137966 39.353463 61.128179 0
M  V30 4 O 40.445276 35.737743 65.098062 0
M  V30 5 C 36.926423 38.151628 60.945168 0
M  V30 6 C 38.282590 27.769586 53.753570 0
M  V30 7 N 37.645139 30.527611 57.036765 0 CHG=1
M  V30 8 C 37.843946 33.917594 60.433224 0 CFG=2
M  V30 9 C 38.708345 29.510435 57.128116 0
M  V30 10 C 36.744422 33.033753 59.787107 0
M  V30 11 C 36.054240 37.742716 63.367821 0
M  V30 12 C 36.845139 35.899337 61.801329 0
M  V30 13 C 37.854764 31.737332 57.837939 0
M  V30 14 C 41.379477 34.933360 64.890682 0
M  V30 15 O 40.000258 35.966209 62.403040 0
M  V30 16 O 42.054437 34.352157 65.767738 0 CHG=-1
M  V30 17 C 38.045222 27.152103 56.496369 0
M  V30 18 O 39.403503 32.479181 61.831233 0
M  V30 19 O 36.045125 36.937745 64.312508 0 CHG=-1
M  V30 20 C 38.438343 28.444907 56.092910 0
M  V30 21 C 38.563865 28.749773 54.721400 0
M  V30 22 C 37.338382 24.790201 55.932912 0
M  V30 23 C 37.186752 31.657811 59.230262 0
M  V30 24 C 37.329012 35.372169 60.544512 0
M  V30 25 C 37.763548 26.164684 55.523560 0
M  V30 26 C 40.562914 34.670474 62.412685 0 CFG=1
M  V30 27 C 41.734922 34.633469 63.428220 0
M  V30 28 O 37.043781 23.901614 55.135246 0
M  V30 29 C 37.336794 36.180999 59.480492 0
M  V30 30 C 36.617324 37.220308 62.028158 0
M  V30 31 C 39.099932 33.946130 59.527161 0
M  V30 32 C 37.283077 24.516601 57.435275 0
M  V30 33 C 37.877664 26.482101 54.151554 0
M  V30 34 C 39.471061 33.632054 62.685720 0 CFG=1
M  V30 35 C 38.250041 33.338118 61.812048 0 CFG=1
M  V30 36 H 37.646695 38.192517 58.934530 0
M  V30 37 H 35.951832 37.682746 59.080159 0
M  V30 38 H 38.371670 28.005420 52.702714 0
M  V30 39 H 36.731348 30.162983 57.271828 0
M  V30 40 H 39.683726 29.955512 56.928206 0
M  V30 41 H 38.735132 29.087394 58.133828 0
M  V30 42 H 35.954768 32.872198 60.522602 0
M  V30 43 H 36.253499 33.581296 58.979200 0
M  V30 44 H 36.627807 35.215124 62.567759 0
M  V30 45 H 37.421923 32.564104 57.272803 0
M  V30 46 H 38.921931 31.932644 57.885529 0
M  V30 47 H 39.905817 36.220963 63.319468 0
M  V30 48 H 37.950916 26.926273 57.546889 0
M  V30 49 H 38.867492 29.739188 54.412619 0
M  V30 50 H 37.825663 31.130437 59.939484 0
M  V30 51 H 36.282117 31.054089 59.137432 0
M  V30 52 H 40.994582 34.480852 61.433573 0
M  V30 53 H 42.255051 33.677390 63.368696 0
M  V30 54 H 42.445113 35.412385 63.160431 0
M  V30 55 H 37.645139 35.812546 58.528293 0
M  V30 56 H 39.701948 33.045303 59.590846 0
M  V30 57 H 38.830624 34.057693 58.482080 0
M  V30 58 H 39.747804 34.786851 59.767999 0
M  V30 59 H 36.495556 25.103629 57.906149 0
M  V30 60 H 37.080943 23.460426 57.613468 0
M  V30 61 H 38.236212 24.750598 57.907245 0
M  V30 62 H 37.655013 25.737743 53.403325 0
M  V30 63 H 39.407663 33.337753 63.727155 0
M  V30 64 H 37.403658 32.937626 62.366042 0
M  V30 65 H 37.583757 30.833278 56.076564 0
M  V30 END ATOM
M  V30 BEGIN BOND
M  V30 1 1 5 1
M  V30 2 2 5 3
M  V30 3 1 9 7
M  V30 4 1 8 10 CFG=3
M  V30 5 2 11 2
M  V30 6 1 13 7
M  V30 7 2 14 4
M  V30 8 1 16 14
M  V30 9 1 19 11
M  V30 10 1 20 9
M  V30 11 2 20 17
M  V30 12 2 21 6
M  V30 13 1 21 20
M  V30 14 1 23 10
M  V30 15 1 23 13
M  V30 16 1 24 8
M  V30 17 1 24 12
M  V30 18 1 25 17
M  V30 19 1 25 22
M  V30 20 1 26 15
M  V30 21 1 27 14
M  V30 22 1 27 26
M  V30 23 2 28 22
M  V30 24 1 29 1
M  V30 25 2 29 24
M  V30 26 1 30 5
M  V30 27 1 30 11
M  V30 28 2 30 12
M  V30 29 1 31 8
M  V30 30 1 32 22
M  V30 31 1 33 6
M  V30 32 2 33 25
M  V30 33 1 34 18
M  V30 34 1 34 26
M  V30 35 1 35 8
M  V30 36 1 35 18
M  V30 37 1 35 34
M  V30 38 1 36 1
M  V30 39 1 37 1
M  V30 40 1 38 6
M  V30 41 1 39 7
M  V30 42 1 40 9
M  V30 43 1 41 9
M  V30 44 1 42 10
M  V30 45 1 43 10
M  V30 46 1 44 12
M  V30 47 1 45 13
M  V30 48 1 46 13
M  V30 49 1 47 15
M  V30 50 1 48 17
M  V30 51 1 49 21
M  V30 52 1 50 23
M  V30 53 1 51 23
M  V30 54 1 26 52 CFG=3
M  V30 55 1 53 27
M  V30 56 1 54 27
M  V30 57 1 55 29
M  V30 58 1 56 31
M  V30 59 1 57 31
M  V30 60 1 58 31
M  V30 61 1 59 32
M  V30 62 1 60 32
M  V30 63 1 61 32
M  V30 64 1 62 33
M  V30 65 1 34 63 CFG=1
M  V30 66 1 35 64 CFG=1
M  V30 67 1 65 7
M  V30 END BOND
M  V30 END CTAB
M  END
>  <i_epik_Tot_Q>  (1) 
-1

>  <i_epik_Tot_abs_Q>  (1) 
3

>  <i_i_glide_confnum>  (1) 
988

>  <i_i_glide_lignum>  (1) 
76

>  <i_i_glide_posenum>  (1) 
370

>  <i_i_glide_rotatable_bonds>  (1) 
14

>  <i_lp_mmshare_version>  (1) 
72125

>  <i_m_source_file_index>  (1) 
33

>  <i_f3d_flags>  (1) 
0

>  <num_sample>  (1) 
100

>  <b_lp_Chiralities_Consistent>  (1) 
1

>  <r_epik_Charging_Adjusted_Penalty>  (1) 
0.080349275114026383

>  <r_epik_Ionization_Penalty>  (1) 
0.040587732583292166

>  <r_epik_Ionization_Penalty_Charging>  (1) 
0.040587694316789436

>  <r_epik_Ionization_Penalty_Neutral>  (1) 
3.8266502729817704e-08

>  <r_epik_State_Penalty>  (1) 
0.039761580797236948

>  <r_glide_ring_energy>  (1) 
0

>  <r_i_docking_score>  (1) 
-5.6558837087327403

>  <r_i_glide_ecoul>  (1) 
-0.2537112410633009

>  <r_i_glide_eff_state_penalty>  (1) 
0.039761580797236948

>  <r_i_glide_einternal>  (1) 
12.41551973570758

>  <r_i_glide_emodel>  (1) 
-34.864646286847723

>  <r_i_glide_emodel_strain>  (1) 
2.8524363297235809

>  <r_i_glide_energy>  (1) 
-23.592814911611072

>  <r_i_glide_erotb>  (1) 
0.86504187564476209

>  <r_i_glide_esite>  (1) 
-0.10000000000000001

>  <r_i_glide_evdw>  (1) 
-23.339103670547772

>  <r_i_glide_gscore>  (1) 
-5.6956452895299776

>  <r_i_glide_gscore_strain>  (1) 
0

>  <r_i_glide_hbond>  (1) 
-0.013742768736090125

>  <r_i_glide_ligand_efficiency>  (1) 
-0.161596677392364

>  <r_i_glide_ligand_efficiency_ln>  (1) 
-1.2415919996426128

>  <r_i_glide_ligand_efficiency_sa>  (1) 
-0.52859344725657609

>  <r_i_glide_lipo>  (1) 
-3.3349584539377544

>  <r_i_glide_metal>  (1) 
-0

>  <r_i_glide_rewards>  (1) 
-1.906974072814011

>  <r_lp_Energy>  (1) 
50.449213

>  <r_lp_tautomer_probability>  (1) 
0.99995000000000001

>  <s_epik_cmdline>  (1) 
J2VwaWtfcHl0aG9uJywgJy1waHQnLCAnMS4wJywgJy1waCcsICc3LjQnLCAnLXRuJywgJzgnLCAnLW1hJywgJzUwMCcsICctaW1hZScsICc8aW5maWxlLm1hZT4nLCAnLW9tYWUnLCAnPG91dGZpbGUubWFlPic=

>  <s_epik_input>  (1) 
Tz1DKFtPSF0pW0NIMl1bQ0BIXShbT0hdKVtDQEBIXTFPW0NAQEhdMVtDQF0oW0NIM10pKEMoPVtDSF1bQ0gyXUMyPU8pW0NIXT1DMkMoPU8pW09IXSlbQ0gyXVtDSDJdW0NIMl1bTkhdW0NIMl1jM1tjSF1jKEMoPU8pW0NIM10pW2NIXVtjSF1bY0hdMw==

>  <s_glide_docking_method>  (1) 
confgen

>  <s_i_glide_gridfile>  (1) 
gpcr_5ht2c_6bqh_protein_autoprepared_prepared

>  <s_lp_Force_Field>  (1) 
S-OPLS

>  <s_lp_Variant>  (1) 
DiffSBDD_32-1

>  <s_m_source_file>  (1) 
generated_GPCR_5HT2C_ligand_DiffSBDD_2026-06-23_prepared.sdf

>  <GenAI_Model>  (1) 
DiffSBDD

>  <Protein>  (1) 
GPCR_5HT2C

$$$$
DiffSBDD_39
     RDKit          3D

  0  0  0  0  0  0  0  0  0  0999 V3000
M  V30 BEGIN CTAB
M  V30 COUNTS 44 46 0 0 1
M  V30 BEGIN ATOM
M  V30 1 C 39.137321 28.038173 52.131053 0
M  V30 2 C 35.444766 32.087539 61.260841 0
M  V30 3 C 37.164636 30.139213 58.167399 0
M  V30 4 O 36.680491 31.738166 61.767765 0
M  V30 5 O 39.632563 27.074886 51.557078 0
M  V30 6 C 38.007763 33.133327 60.478880 0 CFG=2
M  V30 7 C 38.826881 32.699564 56.757328 0
M  V30 8 C 39.657438 30.433043 52.826702 0
M  V30 9 O 37.962275 34.137771 59.493384 0
M  V30 10 C 39.378732 29.474144 51.646387 0 CFG=1
M  V30 11 N 37.850484 31.748296 59.921095 0
M  V30 12 O 36.898842 28.091901 52.967828 0
M  V30 13 C 37.652031 31.556541 58.507472 0 CFG=1
M  V30 14 C 38.675706 30.280661 53.999884 0 CFG=1
M  V30 15 C 38.615472 28.823391 54.482248 0
M  V30 16 O 38.845143 31.748270 57.819058 0
M  V30 17 C 36.724628 32.422147 60.492068 0 CFG=2
M  V30 18 O 39.150300 31.074245 55.069490 0
M  V30 19 C 40.459918 29.588366 50.562813 0
M  V30 20 C 38.234311 27.856641 53.351459 0 CFG=2
M  V30 21 C 38.253049 32.093579 55.477460 0
M  V30 22 H 34.926947 32.899144 61.767657 0
M  V30 23 H 34.845195 31.264090 60.893324 0
M  V30 24 H 36.220032 29.946102 58.676682 0
M  V30 25 H 36.997843 30.036829 57.096906 0
M  V30 26 H 37.901540 29.402186 58.485424 0
M  V30 27 H 38.540121 33.349594 61.402884 0
M  V30 28 H 39.857986 32.991080 56.564072 0
M  V30 29 H 38.292158 33.610522 57.025308 0
M  V30 30 H 40.665383 30.265691 53.199664 0
M  V30 31 H 39.645000 31.464423 52.474719 0
M  V30 32 H 37.262551 34.737547 59.701814 0
M  V30 33 H 38.445164 29.737752 51.165500 0
M  V30 34 H 36.685836 27.447314 52.304617 0
M  V30 35 H 36.909641 32.278644 58.167793 0
M  V30 36 H 37.675287 30.590688 53.698667 0
M  V30 37 H 37.900564 28.732539 55.299427 0
M  V30 38 H 39.582314 28.530961 54.895218 0
M  V30 39 H 40.254170 28.927358 49.720416 0
M  V30 40 H 40.512667 30.604748 50.170095 0
M  V30 41 H 41.439835 29.338140 50.967746 0
M  V30 42 H 38.314773 26.827815 53.703835 0
M  V30 43 H 38.187747 32.851664 54.696380 0
M  V30 44 H 37.245303 31.713512 55.639576 0
M  V30 END ATOM
M  V30 BEGIN BOND
M  V30 1 1 4 2
M  V30 2 2 5 1
M  V30 3 1 9 6
M  V30 4 1 10 1
M  V30 5 1 10 8
M  V30 6 1 11 6
M  V30 7 1 13 3
M  V30 8 1 13 11
M  V30 9 1 14 8
M  V30 10 1 15 14
M  V30 11 1 16 7
M  V30 12 1 16 13
M  V30 13 1 17 2
M  V30 14 1 17 4 CFG=1
M  V30 15 1 17 6
M  V30 16 1 17 11
M  V30 17 1 18 14
M  V30 18 1 19 10
M  V30 19 1 20 1
M  V30 20 1 20 12
M  V30 21 1 20 15
M  V30 22 1 21 7
M  V30 23 1 21 18
M  V30 24 1 22 2
M  V30 25 1 23 2
M  V30 26 1 24 3
M  V30 27 1 25 3
M  V30 28 1 26 3
M  V30 29 1 6 27 CFG=1
M  V30 30 1 28 7
M  V30 31 1 29 7
M  V30 32 1 30 8
M  V30 33 1 31 8
M  V30 34 1 32 9
M  V30 35 1 10 33 CFG=3
M  V30 36 1 34 12
M  V30 37 1 13 35 CFG=3
M  V30 38 1 14 36 CFG=3
M  V30 39 1 37 15
M  V30 40 1 38 15
M  V30 41 1 39 19
M  V30 42 1 40 19
M  V30 43 1 41 19
M  V30 44 1 20 42 CFG=1
M  V30 45 1 43 21
M  V30 46 1 44 21
M  V30 END BOND
M  V30 END CTAB
M  END
>  <i_epik_Tot_Q>  (1) 
0

>  <i_epik_Tot_abs_Q>  (1) 
0

>  <i_i_glide_confnum>  (1) 
163

>  <i_i_glide_lignum>  (1) 
87

>  <i_i_glide_posenum>  (1) 
56

>  <i_i_glide_rotatable_bonds>  (1) 
8

>  <i_lp_mmshare_version>  (1) 
72125

>  <i_m_source_file_index>  (1) 
40

>  <i_f3d_flags>  (1) 
0

>  <num_sample>  (1) 
100

>  <b_lp_Chiralities_Consistent>  (1) 
1

>  <r_epik_Charging_Adjusted_Penalty>  (1) 
0

>  <r_epik_Ionization_Penalty>  (1) 
7.7229051731594394e-07

>  <r_epik_Ionization_Penalty_Charging>  (1) 
0

>  <r_epik_Ionization_Penalty_Neutral>  (1) 
7.7229051731594394e-07

>  <r_epik_State_Penalty>  (1) 
-0

>  <r_glide_ring_energy>  (1) 
0

>  <r_i_docking_score>  (1) 
-5.6510421243494209

>  <r_i_glide_ecoul>  (1) 
-6.9655896205479566

>  <r_i_glide_eff_state_penalty>  (1) 
-0

>  <r_i_glide_einternal>  (1) 
7.5492241375636828

>  <r_i_glide_emodel>  (1) 
-45.378372548554715

>  <r_i_glide_emodel_strain>  (1) 
0.20000002486543167

>  <r_i_glide_energy>  (1) 
-36.220578282711266

>  <r_i_glide_erotb>  (1) 
1.2154630782883253

>  <r_i_glide_esite>  (1) 
-0.12911373106518262

>  <r_i_glide_evdw>  (1) 
-29.254988662163306

>  <r_i_glide_gscore>  (1) 
-5.6510421243494209

>  <r_i_glide_gscore_strain>  (1) 
0

>  <r_i_glide_hbond>  (1) 
-0.60799999999999998

>  <r_i_glide_ligand_efficiency>  (1) 
-0.26909724401663909

>  <r_i_glide_ligand_efficiency_ln>  (1) 
-1.3972087462395868

>  <r_i_glide_ligand_efficiency_sa>  (1) 
-0.74241889231503555

>  <r_i_glide_lipo>  (1) 
-1.7459575186504759

>  <r_i_glide_metal>  (1) 
-0

>  <r_i_glide_rewards>  (1) 
-1.8758460767317293

>  <r_lp_Energy>  (1) 
17.348379999999999

>  <r_lp_tautomer_probability>  (1) 
1

>  <s_epik_Chemistry_Notes>  (1) 
This compound contains an acetal/aminal-like group ( X-CH(R)-Y where X, Y are N, S, or O) that may be acid/base labile, releasing an aldehyde.

>  <s_epik_cmdline>  (1) 
J2VwaWtfcHl0aG9uJywgJy1waHQnLCAnMS4wJywgJy1waCcsICc3LjQnLCAnLXRuJywgJzgnLCAnLW1hJywgJzUwMCcsICctaW1hZScsICc8aW5maWxlLm1hZT4nLCAnLW9tYWUnLCAnPG91dGZpbGUubWFlPic=

>  <s_epik_input>  (1) 
Tz1DMVtDQEBIXShbQ0gzXSlbQ0gyXVtDQEBIXShbQ0gyXVtDQEhdMVtPSF0pT1tDSDJdW0NIMl1PW0NAQEhdKFtDSDNdKU4yW0NAQEhdKFtPSF0pQzIzW0NIMl1PMw==

>  <s_glide_docking_method>  (1) 
confgen

>  <s_i_glide_gridfile>  (1) 
gpcr_5ht2c_6bqh_protein_autoprepared_prepared

>  <s_lp_Force_Field>  (1) 
S-OPLS

>  <s_lp_Variant>  (1) 
DiffSBDD_39-2

>  <s_m_source_file>  (1) 
generated_GPCR_5HT2C_ligand_DiffSBDD_2026-06-23_prepared.sdf

>  <GenAI_Model>  (1) 
DiffSBDD

>  <Protein>  (1) 
GPCR_5HT2C

$$$$
DiffSBDD_88
     RDKit          3D

  0  0  0  0  0  0  0  0  0  0999 V3000
M  V30 BEGIN CTAB
M  V30 COUNTS 46 47 0 0 1
M  V30 BEGIN ATOM
M  V30 1 C 38.646225 27.986356 53.095904 0
M  V30 2 O 37.880221 25.200730 57.201407 0
M  V30 3 O 39.707415 29.261717 61.473806 0
M  V30 4 C 39.974566 30.414870 52.561038 0
M  V30 5 C 39.644003 27.388370 56.153711 0
M  V30 6 C 40.445147 30.725824 63.667346 0
M  V30 7 C 39.645136 29.544074 51.504008 0
M  V30 8 C 39.494938 25.944603 55.622916 0
M  V30 9 C 38.100925 31.014750 58.259395 0 CFG=1
M  V30 10 C 37.237175 28.633949 58.207344 0
M  V30 11 C 39.578988 30.488171 61.561826 0
M  V30 12 C 38.141050 25.328661 55.984606 0
M  V30 13 C 36.981899 31.638333 59.116039 0
M  V30 14 C 38.975720 28.333515 51.770751 0
M  V30 15 C 39.645137 30.071995 53.888112 0
M  V30 16 C 38.950741 31.281894 60.409332 0 CFG=1
M  V30 17 C 38.988176 28.849935 54.160564 0
M  V30 18 O 39.055141 30.537754 59.206814 0
M  V30 19 C 38.662936 28.455334 55.599947 0 CFG=2
M  V30 20 C 37.443849 31.465927 60.553079 0
M  V30 21 N 39.952827 31.286678 62.634997 0
M  V30 22 C 37.676191 29.836069 57.354570 0 CFG=2
M  V30 23 O 38.782170 29.560691 56.495032 0
M  V30 24 O 37.397016 24.996972 55.036557 0 CHG=-1
M  V30 25 H 38.137699 27.053982 53.297243 0
M  V30 26 H 40.482584 31.343688 52.354593 0
M  V30 27 H 40.667195 27.727508 55.989878 0
M  V30 28 H 39.537591 27.343661 57.237716 0
M  V30 29 H 40.757452 31.326549 64.525463 0
M  V30 30 H 40.565370 29.638906 63.720243 0
M  V30 31 H 39.898939 29.807958 50.487673 0
M  V30 32 H 39.659720 25.895041 54.547876 0
M  V30 33 H 40.267904 25.319472 56.070267 0
M  V30 34 H 38.562666 31.799670 57.658074 0
M  V30 35 H 36.412910 28.937750 58.852787 0
M  V30 36 H 36.885356 27.784966 57.627347 0
M  V30 37 H 38.045144 28.274615 58.845140 0
M  V30 38 H 36.876217 32.695111 58.867712 0
M  V30 39 H 36.006240 31.176764 58.967759 0
M  V30 40 H 38.717310 27.668911 50.959267 0
M  V30 41 H 39.907871 30.738777 54.696193 0
M  V30 42 H 39.450439 32.243466 60.276694 0
M  V30 43 H 37.645138 28.074662 55.587536 0
M  V30 44 H 36.985506 30.571892 60.977907 0
M  V30 45 H 37.180942 32.316851 61.182171 0
M  V30 46 H 36.845145 30.137763 56.718742 0
M  V30 END ATOM
M  V30 BEGIN BOND
M  V30 1 2 7 4
M  V30 2 1 8 5
M  V30 3 2 11 3
M  V30 4 2 12 2
M  V30 5 1 12 8
M  V30 6 1 13 9
M  V30 7 2 14 1
M  V30 8 1 14 7
M  V30 9 1 15 4
M  V30 10 1 16 11
M  V30 11 1 17 1
M  V30 12 2 17 15
M  V30 13 1 18 9
M  V30 14 1 18 16
M  V30 15 1 19 5
M  V30 16 1 19 17
M  V30 17 1 20 13
M  V30 18 1 20 16
M  V30 19 2 21 6
M  V30 20 1 21 11
M  V30 21 1 22 9
M  V30 22 1 22 10
M  V30 23 1 23 19
M  V30 24 1 23 22
M  V30 25 1 24 12
M  V30 26 1 25 1
M  V30 27 1 26 4
M  V30 28 1 27 5
M  V30 29 1 28 5
M  V30 30 1 29 6
M  V30 31 1 30 6
M  V30 32 1 31 7
M  V30 33 1 32 8
M  V30 34 1 33 8
M  V30 35 1 9 34 CFG=3
M  V30 36 1 35 10
M  V30 37 1 36 10
M  V30 38 1 37 10
M  V30 39 1 38 13
M  V30 40 1 39 13
M  V30 41 1 40 14
M  V30 42 1 41 15
M  V30 43 1 16 42 CFG=3
M  V30 44 1 19 43 CFG=3
M  V30 45 1 44 20
M  V30 46 1 45 20
M  V30 47 1 22 46 CFG=3
M  V30 END BOND
M  V30 END CTAB
M  END
>  <i_epik_Tot_Q>  (1) 
-1

>  <i_epik_Tot_abs_Q>  (1) 
1

>  <i_i_glide_confnum>  (1) 
922

>  <i_i_glide_lignum>  (1) 
208

>  <i_i_glide_posenum>  (1) 
192

>  <i_i_glide_rotatable_bonds>  (1) 
9

>  <i_lp_mmshare_version>  (1) 
72125

>  <i_m_source_file_index>  (1) 
89

>  <i_f3d_flags>  (1) 
0

>  <num_sample>  (1) 
100

>  <b_lp_Chiralities_Consistent>  (1) 
1

>  <r_epik_Charging_Adjusted_Penalty>  (1) 
0.00097316561850613933

>  <r_epik_Ionization_Penalty>  (1) 
0.00097316561914866995

>  <r_epik_Ionization_Penalty_Charging>  (1) 
0.00097316561850613933

>  <r_epik_Ionization_Penalty_Neutral>  (1) 
6.4253058124533643e-13

>  <r_epik_State_Penalty>  (1) 
-0

>  <r_glide_ring_energy>  (1) 
0

>  <r_i_docking_score>  (1) 
-5.6499536264796957

>  <r_i_glide_ecoul>  (1) 
-2.5142608496014476

>  <r_i_glide_eff_state_penalty>  (1) 
-0

>  <r_i_glide_einternal>  (1) 
6.8654994956549906

>  <r_i_glide_emodel>  (1) 
-47.720034352861816

>  <r_i_glide_emodel_strain>  (1) 
0.54544381739694003

>  <r_i_glide_energy>  (1) 
-36.76464061164998

>  <r_i_glide_erotb>  (1) 
1.1933401275703905

>  <r_i_glide_esite>  (1) 
-0.00076513292454961912

>  <r_i_glide_evdw>  (1) 
-34.250379762048532

>  <r_i_glide_gscore>  (1) 
-5.6499536264796957

>  <r_i_glide_gscore_strain>  (1) 
0

>  <r_i_glide_hbond>  (1) 
0

>  <r_i_glide_ligand_efficiency>  (1) 
-0.23541473443665398

>  <r_i_glide_ligand_efficiency_ln>  (1) 
-1.3522931622949366

>  <r_i_glide_ligand_efficiency_sa>  (1) 
-0.67905359917059371

>  <r_i_glide_lipo>  (1) 
-2.4139598479301139

>  <r_i_glide_metal>  (1) 
-0

>  <r_i_glide_rewards>  (1) 
-2.3389106576527796

>  <r_lp_Energy>  (1) 
7.8123529999999999

>  <r_lp_tautomer_probability>  (1) 
1

>  <s_epik_Chemistry_Notes>  (1) 
This compound has an imine and may undergo hydrolysis.

>  <s_epik_cmdline>  (1) 
J2VwaWtfcHl0aG9uJywgJy1waHQnLCAnMS4wJywgJy1waCcsICc3LjQnLCAnLXRuJywgJzgnLCAnLW1hJywgJzUwMCcsICctaW1hZScsICc8aW5maWxlLm1hZT4nLCAnLW9tYWUnLCAnPG91dGZpbGUubWFlPic=

>  <s_epik_input>  (1) 
W2NIXTFbY0hdW2NIXVtjSF1bY0hdYzFbQ0BASF0oW0NIMl1bQ0gyXUMoPU8pW09IXSlPW0NAQEhdKFtDSDNdKVtDQEhdMltDSDJdW0NIMl1bQ0BIXShPMilDKD1PKU49W0NIMl0=

>  <s_glide_docking_method>  (1) 
confgen

>  <s_i_glide_gridfile>  (1) 
gpcr_5ht2c_6bqh_protein_autoprepared_prepared

>  <s_lp_Force_Field>  (1) 
S-OPLS

>  <s_lp_Variant>  (1) 
DiffSBDD_88-1

>  <s_m_source_file>  (1) 
generated_GPCR_5HT2C_ligand_DiffSBDD_2026-06-23_prepared.sdf

>  <GenAI_Model>  (1) 
DiffSBDD

>  <Protein>  (1) 
GPCR_5HT2C

$$$$
DiffSBDD_54
     RDKit          3D

  0  0  0  0  0  0  0  0  0  0999 V3000
M  V30 BEGIN CTAB
M  V30 COUNTS 42 43 0 0 1
M  V30 BEGIN ATOM
M  V30 1 C 39.895083 30.205051 54.039590 0
M  V30 2 C 38.161068 26.430060 55.934338 0
M  V30 3 C 39.093036 28.448700 57.156380 0
M  V30 4 C 40.941649 30.642477 49.778073 0
M  V30 5 C 40.346848 28.787447 51.383812 0
M  V30 6 S 37.772582 28.737522 54.595803 0 CHG=1
M  V30 7 C 38.104287 31.062239 55.616309 0
M  V30 8 N 38.114517 25.536470 54.967761 0
M  V30 9 C 38.271820 27.472680 51.795147 0
M  V30 10 C 37.428496 24.537748 55.641733 0
M  V30 11 N 37.095905 24.814490 56.918763 0
M  V30 12 N 37.590092 26.050162 57.054213 0
M  V30 13 N 38.906404 29.291028 53.417499 0 CFG=2 CHG=1
M  V30 14 C 39.415068 28.229914 52.485529 0 CFG=2
M  V30 15 C 39.142708 31.431095 54.549489 0
M  V30 16 C 39.876375 30.082583 50.710411 0
M  V30 17 O 37.245134 29.963317 55.285738 0
M  V30 18 C 38.802439 27.778775 55.797691 0 CFG=2
M  V30 19 H 40.648193 30.545073 53.334424 0
M  V30 20 H 40.445136 29.732913 54.850315 0
M  V30 21 H 39.583524 27.750245 57.835687 0
M  V30 22 H 38.182474 28.800163 57.643947 0
M  V30 23 H 39.787774 29.279390 57.056211 0
M  V30 24 H 40.592495 31.586950 49.367761 0
M  V30 25 H 41.164572 29.950468 48.967770 0
M  V30 26 H 41.871060 30.845836 50.309839 0
M  V30 27 H 40.460936 28.030304 50.607082 0
M  V30 28 H 41.349232 28.937706 51.767759 0
M  V30 29 H 38.576716 30.926965 56.583873 0
M  V30 30 H 37.457864 31.927548 55.767761 0
M  V30 31 H 38.656582 26.738123 51.086007 0
M  V30 32 H 37.645084 28.156042 51.232146 0
M  V30 33 H 37.645143 26.923150 52.494942 0
M  V30 34 H 37.174589 23.592951 55.183106 0
M  V30 35 H 37.517204 26.577965 57.913836 0
M  V30 36 H 39.968764 27.474370 53.043201 0
M  V30 37 H 39.850886 32.137752 54.977298 0
M  V30 38 H 38.653767 31.943212 53.719070 0
M  V30 39 H 38.956046 29.895567 50.167762 0
M  V30 40 H 39.645139 30.866922 51.426505 0
M  V30 41 H 39.768575 27.586791 55.332978 0
M  V30 42 H 38.405317 29.901265 52.790190 0
M  V30 END ATOM
M  V30 BEGIN BOND
M  V30 1 2 8 2
M  V30 2 1 10 8
M  V30 3 2 11 10
M  V30 4 1 12 2
M  V30 5 1 12 11
M  V30 6 1 13 1
M  V30 7 1 13 6
M  V30 8 1 14 5
M  V30 9 1 14 9
M  V30 10 1 14 13
M  V30 11 1 15 1
M  V30 12 1 15 7
M  V30 13 1 16 4
M  V30 14 1 16 5
M  V30 15 1 6 17 CFG=1
M  V30 16 1 17 7
M  V30 17 1 18 2
M  V30 18 1 18 3
M  V30 19 1 18 6
M  V30 20 1 19 1
M  V30 21 1 20 1
M  V30 22 1 21 3
M  V30 23 1 22 3
M  V30 24 1 23 3
M  V30 25 1 24 4
M  V30 26 1 25 4
M  V30 27 1 26 4
M  V30 28 1 27 5
M  V30 29 1 28 5
M  V30 30 1 29 7
M  V30 31 1 30 7
M  V30 32 1 31 9
M  V30 33 1 32 9
M  V30 34 1 33 9
M  V30 35 1 34 10
M  V30 36 1 35 12
M  V30 37 1 14 36 CFG=1
M  V30 38 1 37 15
M  V30 39 1 38 15
M  V30 40 1 39 16
M  V30 41 1 40 16
M  V30 42 1 18 41 CFG=3
M  V30 43 1 13 42 CFG=3
M  V30 END BOND
M  V30 END CTAB
M  END
>  <i_epik_Tot_Q>  (1) 
2

>  <i_epik_Tot_abs_Q>  (1) 
2

>  <i_i_glide_confnum>  (1) 
29

>  <i_i_glide_lignum>  (1) 
116

>  <i_i_glide_posenum>  (1) 
52

>  <i_i_glide_rotatable_bonds>  (1) 
5

>  <i_lp_mmshare_version>  (1) 
72125

>  <i_m_source_file_index>  (1) 
55

>  <i_f3d_flags>  (1) 
0

>  <num_sample>  (1) 
100

>  <b_lp_Chiralities_Consistent>  (1) 
1

>  <r_epik_Charging_Adjusted_Penalty>  (1) 
0.22285261290592212

>  <r_epik_Ionization_Penalty>  (1) 
0.11376846567106323

>  <r_epik_Ionization_Penalty_Charging>  (1) 
0.11142630645296109

>  <r_epik_Ionization_Penalty_Neutral>  (1) 
0.0023421592181021404

>  <r_epik_State_Penalty>  (1) 
0.11142630645296105

>  <r_glide_ring_energy>  (1) 
0

>  <r_i_docking_score>  (1) 
-5.6460349671556402

>  <r_i_glide_ecoul>  (1) 
0.075762190533953389

>  <r_i_glide_eff_state_penalty>  (1) 
0.11142630645296105

>  <r_i_glide_einternal>  (1) 
5.7975942518562897

>  <r_i_glide_emodel>  (1) 
-42.927114220452111

>  <r_i_glide_emodel_strain>  (1) 
2.0730647196706649

>  <r_i_glide_energy>  (1) 
-29.994136619766433

>  <r_i_glide_erotb>  (1) 
0.96597774364564237

>  <r_i_glide_esite>  (1) 
0

>  <r_i_glide_evdw>  (1) 
-30.069898810300387

>  <r_i_glide_gscore>  (1) 
-5.7574612736086017

>  <r_i_glide_gscore_strain>  (1) 
0

>  <r_i_glide_hbond>  (1) 
0

>  <r_i_glide_ligand_efficiency>  (1) 
-0.31366860928642448

>  <r_i_glide_ligand_efficiency_ln>  (1) 
-1.4512841750138818

>  <r_i_glide_ligand_efficiency_sa>  (1) 
-0.82204430842086973

>  <r_i_glide_lipo>  (1) 
-2.0429865151079434

>  <r_i_glide_metal>  (1) 
-0

>  <r_i_glide_rewards>  (1) 
-3.1883218902113732

>  <r_lp_Energy>  (1) 
20.164648

>  <r_lp_tautomer_probability>  (1) 
0.94828448534560383

>  <s_epik_cmdline>  (1) 
J2VwaWtfcHl0aG9uJywgJy1waHQnLCAnMS4wJywgJy1waCcsICc3LjQnLCAnLXRuJywgJzgnLCAnLW1hJywgJzUwMCcsICctaW1hZScsICc8aW5maWxlLm1hZT4nLCAnLW9tYWUnLCAnPG91dGZpbGUubWFlPic=

>  <s_epik_input>  (1) 
W0NIM11bQ0gyXVtDSDJdW0NASF0oW0NIM10pTihbQ0gyXVtDSDJdW0NIMl1PMSlbUytdMVtDQEBIXShbQ0gzXSljMm5bY0hdbltuSF0y

>  <s_glide_docking_method>  (1) 
confgen

>  <s_i_glide_gridfile>  (1) 
gpcr_5ht2c_6bqh_protein_autoprepared_prepared

>  <s_lp_Force_Field>  (1) 
S-OPLS

>  <s_lp_Variant>  (1) 
DiffSBDD_54-2

>  <s_m_source_file>  (1) 
generated_GPCR_5HT2C_ligand_DiffSBDD_2026-06-23_prepared.sdf

>  <GenAI_Model>  (1) 
DiffSBDD

>  <Protein>  (1) 
GPCR_5HT2C

$$$$
DiffSBDD_46
     RDKit          3D

  0  0  0  0  0  0  0  0  0  0999 V3000
M  V30 BEGIN CTAB
M  V30 COUNTS 55 56 0 0 1
M  V30 BEGIN ATOM
M  V30 1 C 39.635707 32.322138 55.782689 0
M  V30 2 C 35.572191 31.532658 60.268753 0
M  V30 3 C 39.426557 30.380051 53.767391 0
M  V30 4 O 39.977471 32.651271 61.248944 0
M  V30 5 C 38.809816 30.137924 55.025445 0
M  V30 6 C 37.082271 35.681695 59.840688 0
M  V30 7 C 38.927211 29.988334 60.949017 0
M  V30 8 P 38.967325 32.593246 60.167781 0
M  V30 9 C 38.018653 28.973075 55.186953 0
M  V30 10 C 37.398388 33.320795 60.906726 0 CFG=1
M  V30 11 C 39.249037 29.477186 52.699386 0
M  V30 12 O 38.273398 28.924500 58.485364 0
M  V30 13 O 38.283300 27.456700 51.834341 0
M  V30 14 N 38.817646 35.280412 61.572127 0 CHG=1
M  V30 15 C 34.842613 32.787265 60.689304 0
M  V30 16 C 38.118012 30.952296 57.284192 0
M  V30 17 C 37.840982 28.077252 54.111936 0
M  V30 18 C 39.920651 29.745482 51.363575 0
M  V30 19 C 37.477159 34.866483 61.090311 0 CFG=1
M  V30 20 S 38.838397 36.813348 62.350670 0 CHG=-1
M  V30 21 O 39.245111 33.337758 58.930788 0 CHG=-1
M  V30 22 N 38.582341 30.868100 59.826825 0
M  V30 23 C 38.798174 30.239790 58.492249 0 CFG=1
M  V30 24 C 38.454586 28.328367 52.871264 0
M  V30 25 C 36.207157 32.887621 60.075857 0
M  V30 26 N 38.999802 31.054311 56.106945 0
M  V30 27 H 40.660841 32.137731 55.470033 0
M  V30 28 H 39.095483 32.840846 54.990029 0
M  V30 29 H 39.673860 32.986362 56.639247 0
M  V30 30 H 35.245163 31.017863 59.367989 0
M  V30 31 H 35.968439 30.892840 61.052562 0
M  V30 32 H 40.038162 31.255257 53.618930 0
M  V30 33 H 36.024946 35.560996 59.604382 0
M  V30 34 H 37.248613 36.749818 59.979579 0
M  V30 35 H 37.645127 35.367175 58.967614 0
M  V30 36 H 38.483072 28.999574 60.863668 0
M  V30 37 H 40.007431 29.861319 61.020992 0
M  V30 38 H 38.584133 30.410424 61.893942 0
M  V30 39 H 37.549594 28.760839 56.127694 0
M  V30 40 H 37.287067 32.872419 61.894350 0
M  V30 41 H 37.358202 28.984952 58.260210 0
M  V30 42 H 37.514992 26.902465 51.900064 0
M  V30 43 H 39.156845 34.549876 62.186791 0
M  V30 44 H 34.750833 32.989155 61.754901 0
M  V30 45 H 34.004675 33.116570 60.077517 0
M  V30 46 H 37.852381 31.970235 57.558334 0
M  V30 47 H 37.142689 30.533838 57.049764 0
M  V30 48 H 37.235081 27.193243 54.244764 0
M  V30 49 H 40.407093 30.721418 51.350735 0
M  V30 50 H 40.677826 28.986534 51.164997 0
M  V30 51 H 39.192923 29.721076 50.552977 0
M  V30 52 H 36.761091 35.122763 61.872116 0
M  V30 53 H 39.868703 30.137744 58.314600 0
M  V30 54 H 36.250193 33.213849 59.037405 0
M  V30 55 H 39.433657 35.261769 60.769819 0
M  V30 END ATOM
M  V30 BEGIN BOND
M  V30 1 2 5 3
M  V30 2 2 8 4
M  V30 3 1 9 5
M  V30 4 1 10 8
M  V30 5 1 11 3
M  V30 6 1 15 2
M  V30 7 2 17 9
M  V30 8 1 18 11
M  V30 9 1 19 6
M  V30 10 1 19 10
M  V30 11 1 19 14
M  V30 12 1 20 14
M  V30 13 1 21 8
M  V30 14 1 22 7
M  V30 15 1 22 8
M  V30 16 1 23 12
M  V30 17 1 23 16
M  V30 18 1 23 22
M  V30 19 2 24 11
M  V30 20 1 24 13
M  V30 21 1 24 17
M  V30 22 1 25 2
M  V30 23 1 25 10
M  V30 24 1 25 15
M  V30 25 1 26 1
M  V30 26 1 26 5
M  V30 27 1 26 16
M  V30 28 1 27 1
M  V30 29 1 28 1
M  V30 30 1 29 1
M  V30 31 1 30 2
M  V30 32 1 31 2
M  V30 33 1 32 3
M  V30 34 1 33 6
M  V30 35 1 34 6
M  V30 36 1 35 6
M  V30 37 1 36 7
M  V30 38 1 37 7
M  V30 39 1 38 7
M  V30 40 1 39 9
M  V30 41 1 10 40 CFG=1
M  V30 42 1 41 12
M  V30 43 1 42 13
M  V30 44 1 43 14
M  V30 45 1 44 15
M  V30 46 1 45 15
M  V30 47 1 46 16
M  V30 48 1 47 16
M  V30 49 1 48 17
M  V30 50 1 49 18
M  V30 51 1 50 18
M  V30 52 1 51 18
M  V30 53 1 19 52 CFG=1
M  V30 54 1 23 53 CFG=3
M  V30 55 1 54 25
M  V30 56 1 55 14
M  V30 END BOND
M  V30 END CTAB
M  END
>  <i_epik_Tot_Q>  (1) 
-1

>  <i_epik_Tot_abs_Q>  (1) 
3

>  <i_i_glide_confnum>  (1) 
503

>  <i_i_glide_lignum>  (1) 
98

>  <i_i_glide_posenum>  (1) 
67

>  <i_i_glide_rotatable_bonds>  (1) 
11

>  <i_lp_mmshare_version>  (1) 
72125

>  <i_m_source_file_index>  (1) 
47

>  <i_f3d_flags>  (1) 
0

>  <num_sample>  (1) 
100

>  <b_lp_Chiralities_Consistent>  (1) 
1

>  <r_epik_Charging_Adjusted_Penalty>  (1) 
3.3730423186562179e-05

>  <r_epik_Ionization_Penalty>  (1) 
0.037967810470841745

>  <r_epik_Ionization_Penalty_Charging>  (1) 
3.3730423186562179e-05

>  <r_epik_Ionization_Penalty_Neutral>  (1) 
0.03793408004765518

>  <r_epik_State_Penalty>  (1) 
-0

>  <r_glide_ring_energy>  (1) 
0

>  <r_i_docking_score>  (1) 
-5.6415103672922218

>  <r_i_glide_ecoul>  (1) 
-3.2157515540193113

>  <r_i_glide_eff_state_penalty>  (1) 
-0

>  <r_i_glide_einternal>  (1) 
10.62790364115418

>  <r_i_glide_emodel>  (1) 
-52.95502404213056

>  <r_i_glide_emodel_strain>  (1) 
3.249986420857951

>  <r_i_glide_energy>  (1) 
-42.7938456422456

>  <r_i_glide_erotb>  (1) 
0.84802462455657757

>  <r_i_glide_esite>  (1) 
-0.037158896868390183

>  <r_i_glide_evdw>  (1) 
-39.578094088226287

>  <r_i_glide_gscore>  (1) 
-5.6415103672922218

>  <r_i_glide_gscore_strain>  (1) 
0

>  <r_i_glide_hbond>  (1) 
-0.3184613806317062

>  <r_i_glide_ligand_efficiency>  (1) 
-0.21698116797277775

>  <r_i_glide_ligand_efficiency_ln>  (1) 
-1.3248901984532133

>  <r_i_glide_ligand_efficiency_sa>  (1) 
-0.64280585703779347

>  <r_i_glide_lipo>  (1) 
-2.6606119583773959

>  <r_i_glide_metal>  (1) 
-0

>  <r_i_glide_rewards>  (1) 
-1.0120353184570956

>  <r_lp_Energy>  (1) 
26.114241

>  <r_lp_tautomer_probability>  (1) 
1

>  <s_epik_Chemistry_Notes>  (1) 
This compound contains an acetal/aminal-like group ( X-CH(R)-Y where X, Y are N, S, or O) that may be acid/base labile, releasing an aldehyde.

>  <s_epik_cmdline>  (1) 
J2VwaWtfcHl0aG9uJywgJy1waHQnLCAnMS4wJywgJy1waCcsICc3LjQnLCAnLXRuJywgJzgnLCAnLW1hJywgJzUwMCcsICctaW1hZScsICc8aW5maWxlLm1hZT4nLCAnLW9tYWUnLCAnPG91dGZpbGUubWFlPic=

>  <s_epik_input>  (1) 
W2NIXTFbY0hdYyhbT0hdKWMoW0NIM10pW2NIXWMxTihbQ0gzXSlbQ0gyXVtDQEhdKFtPSF0pTihbQ0gzXSlbUEBAXSg9TykoW09IXSlbQ0BASF0oW0NASF0oW0NIM10pW05IXVtTSF0pW0NIXTJbQ0gyXVtDSDJdMg==

>  <s_glide_docking_method>  (1) 
confgen

>  <s_i_glide_gridfile>  (1) 
gpcr_5ht2c_6bqh_protein_autoprepared_prepared

>  <s_lp_Force_Field>  (1) 
S-OPLS

>  <s_lp_Variant>  (1) 
DiffSBDD_46-1

>  <s_m_source_file>  (1) 
generated_GPCR_5HT2C_ligand_DiffSBDD_2026-06-23_prepared.sdf

>  <GenAI_Model>  (1) 
DiffSBDD

>  <Protein>  (1) 
GPCR_5HT2C

$$$$
DiffSBDD_24
     RDKit          3D

  0  0  0  0  0  0  0  0  0  0999 V3000
M  V30 BEGIN CTAB
M  V30 COUNTS 76 79 0 0 1
M  V30 BEGIN ATOM
M  V30 1 C 37.246773 24.827938 54.837359 0
M  V30 2 C 37.002621 34.693862 59.406014 0
M  V30 3 C 38.241250 25.810741 55.002043 0
M  V30 4 N 36.871025 35.641353 61.677461 0 CHG=1
M  V30 5 C 39.584750 29.124398 57.906623 0 CFG=2
M  V30 6 N 37.667719 32.375729 59.094724 0
M  V30 7 C 38.259194 30.765689 60.943293 0
M  V30 8 C 37.926531 37.774068 60.967817 0
M  V30 9 O 37.000446 37.232277 63.923884 0 CHG=-1
M  V30 10 N 38.844726 36.542626 62.883512 0
M  V30 11 C 38.215052 36.937040 63.990615 0
M  V30 12 O 38.661933 28.528851 54.397577 0
M  V30 13 C 38.314019 29.321936 58.830218 0
M  V30 14 C 36.753537 24.137570 55.954379 0
M  V30 15 C 38.548494 30.564418 55.609528 0 CFG=2
M  V30 16 C 40.845456 28.868822 60.133571 0
M  V30 17 C 36.844897 33.446970 58.568138 0
M  V30 18 N 39.569146 28.785452 60.814465 0
M  V30 19 O 38.605093 30.844734 62.126251 0
M  V30 20 C 38.217248 25.430428 57.404313 0
M  V30 21 C 36.683984 34.412273 60.866129 0 CFG=2
M  V30 22 C 37.487628 33.186983 61.367652 0
M  V30 23 C 37.645145 32.673942 54.682251 0
M  V30 24 C 37.245110 24.438611 57.238295 0
M  V30 25 C 37.614465 31.159425 54.567592 0
M  V30 26 N 39.312266 28.436771 56.588030 0
M  V30 27 C 38.160518 36.390539 61.609193 0 CFG=1
M  V30 28 C 39.851175 31.339750 55.448116 0
M  V30 29 F 38.669544 25.736708 58.638986 0
M  V30 30 C 38.539715 33.347369 55.410594 0
M  V30 31 C 37.359413 31.929083 60.439166 0 CFG=1
M  V30 32 C 38.720482 26.117456 56.297093 0
M  V30 33 N 38.690805 29.684065 60.221732 0
M  V30 34 C 39.645035 32.675574 56.167549 0
M  V30 35 C 38.834607 29.081196 55.477976 0
M  V30 36 C 40.727853 28.402262 58.688953 0
M  V30 37 O 38.849801 36.963982 65.061807 0
M  V30 38 N 39.716786 27.076604 56.509451 0
M  V30 39 H 36.869332 24.596843 53.849791 0
M  V30 40 H 38.042464 34.968635 59.354260 0
M  V30 41 H 36.398973 35.513936 59.014883 0
M  V30 42 H 38.638370 26.312476 54.139943 0
M  V30 43 H 36.157547 36.302168 61.411320 0
M  V30 44 H 39.976311 30.124052 57.737943 0
M  V30 45 H 37.915315 31.666527 58.422793 0
M  V30 46 H 38.839441 38.371055 60.972962 0
M  V30 47 H 37.598676 37.687516 59.929797 0
M  V30 48 H 37.169771 38.346691 61.504902 0
M  V30 49 H 39.825114 36.306118 62.932837 0
M  V30 50 H 37.553664 29.972596 58.414491 0
M  V30 51 H 37.811050 28.359743 58.896476 0
M  V30 52 H 35.997459 23.375077 55.827787 0
M  V30 53 H 38.080828 30.760946 56.565827 0
M  V30 54 H 41.212094 29.894538 60.177961 0
M  V30 55 H 41.567848 28.249649 60.666244 0
M  V30 56 H 37.089179 33.653184 57.530777 0
M  V30 57 H 35.798456 33.152670 58.581445 0
M  V30 58 H 39.665156 29.026950 61.800091 0
M  V30 59 H 35.625258 34.161840 60.937241 0
M  V30 60 H 37.146432 32.934376 62.369409 0
M  V30 61 H 38.539650 33.461118 61.462578 0
M  V30 62 H 36.876178 33.212759 54.167615 0
M  V30 63 H 36.867137 23.911608 58.095527 0
M  V30 64 H 36.592549 30.803939 54.712492 0
M  V30 65 H 37.932343 30.872284 53.566027 0
M  V30 66 H 38.890353 35.850759 61.010780 0
M  V30 67 H 40.697772 30.776633 55.767622 0
M  V30 68 H 40.082771 31.505757 54.395197 0
M  V30 69 H 38.487753 34.424865 55.469604 0
M  V30 70 H 36.329567 31.569553 60.454367 0
M  V30 71 H 40.543047 33.287285 56.167857 0
M  V30 72 H 39.379130 32.548465 57.210729 0
M  V30 73 H 40.565510 27.332573 58.779558 0
M  V30 74 H 41.681235 28.529829 58.172927 0
M  V30 75 H 40.278345 26.819444 57.308961 0
M  V30 76 H 36.706306 35.447302 62.657311 0
M  V30 END ATOM
M  V30 BEGIN BOND
M  V30 1 1 3 1
M  V30 2 1 11 9
M  V30 3 1 11 10
M  V30 4 1 13 5
M  V30 5 2 14 1
M  V30 6 1 17 2
M  V30 7 1 17 6
M  V30 8 1 18 16
M  V30 9 2 19 7
M  V30 10 1 21 2
M  V30 11 1 21 4
M  V30 12 1 22 21
M  V30 13 1 24 14
M  V30 14 2 24 20
M  V30 15 1 25 15
M  V30 16 1 25 23
M  V30 17 1 26 5
M  V30 18 1 27 4
M  V30 19 1 27 8
M  V30 20 1 27 10
M  V30 21 1 28 15
M  V30 22 1 29 20
M  V30 23 2 30 23
M  V30 24 1 31 6
M  V30 25 1 31 7
M  V30 26 1 31 22
M  V30 27 2 32 3
M  V30 28 1 32 20
M  V30 29 1 33 7
M  V30 30 1 33 13
M  V30 31 1 33 18
M  V30 32 1 34 28
M  V30 33 1 34 30
M  V30 34 2 35 12
M  V30 35 1 35 15
M  V30 36 1 35 26
M  V30 37 1 36 5
M  V30 38 1 36 16
M  V30 39 2 37 11
M  V30 40 1 38 26
M  V30 41 1 38 32
M  V30 42 1 39 1
M  V30 43 1 40 2
M  V30 44 1 41 2
M  V30 45 1 42 3
M  V30 46 1 43 4
M  V30 47 1 5 44 CFG=3
M  V30 48 1 45 6
M  V30 49 1 46 8
M  V30 50 1 47 8
M  V30 51 1 48 8
M  V30 52 1 49 10
M  V30 53 1 50 13
M  V30 54 1 51 13
M  V30 55 1 52 14
M  V30 56 1 15 53 CFG=1
M  V30 57 1 54 16
M  V30 58 1 55 16
M  V30 59 1 56 17
M  V30 60 1 57 17
M  V30 61 1 58 18
M  V30 62 1 21 59 CFG=3
M  V30 63 1 60 22
M  V30 64 1 61 22
M  V30 65 1 62 23
M  V30 66 1 63 24
M  V30 67 1 64 25
M  V30 68 1 65 25
M  V30 69 1 27 66 CFG=3
M  V30 70 1 67 28
M  V30 71 1 68 28
M  V30 72 1 69 30
M  V30 73 1 31 70 CFG=3
M  V30 74 1 71 34
M  V30 75 1 72 34
M  V30 76 1 73 36
M  V30 77 1 74 36
M  V30 78 1 75 38
M  V30 79 1 76 4
M  V30 END BOND
M  V30 END CTAB
M  END
>  <i_epik_Tot_Q>  (1) 
0

>  <i_epik_Tot_abs_Q>  (1) 
2

>  <i_i_glide_confnum>  (1) 
2119

>  <i_i_glide_lignum>  (1) 
60

>  <i_i_glide_posenum>  (1) 
10

>  <i_i_glide_rotatable_bonds>  (1) 
11

>  <i_lp_mmshare_version>  (1) 
72125

>  <i_m_source_file_index>  (1) 
25

>  <i_f3d_flags>  (1) 
0

>  <num_sample>  (1) 
100

>  <b_lp_Chiralities_Consistent>  (1) 
1

>  <r_epik_Charging_Adjusted_Penalty>  (1) 
0.077750035834572392

>  <r_epik_Ionization_Penalty>  (1) 
0.10755876975778689

>  <r_epik_Ionization_Penalty_Charging>  (1) 
0.0083338926467225426

>  <r_epik_Ionization_Penalty_Neutral>  (1) 
0.099224877111064341

>  <r_epik_State_Penalty>  (1) 
0.069416143187849846

>  <r_glide_ring_energy>  (1) 
0

>  <r_i_docking_score>  (1) 
-5.6246691318247768

>  <r_i_glide_ecoul>  (1) 
0.29827870526294564

>  <r_i_glide_eff_state_penalty>  (1) 
0.069416143187849846

>  <r_i_glide_einternal>  (1) 
32.200970564073131

>  <r_i_glide_emodel>  (1) 
-34.719223885226526

>  <r_i_glide_emodel_strain>  (1) 
3.9907474456993555

>  <r_i_glide_energy>  (1) 
-35.131280201010682

>  <r_i_glide_erotb>  (1) 
0.72960086390203738

>  <r_i_glide_esite>  (1) 
0

>  <r_i_glide_evdw>  (1) 
-35.429558906273627

>  <r_i_glide_gscore>  (1) 
-5.6940852750126263

>  <r_i_glide_gscore_strain>  (1) 
0

>  <r_i_glide_hbond>  (1) 
0

>  <r_i_glide_ligand_efficiency>  (1) 
-0.14801760873223097

>  <r_i_glide_ligand_efficiency_ln>  (1) 
-1.2128441258235574

>  <r_i_glide_ligand_efficiency_sa>  (1) 
-0.49763156033095213

>  <r_i_glide_lipo>  (1) 
-3.2717135920219262

>  <r_i_glide_metal>  (1) 
-0

>  <r_i_glide_rewards>  (1) 
-1.4252364073684975

>  <r_lp_Energy>  (1) 
53.347089999999994

>  <s_epik_Chemistry_Notes>  (1) 
This compound contains an acetal/aminal-like group ( X-CH(R)-Y where X, Y are N, S, or O) that may be acid/base labile, releasing an aldehyde.

>  <s_epik_cmdline>  (1) 
J2VwaWtfcHl0aG9uJywgJy1waHQnLCAnMS4wJywgJy1waCcsICc3LjQnLCAnLXRuJywgJzgnLCAnLW1hJywgJzUwMCcsICctaW1hZScsICc8aW5maWxlLm1hZT4nLCAnLW9tYWUnLCAnPG91dGZpbGUubWFlPic=

>  <s_epik_input>  (1) 
RmMxW2NIXVtjSF1bY0hdW2NIXWMxW05IXU4oQyg9TylbQ0BASF0yW0NIMl1bQ0hdPVtDSF1bQ0gyXVtDSDJdMilbQ0BIXTNbQ0gyXU4oW05IXVtDSDJdW0NIMl0zKUMoPU8pW0NAQEhdKFtDSDJdNClbTkhdW0NIMl1bQ0gyXVtDQEBIXTRbTkhdW0NASF0oW0NIM10pW05IXUMoPU8pW09IXQ==

>  <s_glide_docking_method>  (1) 
confgen

>  <s_i_glide_gridfile>  (1) 
gpcr_5ht2c_6bqh_protein_autoprepared_prepared

>  <s_lp_Force_Field>  (1) 
S-OPLS

>  <s_lp_Variant>  (1) 
DiffSBDD_24-2

>  <s_m_source_file>  (1) 
generated_GPCR_5HT2C_ligand_DiffSBDD_2026-06-23_prepared.sdf

>  <GenAI_Model>  (1) 
DiffSBDD

>  <Protein>  (1) 
GPCR_5HT2C

$$$$
DiffSBDD_16
     RDKit          3D

  0  0  0  0  0  0  0  0  0  0999 V3000
M  V30 BEGIN CTAB
M  V30 COUNTS 69 73 0 0 1
M  V30 BEGIN ATOM
M  V30 1 C 39.051222 30.591647 55.370995 0
M  V30 2 C 41.284423 31.513582 65.597053 0
M  V30 3 C 39.594376 28.540469 60.015636 0 CFG=1
M  V30 4 C 39.299806 30.045556 60.076622 0
M  V30 5 C 38.816658 32.538417 56.856272 0
M  V30 6 C 38.217597 33.256607 55.820152 0
M  V30 7 C 39.753579 25.569557 56.457758 0
M  V30 8 C 38.357278 25.161349 56.973482 0
M  V30 9 C 40.065822 28.067933 58.605865 0
M  V30 10 C 38.045140 32.661487 54.567613 0
M  V30 11 O 40.045105 26.532786 54.291867 0
M  V30 12 C 40.204432 30.924142 63.507040 0
M  V30 13 C 39.813695 30.068838 62.512534 0
M  V30 14 C 40.250880 28.606036 62.370879 0
M  V30 15 C 41.144726 30.651961 64.619252 0
M  V30 16 C 39.245160 31.213417 56.637080 0
M  V30 17 N 42.189123 31.179922 66.569978 0
M  V30 18 C 44.650422 28.773682 65.562511 0
M  V30 19 N 40.654148 28.285405 60.996763 0
M  V30 20 C 44.139470 28.553472 64.178447 0
M  V30 21 C 38.995199 33.185719 58.214758 0
M  V30 22 C 37.705530 26.094597 58.016061 0
M  V30 23 C 36.619029 28.541754 58.167841 0
M  V30 24 C 37.638811 27.550613 57.542881 0 CFG=1
M  V30 25 C 39.424965 29.159306 55.090178 0
M  V30 26 C 39.017980 28.219102 57.450823 0 CFG=2
M  V30 27 C 39.778534 26.752378 55.473521 0
M  V30 28 C 42.007806 29.447425 64.765807 0 CFG=2
M  V30 29 C 39.457501 28.125456 55.987798 0
M  V30 30 C 42.700896 30.136400 66.007212 0
M  V30 31 N 43.018221 29.040096 63.767702 0
M  V30 32 C 38.470210 31.342379 54.337980 0
M  V30 33 C 38.839436 30.525076 61.451016 0
M  V30 34 C 43.970330 29.552155 66.423777 0
M  V30 35 H 40.751677 32.449681 65.679977 0
M  V30 36 H 38.708157 27.974907 60.304209 0
M  V30 37 H 40.223931 30.537713 59.813981 0
M  V30 38 H 38.552801 30.351986 59.353341 0
M  V30 39 H 37.888215 34.270764 55.984084 0
M  V30 40 H 40.138340 24.719115 55.897226 0
M  V30 41 H 40.470909 25.706754 57.258135 0
M  V30 42 H 37.685247 25.056000 56.120388 0
M  V30 43 H 38.433701 24.161793 57.404626 0
M  V30 44 H 40.959942 28.628945 58.330853 0
M  V30 45 H 40.394259 27.039402 58.712986 0
M  V30 46 H 37.590116 33.223123 53.768306 0
M  V30 47 H 39.774753 31.914453 63.479995 0
M  V30 48 H 40.964915 28.203729 63.059396 0
M  V30 49 H 39.362662 28.008504 62.567759 0
M  V30 50 H 39.735407 30.692473 57.430990 0
M  V30 51 H 45.601774 28.326673 65.811960 0
M  V30 52 H 40.950726 27.320741 60.950618 0
M  V30 53 H 44.790542 27.964662 63.523829 0
M  V30 54 H 38.673268 32.522150 59.012291 0
M  V30 55 H 40.031342 33.463669 58.387050 0
M  V30 56 H 38.379363 34.081506 58.293577 0
M  V30 57 H 36.690473 25.729320 58.167748 0
M  V30 58 H 38.227392 26.019067 58.967783 0
M  V30 59 H 36.955318 28.937661 59.122562 0
M  V30 60 H 36.460142 29.405104 57.517854 0
M  V30 61 H 35.645136 28.137641 58.374481 0
M  V30 62 H 37.245590 27.448965 56.532821 0
M  V30 63 H 39.645587 28.938305 54.055701 0
M  V30 64 H 38.653959 29.192723 57.581449 0
M  V30 65 H 41.420766 28.596659 65.115258 0
M  V30 66 H 38.324405 30.893357 53.368260 0
M  V30 67 H 37.850167 30.138260 61.678884 0
M  V30 68 H 38.748997 31.612628 61.453344 0
M  V30 69 H 44.331236 29.792301 67.412616 0
M  V30 END ATOM
M  V30 BEGIN BOND
M  V30 1 1 4 3
M  V30 2 1 6 5
M  V30 3 1 8 7
M  V30 4 1 9 3
M  V30 5 2 10 6
M  V30 6 2 13 12
M  V30 7 1 14 13
M  V30 8 2 15 2
M  V30 9 1 15 12
M  V30 10 1 16 1
M  V30 11 2 16 5
M  V30 12 1 17 2
M  V30 13 1 19 3
M  V30 14 1 19 14
M  V30 15 1 20 18
M  V30 16 1 21 5
M  V30 17 1 22 8
M  V30 18 1 24 22
M  V30 19 1 24 23
M  V30 20 1 25 1
M  V30 21 1 26 9
M  V30 22 1 26 24
M  V30 23 1 27 7
M  V30 24 2 27 11
M  V30 25 1 28 15
M  V30 26 2 29 25
M  V30 27 1 29 26
M  V30 28 1 29 27
M  V30 29 2 30 17
M  V30 30 1 30 28
M  V30 31 2 31 20
M  V30 32 1 31 28
M  V30 33 2 32 1
M  V30 34 1 32 10
M  V30 35 1 33 4
M  V30 36 1 33 13
M  V30 37 2 34 18
M  V30 38 1 34 30
M  V30 39 1 35 2
M  V30 40 1 3 36 CFG=1
M  V30 41 1 37 4
M  V30 42 1 38 4
M  V30 43 1 39 6
M  V30 44 1 40 7
M  V30 45 1 41 7
M  V30 46 1 42 8
M  V30 47 1 43 8
M  V30 48 1 44 9
M  V30 49 1 45 9
M  V30 50 1 46 10
M  V30 51 1 47 12
M  V30 52 1 48 14
M  V30 53 1 49 14
M  V30 54 1 50 16
M  V30 55 1 51 18
M  V30 56 1 52 19
M  V30 57 1 53 20
M  V30 58 1 54 21
M  V30 59 1 55 21
M  V30 60 1 56 21
M  V30 61 1 57 22
M  V30 62 1 58 22
M  V30 63 1 59 23
M  V30 64 1 60 23
M  V30 65 1 61 23
M  V30 66 1 24 62 CFG=3
M  V30 67 1 63 25
M  V30 68 1 26 64 CFG=3
M  V30 69 1 28 65 CFG=1
M  V30 70 1 66 32
M  V30 71 1 67 33
M  V30 72 1 68 33
M  V30 73 1 69 34
M  V30 END BOND
M  V30 END CTAB
M  END
>  <i_epik_Tot_Q>  (1) 
0

>  <i_epik_Tot_abs_Q>  (1) 
0

>  <i_i_glide_confnum>  (1) 
23

>  <i_i_glide_lignum>  (1) 
39

>  <i_i_glide_posenum>  (1) 
84

>  <i_i_glide_rotatable_bonds>  (1) 
4

>  <i_lp_mmshare_version>  (1) 
72125

>  <i_m_source_file_index>  (1) 
17

>  <i_f3d_flags>  (1) 
0

>  <num_sample>  (1) 
100

>  <b_lp_Chiralities_Consistent>  (1) 
1

>  <r_epik_Charging_Adjusted_Penalty>  (1) 
0.56391873878667209

>  <r_epik_Ionization_Penalty>  (1) 
0.56391873878667209

>  <r_epik_Ionization_Penalty_Charging>  (1) 
0

>  <r_epik_Ionization_Penalty_Neutral>  (1) 
0.56391873878667209

>  <r_epik_State_Penalty>  (1) 
0.56391873878667209

>  <r_glide_ring_energy>  (1) 
0

>  <r_i_docking_score>  (1) 
-5.621536061426097

>  <r_i_glide_ecoul>  (1) 
-1.9682180076106013

>  <r_i_glide_eff_state_penalty>  (1) 
0.56391873878667209

>  <r_i_glide_einternal>  (1) 
22.379307545368853

>  <r_i_glide_emodel>  (1) 
-32.954607335574408

>  <r_i_glide_emodel_strain>  (1) 
0.90043355751149079

>  <r_i_glide_energy>  (1) 
-32.436882714763762

>  <r_i_glide_erotb>  (1) 
0.29265828080580603

>  <r_i_glide_esite>  (1) 
0

>  <r_i_glide_evdw>  (1) 
-30.468664707153163

>  <r_i_glide_gscore>  (1) 
-6.1854548002127689

>  <r_i_glide_gscore_strain>  (1) 
0

>  <r_i_glide_hbond>  (1) 
0

>  <r_i_glide_ligand_efficiency>  (1) 
-0.16533929592429697

>  <r_i_glide_ligand_efficiency_ln>  (1) 
-1.2419549947146129

>  <r_i_glide_ligand_efficiency_sa>  (1) 
-0.53563513429126264

>  <r_i_glide_lipo>  (1) 
-2.9911575586213601

>  <r_i_glide_metal>  (1) 
-0

>  <r_i_glide_rewards>  (1) 
-1.6682895858979676

>  <r_lp_Energy>  (1) 
57.867013

>  <s_epik_Chemistry_Notes>  (1) 
This compound has an imine and may undergo hydrolysis.

>  <s_epik_cmdline>  (1) 
J2VwaWtfcHl0aG9uJywgJy1waHQnLCAnMS4wJywgJy1waCcsICc3LjQnLCAnLXRuJywgJzgnLCAnLW1hJywgJzUwMCcsICctaW1hZScsICc8aW5maWxlLm1hZT4nLCAnLW9tYWUnLCAnPG91dGZpbGUubWFlPic=

>  <s_epik_input>  (1) 
W2NIXTFbY0hdW2NIXWMoW0NIM10pW2NIXWMxL1tDSF09QyhDKD1PKVtDSDJdW0NIMl1bQ0gyXVtDQEhdMltDSDNdKVxbQ0BASF0yW0NIMl1bQ0BASF0zW0NIMl1bQ0gyXUMoXFtDSDJdW05IXTMpPVtDSF1cQzQ9W0NIXU49QyhbQ0BASF00NSlbQ0hdPVtDSF1bQ0hdPU41

>  <s_glide_docking_method>  (1) 
confgen

>  <s_i_glide_gridfile>  (1) 
gpcr_5ht2c_6bqh_protein_autoprepared_prepared

>  <s_lp_Force_Field>  (1) 
S-OPLS

>  <s_lp_Variant>  (1) 
DiffSBDD_16-7

>  <s_m_source_file>  (1) 
generated_GPCR_5HT2C_ligand_DiffSBDD_2026-06-23_prepared.sdf

>  <GenAI_Model>  (1) 
DiffSBDD

>  <Protein>  (1) 
GPCR_5HT2C

$$$$
DiffSBDD_43
     RDKit          3D

  0  0  0  0  0  0  0  0  0  0999 V3000
M  V30 BEGIN CTAB
M  V30 COUNTS 83 85 0 0 1
M  V30 BEGIN ATOM
M  V30 1 C 42.772242 32.650551 66.089216 0
M  V30 2 C 38.930879 30.392555 54.847467 0
M  V30 3 C 37.408155 28.537974 58.031578 0
M  V30 4 C 36.676312 32.707705 61.624056 0 CFG=2
M  V30 5 C 38.328484 32.332643 59.726676 0 CFG=1
M  V30 6 O 42.151993 27.992599 57.659861 0
M  V30 7 O 38.771190 31.789334 56.861592 0
M  V30 8 N 40.759434 30.762820 64.945139 0 CHG=1
M  V30 9 C 38.498735 27.800056 57.565600 0
M  V30 10 C 40.063990 30.930804 53.975190 0
M  V30 11 C 35.597991 33.704470 61.153781 0
M  V30 12 C 41.591485 34.814431 62.981653 0
M  V30 13 N 40.845138 26.537756 56.364554 0
M  V30 14 C 39.808465 28.177660 57.913135 0
M  V30 15 C 38.185730 31.502238 55.591755 0
M  V30 16 N 40.888369 27.430622 57.426659 0
M  V30 17 C 38.101429 32.931286 61.123320 0 CFG=1
M  V30 18 O 37.245137 33.526610 57.256950 0
M  V30 19 C 41.594506 30.281956 66.069577 0 CFG=1
M  V30 20 C 38.988818 33.302759 58.743638 0
M  V30 21 C 40.627959 32.235132 64.829565 0
M  V30 22 C 40.085486 34.975838 62.701223 0 CFG=1
M  V30 23 C 37.605869 29.660034 58.839991 0
M  V30 24 O 38.369551 34.322344 61.242679 0
M  V30 25 C 39.602034 36.433532 62.807691 0
M  V30 26 C 42.007138 32.930418 64.777824 0 CFG=1
M  V30 27 O 36.181901 31.408357 61.367760 0
M  V30 28 C 38.568678 33.097591 57.290830 0 CFG=1
M  V30 29 C 40.014931 29.308208 58.737275 0
M  V30 30 N 41.420023 35.337750 65.437804 0 CHG=1
M  V30 31 C 43.022006 30.028974 65.625330 0
M  V30 32 C 42.031805 34.452981 64.423478 0 CFG=2
M  V30 33 O 39.845990 34.521407 61.384063 0
M  V30 34 C 42.712388 31.197834 66.532428 0 CFG=1
M  V30 35 O 39.129908 31.171111 59.963484 0
M  V30 36 O 35.233553 33.474653 59.805096 0
M  V30 37 C 38.914952 30.057721 59.189621 0
M  V30 38 H 43.818843 32.942852 65.995419 0
M  V30 39 H 42.358043 33.248963 66.900511 0
M  V30 40 H 39.306510 29.647932 55.546974 0
M  V30 41 H 38.222564 29.876624 54.197234 0
M  V30 42 H 36.415365 28.241877 57.767766 0
M  V30 43 H 36.845137 32.809265 62.680700 0
M  V30 44 H 37.358828 32.116992 59.299614 0
M  V30 45 H 42.538548 27.472455 58.349416 0
M  V30 46 H 41.161148 30.403638 64.090336 0
M  V30 47 H 38.331084 26.938205 56.937502 0
M  V30 48 H 40.465164 30.137729 53.350499 0
M  V30 49 H 39.701921 31.710871 53.304724 0
M  V30 50 H 40.874862 31.337748 54.579918 0
M  V30 51 H 34.704228 33.582014 61.766280 0
M  V30 52 H 35.920674 34.737495 61.281967 0
M  V30 53 H 41.996791 34.055827 62.310923 0
M  V30 54 H 42.065965 35.748423 62.683902 0
M  V30 55 H 41.586623 25.843358 56.486895 0
M  V30 56 H 39.951560 26.052092 56.370116 0
M  V30 57 H 37.168979 31.166535 55.767697 0
M  V30 58 H 38.115367 32.386447 54.954236 0
M  V30 59 H 38.767280 32.425838 61.824971 0
M  V30 60 H 36.669706 32.799467 56.994282 0
M  V30 61 H 41.112930 29.588456 66.756879 0
M  V30 62 H 38.631320 34.293778 58.984497 0
M  V30 63 H 40.045140 33.337755 58.851595 0
M  V30 64 H 40.045133 32.615844 65.666174 0
M  V30 65 H 40.061981 32.408310 63.917984 0
M  V30 66 H 39.499503 34.357580 63.367760 0
M  V30 67 H 36.752111 30.213689 59.187053 0
M  V30 68 H 39.779396 36.853032 63.796619 0
M  V30 69 H 40.113552 37.065023 62.079600 0
M  V30 70 H 38.532714 36.512921 62.611354 0
M  V30 71 H 42.562213 32.436199 63.978730 0
M  V30 72 H 35.723988 31.458089 60.536456 0
M  V30 73 H 39.120285 33.737746 56.609691 0
M  V30 74 H 41.013699 29.611407 59.009049 0
M  V30 75 H 40.419281 35.216820 65.470068 0
M  V30 76 H 41.815330 35.144534 66.346804 0
M  V30 77 H 43.303953 30.248111 64.596247 0
M  V30 78 H 43.542519 29.182873 66.070309 0
M  V30 79 H 43.087084 34.719815 64.473797 0
M  V30 80 H 43.045818 31.061505 67.559925 0
M  V30 81 H 35.933279 33.747715 59.225426 0
M  V30 82 H 41.624139 36.304570 65.201130 0
M  V30 83 H 39.838915 30.351435 65.039235 0
M  V30 END ATOM
M  V30 BEGIN BOND
M  V30 1 1 9 3
M  V30 2 1 10 2
M  V30 3 1 11 4
M  V30 4 2 14 9
M  V30 5 1 15 2
M  V30 6 1 15 7
M  V30 7 1 16 6
M  V30 8 1 16 13
M  V30 9 1 16 14
M  V30 10 1 17 4
M  V30 11 1 17 5
M  V30 12 1 19 8
M  V30 13 1 20 5
M  V30 14 1 21 8
M  V30 15 1 22 12
M  V30 16 2 23 3
M  V30 17 1 24 17
M  V30 18 1 25 22
M  V30 19 1 26 1
M  V30 20 1 26 21
M  V30 21 1 27 4
M  V30 22 1 28 7
M  V30 23 1 28 18
M  V30 24 1 28 20
M  V30 25 1 29 14
M  V30 26 1 31 19
M  V30 27 1 32 12
M  V30 28 1 32 26
M  V30 29 1 32 30
M  V30 30 1 33 22
M  V30 31 1 33 24
M  V30 32 1 34 1
M  V30 33 1 34 19
M  V30 34 1 34 31
M  V30 35 1 35 5
M  V30 36 1 36 11
M  V30 37 1 37 23
M  V30 38 2 37 29
M  V30 39 1 37 35
M  V30 40 1 38 1
M  V30 41 1 39 1
M  V30 42 1 40 2
M  V30 43 1 41 2
M  V30 44 1 42 3
M  V30 45 1 4 43 CFG=1
M  V30 46 1 5 44 CFG=3
M  V30 47 1 45 6
M  V30 48 1 46 8
M  V30 49 1 47 9
M  V30 50 1 48 10
M  V30 51 1 49 10
M  V30 52 1 50 10
M  V30 53 1 51 11
M  V30 54 1 52 11
M  V30 55 1 53 12
M  V30 56 1 54 12
M  V30 57 1 55 13
M  V30 58 1 56 13
M  V30 59 1 57 15
M  V30 60 1 58 15
M  V30 61 1 17 59 CFG=1
M  V30 62 1 60 18
M  V30 63 1 19 61 CFG=1
M  V30 64 1 62 20
M  V30 65 1 63 20
M  V30 66 1 64 21
M  V30 67 1 65 21
M  V30 68 1 22 66 CFG=1
M  V30 69 1 67 23
M  V30 70 1 68 25
M  V30 71 1 69 25
M  V30 72 1 70 25
M  V30 73 1 26 71 CFG=3
M  V30 74 1 72 27
M  V30 75 1 28 73 CFG=3
M  V30 76 1 74 29
M  V30 77 1 75 30
M  V30 78 1 76 30
M  V30 79 1 77 31
M  V30 80 1 78 31
M  V30 81 1 32 79 CFG=3
M  V30 82 1 34 80 CFG=1
M  V30 83 1 81 36
M  V30 84 1 82 30
M  V30 85 1 83 8
M  V30 END BOND
M  V30 END CTAB
M  END
>  <i_epik_Tot_Q>  (1) 
2

>  <i_epik_Tot_abs_Q>  (1) 
2

>  <i_i_glide_confnum>  (1) 
5199

>  <i_i_glide_lignum>  (1) 
96

>  <i_i_glide_posenum>  (1) 
230

>  <i_i_glide_rotatable_bonds>  (1) 
21

>  <i_lp_mmshare_version>  (1) 
72125

>  <i_m_source_file_index>  (1) 
44

>  <i_f3d_flags>  (1) 
0

>  <num_sample>  (1) 
100

>  <b_lp_Chiralities_Consistent>  (1) 
1

>  <r_epik_Charging_Adjusted_Penalty>  (1) 
0.054628322637716921

>  <r_epik_Ionization_Penalty>  (1) 
0.057286365922034427

>  <r_epik_Ionization_Penalty_Charging>  (1) 
0.054628322637716921

>  <r_epik_Ionization_Penalty_Neutral>  (1) 
0.0026580432843175059

>  <r_epik_State_Penalty>  (1) 
-0

>  <r_glide_ring_energy>  (1) 
0

>  <r_i_docking_score>  (1) 
-5.6192422543521987

>  <r_i_glide_ecoul>  (1) 
-15.163604990920176

>  <r_i_glide_eff_state_penalty>  (1) 
-0

>  <r_i_glide_einternal>  (1) 
35.253923010791503

>  <r_i_glide_emodel>  (1) 
-41.603773702094713

>  <r_i_glide_emodel_strain>  (1) 
5.6428640268978683

>  <r_i_glide_energy>  (1) 
-41.647408375488574

>  <r_i_glide_erotb>  (1) 
1.0980815572756908

>  <r_i_glide_esite>  (1) 
-0.056149158344734433

>  <r_i_glide_evdw>  (1) 
-26.4838033845684

>  <r_i_glide_gscore>  (1) 
-5.6192422543521987

>  <r_i_glide_gscore_strain>  (1) 
0.41071600672446706

>  <r_i_glide_hbond>  (1) 
-0.7358536576919219

>  <r_i_glide_ligand_efficiency>  (1) 
-0.15187141227978915

>  <r_i_glide_ligand_efficiency_ln>  (1) 
-1.21868191124004

>  <r_i_glide_ligand_efficiency_sa>  (1) 
-0.50606923863904507

>  <r_i_glide_lipo>  (1) 
-2.8036494328059489

>  <r_i_glide_metal>  (1) 
-0

>  <r_i_glide_rewards>  (1) 
0.066343348356695586

>  <r_lp_Energy>  (1) 
40.181405999999996

>  <r_lp_tautomer_probability>  (1) 
1

>  <s_epik_Chemistry_Notes>  (1) 
This compound contains an acetal/aminal-like group ( X-CH(R)-Y where X, Y are N, S, or O) that may be acid/base labile, releasing an aldehyde. This compound has a N-S or N-O group and may undergo hydrolysis at high or low pH.

>  <s_epik_cmdline>  (1) 
J2VwaWtfcHl0aG9uJywgJy1waHQnLCAnMS4wJywgJy1waCcsICc3LjQnLCAnLXRuJywgJzgnLCAnLW1hJywgJzUwMCcsICctaW1hZScsICc8aW5maWxlLm1hZT4nLCAnLW9tYWUnLCAnPG91dGZpbGUubWFlPic=

>  <s_epik_input>  (1) 
W0NASF0xMltDQEBIXShbQ0gyXTIpW0NIMl1bQ0BASF0oW0NIMl1bTkhdMSlbQ0BIXShbTkgyXSlbQ0gyXVtDQEBIXShbQ0gzXSlPT1tDQEBIXShbQ0BIXShbT0hdKVtDSDJdW09IXSlbQ0BASF0oW0NIMl1bQ0BIXShbT0hdKU9bQ0gyXVtDSDJdW0NIM10pT2MoW2NIXTMpW2NIXVtjSF1bY0hdYzNOKFtPSF0pW05IMl0=

>  <s_glide_docking_method>  (1) 
confgen

>  <s_i_glide_gridfile>  (1) 
gpcr_5ht2c_6bqh_protein_autoprepared_prepared

>  <s_lp_Force_Field>  (1) 
S-OPLS

>  <s_lp_Variant>  (1) 
DiffSBDD_43-2

>  <s_m_source_file>  (1) 
generated_GPCR_5HT2C_ligand_DiffSBDD_2026-06-23_prepared.sdf

>  <GenAI_Model>  (1) 
DiffSBDD

>  <Protein>  (1) 
GPCR_5HT2C

$$$$
DiffSBDD_15
     RDKit          3D

  0  0  0  0  0  0  0  0  0  0999 V3000
M  V30 BEGIN CTAB
M  V30 COUNTS 75 76 0 0 1
M  V30 BEGIN ATOM
M  V30 1 C 36.774312 32.094812 59.695200 0
M  V30 2 C 40.338922 34.792686 61.580241 0
M  V30 3 N 38.452981 27.108538 52.761158 0
M  V30 4 C 40.445774 33.676164 62.658921 0 CFG=2
M  V30 5 C 37.146524 38.062843 61.739434 0
M  V30 6 C 38.182493 28.445678 55.611902 0
M  V30 7 O 40.017382 28.169520 51.501482 0
M  V30 8 C 39.315957 26.876582 53.914811 0
M  V30 9 C 38.354684 30.852127 62.383007 0
M  V30 10 C 38.868482 36.537481 62.802071 0
M  V30 11 C 38.875083 27.737567 51.652019 0
M  V30 12 O 33.244844 37.737916 64.863935 0
M  V30 13 C 41.372456 34.089482 63.819938 0
M  V30 14 C 37.771941 34.769339 61.202288 0
M  V30 15 C 39.436618 28.147799 54.772943 0
M  V30 16 C 40.917547 32.321675 62.073690 0
M  V30 17 C 39.027316 35.620503 61.564304 0 CFG=2
M  V30 18 C 38.476951 28.341272 57.105369 0
M  V30 19 C 35.893242 38.692348 61.757268 0
M  V30 20 C 39.326421 30.692354 61.203472 0 CFG=2
M  V30 21 C 37.530953 37.255010 62.820938 0
M  V30 22 C 39.600305 29.370542 59.041739 0
M  V30 23 C 36.523306 33.550148 59.263447 0
M  V30 24 C 36.664215 37.114613 63.920921 0
M  V30 25 C 35.394129 37.735938 63.903544 0
M  V30 26 C 37.614593 34.550512 59.687397 0
M  V30 27 O 38.020204 27.410586 57.766824 0
M  V30 28 O 40.081862 31.885755 61.000399 0
M  V30 29 C 35.013292 38.494347 62.808660 0
M  V30 30 C 38.034481 31.458176 59.069672 0
M  V30 31 C 34.467637 37.599753 65.061467 0
M  V30 32 O 34.953205 37.337429 66.168138 0 CHG=-1
M  V30 33 N 39.245881 29.307769 57.627054 0
M  V30 34 C 38.633740 30.265034 59.868339 0 CFG=2
M  V30 35 H 35.913426 31.493271 59.387767 0
M  V30 36 H 36.787151 32.050642 60.777192 0
M  V30 37 H 40.442380 34.354463 60.590733 0
M  V30 38 H 41.189271 35.469954 61.664577 0
M  V30 39 H 37.501165 26.774278 52.804632 0
M  V30 40 H 39.462542 33.517381 63.095972 0
M  V30 41 H 37.809268 38.201451 60.898537 0
M  V30 42 H 37.800665 29.446187 55.390556 0
M  V30 43 H 37.379000 27.758983 55.348922 0
M  V30 44 H 38.905380 26.062853 54.514168 0
M  V30 45 H 40.300647 26.539894 53.579968 0
M  V30 46 H 37.445422 30.302772 62.168000 0
M  V30 47 H 38.787575 30.487999 63.315622 0
M  V30 48 H 38.061545 31.878756 62.566941 0
M  V30 49 H 38.968743 35.951544 63.713457 0
M  V30 50 H 39.670689 37.276651 62.816448 0
M  V30 51 H 38.070088 27.812251 50.907937 0
M  V30 52 H 42.408017 34.172765 63.492962 0
M  V30 53 H 41.092422 35.052771 64.245718 0
M  V30 54 H 41.341787 33.353517 64.625661 0
M  V30 55 H 36.843206 35.223319 61.544337 0
M  V30 56 H 37.808630 33.821399 61.720864 0
M  V30 57 H 40.318866 28.042800 55.406336 0
M  V30 58 H 39.642800 29.009424 54.139287 0
M  V30 59 H 41.925819 32.434529 61.672871 0
M  V30 60 H 40.989587 31.574040 62.867259 0
M  V30 61 H 39.142390 36.315198 60.733723 0
M  V30 62 H 35.598771 39.318229 60.967799 0
M  V30 63 H 40.008345 29.889273 61.486349 0
M  V30 64 H 39.643443 28.371087 59.479791 0
M  V30 65 H 40.623368 29.737574 59.098757 0
M  V30 66 H 36.434167 33.584907 58.175690 0
M  V30 67 H 35.558977 33.874758 59.657784 0
M  V30 68 H 36.964747 36.537957 64.774045 0
M  V30 69 H 38.564617 34.239353 59.269098 0
M  V30 70 H 37.383639 35.511265 59.227560 0
M  V30 71 H 34.039595 38.937739 62.782448 0
M  V30 72 H 38.822701 32.182115 58.882939 0
M  V30 73 H 37.707400 31.148595 58.076579 0
M  V30 74 H 39.587305 30.040851 57.023951 0
M  V30 75 H 37.793801 29.606983 60.102428 0
M  V30 END ATOM
M  V30 BEGIN BOND
M  V30 1 1 4 2
M  V30 2 1 8 3
M  V30 3 1 11 3
M  V30 4 2 11 7
M  V30 5 1 13 4
M  V30 6 1 15 6
M  V30 7 1 15 8
M  V30 8 1 16 4
M  V30 9 1 17 2
M  V30 10 1 17 10
M  V30 11 1 17 14
M  V30 12 1 18 6
M  V30 13 2 19 5
M  V30 14 1 20 9
M  V30 15 1 21 5
M  V30 16 1 21 10
M  V30 17 1 23 1
M  V30 18 2 24 21
M  V30 19 1 25 24
M  V30 20 1 26 14
M  V30 21 1 26 23
M  V30 22 2 27 18
M  V30 23 1 28 16
M  V30 24 1 28 20
M  V30 25 1 29 19
M  V30 26 2 29 25
M  V30 27 1 30 1
M  V30 28 2 31 12
M  V30 29 1 31 25
M  V30 30 1 32 31
M  V30 31 1 33 18
M  V30 32 1 33 22
M  V30 33 1 34 20
M  V30 34 1 34 22
M  V30 35 1 34 30
M  V30 36 1 35 1
M  V30 37 1 36 1
M  V30 38 1 37 2
M  V30 39 1 38 2
M  V30 40 1 39 3
M  V30 41 1 4 40 CFG=1
M  V30 42 1 41 5
M  V30 43 1 42 6
M  V30 44 1 43 6
M  V30 45 1 44 8
M  V30 46 1 45 8
M  V30 47 1 46 9
M  V30 48 1 47 9
M  V30 49 1 48 9
M  V30 50 1 49 10
M  V30 51 1 50 10
M  V30 52 1 51 11
M  V30 53 1 52 13
M  V30 54 1 53 13
M  V30 55 1 54 13
M  V30 56 1 55 14
M  V30 57 1 56 14
M  V30 58 1 57 15
M  V30 59 1 58 15
M  V30 60 1 59 16
M  V30 61 1 60 16
M  V30 62 1 17 61 CFG=3
M  V30 63 1 62 19
M  V30 64 1 20 63 CFG=1
M  V30 65 1 64 22
M  V30 66 1 65 22
M  V30 67 1 66 23
M  V30 68 1 67 23
M  V30 69 1 68 24
M  V30 70 1 69 26
M  V30 71 1 70 26
M  V30 72 1 71 29
M  V30 73 1 72 30
M  V30 74 1 73 30
M  V30 75 1 74 33
M  V30 76 1 34 75 CFG=1
M  V30 END BOND
M  V30 END CTAB
M  END
>  <i_epik_Tot_Q>  (1) 
-1

>  <i_epik_Tot_abs_Q>  (1) 
1

>  <i_i_glide_confnum>  (1) 
2936

>  <i_i_glide_lignum>  (1) 
31

>  <i_i_glide_posenum>  (1) 
55

>  <i_i_glide_rotatable_bonds>  (1) 
11

>  <i_lp_mmshare_version>  (1) 
72125

>  <i_m_source_file_index>  (1) 
16

>  <i_f3d_flags>  (1) 
0

>  <num_sample>  (1) 
100

>  <b_lp_Chiralities_Consistent>  (1) 
1

>  <r_epik_Charging_Adjusted_Penalty>  (1) 
0.00039988353432540339

>  <r_epik_Ionization_Penalty>  (1) 
0.00039992702821499621

>  <r_epik_Ionization_Penalty_Charging>  (1) 
0.00039988353432540339

>  <r_epik_Ionization_Penalty_Neutral>  (1) 
4.349388959280561e-08

>  <r_epik_State_Penalty>  (1) 
-0

>  <r_glide_ring_energy>  (1) 
0

>  <r_i_docking_score>  (1) 
-5.6124141413621462

>  <r_i_glide_ecoul>  (1) 
-2.6642543452948804

>  <r_i_glide_eff_state_penalty>  (1) 
-0

>  <r_i_glide_einternal>  (1) 
20.855928683483523

>  <r_i_glide_emodel>  (1) 
-22.905941494481091

>  <r_i_glide_emodel_strain>  (1) 
5.9913204075448334

>  <r_i_glide_energy>  (1) 
-32.487805832247716

>  <r_i_glide_erotb>  (1) 
0.81156586864238245

>  <r_i_glide_esite>  (1) 
-0.012580176483567471

>  <r_i_glide_evdw>  (1) 
-29.823551486952834

>  <r_i_glide_gscore>  (1) 
-5.6124141413621462

>  <r_i_glide_gscore_strain>  (1) 
0.49783010188620835

>  <r_i_glide_hbond>  (1) 
-0.0028803229617881277

>  <r_i_glide_ligand_efficiency>  (1) 
-0.16507100415771017

>  <r_i_glide_ligand_efficiency_ln>  (1) 
-1.2399397067112949

>  <r_i_glide_ligand_efficiency_sa>  (1) 
-0.53476597311804253

>  <r_i_glide_lipo>  (1) 
-3.4322965171072028

>  <r_i_glide_metal>  (1) 
-0

>  <r_i_glide_rewards>  (1) 
-1.5832373691963044

>  <r_lp_Energy>  (1) 
33.049985999999997

>  <r_lp_tautomer_probability>  (1) 
1

>  <s_epik_cmdline>  (1) 
J2VwaWtfcHl0aG9uJywgJy1waHQnLCAnMS4wJywgJy1waCcsICc3LjQnLCAnLXRuJywgJzgnLCAnLW1hJywgJzUwMCcsICctaW1hZScsICc8aW5maWxlLm1hZT4nLCAnLW9tYWUnLCAnPG91dGZpbGUubWFlPic=

>  <s_epik_input>  (1) 
Tz1bQ0hdW05IXVtDSDJdW0NIMl1bQ0gyXUMoPU8pW05IXVtDSDJdW0NAQEhdKFtDQEhdKFtDSDNdKU9bQ0gyXTEpW0NIMl1bQ0gyXVtDSDJdW0NIMl1bQ0gyXVtDQEhdKFtDSDJdW0NAQEhdMVtDSDNdKVtDSDJdYzJbY0hdW2NIXVtjSF1jKFtjSF0yKUMoPU8pW09IXQ==

>  <s_glide_docking_method>  (1) 
confgen

>  <s_i_glide_gridfile>  (1) 
gpcr_5ht2c_6bqh_protein_autoprepared_prepared

>  <s_lp_Force_Field>  (1) 
S-OPLS

>  <s_lp_Variant>  (1) 
DiffSBDD_15-1

>  <s_m_source_file>  (1) 
generated_GPCR_5HT2C_ligand_DiffSBDD_2026-06-23_prepared.sdf

>  <GenAI_Model>  (1) 
DiffSBDD

>  <Protein>  (1) 
GPCR_5HT2C

$$$$
DiffSBDD_36
     RDKit          3D

  0  0  0  0  0  0  0  0  0  0999 V3000
M  V30 BEGIN CTAB
M  V30 COUNTS 49 49 0 0 1
M  V30 BEGIN ATOM
M  V30 1 C 38.814180 27.481655 54.742258 0
M  V30 2 C 39.027769 24.620627 56.287589 0
M  V30 3 C 37.082008 25.807099 55.438923 0
M  V30 4 C 38.351682 25.952620 58.260178 0
M  V30 5 C 39.913821 29.893343 60.341845 0
M  V30 6 C 39.057234 26.039671 56.893162 0 CFG=1
M  V30 7 C 37.633429 24.405427 55.703130 0
M  V30 8 C 40.474836 29.310587 50.949531 0
M  V30 9 C 38.807558 28.808497 54.513383 0
M  V30 10 C 39.472600 29.483402 53.320829 0
M  V30 11 O 40.845045 29.750521 61.128939 0
M  V30 12 C 41.189287 27.259389 57.773367 0
M  V30 13 C 40.640950 27.747968 59.107329 0
M  V30 14 C 40.522443 26.537769 56.834137 0
M  V30 15 C 38.130337 26.825358 55.931079 0 CFG=1
M  V30 16 C 40.043752 30.733489 50.566471 0
M  V30 17 S 38.487200 30.877237 60.546818 0 CHG=-1
M  V30 18 C 39.980340 29.136643 59.010525 0
M  V30 19 C 38.313643 28.101937 51.512875 0
M  V30 20 C 39.650452 28.611174 52.051011 0 CFG=1
M  V30 21 H 39.321987 26.820230 54.057915 0
M  V30 22 H 39.737619 24.540227 55.464435 0
M  V30 23 H 39.293343 23.849793 57.012229 0
M  V30 24 H 36.845145 25.942093 54.383056 0
M  V30 25 H 36.155551 25.925218 55.998501 0
M  V30 26 H 37.379087 25.470050 58.167770 0
M  V30 27 H 38.917176 25.356032 58.967753 0
M  V30 28 H 38.139455 26.932046 58.682640 0
M  V30 29 H 37.666151 23.799986 54.796335 0
M  V30 30 H 36.998036 23.881317 56.418612 0
M  V30 31 H 41.517836 29.337736 51.261906 0
M  V30 32 H 40.445135 28.694120 50.051305 0
M  V30 33 H 38.300351 29.462589 55.208770 0
M  V30 34 H 38.845186 30.339249 53.075503 0
M  V30 35 H 40.422112 29.909521 53.645169 0
M  V30 36 H 42.216561 27.528747 57.573003 0
M  V30 37 H 40.045131 27.042185 59.670424 0
M  V30 38 H 41.539201 27.834320 59.719575 0
M  V30 39 H 41.058033 26.270976 55.935977 0
M  V30 40 H 37.645137 27.630113 56.483766 0
M  V30 41 H 40.702272 31.139589 49.797709 0
M  V30 42 H 39.031702 30.751967 50.167757 0
M  V30 43 H 40.088746 31.411683 51.417374 0
M  V30 44 H 40.564692 29.737755 58.318429 0
M  V30 45 H 38.999299 29.032841 58.544944 0
M  V30 46 H 37.642745 28.937774 51.367761 0
M  V30 47 H 38.445173 27.577542 50.567762 0
M  V30 48 H 37.825090 27.409426 52.197181 0
M  V30 49 H 40.220913 27.718685 52.296161 0
M  V30 END ATOM
M  V30 BEGIN BOND
M  V30 1 1 6 2
M  V30 2 1 6 4 CFG=1
M  V30 3 1 7 2
M  V30 4 1 7 3
M  V30 5 2 9 1
M  V30 6 1 10 9
M  V30 7 2 11 5
M  V30 8 1 13 12
M  V30 9 1 14 6
M  V30 10 2 14 12
M  V30 11 1 15 1
M  V30 12 1 15 3
M  V30 13 1 15 6
M  V30 14 1 16 8
M  V30 15 1 17 5
M  V30 16 1 18 5
M  V30 17 1 18 13
M  V30 18 1 20 8
M  V30 19 1 20 10
M  V30 20 1 20 19
M  V30 21 1 21 1
M  V30 22 1 22 2
M  V30 23 1 23 2
M  V30 24 1 24 3
M  V30 25 1 25 3
M  V30 26 1 26 4
M  V30 27 1 27 4
M  V30 28 1 28 4
M  V30 29 1 29 7
M  V30 30 1 30 7
M  V30 31 1 31 8
M  V30 32 1 32 8
M  V30 33 1 33 9
M  V30 34 1 34 10
M  V30 35 1 35 10
M  V30 36 1 36 12
M  V30 37 1 37 13
M  V30 38 1 38 13
M  V30 39 1 39 14
M  V30 40 1 15 40 CFG=1
M  V30 41 1 41 16
M  V30 42 1 42 16
M  V30 43 1 43 16
M  V30 44 1 44 18
M  V30 45 1 45 18
M  V30 46 1 46 19
M  V30 47 1 47 19
M  V30 48 1 48 19
M  V30 49 1 20 49 CFG=1
M  V30 END BOND
M  V30 END CTAB
M  END
>  <i_epik_Tot_Q>  (1) 
-1

>  <i_epik_Tot_abs_Q>  (1) 
1

>  <i_i_glide_confnum>  (1) 
340

>  <i_i_glide_lignum>  (1) 
82

>  <i_i_glide_posenum>  (1) 
228

>  <i_i_glide_rotatable_bonds>  (1) 
8

>  <i_lp_mmshare_version>  (1) 
72125

>  <i_m_source_file_index>  (1) 
37

>  <i_f3d_flags>  (1) 
0

>  <num_sample>  (1) 
100

>  <b_lp_Chiralities_Consistent>  (1) 
1

>  <r_epik_Charging_Adjusted_Penalty>  (1) 
9.4165288777969193e-05

>  <r_epik_Ionization_Penalty>  (1) 
9.4165288777969193e-05

>  <r_epik_Ionization_Penalty_Charging>  (1) 
9.4165288777969193e-05

>  <r_epik_Ionization_Penalty_Neutral>  (1) 
0

>  <r_epik_State_Penalty>  (1) 
-0

>  <r_glide_ring_energy>  (1) 
0.27489975278617035

>  <r_i_docking_score>  (1) 
-5.6090519940372481

>  <r_i_glide_ecoul>  (1) 
-2.8495739853749917

>  <r_i_glide_eff_state_penalty>  (1) 
-0

>  <r_i_glide_einternal>  (1) 
4.8812795572628254

>  <r_i_glide_emodel>  (1) 
-36.682528876887226

>  <r_i_glide_emodel_strain>  (1) 
0.60453151534889571

>  <r_i_glide_energy>  (1) 
-29.971908660319414

>  <r_i_glide_erotb>  (1) 
2.5456975872200465

>  <r_i_glide_esite>  (1) 
0

>  <r_i_glide_evdw>  (1) 
-27.122334674944423

>  <r_i_glide_gscore>  (1) 
-5.6090519940372481

>  <r_i_glide_gscore_strain>  (1) 
0

>  <r_i_glide_hbond>  (1) 
-0.32000000000000001

>  <r_i_glide_ligand_efficiency>  (1) 
-0.28045259970186243

>  <r_i_glide_ligand_efficiency_ln>  (1) 
-1.4037607151913347

>  <r_i_glide_ligand_efficiency_sa>  (1) 
-0.76126547725057481

>  <r_i_glide_lipo>  (1) 
-4.0444807438409569

>  <r_i_glide_metal>  (1) 
-0

>  <r_i_glide_rewards>  (1) 
-2.0067160058628675

>  <r_lp_Energy>  (1) 
17.800989999999999

>  <r_lp_tautomer_probability>  (1) 
1

>  <s_epik_cmdline>  (1) 
J2VwaWtfcHl0aG9uJywgJy1waHQnLCAnMS4wJywgJy1waCcsICc3LjQnLCAnLXRuJywgJzgnLCAnLW1hJywgJzUwMCcsICctaW1hZScsICc8aW5maWxlLm1hZT4nLCAnLW9tYWUnLCAnPG91dGZpbGUubWFlPic=

>  <s_epik_input>  (1) 
W0NIM11bQ0gyXVtDQEhdKFtDSDNdKVtDSDJdXFtDSF09W0NIXVxbQ0BIXTFbQ0gyXVtDSDJdW0NIMl1bQ0BAXTEoW0NIM10pL1tDSF09W0NIXVxbQ0gyXVtDSDJdQyg9TylbU0hd

>  <s_glide_docking_method>  (1) 
confgen

>  <s_i_glide_gridfile>  (1) 
gpcr_5ht2c_6bqh_protein_autoprepared_prepared

>  <s_lp_Force_Field>  (1) 
S-OPLS

>  <s_lp_Variant>  (1) 
DiffSBDD_36-3

>  <s_m_source_file>  (1) 
generated_GPCR_5HT2C_ligand_DiffSBDD_2026-06-23_prepared.sdf

>  <GenAI_Model>  (1) 
DiffSBDD

>  <Protein>  (1) 
GPCR_5HT2C

$$$$
DiffSBDD_78
     RDKit          3D

  0  0  0  0  0  0  0  0  0  0999 V3000
M  V30 BEGIN CTAB
M  V30 COUNTS 104 109 0 0 1
M  V30 BEGIN ATOM
M  V30 1 O 39.244665 27.694765 54.309795 0
M  V30 2 C 37.645799 37.571737 60.815373 0
M  V30 3 C 41.950264 33.489338 63.779844 0 CFG=1
M  V30 4 C 37.244767 25.288754 58.034296 0
M  V30 5 O 36.845135 22.174970 54.567730 0
M  V30 6 C 38.530756 35.845245 62.608802 0 CFG=2
M  V30 7 C 39.909087 26.451979 54.506797 0
M  V30 8 O 38.220012 25.703671 55.933632 0
M  V30 9 C 37.528812 36.883944 62.145823 0 CFG=1
M  V30 10 O 37.991406 30.281822 57.942806 0
M  V30 11 C 41.928787 27.428905 64.684737 0
M  V30 12 N 40.708864 34.220821 63.610028 0
M  V30 13 N 38.617620 37.211426 63.076513 0
M  V30 14 C 41.528811 25.351493 65.793384 0
M  V30 15 C 38.301998 38.942712 60.789998 0
M  V30 16 C 42.208642 32.600397 64.983950 0 CFG=1
M  V30 17 N 40.314871 34.054204 62.252755 0
M  V30 18 C 38.205415 27.642990 53.342642 0
M  V30 19 C 39.462471 35.095276 61.652043 0 CFG=1
M  V30 20 C 41.005029 26.571485 66.491151 0
M  V30 21 C 39.633534 33.627349 59.558142 0
M  V30 22 C 37.744277 24.661982 56.756926 0 CFG=2
M  V30 23 C 39.813785 31.590154 62.135845 0
M  V30 24 C 40.837030 29.099914 66.305359 0
M  V30 25 C 37.007256 23.563976 54.624622 0
M  V30 26 C 39.625684 25.850177 55.879318 0 CFG=2
M  V30 27 C 40.593983 31.219313 63.378816 0
M  V30 28 C 38.785479 27.609884 51.919990 0
M  V30 29 O 37.226706 37.059203 59.781640 0
M  V30 30 C 38.878768 33.878704 60.855872 0
M  V30 31 C 41.230253 27.684879 65.883381 0
M  V30 32 C 37.380083 33.886561 60.526277 0
M  V30 33 C 39.440463 27.946317 57.364135 0
M  V30 34 C 39.811749 37.943567 62.698829 0
M  V30 35 C 42.048689 29.994684 66.641841 0
M  V30 36 C 41.715469 31.396668 67.207057 0
M  V30 37 O 42.126219 26.035325 64.595488 0
M  V30 38 N 38.809325 30.937698 60.027596 0
M  V30 39 S 39.658433 28.526305 59.074040 0
M  V30 40 C 39.582517 30.675871 61.164031 0
M  V30 41 C 36.587554 24.017597 56.006860 0
M  V30 42 C 38.678222 30.065922 58.935171 0
M  V30 43 C 39.645123 38.937073 61.541622 0
M  V30 44 C 41.296727 32.501710 66.203168 0
M  V30 45 O 42.303263 28.261861 63.863311 0
M  V30 46 C 39.271923 33.045418 62.109812 0 CFG=2
M  V30 47 C 41.892954 31.977746 63.631384 0 CFG=1
M  V30 48 C 40.179339 26.628271 57.088008 0
M  V30 49 H 42.844902 33.946741 63.368148 0
M  V30 50 H 36.680846 24.537923 58.567746 0
M  V30 51 H 36.569451 26.117127 57.815658 0
M  V30 52 H 38.052651 25.657412 58.663079 0
M  V30 53 H 35.938834 21.965929 54.738833 0
M  V30 54 H 38.445274 35.337765 63.517279 0
M  V30 55 H 40.976659 26.537653 54.350749 0
M  V30 56 H 39.582722 25.737756 53.766965 0
M  V30 57 H 36.522277 36.786898 62.548362 0
M  V30 58 H 40.843143 35.204372 63.835603 0
M  V30 59 H 40.736135 24.652275 65.523825 0
M  V30 60 H 37.613409 39.641495 61.267246 0
M  V30 61 H 38.435842 39.287363 59.764258 0
M  V30 62 H 43.252106 32.561068 65.285659 0
M  V30 63 H 37.553940 26.784966 53.524049 0
M  V30 64 H 37.584945 28.529543 53.466801 0
M  V30 65 H 40.055689 35.754189 61.019315 0
M  V30 66 H 40.483960 26.490148 67.427965 0
M  V30 67 H 39.029929 33.224149 58.744317 0
M  V30 68 H 40.444912 32.937791 59.767798 0
M  V30 69 H 40.089478 34.537623 59.202028 0
M  V30 70 H 38.495956 23.899828 56.970825 0
M  V30 71 H 40.194653 29.024100 67.184376 0
M  V30 72 H 40.218461 29.543185 65.527166 0
M  V30 73 H 38.062330 23.767222 54.471669 0
M  V30 74 H 36.444954 24.085477 53.849096 0
M  V30 75 H 40.090615 24.865239 55.867355 0
M  V30 76 H 39.896724 31.345229 64.195400 0
M  V30 77 H 40.818726 30.158320 63.346138 0
M  V30 78 H 37.987579 27.604885 51.179886 0
M  V30 79 H 39.392609 26.722259 51.745091 0
M  V30 80 H 39.410201 28.483925 51.736359 0
M  V30 81 H 42.292001 24.850060 66.385317 0
M  V30 82 H 37.001476 32.883573 60.334814 0
M  V30 83 H 37.156225 34.484963 59.643866 0
M  V30 84 H 36.784018 34.278674 61.349218 0
M  V30 85 H 38.370409 27.826313 57.194646 0
M  V30 86 H 39.786504 28.715966 56.672739 0
M  V30 87 H 40.045148 38.522229 63.591019 0
M  V30 88 H 40.668184 37.282568 62.552694 0
M  V30 89 H 42.644365 29.472521 67.393449 0
M  V30 90 H 42.704396 30.085699 65.778389 0
M  V30 91 H 40.955335 31.307579 67.984515 0
M  V30 92 H 42.608424 31.752979 67.722974 0
M  V30 93 H 38.326856 31.821988 59.966077 0
M  V30 94 H 39.964813 29.674307 61.222458 0
M  V30 95 H 36.228574 23.160479 56.567705 0
M  V30 96 H 35.750480 24.704996 55.927023 0
M  V30 97 H 40.508959 38.705879 60.967750 0
M  V30 98 H 39.875863 39.960286 61.767840 0
M  V30 99 H 41.350840 33.462809 66.719419 0
M  V30 100 H 40.255030 32.395510 65.917049 0
M  V30 101 H 38.520883 33.135399 62.894245 0
M  V30 102 H 42.733888 31.547564 63.091085 0
M  V30 103 H 40.124131 25.982789 57.964310 0
M  V30 104 H 41.241482 26.818337 56.942492 0
M  V30 END ATOM
M  V30 BEGIN BOND
M  V30 1 1 7 1
M  V30 2 1 9 2
M  V30 3 1 9 6
M  V30 4 1 12 3
M  V30 5 1 13 6
M  V30 6 1 13 9
M  V30 7 1 15 2
M  V30 8 1 16 3
M  V30 9 1 17 12
M  V30 10 1 18 1
M  V30 11 1 19 6
M  V30 12 1 19 17
M  V30 13 1 20 14
M  V30 14 1 22 4
M  V30 15 1 22 8
M  V30 16 1 25 5
M  V30 17 1 26 7
M  V30 18 1 26 8
M  V30 19 1 27 23
M  V30 20 1 28 18
M  V30 21 2 29 2
M  V30 22 1 30 19
M  V30 23 1 30 21
M  V30 24 1 31 11
M  V30 25 2 31 20
M  V30 26 1 31 24
M  V30 27 1 32 30
M  V30 28 1 34 13
M  V30 29 1 35 24
M  V30 30 1 36 35
M  V30 31 1 37 11
M  V30 32 1 37 14
M  V30 33 1 39 33
M  V30 34 2 40 23
M  V30 35 1 40 38
M  V30 36 1 41 22
M  V30 37 1 41 25
M  V30 38 2 42 10
M  V30 39 1 42 38
M  V30 40 1 42 39
M  V30 41 1 43 15
M  V30 42 1 43 34
M  V30 43 1 44 16
M  V30 44 1 44 36
M  V30 45 2 45 11
M  V30 46 1 46 17
M  V30 47 1 46 23
M  V30 48 1 46 30
M  V30 49 1 47 3
M  V30 50 1 47 16
M  V30 51 1 47 27
M  V30 52 1 48 26
M  V30 53 1 48 33
M  V30 54 1 3 49 CFG=3
M  V30 55 1 50 4
M  V30 56 1 51 4
M  V30 57 1 52 4
M  V30 58 1 53 5
M  V30 59 1 6 54 CFG=1
M  V30 60 1 55 7
M  V30 61 1 56 7
M  V30 62 1 9 57 CFG=1
M  V30 63 1 58 12
M  V30 64 1 59 14
M  V30 65 1 60 15
M  V30 66 1 61 15
M  V30 67 1 16 62 CFG=1
M  V30 68 1 63 18
M  V30 69 1 64 18
M  V30 70 1 19 65 CFG=3
M  V30 71 1 66 20
M  V30 72 1 67 21
M  V30 73 1 68 21
M  V30 74 1 69 21
M  V30 75 1 22 70 CFG=1
M  V30 76 1 71 24
M  V30 77 1 72 24
M  V30 78 1 73 25
M  V30 79 1 74 25
M  V30 80 1 26 75 CFG=3
M  V30 81 1 76 27
M  V30 82 1 77 27
M  V30 83 1 78 28
M  V30 84 1 79 28
M  V30 85 1 80 28
M  V30 86 1 81 14
M  V30 87 1 82 32
M  V30 88 1 83 32
M  V30 89 1 84 32
M  V30 90 1 85 33
M  V30 91 1 86 33
M  V30 92 1 87 34
M  V30 93 1 88 34
M  V30 94 1 89 35
M  V30 95 1 90 35
M  V30 96 1 91 36
M  V30 97 1 92 36
M  V30 98 1 93 38
M  V30 99 1 94 40
M  V30 100 1 95 41
M  V30 101 1 96 41
M  V30 102 1 97 43
M  V30 103 1 98 43
M  V30 104 1 99 44
M  V30 105 1 100 44
M  V30 106 1 46 101 CFG=1
M  V30 107 1 47 102 CFG=3
M  V30 108 1 103 48
M  V30 109 1 104 48
M  V30 END BOND
M  V30 END CTAB
M  END
>  <i_epik_Tot_Q>  (1) 
0

>  <i_epik_Tot_abs_Q>  (1) 
0

>  <i_i_glide_confnum>  (1) 
1806

>  <i_i_glide_lignum>  (1) 
184

>  <i_i_glide_posenum>  (1) 
48

>  <i_i_glide_rotatable_bonds>  (1) 
20

>  <i_lp_mmshare_version>  (1) 
72125

>  <i_m_source_file_index>  (1) 
79

>  <i_f3d_flags>  (1) 
0

>  <num_sample>  (1) 
100

>  <b_lp_Chiralities_Consistent>  (1) 
1

>  <r_epik_Charging_Adjusted_Penalty>  (1) 
0.92354502945683503

>  <r_epik_Ionization_Penalty>  (1) 
0.93156090309964268

>  <r_epik_Ionization_Penalty_Charging>  (1) 
0

>  <r_epik_Ionization_Penalty_Neutral>  (1) 
0.93156090309964268

>  <r_epik_State_Penalty>  (1) 
0.92354502945683503

>  <r_glide_ring_energy>  (1) 
0

>  <r_i_docking_score>  (1) 
-5.6087412815514632

>  <r_i_glide_ecoul>  (1) 
0.45547304093594954

>  <r_i_glide_eff_state_penalty>  (1) 
0.92354502945683503

>  <r_i_glide_einternal>  (1) 
32.247028889709441

>  <r_i_glide_emodel>  (1) 
-84.374823278326062

>  <r_i_glide_emodel_strain>  (1) 
8.5411536132223773

>  <r_i_glide_energy>  (1) 
-29.43135362936615

>  <r_i_glide_erotb>  (1) 
0.59596673808410561

>  <r_i_glide_esite>  (1) 
-0.0061575321110012475

>  <r_i_glide_evdw>  (1) 
-29.886826670302099

>  <r_i_glide_gscore>  (1) 
-6.5322863110082983

>  <r_i_glide_gscore_strain>  (1) 
1.1352884033055943

>  <r_i_glide_hbond>  (1) 
0

>  <r_i_glide_ligand_efficiency>  (1) 
-0.11684877669898881

>  <r_i_glide_ligand_efficiency_ln>  (1) 
-1.1514083013597729

>  <r_i_glide_ligand_efficiency_sa>  (1) 
-0.42465663677395377

>  <r_i_glide_lipo>  (1) 
-5.8618367995962277

>  <r_i_glide_metal>  (1) 
-0

>  <r_i_glide_rewards>  (1) 
-0.9695267433160567

>  <r_lp_Energy>  (1) 
40.470562000000001

>  <r_lp_tautomer_probability>  (1) 
0.99984117342658263

>  <s_epik_Chemistry_Notes>  (1) 
This compound has an ester and may undergo hydrolysis at high or low pH.

>  <s_epik_cmdline>  (1) 
J2VwaWtfcHl0aG9uJywgJy1waHQnLCAnMS4wJywgJy1waCcsICc3LjQnLCAnLXRuJywgJzgnLCAnLW1hJywgJzUwMCcsICctaW1hZScsICc8aW5maWxlLm1hZT4nLCAnLW9tYWUnLCAnPG91dGZpbGUubWFlPic=

>  <s_epik_input>  (1) 
W09IXVtDSDJdW0NIMl1bQ0BIXShbQ0gzXSlPW0NAQEhdKFtDSDJdT1tDSDJdW0NIM10pW0NIMl1bQ0gyXVNDKD1PKVtOSF1cW0NIXT1DKFtDQEhdMU4oW05IXTIpW0NAQEhdKEMxKFtDSDNdKVtDSDNdKVtDQEhdM04oW0NASF0zNClbQ0gyXVtDSDJdW0NIMl1DND1PKVxbQ0gyXVtDQEBIXShbQ0BASF0yNSlbQ0BASF01W0NIMl1bQ0gyXVtDSDJdW0NIMl1bQ0BASF0oQzY9TylbQ0hdPVtDSF1PNg==

>  <s_glide_docking_method>  (1) 
confgen

>  <s_i_glide_gridfile>  (1) 
gpcr_5ht2c_6bqh_protein_autoprepared_prepared

>  <s_lp_Force_Field>  (1) 
S-OPLS

>  <s_lp_Variant>  (1) 
DiffSBDD_78-6

>  <s_m_source_file>  (1) 
generated_GPCR_5HT2C_ligand_DiffSBDD_2026-06-23_prepared.sdf

>  <GenAI_Model>  (1) 
DiffSBDD

>  <Protein>  (1) 
GPCR_5HT2C

$$$$
DiffSBDD_90
     RDKit          3D

  0  0  0  0  0  0  0  0  0  0999 V3000
M  V30 BEGIN CTAB
M  V30 COUNTS 54 56 0 0 1
M  V30 BEGIN ATOM
M  V30 1 Cl 42.940679 30.352112 64.647733 0
M  V30 2 O 35.739491 34.704198 59.981180 0
M  V30 3 C 40.015825 31.841935 61.493762 0
M  V30 4 C 41.830723 30.915685 63.451153 0
M  V30 5 C 38.704910 30.520304 56.918899 0 CFG=1
M  V30 6 C 36.966890 35.152737 59.499566 0 CFG=1
M  V30 7 C 38.045587 28.569061 54.830943 0
M  V30 8 O 37.645180 32.679613 57.455597 0
M  V30 9 C 33.821125 33.337137 59.636242 0
M  V30 10 C 38.322287 31.393012 59.463309 0 CFG=1
M  V30 11 C 41.661485 32.297367 63.247309 0
M  V30 12 O 36.885237 36.540163 59.269980 0
M  V30 13 C 38.987218 32.076341 54.845922 0
M  V30 14 C 40.757437 32.765014 62.276522 0
M  V30 15 C 38.008170 29.188259 57.275648 0
M  V30 16 C 38.739708 33.636542 60.414430 0
M  V30 17 C 36.818392 31.280296 59.766024 0
M  V30 18 C 38.314059 30.848675 55.445910 0 CFG=1
M  V30 19 C 38.140213 34.803539 60.421517 0
M  V30 20 C 38.367375 28.099254 56.254819 0
M  V30 21 F 41.258690 28.663566 62.880454 0
M  V30 22 C 40.192023 30.448028 61.703295 0
M  V30 23 O 38.477471 35.866059 61.160866 0
M  V30 24 C 35.295527 33.407257 59.861195 0
M  V30 25 C 38.548019 31.716776 57.932931 0 CFG=1
M  V30 26 C 41.095878 29.992652 62.681280 0
M  V30 27 C 36.028398 32.319459 59.918241 0
M  V30 28 O 38.725847 29.785993 54.588492 0
M  V30 29 O 36.443588 29.998763 59.759976 0
M  V30 30 C 39.036664 32.352298 60.461620 0
M  V30 31 H 39.770005 30.292082 56.919145 0
M  V30 32 H 37.141347 34.727062 58.517769 0
M  V30 33 H 38.362996 27.825901 54.100349 0
M  V30 34 H 36.975131 28.721568 54.684159 0
M  V30 35 H 36.766625 32.285713 57.332614 0
M  V30 36 H 33.644910 32.413765 59.089800 0
M  V30 37 H 33.271808 33.337724 60.567762 0
M  V30 38 H 33.473252 34.169367 59.025413 0
M  V30 39 H 38.779675 30.425706 59.559306 0
M  V30 40 H 42.224904 33.000593 63.839571 0
M  V30 41 H 36.443432 36.632023 58.434569 0
M  V30 42 H 38.665623 33.020127 55.279532 0
M  V30 43 H 40.066886 32.006468 54.954384 0
M  V30 44 H 38.757569 32.135565 53.781885 0
M  V30 45 H 40.635225 33.829951 62.132555 0
M  V30 46 H 38.303043 28.819218 58.256179 0
M  V30 47 H 36.926480 29.332079 57.288107 0
M  V30 48 H 37.231998 30.979379 55.370275 0
M  V30 49 H 39.429110 27.860707 56.329660 0
M  V30 50 H 37.824389 27.179617 56.479878 0
M  V30 51 H 39.636443 29.726555 61.134661 0
M  V30 52 H 37.909527 36.561991 60.851405 0
M  V30 53 H 39.476931 32.277115 57.846570 0
M  V30 54 H 37.195036 29.482146 59.518126 0
M  V30 END ATOM
M  V30 BEGIN BOND
M  V30 1 1 4 1
M  V30 2 1 6 2
M  V30 3 1 11 4
M  V30 4 1 12 6
M  V30 5 1 14 3
M  V30 6 2 14 11
M  V30 7 1 15 5
M  V30 8 1 17 10
M  V30 9 1 18 5
M  V30 10 1 18 13
M  V30 11 1 19 6
M  V30 12 2 19 16
M  V30 13 1 20 7
M  V30 14 1 20 15
M  V30 15 2 22 3
M  V30 16 1 23 19
M  V30 17 1 24 2
M  V30 18 1 24 9
M  V30 19 1 25 5
M  V30 20 1 25 8
M  V30 21 1 25 10
M  V30 22 2 26 4
M  V30 23 1 26 21
M  V30 24 1 26 22
M  V30 25 2 27 17
M  V30 26 2 27 24
M  V30 27 1 28 7
M  V30 28 1 28 18
M  V30 29 1 29 17
M  V30 30 1 30 3
M  V30 31 1 30 10
M  V30 32 2 30 16
M  V30 33 1 5 31 CFG=3
M  V30 34 1 6 32 CFG=3
M  V30 35 1 33 7
M  V30 36 1 34 7
M  V30 37 1 35 8
M  V30 38 1 36 9
M  V30 39 1 37 9
M  V30 40 1 38 9
M  V30 41 1 10 39 CFG=3
M  V30 42 1 40 11
M  V30 43 1 41 12
M  V30 44 1 42 13
M  V30 45 1 43 13
M  V30 46 1 44 13
M  V30 47 1 45 14
M  V30 48 1 46 15
M  V30 49 1 47 15
M  V30 50 1 18 48 CFG=1
M  V30 51 1 49 20
M  V30 52 1 50 20
M  V30 53 1 51 22
M  V30 54 1 52 23
M  V30 55 1 25 53 CFG=1
M  V30 56 1 54 29
M  V30 END BOND
M  V30 END CTAB
M  END
>  <i_epik_Tot_Q>  (1) 
0

>  <i_epik_Tot_abs_Q>  (1) 
0

>  <i_i_glide_confnum>  (1) 
23

>  <i_i_glide_lignum>  (1) 
210

>  <i_i_glide_posenum>  (1) 
270

>  <i_i_glide_rotatable_bonds>  (1) 
7

>  <i_lp_mmshare_version>  (1) 
72125

>  <i_m_source_file_index>  (1) 
91

>  <i_f3d_flags>  (1) 
0

>  <num_sample>  (1) 
100

>  <b_lp_Chiralities_Consistent>  (1) 
1

>  <r_epik_Charging_Adjusted_Penalty>  (1) 
0

>  <r_epik_Ionization_Penalty>  (1) 
0.00021640466764567947

>  <r_epik_Ionization_Penalty_Charging>  (1) 
0

>  <r_epik_Ionization_Penalty_Neutral>  (1) 
0.00021640466764567947

>  <r_epik_State_Penalty>  (1) 
-0

>  <r_glide_ring_energy>  (1) 
0

>  <r_i_docking_score>  (1) 
-5.6001447566017566

>  <r_i_glide_ecoul>  (1) 
-6.0301392963966274

>  <r_i_glide_eff_state_penalty>  (1) 
-0

>  <r_i_glide_einternal>  (1) 
13.411501783558862

>  <r_i_glide_emodel>  (1) 
-41.179341243713644

>  <r_i_glide_emodel_strain>  (1) 
4.4499722282519585

>  <r_i_glide_energy>  (1) 
-43.997822009658876

>  <r_i_glide_erotb>  (1) 
0.31077181142347338

>  <r_i_glide_esite>  (1) 
0

>  <r_i_glide_evdw>  (1) 
-37.967682713262249

>  <r_i_glide_gscore>  (1) 
-5.6001447566017566

>  <r_i_glide_gscore_strain>  (1) 
0.11249305706298962

>  <r_i_glide_hbond>  (1) 
-0.39198642223929014

>  <r_i_glide_ligand_efficiency>  (1) 
-0.18667149188672522

>  <r_i_glide_ligand_efficiency_ln>  (1) 
-1.2724139071642377

>  <r_i_glide_ligand_efficiency_sa>  (1) 
-0.58003172752533472

>  <r_i_glide_lipo>  (1) 
-1.6557000462317679

>  <r_i_glide_metal>  (1) 
-0

>  <r_i_glide_rewards>  (1) 
-1.1728181264945543

>  <r_lp_Energy>  (1) 
4.0027919999999995

>  <r_lp_tautomer_probability>  (1) 
1

>  <s_epik_Chemistry_Notes>  (1) 
This compound contains an acetal/aminal-like group ( X-CH(R)-Y where X, Y are N, S, or O) that may be acid/base labile, releasing an aldehyde.

>  <s_epik_cmdline>  (1) 
J2VwaWtfcHl0aG9uJywgJy1waHQnLCAnMS4wJywgJy1waCcsICc3LjQnLCAnLXRuJywgJzgnLCAnLW1hJywgJzUwMCcsICctaW1hZScsICc8aW5maWxlLm1hZT4nLCAnLW9tYWUnLCAnPG91dGZpbGUubWFlPic=

>  <s_epik_input>  (1) 
RmMoW2NIXTEpYyhDbClbY0hdW2NIXWMxQyg9Qz1DMltPSF0pW0NAQEhdKEMoW09IXSk9Qz1DKFtDSDNdKU9bQ0BIXTJbT0hdKVtDQEhdKFtPSF0pW0NASF0zW0NIMl1bQ0gyXVtDSDJdT1tDQEBIXTNbQ0gzXQ==

>  <s_glide_docking_method>  (1) 
confgen

>  <s_i_glide_gridfile>  (1) 
gpcr_5ht2c_6bqh_protein_autoprepared_prepared

>  <s_lp_Force_Field>  (1) 
S-OPLS

>  <s_lp_Variant>  (1) 
DiffSBDD_90-1

>  <s_m_source_file>  (1) 
generated_GPCR_5HT2C_ligand_DiffSBDD_2026-06-23_prepared.sdf

>  <GenAI_Model>  (1) 
DiffSBDD

>  <Protein>  (1) 
GPCR_5HT2C

$$$$
DiffSBDD_91
     RDKit          3D

  0  0  0  0  0  0  0  0  0  0999 V3000
M  V30 BEGIN CTAB
M  V30 COUNTS 47 48 0 0 1
M  V30 BEGIN ATOM
M  V30 1 N 38.968033 32.706958 62.113882 0
M  V30 2 C 40.271782 30.718008 61.862574 0
M  V30 3 C 39.657144 30.067807 60.841412 0
M  V30 4 C 38.183883 29.168724 55.420818 0 CFG=1
M  V30 5 O 39.245184 29.307108 53.279076 0
M  V30 6 C 38.500171 28.577933 58.737569 0
M  V30 7 C 39.695465 28.086451 59.435287 0
M  V30 8 C 38.439274 30.531589 60.088666 0
M  V30 9 C 38.948176 31.717517 55.074323 0 CFG=2
M  V30 10 C 39.381715 32.929528 55.910138 0
M  V30 11 O 37.244824 28.341895 53.386234 0 CHG=-1
M  V30 12 C 37.731409 31.677820 60.275658 0
M  V30 13 C 38.228897 28.921162 53.895044 0
M  V30 14 C 40.008489 26.146855 54.937020 0
M  V30 15 C 38.030621 32.684259 61.256691 0
M  V30 16 O 37.645144 31.983444 54.625015 0
M  V30 17 C 38.473572 27.826528 56.184802 0 CFG=1
M  V30 18 C 39.907172 27.248245 56.005952 0
M  V30 19 N 39.976667 31.932686 62.473992 0
M  V30 20 N 37.957130 29.688361 59.062582 0
M  V30 21 C 40.230657 28.798844 60.430597 0
M  V30 22 N 40.810319 32.349735 63.506913 0
M  V30 23 C 37.920400 27.694707 57.638106 0
M  V30 24 C 39.016103 30.403848 55.889314 0
M  V30 25 H 41.143227 30.267919 62.318496 0
M  V30 26 H 37.143753 29.427680 55.618146 0
M  V30 27 H 40.101998 27.140129 59.114759 0
M  V30 28 H 39.587534 31.648234 54.193879 0
M  V30 29 H 40.436704 32.855848 56.167770 0
M  V30 30 H 38.807845 33.007288 56.834995 0
M  V30 31 H 39.243411 33.863853 55.367936 0
M  V30 32 H 36.874090 31.858343 59.639981 0
M  V30 33 H 41.015641 25.737765 54.903130 0
M  V30 34 H 39.776602 26.524503 53.940888 0
M  V30 35 H 39.331528 25.319053 55.149724 0
M  V30 36 H 37.327630 33.516504 61.217456 0
M  V30 37 H 37.057017 32.091537 55.365900 0
M  V30 38 H 37.833786 27.102438 55.676589 0
M  V30 39 H 40.255576 26.808910 56.937829 0
M  V30 40 H 40.621814 28.035163 55.771150 0
M  V30 41 H 41.107289 28.420179 60.937552 0
M  V30 42 H 41.126952 33.291808 63.284946 0
M  V30 43 H 40.250805 32.391167 64.356692 0
M  V30 44 H 38.021790 26.655977 57.955228 0
M  V30 45 H 36.845255 27.867507 57.630824 0
M  V30 46 H 38.670991 30.662403 56.882970 0
M  V30 47 H 40.058914 30.131640 56.010740 0
M  V30 END ATOM
M  V30 BEGIN BOND
M  V30 1 2 3 2
M  V30 2 1 7 6
M  V30 3 1 8 3
M  V30 4 1 10 9
M  V30 5 2 12 8
M  V30 6 1 13 4
M  V30 7 2 13 5
M  V30 8 1 13 11
M  V30 9 2 15 1
M  V30 10 1 15 12
M  V30 11 1 16 9
M  V30 12 1 17 4
M  V30 13 1 18 14
M  V30 14 1 18 17
M  V30 15 1 19 1
M  V30 16 1 19 2
M  V30 17 2 20 6
M  V30 18 1 20 8
M  V30 19 1 21 3
M  V30 20 2 21 7
M  V30 21 1 22 19
M  V30 22 1 23 6
M  V30 23 1 23 17
M  V30 24 1 24 4
M  V30 25 1 24 9
M  V30 26 1 25 2
M  V30 27 1 4 26 CFG=1
M  V30 28 1 27 7
M  V30 29 1 9 28 CFG=3
M  V30 30 1 29 10
M  V30 31 1 30 10
M  V30 32 1 31 10
M  V30 33 1 32 12
M  V30 34 1 33 14
M  V30 35 1 34 14
M  V30 36 1 35 14
M  V30 37 1 36 15
M  V30 38 1 37 16
M  V30 39 1 17 38 CFG=3
M  V30 40 1 39 18
M  V30 41 1 40 18
M  V30 42 1 41 21
M  V30 43 1 42 22
M  V30 44 1 43 22
M  V30 45 1 44 23
M  V30 46 1 45 23
M  V30 47 1 46 24
M  V30 48 1 47 24
M  V30 END BOND
M  V30 END CTAB
M  END
>  <i_epik_Tot_Q>  (1) 
-1

>  <i_epik_Tot_abs_Q>  (1) 
1

>  <i_i_glide_confnum>  (1) 
189

>  <i_i_glide_lignum>  (1) 
211

>  <i_i_glide_posenum>  (1) 
233

>  <i_i_glide_rotatable_bonds>  (1) 
8

>  <i_lp_mmshare_version>  (1) 
72125

>  <i_m_source_file_index>  (1) 
92

>  <i_f3d_flags>  (1) 
0

>  <num_sample>  (1) 
100

>  <b_lp_Chiralities_Consistent>  (1) 
1

>  <r_epik_Charging_Adjusted_Penalty>  (1) 
0.00040007819211634345

>  <r_epik_Ionization_Penalty>  (1) 
0.00040449686215294139

>  <r_epik_Ionization_Penalty_Charging>  (1) 
0.00040007819211634345

>  <r_epik_Ionization_Penalty_Neutral>  (1) 
4.4186700365979628e-06

>  <r_epik_State_Penalty>  (1) 
-0

>  <r_glide_ring_energy>  (1) 
0

>  <r_i_docking_score>  (1) 
-5.5954486139217448

>  <r_i_glide_ecoul>  (1) 
-1.7926767553343161

>  <r_i_glide_eff_state_penalty>  (1) 
-0

>  <r_i_glide_einternal>  (1) 
11.345996285045114

>  <r_i_glide_emodel>  (1) 
-45.384169472916248

>  <r_i_glide_emodel_strain>  (1) 
3.1112538071008373

>  <r_i_glide_energy>  (1) 
-37.713673386493014

>  <r_i_glide_erotb>  (1) 
0.85685710586464559

>  <r_i_glide_esite>  (1) 
0

>  <r_i_glide_evdw>  (1) 
-35.920996631158701

>  <r_i_glide_gscore>  (1) 
-5.5954486139217448

>  <r_i_glide_gscore_strain>  (1) 
0

>  <r_i_glide_hbond>  (1) 
-0.1032218592362862

>  <r_i_glide_ligand_efficiency>  (1) 
-0.23314369224673936

>  <r_i_glide_ligand_efficiency_ln>  (1) 
-1.3392476117177647

>  <r_i_glide_ligand_efficiency_sa>  (1) 
-0.67250277992548502

>  <r_i_glide_lipo>  (1) 
-1.9720638848470347

>  <r_i_glide_metal>  (1) 
-0

>  <r_i_glide_rewards>  (1) 
-2.3120686308449869

>  <r_lp_Energy>  (1) 
41.094901

>  <r_lp_tautomer_probability>  (1) 
1

>  <s_epik_Chemistry_Notes>  (1) 
This compound has an imine and may undergo hydrolysis.

>  <s_epik_cmdline>  (1) 
J2VwaWtfcHl0aG9uJywgJy1waHQnLCAnMS4wJywgJy1waCcsICc3LjQnLCAnLXRuJywgJzgnLCAnLW1hJywgJzUwMCcsICctaW1hZScsICc8aW5maWxlLm1hZT4nLCAnLW9tYWUnLCAnPG91dGZpbGUubWFlPic=

>  <s_epik_input>  (1) 
W0NIXT0xTihbTkgyXSlOPVtDSF1bQ0hdPWMoYzEyKW5jKFtjSF1bY0hdMilbQ0gyXVtDQEhdKFtDSDJdW0NIM10pW0NASF0oQyg9TylbT0hdKVtDSDJdW0NASF0oW0NIM10pW09IXQ==

>  <s_glide_docking_method>  (1) 
confgen

>  <s_i_glide_gridfile>  (1) 
gpcr_5ht2c_6bqh_protein_autoprepared_prepared

>  <s_lp_Force_Field>  (1) 
S-OPLS

>  <s_lp_Variant>  (1) 
DiffSBDD_91-1

>  <s_m_source_file>  (1) 
generated_GPCR_5HT2C_ligand_DiffSBDD_2026-06-23_prepared.sdf

>  <GenAI_Model>  (1) 
DiffSBDD

>  <Protein>  (1) 
GPCR_5HT2C

$$$$
DiffSBDD_67
     RDKit          3D

  0  0  0  0  0  0  0  0  0  0999 V3000
M  V30 BEGIN CTAB
M  V30 COUNTS 77 78 0 0 1
M  V30 BEGIN ATOM
M  V30 1 C 38.992226 29.768651 57.026905 0
M  V30 2 O 35.280514 31.604631 61.367763 0
M  V30 3 O 40.844841 34.437441 61.423674 0 CHG=-1
M  V30 4 C 39.056490 28.257827 57.281139 0 CFG=1
M  V30 5 O 40.814544 28.002117 58.910451 0
M  V30 6 C 35.424700 32.701557 60.838442 0
M  V30 7 C 38.329271 27.319625 56.225616 0 CFG=1
M  V30 8 C 39.644996 30.336318 55.909211 0
M  V30 9 C 41.423332 27.376022 56.686748 0
M  V30 10 C 38.367509 27.706601 54.696976 0
M  V30 11 N 39.570705 28.497630 51.910146 0 CFG=2 CHG=1
M  V30 12 C 37.444499 32.893332 58.622229 0
M  V30 13 C 40.699891 29.936663 50.557885 0
M  V30 14 C 37.531556 23.853215 54.833101 0
M  V30 15 C 39.563277 31.716646 55.669884 0
M  V30 16 C 38.540617 25.286302 57.885503 0
M  V30 17 C 37.210346 25.068748 55.680659 0
M  V30 18 C 38.222846 31.995195 57.682727 0
M  V30 19 C 37.867723 32.923304 60.107938 0 CFG=2
M  V30 20 C 38.615790 29.202399 51.046395 0
M  V30 21 C 40.845143 28.574420 51.184858 0
M  V30 22 C 39.322183 30.492374 50.567777 0
M  V30 23 C 36.068130 24.658879 56.567750 0
M  V30 24 O 39.525894 32.936951 62.310038 0
M  V30 25 O 41.645128 30.537759 50.068380 0
M  V30 26 C 39.317903 26.886549 53.785254 0
M  V30 27 C 39.126038 27.141789 52.289895 0
M  V30 28 C 39.838987 33.700438 61.369551 0
M  V30 29 C 34.326292 33.316096 59.980040 0
M  V30 30 C 36.724474 33.494376 60.988938 0
M  V30 31 C 38.407438 25.759233 56.421625 0 CFG=1
M  V30 32 C 38.284454 30.603896 57.917880 0
M  V30 33 N 39.076370 33.733875 60.267037 0
M  V30 34 C 40.469459 27.885620 57.736408 0
M  V30 35 C 38.854675 32.545796 56.553682 0
M  V30 36 H 38.478420 28.113299 58.195716 0
M  V30 37 H 37.300154 27.531370 56.506576 0
M  V30 38 H 40.202038 29.711961 55.231376 0
M  V30 39 H 41.248121 27.925190 55.767815 0
M  V30 40 H 42.458055 27.516225 57.002157 0
M  V30 41 H 41.245117 26.318929 56.503695 0
M  V30 42 H 37.362125 27.586065 54.297124 0
M  V30 43 H 38.484501 28.762071 54.511514 0
M  V30 44 H 37.379284 33.904149 58.217368 0
M  V30 45 H 36.445081 32.487688 58.567760 0
M  V30 46 H 37.610875 22.937751 55.368438 0
M  V30 47 H 36.696150 23.678508 54.167734 0
M  V30 48 H 38.445141 23.938806 54.277993 0
M  V30 49 H 40.045207 32.137796 54.806725 0
M  V30 50 H 37.786840 25.735343 58.529921 0
M  V30 51 H 38.445044 24.202802 57.948422 0
M  V30 52 H 39.518234 25.503976 58.306895 0
M  V30 53 H 36.777340 25.755825 54.970151 0
M  V30 54 H 38.073807 31.903910 60.440579 0
M  V30 55 H 38.445092 28.541545 50.191631 0
M  V30 56 H 37.678884 29.337753 51.584825 0
M  V30 57 H 41.749732 28.493313 51.767761 0
M  V30 58 H 40.844301 27.805614 50.416859 0
M  V30 59 H 39.303538 31.283745 51.312704 0
M  V30 60 H 39.021227 30.911697 49.609669 0
M  V30 61 H 36.445143 23.931733 57.278968 0
M  V30 62 H 35.645246 25.488712 57.122837 0
M  V30 63 H 35.290840 24.137764 56.002077 0
M  V30 64 H 40.359491 26.937745 54.084457 0
M  V30 65 H 39.087486 25.841892 53.886275 0
M  V30 66 H 39.645084 26.386365 51.701654 0
M  V30 67 H 38.067835 27.007884 52.055999 0
M  V30 68 H 34.646192 34.262943 59.545789 0
M  V30 69 H 34.078688 32.634237 59.165737 0
M  V30 70 H 33.427681 33.475693 60.567775 0
M  V30 71 H 37.012071 33.476985 62.040598 0
M  V30 72 H 36.539865 34.537680 60.731552 0
M  V30 73 H 39.327290 25.406144 55.960836 0
M  V30 74 H 37.785780 30.178935 58.777475 0
M  V30 75 H 39.337636 34.348459 59.512415 0
M  V30 76 H 38.794083 33.607088 56.365204 0
M  V30 77 H 39.649421 29.048176 52.753475 0
M  V30 END ATOM
M  V30 BEGIN BOND
M  V30 1 1 4 1
M  V30 2 2 6 2
M  V30 3 1 7 4
M  V30 4 2 8 1
M  V30 5 1 10 7
M  V30 6 1 15 8
M  V30 7 1 17 14
M  V30 8 1 18 12
M  V30 9 1 19 12
M  V30 10 1 20 11
M  V30 11 1 21 11
M  V30 12 1 21 13
M  V30 13 1 22 13
M  V30 14 1 22 20
M  V30 15 1 23 17
M  V30 16 2 25 13
M  V30 17 1 26 10
M  V30 18 1 27 11
M  V30 19 1 27 26
M  V30 20 1 28 3
M  V30 21 2 28 24
M  V30 22 1 29 6
M  V30 23 1 30 6
M  V30 24 1 30 19
M  V30 25 1 31 7
M  V30 26 1 31 16
M  V30 27 1 31 17
M  V30 28 1 32 1
M  V30 29 2 32 18
M  V30 30 1 33 19
M  V30 31 1 33 28
M  V30 32 1 34 4
M  V30 33 2 34 5
M  V30 34 1 34 9
M  V30 35 2 35 15
M  V30 36 1 35 18
M  V30 37 1 4 36 CFG=1
M  V30 38 1 7 37 CFG=1
M  V30 39 1 38 8
M  V30 40 1 39 9
M  V30 41 1 40 9
M  V30 42 1 41 9
M  V30 43 1 42 10
M  V30 44 1 43 10
M  V30 45 1 44 12
M  V30 46 1 45 12
M  V30 47 1 46 14
M  V30 48 1 47 14
M  V30 49 1 48 14
M  V30 50 1 49 15
M  V30 51 1 50 16
M  V30 52 1 51 16
M  V30 53 1 52 16
M  V30 54 1 53 17
M  V30 55 1 19 54 CFG=1
M  V30 56 1 55 20
M  V30 57 1 56 20
M  V30 58 1 57 21
M  V30 59 1 58 21
M  V30 60 1 59 22
M  V30 61 1 60 22
M  V30 62 1 61 23
M  V30 63 1 62 23
M  V30 64 1 63 23
M  V30 65 1 64 26
M  V30 66 1 65 26
M  V30 67 1 66 27
M  V30 68 1 67 27
M  V30 69 1 68 29
M  V30 70 1 69 29
M  V30 71 1 70 29
M  V30 72 1 71 30
M  V30 73 1 72 30
M  V30 74 1 31 73 CFG=3
M  V30 75 1 74 32
M  V30 76 1 75 33
M  V30 77 1 76 35
M  V30 78 1 11 77 CFG=1
M  V30 END BOND
M  V30 END CTAB
M  END
>  <i_epik_Tot_Q>  (1) 
0

>  <i_epik_Tot_abs_Q>  (1) 
2

>  <i_i_glide_confnum>  (1) 
2277

>  <i_i_glide_lignum>  (1) 
149

>  <i_i_glide_posenum>  (1) 
14

>  <i_i_glide_rotatable_bonds>  (1) 
15

>  <i_lp_mmshare_version>  (1) 
72125

>  <i_m_source_file_index>  (1) 
68

>  <i_f3d_flags>  (1) 
0

>  <num_sample>  (1) 
100

>  <b_lp_Chiralities_Consistent>  (1) 
1

>  <r_epik_Charging_Adjusted_Penalty>  (1) 
0.5296149838886226

>  <r_epik_Ionization_Penalty>  (1) 
0.26529925199373078

>  <r_epik_Ionization_Penalty_Charging>  (1) 
0.26525061984488274

>  <r_epik_Ionization_Penalty_Neutral>  (1) 
4.8632148848023016e-05

>  <r_epik_State_Penalty>  (1) 
0.26436436404373981

>  <r_glide_ring_energy>  (1) 
0

>  <r_i_docking_score>  (1) 
-5.5937973541575179

>  <r_i_glide_ecoul>  (1) 
-2.7759763629148524

>  <r_i_glide_eff_state_penalty>  (1) 
0.26436436404373981

>  <r_i_glide_einternal>  (1) 
21.716430169239096

>  <r_i_glide_emodel>  (1) 
-28.872817517495427

>  <r_i_glide_emodel_strain>  (1) 
5.9918942552934098

>  <r_i_glide_energy>  (1) 
-26.181609381339889

>  <r_i_glide_erotb>  (1) 
0.8581402996549512

>  <r_i_glide_esite>  (1) 
0

>  <r_i_glide_evdw>  (1) 
-23.405633018425036

>  <r_i_glide_gscore>  (1) 
-5.8581617182012575

>  <r_i_glide_gscore_strain>  (1) 
0.49797356382335245

>  <r_i_glide_hbond>  (1) 
-0.26142834800945819

>  <r_i_glide_ligand_efficiency>  (1) 
-0.15982278154735766

>  <r_i_glide_ligand_efficiency_ln>  (1) 
-1.2279626668809527

>  <r_i_glide_ligand_efficiency_sa>  (1) 
-0.52279091632019226

>  <r_i_glide_lipo>  (1) 
-3.5022336500962257

>  <r_i_glide_metal>  (1) 
-0

>  <r_i_glide_rewards>  (1) 
-1.8639354782153974

>  <r_lp_Energy>  (1) 
28.989404

>  <r_lp_tautomer_probability>  (1) 
0.99994994000300153

>  <s_epik_cmdline>  (1) 
J2VwaWtfcHl0aG9uJywgJy1waHQnLCAnMS4wJywgJy1waCcsICc3LjQnLCAnLXRuJywgJzgnLCAnLW1hJywgJzUwMCcsICctaW1hZScsICc8aW5maWxlLm1hZT4nLCAnLW9tYWUnLCAnPG91dGZpbGUubWFlPic=

>  <s_epik_input>  (1) 
Tz1DKFtDSDNdKVtDSDJdW0NASF0oW05IXUMoPU8pW09IXSlbQ0gyXWMoW2NIXTEpW2NIXVtjSF1bY0hdYzFbQ0BIXShDKD1PKVtDSDNdKVtDQEhdKFtDQEBIXShbQ0gzXSlbQ0hdKFtDSDNdKVtDSDNdKVtDSDJdW0NIMl1bQ0gyXU4yW0NIMl1bQ0gyXUMoPU8pW0NIMl0y

>  <s_glide_docking_method>  (1) 
confgen

>  <s_i_glide_gridfile>  (1) 
gpcr_5ht2c_6bqh_protein_autoprepared_prepared

>  <s_lp_Force_Field>  (1) 
S-OPLS

>  <s_lp_Variant>  (1) 
DiffSBDD_67-1

>  <s_m_source_file>  (1) 
generated_GPCR_5HT2C_ligand_DiffSBDD_2026-06-23_prepared.sdf

>  <GenAI_Model>  (1) 
DiffSBDD

>  <Protein>  (1) 
GPCR_5HT2C

$$$$
DiffSBDD_84
     RDKit          3D

  0  0  0  0  0  0  0  0  0  0999 V3000
M  V30 BEGIN CTAB
M  V30 COUNTS 77 81 0 0 1
M  V30 BEGIN ATOM
M  V30 1 C 37.537045 30.929248 55.154217 0
M  V30 2 C 42.043354 31.628833 63.532830 0
M  V30 3 C 39.874946 29.387892 61.312239 0
M  V30 4 C 38.953269 24.750992 57.386629 0
M  V30 5 S 40.411030 27.316962 56.932464 0
M  V30 6 C 41.909801 32.839347 67.579090 0
M  V30 7 C 40.964571 31.444663 65.865977 0
M  V30 8 C 35.734014 31.736757 59.939102 0
M  V30 9 O 38.045133 23.737826 57.767733 0
M  V30 10 C 39.509895 31.720222 62.040636 0
M  V30 11 C 40.205311 30.219862 65.394089 0
M  V30 12 C 41.430120 32.390927 64.742379 0 CFG=1
M  V30 13 C 37.868746 30.637656 60.450048 0
M  V30 14 N 37.645180 32.276045 54.567986 0 CHG=1
M  V30 15 C 38.677433 25.336934 55.968159 0
M  V30 16 C 38.481676 29.890626 54.501955 0
M  V30 17 N 41.180455 31.668896 67.106128 0
M  V30 18 C 36.621290 30.656712 59.776382 0
M  V30 19 N 38.716010 29.142037 57.818953 0
M  V30 20 N 40.209564 30.431868 62.119180 0
M  V30 21 C 41.887219 34.017428 66.592565 0
M  V30 22 C 38.195808 31.719701 61.295334 0
M  V30 23 N 39.594756 26.473007 55.684250 0
M  V30 24 C 37.160851 25.626095 55.755358 0
M  V30 25 C 41.329142 30.315935 63.097234 0 CFG=2
M  V30 26 O 40.445418 28.300359 61.400161 0
M  V30 27 C 37.305058 32.801761 61.450315 0
M  V30 28 O 36.445168 24.430545 55.524452 0
M  V30 29 C 42.368942 33.504303 65.241352 0
M  V30 30 C 39.500326 28.849132 56.625325 0 CFG=2
M  V30 31 C 40.985917 29.447483 64.324947 0
M  V30 32 N 39.472014 29.663142 58.895666 0
M  V30 33 N 39.086188 27.415919 54.681295 0 CHG=1
M  V30 34 C 36.076754 32.808850 60.773428 0
M  V30 35 C 38.813728 29.509743 60.190634 0 CFG=1
M  V30 36 C 38.611003 28.630408 55.385580 0 CFG=2
M  V30 37 H 36.503514 30.588672 55.067107 0
M  V30 38 H 37.735686 31.039853 56.219886 0
M  V30 39 H 43.053524 31.336425 63.824165 0
M  V30 40 H 42.186490 32.299940 62.685956 0
M  V30 41 H 38.863905 25.509277 58.165051 0
M  V30 42 H 39.968284 24.354850 57.428292 0
M  V30 43 H 41.483245 33.163882 68.528756 0
M  V30 44 H 42.941039 32.556085 67.795402 0
M  V30 45 H 34.788866 31.741091 59.414790 0
M  V30 46 H 38.444822 23.150426 58.395138 0
M  V30 47 H 39.255248 32.033934 63.047235 0
M  V30 48 H 40.158655 32.477175 61.599838 0
M  V30 49 H 39.245008 30.537879 64.994528 0
M  V30 50 H 36.893277 32.842094 54.967405 0
M  V30 51 H 38.531239 32.692786 54.812126 0
M  V30 52 H 38.951879 24.574668 55.236901 0
M  V30 53 H 39.469688 30.319839 54.326707 0
M  V30 54 H 38.083957 29.624272 53.521810 0
M  V30 55 H 36.349610 29.838366 59.125671 0
M  V30 56 H 38.215184 28.312527 58.133598 0
M  V30 57 H 40.880056 34.428649 66.509528 0
M  V30 58 H 42.530285 34.822509 66.943877 0
M  V30 59 H 36.738048 26.137973 56.620113 0
M  V30 60 H 36.944277 26.233594 54.880088 0
M  V30 61 H 42.104902 29.762124 62.567802 0
M  V30 62 H 37.567733 33.626678 62.094257 0
M  V30 63 H 36.870942 23.929273 54.845901 0
M  V30 64 H 42.423851 34.317250 64.515947 0
M  V30 65 H 43.381380 33.120784 65.367791 0
M  V30 66 H 40.211850 29.654637 56.446629 0
M  V30 67 H 40.445191 28.548395 64.033320 0
M  V30 68 H 41.914355 29.085897 64.769791 0
M  V30 69 H 39.622064 30.654388 58.720250 0
M  V30 70 H 39.869441 27.627914 54.080516 0
M  V30 71 H 35.395806 33.639231 60.895052 0
M  V30 72 H 38.268357 28.564501 60.181350 0
M  V30 73 H 37.617210 28.365652 55.733615 0
M  V30 74 H 38.354098 26.956103 54.158663 0
M  V30 75 H 40.535553 32.915882 64.418517 0
M  V30 76 H 39.987910 29.568265 66.241235 0
M  V30 77 H 37.540873 32.256026 53.562305 0
M  V30 END ATOM
M  V30 BEGIN BOND
M  V30 1 1 9 4
M  V30 2 1 11 7
M  V30 3 1 12 2
M  V30 4 1 12 7
M  V30 5 1 14 1
M  V30 6 1 15 4
M  V30 7 1 16 1
M  V30 8 1 17 6
M  V30 9 2 17 7
M  V30 10 1 18 8
M  V30 11 2 18 13
M  V30 12 1 20 3
M  V30 13 1 20 10
M  V30 14 1 21 6
M  V30 15 1 22 10
M  V30 16 1 22 13
M  V30 17 1 23 5
M  V30 18 1 23 15
M  V30 19 1 24 15
M  V30 20 1 25 2
M  V30 21 1 25 20
M  V30 22 2 26 3
M  V30 23 2 27 22
M  V30 24 1 28 24
M  V30 25 1 29 12
M  V30 26 1 29 21
M  V30 27 1 30 5
M  V30 28 1 30 19
M  V30 29 1 31 11
M  V30 30 1 31 25
M  V30 31 1 32 19
M  V30 32 1 33 23
M  V30 33 2 34 8
M  V30 34 1 34 27
M  V30 35 1 35 3
M  V30 36 1 35 13
M  V30 37 1 35 32
M  V30 38 1 36 16
M  V30 39 1 36 30
M  V30 40 1 36 33
M  V30 41 1 37 1
M  V30 42 1 38 1
M  V30 43 1 39 2
M  V30 44 1 40 2
M  V30 45 1 41 4
M  V30 46 1 42 4
M  V30 47 1 43 6
M  V30 48 1 44 6
M  V30 49 1 45 8
M  V30 50 1 46 9
M  V30 51 1 47 10
M  V30 52 1 48 10
M  V30 53 1 49 11
M  V30 54 1 50 14
M  V30 55 1 51 14
M  V30 56 1 52 15
M  V30 57 1 53 16
M  V30 58 1 54 16
M  V30 59 1 55 18
M  V30 60 1 56 19
M  V30 61 1 57 21
M  V30 62 1 58 21
M  V30 63 1 59 24
M  V30 64 1 60 24
M  V30 65 1 25 61 CFG=3
M  V30 66 1 62 27
M  V30 67 1 63 28
M  V30 68 1 64 29
M  V30 69 1 65 29
M  V30 70 1 30 66 CFG=3
M  V30 71 1 67 31
M  V30 72 1 68 31
M  V30 73 1 69 32
M  V30 74 1 70 33
M  V30 75 1 71 34
M  V30 76 1 35 72 CFG=3
M  V30 77 1 36 73 CFG=1
M  V30 78 1 74 33
M  V30 79 1 12 75 CFG=3
M  V30 80 1 76 11
M  V30 81 1 77 14
M  V30 END BOND
M  V30 END CTAB
M  END
>  <i_epik_Tot_Q>  (1) 
2

>  <i_epik_Tot_abs_Q>  (1) 
2

>  <i_i_glide_confnum>  (1) 
92

>  <i_i_glide_lignum>  (1) 
201

>  <i_i_glide_posenum>  (1) 
381

>  <i_i_glide_rotatable_bonds>  (1) 
11

>  <i_lp_mmshare_version>  (1) 
72125

>  <i_m_source_file_index>  (1) 
85

>  <i_f3d_flags>  (1) 
0

>  <num_sample>  (1) 
100

>  <b_lp_Chiralities_Consistent>  (1) 
1

>  <r_epik_Charging_Adjusted_Penalty>  (1) 
0.034284474231679775

>  <r_epik_Ionization_Penalty>  (1) 
0.42650113434003467

>  <r_epik_Ionization_Penalty_Charging>  (1) 
0.012847136256187231

>  <r_epik_Ionization_Penalty_Neutral>  (1) 
0.41365399808384745

>  <r_epik_State_Penalty>  (1) 
0.021437337975492542

>  <r_glide_ring_energy>  (1) 
0.1194441774127866

>  <r_i_docking_score>  (1) 
-5.5878925744579711

>  <r_i_glide_ecoul>  (1) 
-3.9535619305778997

>  <r_i_glide_eff_state_penalty>  (1) 
0.021437337975492542

>  <r_i_glide_einternal>  (1) 
7.5239849818244338

>  <r_i_glide_emodel>  (1) 
-62.725807836017509

>  <r_i_glide_emodel_strain>  (1) 
9.0692267506039599

>  <r_i_glide_energy>  (1) 
-54.538472421247171

>  <r_i_glide_erotb>  (1) 
0.60855438394346106

>  <r_i_glide_esite>  (1) 
-0.09171332338614048

>  <r_i_glide_evdw>  (1) 
-50.584910490669273

>  <r_i_glide_gscore>  (1) 
-5.6093299124334637

>  <r_i_glide_gscore_strain>  (1) 
1.26730668765099

>  <r_i_glide_hbond>  (1) 
-0.47928390496830087

>  <r_i_glide_ligand_efficiency>  (1) 
-0.1552192381793881

>  <r_i_glide_ligand_efficiency_ln>  (1) 
-1.2191271923358016

>  <r_i_glide_ligand_efficiency_sa>  (1) 
-0.51252263209718685

>  <r_i_glide_lipo>  (1) 
-3.0891474595366573

>  <r_i_glide_metal>  (1) 
-0

>  <r_i_glide_rewards>  (1) 
-0.70276648201666825

>  <r_lp_Energy>  (1) 
46.704704999999997

>  <r_lp_tautomer_probability>  (1) 
0.99998399999999998

>  <s_epik_Chemistry_Notes>  (1) 
This compound has an imine and may undergo hydrolysis. This compound contains an acetal/aminal-like group ( X-CH(R)-Y where X, Y are N, S, or O) that may be acid/base labile, releasing an aldehyde. This compound has a N-S or N-O group and may undergo hydrolysis at high or low pH.

>  <s_epik_cmdline>  (1) 
J2VwaWtfcHl0aG9uJywgJy1waHQnLCAnMS4wJywgJy1waCcsICc3LjQnLCAnLXRuJywgJzgnLCAnLW1hJywgJzUwMCcsICctaW1hZScsICc8aW5maWxlLm1hZT4nLCAnLW9tYWUnLCAnPG91dGZpbGUubWFlPic=

>  <s_epik_input>  (1) 
W09IXVtDSDJdW0NIXShbQ0gyXVtPSF0pTjFTW0NASF0oW0NASF0oW05IXTEpW0NIMl1bQ0gyXVtOSDJdKVtOSF1bTkhdW0NASF0yQyg9TylOKFtDSDJdYyhjMjMpW2NIXVtjSF1bY0hdW2NIXTMpW0NASF0oW0NIMl1bQ0gyXTQpW0NIMl1DKD1DNDUpW0NIMl1bQ0gyXVtDSDJdW05IXTU=

>  <s_glide_docking_method>  (1) 
confgen

>  <s_i_glide_gridfile>  (1) 
gpcr_5ht2c_6bqh_protein_autoprepared_prepared

>  <s_lp_Force_Field>  (1) 
S-OPLS

>  <s_lp_Variant>  (1) 
DiffSBDD_84-4

>  <s_m_source_file>  (1) 
generated_GPCR_5HT2C_ligand_DiffSBDD_2026-06-23_prepared.sdf

>  <GenAI_Model>  (1) 
DiffSBDD

>  <Protein>  (1) 
GPCR_5HT2C

$$$$
DiffSBDD_86
     RDKit          3D

  0  0  0  0  0  0  0  0  0  0999 V3000
M  V30 BEGIN CTAB
M  V30 COUNTS 77 79 0 0 1
M  V30 BEGIN ATOM
M  V30 1 C 41.050911 34.070922 66.326181 0
M  V30 2 C 39.975579 29.193439 51.356245 0
M  V30 3 C 38.797242 34.060612 60.835690 0 CFG=2
M  V30 4 C 40.004836 30.280660 50.271432 0
M  V30 5 N 39.513351 33.006321 61.616763 0
M  V30 6 C 40.401875 28.009985 56.654624 0
M  V30 7 N 41.428759 33.111879 65.380465 0
M  V30 8 C 37.910249 31.898385 57.654247 0
M  V30 9 O 36.024891 34.798446 59.367974 0
M  V30 10 O 37.645106 29.337764 59.641902 0
M  V30 11 C 38.323393 29.438250 57.364330 0 CFG=2
M  V30 12 C 38.766396 32.621458 58.703691 0
M  V30 13 C 38.844070 31.978195 62.210825 0
M  V30 14 N 38.660359 30.831611 56.898690 0 CFG=1 CHG=1
M  V30 15 C 38.623780 29.326388 58.873492 0
M  V30 16 C 40.846495 33.901245 67.727080 0
M  V30 17 C 40.241609 36.261533 67.963273 0
M  V30 18 O 37.593091 31.953727 62.167654 0
M  V30 19 C 40.998311 33.088116 61.636575 0
M  V30 20 C 40.445380 36.455084 66.589600 0
M  V30 21 C 38.016055 35.030756 61.742407 0
M  V30 22 S 41.167113 35.337751 64.051442 0
M  V30 23 O 39.824071 29.262516 59.218892 0 CHG=-1
M  V30 24 C 38.550762 31.019741 55.420398 0
M  V30 25 C 37.934374 33.486932 59.663870 0 CFG=2
M  V30 26 C 38.095525 26.934051 56.664389 0
M  V30 27 O 37.375146 34.537831 58.892611 0
M  V30 28 N 39.347304 29.631285 52.625959 0 CHG=1
M  V30 29 C 41.794667 32.773667 62.936228 0
M  V30 30 C 40.845135 35.377062 65.784572 0
M  V30 31 O 41.038250 32.676485 68.302225 0 CHG=-1
M  V30 32 C 39.913148 30.896296 54.714639 0
M  V30 33 C 41.473207 33.606330 64.137448 0
M  V30 34 C 38.151686 27.656635 55.353709 0
M  V30 35 C 38.893044 28.226494 56.558192 0
M  V30 36 O 39.490162 31.080451 62.788139 0 CHG=-1
M  V30 37 C 40.443259 34.989911 68.531629 0
M  V30 38 C 39.845809 30.910968 53.181573 0
M  V30 39 H 40.990925 28.848169 51.551248 0
M  V30 40 H 39.418462 28.329265 50.991559 0
M  V30 41 H 39.550732 34.679096 60.348032 0
M  V30 42 H 40.265148 29.844141 49.307278 0
M  V30 43 H 39.038240 30.770493 50.167581 0
M  V30 44 H 40.745833 31.051929 50.484792 0
M  V30 45 H 40.796853 27.559037 55.745744 0
M  V30 46 H 40.928701 28.937751 56.842485 0
M  V30 47 H 40.631991 27.334659 57.480278 0
M  V30 48 H 37.049775 31.467410 58.167783 0
M  V30 49 H 37.495734 32.665440 57.002415 0
M  V30 50 H 36.195556 35.402148 60.073864 0
M  V30 51 H 37.238210 29.367977 57.253425 0
M  V30 52 H 39.548659 33.216125 58.230185 0
M  V30 53 H 39.245131 31.869679 59.314847 0
M  V30 54 H 39.932966 37.088515 68.586268 0
M  V30 55 H 41.360357 32.424604 60.854021 0
M  V30 56 H 41.305169 34.095358 61.361337 0
M  V30 57 H 40.294863 37.429730 66.151491 0
M  V30 58 H 37.754681 35.940713 61.203953 0
M  V30 59 H 37.084963 34.589318 62.095597 0
M  V30 60 H 38.608857 35.336440 62.603001 0
M  V30 61 H 37.814247 30.334102 55.006346 0
M  V30 62 H 38.167942 32.008382 55.164269 0
M  V30 63 H 37.122084 32.862763 60.036439 0
M  V30 64 H 38.647612 25.999336 56.741321 0
M  V30 65 H 37.168753 26.958743 57.232798 0
M  V30 66 H 39.512848 28.902009 53.305036 0
M  V30 67 H 41.743245 31.720467 63.207109 0
M  V30 68 H 42.845146 32.937686 62.714850 0
M  V30 69 H 40.536280 31.727780 55.044608 0
M  V30 70 H 40.445483 30.001479 55.012873 0
M  V30 71 H 37.245279 28.149141 55.011284 0
M  V30 72 H 38.738152 27.189078 54.565989 0
M  V30 73 H 40.288685 34.845597 69.591030 0
M  V30 74 H 39.244915 31.737639 52.813863 0
M  V30 75 H 40.845134 31.095895 52.805880 0
M  V30 76 H 38.349790 29.705567 52.488711 0
M  V30 77 H 39.628150 30.963978 57.150397 0
M  V30 END ATOM
M  V30 BEGIN BOND
M  V30 1 1 4 2
M  V30 2 1 5 3
M  V30 3 1 7 1
M  V30 4 1 12 8
M  V30 5 1 13 5
M  V30 6 1 14 8
M  V30 7 1 14 11
M  V30 8 2 15 10
M  V30 9 1 15 11
M  V30 10 2 16 1
M  V30 11 2 18 13
M  V30 12 1 19 5
M  V30 13 1 20 17
M  V30 14 1 21 3
M  V30 15 1 23 15
M  V30 16 1 24 14
M  V30 17 1 25 3
M  V30 18 1 25 12
M  V30 19 1 27 9
M  V30 20 1 27 25
M  V30 21 1 28 2
M  V30 22 1 29 19
M  V30 23 1 30 1
M  V30 24 2 30 20
M  V30 25 1 30 22
M  V30 26 1 31 16
M  V30 27 1 32 24
M  V30 28 2 33 7
M  V30 29 1 33 22
M  V30 30 1 33 29
M  V30 31 1 34 26
M  V30 32 1 35 6
M  V30 33 1 35 11
M  V30 34 1 35 26
M  V30 35 1 35 34
M  V30 36 1 36 13
M  V30 37 1 37 16
M  V30 38 2 37 17
M  V30 39 1 38 28
M  V30 40 1 38 32
M  V30 41 1 39 2
M  V30 42 1 40 2
M  V30 43 1 3 41 CFG=3
M  V30 44 1 42 4
M  V30 45 1 43 4
M  V30 46 1 44 4
M  V30 47 1 45 6
M  V30 48 1 46 6
M  V30 49 1 47 6
M  V30 50 1 48 8
M  V30 51 1 49 8
M  V30 52 1 50 9
M  V30 53 1 11 51 CFG=1
M  V30 54 1 52 12
M  V30 55 1 53 12
M  V30 56 1 54 17
M  V30 57 1 55 19
M  V30 58 1 56 19
M  V30 59 1 57 20
M  V30 60 1 58 21
M  V30 61 1 59 21
M  V30 62 1 60 21
M  V30 63 1 61 24
M  V30 64 1 62 24
M  V30 65 1 25 63 CFG=1
M  V30 66 1 64 26
M  V30 67 1 65 26
M  V30 68 1 66 28
M  V30 69 1 67 29
M  V30 70 1 68 29
M  V30 71 1 69 32
M  V30 72 1 70 32
M  V30 73 1 71 34
M  V30 74 1 72 34
M  V30 75 1 73 37
M  V30 76 1 74 38
M  V30 77 1 75 38
M  V30 78 1 76 28
M  V30 79 1 14 77 CFG=1
M  V30 END BOND
M  V30 END CTAB
M  END
>  <i_epik_Tot_Q>  (1) 
-1

>  <i_epik_Tot_abs_Q>  (1) 
5

>  <i_i_glide_confnum>  (1) 
6719

>  <i_i_glide_lignum>  (1) 
207

>  <i_i_glide_posenum>  (1) 
181

>  <i_i_glide_rotatable_bonds>  (1) 
19

>  <i_lp_mmshare_version>  (1) 
72125

>  <i_m_source_file_index>  (1) 
87

>  <i_f3d_flags>  (1) 
0

>  <num_sample>  (1) 
100

>  <b_lp_Chiralities_Consistent>  (1) 
1

>  <r_epik_Charging_Adjusted_Penalty>  (1) 
1.7068457012274814

>  <r_epik_Ionization_Penalty>  (1) 
0.85572285372979207

>  <r_epik_Ionization_Penalty_Charging>  (1) 
0.8536556191236474

>  <r_epik_Ionization_Penalty_Neutral>  (1) 
0.0020672346061446629

>  <r_epik_State_Penalty>  (1) 
0.85319008210383396

>  <r_glide_ring_energy>  (1) 
0

>  <r_i_docking_score>  (1) 
-5.5866048355751561

>  <r_i_glide_ecoul>  (1) 
-2.0972290205483528

>  <r_i_glide_eff_state_penalty>  (1) 
0.85319008210383396

>  <r_i_glide_einternal>  (1) 
20.001299095264379

>  <r_i_glide_emodel>  (1) 
-58.683882456150599

>  <r_i_glide_emodel_strain>  (1) 
4.4194901685115582

>  <r_i_glide_energy>  (1) 
-48.026714579273126

>  <r_i_glide_erotb>  (1) 
0.88358493265308913

>  <r_i_glide_esite>  (1) 
-0.083754033410477366

>  <r_i_glide_evdw>  (1) 
-45.929485558724771

>  <r_i_glide_gscore>  (1) 
-6.4397949176789897

>  <r_i_glide_gscore_strain>  (1) 
0.10487254212788955

>  <r_i_glide_hbond>  (1) 
-0.10377033278712955

>  <r_i_glide_ligand_efficiency>  (1) 
-0.147015916725662

>  <r_i_glide_ligand_efficiency_ln>  (1) 
-1.20463634381399

>  <r_i_glide_ligand_efficiency_sa>  (1) 
-0.49426389643968011

>  <r_i_glide_lipo>  (1) 
-3.7836772861528689

>  <r_i_glide_metal>  (1) 
-0

>  <r_i_glide_rewards>  (1) 
-0.84599210909099942

>  <r_lp_Energy>  (1) 
30.418627999999998

>  <s_epik_cmdline>  (1) 
J2VwaWtfcHl0aG9uJywgJy1waHQnLCAnMS4wJywgJy1waCcsICc3LjQnLCAnLXRuJywgJzgnLCAnLW1hJywgJzUwMCcsICctaW1hZScsICc8aW5maWxlLm1hZT4nLCAnLW9tYWUnLCAnPG91dGZpbGUubWFlPic=

>  <s_epik_input>  (1) 
W09IXWMxW2NIXVtjSF1bY0hdYyhjMTIpc2MobjIpW0NIMl1bQ0gyXU4oQyg9TylbT0hdKVtDQEhdKFtDSDNdKVtDQEBIXShPW09IXSlbQ0gyXVtDSDJdTihbQ0BIXShDKD1PKVtPSF0pQzMoW0NIM10pW0NIMl1bQ0gyXTMpW0NIMl1bQ0gyXVtDSDJdW05IXVtDSDJdW0NIM10=

>  <s_glide_docking_method>  (1) 
confgen

>  <s_i_glide_gridfile>  (1) 
gpcr_5ht2c_6bqh_protein_autoprepared_prepared

>  <s_lp_Force_Field>  (1) 
S-OPLS

>  <s_lp_Variant>  (1) 
DiffSBDD_86-4

>  <s_m_source_file>  (1) 
generated_GPCR_5HT2C_ligand_DiffSBDD_2026-06-23_prepared.sdf

>  <GenAI_Model>  (1) 
DiffSBDD

>  <Protein>  (1) 
GPCR_5HT2C

$$$$
DiffSBDD_80
     RDKit          3D

  0  0  0  0  0  0  0  0  0  0999 V3000
M  V30 BEGIN CTAB
M  V30 COUNTS 52 52 0 0 1
M  V30 BEGIN ATOM
M  V30 1 O 42.747529 27.966731 63.804367 0
M  V30 2 C 42.476945 29.354266 63.760399 0
M  V30 3 C 39.214989 28.755325 51.795561 0
M  V30 4 C 38.045257 26.937743 52.967795 0
M  V30 5 C 38.178301 29.576587 57.897319 0
M  V30 6 C 37.201389 31.235414 59.478713 0
M  V30 7 O 39.011494 29.647862 60.966969 0
M  V30 8 C 38.281204 31.015811 58.380612 0 CFG=2
M  V30 9 C 39.532258 30.274439 54.144726 0
M  V30 10 N 37.759699 31.532185 60.804686 0
M  V30 11 O 44.191228 27.798261 63.767761 0
M  V30 12 C 39.850300 29.992618 51.741009 0
M  V30 13 O 37.569706 26.340555 53.925195 0
M  V30 14 C 38.732454 28.247822 53.016615 0
M  V30 15 C 39.997765 30.759682 52.905676 0
M  V30 16 C 38.403996 29.202137 56.660513 0
M  V30 17 C 38.906637 29.004023 54.232013 0
M  V30 18 C 38.464210 28.478795 55.569552 0
M  V30 19 C 38.608778 30.704733 61.448538 0
M  V30 20 Cl 40.445276 30.576234 50.234820 0
M  V30 21 C 40.974420 29.554166 63.512411 0
M  V30 22 C 40.934655 31.974501 64.301304 0
M  V30 23 C 38.331014 32.069875 57.247268 0
M  V30 24 C 40.565372 31.006062 63.162107 0 CFG=2
M  V30 25 C 39.054542 31.135926 62.846805 0
M  V30 26 C 38.164356 33.517676 57.696302 0
M  V30 27 H 42.785252 29.811128 64.701690 0
M  V30 28 H 43.054140 29.826236 62.967808 0
M  V30 29 H 39.091590 28.180464 50.887451 0
M  V30 30 H 37.987262 26.537758 51.963206 0
M  V30 31 H 37.898490 28.846455 58.643305 0
M  V30 32 H 36.553644 30.363078 59.582784 0
M  V30 33 H 36.512153 32.032303 59.207182 0
M  V30 34 H 39.245148 31.078204 58.863796 0
M  V30 35 H 39.672321 30.869041 55.029683 0
M  V30 36 H 37.473124 32.389263 61.253753 0
M  V30 37 H 44.334317 27.737738 62.828315 0
M  V30 38 H 40.474965 31.721421 52.851812 0
M  V30 39 H 38.194350 27.454464 55.627651 0
M  V30 40 H 40.676362 28.886179 62.704726 0
M  V30 41 H 40.430759 29.214385 64.394263 0
M  V30 42 H 40.448202 31.685248 65.233770 0
M  V30 43 H 42.009486 32.001680 64.477990 0
M  V30 44 H 40.627850 32.995123 64.072253 0
M  V30 45 H 39.310376 32.002687 56.777819 0
M  V30 46 H 37.609044 31.858373 56.461719 0
M  V30 47 H 41.123444 31.316016 62.276802 0
M  V30 48 H 38.485459 30.537752 63.561171 0
M  V30 49 H 38.749820 32.175666 62.967749 0
M  V30 50 H 38.394486 34.177705 56.862667 0
M  V30 51 H 37.143800 33.741990 58.001983 0
M  V30 52 H 38.836639 33.737818 58.523994 0
M  V30 END ATOM
M  V30 BEGIN BOND
M  V30 1 1 2 1
M  V30 2 1 8 5
M  V30 3 1 8 6
M  V30 4 1 10 6
M  V30 5 1 11 1
M  V30 6 2 12 3
M  V30 7 2 13 4
M  V30 8 1 14 3
M  V30 9 1 14 4
M  V30 10 2 15 9
M  V30 11 1 15 12
M  V30 12 2 16 5
M  V30 13 1 17 9
M  V30 14 2 17 14
M  V30 15 2 18 16
M  V30 16 1 18 17
M  V30 17 2 19 7
M  V30 18 1 19 10
M  V30 19 1 20 12
M  V30 20 1 21 2
M  V30 21 1 23 8
M  V30 22 1 24 21
M  V30 23 1 24 22
M  V30 24 1 25 19
M  V30 25 1 25 24
M  V30 26 1 26 23
M  V30 27 1 27 2
M  V30 28 1 28 2
M  V30 29 1 29 3
M  V30 30 1 30 4
M  V30 31 1 31 5
M  V30 32 1 32 6
M  V30 33 1 33 6
M  V30 34 1 8 34 CFG=1
M  V30 35 1 35 9
M  V30 36 1 36 10
M  V30 37 1 37 11
M  V30 38 1 38 15
M  V30 39 1 39 18
M  V30 40 1 40 21
M  V30 41 1 41 21
M  V30 42 1 42 22
M  V30 43 1 43 22
M  V30 44 1 44 22
M  V30 45 1 45 23
M  V30 46 1 46 23
M  V30 47 1 24 47 CFG=3
M  V30 48 1 48 25
M  V30 49 1 49 25
M  V30 50 1 50 26
M  V30 51 1 51 26
M  V30 52 1 52 26
M  V30 END BOND
M  V30 END CTAB
M  END
>  <i_epik_Tot_Q>  (1) 
0

>  <i_epik_Tot_abs_Q>  (1) 
0

>  <i_i_glide_confnum>  (1) 
38

>  <i_i_glide_lignum>  (1) 
186

>  <i_i_glide_posenum>  (1) 
370

>  <i_i_glide_rotatable_bonds>  (1) 
13

>  <i_lp_mmshare_version>  (1) 
72125

>  <i_m_source_file_index>  (1) 
81

>  <i_f3d_flags>  (1) 
0

>  <num_sample>  (1) 
100

>  <b_lp_Chiralities_Consistent>  (1) 
1

>  <r_epik_Charging_Adjusted_Penalty>  (1) 
0

>  <r_epik_Ionization_Penalty>  (1) 
8.3445448322163385e-06

>  <r_epik_Ionization_Penalty_Charging>  (1) 
0

>  <r_epik_Ionization_Penalty_Neutral>  (1) 
8.3445448322163385e-06

>  <r_epik_State_Penalty>  (1) 
-0

>  <r_glide_ring_energy>  (1) 
0

>  <r_i_docking_score>  (1) 
-5.5849815590536513

>  <r_i_glide_ecoul>  (1) 
-4.1343862370124338

>  <r_i_glide_eff_state_penalty>  (1) 
-0

>  <r_i_glide_einternal>  (1) 
21.186478138965494

>  <r_i_glide_emodel>  (1) 
-43.355959335409651

>  <r_i_glide_emodel_strain>  (1) 
1.3479310373606985

>  <r_i_glide_energy>  (1) 
-39.574785755532062

>  <r_i_glide_erotb>  (1) 
1.3439143837633358

>  <r_i_glide_esite>  (1) 
-0.00062427553155326525

>  <r_i_glide_evdw>  (1) 
-35.440399518519627

>  <r_i_glide_gscore>  (1) 
-5.5849815590536513

>  <r_i_glide_gscore_strain>  (1) 
0

>  <r_i_glide_hbond>  (1) 
-0.32000000000000001

>  <r_i_glide_ligand_efficiency>  (1) 
-0.21480698304052506

>  <r_i_glide_ligand_efficiency_ln>  (1) 
-1.3116145933245338

>  <r_i_glide_ligand_efficiency_sa>  (1) 
-0.63636484272400429

>  <r_i_glide_lipo>  (1) 
-2.5721899155136794

>  <r_i_glide_metal>  (1) 
-0

>  <r_i_glide_rewards>  (1) 
-1.643903840293907

>  <r_lp_Energy>  (1) 
-6.8237489999999994

>  <r_lp_tautomer_probability>  (1) 
1

>  <s_epik_cmdline>  (1) 
J2VwaWtfcHl0aG9uJywgJy1waHQnLCAnMS4wJywgJy1waCcsICc3LjQnLCAnLXRuJywgJzgnLCAnLW1hJywgJzUwMCcsICctaW1hZScsICc8aW5maWxlLm1hZT4nLCAnLW9tYWUnLCAnPG91dGZpbGUubWFlPic=

>  <s_epik_input>  (1) 
W09IXU9bQ0gyXVtDSDJdW0NASF0oW0NIM10pW0NIMl1DKD1PKVtOSF1bQ0gyXVtDQEhdKFtDSDJdW0NIM10pW0NIXT1DPVtDSF1jKFtjSF1bY0hdMSljKFtDSF09TylbY0hdYzFDbA==

>  <s_glide_docking_method>  (1) 
confgen

>  <s_i_glide_gridfile>  (1) 
gpcr_5ht2c_6bqh_protein_autoprepared_prepared

>  <s_lp_Force_Field>  (1) 
S-OPLS

>  <s_lp_Variant>  (1) 
DiffSBDD_80-1

>  <s_m_source_file>  (1) 
generated_GPCR_5HT2C_ligand_DiffSBDD_2026-06-23_prepared.sdf

>  <GenAI_Model>  (1) 
DiffSBDD

>  <Protein>  (1) 
GPCR_5HT2C

$$$$
DiffSBDD_18
     RDKit          3D

  0  0  0  0  0  0  0  0  0  0999 V3000
M  V30 BEGIN CTAB
M  V30 COUNTS 77 79 0 0 1
M  V30 BEGIN ATOM
M  V30 1 C 35.390102 33.186284 61.689128 0
M  V30 2 C 39.172855 28.722303 53.419055 0 CFG=2
M  V30 3 C 40.246187 31.715669 63.472305 0
M  V30 4 C 40.436688 33.069769 63.157753 0
M  V30 5 C 38.452694 31.592652 61.825805 0
M  V30 6 O 37.339177 26.029852 56.142744 0
M  V30 7 C 37.561994 33.919673 57.449189 0
M  V30 8 C 40.343980 27.996919 56.810138 0
M  V30 9 C 37.318491 29.716684 56.909765 0
M  V30 10 C 41.438204 35.162733 64.119705 0
M  V30 11 C 37.609465 26.537540 55.031573 0
M  V30 12 C 39.251807 30.978599 62.809364 0
M  V30 13 C 37.642677 31.680460 58.491726 0
M  V30 14 C 40.045091 28.723577 55.763963 0
M  V30 15 C 40.330665 26.484507 56.780867 0
M  V30 16 C 38.303953 33.820870 56.105019 0
M  V30 17 C 35.780021 33.660244 60.301507 0
M  V30 18 C 37.781628 30.781475 55.932738 0 CFG=2
M  V30 19 C 39.413667 27.180503 53.279309 0
M  V30 20 C 39.781658 29.511496 52.247695 0
M  V30 21 C 40.100221 25.769670 55.420725 0
M  V30 22 C 40.290609 36.036142 63.678585 0
M  V30 23 C 39.433078 29.365864 54.790369 0
M  V30 24 C 37.996169 35.619450 60.228039 0
M  V30 25 C 38.976687 26.230533 54.436196 0 CFG=1
M  V30 26 N 42.445155 35.737758 64.788392 0 CHG=1
M  V30 27 C 39.669758 33.683909 62.140362 0
M  V30 28 P 37.653357 33.767990 60.109223 0 CFG=1 CHG=1
M  V30 29 N 38.863396 30.609708 54.961697 0
M  V30 30 O 36.849867 27.264816 54.353949 0 CHG=-1
M  V30 31 C 38.207622 30.849710 57.382623 0 CFG=2
M  V30 32 C 38.664699 32.949118 61.466889 0
M  V30 33 N 38.100271 33.089886 58.547530 0 CFG=2 CHG=1
M  V30 34 N 41.481714 33.803450 63.894927 0
M  V30 35 H 34.326403 33.337891 61.867720 0
M  V30 36 H 35.595664 32.121111 61.784613 0
M  V30 37 H 35.940825 33.738374 62.447909 0
M  V30 38 H 38.109758 28.891834 53.258629 0
M  V30 39 H 40.850244 31.244367 64.234262 0
M  V30 40 H 37.683536 31.016352 61.338073 0
M  V30 41 H 36.492413 33.737756 57.367382 0
M  V30 42 H 37.645121 34.957151 57.736518 0
M  V30 43 H 40.481005 28.452040 57.779366 0
M  V30 44 H 36.269039 29.737769 57.191743 0
M  V30 45 H 37.724967 28.713361 56.904804 0
M  V30 46 H 39.093975 29.940173 63.059523 0
M  V30 47 H 36.563785 31.580483 58.567753 0
M  V30 48 H 38.024212 31.167716 59.359385 0
M  V30 49 H 41.245135 26.137861 57.250531 0
M  V30 50 H 39.538316 26.179893 57.464726 0
M  V30 51 H 38.467004 34.818179 55.700046 0
M  V30 52 H 39.272878 33.326300 56.178419 0
M  V30 53 H 37.704990 33.323239 55.346884 0
M  V30 54 H 35.355087 34.648799 60.133168 0
M  V30 55 H 35.312029 33.023655 59.552649 0
M  V30 56 H 36.981416 31.389616 55.523931 0
M  V30 57 H 38.861146 26.875259 52.388510 0
M  V30 58 H 40.444234 26.937707 53.019475 0
M  V30 59 H 39.631007 30.586504 52.343658 0
M  V30 60 H 40.845189 29.337777 52.163571 0
M  V30 61 H 39.332749 29.204148 51.302358 0
M  V30 62 H 39.908541 24.724033 55.661403 0
M  V30 63 H 41.042246 25.749251 54.878691 0
M  V30 64 H 40.467021 36.456588 62.688259 0
M  V30 65 H 39.314661 35.565206 63.766372 0
M  V30 66 H 40.225087 36.896875 64.344491 0
M  V30 67 H 37.651088 35.994182 61.192007 0
M  V30 68 H 39.057478 35.853535 60.167761 0
M  V30 69 H 37.468108 36.203862 59.475316 0
M  V30 70 H 38.668274 25.337763 53.939445 0
M  V30 71 H 42.427000 36.746492 64.967681 0
M  V30 72 H 39.850665 34.694016 61.855899 0
M  V30 73 H 38.562448 30.994491 54.077586 0
M  V30 74 H 39.253409 30.611855 57.559656 0
M  V30 75 H 42.181921 33.287720 64.409111 0
M  V30 76 H 43.230364 35.188979 65.102910 0
M  V30 77 H 39.106218 33.097685 58.477481 0
M  V30 END ATOM
M  V30 BEGIN BOND
M  V30 1 1 4 3
M  V30 2 2 11 6
M  V30 3 2 12 3
M  V30 4 1 12 5
M  V30 5 2 14 8
M  V30 6 1 15 8
M  V30 7 1 16 7
M  V30 8 1 17 1
M  V30 9 1 18 9
M  V30 10 1 19 2
M  V30 11 1 20 2
M  V30 12 1 21 15
M  V30 13 1 22 10
M  V30 14 1 23 2
M  V30 15 2 23 14
M  V30 16 1 25 11
M  V30 17 1 25 19
M  V30 18 1 25 21
M  V30 19 2 26 10
M  V30 20 2 27 4
M  V30 21 1 28 17 CFG=1
M  V30 22 1 28 24
M  V30 23 1 29 18
M  V30 24 1 29 23
M  V30 25 1 30 11
M  V30 26 1 31 9
M  V30 27 1 31 13
M  V30 28 1 31 18
M  V30 29 2 32 5
M  V30 30 1 32 27
M  V30 31 1 32 28
M  V30 32 1 33 7
M  V30 33 1 33 13
M  V30 34 1 33 28
M  V30 35 1 34 4
M  V30 36 1 34 10
M  V30 37 1 35 1
M  V30 38 1 36 1
M  V30 39 1 37 1
M  V30 40 1 2 38 CFG=3
M  V30 41 1 39 3
M  V30 42 1 40 5
M  V30 43 1 41 7
M  V30 44 1 42 7
M  V30 45 1 43 8
M  V30 46 1 44 9
M  V30 47 1 45 9
M  V30 48 1 46 12
M  V30 49 1 47 13
M  V30 50 1 48 13
M  V30 51 1 49 15
M  V30 52 1 50 15
M  V30 53 1 51 16
M  V30 54 1 52 16
M  V30 55 1 53 16
M  V30 56 1 54 17
M  V30 57 1 55 17
M  V30 58 1 18 56 CFG=3
M  V30 59 1 57 19
M  V30 60 1 58 19
M  V30 61 1 59 20
M  V30 62 1 60 20
M  V30 63 1 61 20
M  V30 64 1 62 21
M  V30 65 1 63 21
M  V30 66 1 64 22
M  V30 67 1 65 22
M  V30 68 1 66 22
M  V30 69 1 67 24
M  V30 70 1 68 24
M  V30 71 1 69 24
M  V30 72 1 25 70 CFG=3
M  V30 73 1 71 26
M  V30 74 1 72 27
M  V30 75 1 73 29
M  V30 76 1 31 74 CFG=3
M  V30 77 1 75 34
M  V30 78 1 76 26
M  V30 79 1 33 77 CFG=1
M  V30 END BOND
M  V30 END CTAB
M  END
>  <i_epik_Tot_Q>  (1) 
2

>  <i_epik_Tot_abs_Q>  (1) 
4

>  <i_i_glide_confnum>  (1) 
59

>  <i_i_glide_lignum>  (1) 
45

>  <i_i_glide_posenum>  (1) 
73

>  <i_i_glide_rotatable_bonds>  (1) 
11

>  <i_lp_mmshare_version>  (1) 
72125

>  <i_m_source_file_index>  (1) 
19

>  <i_f3d_flags>  (1) 
0

>  <num_sample>  (1) 
100

>  <b_lp_Chiralities_Consistent>  (1) 
1

>  <r_epik_Charging_Adjusted_Penalty>  (1) 
0.035732071636325656

>  <r_epik_Ionization_Penalty>  (1) 
0.019213783482484162

>  <r_epik_Ionization_Penalty_Charging>  (1) 
0.019186760244236628

>  <r_epik_Ionization_Penalty_Neutral>  (1) 
2.7023238247534635e-05

>  <r_epik_State_Penalty>  (1) 
0.016545311392089028

>  <r_glide_ring_energy>  (1) 
0

>  <r_i_docking_score>  (1) 
-5.5826290125329452

>  <r_i_glide_ecoul>  (1) 
-9.4208386989091757

>  <r_i_glide_eff_state_penalty>  (1) 
0.016545311392089028

>  <r_i_glide_einternal>  (1) 
26.560372033178659

>  <r_i_glide_emodel>  (1) 
-35.503534475829611

>  <r_i_glide_emodel_strain>  (1) 
8.0238972315845274

>  <r_i_glide_energy>  (1) 
-39.427431475195306

>  <r_i_glide_erotb>  (1) 
0.68654883804919686

>  <r_i_glide_esite>  (1) 
-0.084341499393487701

>  <r_i_glide_evdw>  (1) 
-30.006592776286134

>  <r_i_glide_gscore>  (1) 
-5.599174323925034

>  <r_i_glide_gscore_strain>  (1) 
1.0059743078961318

>  <r_i_glide_hbond>  (1) 
0

>  <r_i_glide_ligand_efficiency>  (1) 
-0.16419497095685132

>  <r_i_glide_ligand_efficiency_ln>  (1) 
-1.233359336308359

>  <r_i_glide_ligand_efficiency_sa>  (1) 
-0.53192796562222922

>  <r_i_glide_lipo>  (1) 
-3.0804002079538053

>  <r_i_glide_metal>  (1) 
-0

>  <r_i_glide_rewards>  (1) 
-1.2135003188723856

>  <r_lp_Energy>  (1) 
40.287763999999996

>  <s_epik_Chemistry_Notes>  (1) 
This compound has an imine and may undergo hydrolysis.

>  <s_epik_cmdline>  (1) 
J2VwaWtfcHl0aG9uJywgJy1waHQnLCAnMS4wJywgJy1waCcsICc3LjQnLCAnLXRuJywgJzgnLCAnLW1hJywgJzUwMCcsICctaW1hZScsICc8aW5maWxlLm1hZT4nLCAnLW9tYWUnLCAnPG91dGZpbGUubWFlPic=

>  <s_epik_input>  (1) 
W0hdL049QyhcW0NIM10pW05IXWMxW2NIXVtjSF1bY0hdYyhbY0hdMSlbUEBAK10oW0NIM10pKFtDSDJdW0NIM10pTihbQ0gyXVtDSDNdKVtDSDJdW0NASF0yW0NIMl1bQ0BASF0yW05IXUMzPUM9W0NIXVtDSDJdW0NIMl1bQ0BASF0oQyg9TylbT0hdKVtDSDJdW0NAQEhdM1tDSDNd

>  <s_glide_docking_method>  (1) 
confgen

>  <s_i_glide_gridfile>  (1) 
gpcr_5ht2c_6bqh_protein_autoprepared_prepared

>  <s_lp_Force_Field>  (1) 
S-OPLS

>  <s_lp_Variant>  (1) 
DiffSBDD_18-4

>  <s_m_source_file>  (1) 
generated_GPCR_5HT2C_ligand_DiffSBDD_2026-06-23_prepared.sdf

>  <GenAI_Model>  (1) 
DiffSBDD

>  <Protein>  (1) 
GPCR_5HT2C

$$$$
DiffSBDD_54
     RDKit          3D

  0  0  0  0  0  0  0  0  0  0999 V3000
M  V30 BEGIN CTAB
M  V30 COUNTS 42 43 0 0 1
M  V30 BEGIN ATOM
M  V30 1 C 39.653358 30.590791 54.631507 0
M  V30 2 C 38.538106 26.028953 56.207125 0
M  V30 3 C 40.477166 27.590838 56.748195 0
M  V30 4 C 40.970343 30.137858 49.725554 0
M  V30 5 C 39.772632 29.739301 51.890546 0
M  V30 6 S 38.074240 28.560791 55.471558 0 CHG=1
M  V30 7 C 38.903143 30.415724 57.005450 0
M  V30 8 N 37.888928 25.247636 55.365671 0
M  V30 9 C 37.743166 28.201010 52.271666 0
M  V30 10 C 37.346745 24.358478 56.281206 0
M  V30 11 N 37.666431 24.579893 57.572746 0
M  V30 12 N 38.432935 25.675417 57.467856 0
M  V30 13 N 38.675163 29.568669 54.172903 0 CFG=2 CHG=1
M  V30 14 C 39.000373 28.843088 52.894030 0 CFG=2
M  V30 15 C 39.093749 31.359690 55.822932 0
M  V30 16 C 40.099043 29.152810 50.516785 0
M  V30 17 O 37.966643 29.373407 56.730440 0
M  V30 18 C 39.323348 27.239495 55.790790 0 CFG=2
M  V30 19 H 39.833170 31.335004 53.857765 0
M  V30 20 H 40.616636 30.138365 54.866184 0
M  V30 21 H 41.154722 26.742580 56.855693 0
M  V30 22 H 40.123318 27.843840 57.747579 0
M  V30 23 H 41.074450 28.419760 56.370505 0
M  V30 24 H 41.245603 29.734895 48.753374 0
M  V30 25 H 41.894973 30.377553 50.252070 0
M  V30 26 H 40.443970 31.078962 49.555088 0
M  V30 27 H 40.735149 30.001408 52.325029 0
M  V30 28 H 39.245171 30.675342 51.735375 0
M  V30 29 H 39.867148 30.040007 57.337827 0
M  V30 30 H 38.509543 30.983472 57.848627 0
M  V30 31 H 37.998457 27.606461 51.392766 0
M  V30 32 H 37.009746 28.938374 51.962669 0
M  V30 33 H 37.246763 27.510888 52.953723 0
M  V30 34 H 36.711894 23.533423 55.988860 0
M  V30 35 H 38.847032 26.133438 58.269413 0
M  V30 36 H 39.645239 28.007361 53.106844 0
M  V30 37 H 39.777598 32.164060 56.095461 0
M  V30 38 H 38.145048 31.833926 55.562673 0
M  V30 39 H 40.607059 28.196530 50.632953 0
M  V30 40 H 39.189519 28.953557 49.952867 0
M  V30 41 H 39.788187 26.946412 54.855369 0
M  V30 42 H 37.897776 30.150668 53.896285 0
M  V30 END ATOM
M  V30 BEGIN BOND
M  V30 1 2 8 2
M  V30 2 1 10 8
M  V30 3 2 11 10
M  V30 4 1 12 2
M  V30 5 1 12 11
M  V30 6 1 13 1
M  V30 7 1 13 6
M  V30 8 1 14 5
M  V30 9 1 14 9
M  V30 10 1 14 13
M  V30 11 1 15 1
M  V30 12 1 15 7
M  V30 13 1 16 4
M  V30 14 1 16 5
M  V30 15 1 6 17 CFG=1
M  V30 16 1 17 7
M  V30 17 1 18 2
M  V30 18 1 18 3
M  V30 19 1 18 6
M  V30 20 1 19 1
M  V30 21 1 20 1
M  V30 22 1 21 3
M  V30 23 1 22 3
M  V30 24 1 23 3
M  V30 25 1 24 4
M  V30 26 1 25 4
M  V30 27 1 26 4
M  V30 28 1 27 5
M  V30 29 1 28 5
M  V30 30 1 29 7
M  V30 31 1 30 7
M  V30 32 1 31 9
M  V30 33 1 32 9
M  V30 34 1 33 9
M  V30 35 1 34 10
M  V30 36 1 35 12
M  V30 37 1 14 36 CFG=1
M  V30 38 1 37 15
M  V30 39 1 38 15
M  V30 40 1 39 16
M  V30 41 1 40 16
M  V30 42 1 18 41 CFG=3
M  V30 43 1 13 42 CFG=3
M  V30 END BOND
M  V30 END CTAB
M  END
>  <i_epik_Tot_Q>  (1) 
2

>  <i_epik_Tot_abs_Q>  (1) 
2

>  <i_i_glide_confnum>  (1) 
11

>  <i_i_glide_lignum>  (1) 
116

>  <i_i_glide_posenum>  (1) 
394

>  <i_i_glide_rotatable_bonds>  (1) 
5

>  <i_lp_mmshare_version>  (1) 
72125

>  <i_m_source_file_index>  (1) 
55

>  <i_f3d_flags>  (1) 
0

>  <num_sample>  (1) 
100

>  <b_lp_Chiralities_Consistent>  (1) 
1

>  <r_epik_Charging_Adjusted_Penalty>  (1) 
0.22285261290592212

>  <r_epik_Ionization_Penalty>  (1) 
0.11376846567106323

>  <r_epik_Ionization_Penalty_Charging>  (1) 
0.11142630645296109

>  <r_epik_Ionization_Penalty_Neutral>  (1) 
0.0023421592181021404

>  <r_epik_State_Penalty>  (1) 
0.11142630645296105

>  <r_glide_ring_energy>  (1) 
0

>  <r_i_docking_score>  (1) 
-5.5789768290722375

>  <r_i_glide_ecoul>  (1) 
-0.054922168773078539

>  <r_i_glide_eff_state_penalty>  (1) 
0.11142630645296105

>  <r_i_glide_einternal>  (1) 
3.5919703287985136

>  <r_i_glide_emodel>  (1) 
-45.106350329135267

>  <r_i_glide_emodel_strain>  (1) 
1.53695173888838

>  <r_i_glide_energy>  (1) 
-30.742988519439354

>  <r_i_glide_erotb>  (1) 
0.96597774364564237

>  <r_i_glide_esite>  (1) 
0

>  <r_i_glide_evdw>  (1) 
-30.688066350666276

>  <r_i_glide_gscore>  (1) 
-5.6904031355251989

>  <r_i_glide_gscore_strain>  (1) 
0

>  <r_i_glide_hbond>  (1) 
0

>  <r_i_glide_ligand_efficiency>  (1) 
-0.30994315717067988

>  <r_i_glide_ligand_efficiency_ln>  (1) 
-1.4340472263990618

>  <r_i_glide_ligand_efficiency_sa>  (1) 
-0.81228086184899473

>  <r_i_glide_lipo>  (1) 
-2.3286594164094887

>  <r_i_glide_metal>  (1) 
-0

>  <r_i_glide_rewards>  (1) 
-2.7850798199120765

>  <r_lp_Energy>  (1) 
20.164648

>  <r_lp_tautomer_probability>  (1) 
0.94828448534560383

>  <s_epik_cmdline>  (1) 
J2VwaWtfcHl0aG9uJywgJy1waHQnLCAnMS4wJywgJy1waCcsICc3LjQnLCAnLXRuJywgJzgnLCAnLW1hJywgJzUwMCcsICctaW1hZScsICc8aW5maWxlLm1hZT4nLCAnLW9tYWUnLCAnPG91dGZpbGUubWFlPic=

>  <s_epik_input>  (1) 
W0NIM11bQ0gyXVtDSDJdW0NASF0oW0NIM10pTihbQ0gyXVtDSDJdW0NIMl1PMSlbUytdMVtDQEBIXShbQ0gzXSljMm5bY0hdbltuSF0y

>  <s_glide_docking_method>  (1) 
confgen

>  <s_i_glide_gridfile>  (1) 
gpcr_5ht2c_6bqh_protein_autoprepared_prepared

>  <s_lp_Force_Field>  (1) 
S-OPLS

>  <s_lp_Variant>  (1) 
DiffSBDD_54-2

>  <s_m_source_file>  (1) 
generated_GPCR_5HT2C_ligand_DiffSBDD_2026-06-23_prepared.sdf

>  <GenAI_Model>  (1) 
DiffSBDD

>  <Protein>  (1) 
GPCR_5HT2C

$$$$
DiffSBDD_21
     RDKit          3D

  0  0  0  0  0  0  0  0  0  0999 V3000
M  V30 BEGIN CTAB
M  V30 COUNTS 55 56 0 0 1
M  V30 BEGIN ATOM
M  V30 1 C 39.645140 31.337745 49.611713 0
M  V30 2 C 40.629374 30.325986 49.807532 0
M  V30 3 C 39.902217 32.814455 62.120393 0
M  V30 4 O 37.309133 30.940319 61.367749 0
M  V30 5 O 38.045140 33.151124 55.749928 0
M  V30 6 O 38.948868 25.922386 58.020737 0
M  V30 7 C 38.851315 32.385409 56.618057 0
M  V30 8 N 38.849235 32.142518 49.367738 0
M  V30 9 C 39.047058 28.800093 52.630316 0
M  V30 10 C 39.941856 29.978765 52.208723 0
M  V30 11 O 39.819149 31.608960 61.380442 0
M  V30 12 C 38.110534 29.159612 53.791703 0
M  V30 13 C 39.166246 31.792358 60.131910 0 CFG=2
M  V30 14 C 40.192224 26.536604 57.694139 0
M  V30 15 C 37.816626 28.068482 57.912817 0
M  V30 16 C 37.734136 31.335515 60.083773 0 CFG=1
M  V30 17 C 38.744067 30.064666 54.852933 0
M  V30 18 C 38.177256 31.044785 57.005516 0 CFG=1
M  V30 19 N 39.068629 28.747324 57.631721 0
M  V30 20 O 37.772878 30.300554 55.852808 0
M  V30 21 C 39.044009 30.180644 57.978163 0 CFG=2
M  V30 22 C 40.193350 27.994176 58.187364 0
M  V30 23 C 37.835630 26.601415 57.446163 0
M  V30 24 C 40.776367 29.695771 50.983514 0
M  V30 25 C 38.829177 30.454995 59.489451 0 CFG=1
M  V30 26 H 41.263259 30.076417 48.968593 0
M  V30 27 H 40.395106 32.628331 63.073826 0
M  V30 28 H 40.484377 33.565663 61.584092 0
M  V30 29 H 38.911241 33.221952 62.326259 0
M  V30 30 H 38.100479 30.842647 61.883391 0
M  V30 31 H 37.123353 32.938245 55.892992 0
M  V30 32 H 39.830709 32.238123 56.162875 0
M  V30 33 H 39.013814 32.997489 57.499801 0
M  V30 34 H 39.647861 27.941821 52.922078 0
M  V30 35 H 38.444274 28.462058 51.785697 0
M  V30 36 H 39.339361 30.870886 52.069219 0
M  V30 37 H 40.630653 30.226038 53.013192 0
M  V30 38 H 37.732309 28.249096 54.257160 0
M  V30 39 H 37.245228 29.673554 53.390653 0
M  V30 40 H 39.502255 32.637086 59.540210 0
M  V30 41 H 40.359058 26.489488 56.616175 0
M  V30 42 H 40.996928 25.976528 58.167887 0
M  V30 43 H 37.645293 28.127018 58.979488 0
M  V30 44 H 36.983717 28.589208 57.443599 0
M  V30 45 H 37.011951 31.900512 59.500114 0
M  V30 46 H 39.016507 31.018372 54.404803 0
M  V30 47 H 39.651450 29.613522 55.254297 0
M  V30 48 H 37.245146 31.260511 57.502718 0
M  V30 49 H 40.045143 30.517661 57.764418 0
M  V30 50 H 41.135217 28.470633 57.909403 0
M  V30 51 H 40.155208 27.981141 59.275038 0
M  V30 52 H 37.894073 26.545997 56.357415 0
M  V30 53 H 36.915654 26.096637 57.743187 0
M  V30 54 H 41.530944 28.937715 51.088844 0
M  V30 55 H 39.112319 29.609745 60.111363 0
M  V30 END ATOM
M  V30 BEGIN BOND
M  V30 1 1 2 1
M  V30 2 1 7 5
M  V30 3 3 8 1
M  V30 4 1 10 9
M  V30 5 1 11 3
M  V30 6 1 12 9
M  V30 7 1 13 11
M  V30 8 1 14 6
M  V30 9 1 16 4
M  V30 10 1 16 13
M  V30 11 1 17 12
M  V30 12 1 18 7
M  V30 13 1 19 15
M  V30 14 1 20 17
M  V30 15 1 20 18
M  V30 16 1 21 18
M  V30 17 1 21 19
M  V30 18 1 22 14
M  V30 19 1 22 19
M  V30 20 1 23 6
M  V30 21 1 23 15
M  V30 22 2 24 2
M  V30 23 1 24 10
M  V30 24 1 25 13
M  V30 25 1 25 16
M  V30 26 1 25 21
M  V30 27 1 26 2
M  V30 28 1 27 3
M  V30 29 1 28 3
M  V30 30 1 29 3
M  V30 31 1 30 4
M  V30 32 1 31 5
M  V30 33 1 32 7
M  V30 34 1 33 7
M  V30 35 1 34 9
M  V30 36 1 35 9
M  V30 37 1 36 10
M  V30 38 1 37 10
M  V30 39 1 38 12
M  V30 40 1 39 12
M  V30 41 1 13 40 CFG=3
M  V30 42 1 41 14
M  V30 43 1 42 14
M  V30 44 1 43 15
M  V30 45 1 44 15
M  V30 46 1 16 45 CFG=3
M  V30 47 1 46 17
M  V30 48 1 47 17
M  V30 49 1 18 48 CFG=1
M  V30 50 1 21 49 CFG=3
M  V30 51 1 50 22
M  V30 52 1 51 22
M  V30 53 1 52 23
M  V30 54 1 53 23
M  V30 55 1 54 24
M  V30 56 1 25 55 CFG=1
M  V30 END BOND
M  V30 END CTAB
M  END
>  <i_epik_Tot_Q>  (1) 
0

>  <i_epik_Tot_abs_Q>  (1) 
0

>  <i_i_glide_confnum>  (1) 
1253

>  <i_i_glide_lignum>  (1) 
51

>  <i_i_glide_posenum>  (1) 
61

>  <i_i_glide_rotatable_bonds>  (1) 
13

>  <i_lp_mmshare_version>  (1) 
72125

>  <i_m_source_file_index>  (1) 
22

>  <i_f3d_flags>  (1) 
0

>  <num_sample>  (1) 
100

>  <b_lp_Chiralities_Consistent>  (1) 
1

>  <r_epik_Charging_Adjusted_Penalty>  (1) 
0.033214284747091018

>  <r_epik_Ionization_Penalty>  (1) 
0.033214513384273246

>  <r_epik_Ionization_Penalty_Charging>  (1) 
0

>  <r_epik_Ionization_Penalty_Neutral>  (1) 
0.033214513384273246

>  <r_epik_State_Penalty>  (1) 
0.033214284747091018

>  <r_glide_ring_energy>  (1) 
0

>  <r_i_docking_score>  (1) 
-5.5691146531636342

>  <r_i_glide_ecoul>  (1) 
-5.7017584270471851

>  <r_i_glide_eff_state_penalty>  (1) 
0.033214284747091018

>  <r_i_glide_einternal>  (1) 
10.287744132784951

>  <r_i_glide_emodel>  (1) 
-38.043944443642197

>  <r_i_glide_emodel_strain>  (1) 
2.3947093913638895

>  <r_i_glide_energy>  (1) 
-30.537139409628047

>  <r_i_glide_erotb>  (1) 
1.5209836995870194

>  <r_i_glide_esite>  (1) 
0

>  <r_i_glide_evdw>  (1) 
-24.835380982580862

>  <r_i_glide_gscore>  (1) 
-5.6023289379107251

>  <r_i_glide_gscore_strain>  (1) 
0

>  <r_i_glide_hbond>  (1) 
-0.48273894796959049

>  <r_i_glide_ligand_efficiency>  (1) 
-0.22276458612654537

>  <r_i_glide_ligand_efficiency_ln>  (1) 
-1.3200470656985064

>  <r_i_glide_ligand_efficiency_sa>  (1) 
-0.65136760127966642

>  <r_i_glide_lipo>  (1) 
-2.7437946617179496

>  <r_i_glide_metal>  (1) 
-0

>  <r_i_glide_rewards>  (1) 
-1.7997462146240832

>  <r_lp_Energy>  (1) 
18.010252999999999

>  <s_epik_cmdline>  (1) 
J2VwaWtfcHl0aG9uJywgJy1waHQnLCAnMS4wJywgJy1waCcsICc3LjQnLCAnLXRuJywgJzgnLCAnLW1hJywgJzUwMCcsICctaW1hZScsICc8aW5maWxlLm1hZT4nLCAnLW9tYWUnLCAnPG91dGZpbGUubWFlPic=

>  <s_epik_input>  (1) 
TiNDL1tDSF09W0NIXVxbQ0gyXVtDSDJdW0NIMl1bQ0gyXU9bQ0BIXShbQ0gyXVtPSF0pW0NAQEhdKFtDQEBIXTFbQ0BASF0oW09IXSlbQ0BIXTFPW0NIM10pTjJbQ0gyXVtDSDJdT1tDSDJdW0NIMl0y

>  <s_glide_docking_method>  (1) 
confgen

>  <s_i_glide_gridfile>  (1) 
gpcr_5ht2c_6bqh_protein_autoprepared_prepared

>  <s_lp_Force_Field>  (1) 
S-OPLS

>  <s_lp_Variant>  (1) 
DiffSBDD_21-1

>  <s_m_source_file>  (1) 
generated_GPCR_5HT2C_ligand_DiffSBDD_2026-06-23_prepared.sdf

>  <GenAI_Model>  (1) 
DiffSBDD

>  <Protein>  (1) 
GPCR_5HT2C

$$$$
DiffSBDD_22
     RDKit          3D

  0  0  0  0  0  0  0  0  0  0999 V3000
M  V30 BEGIN CTAB
M  V30 COUNTS 47 50 0 0 1
M  V30 BEGIN ATOM
M  V30 1 C 39.784175 30.732095 52.582083 0
M  V30 2 C 40.253233 31.149982 62.282236 0
M  V30 3 C 38.684581 27.804815 54.556944 0
M  V30 4 F 40.919326 31.874902 61.369441 0
M  V30 5 N 38.490457 29.046313 53.763146 0 CFG=2 CHG=1
M  V30 6 C 38.348918 28.771486 52.307389 0 CFG=1
M  V30 7 C 39.245529 29.737746 51.584529 0 CFG=2
M  V30 8 O 39.702371 28.613798 56.628687 0
M  V30 9 O 37.245357 26.114092 57.140779 0
M  V30 10 N 39.680450 28.952325 58.955611 0
M  V30 11 O 39.220102 24.387088 57.355383 0
M  V30 12 C 39.434972 26.720193 57.946802 0 CFG=1
M  V30 13 C 38.539177 27.981443 56.081980 0 CFG=2
M  V30 14 C 39.674662 28.830588 61.426387 0
M  V30 15 N 40.562000 31.248724 63.500788 0
M  V30 16 C 39.505961 30.118861 53.960181 0
M  V30 17 C 40.512996 28.787081 60.139220 0
M  V30 18 C 39.583401 28.261602 51.594385 0
M  V30 19 C 39.637686 25.659159 56.898098 0 CFG=2
M  V30 20 C 40.061400 28.086069 57.877428 0 CFG=1
M  V30 21 C 39.150512 30.227441 61.810365 0
M  V30 22 C 38.502617 26.643889 56.783658 0 CFG=2
M  V30 23 H 39.245137 31.675164 52.480706 0
M  V30 24 H 40.840065 30.937678 52.405219 0
M  V30 25 H 39.644517 27.345611 54.323182 0
M  V30 26 H 37.923255 27.094776 54.228613 0
M  V30 27 H 37.350103 28.538983 51.942277 0
M  V30 28 H 38.957289 30.134585 50.611639 0
M  V30 29 H 37.417558 25.215555 57.397787 0
M  V30 30 H 39.658399 29.922491 58.673829 0
M  V30 31 H 39.955855 23.954149 57.767768 0
M  V30 32 H 39.092136 26.393635 58.928939 0
M  V30 33 H 37.648973 28.554116 56.348476 0
M  V30 34 H 40.269872 28.436487 62.252391 0
M  V30 35 H 38.845152 28.135781 61.319850 0
M  V30 36 H 40.006523 30.652952 64.099358 0
M  V30 37 H 39.134679 30.867268 54.661056 0
M  V30 38 H 40.432759 29.737751 54.384448 0
M  V30 39 H 41.276675 29.558670 60.135452 0
M  V30 40 H 41.031000 27.826827 60.104601 0
M  V30 41 H 39.423850 27.710255 50.669142 0
M  V30 42 H 40.445133 27.940026 52.167719 0
M  V30 43 H 40.476853 25.690907 56.206606 0
M  V30 44 H 41.150583 28.008755 57.852647 0
M  V30 45 H 37.609146 29.446806 54.053968 0
M  V30 46 H 38.412183 30.136988 62.606986 0
M  V30 47 H 38.631904 30.688927 60.969614 0
M  V30 END ATOM
M  V30 BEGIN BOND
M  V30 1 1 4 2
M  V30 2 1 5 3
M  V30 3 1 6 5
M  V30 4 1 7 1
M  V30 5 1 7 6
M  V30 6 1 13 3
M  V30 7 1 13 8
M  V30 8 2 15 2
M  V30 9 1 16 1
M  V30 10 1 16 5
M  V30 11 1 17 10
M  V30 12 1 17 14
M  V30 13 1 18 6
M  V30 14 1 18 7
M  V30 15 1 19 11
M  V30 16 1 19 12
M  V30 17 1 20 8
M  V30 18 1 20 10
M  V30 19 1 20 12
M  V30 20 1 21 2
M  V30 21 1 21 14
M  V30 22 1 22 9 CFG=1
M  V30 23 1 22 12
M  V30 24 1 22 13
M  V30 25 1 22 19
M  V30 26 1 23 1
M  V30 27 1 24 1
M  V30 28 1 25 3
M  V30 29 1 26 3
M  V30 30 1 6 27 CFG=3
M  V30 31 1 7 28 CFG=3
M  V30 32 1 29 9
M  V30 33 1 30 10
M  V30 34 1 31 11
M  V30 35 1 12 32 CFG=1
M  V30 36 1 13 33 CFG=3
M  V30 37 1 34 14
M  V30 38 1 35 14
M  V30 39 1 36 15
M  V30 40 1 37 16
M  V30 41 1 38 16
M  V30 42 1 39 17
M  V30 43 1 40 17
M  V30 44 1 41 18
M  V30 45 1 42 18
M  V30 46 1 19 43 CFG=3
M  V30 47 1 20 44 CFG=3
M  V30 48 1 5 45 CFG=1
M  V30 49 1 46 21
M  V30 50 1 47 21
M  V30 END BOND
M  V30 END CTAB
M  END
>  <i_epik_Tot_Q>  (1) 
1

>  <i_epik_Tot_abs_Q>  (1) 
1

>  <i_i_glide_confnum>  (1) 
302

>  <i_i_glide_lignum>  (1) 
53

>  <i_i_glide_posenum>  (1) 
141

>  <i_i_glide_rotatable_bonds>  (1) 
9

>  <i_lp_mmshare_version>  (1) 
72125

>  <i_m_source_file_index>  (1) 
23

>  <i_f3d_flags>  (1) 
0

>  <num_sample>  (1) 
100

>  <b_lp_Chiralities_Consistent>  (1) 
1

>  <r_epik_Charging_Adjusted_Penalty>  (1) 
0.69687758696528612

>  <r_epik_Ionization_Penalty>  (1) 
0.32102159834462574

>  <r_epik_Ionization_Penalty_Charging>  (1) 
0.0068758800046254996

>  <r_epik_Ionization_Penalty_Neutral>  (1) 
0.31414571834000021

>  <r_epik_State_Penalty>  (1) 
0.69000170696066065

>  <r_glide_ring_energy>  (1) 
1.6455033096424427

>  <r_i_docking_score>  (1) 
-5.5668632076385185

>  <r_i_glide_ecoul>  (1) 
-2.3066047110822248

>  <r_i_glide_eff_state_penalty>  (1) 
0.69000170696066065

>  <r_i_glide_einternal>  (1) 
6.8508817564331856

>  <r_i_glide_emodel>  (1) 
-40.640260913100803

>  <r_i_glide_emodel_strain>  (1) 
1.247137933568979

>  <r_i_glide_energy>  (1) 
-31.90674637617953

>  <r_i_glide_erotb>  (1) 
1.3164448029953435

>  <r_i_glide_esite>  (1) 
0

>  <r_i_glide_evdw>  (1) 
-29.600141665097304

>  <r_i_glide_gscore>  (1) 
-6.2568649145991788

>  <r_i_glide_gscore_strain>  (1) 
0

>  <r_i_glide_hbond>  (1) 
-0.30465320521123412

>  <r_i_glide_ligand_efficiency>  (1) 
-0.25303923671084178

>  <r_i_glide_ligand_efficiency_ln>  (1) 
-1.3607444242160598

>  <r_i_glide_ligand_efficiency_sa>  (1) 
-0.7090258934627971

>  <r_i_glide_lipo>  (1) 
-3.1640817466335749

>  <r_i_glide_metal>  (1) 
-0

>  <r_i_glide_rewards>  (1) 
-2.2785769758325154

>  <r_lp_Energy>  (1) 
11.334823

>  <r_lp_tautomer_probability>  (1) 
0.49999300000000002

>  <s_epik_Chemistry_Notes>  (1) 
This compound has an imine and may undergo hydrolysis. This compound contains an acetal/aminal-like group ( X-CH(R)-Y where X, Y are N, S, or O) that may be acid/base labile, releasing an aldehyde.

>  <s_epik_cmdline>  (1) 
J2VwaWtfcHl0aG9uJywgJy1waHQnLCAnMS4wJywgJy1waCcsICc3LjQnLCAnLXRuJywgJzgnLCAnLW1hJywgJzUwMCcsICctaW1hZScsICc8aW5maWxlLm1hZT4nLCAnLW9tYWUnLCAnPG91dGZpbGUubWFlPic=

>  <s_epik_input>  (1) 
W0NAQEhdMTJbQ0BIXShbQ0gyXTIpW0NIMl1bQ0gyXU4xW0NIMl1bQ0BASF0zT1tDQEhdKFtDSF0oW0NASF00W09IXSlbQ0BAXTM0W09IXSlbTkhdW0NIMl1bQ0gyXVxbQ0hdPUMoXEYpW05IMl0=

>  <s_glide_docking_method>  (1) 
confgen

>  <s_i_glide_gridfile>  (1) 
gpcr_5ht2c_6bqh_protein_autoprepared_prepared

>  <s_lp_Force_Field>  (1) 
S-OPLS

>  <s_lp_Variant>  (1) 
DiffSBDD_22-1

>  <s_m_source_file>  (1) 
generated_GPCR_5HT2C_ligand_DiffSBDD_2026-06-23_prepared.sdf

>  <GenAI_Model>  (1) 
DiffSBDD

>  <Protein>  (1) 
GPCR_5HT2C

$$$$
DiffSBDD_57
     RDKit          3D

  0  0  0  0  0  0  0  0  0  0999 V3000
M  V30 BEGIN CTAB
M  V30 COUNTS 64 66 0 0 1
M  V30 BEGIN ATOM
M  V30 1 O 39.277845 30.124915 57.708140 0
M  V30 2 C 41.154146 29.205873 62.487815 0
M  V30 3 C 39.645158 27.151153 54.448502 0
M  V30 4 C 39.676307 28.782343 60.446516 0 CFG=2
M  V30 5 C 36.892582 33.660370 60.814237 0
M  V30 6 S 40.845125 30.827631 61.759888 0
M  V30 7 O 35.999919 33.907328 61.628658 0
M  V30 8 C 40.377795 28.162951 61.671582 0
M  V30 9 N 37.460846 36.840181 62.446869 0
M  V30 10 C 38.883471 29.576506 55.083640 0 CFG=2
M  V30 11 N 37.628859 32.553446 60.842355 0
M  V30 12 C 39.889030 29.064898 57.832063 0
M  V30 13 O 38.458144 29.733513 53.721970 0
M  V30 14 C 40.590780 28.749626 59.177167 0
M  V30 15 C 38.235427 30.484525 61.827903 0
M  V30 16 C 36.452142 37.108237 60.285835 0 CFG=2
M  V30 17 O 36.845146 30.790522 54.967735 0
M  V30 18 C 37.447693 31.561891 61.780874 0
M  V30 19 C 37.680290 37.398015 61.120859 0 CFG=1
M  V30 20 C 39.393831 30.249436 60.879159 0 CFG=2
M  V30 21 C 38.445143 27.919183 60.107511 0
M  V30 22 C 36.230074 35.763818 59.596776 0 CFG=2
M  V30 23 C 39.518763 28.243302 55.473391 0
M  V30 24 C 37.220678 34.634307 59.702063 0 CFG=2
M  V30 25 C 36.599175 36.959061 58.798735 0
M  V30 26 N 37.460218 29.506845 54.788367 0
M  V30 27 N 39.103322 27.305274 53.187564 0
M  V30 28 C 37.951979 38.900924 61.247932 0
M  V30 29 O 38.045138 39.559441 60.021558 0
M  V30 30 O 38.777077 36.634790 63.018781 0
M  V30 31 C 40.290908 26.002313 54.731125 0
M  V30 32 C 39.991162 28.034047 56.753086 0
M  V30 33 Cl 37.341187 33.737768 58.167744 0
M  V30 34 H 40.786525 29.218981 63.514708 0
M  V30 35 H 42.220631 28.985854 62.539557 0
M  V30 36 H 39.644739 27.737752 62.356059 0
M  V30 37 H 40.990408 27.337784 61.344634 0
M  V30 38 H 37.079213 35.900616 62.432124 0
M  V30 39 H 39.371686 30.480545 55.440904 0
M  V30 40 H 38.352118 32.417717 60.150819 0
M  V30 41 H 41.029481 27.755765 59.088209 0
M  V30 42 H 41.437241 29.427031 59.291741 0
M  V30 43 H 38.064560 29.737742 62.576832 0
M  V30 44 H 35.596486 37.719438 60.567680 0
M  V30 45 H 36.620271 30.834297 55.894853 0
M  V30 46 H 36.632373 31.737744 62.459365 0
M  V30 47 H 38.542196 36.924693 60.655468 0
M  V30 48 H 39.272783 30.886536 60.008630 0
M  V30 49 H 38.045139 27.337781 60.943390 0
M  V30 50 H 37.654185 28.537771 59.680271 0
M  V30 51 H 38.682186 27.149079 59.371262 0
M  V30 52 H 35.211588 35.425453 59.442390 0
M  V30 53 H 38.220763 35.019049 59.885701 0
M  V30 54 H 37.596011 36.938064 58.363231 0
M  V30 55 H 35.801102 37.337744 58.167819 0
M  V30 56 H 38.585816 28.139668 52.932595 0
M  V30 57 H 37.136285 39.398129 61.767756 0
M  V30 58 H 38.898405 39.052720 61.767137 0
M  V30 59 H 37.151615 39.671097 59.696240 0
M  V30 60 H 38.729864 37.128492 63.825164 0
M  V30 61 H 40.374662 25.236700 53.981649 0
M  V30 62 H 40.740816 25.805598 55.683436 0
M  V30 63 H 40.453922 27.107673 57.024673 0
M  V30 64 H 39.127379 26.566294 52.499447 0
M  V30 END ATOM
M  V30 BEGIN BOND
M  V30 1 1 6 2
M  V30 2 2 7 5
M  V30 3 1 8 2
M  V30 4 1 8 4
M  V30 5 1 11 5
M  V30 6 2 12 1
M  V30 7 1 13 10
M  V30 8 1 4 14 CFG=3
M  V30 9 1 14 12
M  V30 10 1 18 11
M  V30 11 2 18 15
M  V30 12 1 19 9
M  V30 13 1 19 16
M  V30 14 1 20 4
M  V30 15 1 20 6
M  V30 16 1 20 15
M  V30 17 1 21 4
M  V30 18 1 22 16
M  V30 19 1 23 3
M  V30 20 1 23 10
M  V30 21 1 24 5
M  V30 22 1 24 22
M  V30 23 1 25 16
M  V30 24 1 25 22
M  V30 25 1 26 10
M  V30 26 1 26 13
M  V30 27 1 26 17
M  V30 28 1 27 3
M  V30 29 1 28 19
M  V30 30 1 29 28
M  V30 31 1 30 9
M  V30 32 2 31 3
M  V30 33 1 32 12
M  V30 34 2 32 23
M  V30 35 1 33 24
M  V30 36 1 34 2
M  V30 37 1 35 2
M  V30 38 1 36 8
M  V30 39 1 37 8
M  V30 40 1 38 9
M  V30 41 1 10 39 CFG=1
M  V30 42 1 40 11
M  V30 43 1 41 14
M  V30 44 1 42 14
M  V30 45 1 43 15
M  V30 46 1 16 44 CFG=3
M  V30 47 1 45 17
M  V30 48 1 46 18
M  V30 49 1 19 47 CFG=3
M  V30 50 1 20 48 CFG=3
M  V30 51 1 49 21
M  V30 52 1 50 21
M  V30 53 1 51 21
M  V30 54 1 22 52 CFG=3
M  V30 55 1 24 53 CFG=1
M  V30 56 1 54 25
M  V30 57 1 55 25
M  V30 58 1 56 27
M  V30 59 1 57 28
M  V30 60 1 58 28
M  V30 61 1 59 29
M  V30 62 1 60 30
M  V30 63 1 61 31
M  V30 64 1 62 31
M  V30 65 1 63 32
M  V30 66 1 64 27
M  V30 END BOND
M  V30 END CTAB
M  END
>  <i_epik_Tot_Q>  (1) 
0

>  <i_epik_Tot_abs_Q>  (1) 
0

>  <i_i_glide_confnum>  (1) 
156

>  <i_i_glide_lignum>  (1) 
125

>  <i_i_glide_posenum>  (1) 
253

>  <i_i_glide_rotatable_bonds>  (1) 
16

>  <i_lp_mmshare_version>  (1) 
72125

>  <i_m_source_file_index>  (1) 
58

>  <i_f3d_flags>  (1) 
0

>  <num_sample>  (1) 
100

>  <b_lp_Chiralities_Consistent>  (1) 
1

>  <r_epik_Charging_Adjusted_Penalty>  (1) 
0.024416195549470061

>  <r_epik_Ionization_Penalty>  (1) 
0.014246986074461085

>  <r_epik_Ionization_Penalty_Charging>  (1) 
6.6592516266621022e-05

>  <r_epik_Ionization_Penalty_Neutral>  (1) 
0.014180393558194464

>  <r_epik_State_Penalty>  (1) 
0.024349603033203441

>  <r_glide_ring_energy>  (1) 
0.20506540225093017

>  <r_i_docking_score>  (1) 
-5.5633833669479831

>  <r_i_glide_ecoul>  (1) 
-9.1950688198308868

>  <r_i_glide_eff_state_penalty>  (1) 
0.024349603033203441

>  <r_i_glide_einternal>  (1) 
12.463971944047501

>  <r_i_glide_emodel>  (1) 
-40.353754105997425

>  <r_i_glide_emodel_strain>  (1) 
5.4019030838628055

>  <r_i_glide_energy>  (1) 
-35.571731159970788

>  <r_i_glide_erotb>  (1) 
1.0500022235395752

>  <r_i_glide_esite>  (1) 
-0.10000000000000001

>  <r_i_glide_evdw>  (1) 
-26.376662340139902

>  <r_i_glide_gscore>  (1) 
-5.5877329699811868

>  <r_i_glide_gscore_strain>  (1) 
0.35047577096570137

>  <r_i_glide_hbond>  (1) 
-0.49724607547114119

>  <r_i_glide_ligand_efficiency>  (1) 
-0.1685873747559995

>  <r_i_glide_ligand_efficiency_ln>  (1) 
-1.2372676551518029

>  <r_i_glide_ligand_efficiency_sa>  (1) 
-0.54074979213374019

>  <r_i_glide_lipo>  (1) 
-2.67766114758588

>  <r_i_glide_metal>  (1) 
-0

>  <r_i_glide_rewards>  (1) 
-1.0152103014478153

>  <r_lp_Energy>  (1) 
21.778162999999999

>  <s_epik_Chemistry_Notes>  (1) 
This compound has an imine and may undergo hydrolysis. This compound contains an acetal/aminal-like group ( X-CH(R)-Y where X, Y are N, S, or O) that may be acid/base labile, releasing an aldehyde. This compound has a N-S or N-O group and may undergo hydrolysis at high or low pH.

>  <s_epik_cmdline>  (1) 
J2VwaWtfcHl0aG9uJywgJy1waHQnLCAnMS4wJywgJy1waCcsICc3LjQnLCAnLXRuJywgJzgnLCAnLW1hJywgJzUwMCcsICctaW1hZScsICc8aW5maWxlLm1hZT4nLCAnLW9tYWUnLCAnPG91dGZpbGUubWFlPic=

>  <s_epik_input>  (1) 
W09IXU4xT1tDQEBIXTFDKC9DKD1OL1tIXSlbQ0gzXSk9W0NIXVxDKD1PKVtDSDJdW0NAQF0yKFtDSDNdKVtDSDJdW0NIMl1TW0NAQEhdMi9bQ0hdPVtDSF1cW05IXUMoPU8pW0NAQEhdKENsKVtDQEhdKFtDSDJdMylbQ0BIXTNbQ0BIXShbTkhdW09IXSlbQ0gyXVtPSF0=

>  <s_glide_docking_method>  (1) 
confgen

>  <s_i_glide_gridfile>  (1) 
gpcr_5ht2c_6bqh_protein_autoprepared_prepared

>  <s_lp_Force_Field>  (1) 
S-OPLS

>  <s_lp_Variant>  (1) 
DiffSBDD_57-1

>  <s_m_source_file>  (1) 
generated_GPCR_5HT2C_ligand_DiffSBDD_2026-06-23_prepared.sdf

>  <GenAI_Model>  (1) 
DiffSBDD

>  <Protein>  (1) 
GPCR_5HT2C

$$$$
DiffSBDD_9
     RDKit          3D

  0  0  0  0  0  0  0  0  0  0999 V3000
M  V30 BEGIN CTAB
M  V30 COUNTS 67 68 0 0 1
M  V30 BEGIN ATOM
M  V30 1 C 38.292712 29.754076 57.140236 0 CFG=1
M  V30 2 C 35.095541 33.737742 58.961498 0
M  V30 3 C 39.245154 29.337750 52.151253 0
M  V30 4 C 39.646274 36.937749 64.616422 0
M  V30 5 O 38.637192 28.228108 52.603781 0
M  V30 6 O 41.676125 36.137644 63.556665 0
M  V30 7 C 38.183858 29.592075 55.626112 0 CFG=1
M  V30 8 C 39.538543 29.775923 56.288019 0
M  V30 9 N 37.899041 31.094641 57.618217 0 CHG=1
M  V30 10 C 38.101068 33.705808 60.177839 0
M  V30 11 C 37.393037 36.022006 60.945932 0 CFG=2
M  V30 12 C 38.234459 36.197907 62.212853 0
M  V30 13 C 39.705831 35.748039 62.259164 0 CFG=1
M  V30 14 C 37.783534 32.316574 59.683963 0
M  V30 15 C 40.295274 35.885337 63.688879 0 CFG=2
M  V30 16 C 35.614767 34.270963 60.296988 0
M  V30 17 C 39.577960 34.043204 60.331055 0
M  V30 18 C 37.645974 38.244298 60.112128 0
M  V30 19 C 37.792332 28.296810 54.921451 0
M  V30 20 C 37.957060 28.641018 58.117338 0
M  V30 21 O 36.792366 31.682657 60.036283 0
M  V30 22 C 38.737857 31.675146 58.687139 0
M  V30 23 O 39.968859 30.071282 52.824911 0
M  V30 24 C 38.833027 27.756373 53.930421 0
M  V30 25 C 37.101769 34.590035 60.464048 0
M  V30 26 C 39.940985 34.299005 61.791109 0
M  V30 27 O 37.728969 30.766989 54.974522 0
M  V30 28 O 37.763170 36.851561 59.858230 0
M  V30 29 C 35.002559 33.602131 61.538566 0
M  V30 30 H 35.796786 33.973828 58.164896 0
M  V30 31 H 34.898565 32.668184 58.967806 0
M  V30 32 H 34.143675 34.203665 58.702280 0
M  V30 33 H 38.994451 29.488892 51.101069 0
M  V30 34 H 38.611691 36.691169 64.854211 0
M  V30 35 H 40.170009 36.982143 65.571712 0
M  V30 36 H 39.659160 37.935017 64.177586 0
M  V30 37 H 41.897967 36.886997 64.104230 0
M  V30 38 H 40.196098 28.911005 56.351617 0
M  V30 39 H 40.045069 30.725242 56.122307 0
M  V30 40 H 37.898246 31.710422 56.813815 0
M  V30 41 H 36.445184 36.425391 61.294892 0
M  V30 42 H 38.198513 37.250779 62.483866 0
M  V30 43 H 37.669615 35.737755 62.996192 0
M  V30 44 H 40.249775 36.418655 61.590166 0
M  V30 45 H 40.217344 34.927997 64.199852 0
M  V30 46 H 35.245138 35.273509 60.167751 0
M  V30 47 H 40.202806 33.218895 60.007105 0
M  V30 48 H 39.855912 34.925946 59.767771 0
M  V30 49 H 37.752277 38.782067 59.171452 0
M  V30 50 H 36.691468 38.509961 60.567872 0
M  V30 51 H 38.444980 38.597406 60.763241 0
M  V30 52 H 37.645175 27.526900 55.675944 0
M  V30 53 H 36.837271 28.418111 54.418588 0
M  V30 54 H 38.398892 27.696321 57.799846 0
M  V30 55 H 38.334617 28.864238 59.115525 0
M  V30 56 H 36.874705 28.517089 58.172555 0
M  V30 57 H 39.330049 30.914675 59.192706 0
M  V30 58 H 39.373137 32.427247 58.221848 0
M  V30 59 H 39.840954 27.925416 54.297225 0
M  V30 60 H 38.720389 26.673173 53.880223 0
M  V30 61 H 41.003106 34.076531 61.908271 0
M  V30 62 H 39.419169 33.592542 62.439005 0
M  V30 63 H 36.785511 30.830088 55.057139 0
M  V30 64 H 35.078374 34.240676 62.419043 0
M  V30 65 H 33.960435 33.337765 61.381433 0
M  V30 66 H 35.502431 32.668740 61.772729 0
M  V30 67 H 36.933936 31.067852 57.935338 0
M  V30 END ATOM
M  V30 BEGIN BOND
M  V30 1 1 5 3
M  V30 2 1 7 1
M  V30 3 1 8 1
M  V30 4 1 8 7
M  V30 5 1 9 1
M  V30 6 1 12 11
M  V30 7 1 13 12
M  V30 8 1 14 10
M  V30 9 1 15 4
M  V30 10 1 15 6
M  V30 11 1 15 13
M  V30 12 1 16 2
M  V30 13 1 17 10
M  V30 14 1 19 7
M  V30 15 1 1 20 CFG=1
M  V30 16 2 21 14
M  V30 17 1 22 9
M  V30 18 1 22 14
M  V30 19 2 23 3
M  V30 20 1 24 5
M  V30 21 1 24 19
M  V30 22 2 25 10
M  V30 23 1 25 11
M  V30 24 1 25 16
M  V30 25 1 26 13
M  V30 26 1 26 17
M  V30 27 1 7 27 CFG=3
M  V30 28 1 28 11
M  V30 29 1 28 18
M  V30 30 1 29 16
M  V30 31 1 30 2
M  V30 32 1 31 2
M  V30 33 1 32 2
M  V30 34 1 33 3
M  V30 35 1 34 4
M  V30 36 1 35 4
M  V30 37 1 36 4
M  V30 38 1 37 6
M  V30 39 1 38 8
M  V30 40 1 39 8
M  V30 41 1 40 9
M  V30 42 1 11 41 CFG=1
M  V30 43 1 42 12
M  V30 44 1 43 12
M  V30 45 1 13 44 CFG=3
M  V30 46 1 15 45 CFG=1
M  V30 47 1 46 16
M  V30 48 1 47 17
M  V30 49 1 48 17
M  V30 50 1 49 18
M  V30 51 1 50 18
M  V30 52 1 51 18
M  V30 53 1 52 19
M  V30 54 1 53 19
M  V30 55 1 54 20
M  V30 56 1 55 20
M  V30 57 1 56 20
M  V30 58 1 57 22
M  V30 59 1 58 22
M  V30 60 1 59 24
M  V30 61 1 60 24
M  V30 62 1 61 26
M  V30 63 1 62 26
M  V30 64 1 63 27
M  V30 65 1 64 29
M  V30 66 1 65 29
M  V30 67 1 66 29
M  V30 68 1 67 9
M  V30 END BOND
M  V30 END CTAB
M  END
>  <i_epik_Tot_Q>  (1) 
1

>  <i_epik_Tot_abs_Q>  (1) 
1

>  <i_i_glide_confnum>  (1) 
1528

>  <i_i_glide_lignum>  (1) 
14

>  <i_i_glide_posenum>  (1) 
202

>  <i_i_glide_rotatable_bonds>  (1) 
13

>  <i_lp_mmshare_version>  (1) 
72125

>  <i_m_source_file_index>  (1) 
10

>  <i_f3d_flags>  (1) 
0

>  <num_sample>  (1) 
100

>  <b_lp_Chiralities_Consistent>  (1) 
1

>  <r_epik_Charging_Adjusted_Penalty>  (1) 
0.43257487955488089

>  <r_epik_Ionization_Penalty>  (1) 
0.21628819114950359

>  <r_epik_Ionization_Penalty_Charging>  (1) 
0.21628743977744047

>  <r_epik_Ionization_Penalty_Neutral>  (1) 
7.5137206312442099e-07

>  <r_epik_State_Penalty>  (1) 
0.21628743977744042

>  <r_glide_ring_energy>  (1) 
0

>  <r_i_docking_score>  (1) 
-5.5615002712815675

>  <r_i_glide_ecoul>  (1) 
-7.8328998992728556

>  <r_i_glide_eff_state_penalty>  (1) 
0.21628743977744042

>  <r_i_glide_einternal>  (1) 
26.551543004932185

>  <r_i_glide_emodel>  (1) 
-36.92990744149278

>  <r_i_glide_emodel_strain>  (1) 
5.1233330371918129

>  <r_i_glide_energy>  (1) 
-38.024807633587898

>  <r_i_glide_erotb>  (1) 
0.92691700141960698

>  <r_i_glide_esite>  (1) 
-0.13454987403505322

>  <r_i_glide_evdw>  (1) 
-30.191907734315041

>  <r_i_glide_gscore>  (1) 
-5.7777877110590081

>  <r_i_glide_gscore_strain>  (1) 
0.28083325929795322

>  <r_i_glide_hbond>  (1) 
-0.41789453107927582

>  <r_i_glide_ligand_efficiency>  (1) 
-0.19177587142350233

>  <r_i_glide_ligand_efficiency_ln>  (1) 
-1.2734425346447831

>  <r_i_glide_ligand_efficiency_sa>  (1) 
-0.58919623653499198

>  <r_i_glide_lipo>  (1) 
-2.2966298354323147

>  <r_i_glide_metal>  (1) 
-0

>  <r_i_glide_rewards>  (1) 
-1.4519333596232444

>  <r_lp_Energy>  (1) 
42.298378999999997

>  <s_epik_Chemistry_Notes>  (1) 
This compound has an ester and may undergo hydrolysis at high or low pH.

>  <s_epik_cmdline>  (1) 
J2VwaWtfcHl0aG9uJywgJy1waHQnLCAnMS4wJywgJy1waCcsICc3LjQnLCAnLXRuJywgJzgnLCAnLW1hJywgJzUwMCcsICctaW1hZScsICc8aW5maWxlLm1hZT4nLCAnLW9tYWUnLCAnPG91dGZpbGUubWFlPic=

>  <s_epik_input>  (1) 
Tz1bQ0hdT1tDSDJdW0NIMl1bQ0BAXShbQ0gyXTEpKFtPSF0pW0NAXTEoW0NIM10pW05IXVtDSDJdQyg9TylDMj1DKFtDSF0oW0NIM10pW0NIM10pW0NASF0oT1tDSDNdKVtDSDJdW0NAQEhdKFtDQEBIXShbQ0gzXSlbT0hdKVtDSDJdW0NIMl0y

>  <s_glide_docking_method>  (1) 
confgen

>  <s_i_glide_gridfile>  (1) 
gpcr_5ht2c_6bqh_protein_autoprepared_prepared

>  <s_lp_Force_Field>  (1) 
S-OPLS

>  <s_lp_Variant>  (1) 
DiffSBDD_9-2

>  <s_m_source_file>  (1) 
generated_GPCR_5HT2C_ligand_DiffSBDD_2026-06-23_prepared.sdf

>  <GenAI_Model>  (1) 
DiffSBDD

>  <Protein>  (1) 
GPCR_5HT2C

$$$$
DiffSBDD_52
     RDKit          3D

  0  0  0  0  0  0  0  0  0  0999 V3000
M  V30 BEGIN CTAB
M  V30 COUNTS 68 70 0 0 1
M  V30 BEGIN ATOM
M  V30 1 C 38.660177 31.237342 60.351198 0 CFG=1
M  V30 2 O 37.874461 31.654820 61.443323 0
M  V30 3 C 38.546258 30.671919 55.272725 0 CFG=2
M  V30 4 C 38.820459 27.036782 54.649495 0
M  V30 5 C 39.666563 30.415991 61.122700 0 CFG=2
M  V30 6 O 38.293041 28.350291 54.738458 0
M  V30 7 C 39.268206 29.370448 54.894554 0
M  V30 8 O 41.249606 32.419728 66.581327 0 CHG=-1
M  V30 9 O 39.490694 31.738628 55.311789 0
M  V30 10 C 36.512769 30.367014 59.367642 0
M  V30 11 C 40.054711 31.320759 62.297588 0 CFG=2
M  V30 12 C 41.929692 32.829415 63.272884 0
M  V30 13 S 40.845251 35.737755 66.046304 0
M  V30 14 O 36.904019 23.843248 55.367735 0
M  V30 15 C 42.133027 33.283432 66.382162 0
M  V30 16 O 38.874973 32.100014 62.486918 0
M  V30 17 O 40.712360 30.055339 60.235603 0
M  V30 18 C 37.790573 30.553594 56.607788 0
M  V30 19 C 41.088754 33.820964 64.099616 0
M  V30 20 C 38.900685 29.269635 58.680614 0 CFG=2
M  V30 21 O 43.245138 33.337754 66.952171 0
M  V30 22 C 38.901770 33.027203 55.495338 0
M  V30 23 C 38.650755 30.506597 57.856055 0 CFG=2
M  V30 24 C 41.826327 34.376949 65.345828 0 CFG=1
M  V30 25 C 41.234289 32.280836 62.014136 0
M  V30 26 C 38.299344 27.939403 58.224801 0
M  V30 27 C 38.031915 30.409078 59.241746 0 CFG=2
M  V30 28 C 37.640448 26.068046 54.813472 0
M  V30 29 C 38.050374 24.663668 55.270002 0
M  V30 30 C 40.345823 29.116743 59.217359 0 CFG=2
M  V30 31 C 40.706345 27.737760 59.760094 0
M  V30 32 H 39.130274 32.119423 59.912953 0
M  V30 33 H 37.823200 30.886866 54.483547 0
M  V30 34 H 39.325824 26.884970 53.694773 0
M  V30 35 H 39.558884 26.865159 55.432871 0
M  V30 36 H 39.187119 29.519205 61.522007 0
M  V30 37 H 39.807827 29.499959 53.956538 0
M  V30 38 H 39.996713 29.110674 55.664215 0
M  V30 39 H 36.059932 29.635411 58.701689 0
M  V30 40 H 36.100755 31.344265 59.116187 0
M  V30 41 H 36.210530 30.137751 60.386793 0
M  V30 42 H 40.259396 30.713256 63.180071 0
M  V30 43 H 42.845107 33.332805 62.967686 0
M  V30 44 H 42.247201 31.990582 63.893341 0
M  V30 45 H 41.310969 36.693251 65.230096 0
M  V30 46 H 36.313608 24.219252 56.002689 0
M  V30 47 H 37.245159 31.473519 56.712537 0
M  V30 48 H 37.043205 29.764497 56.574601 0
M  V30 49 H 40.793880 34.650113 63.455213 0
M  V30 50 H 40.162085 33.335524 64.403872 0
M  V30 51 H 39.645033 33.808264 55.367768 0
M  V30 52 H 38.516287 33.168119 56.504265 0
M  V30 53 H 38.093157 33.210062 54.785465 0
M  V30 54 H 39.487622 31.187914 57.767756 0
M  V30 55 H 42.776671 34.809406 65.028506 0
M  V30 56 H 41.999718 31.747004 61.454725 0
M  V30 57 H 40.912710 33.097989 61.367555 0
M  V30 58 H 37.300990 28.043009 57.808834 0
M  V30 59 H 38.223944 27.240876 59.054682 0
M  V30 60 H 38.931478 27.489452 57.463976 0
M  V30 61 H 36.946925 26.474313 55.550466 0
M  V30 62 H 37.091917 26.013382 53.872361 0
M  V30 63 H 38.548256 24.702310 56.240061 0
M  V30 64 H 38.750761 24.217729 54.567784 0
M  V30 65 H 41.020561 29.300312 58.380224 0
M  V30 66 H 40.668466 26.986267 58.967772 0
M  V30 67 H 40.045132 27.436617 60.571075 0
M  V30 68 H 41.721414 27.737760 60.151150 0
M  V30 END ATOM
M  V30 BEGIN BOND
M  V30 1 1 2 1
M  V30 2 1 5 1
M  V30 3 1 6 4
M  V30 4 1 7 3
M  V30 5 1 7 6
M  V30 6 1 9 3
M  V30 7 1 11 5
M  V30 8 1 15 8
M  V30 9 1 16 2
M  V30 10 1 16 11
M  V30 11 1 17 5
M  V30 12 1 18 3
M  V30 13 1 19 12
M  V30 14 2 21 15
M  V30 15 1 22 9
M  V30 16 1 23 18
M  V30 17 1 23 20
M  V30 18 1 24 13
M  V30 19 1 24 15
M  V30 20 1 24 19
M  V30 21 1 25 11
M  V30 22 1 25 12
M  V30 23 1 20 26 CFG=3
M  V30 24 1 27 1
M  V30 25 1 27 10 CFG=3
M  V30 26 1 27 20
M  V30 27 1 27 23
M  V30 28 1 28 4
M  V30 29 1 29 14
M  V30 30 1 29 28
M  V30 31 1 30 17
M  V30 32 1 30 20
M  V30 33 1 31 30
M  V30 34 1 1 32 CFG=3
M  V30 35 1 3 33 CFG=3
M  V30 36 1 34 4
M  V30 37 1 35 4
M  V30 38 1 5 36 CFG=1
M  V30 39 1 37 7
M  V30 40 1 38 7
M  V30 41 1 39 10
M  V30 42 1 40 10
M  V30 43 1 41 10
M  V30 44 1 11 42 CFG=1
M  V30 45 1 43 12
M  V30 46 1 44 12
M  V30 47 1 45 13
M  V30 48 1 46 14
M  V30 49 1 47 18
M  V30 50 1 48 18
M  V30 51 1 49 19
M  V30 52 1 50 19
M  V30 53 1 51 22
M  V30 54 1 52 22
M  V30 55 1 53 22
M  V30 56 1 23 54 CFG=1
M  V30 57 1 24 55 CFG=3
M  V30 58 1 56 25
M  V30 59 1 57 25
M  V30 60 1 58 26
M  V30 61 1 59 26
M  V30 62 1 60 26
M  V30 63 1 61 28
M  V30 64 1 62 28
M  V30 65 1 63 29
M  V30 66 1 64 29
M  V30 67 1 30 65 CFG=3
M  V30 68 1 66 31
M  V30 69 1 67 31
M  V30 70 1 68 31
M  V30 END BOND
M  V30 END CTAB
M  END
>  <i_epik_Tot_Q>  (1) 
-1

>  <i_epik_Tot_abs_Q>  (1) 
1

>  <i_i_glide_confnum>  (1) 
1367

>  <i_i_glide_lignum>  (1) 
108

>  <i_i_glide_posenum>  (1) 
334

>  <i_i_glide_rotatable_bonds>  (1) 
15

>  <i_lp_mmshare_version>  (1) 
72125

>  <i_m_source_file_index>  (1) 
53

>  <i_f3d_flags>  (1) 
0

>  <num_sample>  (1) 
100

>  <b_lp_Chiralities_Consistent>  (1) 
1

>  <r_epik_Charging_Adjusted_Penalty>  (1) 
9.782978408037009e-05

>  <r_epik_Ionization_Penalty>  (1) 
0.00048272347956945452

>  <r_epik_Ionization_Penalty_Charging>  (1) 
9.782978408037009e-05

>  <r_epik_Ionization_Penalty_Neutral>  (1) 
0.00038489369548908443

>  <r_epik_State_Penalty>  (1) 
-0

>  <r_glide_ring_energy>  (1) 
0

>  <r_i_docking_score>  (1) 
-5.5599147570120149

>  <r_i_glide_ecoul>  (1) 
-3.637939743584381

>  <r_i_glide_eff_state_penalty>  (1) 
-0

>  <r_i_glide_einternal>  (1) 
3.6175539899232287

>  <r_i_glide_emodel>  (1) 
-48.527225938982284

>  <r_i_glide_emodel_strain>  (1) 
0.43799931582054086

>  <r_i_glide_energy>  (1) 
-38.89379764476967

>  <r_i_glide_erotb>  (1) 
1.0396015441343791

>  <r_i_glide_esite>  (1) 
0

>  <r_i_glide_evdw>  (1) 
-35.255857901185287

>  <r_i_glide_gscore>  (1) 
-5.5599147570120149

>  <r_i_glide_gscore_strain>  (1) 
0

>  <r_i_glide_hbond>  (1) 
-0.45983922237183072

>  <r_i_glide_ligand_efficiency>  (1) 
-0.17935208893587146

>  <r_i_glide_ligand_efficiency_ln>  (1) 
-1.2539311686303358

>  <r_i_glide_ligand_efficiency_sa>  (1) 
-0.56341318214912706

>  <r_i_glide_lipo>  (1) 
-2.7918429326765288

>  <r_i_glide_metal>  (1) 
-0

>  <r_i_glide_rewards>  (1) 
-1.0393502895011126

>  <r_lp_Energy>  (1) 
56.475065000000001

>  <r_lp_tautomer_probability>  (1) 
1

>  <s_epik_cmdline>  (1) 
J2VwaWtfcHl0aG9uJywgJy1waHQnLCAnMS4wJywgJy1waCcsICc3LjQnLCAnLXRuJywgJzgnLCAnLW1hJywgJzUwMCcsICctaW1hZScsICc8aW5maWxlLm1hZT4nLCAnLW9tYWUnLCAnPG91dGZpbGUubWFlPic=

>  <s_epik_input>  (1) 
W09IXUMoPU8pW0NASF0oW1NIXSlbQ0gyXVtDSDJdW0NIMl1bQ0BASF0oT08xKVtDQEhdKE9bQ0BIXTJbQ0gzXSlbQ0BIXTFbQ0BdKFtDSDNdKShbQ0BdMjNbQ0gzXSlbQ0BASF0zW0NIMl1bQ0BASF0oT1tDSDNdKVtDSDJdT1tDSDJdW0NIMl1bQ0gyXVtPSF0=

>  <s_glide_docking_method>  (1) 
confgen

>  <s_i_glide_gridfile>  (1) 
gpcr_5ht2c_6bqh_protein_autoprepared_prepared

>  <s_lp_Force_Field>  (1) 
S-OPLS

>  <s_lp_Variant>  (1) 
DiffSBDD_52-1

>  <s_m_source_file>  (1) 
generated_GPCR_5HT2C_ligand_DiffSBDD_2026-06-23_prepared.sdf

>  <GenAI_Model>  (1) 
DiffSBDD

>  <Protein>  (1) 
GPCR_5HT2C

$$$$
DiffSBDD_54
     RDKit          3D

  0  0  0  0  0  0  0  0  0  0999 V3000
M  V30 BEGIN CTAB
M  V30 COUNTS 42 43 0 0 1
M  V30 BEGIN ATOM
M  V30 1 C 37.367656 25.211507 55.127074 0
M  V30 2 C 39.441908 28.588491 58.590318 0
M  V30 3 C 37.645112 29.161548 56.961554 0
M  V30 4 C 39.895766 30.156872 52.175607 0
M  V30 5 C 38.909520 28.395060 53.746085 0
M  V30 6 S 38.917527 26.615338 56.776733 0 CHG=1
M  V30 7 C 37.463296 24.809876 57.605372 0
M  V30 8 N 38.669623 28.445733 59.649458 0
M  V30 9 C 40.130074 26.139227 53.959126 0
M  V30 10 C 39.604464 28.719773 60.632577 0
M  V30 11 N 40.844610 29.000919 60.194010 0
M  V30 12 N 40.685573 28.898114 58.867090 0
M  V30 13 N 38.009715 26.554698 55.276870 0 CFG=1 CHG=1
M  V30 14 C 38.774806 26.878750 54.024502 0 CFG=1
M  V30 15 C 36.577218 24.758046 56.359841 0
M  V30 16 C 39.307480 28.744999 52.299321 0
M  V30 17 O 37.896738 26.147692 57.762426 0
M  V30 18 C 38.973683 28.411713 57.172180 0 CFG=2
M  V30 19 H 38.125107 24.451580 54.934493 0
M  V30 20 H 36.716711 25.199345 54.255314 0
M  V30 21 H 37.755132 30.214209 57.225450 0
M  V30 22 H 36.855840 28.762194 57.600131 0
M  V30 23 H 37.285910 29.141209 55.938703 0
M  V30 24 H 40.079341 30.412872 51.131486 0
M  V30 25 H 40.844702 30.233301 52.701921 0
M  V30 26 H 39.244882 30.917662 52.601094 0
M  V30 27 H 39.642931 28.832779 54.418252 0
M  V30 28 H 37.961153 28.898218 53.930282 0
M  V30 29 H 36.880228 24.538481 58.481675 0
M  V30 30 H 38.300327 24.110410 57.548536 0
M  V30 31 H 40.572797 26.209669 52.969090 0
M  V30 32 H 40.043334 25.075783 54.167762 0
M  V30 33 H 40.845086 26.538971 54.671958 0
M  V30 34 H 39.365104 28.709478 61.686123 0
M  V30 35 H 41.440562 29.049863 58.212193 0
M  V30 36 H 38.172579 26.513363 53.190345 0
M  V30 37 H 35.683203 25.360190 56.522931 0
M  V30 38 H 36.225244 23.738913 56.194588 0
M  V30 39 H 40.047759 28.046866 51.914082 0
M  V30 40 H 38.437880 28.646124 51.647164 0
M  V30 41 H 39.729994 28.863785 56.534173 0
M  V30 42 H 37.243297 27.211307 55.320658 0
M  V30 END ATOM
M  V30 BEGIN BOND
M  V30 1 2 8 2
M  V30 2 1 10 8
M  V30 3 2 11 10
M  V30 4 1 12 2
M  V30 5 1 12 11
M  V30 6 1 13 1
M  V30 7 1 13 6
M  V30 8 1 14 5
M  V30 9 1 14 9
M  V30 10 1 14 13
M  V30 11 1 15 1
M  V30 12 1 15 7
M  V30 13 1 16 4
M  V30 14 1 16 5
M  V30 15 1 6 17 CFG=1
M  V30 16 1 17 7
M  V30 17 1 18 2
M  V30 18 1 18 3
M  V30 19 1 18 6
M  V30 20 1 19 1
M  V30 21 1 20 1
M  V30 22 1 21 3
M  V30 23 1 22 3
M  V30 24 1 23 3
M  V30 25 1 24 4
M  V30 26 1 25 4
M  V30 27 1 26 4
M  V30 28 1 27 5
M  V30 29 1 28 5
M  V30 30 1 29 7
M  V30 31 1 30 7
M  V30 32 1 31 9
M  V30 33 1 32 9
M  V30 34 1 33 9
M  V30 35 1 34 10
M  V30 36 1 35 12
M  V30 37 1 14 36 CFG=3
M  V30 38 1 37 15
M  V30 39 1 38 15
M  V30 40 1 39 16
M  V30 41 1 40 16
M  V30 42 1 18 41 CFG=3
M  V30 43 1 13 42 CFG=1
M  V30 END BOND
M  V30 END CTAB
M  END
>  <i_epik_Tot_Q>  (1) 
2

>  <i_epik_Tot_abs_Q>  (1) 
2

>  <i_i_glide_confnum>  (1) 
4

>  <i_i_glide_lignum>  (1) 
117

>  <i_i_glide_posenum>  (1) 
311

>  <i_i_glide_rotatable_bonds>  (1) 
5

>  <i_lp_mmshare_version>  (1) 
72125

>  <i_m_source_file_index>  (1) 
55

>  <i_f3d_flags>  (1) 
0

>  <num_sample>  (1) 
100

>  <b_lp_Chiralities_Consistent>  (1) 
1

>  <r_epik_Charging_Adjusted_Penalty>  (1) 
0.22285261290592212

>  <r_epik_Ionization_Penalty>  (1) 
0.11376846567106323

>  <r_epik_Ionization_Penalty_Charging>  (1) 
0.11142630645296109

>  <r_epik_Ionization_Penalty_Neutral>  (1) 
0.0023421592181021404

>  <r_epik_State_Penalty>  (1) 
0.11142630645296105

>  <r_glide_ring_energy>  (1) 
0

>  <r_i_docking_score>  (1) 
-5.5565834112473143

>  <r_i_glide_ecoul>  (1) 
-1.7530638519850397

>  <r_i_glide_eff_state_penalty>  (1) 
0.11142630645296105

>  <r_i_glide_einternal>  (1) 
2.5092522262739365

>  <r_i_glide_emodel>  (1) 
-43.196284864171808

>  <r_i_glide_emodel_strain>  (1) 
0.26468845159967458

>  <r_i_glide_energy>  (1) 
-26.517383085828207

>  <r_i_glide_erotb>  (1) 
0.96597774364564237

>  <r_i_glide_esite>  (1) 
0

>  <r_i_glide_evdw>  (1) 
-24.764319233843167

>  <r_i_glide_gscore>  (1) 
-5.6680097177002757

>  <r_i_glide_gscore_strain>  (1) 
0

>  <r_i_glide_hbond>  (1) 
-0.070955237133508556

>  <r_i_glide_ligand_efficiency>  (1) 
-0.30869907840262856

>  <r_i_glide_ligand_efficiency_ln>  (1) 
-1.4282911138168974

>  <r_i_glide_ligand_efficiency_sa>  (1) 
-0.80902045312390636

>  <r_i_glide_lipo>  (1) 
-2.4774729147656789

>  <r_i_glide_metal>  (1) 
-0

>  <r_i_glide_rewards>  (1) 
-2.5843837699568164

>  <r_lp_Energy>  (1) 
23.329950999999998

>  <r_lp_tautomer_probability>  (1) 
0.94828448534560383

>  <s_epik_cmdline>  (1) 
J2VwaWtfcHl0aG9uJywgJy1waHQnLCAnMS4wJywgJy1waCcsICc3LjQnLCAnLXRuJywgJzgnLCAnLW1hJywgJzUwMCcsICctaW1hZScsICc8aW5maWxlLm1hZT4nLCAnLW9tYWUnLCAnPG91dGZpbGUubWFlPic=

>  <s_epik_input>  (1) 
W0NIM11bQ0gyXVtDSDJdW0NASF0oW0NIM10pTihbQ0gyXVtDSDJdW0NIMl1PMSlbUytdMVtDQEBIXShbQ0gzXSljMm5bY0hdbltuSF0y

>  <s_glide_docking_method>  (1) 
confgen

>  <s_i_glide_gridfile>  (1) 
gpcr_5ht2c_6bqh_protein_autoprepared_prepared

>  <s_lp_Force_Field>  (1) 
S-OPLS

>  <s_lp_Variant>  (1) 
DiffSBDD_54-3

>  <s_m_source_file>  (1) 
generated_GPCR_5HT2C_ligand_DiffSBDD_2026-06-23_prepared.sdf

>  <GenAI_Model>  (1) 
DiffSBDD

>  <Protein>  (1) 
GPCR_5HT2C

$$$$
DiffSBDD_8
     RDKit          3D

  0  0  0  0  0  0  0  0  0  0999 V3000
M  V30 BEGIN CTAB
M  V30 COUNTS 46 50 0 0 1
M  V30 BEGIN ATOM
M  V30 1 C 38.988845 30.294749 55.350358 0
M  V30 2 O 36.290190 32.098564 61.263241 0
M  V30 3 C 39.380626 30.705883 54.136156 0
M  V30 4 C 37.909013 29.760547 59.767783 0
M  V30 5 N 38.255451 30.754754 58.762323 0
M  V30 6 C 37.171941 32.977046 59.082686 0
M  V30 7 C 38.796870 28.495595 59.583227 0
M  V30 8 C 39.331712 25.811549 57.353459 0
M  V30 9 N 38.643401 29.019068 55.686499 0
M  V30 10 C 34.678213 33.257453 59.792854 0
M  V30 11 C 38.165381 28.869766 57.119024 0 CFG=2
M  V30 12 N 40.445072 26.402392 57.186422 0
M  V30 13 C 35.474930 33.264712 61.082663 0 CFG=1
M  V30 14 C 35.986621 32.501880 59.909963 0 CFG=1
M  V30 15 C 38.879385 31.097372 56.449503 0
M  V30 16 N 40.297050 27.657636 57.670815 0
M  V30 17 C 38.451548 30.363770 57.456347 0
M  V30 18 C 38.232837 26.532774 58.007894 0
M  V30 19 C 36.119667 34.538066 61.588965 0
M  V30 20 C 38.440818 32.125712 59.225557 0
M  V30 21 C 41.537841 28.301012 58.094107 0
M  V30 22 C 38.898750 27.924072 58.110048 0 CFG=1
M  V30 23 H 39.447382 30.015078 53.308881 0
M  V30 24 H 39.639425 31.737814 53.954675 0
M  V30 25 H 36.855698 29.504241 59.647812 0
M  V30 26 H 38.027769 30.153812 60.777677 0
M  V30 27 H 37.414726 34.006415 59.340120 0
M  V30 28 H 36.858631 33.006509 58.039905 0
M  V30 29 H 38.445559 27.737697 60.281027 0
M  V30 30 H 39.787531 28.754902 59.952335 0
M  V30 31 H 39.182768 24.782615 57.025239 0
M  V30 32 H 38.538147 28.273613 55.014666 0
M  V30 33 H 34.663632 34.156260 59.179276 0
M  V30 34 H 33.768438 32.663377 59.766835 0
M  V30 35 H 39.131311 32.146168 56.491571 0
M  V30 36 H 37.321269 26.511602 57.409737 0
M  V30 37 H 38.045129 26.062316 58.967733 0
M  V30 38 H 35.645439 34.856369 62.518800 0
M  V30 39 H 37.181569 34.371805 61.768233 0
M  V30 40 H 36.045088 35.337300 60.851668 0
M  V30 41 H 38.770215 32.129467 60.264940 0
M  V30 42 H 39.245228 32.598374 58.665435 0
M  V30 43 H 41.342603 29.337859 58.359511 0
M  V30 44 H 41.949190 27.784870 58.962266 0
M  V30 45 H 42.268411 28.272708 57.285269 0
M  V30 46 H 37.086219 28.745478 57.164263 0
M  V30 END ATOM
M  V30 BEGIN BOND
M  V30 1 2 3 1
M  V30 2 1 5 4
M  V30 3 1 7 4
M  V30 4 1 9 1
M  V30 5 1 11 9
M  V30 6 2 12 8
M  V30 7 1 13 2
M  V30 8 1 13 10
M  V30 9 1 14 2
M  V30 10 1 14 6 CFG=1
M  V30 11 1 14 10
M  V30 12 1 14 13
M  V30 13 1 15 1
M  V30 14 1 16 12
M  V30 15 1 17 5
M  V30 16 1 17 11
M  V30 17 2 17 15
M  V30 18 1 18 8
M  V30 19 1 13 19 CFG=3
M  V30 20 1 20 5
M  V30 21 1 20 6
M  V30 22 1 21 16
M  V30 23 1 22 7
M  V30 24 1 22 11
M  V30 25 1 22 16 CFG=3
M  V30 26 1 22 18
M  V30 27 1 23 3
M  V30 28 1 24 3
M  V30 29 1 25 4
M  V30 30 1 26 4
M  V30 31 1 27 6
M  V30 32 1 28 6
M  V30 33 1 29 7
M  V30 34 1 30 7
M  V30 35 1 31 8
M  V30 36 1 32 9
M  V30 37 1 33 10
M  V30 38 1 34 10
M  V30 39 1 35 15
M  V30 40 1 36 18
M  V30 41 1 37 18
M  V30 42 1 38 19
M  V30 43 1 39 19
M  V30 44 1 40 19
M  V30 45 1 41 20
M  V30 46 1 42 20
M  V30 47 1 43 21
M  V30 48 1 44 21
M  V30 49 1 45 21
M  V30 50 1 11 46 CFG=3
M  V30 END BOND
M  V30 END CTAB
M  END
>  <i_epik_Tot_Q>  (1) 
0

>  <i_epik_Tot_abs_Q>  (1) 
0

>  <i_i_glide_confnum>  (1) 
17

>  <i_i_glide_lignum>  (1) 
12

>  <i_i_glide_posenum>  (1) 
303

>  <i_i_glide_rotatable_bonds>  (1) 
3

>  <i_lp_mmshare_version>  (1) 
72125

>  <i_m_source_file_index>  (1) 
9

>  <i_f3d_flags>  (1) 
0

>  <num_sample>  (1) 
100

>  <b_lp_Chiralities_Consistent>  (1) 
1

>  <r_epik_Charging_Adjusted_Penalty>  (1) 
0.0013502642422006258

>  <r_epik_Ionization_Penalty>  (1) 
0.0017789760984620326

>  <r_epik_Ionization_Penalty_Charging>  (1) 
0.0013502642422006258

>  <r_epik_Ionization_Penalty_Neutral>  (1) 
0.00042871185626140696

>  <r_epik_State_Penalty>  (1) 
-0

>  <r_glide_ring_energy>  (1) 
0

>  <r_i_docking_score>  (1) 
-5.553659565728692

>  <r_i_glide_ecoul>  (1) 
-0.29020868701455571

>  <r_i_glide_eff_state_penalty>  (1) 
-0

>  <r_i_glide_einternal>  (1) 
4.0381019259486735

>  <r_i_glide_emodel>  (1) 
-40.486875678910579

>  <r_i_glide_emodel_strain>  (1) 
0.48175877606354334

>  <r_i_glide_energy>  (1) 
-33.256414705888147

>  <r_i_glide_erotb>  (1) 
0.61104831889555555

>  <r_i_glide_esite>  (1) 
-0.042922748614914741

>  <r_i_glide_evdw>  (1) 
-32.966206018873592

>  <r_i_glide_gscore>  (1) 
-5.553659565728692

>  <r_i_glide_gscore_strain>  (1) 
0

>  <r_i_glide_hbond>  (1) 
-0.14409003448746002

>  <r_i_glide_ligand_efficiency>  (1) 
-0.252439071169486

>  <r_i_glide_ligand_efficiency_ln>  (1) 
-1.3575169725187577

>  <r_i_glide_ligand_efficiency_sa>  (1) 
-0.70734420601101422

>  <r_i_glide_lipo>  (1) 
-1.8979527601999489

>  <r_i_glide_metal>  (1) 
-0

>  <r_i_glide_rewards>  (1) 
-2.3879007373260617

>  <r_lp_Energy>  (1) 
31.245733999999999

>  <r_lp_tautomer_probability>  (1) 
1

>  <s_epik_Chemistry_Notes>  (1) 
This compound has an imine and may undergo hydrolysis.

>  <s_epik_cmdline>  (1) 
J2VwaWtfcHl0aG9uJywgJy1waHQnLCAnMS4wJywgJy1waCcsICc3LjQnLCAnLXRuJywgJzgnLCAnLW1hJywgJzUwMCcsICctaW1hZScsICc8aW5maWxlLm1hZT4nLCAnLW9tYWUnLCAnPG91dGZpbGUubWFlPic=

>  <s_epik_input>  (1) 
W0NIM11bQ0BAXTEyW0NAQF0oTzEpKFtDSDJdMilbQ0gyXVtDSDJdTihbQ0gyXVtDSDJdMyljKFtjSF1jKFtDSDNdKVtuSF00KWM0W0NAQF0zNU4oW0NIM10pTj1bQ0hdW0NIMl01

>  <s_glide_docking_method>  (1) 
confgen

>  <s_i_glide_gridfile>  (1) 
gpcr_5ht2c_6bqh_protein_autoprepared_prepared

>  <s_lp_Force_Field>  (1) 
S-OPLS

>  <s_lp_Variant>  (1) 
DiffSBDD_8-2

>  <s_m_source_file>  (1) 
generated_GPCR_5HT2C_ligand_DiffSBDD_2026-06-23_prepared.sdf

>  <GenAI_Model>  (1) 
DiffSBDD

>  <Protein>  (1) 
GPCR_5HT2C

$$$$
DiffSBDD_93
     RDKit          3D

  0  0  0  0  0  0  0  0  0  0999 V3000
M  V30 BEGIN CTAB
M  V30 COUNTS 84 85 0 0 1
M  V30 BEGIN ATOM
M  V30 1 C 39.185448 31.994713 60.663555 0
M  V30 2 O 38.845156 32.570570 59.417967 0
M  V30 3 C 39.082850 28.799738 54.574059 0
M  V30 4 C 44.874567 30.429926 66.268487 0
M  V30 5 O 40.054055 28.657078 61.784066 0
M  V30 6 C 41.046460 29.500707 67.096738 0
M  V30 7 N 41.645111 28.355569 67.424537 0
M  V30 8 O 39.894302 29.548347 66.671584 0
M  V30 9 O 37.645137 30.817271 57.310337 0
M  V30 10 C 45.841905 31.592007 66.260939 0
M  V30 11 C 39.608679 28.763472 56.005030 0
M  V30 12 C 39.754520 30.631484 63.128785 0
M  V30 13 C 39.564718 29.856662 59.334529 0
M  V30 14 C 42.460568 31.355338 65.936697 0 CFG=2
M  V30 15 C 41.865579 30.789283 67.280301 0 CFG=1
M  V30 16 C 38.558629 26.697774 55.739055 0 CFG=1
M  V30 17 C 38.753897 27.646455 58.137726 0 CFG=1
M  V30 18 C 40.054120 26.941410 58.547050 0
M  V30 19 C 41.114727 30.550393 63.848770 0
M  V30 20 S 36.915213 29.737776 58.411538 0 CHG=1
M  V30 21 O 42.020198 34.137009 64.812987 0
M  V30 22 N 39.501267 30.543679 60.647597 0
M  V30 23 O 36.481522 30.730645 59.718185 0
M  V30 24 O 37.251124 27.481001 53.786208 0
M  V30 25 F 37.624061 25.058148 57.179018 0
M  V30 26 C 45.114509 31.256392 67.525618 0
M  V30 27 C 41.786003 32.980696 64.031060 0
M  V30 28 C 41.398231 31.715428 64.841028 0 CFG=2
M  V30 29 C 39.779287 29.857293 61.789726 0
M  V30 30 C 41.046592 31.783955 68.145596 0
M  V30 31 C 37.366575 24.535510 54.972479 0
M  V30 32 C 38.393670 28.873162 59.046850 0 CFG=2
M  V30 33 O 42.439922 33.337568 69.269732 0
M  V30 34 C 43.625976 30.490197 65.395194 0
M  V30 35 C 37.424470 25.664777 56.009299 0 CFG=2
M  V30 36 C 41.674713 33.164370 68.297055 0
M  V30 37 C 38.550800 27.372205 54.336766 0 CFG=1
M  V30 38 O 41.377483 34.018872 67.432970 0 CHG=-1
M  V30 39 N 38.630809 27.867512 56.658057 0 CFG=1 CHG=1
M  V30 40 H 38.323715 32.170140 61.309216 0
M  V30 41 H 40.029185 32.558173 61.065888 0
M  V30 42 H 38.104520 33.147444 59.537359 0
M  V30 43 H 38.265344 29.523091 54.533175 0
M  V30 44 H 39.808514 29.139391 53.839929 0
M  V30 45 H 45.351648 29.451923 66.247524 0
M  V30 46 H 42.591374 28.362647 67.773879 0
M  V30 47 H 41.141451 27.484937 67.333815 0
M  V30 48 H 36.914103 31.337787 56.967800 0
M  V30 49 H 46.892202 31.337760 66.196430 0
M  V30 50 H 45.548265 32.515663 65.767755 0
M  V30 51 H 39.681146 29.759922 56.429082 0
M  V30 52 H 40.609831 28.330084 56.034253 0
M  V30 53 H 39.438066 31.665772 63.066911 0
M  V30 54 H 39.004793 30.165415 63.764706 0
M  V30 55 H 40.523512 29.340276 59.319819 0
M  V30 56 H 39.645131 30.537764 58.503934 0
M  V30 57 H 42.951969 32.290681 66.187506 0
M  V30 58 H 42.695610 30.508925 67.924043 0
M  V30 59 H 39.507189 26.164746 55.833042 0
M  V30 60 H 37.960024 26.950453 58.389464 0
M  V30 61 H 40.107811 26.937750 59.634620 0
M  V30 62 H 40.089249 25.908404 58.199291 0
M  V30 63 H 40.945972 27.447472 58.177926 0
M  V30 64 H 41.146603 29.588452 64.357064 0
M  V30 65 H 41.924686 30.504868 63.119036 0
M  V30 66 H 41.690749 34.017708 65.708705 0
M  V30 67 H 35.606923 31.036938 59.523011 0
M  V30 68 H 37.321889 27.582409 52.845973 0
M  V30 69 H 44.394552 31.999248 67.857500 0
M  V30 70 H 45.645165 30.759387 68.329247 0
M  V30 71 H 42.670790 32.791345 63.424310 0
M  V30 72 H 40.993547 33.237045 63.329494 0
M  V30 73 H 40.467495 31.950469 65.358758 0
M  V30 74 H 40.045148 31.909354 67.753814 0
M  V30 75 H 40.924550 31.373330 69.147182 0
M  V30 76 H 37.039183 24.903802 54.001178 0
M  V30 77 H 38.344194 24.071587 54.848519 0
M  V30 78 H 36.660922 23.761066 55.277295 0
M  V30 79 H 38.086339 28.444705 60.000369 0
M  V30 80 H 43.289974 29.466506 65.229274 0
M  V30 81 H 43.936934 30.861024 64.418730 0
M  V30 82 H 36.445459 26.137744 56.071032 0
M  V30 83 H 39.185842 26.812841 53.647824 0
M  V30 84 H 37.742596 28.320921 56.505538 0
M  V30 END ATOM
M  V30 BEGIN BOND
M  V30 1 1 2 1
M  V30 2 1 7 6
M  V30 3 2 8 6
M  V30 4 1 10 4
M  V30 5 1 11 3
M  V30 6 1 15 6
M  V30 7 1 15 14
M  V30 8 1 18 17
M  V30 9 1 19 12
M  V30 10 1 20 9
M  V30 11 1 22 1
M  V30 12 1 22 13
M  V30 13 1 23 20
M  V30 14 1 26 4
M  V30 15 1 26 10
M  V30 16 1 27 21
M  V30 17 1 28 14
M  V30 18 1 28 19
M  V30 19 1 28 27
M  V30 20 2 29 5
M  V30 21 1 29 12
M  V30 22 1 29 22
M  V30 23 1 30 15
M  V30 24 1 32 13
M  V30 25 1 32 17
M  V30 26 1 32 20
M  V30 27 1 34 4
M  V30 28 1 34 14
M  V30 29 1 35 16
M  V30 30 1 35 25
M  V30 31 1 35 31
M  V30 32 1 36 30
M  V30 33 2 36 33
M  V30 34 1 37 3
M  V30 35 1 37 16
M  V30 36 1 37 24
M  V30 37 1 38 36
M  V30 38 1 39 11
M  V30 39 1 39 16
M  V30 40 1 39 17
M  V30 41 1 40 1
M  V30 42 1 41 1
M  V30 43 1 42 2
M  V30 44 1 43 3
M  V30 45 1 44 3
M  V30 46 1 45 4
M  V30 47 1 46 7
M  V30 48 1 47 7
M  V30 49 1 48 9
M  V30 50 1 49 10
M  V30 51 1 50 10
M  V30 52 1 51 11
M  V30 53 1 52 11
M  V30 54 1 53 12
M  V30 55 1 54 12
M  V30 56 1 55 13
M  V30 57 1 56 13
M  V30 58 1 14 57 CFG=1
M  V30 59 1 15 58 CFG=1
M  V30 60 1 16 59 CFG=3
M  V30 61 1 17 60 CFG=1
M  V30 62 1 61 18
M  V30 63 1 62 18
M  V30 64 1 63 18
M  V30 65 1 64 19
M  V30 66 1 65 19
M  V30 67 1 66 21
M  V30 68 1 67 23
M  V30 69 1 68 24
M  V30 70 1 69 26
M  V30 71 1 70 26
M  V30 72 1 71 27
M  V30 73 1 72 27
M  V30 74 1 28 73 CFG=1
M  V30 75 1 74 30
M  V30 76 1 75 30
M  V30 77 1 76 31
M  V30 78 1 77 31
M  V30 79 1 78 31
M  V30 80 1 32 79 CFG=1
M  V30 81 1 80 34
M  V30 82 1 81 34
M  V30 83 1 35 82 CFG=1
M  V30 84 1 37 83 CFG=3
M  V30 85 1 39 84 CFG=1
M  V30 END BOND
M  V30 END CTAB
M  END
>  <i_epik_Tot_Q>  (1) 
1

>  <i_epik_Tot_abs_Q>  (1) 
3

>  <i_i_glide_confnum>  (1) 
9933

>  <i_i_glide_lignum>  (1) 
224

>  <i_i_glide_posenum>  (1) 
38

>  <i_i_glide_rotatable_bonds>  (1) 
24

>  <i_lp_mmshare_version>  (1) 
72125

>  <i_m_source_file_index>  (1) 
94

>  <i_f3d_flags>  (1) 
0

>  <num_sample>  (1) 
100

>  <b_lp_Chiralities_Consistent>  (1) 
1

>  <r_epik_Charging_Adjusted_Penalty>  (1) 
0.90916677635763199

>  <r_epik_Ionization_Penalty>  (1) 
0.45507897092921873

>  <r_epik_Ionization_Penalty_Charging>  (1) 
0.45507471778648678

>  <r_epik_Ionization_Penalty_Neutral>  (1) 
4.2531427319391784e-06

>  <r_epik_State_Penalty>  (1) 
0.45409205857114521

>  <r_glide_ring_energy>  (1) 
0

>  <r_i_docking_score>  (1) 
-5.5497800085558993

>  <r_i_glide_ecoul>  (1) 
-5.8857422907367347

>  <r_i_glide_eff_state_penalty>  (1) 
0.45409205857114521

>  <r_i_glide_einternal>  (1) 
20.150536704358352

>  <r_i_glide_emodel>  (1) 
-58.651797706384301

>  <r_i_glide_emodel_strain>  (1) 
8.1161004661227594

>  <r_i_glide_energy>  (1) 
-49.817472747141039

>  <r_i_glide_erotb>  (1) 
0.82188833391367333

>  <r_i_glide_esite>  (1) 
-0.092302169486705471

>  <r_i_glide_evdw>  (1) 
-43.931730456404303

>  <r_i_glide_gscore>  (1) 
-6.0038720671270447

>  <r_i_glide_gscore_strain>  (1) 
1.0290251165306898

>  <r_i_glide_hbond>  (1) 
-0.16

>  <r_i_glide_ligand_efficiency>  (1) 
-0.14230205150143332

>  <r_i_glide_ligand_efficiency_ln>  (1) 
-1.1900303737084161

>  <r_i_glide_ligand_efficiency_sa>  (1) 
-0.48257634541605199

>  <r_i_glide_lipo>  (1) 
-3.1427821336464405

>  <r_i_glide_metal>  (1) 
-0

>  <r_i_glide_rewards>  (1) 
-1.3802533480075359

>  <r_lp_Energy>  (1) 
27.571353999999999

>  <s_epik_Chemistry_Notes>  (1) 
This compound contains an acetal/aminal-like group ( X-CH(R)-Y where X, Y are N, S, or O) that may be acid/base labile, releasing an aldehyde.

>  <s_epik_cmdline>  (1) 
J2VwaWtfcHl0aG9uJywgJy1waHQnLCAnMS4wJywgJy1waCcsICc3LjQnLCAnLXRuJywgJzgnLCAnLW1hJywgJzUwMCcsICctaW1hZScsICc8aW5maWxlLm1hZT4nLCAnLW9tYWUnLCAnPG91dGZpbGUubWFlPic=

>  <s_epik_input>  (1) 
W0NIMl0xW0NIMl1bQ0hdMVtDSDJdW0NAQEhdKFtDQEBIXShDKD1PKVtOSDJdKVtDSDJdQyg9TylbT0hdKVtDQEBIXShbQ0gyXVtPSF0pW0NIMl1bQ0gyXUMoPU8pTihbQ0gyXVtPSF0pW0NIMl1bQ0BASF0oW1MrXShbT0hdKVtPSF0pW0NASF0oW0NIM10pTjJbQ0gyXVtDSDJdW0NASF0oW09IXSlbQ0BASF0yW0NASF0oRilbQ0gzXQ==

>  <s_glide_docking_method>  (1) 
confgen

>  <s_i_glide_gridfile>  (1) 
gpcr_5ht2c_6bqh_protein_autoprepared_prepared

>  <s_lp_Force_Field>  (1) 
S-OPLS

>  <s_lp_Variant>  (1) 
DiffSBDD_93-12

>  <s_m_source_file>  (1) 
generated_GPCR_5HT2C_ligand_DiffSBDD_2026-06-23_prepared.sdf

>  <GenAI_Model>  (1) 
DiffSBDD

>  <Protein>  (1) 
GPCR_5HT2C

$$$$
DiffSBDD_52
     RDKit          3D

  0  0  0  0  0  0  0  0  0  0999 V3000
M  V30 BEGIN CTAB
M  V30 COUNTS 68 70 0 0 1
M  V30 BEGIN ATOM
M  V30 1 C 38.244960 30.985903 60.019154 0 CFG=1
M  V30 2 O 37.277305 31.300830 60.991397 0
M  V30 3 C 38.359363 31.176248 55.112241 0 CFG=2
M  V30 4 C 39.393836 29.681613 52.703701 0
M  V30 5 C 39.250565 30.302355 60.914877 0 CFG=2
M  V30 6 O 39.982571 30.837032 53.287076 0
M  V30 7 C 39.826409 30.936873 54.695594 0
M  V30 8 O 40.845216 31.614120 65.988786 0 CHG=-1
M  V30 9 O 38.045704 32.560954 55.257103 0
M  V30 10 C 36.360952 29.798843 58.892827 0
M  V30 11 C 39.383793 31.281097 62.076322 0 CFG=2
M  V30 12 C 40.629030 33.283495 63.072827 0
M  V30 13 S 42.045011 35.250786 65.138541 0
M  V30 14 O 39.561049 27.227439 50.967760 0
M  V30 15 C 41.245198 32.774445 66.230980 0
M  V30 16 O 38.065418 31.822141 62.168405 0
M  V30 17 O 40.428924 30.054947 60.167833 0
M  V30 18 C 37.892769 30.194535 56.206589 0
M  V30 19 C 41.951567 32.879429 63.754037 0
M  V30 20 C 38.897347 29.069917 58.422887 0 CFG=2
M  V30 21 O 40.968902 33.444051 67.251007 0
M  V30 22 C 38.316496 33.199659 56.490598 0
M  V30 23 C 38.606389 30.279966 57.552500 0 CFG=2
M  V30 24 C 42.162005 33.436991 65.185356 0 CFG=1
M  V30 25 C 40.343878 32.459189 61.810026 0
M  V30 26 C 38.481596 27.680185 57.934773 0
M  V30 27 C 37.854397 30.092777 58.864768 0 CFG=2
M  V30 28 C 39.852352 29.594290 51.250110 0
M  V30 29 C 39.128605 28.477785 50.498612 0
M  V30 30 C 40.278749 29.070779 59.133657 0 CFG=2
M  V30 31 C 40.718344 27.737926 59.738237 0
M  V30 32 H 38.640204 31.918571 59.615634 0
M  V30 33 H 37.714989 30.936240 54.272355 0
M  V30 34 H 39.645142 28.774678 53.251599 0
M  V30 35 H 38.308669 29.730014 52.713298 0
M  V30 36 H 38.845218 29.362850 61.295760 0
M  V30 37 H 40.460552 31.737814 55.068798 0
M  V30 38 H 40.218546 30.023549 55.145674 0
M  V30 39 H 36.045175 29.145268 58.086751 0
M  V30 40 H 35.798577 30.727292 58.826036 0
M  V30 41 H 36.084349 29.337006 59.830822 0
M  V30 42 H 39.661350 30.757140 62.992791 0
M  V30 43 H 39.794282 33.194062 63.768100 0
M  V30 44 H 40.678573 34.337295 62.797330 0
M  V30 45 H 40.750988 35.290325 65.469457 0
M  V30 46 H 39.243727 26.552507 50.382546 0
M  V30 47 H 36.836263 30.338614 56.350259 0
M  V30 48 H 38.002327 29.187707 55.807337 0
M  V30 49 H 42.027932 31.791321 63.778977 0
M  V30 50 H 42.775985 33.202863 63.118737 0
M  V30 51 H 38.076232 34.258113 56.396806 0
M  V30 52 H 39.366506 33.116793 56.768136 0
M  V30 53 H 37.690871 32.801079 57.289163 0
M  V30 54 H 39.415226 31.002268 57.550770 0
M  V30 55 H 43.181561 33.200154 65.489150 0
M  V30 56 H 41.285741 32.102716 61.391954 0
M  V30 57 H 39.916664 33.114959 61.051468 0
M  V30 58 H 37.532560 27.696068 57.404005 0
M  V30 59 H 38.363534 26.993026 58.771867 0
M  V30 60 H 39.230853 27.279364 57.251725 0
M  V30 61 H 39.645162 30.543906 50.755160 0
M  V30 62 H 40.932390 29.452669 51.199638 0
M  V30 63 H 39.333846 28.557827 49.433258 0
M  V30 64 H 38.048718 28.537806 50.637968 0
M  V30 65 H 41.023524 29.317843 58.377004 0
M  V30 66 H 40.816461 26.971802 58.967629 0
M  V30 67 H 40.031183 27.385683 60.503471 0
M  V30 68 H 41.691844 27.840774 60.211231 0
M  V30 END ATOM
M  V30 BEGIN BOND
M  V30 1 1 2 1
M  V30 2 1 5 1
M  V30 3 1 6 4
M  V30 4 1 7 3
M  V30 5 1 7 6
M  V30 6 1 9 3
M  V30 7 1 11 5
M  V30 8 1 15 8
M  V30 9 1 16 2
M  V30 10 1 16 11
M  V30 11 1 17 5
M  V30 12 1 18 3
M  V30 13 1 19 12
M  V30 14 2 21 15
M  V30 15 1 22 9
M  V30 16 1 23 18
M  V30 17 1 23 20
M  V30 18 1 24 13
M  V30 19 1 24 15
M  V30 20 1 24 19
M  V30 21 1 25 11
M  V30 22 1 25 12
M  V30 23 1 20 26 CFG=3
M  V30 24 1 27 1
M  V30 25 1 27 10 CFG=3
M  V30 26 1 27 20
M  V30 27 1 27 23
M  V30 28 1 28 4
M  V30 29 1 29 14
M  V30 30 1 29 28
M  V30 31 1 30 17
M  V30 32 1 30 20
M  V30 33 1 31 30
M  V30 34 1 1 32 CFG=3
M  V30 35 1 3 33 CFG=3
M  V30 36 1 34 4
M  V30 37 1 35 4
M  V30 38 1 5 36 CFG=1
M  V30 39 1 37 7
M  V30 40 1 38 7
M  V30 41 1 39 10
M  V30 42 1 40 10
M  V30 43 1 41 10
M  V30 44 1 11 42 CFG=1
M  V30 45 1 43 12
M  V30 46 1 44 12
M  V30 47 1 45 13
M  V30 48 1 46 14
M  V30 49 1 47 18
M  V30 50 1 48 18
M  V30 51 1 49 19
M  V30 52 1 50 19
M  V30 53 1 51 22
M  V30 54 1 52 22
M  V30 55 1 53 22
M  V30 56 1 23 54 CFG=1
M  V30 57 1 24 55 CFG=1
M  V30 58 1 56 25
M  V30 59 1 57 25
M  V30 60 1 58 26
M  V30 61 1 59 26
M  V30 62 1 60 26
M  V30 63 1 61 28
M  V30 64 1 62 28
M  V30 65 1 63 29
M  V30 66 1 64 29
M  V30 67 1 30 65 CFG=3
M  V30 68 1 66 31
M  V30 69 1 67 31
M  V30 70 1 68 31
M  V30 END BOND
M  V30 END CTAB
M  END
>  <i_epik_Tot_Q>  (1) 
-1

>  <i_epik_Tot_abs_Q>  (1) 
1

>  <i_i_glide_confnum>  (1) 
1136

>  <i_i_glide_lignum>  (1) 
108

>  <i_i_glide_posenum>  (1) 
116

>  <i_i_glide_rotatable_bonds>  (1) 
15

>  <i_lp_mmshare_version>  (1) 
72125

>  <i_m_source_file_index>  (1) 
53

>  <i_f3d_flags>  (1) 
0

>  <num_sample>  (1) 
100

>  <b_lp_Chiralities_Consistent>  (1) 
1

>  <r_epik_Charging_Adjusted_Penalty>  (1) 
9.782978408037009e-05

>  <r_epik_Ionization_Penalty>  (1) 
0.00048272347956945452

>  <r_epik_Ionization_Penalty_Charging>  (1) 
9.782978408037009e-05

>  <r_epik_Ionization_Penalty_Neutral>  (1) 
0.00038489369548908443

>  <r_epik_State_Penalty>  (1) 
-0

>  <r_glide_ring_energy>  (1) 
0

>  <r_i_docking_score>  (1) 
-5.5397566800831575

>  <r_i_glide_ecoul>  (1) 
-2.4951970251169313

>  <r_i_glide_eff_state_penalty>  (1) 
-0

>  <r_i_glide_einternal>  (1) 
32.298143199647008

>  <r_i_glide_emodel>  (1) 
-34.88375760527579

>  <r_i_glide_emodel_strain>  (1) 
2.9974181367818886

>  <r_i_glide_energy>  (1) 
-42.193115713510032

>  <r_i_glide_erotb>  (1) 
1.0396015441343791

>  <r_i_glide_esite>  (1) 
-0.014052362844446234

>  <r_i_glide_evdw>  (1) 
-39.697918688393102

>  <r_i_glide_gscore>  (1) 
-5.5397566800831575

>  <r_i_glide_gscore_strain>  (1) 
0

>  <r_i_glide_hbond>  (1) 
-0.21626983836314373

>  <r_i_glide_ligand_efficiency>  (1) 
-0.17870182838977927

>  <r_i_glide_ligand_efficiency_ln>  (1) 
-1.249384904512012

>  <r_i_glide_ligand_efficiency_sa>  (1) 
-0.5613704662506197

>  <r_i_glide_lipo>  (1) 
-2.8938703917544553

>  <r_i_glide_metal>  (1) 
-0

>  <r_i_glide_rewards>  (1) 
-1.095990143068295

>  <r_lp_Energy>  (1) 
56.475065000000001

>  <r_lp_tautomer_probability>  (1) 
1

>  <s_epik_cmdline>  (1) 
J2VwaWtfcHl0aG9uJywgJy1waHQnLCAnMS4wJywgJy1waCcsICc3LjQnLCAnLXRuJywgJzgnLCAnLW1hJywgJzUwMCcsICctaW1hZScsICc8aW5maWxlLm1hZT4nLCAnLW9tYWUnLCAnPG91dGZpbGUubWFlPic=

>  <s_epik_input>  (1) 
W09IXUMoPU8pW0NASF0oW1NIXSlbQ0gyXVtDSDJdW0NIMl1bQ0BASF0oT08xKVtDQEhdKE9bQ0BIXTJbQ0gzXSlbQ0BIXTFbQ0BdKFtDSDNdKShbQ0BdMjNbQ0gzXSlbQ0BASF0zW0NIMl1bQ0BASF0oT1tDSDNdKVtDSDJdT1tDSDJdW0NIMl1bQ0gyXVtPSF0=

>  <s_glide_docking_method>  (1) 
confgen

>  <s_i_glide_gridfile>  (1) 
gpcr_5ht2c_6bqh_protein_autoprepared_prepared

>  <s_lp_Force_Field>  (1) 
S-OPLS

>  <s_lp_Variant>  (1) 
DiffSBDD_52-1

>  <s_m_source_file>  (1) 
generated_GPCR_5HT2C_ligand_DiffSBDD_2026-06-23_prepared.sdf

>  <GenAI_Model>  (1) 
DiffSBDD

>  <Protein>  (1) 
GPCR_5HT2C

$$$$
DiffSBDD_20
     RDKit          3D

  0  0  0  0  0  0  0  0  0  0999 V3000
M  V30 BEGIN CTAB
M  V30 COUNTS 52 53 0 0 1
M  V30 BEGIN ATOM
M  V30 1 C 38.448510 30.315069 56.645881 0 CFG=2
M  V30 2 O 40.444811 30.140325 55.151709 0
M  V30 3 O 37.896920 29.966854 59.721452 0
M  V30 4 P 39.279769 29.405791 59.997921 0
M  V30 5 C 38.256833 30.429666 54.142819 0 CFG=1
M  V30 6 N 38.699435 24.936517 55.427075 0
M  V30 7 C 39.579745 28.997022 52.396959 0
M  V30 8 C 40.430359 29.403671 50.022189 0
M  V30 9 C 38.827168 28.961225 57.233111 0
M  V30 10 C 40.612890 27.438386 58.392801 0 CFG=2
M  V30 11 N 37.066728 30.137749 56.205384 0 CHG=1
M  V30 12 C 39.197116 30.746678 55.338274 0
M  V30 13 F 40.184700 25.754826 53.825517 0
M  V30 14 C 39.344363 29.686682 51.048248 0
M  V30 15 C 39.760044 25.722291 55.108125 0
M  V30 16 O 39.232747 28.176695 60.875519 0 CHG=-1
M  V30 17 O 40.221547 30.450929 60.564481 0 CHG=-1
M  V30 18 C 39.977942 26.510388 57.379724 0
M  V30 19 C 40.424208 26.509675 56.052154 0
M  V30 20 C 39.950604 28.864922 58.326243 0 CFG=2
M  V30 21 C 38.291033 24.924601 56.719903 0
M  V30 22 O 37.263767 28.537139 52.853722 0
M  V30 23 C 38.894025 25.695649 57.728721 0
M  V30 24 C 38.448260 29.038909 53.451303 0 CFG=2
M  V30 25 C 36.906216 30.612184 54.826401 0
M  V30 26 O 42.010385 27.574878 58.168752 0
M  V30 27 O 39.326756 32.147260 55.409316 0
M  V30 28 H 38.492171 31.088457 57.413321 0
M  V30 29 H 40.811765 29.947651 56.001235 0
M  V30 30 H 38.372843 31.190048 53.376563 0
M  V30 31 H 40.444696 29.499561 52.795461 0
M  V30 32 H 39.859574 27.957771 52.224984 0
M  V30 33 H 40.206344 29.898900 49.078479 0
M  V30 34 H 41.408392 29.738487 50.368391 0
M  V30 35 H 40.444785 28.333559 49.822541 0
M  V30 36 H 37.950077 28.452935 57.639478 0
M  V30 37 H 39.034850 28.424439 56.327720 0
M  V30 38 H 40.452366 26.945771 59.347680 0
M  V30 39 H 36.445147 30.706559 56.787835 0
M  V30 40 H 38.444428 29.296162 50.613578 0
M  V30 41 H 39.246101 30.763093 51.160445 0
M  V30 42 H 41.245036 27.135759 55.761046 0
M  V30 43 H 40.716127 29.593092 58.061112 0
M  V30 44 H 37.447116 24.288692 56.952860 0
M  V30 45 H 37.438528 27.673637 52.499403 0
M  V30 46 H 38.519949 25.674003 58.744016 0
M  V30 47 H 38.690613 28.302519 54.211713 0
M  V30 48 H 36.696059 31.680508 54.861110 0
M  V30 49 H 36.054874 30.142380 54.347800 0
M  V30 50 H 42.395855 26.713656 58.103187 0
M  V30 51 H 39.653850 32.459551 54.580283 0
M  V30 52 H 36.818853 29.161726 56.285201 0
M  V30 END ATOM
M  V30 BEGIN BOND
M  V30 1 2 4 3
M  V30 2 1 9 1
M  V30 3 1 11 1
M  V30 4 1 12 1
M  V30 5 1 12 2
M  V30 6 1 12 5
M  V30 7 1 14 7
M  V30 8 1 14 8
M  V30 9 2 15 6
M  V30 10 1 15 13
M  V30 11 1 16 4
M  V30 12 1 17 4
M  V30 13 1 18 10
M  V30 14 1 19 15
M  V30 15 2 19 18
M  V30 16 1 20 4
M  V30 17 1 20 9
M  V30 18 1 20 10
M  V30 19 1 21 6
M  V30 20 1 23 18
M  V30 21 2 23 21
M  V30 22 1 24 5
M  V30 23 1 24 7
M  V30 24 1 24 22
M  V30 25 1 25 5
M  V30 26 1 25 11
M  V30 27 1 26 10
M  V30 28 1 27 12
M  V30 29 1 1 28 CFG=1
M  V30 30 1 29 2
M  V30 31 1 5 30 CFG=3
M  V30 32 1 31 7
M  V30 33 1 32 7
M  V30 34 1 33 8
M  V30 35 1 34 8
M  V30 36 1 35 8
M  V30 37 1 36 9
M  V30 38 1 37 9
M  V30 39 1 10 38 CFG=1
M  V30 40 1 39 11
M  V30 41 1 40 14
M  V30 42 1 41 14
M  V30 43 1 42 19
M  V30 44 1 20 43 CFG=3
M  V30 45 1 44 21
M  V30 46 1 45 22
M  V30 47 1 46 23
M  V30 48 1 24 47 CFG=1
M  V30 49 1 48 25
M  V30 50 1 49 25
M  V30 51 1 50 26
M  V30 52 1 51 27
M  V30 53 1 52 11
M  V30 END BOND
M  V30 END CTAB
M  END
>  <i_epik_Tot_Q>  (1) 
-1

>  <i_epik_Tot_abs_Q>  (1) 
3

>  <i_i_glide_confnum>  (1) 
383

>  <i_i_glide_lignum>  (1) 
48

>  <i_i_glide_posenum>  (1) 
53

>  <i_i_glide_rotatable_bonds>  (1) 
12

>  <i_lp_mmshare_version>  (1) 
72125

>  <i_m_source_file_index>  (1) 
21

>  <i_f3d_flags>  (1) 
0

>  <num_sample>  (1) 
100

>  <b_lp_Chiralities_Consistent>  (1) 
1

>  <r_epik_Charging_Adjusted_Penalty>  (1) 
0.6119073465235404

>  <r_epik_Ionization_Penalty>  (1) 
0.30667552727884728

>  <r_epik_Ionization_Penalty_Charging>  (1) 
0.30666936404430589

>  <r_epik_Ionization_Penalty_Neutral>  (1) 
6.1632345413695363e-06

>  <r_epik_State_Penalty>  (1) 
0.3052379824792345

>  <r_glide_ring_energy>  (1) 
2.1684758099838057

>  <r_i_docking_score>  (1) 
-5.5364160426167963

>  <r_i_glide_ecoul>  (1) 
-6.0206031154926789

>  <r_i_glide_eff_state_penalty>  (1) 
0.3052379824792345

>  <r_i_glide_einternal>  (1) 
3.1906995932539495

>  <r_i_glide_emodel>  (1) 
-43.173997507671785

>  <r_i_glide_emodel_strain>  (1) 
6.9098851365343066

>  <r_i_glide_energy>  (1) 
-32.108265467953693

>  <r_i_glide_erotb>  (1) 
0.59271143775516177

>  <r_i_glide_esite>  (1) 
-0.10000000000000001

>  <r_i_glide_evdw>  (1) 
-26.087662352461013

>  <r_i_glide_gscore>  (1) 
-5.8416540250960312

>  <r_i_glide_gscore_strain>  (1) 
0.72747128413357665

>  <r_i_glide_hbond>  (1) 
-0.23885359372137335

>  <r_i_glide_ligand_efficiency>  (1) 
-0.20505244602284431

>  <r_i_glide_ligand_efficiency_ln>  (1) 
-1.2887863797692025

>  <r_i_glide_ligand_efficiency_sa>  (1) 
-0.61515733806853301

>  <r_i_glide_lipo>  (1) 
-2.9983780250885879

>  <r_i_glide_metal>  (1) 
-0

>  <r_i_glide_rewards>  (1) 
-1.617131543227857

>  <r_lp_Energy>  (1) 
8.755507999999999

>  <s_epik_cmdline>  (1) 
J2VwaWtfcHl0aG9uJywgJy1waHQnLCAnMS4wJywgJy1waCcsICc3LjQnLCAnLXRuJywgJzgnLCAnLW1hJywgJzUwMCcsICctaW1hZScsICc8aW5maWxlLm1hZT4nLCAnLW9tYWUnLCAnPG91dGZpbGUubWFlPic=

>  <s_epik_input>  (1) 
W0NIM11bQ0gyXVtDSDJdW0NAQEhdKFtPSF0pW0NASF0xW0NIMl1bTkhdW0NASF0oQzEoW09IXSlbT0hdKVtDSDJdW0NAQEhdKFAoPU8pKFtPSF0pW09IXSlbQ0BIXShbT0hdKWMoW2NIXTIpW2NIXVtjSF1uYzJG

>  <s_glide_docking_method>  (1) 
confgen

>  <s_i_glide_gridfile>  (1) 
gpcr_5ht2c_6bqh_protein_autoprepared_prepared

>  <s_lp_Force_Field>  (1) 
S-OPLS

>  <s_lp_Variant>  (1) 
DiffSBDD_20-2

>  <s_m_source_file>  (1) 
generated_GPCR_5HT2C_ligand_DiffSBDD_2026-06-23_prepared.sdf

>  <GenAI_Model>  (1) 
DiffSBDD

>  <Protein>  (1) 
GPCR_5HT2C

$$$$
DiffSBDD_49
     RDKit          3D

  0  0  0  0  0  0  0  0  0  0999 V3000
M  V30 BEGIN CTAB
M  V30 COUNTS 75 80 0 0 1
M  V30 BEGIN ATOM
M  V30 1 N 37.863620 30.620643 56.079571 0 CHG=1
M  V30 2 C 38.500194 27.581797 56.010764 0
M  V30 3 C 38.942539 27.680397 58.369025 0 CFG=2
M  V30 4 O 38.045161 32.190597 57.644624 0
M  V30 5 C 38.840185 28.585455 57.103053 0 CFG=2
M  V30 6 C 40.623328 32.403587 64.686301 0 CFG=1
M  V30 7 O 42.712197 31.415711 65.456997 0
M  V30 8 O 38.335886 27.931834 54.843113 0
M  V30 9 C 38.377023 26.173178 56.444170 0 CFG=2
M  V30 10 C 40.755132 34.911106 63.872105 0
M  V30 11 C 43.245141 32.683441 65.838889 0
M  V30 12 C 37.977221 31.895176 56.342064 0
M  V30 13 C 40.912329 29.112313 59.315037 0
M  V30 14 C 37.595365 30.755793 59.691797 0
M  V30 15 C 37.244417 25.835477 57.368010 0
M  V30 16 C 41.295796 31.311075 65.590886 0 CFG=1
M  V30 17 C 38.186472 30.885245 58.275058 0 CFG=1
M  V30 18 F 40.844567 34.309516 66.111383 0
M  V30 19 C 41.379308 26.952843 58.167726 0
M  V30 20 C 42.682649 33.769819 64.908984 0
M  V30 21 N 38.045130 32.896554 55.457526 0
M  V30 22 C 38.554584 31.207473 60.826177 0
M  V30 23 C 40.782022 29.804923 60.698109 0
M  V30 24 C 39.489540 30.136651 61.483537 0 CFG=1
M  V30 25 C 40.933879 31.421035 67.095149 0
M  V30 26 C 39.875847 30.565998 62.964786 0 CFG=2
M  V30 27 C 41.190450 33.845821 64.910589 0 CFG=1
M  V30 28 C 40.471536 31.988983 63.175729 0
M  V30 29 C 40.844278 29.602670 63.688794 0
M  V30 30 C 40.867038 29.876711 65.191126 0
M  V30 31 C 37.825729 29.752481 57.220607 0 CFG=1
M  V30 32 C 40.345354 27.716859 59.030983 0 CFG=2
M  V30 33 C 38.572201 26.247977 57.941488 0 CFG=2
M  V30 34 H 38.208253 27.986204 59.109098 0
M  V30 35 H 39.814895 28.980792 56.820893 0
M  V30 36 H 39.645131 32.465012 65.090584 0
M  V30 37 H 38.918932 25.394341 55.912379 0
M  V30 38 H 41.153426 34.705150 62.877713 0
M  V30 39 H 39.674185 34.981106 63.767740 0
M  V30 40 H 41.112340 35.901571 64.158826 0
M  V30 41 H 43.055152 32.925102 66.883866 0
M  V30 42 H 44.330459 32.638582 65.767753 0
M  V30 43 H 41.993491 28.986276 59.269539 0
M  V30 44 H 40.817305 29.737742 58.450481 0
M  V30 45 H 37.255939 29.741714 59.889971 0
M  V30 46 H 36.687067 31.359365 59.718575 0
M  V30 47 H 36.445128 26.550642 57.492877 0
M  V30 48 H 36.959239 24.788388 57.447723 0
M  V30 49 H 39.245186 30.888769 58.404275 0
M  V30 50 H 41.441400 27.349057 57.154254 0
M  V30 51 H 42.382575 26.989788 58.592892 0
M  V30 52 H 41.148326 25.892575 58.099280 0
M  V30 53 H 43.138191 34.741618 65.095602 0
M  V30 54 H 42.845141 33.511618 63.867834 0
M  V30 55 H 37.974683 32.707436 54.469323 0
M  V30 56 H 38.117438 33.848446 55.783890 0
M  V30 57 H 37.907889 31.593128 61.614781 0
M  V30 58 H 39.134733 32.070084 60.496900 0
M  V30 59 H 41.381459 29.147012 61.320818 0
M  V30 60 H 41.308076 30.753620 60.624000 0
M  V30 61 H 38.922048 29.210691 61.572927 0
M  V30 62 H 39.904899 31.118568 67.278995 0
M  V30 63 H 41.563913 30.759796 67.691600 0
M  V30 64 H 41.036339 32.419852 67.511582 0
M  V30 65 H 38.933579 30.537849 63.514937 0
M  V30 66 H 41.440826 32.052525 62.680560 0
M  V30 67 H 39.827939 32.713452 62.678857 0
M  V30 68 H 40.542210 28.569410 63.516208 0
M  V30 69 H 41.864551 29.705480 63.317972 0
M  V30 70 H 39.863139 29.674902 65.567365 0
M  V30 71 H 41.514755 29.150887 65.683667 0
M  V30 72 H 36.804376 29.398173 57.365084 0
M  V30 73 H 40.262431 27.218770 59.992911 0
M  V30 74 H 39.066890 25.440807 58.474848 0
M  V30 75 H 37.792873 30.254033 55.140769 0
M  V30 END ATOM
M  V30 BEGIN BOND
M  V30 1 1 5 2
M  V30 2 1 5 3
M  V30 3 2 8 2
M  V30 4 1 9 2
M  V30 5 1 11 7
M  V30 6 2 12 1
M  V30 7 1 12 4
M  V30 8 1 15 9
M  V30 9 1 16 6
M  V30 10 1 16 7
M  V30 11 1 17 4
M  V30 12 1 17 14
M  V30 13 1 20 11
M  V30 14 1 21 12
M  V30 15 1 22 14
M  V30 16 1 23 13
M  V30 17 1 24 22
M  V30 18 1 24 23
M  V30 19 1 16 25 CFG=1
M  V30 20 1 26 24
M  V30 21 1 27 6
M  V30 22 1 27 10
M  V30 23 1 27 18 CFG=1
M  V30 24 1 27 20
M  V30 25 1 28 6
M  V30 26 1 28 26
M  V30 27 1 29 26
M  V30 28 1 30 16
M  V30 29 1 30 29
M  V30 30 1 31 1
M  V30 31 1 31 5
M  V30 32 1 31 17
M  V30 33 1 32 3
M  V30 34 1 32 13
M  V30 35 1 32 19
M  V30 36 1 33 3
M  V30 37 1 33 9
M  V30 38 1 33 15
M  V30 39 1 3 34 CFG=1
M  V30 40 1 5 35 CFG=3
M  V30 41 1 6 36 CFG=1
M  V30 42 1 9 37 CFG=3
M  V30 43 1 38 10
M  V30 44 1 39 10
M  V30 45 1 40 10
M  V30 46 1 41 11
M  V30 47 1 42 11
M  V30 48 1 43 13
M  V30 49 1 44 13
M  V30 50 1 45 14
M  V30 51 1 46 14
M  V30 52 1 47 15
M  V30 53 1 48 15
M  V30 54 1 17 49 CFG=1
M  V30 55 1 50 19
M  V30 56 1 51 19
M  V30 57 1 52 19
M  V30 58 1 53 20
M  V30 59 1 54 20
M  V30 60 1 55 21
M  V30 61 1 56 21
M  V30 62 1 57 22
M  V30 63 1 58 22
M  V30 64 1 59 23
M  V30 65 1 60 23
M  V30 66 1 24 61 CFG=1
M  V30 67 1 62 25
M  V30 68 1 63 25
M  V30 69 1 64 25
M  V30 70 1 26 65 CFG=1
M  V30 71 1 66 28
M  V30 72 1 67 28
M  V30 73 1 68 29
M  V30 74 1 69 29
M  V30 75 1 70 30
M  V30 76 1 71 30
M  V30 77 1 31 72 CFG=1
M  V30 78 1 32 73 CFG=1
M  V30 79 1 33 74 CFG=1
M  V30 80 1 75 1
M  V30 END BOND
M  V30 END CTAB
M  END
>  <i_epik_Tot_Q>  (1) 
1

>  <i_epik_Tot_abs_Q>  (1) 
1

>  <i_i_glide_confnum>  (1) 
2

>  <i_i_glide_lignum>  (1) 
102

>  <i_i_glide_posenum>  (1) 
380

>  <i_i_glide_rotatable_bonds>  (1) 
1

>  <i_lp_mmshare_version>  (1) 
72125

>  <i_m_source_file_index>  (1) 
50

>  <i_f3d_flags>  (1) 
0

>  <num_sample>  (1) 
100

>  <b_lp_Chiralities_Consistent>  (1) 
1

>  <r_epik_Charging_Adjusted_Penalty>  (1) 
0.054352883593996412

>  <r_epik_Ionization_Penalty>  (1) 
0.020131263556531623

>  <r_epik_Ionization_Penalty_Charging>  (1) 
0.012484738498558263

>  <r_epik_Ionization_Penalty_Neutral>  (1) 
0.0076465250579733583

>  <r_epik_State_Penalty>  (1) 
0.041868145095438146

>  <r_glide_ring_energy>  (1) 
0

>  <r_i_docking_score>  (1) 
-5.5315549589974058

>  <r_i_glide_ecoul>  (1) 
0.30612444835302788

>  <r_i_glide_eff_state_penalty>  (1) 
0.041868145095438146

>  <r_i_glide_einternal>  (1) 
3.8005968277662197

>  <r_i_glide_emodel>  (1) 
-27.910354736220526

>  <r_i_glide_emodel_strain>  (1) 
4.8479808935481401

>  <r_i_glide_energy>  (1) 
-32.255015267278921

>  <r_i_glide_erotb>  (1) 
0.094491925132231133

>  <r_i_glide_esite>  (1) 
-0.27268098269666946

>  <r_i_glide_evdw>  (1) 
-32.561139715631946

>  <r_i_glide_gscore>  (1) 
-5.5734231040928437

>  <r_i_glide_gscore_strain>  (1) 
0.21199522338703503

>  <r_i_glide_hbond>  (1) 
0

>  <r_i_glide_ligand_efficiency>  (1) 
-0.16762287754537594

>  <r_i_glide_ligand_efficiency_ln>  (1) 
-1.2301891820222712

>  <r_i_glide_ligand_efficiency_sa>  (1) 
-0.53765613421947989

>  <r_i_glide_lipo>  (1) 
-3.0313269972423957

>  <r_i_glide_metal>  (1) 
-0

>  <r_i_glide_rewards>  (1) 
-0.99376395414440155

>  <r_lp_Energy>  (1) 
45.880542999999996

>  <s_epik_Chemistry_Notes>  (1) 
This compound has an imine and may undergo hydrolysis.

>  <s_epik_cmdline>  (1) 
J2VwaWtfcHl0aG9uJywgJy1waHQnLCAnMS4wJywgJy1waCcsICc3LjQnLCAnLXRuJywgJzgnLCAnLW1hJywgJzUwMCcsICctaW1hZScsICc8aW5maWxlLm1hZT4nLCAnLW9tYWUnLCAnPG91dGZpbGUubWFlPic=

>  <s_epik_input>  (1) 
W0NIMl0xW0NASF0yW0NAQEhdMUMoPU8pW0NASF0oW0NAQEhdMjMpW0NASF00W0NAQEhdKE9DKD1ONClbTkgyXSlbQ0gyXVtDSDJdW0NAQEhdKFtDSDJdW0NIMl1bQ0BASF0zW0NIM10pW0NAQEhdKFtDSDJdW0NIMl01KVtDSDJdW0NAQEhdKFtDQEBdNTZbQ0gzXSlbQ0BdKEYpKFtDSDNdKVtDSDJdW0NIMl1PNg==

>  <s_glide_docking_method>  (1) 
confgen

>  <s_i_glide_gridfile>  (1) 
gpcr_5ht2c_6bqh_protein_autoprepared_prepared

>  <s_lp_Force_Field>  (1) 
S-OPLS

>  <s_lp_Variant>  (1) 
DiffSBDD_49-1

>  <s_m_source_file>  (1) 
generated_GPCR_5HT2C_ligand_DiffSBDD_2026-06-23_prepared.sdf

>  <GenAI_Model>  (1) 
DiffSBDD

>  <Protein>  (1) 
GPCR_5HT2C

$$$$
DiffSBDD_20
     RDKit          3D

  0  0  0  0  0  0  0  0  0  0999 V3000
M  V30 BEGIN CTAB
M  V30 COUNTS 53 54 0 0 1
M  V30 BEGIN ATOM
M  V30 1 C 38.234926 31.721457 58.218463 0 CFG=2
M  V30 2 O 36.914664 29.741497 57.528691 0
M  V30 3 O 38.045111 30.688324 62.167791 0
M  V30 4 P 38.880925 31.768925 61.624822 0
M  V30 5 C 38.722337 30.650768 56.084465 0 CFG=1
M  V30 6 N 36.864667 37.737769 62.246151 0
M  V30 7 C 38.539099 30.131161 53.507810 0
M  V30 8 C 40.045241 30.774260 51.523319 0
M  V30 9 C 37.230675 31.991934 59.373278 0
M  V30 10 C 38.326936 34.248199 60.128450 0 CFG=2
M  V30 11 N 38.045139 32.712341 57.141266 0 CHG=1
M  V30 12 C 38.210838 30.327001 57.518457 0
M  V30 13 F 38.222312 37.195737 64.057691 0
M  V30 14 C 39.970380 30.300872 52.978901 0
M  V30 15 C 37.775942 36.912212 62.813314 0
M  V30 16 O 40.163588 31.452443 60.967606 0 CHG=-1
M  V30 17 O 39.245132 32.839728 62.863817 0
M  V30 18 C 37.808736 35.466825 60.870532 0
M  V30 19 C 38.273927 35.771857 62.158879 0
M  V30 20 C 37.745899 32.865301 60.556603 0 CFG=2
M  V30 21 C 36.445191 37.454347 60.995307 0
M  V30 22 O 39.083311 28.437999 55.157110 0
M  V30 23 C 36.876612 36.328615 60.272044 0
M  V30 24 C 38.355118 29.636284 54.966178 0 CFG=1
M  V30 25 C 38.216328 32.072744 55.830609 0
M  V30 26 O 39.723385 34.244677 60.167609 0
M  V30 27 O 39.149064 29.475895 58.131818 0
M  V30 28 H 39.245085 31.893597 58.583285 0
M  V30 29 H 36.265028 30.427438 57.367198 0
M  V30 30 H 39.810857 30.733914 56.122447 0
M  V30 31 H 38.017577 29.434660 52.849800 0
M  V30 32 H 38.045008 31.090817 53.393261 0
M  V30 33 H 41.077646 30.799632 51.173049 0
M  V30 34 H 39.488131 30.113658 50.858421 0
M  V30 35 H 39.645076 31.773540 51.410865 0
M  V30 36 H 36.314298 32.428047 58.972815 0
M  V30 37 H 36.916170 31.036317 59.793455 0
M  V30 38 H 38.045429 34.423434 59.092881 0
M  V30 39 H 38.660424 33.502744 57.266584 0
M  V30 40 H 40.551086 30.953902 53.629812 0
M  V30 41 H 40.445108 29.337757 52.967774 0
M  V30 42 H 39.673218 32.321652 63.527221 0
M  V30 43 H 39.001194 35.143002 62.644469 0
M  V30 44 H 36.864940 33.069432 61.165540 0
M  V30 45 H 35.728581 38.137525 60.567764 0
M  V30 46 H 38.761718 27.787815 54.550171 0
M  V30 47 H 36.502309 36.136973 59.276472 0
M  V30 48 H 37.298317 29.386836 55.065383 0
M  V30 49 H 38.898069 32.646839 55.201680 0
M  V30 50 H 37.245129 32.056793 55.339096 0
M  V30 51 H 40.001522 34.038032 61.050088 0
M  V30 52 H 39.276461 28.734727 57.556968 0
M  V30 53 H 37.074402 33.006888 57.172857 0
M  V30 END ATOM
M  V30 BEGIN BOND
M  V30 1 2 4 3
M  V30 2 1 9 1
M  V30 3 1 11 1
M  V30 4 1 12 1
M  V30 5 1 12 2
M  V30 6 1 12 5
M  V30 7 1 14 7
M  V30 8 1 14 8
M  V30 9 2 15 6
M  V30 10 1 15 13
M  V30 11 1 16 4
M  V30 12 1 17 4
M  V30 13 1 18 10
M  V30 14 1 19 15
M  V30 15 2 19 18
M  V30 16 1 20 4
M  V30 17 1 20 9
M  V30 18 1 20 10
M  V30 19 1 21 6
M  V30 20 1 23 18
M  V30 21 2 23 21
M  V30 22 1 24 5
M  V30 23 1 24 7
M  V30 24 1 24 22
M  V30 25 1 25 5
M  V30 26 1 25 11
M  V30 27 1 26 10
M  V30 28 1 27 12
M  V30 29 1 1 28 CFG=1
M  V30 30 1 29 2
M  V30 31 1 5 30 CFG=1
M  V30 32 1 31 7
M  V30 33 1 32 7
M  V30 34 1 33 8
M  V30 35 1 34 8
M  V30 36 1 35 8
M  V30 37 1 36 9
M  V30 38 1 37 9
M  V30 39 1 10 38 CFG=3
M  V30 40 1 39 11
M  V30 41 1 40 14
M  V30 42 1 41 14
M  V30 43 1 42 17
M  V30 44 1 43 19
M  V30 45 1 20 44 CFG=1
M  V30 46 1 45 21
M  V30 47 1 46 22
M  V30 48 1 47 23
M  V30 49 1 24 48 CFG=3
M  V30 50 1 49 25
M  V30 51 1 50 25
M  V30 52 1 51 26
M  V30 53 1 52 27
M  V30 54 1 53 11
M  V30 END BOND
M  V30 END CTAB
M  END
>  <i_epik_Tot_Q>  (1) 
0

>  <i_epik_Tot_abs_Q>  (1) 
2

>  <i_i_glide_confnum>  (1) 
260

>  <i_i_glide_lignum>  (1) 
49

>  <i_i_glide_posenum>  (1) 
238

>  <i_i_glide_rotatable_bonds>  (1) 
13

>  <i_lp_mmshare_version>  (1) 
72125

>  <i_m_source_file_index>  (1) 
21

>  <i_f3d_flags>  (1) 
0

>  <num_sample>  (1) 
100

>  <b_lp_Chiralities_Consistent>  (1) 
1

>  <r_epik_Charging_Adjusted_Penalty>  (1) 
0.5459377507147144

>  <r_epik_Ionization_Penalty>  (1) 
0.54595169612510452

>  <r_epik_Ionization_Penalty_Charging>  (1) 
0.0068991791537532298

>  <r_epik_Ionization_Penalty_Neutral>  (1) 
0.53905251697135126

>  <r_epik_State_Penalty>  (1) 
0.53903857156096113

>  <r_glide_ring_energy>  (1) 
0

>  <r_i_docking_score>  (1) 
-5.5302033753153319

>  <r_i_glide_ecoul>  (1) 
-11.270232492535964

>  <r_i_glide_eff_state_penalty>  (1) 
0.53903857156096113

>  <r_i_glide_einternal>  (1) 
12.363776911861322

>  <r_i_glide_emodel>  (1) 
-46.765267909418839

>  <r_i_glide_emodel_strain>  (1) 
1.292700673113373

>  <r_i_glide_energy>  (1) 
-33.870715558885294

>  <r_i_glide_erotb>  (1) 
0.70809137694380864

>  <r_i_glide_esite>  (1) 
-0.16130463324908792

>  <r_i_glide_evdw>  (1) 
-22.600483066349334

>  <r_i_glide_gscore>  (1) 
-6.0692419468762928

>  <r_i_glide_gscore_strain>  (1) 
0

>  <r_i_glide_hbond>  (1) 
-0.34714716562900838

>  <r_i_glide_ligand_efficiency>  (1) 
-0.20482234723390119

>  <r_i_glide_ligand_efficiency_ln>  (1) 
-1.287340173245247

>  <r_i_glide_ligand_efficiency_sa>  (1) 
-0.61446704170170363

>  <r_i_glide_lipo>  (1) 
-1.6915247300168057

>  <r_i_glide_metal>  (1) 
-0

>  <r_i_glide_rewards>  (1) 
-1.7567977677273388

>  <r_lp_Energy>  (1) 
8.4589179999999988

>  <s_epik_cmdline>  (1) 
J2VwaWtfcHl0aG9uJywgJy1waHQnLCAnMS4wJywgJy1waCcsICc3LjQnLCAnLXRuJywgJzgnLCAnLW1hJywgJzUwMCcsICctaW1hZScsICc8aW5maWxlLm1hZT4nLCAnLW9tYWUnLCAnPG91dGZpbGUubWFlPic=

>  <s_epik_input>  (1) 
W0NIM11bQ0gyXVtDSDJdW0NAQEhdKFtPSF0pW0NASF0xW0NIMl1bTkhdW0NASF0oQzEoW09IXSlbT0hdKVtDSDJdW0NAQEhdKFAoPU8pKFtPSF0pW09IXSlbQ0BIXShbT0hdKWMoW2NIXTIpW2NIXVtjSF1uYzJG

>  <s_glide_docking_method>  (1) 
confgen

>  <s_i_glide_gridfile>  (1) 
gpcr_5ht2c_6bqh_protein_autoprepared_prepared

>  <s_lp_Force_Field>  (1) 
S-OPLS

>  <s_lp_Variant>  (1) 
DiffSBDD_20-3

>  <s_m_source_file>  (1) 
generated_GPCR_5HT2C_ligand_DiffSBDD_2026-06-23_prepared.sdf

>  <GenAI_Model>  (1) 
DiffSBDD

>  <Protein>  (1) 
GPCR_5HT2C

$$$$
DiffSBDD_53
     RDKit          3D

  0  0  0  0  0  0  0  0  0  0999 V3000
M  V30 BEGIN CTAB
M  V30 COUNTS 81 85 0 0 1
M  V30 BEGIN ATOM
M  V30 1 C 38.976587 30.550047 56.779322 0
M  V30 2 C 37.227091 32.803764 61.812530 0
M  V30 3 C 41.064150 35.729917 63.087847 0
M  V30 4 C 39.155041 31.984727 56.263985 0
M  V30 5 C 40.357993 32.824272 62.136723 0
M  V30 6 C 38.781973 25.345913 55.046381 0
M  V30 7 C 39.183235 27.658427 58.733288 0
M  V30 8 N 39.645446 29.614963 55.850902 0 CHG=1
M  V30 9 N 41.149425 34.891810 66.644317 0
M  V30 10 C 36.246604 30.838122 59.799133 0
M  V30 11 C 39.475838 28.157507 56.057614 0 CFG=1
M  V30 12 N 38.045120 32.840793 56.623633 0
M  V30 13 C 40.236294 33.986619 61.462495 0
M  V30 14 C 39.513305 31.643642 61.723999 0
M  V30 15 C 39.935636 27.648327 57.419782 0 CFG=1
M  V30 16 C 38.795988 32.950654 59.824319 0 CFG=1
M  V30 17 C 38.045121 27.708896 55.761893 0 CFG=2
M  V30 18 C 41.481673 35.744766 65.516865 0
M  V30 19 O 41.334176 27.736833 57.597845 0
M  V30 20 C 38.211374 33.737740 57.726242 0
M  V30 21 C 35.816051 32.918946 61.203903 0
M  V30 22 C 35.268479 31.572726 60.721081 0
M  V30 23 C 38.253094 32.046070 60.936114 0
M  V30 24 O 37.765487 33.241141 58.935417 0
M  V30 25 C 37.649713 30.739177 60.403194 0
M  V30 26 C 37.880249 26.188564 55.975612 0 CFG=2
M  V30 27 O 37.668799 28.087619 54.449027 0
M  V30 28 C 41.740669 33.591254 64.135974 0
M  V30 29 N 38.080006 25.866413 57.416767 0 CFG=1 CHG=1
M  V30 30 O 39.367830 34.101285 60.390853 0
M  V30 31 C 37.781739 24.455096 57.757179 0
M  V30 32 C 39.372341 26.349216 57.991468 0 CFG=2
M  V30 33 C 41.284842 32.648719 63.262564 0
M  V30 34 C 41.029910 35.216326 61.693663 0
M  V30 35 C 41.415235 35.026856 64.179324 0
M  V30 36 H 37.913481 30.314458 56.840257 0
M  V30 37 H 39.395448 30.452437 57.778770 0
M  V30 38 H 37.167261 32.258619 62.748346 0
M  V30 39 H 37.583081 33.798337 62.072128 0
M  V30 40 H 40.839253 36.781226 63.201215 0
M  V30 41 H 40.102157 32.421156 56.567643 0
M  V30 42 H 39.163104 31.975780 55.173276 0
M  V30 43 H 38.757690 25.737782 54.030465 0
M  V30 44 H 39.824069 25.340445 55.367450 0
M  V30 45 H 38.445895 24.309774 54.995305 0
M  V30 46 H 39.758900 27.801459 59.646555 0
M  V30 47 H 38.191342 28.104434 58.746303 0
M  V30 48 H 40.635074 29.814967 55.867626 0
M  V30 49 H 41.877729 34.207668 66.787424 0
M  V30 50 H 41.114340 35.449469 67.486006 0
M  V30 51 H 36.308584 31.344687 58.843230 0
M  V30 52 H 35.867797 29.840229 59.576984 0
M  V30 53 H 40.128984 27.694211 55.318206 0
M  V30 54 H 37.105359 32.434501 56.567814 0
M  V30 55 H 40.147645 30.984485 61.128845 0
M  V30 56 H 39.240777 31.077369 62.615971 0
M  V30 57 H 39.589208 32.440492 59.292876 0
M  V30 58 H 37.385406 28.229604 56.454642 0
M  V30 59 H 42.479082 36.160858 65.656314 0
M  V30 60 H 40.772830 36.570877 65.513568 0
M  V30 61 H 41.744114 26.910817 57.370854 0
M  V30 62 H 39.245124 34.002521 57.817562 0
M  V30 63 H 37.645104 34.645782 57.529321 0
M  V30 64 H 35.829261 33.620305 60.369985 0
M  V30 65 H 35.128205 33.355302 61.927652 0
M  V30 66 H 34.351392 31.749532 60.166389 0
M  V30 67 H 35.007961 30.944010 61.571126 0
M  V30 68 H 38.332076 30.224589 59.732552 0
M  V30 69 H 37.559801 30.137753 61.294386 0
M  V30 70 H 36.843276 25.944821 55.736585 0
M  V30 71 H 38.031144 27.479256 53.820383 0
M  V30 72 H 42.365551 33.223377 64.935842 0
M  V30 73 H 38.584097 23.787401 57.439460 0
M  V30 74 H 37.645166 24.339665 58.831565 0
M  V30 75 H 36.857589 24.125960 57.283377 0
M  V30 76 H 40.038694 25.586454 58.393223 0
M  V30 77 H 41.596527 31.634193 63.463518 0
M  V30 78 H 42.045100 35.070019 61.329928 0
M  V30 79 H 40.611466 36.008740 61.071755 0
M  V30 80 H 37.364046 26.394924 57.896904 0
M  V30 81 H 39.290051 29.814197 54.925212 0
M  V30 END ATOM
M  V30 BEGIN BOND
M  V30 1 1 4 1
M  V30 2 1 8 1
M  V30 3 1 11 8
M  V30 4 1 12 4
M  V30 5 2 13 5
M  V30 6 1 14 5
M  V30 7 1 15 7
M  V30 8 1 15 11
M  V30 9 1 17 11
M  V30 10 1 18 9
M  V30 11 1 15 19 CFG=1
M  V30 12 1 20 12
M  V30 13 1 21 2
M  V30 14 1 22 10
M  V30 15 1 22 21
M  V30 16 1 23 2
M  V30 17 1 23 14
M  V30 18 1 23 16
M  V30 19 1 24 16
M  V30 20 1 24 20
M  V30 21 1 25 10
M  V30 22 1 25 23
M  V30 23 1 26 6
M  V30 24 1 26 17
M  V30 25 1 27 17
M  V30 26 1 29 26
M  V30 27 1 30 13
M  V30 28 1 30 16
M  V30 29 1 31 29
M  V30 30 1 32 7
M  V30 31 1 32 15
M  V30 32 1 32 29
M  V30 33 1 33 5
M  V30 34 2 33 28
M  V30 35 1 34 3
M  V30 36 1 34 13
M  V30 37 2 35 3
M  V30 38 1 35 18
M  V30 39 1 35 28
M  V30 40 1 36 1
M  V30 41 1 37 1
M  V30 42 1 38 2
M  V30 43 1 39 2
M  V30 44 1 40 3
M  V30 45 1 41 4
M  V30 46 1 42 4
M  V30 47 1 43 6
M  V30 48 1 44 6
M  V30 49 1 45 6
M  V30 50 1 46 7
M  V30 51 1 47 7
M  V30 52 1 48 8
M  V30 53 1 49 9
M  V30 54 1 50 9
M  V30 55 1 51 10
M  V30 56 1 52 10
M  V30 57 1 11 53 CFG=3
M  V30 58 1 54 12
M  V30 59 1 55 14
M  V30 60 1 56 14
M  V30 61 1 16 57 CFG=3
M  V30 62 1 17 58 CFG=1
M  V30 63 1 59 18
M  V30 64 1 60 18
M  V30 65 1 61 19
M  V30 66 1 62 20
M  V30 67 1 63 20
M  V30 68 1 64 21
M  V30 69 1 65 21
M  V30 70 1 66 22
M  V30 71 1 67 22
M  V30 72 1 68 25
M  V30 73 1 69 25
M  V30 74 1 26 70 CFG=3
M  V30 75 1 71 27
M  V30 76 1 72 28
M  V30 77 1 73 31
M  V30 78 1 74 31
M  V30 79 1 75 31
M  V30 80 1 32 76 CFG=1
M  V30 81 1 77 33
M  V30 82 1 78 34
M  V30 83 1 79 34
M  V30 84 1 29 80 CFG=1
M  V30 85 1 81 8
M  V30 END BOND
M  V30 END CTAB
M  END
>  <i_epik_Tot_Q>  (1) 
2

>  <i_epik_Tot_abs_Q>  (1) 
2

>  <i_i_glide_confnum>  (1) 
429

>  <i_i_glide_lignum>  (1) 
112

>  <i_i_glide_posenum>  (1) 
171

>  <i_i_glide_rotatable_bonds>  (1) 
10

>  <i_lp_mmshare_version>  (1) 
72125

>  <i_m_source_file_index>  (1) 
54

>  <i_f3d_flags>  (1) 
0

>  <num_sample>  (1) 
100

>  <b_lp_Chiralities_Consistent>  (1) 
1

>  <r_epik_Charging_Adjusted_Penalty>  (1) 
1.1947924258661535

>  <r_epik_Ionization_Penalty>  (1) 
1.111601378610803

>  <r_epik_Ionization_Penalty_Charging>  (1) 
0.15856543202638063

>  <r_epik_Ionization_Penalty_Neutral>  (1) 
0.95303594658442226

>  <r_epik_State_Penalty>  (1) 
1.036226993839773

>  <r_glide_ring_energy>  (1) 
0.00045989382302465386

>  <r_i_docking_score>  (1) 
-5.5197218220669884

>  <r_i_glide_ecoul>  (1) 
-3.9897159078208757

>  <r_i_glide_eff_state_penalty>  (1) 
1.036226993839773

>  <r_i_glide_einternal>  (1) 
7.6343717274125833

>  <r_i_glide_emodel>  (1) 
-58.613932326923191

>  <r_i_glide_emodel_strain>  (1) 
0.46910797339850774

>  <r_i_glide_energy>  (1) 
-44.419748655886956

>  <r_i_glide_erotb>  (1) 
0.59168961163588141

>  <r_i_glide_esite>  (1) 
-0.040683232097323475

>  <r_i_glide_evdw>  (1) 
-40.430032748066083

>  <r_i_glide_gscore>  (1) 
-6.5559488159067616

>  <r_i_glide_gscore_strain>  (1) 
0

>  <r_i_glide_hbond>  (1) 
-0.16906471871984707

>  <r_i_glide_ligand_efficiency>  (1) 
-0.15770633777334253

>  <r_i_glide_ligand_efficiency_ln>  (1) 
-1.2117014435692242

>  <r_i_glide_ligand_efficiency_sa>  (1) 
-0.51586788839360298

>  <r_i_glide_lipo>  (1) 
-3.7781019900215282

>  <r_i_glide_metal>  (1) 
-0

>  <r_i_glide_rewards>  (1) 
-0.53982946312750857

>  <r_lp_Energy>  (1) 
70.003378999999995

>  <s_epik_Chemistry_Notes>  (1) 
This compound contains an acetal/aminal-like group ( X-CH(R)-Y where X, Y are N, S, or O) that may be acid/base labile, releasing an aldehyde.

>  <s_epik_cmdline>  (1) 
J2VwaWtfcHl0aG9uJywgJy1waHQnLCAnMS4wJywgJy1waCcsICc3LjQnLCAnLXRuJywgJzgnLCAnLW1hJywgJzUwMCcsICctaW1hZScsICc8aW5maWxlLm1hZT4nLCAnLW9tYWUnLCAnPG91dGZpbGUubWFlPic=

>  <s_epik_input>  (1) 
W09IXVtDQEBdMTJbQ0BASF0oW0NIMl0xKU4oW0NIM10pW0NASF0oW0NIM10pW0NASF0oW09IXSlbQ0BIXTJbTkhdW0NIMl1bQ0gyXVtOSF1bQ0gyXU9bQ0BIXTNPQyhbQ0gyXVtDSF09QyhbQ0gyXVtOSDJdKVtDSF09W0NIXTQpPUM0W0NIMl1DMzVbQ0gyXVtDSDJdW0NIMl1bQ0gyXVtDSDJdNQ==

>  <s_glide_docking_method>  (1) 
confgen

>  <s_i_glide_gridfile>  (1) 
gpcr_5ht2c_6bqh_protein_autoprepared_prepared

>  <s_lp_Force_Field>  (1) 
S-OPLS

>  <s_lp_Variant>  (1) 
DiffSBDD_53-4

>  <s_m_source_file>  (1) 
generated_GPCR_5HT2C_ligand_DiffSBDD_2026-06-23_prepared.sdf

>  <GenAI_Model>  (1) 
DiffSBDD

>  <Protein>  (1) 
GPCR_5HT2C

$$$$
DiffSBDD_18
     RDKit          3D

  0  0  0  0  0  0  0  0  0  0999 V3000
M  V30 BEGIN CTAB
M  V30 COUNTS 77 79 0 0 1
M  V30 BEGIN ATOM
M  V30 1 C 39.603502 28.137746 61.066117 0
M  V30 2 C 36.567242 34.575239 60.314083 0 CFG=2
M  V30 3 C 37.082137 25.146183 55.583899 0
M  V30 4 C 37.645370 26.281963 54.982482 0
M  V30 5 C 37.969994 25.880007 57.740608 0
M  V30 6 O 37.127199 37.337749 59.727430 0
M  V30 7 C 37.438222 29.918880 59.236538 0
M  V30 8 C 40.112912 35.088249 61.053916 0
M  V30 9 C 38.045081 32.988096 56.147131 0
M  V30 10 C 38.423528 27.072794 52.788215 0
M  V30 11 C 37.630103 37.604670 60.838687 0
M  V30 12 C 37.256638 24.937627 56.964858 0
M  V30 13 C 38.281272 30.518984 56.984514 0
M  V30 14 C 39.059169 34.560418 60.478371 0
M  V30 15 C 40.033946 35.999338 62.274437 0
M  V30 16 C 36.109649 29.337763 58.749073 0
M  V30 17 C 40.162429 27.624903 59.740034 0
M  V30 18 C 37.609001 32.999851 57.600659 0 CFG=2
M  V30 19 C 36.618435 35.253279 61.695396 0
M  V30 20 C 35.712149 33.293537 60.430019 0
M  V30 21 C 38.662736 36.411665 62.883666 0
M  V30 22 C 38.142309 27.423606 51.375113 0
M  V30 23 C 37.978267 34.309891 59.767885 0
M  V30 24 C 40.996533 28.508924 57.147666 0
M  V30 25 C 37.388482 36.600879 61.996152 0 CFG=1
M  V30 26 N 39.645133 27.286771 53.263901 0 CHG=1
M  V30 27 C 38.354542 27.228312 55.751417 0
M  V30 28 P 39.433037 28.297957 58.141093 0 CFG=1 CHG=1
M  V30 29 N 38.045136 34.054492 58.426621 0
M  V30 30 O 38.314130 38.618903 61.101251 0 CHG=-1
M  V30 31 C 38.608164 31.982508 57.109142 0 CFG=2
M  V30 32 C 38.513454 27.038499 57.139580 0
M  V30 33 N 38.574159 29.845933 58.275112 0 CFG=2 CHG=1
M  V30 34 N 37.447956 26.501161 53.548302 0
M  V30 35 H 40.202292 27.761356 61.897520 0
M  V30 36 H 39.607675 29.224266 61.142530 0
M  V30 37 H 38.602398 27.737936 61.212864 0
M  V30 38 H 36.035650 35.217104 59.610530 0
M  V30 39 H 36.529582 24.430412 54.991553 0
M  V30 40 H 38.096446 25.715637 58.798830 0
M  V30 41 H 37.684664 29.439482 60.167718 0
M  V30 42 H 37.283619 30.965077 59.500484 0
M  V30 43 H 41.088043 34.986356 60.609366 0
M  V30 44 H 37.345316 32.607251 55.406785 0
M  V30 45 H 38.693022 33.790576 55.799804 0
M  V30 46 H 36.845132 24.056581 57.432699 0
M  V30 47 H 37.249207 30.386855 56.654981 0
M  V30 48 H 38.906588 30.135974 56.182316 0
M  V30 49 H 40.670800 35.585729 63.056540 0
M  V30 50 H 40.530794 36.918095 61.962189 0
M  V30 51 H 35.471211 29.093446 59.594541 0
M  V30 52 H 35.555381 30.069330 58.167213 0
M  V30 53 H 36.237494 28.430549 58.167782 0
M  V30 54 H 40.045130 26.547824 59.694967 0
M  V30 55 H 41.237618 27.804578 59.744780 0
M  V30 56 H 36.557339 32.937737 57.767764 0
M  V30 57 H 35.650958 35.250286 62.192864 0
M  V30 58 H 37.146303 34.448506 62.167753 0
M  V30 59 H 35.442191 32.865866 59.468077 0
M  V30 60 H 36.215771 32.523933 61.012651 0
M  V30 61 H 34.765984 33.507616 60.929294 0
M  V30 62 H 38.841116 37.349547 63.407647 0
M  V30 63 H 38.445156 35.737741 63.698388 0
M  V30 64 H 38.045119 26.537829 50.751570 0
M  V30 65 H 37.245210 28.034963 51.367651 0
M  V30 66 H 38.948171 28.026320 50.955606 0
M  V30 67 H 41.366660 27.536718 56.821855 0
M  V30 68 H 40.845054 29.093338 56.244582 0
M  V30 69 H 41.784775 28.937756 57.767299 0
M  V30 70 H 36.699986 37.147046 62.641202 0
M  V30 71 H 40.352176 27.693227 52.666114 0
M  V30 72 H 38.752768 28.116035 55.289592 0
M  V30 73 H 38.944343 34.354098 58.077670 0
M  V30 74 H 39.644759 32.170451 57.367770 0
M  V30 75 H 36.675737 26.066480 53.055929 0
M  V30 76 H 39.876870 27.013629 54.206775 0
M  V30 77 H 39.267667 30.446346 58.694681 0
M  V30 END ATOM
M  V30 BEGIN BOND
M  V30 1 1 4 3
M  V30 2 2 11 6
M  V30 3 2 12 3
M  V30 4 1 12 5
M  V30 5 2 14 8
M  V30 6 1 15 8
M  V30 7 1 16 7
M  V30 8 1 17 1
M  V30 9 1 18 9
M  V30 10 1 19 2
M  V30 11 1 20 2
M  V30 12 1 21 15
M  V30 13 1 22 10
M  V30 14 1 23 2
M  V30 15 2 23 14
M  V30 16 1 25 11
M  V30 17 1 25 19
M  V30 18 1 25 21
M  V30 19 2 26 10
M  V30 20 2 27 4
M  V30 21 1 28 17 CFG=1
M  V30 22 1 28 24
M  V30 23 1 29 18
M  V30 24 1 29 23
M  V30 25 1 30 11
M  V30 26 1 31 9
M  V30 27 1 31 13
M  V30 28 1 31 18
M  V30 29 2 32 5
M  V30 30 1 32 27
M  V30 31 1 32 28
M  V30 32 1 33 7
M  V30 33 1 33 13
M  V30 34 1 33 28
M  V30 35 1 34 4
M  V30 36 1 34 10
M  V30 37 1 35 1
M  V30 38 1 36 1
M  V30 39 1 37 1
M  V30 40 1 2 38 CFG=3
M  V30 41 1 39 3
M  V30 42 1 40 5
M  V30 43 1 41 7
M  V30 44 1 42 7
M  V30 45 1 43 8
M  V30 46 1 44 9
M  V30 47 1 45 9
M  V30 48 1 46 12
M  V30 49 1 47 13
M  V30 50 1 48 13
M  V30 51 1 49 15
M  V30 52 1 50 15
M  V30 53 1 51 16
M  V30 54 1 52 16
M  V30 55 1 53 16
M  V30 56 1 54 17
M  V30 57 1 55 17
M  V30 58 1 18 56 CFG=3
M  V30 59 1 57 19
M  V30 60 1 58 19
M  V30 61 1 59 20
M  V30 62 1 60 20
M  V30 63 1 61 20
M  V30 64 1 62 21
M  V30 65 1 63 21
M  V30 66 1 64 22
M  V30 67 1 65 22
M  V30 68 1 66 22
M  V30 69 1 67 24
M  V30 70 1 68 24
M  V30 71 1 69 24
M  V30 72 1 25 70 CFG=1
M  V30 73 1 71 26
M  V30 74 1 72 27
M  V30 75 1 73 29
M  V30 76 1 31 74 CFG=1
M  V30 77 1 75 34
M  V30 78 1 76 26
M  V30 79 1 33 77 CFG=1
M  V30 END BOND
M  V30 END CTAB
M  END
>  <i_epik_Tot_Q>  (1) 
2

>  <i_epik_Tot_abs_Q>  (1) 
4

>  <i_i_glide_confnum>  (1) 
666

>  <i_i_glide_lignum>  (1) 
45

>  <i_i_glide_posenum>  (1) 
350

>  <i_i_glide_rotatable_bonds>  (1) 
11

>  <i_lp_mmshare_version>  (1) 
72125

>  <i_m_source_file_index>  (1) 
19

>  <i_f3d_flags>  (1) 
0

>  <num_sample>  (1) 
100

>  <b_lp_Chiralities_Consistent>  (1) 
1

>  <r_epik_Charging_Adjusted_Penalty>  (1) 
0.035732071636325656

>  <r_epik_Ionization_Penalty>  (1) 
0.019213783482484162

>  <r_epik_Ionization_Penalty_Charging>  (1) 
0.019186760244236628

>  <r_epik_Ionization_Penalty_Neutral>  (1) 
2.7023238247534635e-05

>  <r_epik_State_Penalty>  (1) 
0.016545311392089028

>  <r_glide_ring_energy>  (1) 
0

>  <r_i_docking_score>  (1) 
-5.5185549822056652

>  <r_i_glide_ecoul>  (1) 
-3.949124877714981

>  <r_i_glide_eff_state_penalty>  (1) 
0.016545311392089028

>  <r_i_glide_einternal>  (1) 
2.6996919300221336

>  <r_i_glide_emodel>  (1) 
-33.338944994647406

>  <r_i_glide_emodel_strain>  (1) 
6.6611501217278004

>  <r_i_glide_energy>  (1) 
-24.168644618174085

>  <r_i_glide_erotb>  (1) 
0.68654883804919686

>  <r_i_glide_esite>  (1) 
-0.037623983526405412

>  <r_i_glide_evdw>  (1) 
-20.219519740459106

>  <r_i_glide_gscore>  (1) 
-5.535100293597754

>  <r_i_glide_gscore_strain>  (1) 
0.6652875304319501

>  <r_i_glide_hbond>  (1) 
0

>  <r_i_glide_ligand_efficiency>  (1) 
-0.16231044065310779

>  <r_i_glide_ligand_efficiency_ln>  (1) 
-1.2192035857933881

>  <r_i_glide_ligand_efficiency_sa>  (1) 
-0.52582281901035666

>  <r_i_glide_lipo>  (1) 
-3.9793872632561373

>  <r_i_glide_metal>  (1) 
-0

>  <r_i_glide_rewards>  (1) 
-1.2665806966161557

>  <r_lp_Energy>  (1) 
40.287763999999996

>  <s_epik_Chemistry_Notes>  (1) 
This compound has an imine and may undergo hydrolysis.

>  <s_epik_cmdline>  (1) 
J2VwaWtfcHl0aG9uJywgJy1waHQnLCAnMS4wJywgJy1waCcsICc3LjQnLCAnLXRuJywgJzgnLCAnLW1hJywgJzUwMCcsICctaW1hZScsICc8aW5maWxlLm1hZT4nLCAnLW9tYWUnLCAnPG91dGZpbGUubWFlPic=

>  <s_epik_input>  (1) 
W0hdL049QyhcW0NIM10pW05IXWMxW2NIXVtjSF1bY0hdYyhbY0hdMSlbUEBAK10oW0NIM10pKFtDSDJdW0NIM10pTihbQ0gyXVtDSDNdKVtDSDJdW0NASF0yW0NIMl1bQ0BASF0yW05IXUMzPUM9W0NIXVtDSDJdW0NIMl1bQ0BASF0oQyg9TylbT0hdKVtDSDJdW0NAQEhdM1tDSDNd

>  <s_glide_docking_method>  (1) 
confgen

>  <s_i_glide_gridfile>  (1) 
gpcr_5ht2c_6bqh_protein_autoprepared_prepared

>  <s_lp_Force_Field>  (1) 
S-OPLS

>  <s_lp_Variant>  (1) 
DiffSBDD_18-4

>  <s_m_source_file>  (1) 
generated_GPCR_5HT2C_ligand_DiffSBDD_2026-06-23_prepared.sdf

>  <GenAI_Model>  (1) 
DiffSBDD

>  <Protein>  (1) 
GPCR_5HT2C

$$$$
DiffSBDD_35
     RDKit          3D

  0  0  0  0  0  0  0  0  0  0999 V3000
M  V30 BEGIN CTAB
M  V30 COUNTS 52 54 0 0 1
M  V30 BEGIN ATOM
M  V30 1 N 36.398203 32.178084 61.425048 0
M  V30 2 C 39.823323 26.766126 54.711785 0
M  V30 3 C 38.447832 32.570159 60.243453 0
M  V30 4 C 38.899995 31.575049 55.414428 0
M  V30 5 N 36.836689 31.010217 59.356770 0
M  V30 6 C 37.593459 32.783168 61.325503 0
M  V30 7 C 39.278850 28.011823 55.457014 0 CFG=2
M  V30 8 O 38.445142 26.125282 58.567778 0
M  V30 9 C 38.317404 29.657268 53.726225 0
M  V30 10 C 39.028875 25.479395 54.987110 0
M  V30 11 C 38.909362 25.214191 56.479462 0
M  V30 12 C 38.009899 31.663574 59.250079 0
M  V30 13 C 38.327758 26.426262 57.210577 0 CFG=2
M  V30 14 C 38.109743 31.125385 54.176519 0
M  V30 15 C 39.493381 29.943133 58.054945 0
M  V30 16 C 39.135903 27.710112 56.971411 0 CFG=2
M  V30 17 N 38.552214 28.843036 57.739921 0 CHG=1
M  V30 18 C 36.087653 31.362393 60.411642 0
M  V30 19 C 38.845150 31.353431 57.995546 0 CFG=1
M  V30 20 C 38.004511 28.574400 54.776684 0
M  V30 21 C 38.049023 31.579606 56.698031 0
M  V30 22 C 39.781927 33.286834 60.167728 0
M  V30 23 H 39.871618 26.941631 53.636544 0
M  V30 24 H 40.845129 26.590614 55.035319 0
M  V30 25 H 39.256165 32.594129 55.257444 0
M  V30 26 H 39.805234 30.981814 55.506307 0
M  V30 27 H 37.867104 33.455147 62.124640 0
M  V30 28 H 40.053379 28.772261 55.373406 0
M  V30 29 H 39.321094 25.810134 58.737929 0
M  V30 30 H 39.327223 29.531459 53.332487 0
M  V30 31 H 37.666143 29.463770 52.876102 0
M  V30 32 H 38.042071 25.522578 54.524398 0
M  V30 33 H 39.547776 24.621969 54.567762 0
M  V30 34 H 38.290971 24.332193 56.651536 0
M  V30 35 H 39.901473 24.976522 56.868975 0
M  V30 36 H 37.278326 26.567936 56.946466 0
M  V30 37 H 38.435054 31.774635 53.367705 0
M  V30 38 H 37.047564 31.336646 54.312131 0
M  V30 39 H 39.935439 29.760005 59.035388 0
M  V30 40 H 40.322964 29.899933 57.356463 0
M  V30 41 H 40.139848 27.531842 57.364351 0
M  V30 42 H 37.770952 29.222171 57.223195 0
M  V30 43 H 35.105689 30.937743 60.451437 0
M  V30 44 H 39.618016 32.101979 57.867323 0
M  V30 45 H 37.466863 27.759834 54.290942 0
M  V30 46 H 37.284073 28.969387 55.487802 0
M  V30 47 H 37.558656 32.552138 56.755168 0
M  V30 48 H 37.245160 30.852318 56.631602 0
M  V30 49 H 40.567791 32.635479 60.553144 0
M  V30 50 H 39.762318 34.161154 60.819554 0
M  V30 51 H 40.042267 33.663087 59.179839 0
M  V30 52 H 38.192530 28.473502 58.609897 0
M  V30 END ATOM
M  V30 BEGIN BOND
M  V30 1 1 6 1
M  V30 2 2 6 3
M  V30 3 1 7 2
M  V30 4 1 10 2
M  V30 5 1 11 10
M  V30 6 1 12 3
M  V30 7 2 12 5
M  V30 8 1 13 8
M  V30 9 1 13 11
M  V30 10 1 14 4
M  V30 11 1 14 9
M  V30 12 1 16 7
M  V30 13 1 16 13
M  V30 14 1 17 15
M  V30 15 1 17 16
M  V30 16 2 18 1
M  V30 17 1 18 5
M  V30 18 1 19 12
M  V30 19 1 19 15
M  V30 20 1 20 7
M  V30 21 1 20 9
M  V30 22 1 21 4
M  V30 23 1 21 19
M  V30 24 1 22 3
M  V30 25 1 23 2
M  V30 26 1 24 2
M  V30 27 1 25 4
M  V30 28 1 26 4
M  V30 29 1 27 6
M  V30 30 1 7 28 CFG=1
M  V30 31 1 29 8
M  V30 32 1 30 9
M  V30 33 1 31 9
M  V30 34 1 32 10
M  V30 35 1 33 10
M  V30 36 1 34 11
M  V30 37 1 35 11
M  V30 38 1 13 36 CFG=3
M  V30 39 1 37 14
M  V30 40 1 38 14
M  V30 41 1 39 15
M  V30 42 1 40 15
M  V30 43 1 16 41 CFG=1
M  V30 44 1 42 17
M  V30 45 1 43 18
M  V30 46 1 19 44 CFG=3
M  V30 47 1 45 20
M  V30 48 1 46 20
M  V30 49 1 47 21
M  V30 50 1 48 21
M  V30 51 1 49 22
M  V30 52 1 50 22
M  V30 53 1 51 22
M  V30 54 1 52 17
M  V30 END BOND
M  V30 END CTAB
M  END
>  <i_epik_Tot_Q>  (1) 
1

>  <i_epik_Tot_abs_Q>  (1) 
1

>  <i_i_glide_confnum>  (1) 
1

>  <i_i_glide_lignum>  (1) 
79

>  <i_i_glide_posenum>  (1) 
386

>  <i_i_glide_rotatable_bonds>  (1) 
2

>  <i_lp_mmshare_version>  (1) 
72125

>  <i_m_source_file_index>  (1) 
36

>  <i_f3d_flags>  (1) 
0

>  <num_sample>  (1) 
100

>  <b_lp_Chiralities_Consistent>  (1) 
1

>  <r_epik_Charging_Adjusted_Penalty>  (1) 
0.039208821755369223

>  <r_epik_Ionization_Penalty>  (1) 
0.019605249659357914

>  <r_epik_Ionization_Penalty_Charging>  (1) 
0.019604410877684601

>  <r_epik_Ionization_Penalty_Neutral>  (1) 
8.3878167331114202e-07

>  <r_epik_State_Penalty>  (1) 
0.019604410877684622

>  <r_glide_ring_energy>  (1) 
0

>  <r_i_docking_score>  (1) 
-5.518103865261943

>  <r_i_glide_ecoul>  (1) 
-0.93158733810412309

>  <r_i_glide_eff_state_penalty>  (1) 
0.019604410877684622

>  <r_i_glide_einternal>  (1) 
0.50294367507517568

>  <r_i_glide_emodel>  (1) 
-30.959951852440305

>  <r_i_glide_emodel_strain>  (1) 
0.22076645114781712

>  <r_i_glide_energy>  (1) 
-25.249367086391235

>  <r_i_glide_erotb>  (1) 
0.1989582782383891

>  <r_i_glide_esite>  (1) 
-0.071919897146727058

>  <r_i_glide_evdw>  (1) 
-24.317779748287112

>  <r_i_glide_gscore>  (1) 
-5.5377082761396279

>  <r_i_glide_gscore_strain>  (1) 
0

>  <r_i_glide_hbond>  (1) 
-0.18210487393302985

>  <r_i_glide_ligand_efficiency>  (1) 
-0.25082290296645193

>  <r_i_glide_ligand_efficiency_ln>  (1) 
-1.3488258623989979

>  <r_i_glide_ligand_efficiency_sa>  (1) 
-0.70281563914115819

>  <r_i_glide_lipo>  (1) 
-2.2105790638657115

>  <r_i_glide_metal>  (1) 
-0

>  <r_i_glide_rewards>  (1) 
-1.9164356313025743

>  <r_lp_Energy>  (1) 
40.847864000000001

>  <r_lp_tautomer_probability>  (1) 
1

>  <s_epik_Chemistry_Notes>  (1) 
This compound contains an electron-poor aromatic ring that is susceptible to covalent hydrolysis at low pH, typically resulting in measured values for nitrogen ring protonation that are around two units higher than predicted values.

>  <s_epik_cmdline>  (1) 
J2VwaWtfcHl0aG9uJywgJy1waHQnLCAnMS4wJywgJy1waCcsICc3LjQnLCAnLXRuJywgJzgnLCAnLW1hJywgJzUwMCcsICctaW1hZScsICc8aW5maWxlLm1hZT4nLCAnLW9tYWUnLCAnPG91dGZpbGUubWFlPic=

>  <s_epik_input>  (1) 
W0NIM11jMVtjSF1uW2NIXW5jMVtDQEhdKFtDSDJdW0NIMl1bQ0gyXVtDSDJdW0NIMl0yKVtDSDJdW05IXVtDQEhdKFtDQEhdMjMpW0NASF0oW09IXSlbQ0gyXVtDSDJdW0NIMl0z

>  <s_glide_docking_method>  (1) 
confgen

>  <s_i_glide_gridfile>  (1) 
gpcr_5ht2c_6bqh_protein_autoprepared_prepared

>  <s_lp_Force_Field>  (1) 
S-OPLS

>  <s_lp_Variant>  (1) 
DiffSBDD_35-1

>  <s_m_source_file>  (1) 
generated_GPCR_5HT2C_ligand_DiffSBDD_2026-06-23_prepared.sdf

>  <GenAI_Model>  (1) 
DiffSBDD

>  <Protein>  (1) 
GPCR_5HT2C

$$$$
DiffSBDD_78
     RDKit          3D

  0  0  0  0  0  0  0  0  0  0999 V3000
M  V30 BEGIN CTAB
M  V30 COUNTS 104 109 0 0 1
M  V30 BEGIN ATOM
M  V30 1 O 38.867366 36.913283 65.075387 0
M  V30 2 C 38.797157 26.114433 54.872296 0
M  V30 3 C 39.315155 28.148961 60.942242 0 CFG=1
M  V30 4 C 35.971513 38.538072 61.472159 0
M  V30 5 O 33.555916 37.737658 65.718371 0
M  V30 6 C 40.041016 26.867005 57.055164 0 CFG=2
M  V30 7 C 39.368181 37.328983 63.810548 0
M  V30 8 O 36.979953 37.051755 63.245898 0
M  V30 9 C 39.967437 26.006716 55.813302 0 CFG=1
M  V30 10 O 37.244494 34.137745 57.767375 0
M  V30 11 C 43.429873 28.360371 67.871509 0
M  V30 12 N 39.951880 27.900097 59.675593 0
M  V30 13 N 39.682068 25.450741 57.146934 0
M  V30 14 C 45.469956 27.584456 66.921946 0
M  V30 15 C 37.679760 25.102235 55.026746 0
M  V30 16 C 40.056096 28.564012 62.178864 0 CFG=1
M  V30 17 N 39.064525 28.485498 58.750676 0
M  V30 18 C 39.791653 36.925789 66.154091 0
M  V30 19 C 38.983648 27.917884 57.411159 0 CFG=1
M  V30 20 C 44.237411 27.267167 66.141976 0
M  V30 21 C 37.654780 29.924626 56.478284 0
M  V30 22 C 36.111235 38.157133 62.953756 0 CFG=2
M  V30 23 C 39.245104 30.859340 59.213812 0
M  V30 24 C 41.735516 27.586309 66.122222 0
M  V30 25 C 34.845089 37.900601 65.186791 0
M  V30 26 C 38.319078 36.960381 62.730471 0 CFG=2
M  V30 27 C 39.736255 30.760988 60.661069 0
M  V30 28 C 40.876129 35.842121 66.015204 0
M  V30 29 O 38.744913 26.978471 54.000600 0
M  V30 30 C 39.032955 29.386477 56.896994 0
M  V30 31 C 43.146504 27.700841 66.659989 0
M  V30 32 C 39.936953 29.675088 55.694240 0
M  V30 33 C 37.367207 34.744349 61.725919 0
M  V30 34 C 38.312210 25.048690 57.521892 0
M  V30 35 C 41.508697 28.555024 64.948327 0
M  V30 36 C 42.087038 28.058578 63.604334 0
M  V30 37 O 44.817995 28.295316 68.075652 0
M  V30 38 N 38.149243 32.987092 59.530586 0
M  V30 39 S 36.998196 35.356830 60.087841 0
M  V30 40 C 38.544396 31.902350 58.755256 0
M  V30 41 C 34.772026 37.843412 63.649697 0
M  V30 42 C 37.489509 34.045016 58.946756 0
M  V30 43 C 37.183864 25.169721 56.467390 0
M  V30 44 C 41.533921 28.807292 62.376549 0
M  V30 45 O 42.616585 28.899022 68.620144 0
M  V30 46 C 39.658276 29.707260 58.293488 0 CFG=2
M  V30 47 C 39.185127 29.577117 61.445964 0 CFG=1
M  V30 48 C 38.577532 35.491420 62.309176 0
M  V30 49 H 38.445079 27.549702 61.146018 0
M  V30 50 H 35.251024 39.347449 61.368818 0
M  V30 51 H 35.645125 37.737711 60.823031 0
M  V30 52 H 36.906764 38.921142 61.067595 0
M  V30 53 H 33.224873 36.927260 65.361126 0
M  V30 54 H 41.053371 27.133798 57.352715 0
M  V30 55 H 40.304456 36.825013 63.573492 0
M  V30 56 H 39.645158 38.377614 63.830433 0
M  V30 57 H 40.917800 25.741016 55.358082 0
M  V30 58 H 40.038138 26.899274 59.510953 0
M  V30 59 H 46.045884 28.285514 66.329168 0
M  V30 60 H 38.066462 24.109444 54.796430 0
M  V30 61 H 36.875081 25.315630 54.323065 0
M  V30 62 H 39.645140 27.968935 62.968125 0
M  V30 63 H 40.228571 37.915779 66.274983 0
M  V30 64 H 39.221782 36.734592 67.063246 0
M  V30 65 H 37.968629 27.559044 57.288808 0
M  V30 66 H 44.292702 26.730873 65.205955 0
M  V30 67 H 37.707390 30.922746 56.041590 0
M  V30 68 H 36.950117 29.949185 57.309519 0
M  V30 69 H 37.223361 29.298463 55.700275 0
M  V30 70 H 36.445001 39.086234 63.376642 0
M  V30 71 H 41.015074 27.792880 66.915185 0
M  V30 72 H 41.544638 26.557569 65.817002 0
M  V30 73 H 35.243786 38.845822 65.551724 0
M  V30 74 H 35.495174 37.110334 65.567085 0
M  V30 75 H 38.458134 37.582760 61.848952 0
M  V30 76 H 40.819878 30.685711 60.602842 0
M  V30 77 H 39.535168 31.668800 61.227327 0
M  V30 78 H 41.447775 35.742168 66.936478 0
M  V30 79 H 41.586835 36.077988 65.223573 0
M  V30 80 H 40.444954 34.867127 65.796918 0
M  V30 81 H 46.044670 26.704159 67.211333 0
M  V30 82 H 40.152638 30.741093 55.601930 0
M  V30 83 H 39.478864 29.365115 54.755382 0
M  V30 84 H 40.888798 29.153334 55.767712 0
M  V30 85 H 36.445453 34.937168 62.275158 0
M  V30 86 H 37.502738 33.666988 61.771161 0
M  V30 87 H 38.402387 23.989257 57.764658 0
M  V30 88 H 38.024587 25.523243 58.461527 0
M  V30 89 H 40.437726 28.708464 64.863024 0
M  V30 90 H 41.914852 29.538813 65.187577 0
M  V30 91 H 43.172472 28.160091 63.614307 0
M  V30 92 H 41.884418 26.993453 63.501842 0
M  V30 93 H 38.332782 33.007322 60.520427 0
M  V30 94 H 38.233214 31.980874 57.732035 0
M  V30 95 H 34.011553 38.537944 63.295558 0
M  V30 96 H 34.424278 36.851474 63.369530 0
M  V30 97 H 36.627473 26.094616 56.611954 0
M  V30 98 H 36.451419 24.378617 56.630964 0
M  V30 99 H 42.045094 28.499469 61.472749 0
M  V30 100 H 41.704644 29.874615 62.517341 0
M  V30 101 H 40.747909 29.630717 58.251039 0
M  V30 102 H 38.278192 29.839773 61.980356 0
M  V30 103 H 39.407783 35.455497 61.603419 0
M  V30 104 H 38.941405 34.936295 63.168473 0
M  V30 END ATOM
M  V30 BEGIN BOND
M  V30 1 1 7 1
M  V30 2 1 9 2
M  V30 3 1 9 6
M  V30 4 1 12 3
M  V30 5 1 13 6
M  V30 6 1 13 9
M  V30 7 1 15 2
M  V30 8 1 16 3
M  V30 9 1 17 12
M  V30 10 1 18 1
M  V30 11 1 19 6
M  V30 12 1 19 17
M  V30 13 1 20 14
M  V30 14 1 22 4
M  V30 15 1 22 8
M  V30 16 1 25 5
M  V30 17 1 26 7
M  V30 18 1 26 8
M  V30 19 1 27 23
M  V30 20 1 28 18
M  V30 21 2 29 2
M  V30 22 1 30 19
M  V30 23 1 30 21
M  V30 24 1 31 11
M  V30 25 2 31 20
M  V30 26 1 31 24
M  V30 27 1 32 30
M  V30 28 1 34 13
M  V30 29 1 35 24
M  V30 30 1 36 35
M  V30 31 1 37 11
M  V30 32 1 37 14
M  V30 33 1 39 33
M  V30 34 2 40 23
M  V30 35 1 40 38
M  V30 36 1 41 22
M  V30 37 1 41 25
M  V30 38 2 42 10
M  V30 39 1 42 38
M  V30 40 1 42 39
M  V30 41 1 43 15
M  V30 42 1 43 34
M  V30 43 1 44 16
M  V30 44 1 44 36
M  V30 45 2 45 11
M  V30 46 1 46 17
M  V30 47 1 46 23
M  V30 48 1 46 30
M  V30 49 1 47 3
M  V30 50 1 47 16
M  V30 51 1 47 27
M  V30 52 1 48 26
M  V30 53 1 48 33
M  V30 54 1 3 49 CFG=1
M  V30 55 1 50 4
M  V30 56 1 51 4
M  V30 57 1 52 4
M  V30 58 1 53 5
M  V30 59 1 6 54 CFG=1
M  V30 60 1 55 7
M  V30 61 1 56 7
M  V30 62 1 9 57 CFG=3
M  V30 63 1 58 12
M  V30 64 1 59 14
M  V30 65 1 60 15
M  V30 66 1 61 15
M  V30 67 1 16 62 CFG=1
M  V30 68 1 63 18
M  V30 69 1 64 18
M  V30 70 1 19 65 CFG=1
M  V30 71 1 66 20
M  V30 72 1 67 21
M  V30 73 1 68 21
M  V30 74 1 69 21
M  V30 75 1 22 70 CFG=1
M  V30 76 1 71 24
M  V30 77 1 72 24
M  V30 78 1 73 25
M  V30 79 1 74 25
M  V30 80 1 26 75 CFG=3
M  V30 81 1 76 27
M  V30 82 1 77 27
M  V30 83 1 78 28
M  V30 84 1 79 28
M  V30 85 1 80 28
M  V30 86 1 81 14
M  V30 87 1 82 32
M  V30 88 1 83 32
M  V30 89 1 84 32
M  V30 90 1 85 33
M  V30 91 1 86 33
M  V30 92 1 87 34
M  V30 93 1 88 34
M  V30 94 1 89 35
M  V30 95 1 90 35
M  V30 96 1 91 36
M  V30 97 1 92 36
M  V30 98 1 93 38
M  V30 99 1 94 40
M  V30 100 1 95 41
M  V30 101 1 96 41
M  V30 102 1 97 43
M  V30 103 1 98 43
M  V30 104 1 99 44
M  V30 105 1 100 44
M  V30 106 1 46 101 CFG=3
M  V30 107 1 47 102 CFG=1
M  V30 108 1 103 48
M  V30 109 1 104 48
M  V30 END BOND
M  V30 END CTAB
M  END
>  <i_epik_Tot_Q>  (1) 
0

>  <i_epik_Tot_abs_Q>  (1) 
0

>  <i_i_glide_confnum>  (1) 
3669

>  <i_i_glide_lignum>  (1) 
183

>  <i_i_glide_posenum>  (1) 
272

>  <i_i_glide_rotatable_bonds>  (1) 
20

>  <i_lp_mmshare_version>  (1) 
72125

>  <i_m_source_file_index>  (1) 
79

>  <i_f3d_flags>  (1) 
0

>  <num_sample>  (1) 
100

>  <b_lp_Chiralities_Consistent>  (1) 
1

>  <r_epik_Charging_Adjusted_Penalty>  (1) 
0.92354502945683503

>  <r_epik_Ionization_Penalty>  (1) 
0.93156090309964268

>  <r_epik_Ionization_Penalty_Charging>  (1) 
0

>  <r_epik_Ionization_Penalty_Neutral>  (1) 
0.93156090309964268

>  <r_epik_State_Penalty>  (1) 
0.92354502945683503

>  <r_glide_ring_energy>  (1) 
0

>  <r_i_docking_score>  (1) 
-5.5175791777633325

>  <r_i_glide_ecoul>  (1) 
-0.094078639919547236

>  <r_i_glide_eff_state_penalty>  (1) 
0.92354502945683503

>  <r_i_glide_einternal>  (1) 
12.125595981106041

>  <r_i_glide_emodel>  (1) 
-42.037278402885121

>  <r_i_glide_emodel_strain>  (1) 
7.6604216385726147

>  <r_i_glide_energy>  (1) 
-48.653910797818213

>  <r_i_glide_erotb>  (1) 
0.59596673808410561

>  <r_i_glide_esite>  (1) 
-0.043471010638757759

>  <r_i_glide_evdw>  (1) 
-48.559832157898668

>  <r_i_glide_gscore>  (1) 
-6.4411242072201675

>  <r_i_glide_gscore_strain>  (1) 
0.91510540964315368

>  <r_i_glide_hbond>  (1) 
-0.10101361982125377

>  <r_i_glide_ligand_efficiency>  (1) 
-0.11494956620340276

>  <r_i_glide_ligand_efficiency_ln>  (1) 
-1.132693798799933

>  <r_i_glide_ligand_efficiency_sa>  (1) 
-0.41775444777064907

>  <r_i_glide_lipo>  (1) 
-4.4092130209037403

>  <r_i_glide_metal>  (1) 
-0

>  <r_i_glide_rewards>  (1) 
-0.9563952997008085

>  <r_lp_Energy>  (1) 
40.557254

>  <r_lp_tautomer_probability>  (1) 
0.99984117342658263

>  <s_epik_Chemistry_Notes>  (1) 
This compound has an ester and may undergo hydrolysis at high or low pH.

>  <s_epik_cmdline>  (1) 
J2VwaWtfcHl0aG9uJywgJy1waHQnLCAnMS4wJywgJy1waCcsICc3LjQnLCAnLXRuJywgJzgnLCAnLW1hJywgJzUwMCcsICctaW1hZScsICc8aW5maWxlLm1hZT4nLCAnLW9tYWUnLCAnPG91dGZpbGUubWFlPic=

>  <s_epik_input>  (1) 
W09IXVtDSDJdW0NIMl1bQ0BIXShbQ0gzXSlPW0NAQEhdKFtDSDJdT1tDSDJdW0NIM10pW0NIMl1bQ0gyXVNDKD1PKVtOSF0vW0NIXT1DKFtDQEhdMU4oW05IXTIpW0NAQEhdKEMxKFtDSDNdKVtDSDNdKVtDQEhdM04oW0NASF0zNClbQ0gyXVtDSDJdW0NIMl1DND1PKVxbQ0gyXVtDQEBIXShbQ0BASF0yNSlbQ0BASF01W0NIMl1bQ0gyXVtDSDJdW0NIMl1bQ0BASF0oQzY9TylbQ0hdPVtDSF1PNg==

>  <s_glide_docking_method>  (1) 
confgen

>  <s_i_glide_gridfile>  (1) 
gpcr_5ht2c_6bqh_protein_autoprepared_prepared

>  <s_lp_Force_Field>  (1) 
S-OPLS

>  <s_lp_Variant>  (1) 
DiffSBDD_78-5

>  <s_m_source_file>  (1) 
generated_GPCR_5HT2C_ligand_DiffSBDD_2026-06-23_prepared.sdf

>  <GenAI_Model>  (1) 
DiffSBDD

>  <Protein>  (1) 
GPCR_5HT2C

$$$$
DiffSBDD_54
     RDKit          3D

  0  0  0  0  0  0  0  0  0  0999 V3000
M  V30 BEGIN CTAB
M  V30 COUNTS 42 43 0 0 1
M  V30 BEGIN ATOM
M  V30 1 C 39.521128 30.163764 55.726661 0
M  V30 2 C 36.805312 31.455890 60.083899 0
M  V30 3 C 39.190419 30.637448 60.073100 0
M  V30 4 C 38.014209 25.515507 58.025791 0
M  V30 5 C 38.685506 27.413202 56.407567 0
M  V30 6 S 37.754034 30.528701 57.638120 0 CHG=1
M  V30 7 C 38.249545 32.334763 56.054091 0
M  V30 8 N 36.821419 31.827674 61.353432 0
M  V30 9 C 40.877395 27.983958 57.609220 0
M  V30 10 C 35.790125 32.756807 61.311601 0
M  V30 11 N 35.153076 32.873108 60.132359 0
M  V30 12 N 35.853723 32.024090 59.368317 0
M  V30 13 N 39.244351 29.795866 57.147157 0 CFG=1 CHG=1
M  V30 14 C 39.385677 28.334663 57.443264 0 CFG=1
M  V30 15 C 39.534827 31.687843 55.517638 0
M  V30 16 C 38.729687 25.905057 56.727848 0
M  V30 17 O 38.116461 31.962687 57.418880 0
M  V30 18 C 37.775812 30.450058 59.480684 0 CFG=2
M  V30 19 H 38.752151 29.744142 55.076784 0
M  V30 20 H 40.470652 29.745778 55.394185 0
M  V30 21 H 39.172975 30.520429 61.158703 0
M  V30 22 H 39.575881 31.635209 59.867676 0
M  V30 23 H 39.911127 29.909139 59.709674 0
M  V30 24 H 37.992624 24.431408 58.143640 0
M  V30 25 H 36.982454 25.865760 58.023548 0
M  V30 26 H 38.511313 25.927350 58.903559 0
M  V30 27 H 39.143268 27.537811 55.425577 0
M  V30 28 H 37.645167 27.715462 56.294021 0
M  V30 29 H 38.321710 33.421151 55.992910 0
M  V30 30 H 37.374897 32.046527 55.465310 0
M  V30 31 H 41.006223 26.978058 58.010368 0
M  V30 32 H 41.378239 28.660905 58.301683 0
M  V30 33 H 41.417071 28.025256 56.662179 0
M  V30 34 H 35.503562 33.350737 62.166823 0
M  V30 35 H 35.645070 31.879172 58.364789 0
M  V30 36 H 38.922021 28.154753 58.412246 0
M  V30 37 H 40.396559 32.131387 56.014184 0
M  V30 38 H 39.643597 31.912895 54.456179 0
M  V30 39 H 38.264104 25.363397 55.903537 0
M  V30 40 H 39.759012 25.548040 56.757240 0
M  V30 41 H 37.420588 29.457164 59.758759 0
M  V30 42 H 39.982219 30.233626 57.678447 0
M  V30 END ATOM
M  V30 BEGIN BOND
M  V30 1 2 8 2
M  V30 2 1 10 8
M  V30 3 2 11 10
M  V30 4 1 12 2
M  V30 5 1 12 11
M  V30 6 1 13 1
M  V30 7 1 13 6
M  V30 8 1 14 5
M  V30 9 1 14 9
M  V30 10 1 14 13
M  V30 11 1 15 1
M  V30 12 1 15 7
M  V30 13 1 16 4
M  V30 14 1 16 5
M  V30 15 1 6 17 CFG=1
M  V30 16 1 17 7
M  V30 17 1 18 2
M  V30 18 1 18 3
M  V30 19 1 18 6
M  V30 20 1 19 1
M  V30 21 1 20 1
M  V30 22 1 21 3
M  V30 23 1 22 3
M  V30 24 1 23 3
M  V30 25 1 24 4
M  V30 26 1 25 4
M  V30 27 1 26 4
M  V30 28 1 27 5
M  V30 29 1 28 5
M  V30 30 1 29 7
M  V30 31 1 30 7
M  V30 32 1 31 9
M  V30 33 1 32 9
M  V30 34 1 33 9
M  V30 35 1 34 10
M  V30 36 1 35 12
M  V30 37 1 14 36 CFG=1
M  V30 38 1 37 15
M  V30 39 1 38 15
M  V30 40 1 39 16
M  V30 41 1 40 16
M  V30 42 1 18 41 CFG=3
M  V30 43 1 13 42 CFG=1
M  V30 END BOND
M  V30 END CTAB
M  END
>  <i_epik_Tot_Q>  (1) 
2

>  <i_epik_Tot_abs_Q>  (1) 
2

>  <i_i_glide_confnum>  (1) 
13

>  <i_i_glide_lignum>  (1) 
117

>  <i_i_glide_posenum>  (1) 
378

>  <i_i_glide_rotatable_bonds>  (1) 
5

>  <i_lp_mmshare_version>  (1) 
72125

>  <i_m_source_file_index>  (1) 
55

>  <i_f3d_flags>  (1) 
0

>  <num_sample>  (1) 
100

>  <b_lp_Chiralities_Consistent>  (1) 
1

>  <r_epik_Charging_Adjusted_Penalty>  (1) 
0.22285261290592212

>  <r_epik_Ionization_Penalty>  (1) 
0.11376846567106323

>  <r_epik_Ionization_Penalty_Charging>  (1) 
0.11142630645296109

>  <r_epik_Ionization_Penalty_Neutral>  (1) 
0.0023421592181021404

>  <r_epik_State_Penalty>  (1) 
0.11142630645296105

>  <r_glide_ring_energy>  (1) 
0

>  <r_i_docking_score>  (1) 
-5.512223322076542

>  <r_i_glide_ecoul>  (1) 
-10.660099984178983

>  <r_i_glide_eff_state_penalty>  (1) 
0.11142630645296105

>  <r_i_glide_einternal>  (1) 
8.4099905347665889

>  <r_i_glide_emodel>  (1) 
-43.362925255166374

>  <r_i_glide_emodel_strain>  (1) 
1.9954958647319394

>  <r_i_glide_energy>  (1) 
-31.507626493684512

>  <r_i_glide_erotb>  (1) 
0.96597774364564237

>  <r_i_glide_esite>  (1) 
-0.25789659531580628

>  <r_i_glide_evdw>  (1) 
-20.847526509505528

>  <r_i_glide_gscore>  (1) 
-5.6236496285295035

>  <r_i_glide_gscore_strain>  (1) 
0

>  <r_i_glide_hbond>  (1) 
-0.37069360472558754

>  <r_i_glide_ligand_efficiency>  (1) 
-0.30623462900425236

>  <r_i_glide_ligand_efficiency_ln>  (1) 
-1.4168885816345331

>  <r_i_glide_ligand_efficiency_sa>  (1) 
-0.80256176857164852

>  <r_i_glide_lipo>  (1) 
-1.5540357661144255

>  <r_i_glide_metal>  (1) 
-0

>  <r_i_glide_rewards>  (1) 
-1.7656100829172021

>  <r_lp_Energy>  (1) 
23.329950999999998

>  <r_lp_tautomer_probability>  (1) 
0.94828448534560383

>  <s_epik_cmdline>  (1) 
J2VwaWtfcHl0aG9uJywgJy1waHQnLCAnMS4wJywgJy1waCcsICc3LjQnLCAnLXRuJywgJzgnLCAnLW1hJywgJzUwMCcsICctaW1hZScsICc8aW5maWxlLm1hZT4nLCAnLW9tYWUnLCAnPG91dGZpbGUubWFlPic=

>  <s_epik_input>  (1) 
W0NIM11bQ0gyXVtDSDJdW0NASF0oW0NIM10pTihbQ0gyXVtDSDJdW0NIMl1PMSlbUytdMVtDQEBIXShbQ0gzXSljMm5bY0hdbltuSF0y

>  <s_glide_docking_method>  (1) 
confgen

>  <s_i_glide_gridfile>  (1) 
gpcr_5ht2c_6bqh_protein_autoprepared_prepared

>  <s_lp_Force_Field>  (1) 
S-OPLS

>  <s_lp_Variant>  (1) 
DiffSBDD_54-3

>  <s_m_source_file>  (1) 
generated_GPCR_5HT2C_ligand_DiffSBDD_2026-06-23_prepared.sdf

>  <GenAI_Model>  (1) 
DiffSBDD

>  <Protein>  (1) 
GPCR_5HT2C

$$$$
DiffSBDD_36
     RDKit          3D

  0  0  0  0  0  0  0  0  0  0999 V3000
M  V30 BEGIN CTAB
M  V30 COUNTS 49 49 0 0 1
M  V30 BEGIN ATOM
M  V30 1 C 38.083748 26.726352 54.561272 0
M  V30 2 C 38.675428 25.426718 58.095269 0
M  V30 3 C 38.445649 24.516559 55.862623 0
M  V30 4 C 37.441314 27.597270 57.646071 0
M  V30 5 C 39.866054 30.206337 60.579277 0
M  V30 6 C 38.494295 26.604680 57.113989 0 CFG=1
M  V30 7 C 38.363978 24.137694 57.337597 0
M  V30 8 C 39.712654 29.634401 51.338830 0
M  V30 9 C 39.153591 26.603956 53.758690 0
M  V30 10 C 39.369840 27.394548 52.488401 0
M  V30 11 O 40.845116 30.554226 61.229952 0
M  V30 12 C 40.505870 28.236035 57.252548 0
M  V30 13 C 39.865570 29.270558 58.152603 0
M  V30 14 C 39.926990 27.100598 56.805495 0
M  V30 15 C 37.887388 25.935318 55.847500 0 CFG=1
M  V30 16 C 39.816524 28.891862 50.007830 0
M  V30 17 S 38.280048 30.937708 60.567832 0 CHG=-1
M  V30 18 C 40.019572 28.986446 59.667585 0
M  V30 19 C 39.045268 29.677132 53.752085 0
M  V30 20 C 38.920402 28.881913 52.432930 0 CFG=1
M  V30 21 H 37.301188 27.424603 54.304453 0
M  V30 22 H 39.695393 25.385526 58.482397 0
M  V30 23 H 38.045138 25.517876 58.967757 0
M  V30 24 H 39.490386 24.506401 55.557838 0
M  V30 25 H 37.889977 23.834413 55.217473 0
M  V30 26 H 36.478922 27.100760 57.767721 0
M  V30 27 H 37.672518 27.997514 58.624229 0
M  V30 28 H 37.282240 28.430790 56.963471 0
M  V30 29 H 39.054224 23.337937 57.608556 0
M  V30 30 H 37.353786 23.802472 57.578783 0
M  V30 31 H 39.251731 30.601366 51.149975 0
M  V30 32 H 40.722197 29.847458 51.692772 0
M  V30 33 H 39.931446 25.902318 54.013417 0
M  V30 34 H 40.445054 27.354670 52.335354 0
M  V30 35 H 38.930363 26.834252 51.662113 0
M  V30 36 H 41.522690 28.445187 56.953645 0
M  V30 37 H 40.445120 30.137754 57.905885 0
M  V30 38 H 38.876214 29.588657 57.847205 0
M  V30 39 H 40.511379 26.455387 56.167944 0
M  V30 40 H 36.808062 25.825518 55.963531 0
M  V30 41 H 40.228071 29.528236 49.224833 0
M  V30 42 H 40.445140 28.010460 50.099326 0
M  V30 43 H 38.844957 28.537718 49.688162 0
M  V30 44 H 39.342814 28.198604 59.998558 0
M  V30 45 H 41.018809 28.582521 59.837493 0
M  V30 46 H 40.045136 29.617112 54.174858 0
M  V30 47 H 38.829230 30.732924 53.587265 0
M  V30 48 H 38.346394 29.348565 54.517525 0
M  V30 49 H 37.866101 28.887964 52.152637 0
M  V30 END ATOM
M  V30 BEGIN BOND
M  V30 1 1 6 2
M  V30 2 1 6 4 CFG=1
M  V30 3 1 7 2
M  V30 4 1 7 3
M  V30 5 2 9 1
M  V30 6 1 10 9
M  V30 7 2 11 5
M  V30 8 1 13 12
M  V30 9 1 14 6
M  V30 10 2 14 12
M  V30 11 1 15 1
M  V30 12 1 15 3
M  V30 13 1 15 6
M  V30 14 1 16 8
M  V30 15 1 17 5
M  V30 16 1 18 5
M  V30 17 1 18 13
M  V30 18 1 20 8
M  V30 19 1 20 10
M  V30 20 1 20 19
M  V30 21 1 21 1
M  V30 22 1 22 2
M  V30 23 1 23 2
M  V30 24 1 24 3
M  V30 25 1 25 3
M  V30 26 1 26 4
M  V30 27 1 27 4
M  V30 28 1 28 4
M  V30 29 1 29 7
M  V30 30 1 30 7
M  V30 31 1 31 8
M  V30 32 1 32 8
M  V30 33 1 33 9
M  V30 34 1 34 10
M  V30 35 1 35 10
M  V30 36 1 36 12
M  V30 37 1 37 13
M  V30 38 1 38 13
M  V30 39 1 39 14
M  V30 40 1 15 40 CFG=1
M  V30 41 1 41 16
M  V30 42 1 42 16
M  V30 43 1 43 16
M  V30 44 1 44 18
M  V30 45 1 45 18
M  V30 46 1 46 19
M  V30 47 1 47 19
M  V30 48 1 48 19
M  V30 49 1 20 49 CFG=3
M  V30 END BOND
M  V30 END CTAB
M  END
>  <i_epik_Tot_Q>  (1) 
-1

>  <i_epik_Tot_abs_Q>  (1) 
1

>  <i_i_glide_confnum>  (1) 
171

>  <i_i_glide_lignum>  (1) 
82

>  <i_i_glide_posenum>  (1) 
343

>  <i_i_glide_rotatable_bonds>  (1) 
8

>  <i_lp_mmshare_version>  (1) 
72125

>  <i_m_source_file_index>  (1) 
37

>  <i_f3d_flags>  (1) 
0

>  <num_sample>  (1) 
100

>  <b_lp_Chiralities_Consistent>  (1) 
1

>  <r_epik_Charging_Adjusted_Penalty>  (1) 
9.4165288777969193e-05

>  <r_epik_Ionization_Penalty>  (1) 
9.4165288777969193e-05

>  <r_epik_Ionization_Penalty_Charging>  (1) 
9.4165288777969193e-05

>  <r_epik_Ionization_Penalty_Neutral>  (1) 
0

>  <r_epik_State_Penalty>  (1) 
-0

>  <r_glide_ring_energy>  (1) 
0

>  <r_i_docking_score>  (1) 
-5.5095636739434015

>  <r_i_glide_ecoul>  (1) 
-2.7289360141038279

>  <r_i_glide_eff_state_penalty>  (1) 
-0

>  <r_i_glide_einternal>  (1) 
5.9762712509036362

>  <r_i_glide_emodel>  (1) 
-31.493557463529875

>  <r_i_glide_emodel_strain>  (1) 
2.9240588279345587

>  <r_i_glide_energy>  (1) 
-27.822999862875584

>  <r_i_glide_erotb>  (1) 
2.5456975872200465

>  <r_i_glide_esite>  (1) 
0

>  <r_i_glide_evdw>  (1) 
-25.094063848771757

>  <r_i_glide_gscore>  (1) 
-5.5095636739434015

>  <r_i_glide_gscore_strain>  (1) 
0

>  <r_i_glide_hbond>  (1) 
-0.30833206689301718

>  <r_i_glide_ligand_efficiency>  (1) 
-0.27547818369717009

>  <r_i_glide_ligand_efficiency_ln>  (1) 
-1.3788620700162522

>  <r_i_glide_ligand_efficiency_sa>  (1) 
-0.74776283481516626

>  <r_i_glide_lipo>  (1) 
-4.2038528100088604

>  <r_i_glide_metal>  (1) 
-0

>  <r_i_glide_rewards>  (1) 
-1.8790327897074084

>  <r_lp_Energy>  (1) 
17.800989999999999

>  <r_lp_tautomer_probability>  (1) 
1

>  <s_epik_cmdline>  (1) 
J2VwaWtfcHl0aG9uJywgJy1waHQnLCAnMS4wJywgJy1waCcsICc3LjQnLCAnLXRuJywgJzgnLCAnLW1hJywgJzUwMCcsICctaW1hZScsICc8aW5maWxlLm1hZT4nLCAnLW9tYWUnLCAnPG91dGZpbGUubWFlPic=

>  <s_epik_input>  (1) 
W0NIM11bQ0gyXVtDQEhdKFtDSDNdKVtDSDJdXFtDSF09W0NIXVxbQ0BIXTFbQ0gyXVtDSDJdW0NIMl1bQ0BAXTEoW0NIM10pL1tDSF09W0NIXVxbQ0gyXVtDSDJdQyg9TylbU0hd

>  <s_glide_docking_method>  (1) 
confgen

>  <s_i_glide_gridfile>  (1) 
gpcr_5ht2c_6bqh_protein_autoprepared_prepared

>  <s_lp_Force_Field>  (1) 
S-OPLS

>  <s_lp_Variant>  (1) 
DiffSBDD_36-3

>  <s_m_source_file>  (1) 
generated_GPCR_5HT2C_ligand_DiffSBDD_2026-06-23_prepared.sdf

>  <GenAI_Model>  (1) 
DiffSBDD

>  <Protein>  (1) 
GPCR_5HT2C

$$$$
DiffSBDD_9
     RDKit          3D

  0  0  0  0  0  0  0  0  0  0999 V3000
M  V30 BEGIN CTAB
M  V30 COUNTS 67 68 0 0 1
M  V30 BEGIN ATOM
M  V30 1 C 38.573863 33.031749 60.444825 0 CFG=1
M  V30 2 C 38.581953 26.246318 58.218830 0
M  V30 3 C 41.645137 35.337465 63.799511 0
M  V30 4 C 39.786355 30.545086 51.877910 0
M  V30 5 O 41.022497 36.141128 62.918510 0
M  V30 6 O 38.031228 28.937596 52.339461 0
M  V30 7 C 38.237649 34.381323 61.051582 0 CFG=1
M  V30 8 C 37.293591 33.219101 61.250266 0
M  V30 9 N 38.424565 33.062170 58.966475 0 CHG=1
M  V30 10 C 38.700014 30.035057 57.389225 0
M  V30 11 C 39.917975 28.057195 56.332842 0 CFG=2
M  V30 12 C 39.287093 28.124009 54.932973 0
M  V30 13 C 39.458179 29.473508 54.213785 0 CFG=1
M  V30 14 C 37.865998 30.676617 58.507476 0
M  V30 15 C 39.339797 29.312773 52.681861 0 CFG=2
M  V30 16 C 38.675536 27.746309 58.587299 0
M  V30 17 C 39.109862 30.966108 56.234447 0
M  V30 18 C 42.061313 28.137723 57.408122 0
M  V30 19 C 38.990627 35.026289 62.195988 0
M  V30 20 C 39.753473 32.212007 60.945479 0
M  V30 21 O 37.525714 30.083817 59.527256 0
M  V30 22 C 37.435580 32.143536 58.355123 0
M  V30 23 O 41.700673 34.110168 63.713627 0
M  V30 24 C 40.357796 35.597708 61.786746 0
M  V30 25 C 39.070233 28.700976 57.441324 0
M  V30 26 C 38.567115 30.554412 54.855584 0
M  V30 27 O 37.669210 35.314592 60.153903 0
M  V30 28 O 41.244924 28.537730 56.315179 0
M  V30 29 C 39.544268 27.958733 59.843142 0
M  V30 30 H 38.049800 26.098521 57.277559 0
M  V30 31 H 39.561768 25.774645 58.143809 0
M  V30 32 H 38.045180 25.677273 58.967779 0
M  V30 33 H 42.089903 35.937874 64.592897 0
M  V30 34 H 40.845132 30.738890 52.019285 0
M  V30 35 H 39.629444 30.394732 50.808669 0
M  V30 36 H 39.269889 31.457991 52.168024 0
M  V30 37 H 37.846131 28.092743 52.721831 0
M  V30 38 H 37.262489 32.753116 62.232645 0
M  V30 39 H 36.332993 33.257169 60.740588 0
M  V30 40 H 38.093333 34.004943 58.786218 0
M  V30 41 H 40.044583 26.992357 56.480175 0
M  V30 42 H 39.748213 27.339173 54.332940 0
M  V30 43 H 38.231618 27.852761 54.990145 0
M  V30 44 H 40.481366 29.803046 54.358495 0
M  V30 45 H 39.982161 28.492989 52.357574 0
M  V30 46 H 37.645155 27.968618 58.790810 0
M  V30 47 H 38.913910 32.021440 56.383112 0
M  V30 48 H 40.191858 30.964604 56.188391 0
M  V30 49 H 43.092415 28.435856 57.216973 0
M  V30 50 H 41.753182 28.624913 58.331444 0
M  V30 51 H 42.050395 27.056847 57.551792 0
M  V30 52 H 38.372783 35.807709 62.639839 0
M  V30 53 H 39.144098 34.273953 62.967699 0
M  V30 54 H 39.795582 32.227025 62.034256 0
M  V30 55 H 39.675013 31.171901 60.638105 0
M  V30 56 H 40.690957 32.616184 60.567979 0
M  V30 57 H 36.475176 32.262079 58.853845 0
M  V30 58 H 37.245171 32.424394 57.323124 0
M  V30 59 H 40.978559 34.836092 61.313098 0
M  V30 60 H 40.223199 36.390772 61.051860 0
M  V30 61 H 38.561722 31.444547 54.228611 0
M  V30 62 H 37.526075 30.234032 54.919453 0
M  V30 63 H 37.032009 35.837478 60.620657 0
M  V30 64 H 39.880494 28.990197 59.936364 0
M  V30 65 H 38.984865 27.737754 60.751112 0
M  V30 66 H 40.438147 27.337744 59.828187 0
M  V30 67 H 39.322755 32.947881 58.522585 0
M  V30 END ATOM
M  V30 BEGIN BOND
M  V30 1 1 5 3
M  V30 2 1 7 1
M  V30 3 1 8 1
M  V30 4 1 8 7
M  V30 5 1 9 1
M  V30 6 1 12 11
M  V30 7 1 13 12
M  V30 8 1 14 10
M  V30 9 1 15 4
M  V30 10 1 15 6
M  V30 11 1 15 13
M  V30 12 1 16 2
M  V30 13 1 17 10
M  V30 14 1 19 7
M  V30 15 1 1 20 CFG=3
M  V30 16 2 21 14
M  V30 17 1 22 9
M  V30 18 1 22 14
M  V30 19 2 23 3
M  V30 20 1 24 5
M  V30 21 1 24 19
M  V30 22 2 25 10
M  V30 23 1 25 11
M  V30 24 1 25 16
M  V30 25 1 26 13
M  V30 26 1 26 17
M  V30 27 1 7 27 CFG=3
M  V30 28 1 28 11
M  V30 29 1 28 18
M  V30 30 1 29 16
M  V30 31 1 30 2
M  V30 32 1 31 2
M  V30 33 1 32 2
M  V30 34 1 33 3
M  V30 35 1 34 4
M  V30 36 1 35 4
M  V30 37 1 36 4
M  V30 38 1 37 6
M  V30 39 1 38 8
M  V30 40 1 39 8
M  V30 41 1 40 9
M  V30 42 1 11 41 CFG=1
M  V30 43 1 42 12
M  V30 44 1 43 12
M  V30 45 1 13 44 CFG=3
M  V30 46 1 15 45 CFG=3
M  V30 47 1 46 16
M  V30 48 1 47 17
M  V30 49 1 48 17
M  V30 50 1 49 18
M  V30 51 1 50 18
M  V30 52 1 51 18
M  V30 53 1 52 19
M  V30 54 1 53 19
M  V30 55 1 54 20
M  V30 56 1 55 20
M  V30 57 1 56 20
M  V30 58 1 57 22
M  V30 59 1 58 22
M  V30 60 1 59 24
M  V30 61 1 60 24
M  V30 62 1 61 26
M  V30 63 1 62 26
M  V30 64 1 63 27
M  V30 65 1 64 29
M  V30 66 1 65 29
M  V30 67 1 66 29
M  V30 68 1 67 9
M  V30 END BOND
M  V30 END CTAB
M  END
>  <i_epik_Tot_Q>  (1) 
1

>  <i_epik_Tot_abs_Q>  (1) 
1

>  <i_i_glide_confnum>  (1) 
1390

>  <i_i_glide_lignum>  (1) 
14

>  <i_i_glide_posenum>  (1) 
222

>  <i_i_glide_rotatable_bonds>  (1) 
13

>  <i_lp_mmshare_version>  (1) 
72125

>  <i_m_source_file_index>  (1) 
10

>  <i_f3d_flags>  (1) 
0

>  <num_sample>  (1) 
100

>  <b_lp_Chiralities_Consistent>  (1) 
1

>  <r_epik_Charging_Adjusted_Penalty>  (1) 
0.43257487955488089

>  <r_epik_Ionization_Penalty>  (1) 
0.21628819114950359

>  <r_epik_Ionization_Penalty_Charging>  (1) 
0.21628743977744047

>  <r_epik_Ionization_Penalty_Neutral>  (1) 
7.5137206312442099e-07

>  <r_epik_State_Penalty>  (1) 
0.21628743977744042

>  <r_glide_ring_energy>  (1) 
0

>  <r_i_docking_score>  (1) 
-5.5085767214713055

>  <r_i_glide_ecoul>  (1) 
-4.5339388237670608

>  <r_i_glide_eff_state_penalty>  (1) 
0.21628743977744042

>  <r_i_glide_einternal>  (1) 
8.089153069839611

>  <r_i_glide_emodel>  (1) 
-47.206422846627923

>  <r_i_glide_emodel_strain>  (1) 
0.29831171503329301

>  <r_i_glide_energy>  (1) 
-34.403610308946938

>  <r_i_glide_erotb>  (1) 
0.92691700141960698

>  <r_i_glide_esite>  (1) 
-0.093871449827861123

>  <r_i_glide_evdw>  (1) 
-29.869671485179875

>  <r_i_glide_gscore>  (1) 
-5.7248641612487461

>  <r_i_glide_gscore_strain>  (1) 
0

>  <r_i_glide_hbond>  (1) 
0

>  <r_i_glide_ligand_efficiency>  (1) 
-0.18995092143004502

>  <r_i_glide_ligand_efficiency_ln>  (1) 
-1.2613243837636632

>  <r_i_glide_ligand_efficiency_sa>  (1) 
-0.58358941196405778

>  <r_i_glide_lipo>  (1) 
-3.0412330146728466

>  <r_i_glide_metal>  (1) 
-0

>  <r_i_glide_rewards>  (1) 
-1.3431023003435927

>  <r_lp_Energy>  (1) 
42.298378999999997

>  <s_epik_Chemistry_Notes>  (1) 
This compound has an ester and may undergo hydrolysis at high or low pH.

>  <s_epik_cmdline>  (1) 
J2VwaWtfcHl0aG9uJywgJy1waHQnLCAnMS4wJywgJy1waCcsICc3LjQnLCAnLXRuJywgJzgnLCAnLW1hJywgJzUwMCcsICctaW1hZScsICc8aW5maWxlLm1hZT4nLCAnLW9tYWUnLCAnPG91dGZpbGUubWFlPic=

>  <s_epik_input>  (1) 
Tz1bQ0hdT1tDSDJdW0NIMl1bQ0BAXShbQ0gyXTEpKFtPSF0pW0NAXTEoW0NIM10pW05IXVtDSDJdQyg9TylDMj1DKFtDSF0oW0NIM10pW0NIM10pW0NASF0oT1tDSDNdKVtDSDJdW0NAQEhdKFtDQEBIXShbQ0gzXSlbT0hdKVtDSDJdW0NIMl0y

>  <s_glide_docking_method>  (1) 
confgen

>  <s_i_glide_gridfile>  (1) 
gpcr_5ht2c_6bqh_protein_autoprepared_prepared

>  <s_lp_Force_Field>  (1) 
S-OPLS

>  <s_lp_Variant>  (1) 
DiffSBDD_9-2

>  <s_m_source_file>  (1) 
generated_GPCR_5HT2C_ligand_DiffSBDD_2026-06-23_prepared.sdf

>  <GenAI_Model>  (1) 
DiffSBDD

>  <Protein>  (1) 
GPCR_5HT2C

$$$$
DiffSBDD_15
     RDKit          3D

  0  0  0  0  0  0  0  0  0  0999 V3000
M  V30 BEGIN CTAB
M  V30 COUNTS 75 76 0 0 1
M  V30 BEGIN ATOM
M  V30 1 C 37.658982 30.720230 61.540467 0
M  V30 2 C 37.730025 32.090048 56.923602 0
M  V30 3 N 41.244918 27.149013 65.845443 0
M  V30 4 C 38.629493 33.288509 57.016439 0 CFG=2
M  V30 5 C 37.860051 28.190210 54.227944 0
M  V30 6 C 41.576964 29.701027 64.239616 0
M  V30 7 O 42.143361 25.244303 65.000680 0
M  V30 8 C 42.488011 27.917274 65.849952 0
M  V30 9 C 38.365288 35.282214 61.464615 0
M  V30 10 C 38.747531 30.109993 55.628798 0
M  V30 11 C 41.177053 25.878342 65.420518 0
M  V30 12 O 39.904988 25.759538 58.125851 0
M  V30 13 C 39.612016 33.297686 55.840350 0
M  V30 14 C 37.178997 29.752320 57.739167 0
M  V30 15 C 42.221717 29.413449 65.610575 0
M  V30 16 C 39.203271 33.337760 58.435631 0
M  V30 17 C 38.262495 30.632044 57.023244 0 CFG=2
M  V30 18 C 41.353835 31.188692 63.950835 0
M  V30 19 C 37.644835 26.815398 54.019658 0
M  V30 20 C 39.108078 34.206667 60.658150 0 CFG=2
M  V30 21 C 38.549649 28.629139 55.378209 0
M  V30 22 C 40.089324 32.850424 62.650924 0
M  V30 23 C 37.974930 30.056104 60.183817 0
M  V30 24 C 39.037316 27.691685 56.305172 0
M  V30 25 C 38.797071 26.320998 56.116121 0
M  V30 26 C 36.806374 30.143602 59.186078 0
M  V30 27 O 42.020208 32.046475 64.529818 0
M  V30 28 O 38.445148 34.074645 59.391560 0
M  V30 29 C 38.103003 25.880429 54.966610 0
M  V30 30 C 37.789830 32.246431 61.605935 0
M  V30 31 C 39.255604 25.335963 57.144165 0
M  V30 32 O 38.959177 24.137773 56.982134 0 CHG=-1
M  V30 33 N 40.411125 31.482904 63.046201 0
M  V30 34 C 39.204711 32.835405 61.386025 0 CFG=1
M  V30 35 H 38.237703 30.245274 62.330874 0
M  V30 36 H 36.615344 30.537849 61.767762 0
M  V30 37 H 37.245142 32.206283 55.964528 0
M  V30 38 H 37.081414 32.317053 57.767732 0
M  V30 39 H 40.407014 27.603269 66.179770 0
M  V30 40 H 38.001613 34.171682 56.894573 0
M  V30 41 H 37.489621 28.907779 53.511218 0
M  V30 42 H 42.206137 29.292743 63.447818 0
M  V30 43 H 40.617378 29.186370 64.166976 0
M  V30 44 H 42.976919 27.775578 66.815252 0
M  V30 45 H 43.181873 27.554013 65.089911 0
M  V30 46 H 38.836675 35.448603 62.433459 0
M  V30 47 H 38.368570 36.232873 60.932697 0
M  V30 48 H 37.324838 35.009186 61.638159 0
M  V30 49 H 38.220881 30.631525 54.830777 0
M  V30 50 H 39.802692 30.345229 55.490536 0
M  V30 51 H 40.150795 25.487198 65.498931 0
M  V30 52 H 40.603171 32.989627 56.167876 0
M  V30 53 H 39.300947 32.638722 55.032206 0
M  V30 54 H 39.645196 34.280718 55.367757 0
M  V30 55 H 37.467171 28.712905 57.823233 0
M  V30 56 H 36.277196 29.737786 57.129525 0
M  V30 57 H 41.587955 29.805765 66.406581 0
M  V30 58 H 43.171389 29.945054 65.686198 0
M  V30 59 H 39.245428 32.325128 58.792516 0
M  V30 60 H 40.192236 33.737788 58.398954 0
M  V30 61 H 39.150991 30.585072 57.646036 0
M  V30 62 H 37.114858 26.477820 53.141418 0
M  V30 63 H 40.116562 34.585593 60.483917 0
M  V30 64 H 39.600144 33.361337 63.476747 0
M  V30 65 H 41.014060 33.393892 62.444015 0
M  V30 66 H 38.895432 30.453689 59.777279 0
M  V30 67 H 38.203634 29.000867 60.329861 0
M  V30 68 H 39.565609 28.030200 57.185609 0
M  V30 69 H 36.027067 29.459815 59.521085 0
M  V30 70 H 36.329703 31.119458 59.233080 0
M  V30 71 H 37.919538 24.826718 54.814130 0
M  V30 72 H 37.404769 32.588681 62.565735 0
M  V30 73 H 37.097706 32.652508 60.869013 0
M  V30 74 H 39.897886 30.731805 62.607549 0
M  V30 75 H 39.763096 32.172766 60.736630 0
M  V30 END ATOM
M  V30 BEGIN BOND
M  V30 1 1 4 2
M  V30 2 1 8 3
M  V30 3 1 11 3
M  V30 4 2 11 7
M  V30 5 1 13 4
M  V30 6 1 15 6
M  V30 7 1 15 8
M  V30 8 1 16 4
M  V30 9 1 17 2
M  V30 10 1 17 10
M  V30 11 1 17 14
M  V30 12 1 18 6
M  V30 13 2 19 5
M  V30 14 1 20 9
M  V30 15 1 21 5
M  V30 16 1 21 10
M  V30 17 1 23 1
M  V30 18 2 24 21
M  V30 19 1 25 24
M  V30 20 1 26 14
M  V30 21 1 26 23
M  V30 22 2 27 18
M  V30 23 1 28 16
M  V30 24 1 28 20
M  V30 25 1 29 19
M  V30 26 2 29 25
M  V30 27 1 30 1
M  V30 28 2 31 12
M  V30 29 1 31 25
M  V30 30 1 32 31
M  V30 31 1 33 18
M  V30 32 1 33 22
M  V30 33 1 34 20
M  V30 34 1 34 22
M  V30 35 1 34 30
M  V30 36 1 35 1
M  V30 37 1 36 1
M  V30 38 1 37 2
M  V30 39 1 38 2
M  V30 40 1 39 3
M  V30 41 1 4 40 CFG=3
M  V30 42 1 41 5
M  V30 43 1 42 6
M  V30 44 1 43 6
M  V30 45 1 44 8
M  V30 46 1 45 8
M  V30 47 1 46 9
M  V30 48 1 47 9
M  V30 49 1 48 9
M  V30 50 1 49 10
M  V30 51 1 50 10
M  V30 52 1 51 11
M  V30 53 1 52 13
M  V30 54 1 53 13
M  V30 55 1 54 13
M  V30 56 1 55 14
M  V30 57 1 56 14
M  V30 58 1 57 15
M  V30 59 1 58 15
M  V30 60 1 59 16
M  V30 61 1 60 16
M  V30 62 1 17 61 CFG=1
M  V30 63 1 62 19
M  V30 64 1 20 63 CFG=3
M  V30 65 1 64 22
M  V30 66 1 65 22
M  V30 67 1 66 23
M  V30 68 1 67 23
M  V30 69 1 68 24
M  V30 70 1 69 26
M  V30 71 1 70 26
M  V30 72 1 71 29
M  V30 73 1 72 30
M  V30 74 1 73 30
M  V30 75 1 74 33
M  V30 76 1 34 75 CFG=3
M  V30 END BOND
M  V30 END CTAB
M  END
>  <i_epik_Tot_Q>  (1) 
-1

>  <i_epik_Tot_abs_Q>  (1) 
1

>  <i_i_glide_confnum>  (1) 
2401

>  <i_i_glide_lignum>  (1) 
32

>  <i_i_glide_posenum>  (1) 
33

>  <i_i_glide_rotatable_bonds>  (1) 
11

>  <i_lp_mmshare_version>  (1) 
72125

>  <i_m_source_file_index>  (1) 
16

>  <i_f3d_flags>  (1) 
0

>  <num_sample>  (1) 
100

>  <b_lp_Chiralities_Consistent>  (1) 
1

>  <r_epik_Charging_Adjusted_Penalty>  (1) 
0.00039988353432540339

>  <r_epik_Ionization_Penalty>  (1) 
0.00039992702821499621

>  <r_epik_Ionization_Penalty_Charging>  (1) 
0.00039988353432540339

>  <r_epik_Ionization_Penalty_Neutral>  (1) 
4.349388959280561e-08

>  <r_epik_State_Penalty>  (1) 
-0

>  <r_glide_ring_energy>  (1) 
0

>  <r_i_docking_score>  (1) 
-5.5070496987878235

>  <r_i_glide_ecoul>  (1) 
-1.2129549891390954

>  <r_i_glide_eff_state_penalty>  (1) 
-0

>  <r_i_glide_einternal>  (1) 
14.276157023334562

>  <r_i_glide_emodel>  (1) 
-30.665793499505611

>  <r_i_glide_emodel_strain>  (1) 
4.4890567391827574

>  <r_i_glide_energy>  (1) 
-35.81994787734007

>  <r_i_glide_erotb>  (1) 
0.81156586864238245

>  <r_i_glide_esite>  (1) 
0

>  <r_i_glide_evdw>  (1) 
-34.606992888200978

>  <r_i_glide_gscore>  (1) 
-5.5070496987878235

>  <r_i_glide_gscore_strain>  (1) 
0.12226418479568935

>  <r_i_glide_hbond>  (1) 
0

>  <r_i_glide_ligand_efficiency>  (1) 
-0.16197204996434775

>  <r_i_glide_ligand_efficiency_ln>  (1) 
-1.216661745974118

>  <r_i_glide_ligand_efficiency_sa>  (1) 
-0.52472656454160727

>  <r_i_glide_lipo>  (1) 
-2.7083394901808391

>  <r_i_glide_metal>  (1) 
-0

>  <r_i_glide_rewards>  (1) 
-1.8202473692641423

>  <r_lp_Energy>  (1) 
34.150776999999998

>  <r_lp_tautomer_probability>  (1) 
1

>  <s_epik_cmdline>  (1) 
J2VwaWtfcHl0aG9uJywgJy1waHQnLCAnMS4wJywgJy1waCcsICc3LjQnLCAnLXRuJywgJzgnLCAnLW1hJywgJzUwMCcsICctaW1hZScsICc8aW5maWxlLm1hZT4nLCAnLW9tYWUnLCAnPG91dGZpbGUubWFlPic=

>  <s_epik_input>  (1) 
Tz1bQ0hdW05IXVtDSDJdW0NIMl1bQ0gyXUMoPU8pW05IXVtDSDJdW0NAQEhdKFtDQEhdKFtDSDNdKU9bQ0gyXTEpW0NIMl1bQ0gyXVtDSDJdW0NIMl1bQ0gyXVtDQEhdKFtDSDJdW0NAQEhdMVtDSDNdKVtDSDJdYzJbY0hdW2NIXVtjSF1jKFtjSF0yKUMoPU8pW09IXQ==

>  <s_glide_docking_method>  (1) 
confgen

>  <s_i_glide_gridfile>  (1) 
gpcr_5ht2c_6bqh_protein_autoprepared_prepared

>  <s_lp_Force_Field>  (1) 
S-OPLS

>  <s_lp_Variant>  (1) 
DiffSBDD_15-2

>  <s_m_source_file>  (1) 
generated_GPCR_5HT2C_ligand_DiffSBDD_2026-06-23_prepared.sdf

>  <GenAI_Model>  (1) 
DiffSBDD

>  <Protein>  (1) 
GPCR_5HT2C

$$$$
DiffSBDD_86
     RDKit          3D

  0  0  0  0  0  0  0  0  0  0999 V3000
M  V30 BEGIN CTAB
M  V30 COUNTS 78 80 0 0 1
M  V30 BEGIN ATOM
M  V30 1 C 38.261836 26.975905 56.590486 0
M  V30 2 C 42.390492 26.400751 65.632991 0
M  V30 3 C 38.432953 31.874182 61.196948 0 CFG=2
M  V30 4 C 42.543298 24.967098 65.124011 0
M  V30 5 N 38.250714 31.891174 59.720112 0
M  V30 6 C 40.813186 33.695588 68.493701 0
M  V30 7 N 38.733938 27.758377 57.642538 0
M  V30 8 C 41.382335 31.856890 63.790984 0
M  V30 9 O 41.220967 34.311726 61.885965 0
M  V30 10 O 40.845064 35.262203 65.265240 0
M  V30 11 C 41.204393 33.045929 66.079771 0 CFG=2
M  V30 12 C 39.950631 32.075382 63.254984 0
M  V30 13 C 38.203458 33.047788 59.006333 0
M  V30 14 N 41.470584 31.789090 65.291136 0 CFG=1 CHG=1
M  V30 15 C 41.673938 34.338967 65.376954 0
M  V30 16 C 37.912663 25.601415 56.615090 0
M  V30 17 C 37.292704 25.680396 54.251479 0
M  V30 18 O 38.053618 32.992806 57.766702 0
M  V30 19 C 38.035302 30.590889 59.057297 0
M  V30 20 C 37.644573 27.035550 54.199112 0
M  V30 21 C 37.193249 32.447422 61.903340 0
M  V30 22 S 38.599792 29.346358 55.575256 0
M  V30 23 O 42.845202 34.366812 64.965676 0 CHG=-1
M  V30 24 C 40.703247 30.633413 65.845372 0
M  V30 25 C 39.798563 32.425759 61.753227 0 CFG=2
M  V30 26 C 42.638867 31.853314 68.062484 0
M  V30 27 O 39.858867 33.846556 61.654535 0
M  V30 28 N 40.968140 26.797930 65.692414 0 CHG=1
M  V30 29 C 39.246133 30.113844 58.245667 0
M  V30 30 C 38.116377 27.674002 55.351827 0
M  V30 31 O 38.038988 24.894860 57.774819 0
M  V30 32 C 41.255248 29.270597 65.399053 0
M  V30 33 C 38.886665 29.039103 57.286270 0
M  V30 34 C 43.259193 33.184044 67.811105 0
M  V30 35 C 41.766495 32.995987 67.534263 0
M  V30 36 O 38.306963 34.137602 59.600350 0 CHG=-1
M  V30 37 C 37.429632 24.961510 55.453579 0
M  V30 38 C 40.719247 28.132198 66.277080 0
M  V30 39 H 42.941935 27.074583 64.975606 0
M  V30 40 H 42.833451 26.484727 66.626505 0
M  V30 41 H 38.444799 30.819232 61.472254 0
M  V30 42 H 43.595683 24.684893 65.109633 0
M  V30 43 H 42.024707 24.259003 65.767724 0
M  V30 44 H 42.151405 24.857266 64.112318 0
M  V30 45 H 41.243484 33.755006 69.493091 0
M  V30 46 H 40.603767 34.712227 68.157426 0
M  V30 47 H 39.873168 33.150635 68.568158 0
M  V30 48 H 41.766089 30.929654 63.369046 0
M  V30 49 H 42.078516 32.587429 63.395130 0
M  V30 50 H 41.156808 34.641509 62.774665 0
M  V30 51 H 40.118725 33.119504 66.143884 0
M  V30 52 H 39.473092 32.877781 63.811506 0
M  V30 53 H 39.383901 31.168208 63.458459 0
M  V30 54 H 36.911900 25.189165 53.367912 0
M  V30 55 H 37.722444 29.811951 59.752081 0
M  V30 56 H 37.183126 30.701926 58.383367 0
M  V30 57 H 37.540289 27.588419 53.276185 0
M  V30 58 H 37.245175 32.247595 62.967755 0
M  V30 59 H 37.106698 33.525909 61.770002 0
M  V30 60 H 36.276849 31.992317 61.525220 0
M  V30 61 H 40.708392 30.657617 66.932274 0
M  V30 62 H 39.646074 30.714459 65.593606 0
M  V30 63 H 40.606286 31.977702 61.171777 0
M  V30 64 H 42.503405 31.556805 69.101036 0
M  V30 65 H 42.972347 31.054799 67.404254 0
M  V30 66 H 40.483688 26.121062 66.266000 0
M  V30 67 H 39.641753 30.934923 57.650520 0
M  V30 68 H 40.043010 29.760095 58.902077 0
M  V30 69 H 38.373909 25.449045 58.465345 0
M  V30 70 H 40.974063 29.085578 64.361162 0
M  V30 71 H 42.345300 29.281855 65.438970 0
M  V30 72 H 43.966815 33.227135 66.986753 0
M  V30 73 H 43.559332 33.736885 68.696376 0
M  V30 74 H 37.159392 23.915712 55.488171 0
M  V30 75 H 41.143256 28.183260 67.281472 0
M  V30 76 H 39.645278 28.262009 66.392278 0
M  V30 77 H 40.571655 26.772344 64.763006 0
M  V30 78 H 42.450423 31.622497 65.473092 0
M  V30 END ATOM
M  V30 BEGIN BOND
M  V30 1 1 4 2
M  V30 2 1 5 3
M  V30 3 1 7 1
M  V30 4 1 12 8
M  V30 5 1 13 5
M  V30 6 1 14 8
M  V30 7 1 14 11
M  V30 8 2 15 10
M  V30 9 1 15 11
M  V30 10 2 16 1
M  V30 11 2 18 13
M  V30 12 1 19 5
M  V30 13 1 20 17
M  V30 14 1 21 3
M  V30 15 1 23 15
M  V30 16 1 24 14
M  V30 17 1 25 3
M  V30 18 1 25 12
M  V30 19 1 27 9
M  V30 20 1 27 25
M  V30 21 1 28 2
M  V30 22 1 29 19
M  V30 23 1 30 1
M  V30 24 2 30 20
M  V30 25 1 30 22
M  V30 26 1 31 16
M  V30 27 1 32 24
M  V30 28 2 33 7
M  V30 29 1 33 22
M  V30 30 1 33 29
M  V30 31 1 34 26
M  V30 32 1 35 6
M  V30 33 1 35 11
M  V30 34 1 35 26
M  V30 35 1 35 34
M  V30 36 1 36 13
M  V30 37 1 37 16
M  V30 38 2 37 17
M  V30 39 1 38 28
M  V30 40 1 38 32
M  V30 41 1 39 2
M  V30 42 1 40 2
M  V30 43 1 3 41 CFG=1
M  V30 44 1 42 4
M  V30 45 1 43 4
M  V30 46 1 44 4
M  V30 47 1 45 6
M  V30 48 1 46 6
M  V30 49 1 47 6
M  V30 50 1 48 8
M  V30 51 1 49 8
M  V30 52 1 50 9
M  V30 53 1 11 51 CFG=1
M  V30 54 1 52 12
M  V30 55 1 53 12
M  V30 56 1 54 17
M  V30 57 1 55 19
M  V30 58 1 56 19
M  V30 59 1 57 20
M  V30 60 1 58 21
M  V30 61 1 59 21
M  V30 62 1 60 21
M  V30 63 1 61 24
M  V30 64 1 62 24
M  V30 65 1 25 63 CFG=3
M  V30 66 1 64 26
M  V30 67 1 65 26
M  V30 68 1 66 28
M  V30 69 1 67 29
M  V30 70 1 68 29
M  V30 71 1 69 31
M  V30 72 1 70 32
M  V30 73 1 71 32
M  V30 74 1 72 34
M  V30 75 1 73 34
M  V30 76 1 74 37
M  V30 77 1 75 38
M  V30 78 1 76 38
M  V30 79 1 77 28
M  V30 80 1 14 78 CFG=3
M  V30 END BOND
M  V30 END CTAB
M  END
>  <i_epik_Tot_Q>  (1) 
0

>  <i_epik_Tot_abs_Q>  (1) 
4

>  <i_i_glide_confnum>  (1) 
10934

>  <i_i_glide_lignum>  (1) 
205

>  <i_i_glide_posenum>  (1) 
212

>  <i_i_glide_rotatable_bonds>  (1) 
20

>  <i_lp_mmshare_version>  (1) 
72125

>  <i_m_source_file_index>  (1) 
87

>  <i_f3d_flags>  (1) 
0

>  <num_sample>  (1) 
100

>  <b_lp_Chiralities_Consistent>  (1) 
1

>  <r_epik_Charging_Adjusted_Penalty>  (1) 
0.22044164317972559

>  <r_epik_Ionization_Penalty>  (1) 
0.19516572318186753

>  <r_epik_Ionization_Penalty_Charging>  (1) 
0.026579669222116228

>  <r_epik_Ionization_Penalty_Neutral>  (1) 
0.16858605395975129

>  <r_epik_State_Penalty>  (1) 
0.19386197395760935

>  <r_glide_ring_energy>  (1) 
0

>  <r_i_docking_score>  (1) 
-5.4994736618613542

>  <r_i_glide_ecoul>  (1) 
-0.91874527048636234

>  <r_i_glide_eff_state_penalty>  (1) 
0.19386197395760935

>  <r_i_glide_einternal>  (1) 
17.398618199143133

>  <r_i_glide_emodel>  (1) 
-55.700285031943501

>  <r_i_glide_emodel_strain>  (1) 
0.79683879934506052

>  <r_i_glide_energy>  (1) 
-44.07054010746198

>  <r_i_glide_erotb>  (1) 
0.94715796475939662

>  <r_i_glide_esite>  (1) 
-0.059501364243549015

>  <r_i_glide_evdw>  (1) 
-43.151794836975618

>  <r_i_glide_gscore>  (1) 
-5.693335635818964

>  <r_i_glide_gscore_strain>  (1) 
0

>  <r_i_glide_hbond>  (1) 
0

>  <r_i_glide_ligand_efficiency>  (1) 
-0.14472299110161457

>  <r_i_glide_ligand_efficiency_ln>  (1) 
-1.1858482996218489

>  <r_i_glide_ligand_efficiency_sa>  (1) 
-0.48655513688201357

>  <r_i_glide_lipo>  (1) 
-3.7631637528610247

>  <r_i_glide_metal>  (1) 
-0

>  <r_i_glide_rewards>  (1) 
-0.52242695105205195

>  <r_lp_Energy>  (1) 
38.677337999999999

>  <s_epik_cmdline>  (1) 
J2VwaWtfcHl0aG9uJywgJy1waHQnLCAnMS4wJywgJy1waCcsICc3LjQnLCAnLXRuJywgJzgnLCAnLW1hJywgJzUwMCcsICctaW1hZScsICc8aW5maWxlLm1hZT4nLCAnLW9tYWUnLCAnPG91dGZpbGUubWFlPic=

>  <s_epik_input>  (1) 
W09IXWMxW2NIXVtjSF1bY0hdYyhjMTIpc2MobjIpW0NIMl1bQ0gyXU4oQyg9TylbT0hdKVtDQEhdKFtDSDNdKVtDQEBIXShPW09IXSlbQ0gyXVtDSDJdTihbQ0BIXShDKD1PKVtPSF0pQzMoW0NIM10pW0NIMl1bQ0gyXTMpW0NIMl1bQ0gyXVtDSDJdW05IXVtDSDJdW0NIM10=

>  <s_glide_docking_method>  (1) 
confgen

>  <s_i_glide_gridfile>  (1) 
gpcr_5ht2c_6bqh_protein_autoprepared_prepared

>  <s_lp_Force_Field>  (1) 
S-OPLS

>  <s_lp_Variant>  (1) 
DiffSBDD_86-2

>  <s_m_source_file>  (1) 
generated_GPCR_5HT2C_ligand_DiffSBDD_2026-06-23_prepared.sdf

>  <GenAI_Model>  (1) 
DiffSBDD

>  <Protein>  (1) 
GPCR_5HT2C

$$$$
DiffSBDD_83
     RDKit          3D

  0  0  0  0  0  0  0  0  0  0999 V3000
M  V30 BEGIN CTAB
M  V30 COUNTS 54 55 0 0 1
M  V30 BEGIN ATOM
M  V30 1 C 38.296269 36.537507 61.791014 0
M  V30 2 C 39.229635 30.999502 55.834746 0
M  V30 3 N 39.245135 32.174306 55.160371 0
M  V30 4 O 37.502020 26.357016 56.602731 0
M  V30 5 O 37.038161 36.365754 62.213573 0
M  V30 6 C 37.971772 34.440663 60.392615 0
M  V30 7 C 36.543940 34.161831 60.873864 0
M  V30 8 C 37.512052 24.411560 55.542540 0
M  V30 9 C 38.871820 27.478949 51.090536 0
M  V30 10 C 38.742887 35.494259 60.807332 0
M  V30 11 C 39.747006 29.748079 55.233524 0
M  V30 12 C 37.731480 33.496276 58.061527 0
M  V30 13 N 38.743232 33.206575 55.850009 0
M  V30 14 O 36.604334 37.337772 63.209445 0
M  V30 15 C 39.228660 27.195850 55.053288 0 CFG=1
M  V30 16 C 37.212376 28.017740 53.596508 0
M  V30 17 C 36.843346 25.262376 56.238344 0
M  V30 18 O 39.019899 37.458445 62.168532 0
M  V30 19 C 38.790528 26.052153 56.005616 0 CFG=2
M  V30 20 C 38.672861 31.251970 57.050595 0
M  V30 21 O 38.774747 24.781927 55.306965 0
M  V30 22 C 39.462828 27.501695 52.505734 0
M  V30 23 C 38.489709 27.159981 53.661618 0 CFG=1
M  V30 24 C 38.375021 32.651471 57.005406 0
M  V30 25 Cl 36.845129 22.937811 54.967760 0
M  V30 26 C 38.507152 33.440275 59.385978 0
M  V30 27 C 39.117675 28.505899 55.864975 0
M  V30 28 H 39.598481 32.292678 54.220660 0
M  V30 29 H 36.180120 33.224759 60.452392 0
M  V30 30 H 36.483090 34.027031 61.952815 0
M  V30 31 H 35.853465 34.937535 60.544417 0
M  V30 32 H 39.648610 27.642211 50.343812 0
M  V30 33 H 38.388373 26.537862 50.856746 0
M  V30 34 H 38.136349 28.271633 50.965208 0
M  V30 35 H 39.742235 35.600129 60.411643 0
M  V30 36 H 39.527886 29.796100 54.172628 0
M  V30 37 H 40.832693 29.715303 55.325862 0
M  V30 38 H 36.708914 33.159499 58.212097 0
M  V30 39 H 37.645039 34.528868 57.722025 0
M  V30 40 H 36.887585 36.914315 64.005873 0
M  V30 41 H 40.286444 26.997249 54.878159 0
M  V30 42 H 37.411203 29.086127 53.672554 0
M  V30 43 H 36.668142 27.854424 52.666949 0
M  V30 44 H 36.532359 27.737942 54.394468 0
M  V30 45 H 35.815671 25.211965 56.568772 0
M  V30 46 H 39.502324 25.949703 56.827422 0
M  V30 47 H 38.493552 30.549962 57.850429 0
M  V30 48 H 39.909898 28.482906 52.614748 0
M  V30 49 H 40.286113 26.794444 52.567810 0
M  V30 50 H 38.167566 26.140663 53.456134 0
M  V30 51 H 39.560523 33.655397 59.194605 0
M  V30 52 H 38.470467 32.436626 59.814002 0
M  V30 53 H 39.562572 28.370517 56.852147 0
M  V30 54 H 38.061570 28.706024 56.053077 0
M  V30 END ATOM
M  V30 BEGIN BOND
M  V30 1 1 3 2
M  V30 2 1 5 1
M  V30 3 1 7 6
M  V30 4 1 10 1
M  V30 5 2 10 6
M  V30 6 1 11 2
M  V30 7 1 13 3
M  V30 8 1 14 5
M  V30 9 1 17 4
M  V30 10 2 17 8
M  V30 11 2 18 1
M  V30 12 1 19 4
M  V30 13 1 19 15
M  V30 14 2 20 2
M  V30 15 1 21 8
M  V30 16 1 21 19
M  V30 17 1 22 9
M  V30 18 1 23 15
M  V30 19 1 23 16
M  V30 20 1 23 22
M  V30 21 1 24 12
M  V30 22 2 24 13
M  V30 23 1 24 20
M  V30 24 1 25 8
M  V30 25 1 26 6
M  V30 26 1 26 12
M  V30 27 1 27 11
M  V30 28 1 27 15
M  V30 29 1 28 3
M  V30 30 1 29 7
M  V30 31 1 30 7
M  V30 32 1 31 7
M  V30 33 1 32 9
M  V30 34 1 33 9
M  V30 35 1 34 9
M  V30 36 1 35 10
M  V30 37 1 36 11
M  V30 38 1 37 11
M  V30 39 1 38 12
M  V30 40 1 39 12
M  V30 41 1 40 14
M  V30 42 1 15 41 CFG=3
M  V30 43 1 42 16
M  V30 44 1 43 16
M  V30 45 1 44 16
M  V30 46 1 45 17
M  V30 47 1 19 46 CFG=1
M  V30 48 1 47 20
M  V30 49 1 48 22
M  V30 50 1 49 22
M  V30 51 1 23 50 CFG=3
M  V30 52 1 51 26
M  V30 53 1 52 26
M  V30 54 1 53 27
M  V30 55 1 54 27
M  V30 END BOND
M  V30 END CTAB
M  END
>  <i_epik_Tot_Q>  (1) 
0

>  <i_epik_Tot_abs_Q>  (1) 
0

>  <i_i_glide_confnum>  (1) 
1661

>  <i_i_glide_lignum>  (1) 
193

>  <i_i_glide_posenum>  (1) 
125

>  <i_i_glide_rotatable_bonds>  (1) 
12

>  <i_lp_mmshare_version>  (1) 
72125

>  <i_m_source_file_index>  (1) 
84

>  <i_f3d_flags>  (1) 
0

>  <num_sample>  (1) 
100

>  <b_lp_Chiralities_Consistent>  (1) 
1

>  <r_epik_Charging_Adjusted_Penalty>  (1) 
0.41067983895260396

>  <r_epik_Ionization_Penalty>  (1) 
0.00076996626271645392

>  <r_epik_Ionization_Penalty_Charging>  (1) 
0

>  <r_epik_Ionization_Penalty_Neutral>  (1) 
0.00076996626271645392

>  <r_epik_State_Penalty>  (1) 
0.41067983895260396

>  <r_glide_ring_energy>  (1) 
0

>  <r_i_docking_score>  (1) 
-5.499359098703577

>  <r_i_glide_ecoul>  (1) 
-0.78988971284954257

>  <r_i_glide_eff_state_penalty>  (1) 
0.41067983895260396

>  <r_i_glide_einternal>  (1) 
5.2719426830095504

>  <r_i_glide_emodel>  (1) 
-52.170560386421734

>  <r_i_glide_emodel_strain>  (1) 
1.7368496731711787

>  <r_i_glide_energy>  (1) 
-40.918106450724281

>  <r_i_glide_erotb>  (1) 
1.1080255732668134

>  <r_i_glide_esite>  (1) 
0

>  <r_i_glide_evdw>  (1) 
-40.128216737874737

>  <r_i_glide_gscore>  (1) 
-5.9100389376561813

>  <r_i_glide_gscore_strain>  (1) 
0

>  <r_i_glide_hbond>  (1) 
0

>  <r_i_glide_ligand_efficiency>  (1) 
-0.20367996661865101

>  <r_i_glide_ligand_efficiency_ln>  (1) 
-1.2801601341576725

>  <r_i_glide_ligand_efficiency_sa>  (1) 
-0.61103989985595308

>  <r_i_glide_lipo>  (1) 
-3.0944766269835355

>  <r_i_glide_metal>  (1) 
-0

>  <r_i_glide_rewards>  (1) 
-1.7986935901182912

>  <r_lp_Energy>  (1) 
16.144891999999999

>  <r_lp_tautomer_probability>  (1) 
0.5

>  <s_epik_Chemistry_Notes>  (1) 
This compound contains an acetal/aminal-like group ( X-CH(R)-Y where X, Y are N, S, or O) that may be acid/base labile, releasing an aldehyde.

>  <s_epik_cmdline>  (1) 
J2VwaWtfcHl0aG9uJywgJy1waHQnLCAnMS4wJywgJy1waCcsICc3LjQnLCAnLXRuJywgJzgnLCAnLW1hJywgJzUwMCcsICctaW1hZScsICc8aW5maWxlLm1hZT4nLCAnLW9tYWUnLCAnPG91dGZpbGUubWFlPic=

>  <s_epik_input>  (1) 
W09IXU9DKD1PKS9bQ0hdPUMoXFtDSDNdKVtDSDJdW0NIMl1jKFtjSF0xKW5bbkhdYzFbQ0gyXVtDSDJdW0NASF0oW0NAQEhdKFtDSDNdKVtDSDJdW0NIM10pW0NAQEhdKE8yKU9bQ0hdPUMyQ2w=

>  <s_glide_docking_method>  (1) 
confgen

>  <s_i_glide_gridfile>  (1) 
gpcr_5ht2c_6bqh_protein_autoprepared_prepared

>  <s_lp_Force_Field>  (1) 
S-OPLS

>  <s_lp_Variant>  (1) 
DiffSBDD_83-4

>  <s_m_source_file>  (1) 
generated_GPCR_5HT2C_ligand_DiffSBDD_2026-06-23_prepared.sdf

>  <GenAI_Model>  (1) 
DiffSBDD

>  <Protein>  (1) 
GPCR_5HT2C

$$$$
DiffSBDD_43
     RDKit          3D

  0  0  0  0  0  0  0  0  0  0999 V3000
M  V30 BEGIN CTAB
M  V30 COUNTS 83 85 0 0 1
M  V30 BEGIN ATOM
M  V30 1 C 41.027629 33.974814 62.017024 0
M  V30 2 C 39.520874 30.360055 52.626010 0
M  V30 3 C 38.396970 26.815158 54.041787 0
M  V30 4 C 39.505530 29.694875 60.331541 0 CFG=2
M  V30 5 C 38.536335 29.238615 57.877636 0 CFG=1
M  V30 6 O 36.818792 23.347131 55.600002 0
M  V30 7 O 38.270725 30.565321 54.702557 0
M  V30 8 N 40.853573 35.737795 64.387454 0 CHG=1
M  V30 9 C 37.803839 25.664476 54.578550 0
M  V30 10 C 40.045163 31.068414 51.376839 0
M  V30 11 C 40.183291 28.329148 60.473892 0
M  V30 12 C 38.627593 33.908283 60.084194 0
M  V30 13 N 37.645111 23.737881 57.767754 0
M  V30 14 C 37.829242 25.445188 55.976637 0
M  V30 15 C 39.047690 31.300115 53.757394 0
M  V30 16 N 37.290735 24.282629 56.533180 0
M  V30 17 C 39.304544 30.145627 58.868394 0 CFG=1
M  V30 18 O 37.645139 32.303398 56.100520 0
M  V30 19 C 41.938963 34.731391 64.359841 0 CFG=1
M  V30 20 C 37.571364 30.031199 56.945782 0
M  V30 21 C 40.211749 36.054476 63.088284 0
M  V30 22 C 37.906285 32.666613 60.687673 0 CFG=1
M  V30 23 C 38.992992 27.756294 54.894214 0
M  V30 24 O 38.845081 31.498560 58.822817 0
M  V30 25 C 36.534616 32.977419 61.298465 0
M  V30 26 C 39.756309 34.786743 62.317866 0 CFG=1
M  V30 27 O 40.420695 30.615615 60.907500 0
M  V30 28 C 38.284114 31.053901 56.008905 0 CFG=1
M  V30 29 C 38.412690 26.405317 56.823710 0
M  V30 30 N 37.738702 35.899945 61.263948 0 CHG=1
M  V30 31 C 41.407072 33.330646 64.596519 0
M  V30 32 C 38.963808 35.111451 61.010226 0 CFG=2
M  V30 33 O 37.627634 31.690563 59.683557 0
M  V30 34 C 41.905299 33.729010 63.228289 0 CFG=1
M  V30 35 O 39.512161 28.518763 57.106967 0
M  V30 36 O 40.445089 28.137709 61.848661 0
M  V30 37 C 38.979300 27.565715 56.283353 0
M  V30 38 H 40.785985 33.014562 61.572301 0
M  V30 39 H 41.635867 34.517461 61.294914 0
M  V30 40 H 40.336120 29.741040 52.989026 0
M  V30 41 H 38.716697 29.680646 52.344393 0
M  V30 42 H 38.395618 26.976298 52.972987 0
M  V30 43 H 38.565762 29.705308 60.884491 0
M  V30 44 H 37.934619 28.540312 58.461185 0
M  V30 45 H 37.576041 23.070452 55.106195 0
M  V30 46 H 40.152284 35.422515 65.042302 0
M  V30 47 H 37.347051 24.944594 53.918406 0
M  V30 48 H 40.438554 30.354095 50.652693 0
M  V30 49 H 39.282780 31.664655 50.874479 0
M  V30 50 H 40.845155 31.737725 51.660948 0
M  V30 51 H 39.540714 27.533200 60.098602 0
M  V30 52 H 41.119267 28.284424 59.914230 0
M  V30 53 H 39.573229 33.588336 59.648794 0
M  V30 54 H 38.041109 34.260723 59.234044 0
M  V30 55 H 37.022585 22.960504 57.982981 0
M  V30 56 H 38.600087 23.387439 57.728814 0
M  V30 57 H 38.444921 32.122205 53.369272 0
M  V30 58 H 39.926736 31.737750 54.228763 0
M  V30 59 H 40.293809 30.137744 58.422764 0
M  V30 60 H 36.707548 32.144756 56.282731 0
M  V30 61 H 42.876565 35.035394 64.820271 0
M  V30 62 H 36.977128 29.361836 56.328768 0
M  V30 63 H 36.845183 30.537749 57.578244 0
M  V30 64 H 40.915644 36.631309 62.484988 0
M  V30 65 H 39.368939 36.714275 63.297622 0
M  V30 66 H 38.529979 32.215794 61.456571 0
M  V30 67 H 39.449105 28.629413 54.486803 0
M  V30 68 H 36.614512 33.622739 62.167747 0
M  V30 69 H 35.879045 33.459897 60.572839 0
M  V30 70 H 36.040276 32.061584 61.623208 0
M  V30 71 H 39.117759 34.190121 62.966578 0
M  V30 72 H 41.166671 30.675320 60.332503 0
M  V30 73 H 39.320551 31.207526 56.311468 0
M  V30 74 H 38.417939 26.251544 57.892600 0
M  V30 75 H 37.085947 35.358050 61.811627 0
M  V30 76 H 37.955689 36.761048 61.742932 0
M  V30 77 H 40.339320 33.172158 64.714215 0
M  V30 78 H 42.033985 32.650938 65.173056 0
M  V30 79 H 39.602605 35.767108 60.417750 0
M  V30 80 H 42.845135 33.256642 62.962585 0
M  V30 81 H 40.921093 27.329147 61.959165 0
M  V30 82 H 37.307303 36.122207 60.375934 0
M  V30 83 H 41.245856 36.606702 64.743327 0
M  V30 END ATOM
M  V30 BEGIN BOND
M  V30 1 1 9 3
M  V30 2 1 10 2
M  V30 3 1 11 4
M  V30 4 2 14 9
M  V30 5 1 15 2
M  V30 6 1 15 7
M  V30 7 1 16 6
M  V30 8 1 16 13
M  V30 9 1 16 14
M  V30 10 1 17 4
M  V30 11 1 17 5
M  V30 12 1 19 8
M  V30 13 1 20 5
M  V30 14 1 21 8
M  V30 15 1 22 12
M  V30 16 2 23 3
M  V30 17 1 24 17
M  V30 18 1 25 22
M  V30 19 1 26 1
M  V30 20 1 26 21
M  V30 21 1 27 4
M  V30 22 1 28 7
M  V30 23 1 28 18
M  V30 24 1 28 20
M  V30 25 1 29 14
M  V30 26 1 31 19
M  V30 27 1 32 12
M  V30 28 1 32 26
M  V30 29 1 32 30
M  V30 30 1 33 22
M  V30 31 1 33 24
M  V30 32 1 34 1
M  V30 33 1 34 19
M  V30 34 1 34 31
M  V30 35 1 35 5
M  V30 36 1 36 11
M  V30 37 1 37 23
M  V30 38 2 37 29
M  V30 39 1 37 35
M  V30 40 1 38 1
M  V30 41 1 39 1
M  V30 42 1 40 2
M  V30 43 1 41 2
M  V30 44 1 42 3
M  V30 45 1 4 43 CFG=1
M  V30 46 1 5 44 CFG=1
M  V30 47 1 45 6
M  V30 48 1 46 8
M  V30 49 1 47 9
M  V30 50 1 48 10
M  V30 51 1 49 10
M  V30 52 1 50 10
M  V30 53 1 51 11
M  V30 54 1 52 11
M  V30 55 1 53 12
M  V30 56 1 54 12
M  V30 57 1 55 13
M  V30 58 1 56 13
M  V30 59 1 57 15
M  V30 60 1 58 15
M  V30 61 1 17 59 CFG=3
M  V30 62 1 60 18
M  V30 63 1 19 61 CFG=1
M  V30 64 1 62 20
M  V30 65 1 63 20
M  V30 66 1 64 21
M  V30 67 1 65 21
M  V30 68 1 22 66 CFG=1
M  V30 69 1 67 23
M  V30 70 1 68 25
M  V30 71 1 69 25
M  V30 72 1 70 25
M  V30 73 1 26 71 CFG=1
M  V30 74 1 72 27
M  V30 75 1 28 73 CFG=1
M  V30 76 1 74 29
M  V30 77 1 75 30
M  V30 78 1 76 30
M  V30 79 1 77 31
M  V30 80 1 78 31
M  V30 81 1 32 79 CFG=3
M  V30 82 1 34 80 CFG=3
M  V30 83 1 81 36
M  V30 84 1 82 30
M  V30 85 1 83 8
M  V30 END BOND
M  V30 END CTAB
M  END
>  <i_epik_Tot_Q>  (1) 
2

>  <i_epik_Tot_abs_Q>  (1) 
2

>  <i_i_glide_confnum>  (1) 
4056

>  <i_i_glide_lignum>  (1) 
96

>  <i_i_glide_posenum>  (1) 
266

>  <i_i_glide_rotatable_bonds>  (1) 
21

>  <i_lp_mmshare_version>  (1) 
72125

>  <i_m_source_file_index>  (1) 
44

>  <i_f3d_flags>  (1) 
0

>  <num_sample>  (1) 
100

>  <b_lp_Chiralities_Consistent>  (1) 
1

>  <r_epik_Charging_Adjusted_Penalty>  (1) 
0.054628322637716921

>  <r_epik_Ionization_Penalty>  (1) 
0.057286365922034427

>  <r_epik_Ionization_Penalty_Charging>  (1) 
0.054628322637716921

>  <r_epik_Ionization_Penalty_Neutral>  (1) 
0.0026580432843175059

>  <r_epik_State_Penalty>  (1) 
-0

>  <r_glide_ring_energy>  (1) 
0

>  <r_i_docking_score>  (1) 
-5.4889979281687973

>  <r_i_glide_ecoul>  (1) 
-7.9120692392836949

>  <r_i_glide_eff_state_penalty>  (1) 
-0

>  <r_i_glide_einternal>  (1) 
38.532035316997451

>  <r_i_glide_emodel>  (1) 
-43.255495538538199

>  <r_i_glide_emodel_strain>  (1) 
3.168953532432127

>  <r_i_glide_energy>  (1) 
-43.002618843037069

>  <r_i_glide_erotb>  (1) 
1.0980815572756908

>  <r_i_glide_esite>  (1) 
-0.17462157896376929

>  <r_i_glide_evdw>  (1) 
-35.090549603753374

>  <r_i_glide_gscore>  (1) 
-5.4889979281687973

>  <r_i_glide_gscore_strain>  (1) 
0

>  <r_i_glide_hbond>  (1) 
-0.26676929382980008

>  <r_i_glide_ligand_efficiency>  (1) 
-0.14835129535591343

>  <r_i_glide_ligand_efficiency_ln>  (1) 
-1.1904349702510797

>  <r_i_glide_ligand_efficiency_sa>  (1) 
-0.49433942810495768

>  <r_i_glide_lipo>  (1) 
-4.2252316985022009

>  <r_i_glide_metal>  (1) 
-0

>  <r_i_glide_rewards>  (1) 
1.0208809519315052

>  <r_lp_Energy>  (1) 
40.181405999999996

>  <r_lp_tautomer_probability>  (1) 
1

>  <s_epik_Chemistry_Notes>  (1) 
This compound contains an acetal/aminal-like group ( X-CH(R)-Y where X, Y are N, S, or O) that may be acid/base labile, releasing an aldehyde. This compound has a N-S or N-O group and may undergo hydrolysis at high or low pH.

>  <s_epik_cmdline>  (1) 
J2VwaWtfcHl0aG9uJywgJy1waHQnLCAnMS4wJywgJy1waCcsICc3LjQnLCAnLXRuJywgJzgnLCAnLW1hJywgJzUwMCcsICctaW1hZScsICc8aW5maWxlLm1hZT4nLCAnLW9tYWUnLCAnPG91dGZpbGUubWFlPic=

>  <s_epik_input>  (1) 
W0NASF0xMltDQEBIXShbQ0gyXTIpW0NIMl1bQ0BASF0oW0NIMl1bTkhdMSlbQ0BIXShbTkgyXSlbQ0gyXVtDQEBIXShbQ0gzXSlPT1tDQEBIXShbQ0BIXShbT0hdKVtDSDJdW09IXSlbQ0BASF0oW0NIMl1bQ0BIXShbT0hdKU9bQ0gyXVtDSDJdW0NIM10pT2MoW2NIXTMpW2NIXVtjSF1bY0hdYzNOKFtPSF0pW05IMl0=

>  <s_glide_docking_method>  (1) 
confgen

>  <s_i_glide_gridfile>  (1) 
gpcr_5ht2c_6bqh_protein_autoprepared_prepared

>  <s_lp_Force_Field>  (1) 
S-OPLS

>  <s_lp_Variant>  (1) 
DiffSBDD_43-2

>  <s_m_source_file>  (1) 
generated_GPCR_5HT2C_ligand_DiffSBDD_2026-06-23_prepared.sdf

>  <GenAI_Model>  (1) 
DiffSBDD

>  <Protein>  (1) 
GPCR_5HT2C

$$$$
DiffSBDD_15
     RDKit          3D

  0  0  0  0  0  0  0  0  0  0999 V3000
M  V30 BEGIN CTAB
M  V30 COUNTS 75 76 0 0 1
M  V30 BEGIN ATOM
M  V30 1 C 37.414781 30.759208 61.426798 0
M  V30 2 C 37.731426 32.077194 56.840945 0
M  V30 3 N 41.869605 29.140314 66.632914 0
M  V30 4 C 38.832697 33.098477 56.962571 0 CFG=2
M  V30 5 C 37.679287 27.916773 54.145655 0
M  V30 6 C 40.748621 29.445748 63.698700 0
M  V30 7 O 40.484122 30.936682 66.703333 0
M  V30 8 C 42.633572 29.578175 65.464986 0
M  V30 9 C 38.050584 35.326957 61.238066 0
M  V30 10 C 38.293368 29.995291 55.458765 0
M  V30 11 C 40.859608 29.854005 67.152559 0
M  V30 12 O 39.236946 24.137770 57.076240 0
M  V30 13 C 39.981866 32.698670 56.048037 0
M  V30 14 C 36.933132 29.749543 57.652524 0
M  V30 15 C 42.120136 28.925804 64.168867 0
M  V30 16 C 39.210461 33.259783 58.432995 0
M  V30 17 C 38.047258 30.546445 56.903502 0 CFG=2
M  V30 18 C 40.794300 30.811255 63.011518 0
M  V30 19 C 37.645150 26.521114 53.992441 0
M  V30 20 C 38.882442 34.215855 60.577779 0 CFG=2
M  V30 21 C 38.278991 28.486999 55.285679 0
M  V30 22 C 39.730402 33.003865 62.705729 0
M  V30 23 C 37.728235 30.115766 60.063518 0
M  V30 24 C 38.856704 27.655539 56.265329 0
M  V30 25 C 38.801352 26.255607 56.126039 0
M  V30 26 C 36.564610 30.223820 59.070552 0
M  V30 27 O 41.645136 31.049004 62.167730 0
M  V30 28 O 38.328839 33.991969 59.275418 0
M  V30 29 C 38.196491 25.688325 54.983741 0
M  V30 30 C 37.518502 32.289187 61.525305 0
M  V30 31 C 39.369336 25.372836 57.197193 0
M  V30 32 O 39.943703 25.912987 58.167770 0 CHG=-1
M  V30 33 N 39.860278 31.699910 63.363322 0
M  V30 34 C 38.937776 32.887319 61.381457 0 CFG=1
M  V30 35 H 38.024864 30.283867 62.193600 0
M  V30 36 H 36.378197 30.537728 61.655197 0
M  V30 37 H 37.245136 32.306834 55.900269 0
M  V30 38 H 37.129960 32.395383 57.684313 0
M  V30 39 H 42.119024 28.259641 67.059027 0
M  V30 40 H 38.445165 34.059547 56.616969 0
M  V30 41 H 37.239608 28.550756 53.391823 0
M  V30 42 H 40.337975 28.744874 62.970668 0
M  V30 43 H 40.045138 29.458405 64.526112 0
M  V30 44 H 42.660073 30.666064 65.375807 0
M  V30 45 H 43.664441 29.266445 65.625166 0
M  V30 46 H 38.436654 35.582913 62.224467 0
M  V30 47 H 38.080982 36.232640 60.632537 0
M  V30 48 H 37.003022 35.043310 61.346662 0
M  V30 49 H 37.516191 30.389147 54.802863 0
M  V30 50 H 39.231662 30.340967 55.036218 0
M  V30 51 H 40.419011 29.343987 68.023246 0
M  V30 52 H 40.340798 31.692169 56.219216 0
M  V30 53 H 39.645099 32.737209 55.012194 0
M  V30 54 H 40.844837 33.337797 56.167869 0
M  V30 55 H 37.192930 28.702920 57.768147 0
M  V30 56 H 36.045135 29.737747 57.032167 0
M  V30 57 H 42.858278 29.063921 63.377463 0
M  V30 58 H 42.055139 27.845728 64.312992 0
M  V30 59 H 39.251960 32.256285 58.813023 0
M  V30 60 H 40.164115 33.737796 58.488967 0
M  V30 61 H 38.961570 30.393211 57.473105 0
M  V30 62 H 37.182156 26.087300 53.119618 0
M  V30 63 H 39.896396 34.606496 60.474373 0
M  V30 64 H 39.245145 33.707250 63.367769 0
M  V30 65 H 40.718987 33.427113 62.517470 0
M  V30 66 H 38.649127 30.513733 59.665318 0
M  V30 67 H 37.950509 29.054703 60.167755 0
M  V30 68 H 39.319730 28.092244 57.139276 0
M  V30 69 H 35.747737 29.597143 59.428473 0
M  V30 70 H 36.145115 31.226466 59.066487 0
M  V30 71 H 38.154853 24.615077 54.870600 0
M  V30 72 H 37.100678 32.615505 62.476549 0
M  V30 73 H 36.850606 32.702050 60.769495 0
M  V30 74 H 39.188435 31.454525 64.073628 0
M  V30 75 H 39.543034 32.186333 60.817616 0
M  V30 END ATOM
M  V30 BEGIN BOND
M  V30 1 1 4 2
M  V30 2 1 8 3
M  V30 3 1 11 3
M  V30 4 2 11 7
M  V30 5 1 13 4
M  V30 6 1 15 6
M  V30 7 1 15 8
M  V30 8 1 16 4
M  V30 9 1 17 2
M  V30 10 1 17 10
M  V30 11 1 17 14
M  V30 12 1 18 6
M  V30 13 2 19 5
M  V30 14 1 20 9
M  V30 15 1 21 5
M  V30 16 1 21 10
M  V30 17 1 23 1
M  V30 18 2 24 21
M  V30 19 1 25 24
M  V30 20 1 26 14
M  V30 21 1 26 23
M  V30 22 2 27 18
M  V30 23 1 28 16
M  V30 24 1 28 20
M  V30 25 1 29 19
M  V30 26 2 29 25
M  V30 27 1 30 1
M  V30 28 2 31 12
M  V30 29 1 31 25
M  V30 30 1 32 31
M  V30 31 1 33 18
M  V30 32 1 33 22
M  V30 33 1 34 20
M  V30 34 1 34 22
M  V30 35 1 34 30
M  V30 36 1 35 1
M  V30 37 1 36 1
M  V30 38 1 37 2
M  V30 39 1 38 2
M  V30 40 1 39 3
M  V30 41 1 4 40 CFG=3
M  V30 42 1 41 5
M  V30 43 1 42 6
M  V30 44 1 43 6
M  V30 45 1 44 8
M  V30 46 1 45 8
M  V30 47 1 46 9
M  V30 48 1 47 9
M  V30 49 1 48 9
M  V30 50 1 49 10
M  V30 51 1 50 10
M  V30 52 1 51 11
M  V30 53 1 52 13
M  V30 54 1 53 13
M  V30 55 1 54 13
M  V30 56 1 55 14
M  V30 57 1 56 14
M  V30 58 1 57 15
M  V30 59 1 58 15
M  V30 60 1 59 16
M  V30 61 1 60 16
M  V30 62 1 17 61 CFG=1
M  V30 63 1 62 19
M  V30 64 1 20 63 CFG=3
M  V30 65 1 64 22
M  V30 66 1 65 22
M  V30 67 1 66 23
M  V30 68 1 67 23
M  V30 69 1 68 24
M  V30 70 1 69 26
M  V30 71 1 70 26
M  V30 72 1 71 29
M  V30 73 1 72 30
M  V30 74 1 73 30
M  V30 75 1 74 33
M  V30 76 1 34 75 CFG=3
M  V30 END BOND
M  V30 END CTAB
M  END
>  <i_epik_Tot_Q>  (1) 
-1

>  <i_epik_Tot_abs_Q>  (1) 
1

>  <i_i_glide_confnum>  (1) 
49

>  <i_i_glide_lignum>  (1) 
32

>  <i_i_glide_posenum>  (1) 
331

>  <i_i_glide_rotatable_bonds>  (1) 
11

>  <i_lp_mmshare_version>  (1) 
72125

>  <i_m_source_file_index>  (1) 
16

>  <i_f3d_flags>  (1) 
0

>  <num_sample>  (1) 
100

>  <b_lp_Chiralities_Consistent>  (1) 
1

>  <r_epik_Charging_Adjusted_Penalty>  (1) 
0.00039988353432540339

>  <r_epik_Ionization_Penalty>  (1) 
0.00039992702821499621

>  <r_epik_Ionization_Penalty_Charging>  (1) 
0.00039988353432540339

>  <r_epik_Ionization_Penalty_Neutral>  (1) 
4.349388959280561e-08

>  <r_epik_State_Penalty>  (1) 
-0

>  <r_glide_ring_energy>  (1) 
0

>  <r_i_docking_score>  (1) 
-5.487406217409565

>  <r_i_glide_ecoul>  (1) 
-4.4367227768267172

>  <r_i_glide_eff_state_penalty>  (1) 
-0

>  <r_i_glide_einternal>  (1) 
12.190210311873269

>  <r_i_glide_emodel>  (1) 
-29.062897621372436

>  <r_i_glide_emodel_strain>  (1) 
1.323610772446898

>  <r_i_glide_energy>  (1) 
-30.03172160569429

>  <r_i_glide_erotb>  (1) 
0.81156586864238245

>  <r_i_glide_esite>  (1) 
0

>  <r_i_glide_evdw>  (1) 
-25.594998828867574

>  <r_i_glide_gscore>  (1) 
-5.487406217409565

>  <r_i_glide_gscore_strain>  (1) 
0

>  <r_i_glide_hbond>  (1) 
-0.23963428115460375

>  <r_i_glide_ligand_efficiency>  (1) 
-0.16139430051204604

>  <r_i_glide_ligand_efficiency_ln>  (1) 
-1.2123219499566709

>  <r_i_glide_ligand_efficiency_sa>  (1) 
-0.52285488059774898

>  <r_i_glide_lipo>  (1) 
-2.6718243739519374

>  <r_i_glide_metal>  (1) 
-0

>  <r_i_glide_rewards>  (1) 
-1.4422550729780199

>  <r_lp_Energy>  (1) 
34.150776999999998

>  <r_lp_tautomer_probability>  (1) 
1

>  <s_epik_cmdline>  (1) 
J2VwaWtfcHl0aG9uJywgJy1waHQnLCAnMS4wJywgJy1waCcsICc3LjQnLCAnLXRuJywgJzgnLCAnLW1hJywgJzUwMCcsICctaW1hZScsICc8aW5maWxlLm1hZT4nLCAnLW9tYWUnLCAnPG91dGZpbGUubWFlPic=

>  <s_epik_input>  (1) 
Tz1bQ0hdW05IXVtDSDJdW0NIMl1bQ0gyXUMoPU8pW05IXVtDSDJdW0NAQEhdKFtDQEhdKFtDSDNdKU9bQ0gyXTEpW0NIMl1bQ0gyXVtDSDJdW0NIMl1bQ0gyXVtDQEhdKFtDSDJdW0NAQEhdMVtDSDNdKVtDSDJdYzJbY0hdW2NIXVtjSF1jKFtjSF0yKUMoPU8pW09IXQ==

>  <s_glide_docking_method>  (1) 
confgen

>  <s_i_glide_gridfile>  (1) 
gpcr_5ht2c_6bqh_protein_autoprepared_prepared

>  <s_lp_Force_Field>  (1) 
S-OPLS

>  <s_lp_Variant>  (1) 
DiffSBDD_15-2

>  <s_m_source_file>  (1) 
generated_GPCR_5HT2C_ligand_DiffSBDD_2026-06-23_prepared.sdf

>  <GenAI_Model>  (1) 
DiffSBDD

>  <Protein>  (1) 
GPCR_5HT2C

$$$$
DiffSBDD_37
     RDKit          3D

  0  0  0  0  0  0  0  0  0  0999 V3000
M  V30 BEGIN CTAB
M  V30 COUNTS 45 45 0 0 1
M  V30 BEGIN ATOM
M  V30 1 O 37.331661 29.703745 55.550011 0
M  V30 2 C 38.967730 27.382074 52.238580 0
M  V30 3 N 37.215934 33.317953 60.196016 0
M  V30 4 C 36.849072 32.094315 60.592235 0
M  V30 5 C 38.088573 30.385055 54.550620 0 CFG=1
M  V30 6 O 36.845036 31.737868 61.767277 0
M  V30 7 C 39.645143 30.143871 52.543305 0
M  V30 8 C 37.209337 33.717985 58.795782 0
M  V30 9 C 38.183836 28.210980 53.251549 0
M  V30 10 C 38.819296 31.572476 55.191278 0
M  V30 11 C 38.040523 29.076898 56.617323 0
M  V30 12 C 38.478432 33.249993 58.061188 0
M  V30 13 C 38.992768 29.432394 53.730308 0 CFG=2
M  V30 14 N 37.841599 32.511050 55.766750 0 CHG=1
M  V30 15 C 38.445194 33.587730 56.561275 0
M  V30 16 C 40.409380 30.368597 50.168653 0
M  V30 17 C 39.319309 28.198052 50.991527 0
M  V30 18 C 39.788223 29.602408 51.317300 0
M  V30 19 H 38.361736 26.537759 51.940529 0
M  V30 20 H 39.872481 26.983951 52.700344 0
M  V30 21 H 37.503199 33.996744 60.885920 0
M  V30 22 H 36.558219 31.462846 59.737663 0
M  V30 23 H 37.350011 30.793542 53.862850 0
M  V30 24 H 39.999012 31.147695 52.715516 0
M  V30 25 H 36.314265 33.338979 58.304143 0
M  V30 26 H 37.136800 34.805307 58.753291 0
M  V30 27 H 37.902123 27.582035 54.095903 0
M  V30 28 H 37.250202 28.539106 52.790798 0
M  V30 29 H 39.388481 32.131609 54.453589 0
M  V30 30 H 39.539604 31.246946 55.941639 0
M  V30 31 H 37.328932 28.555271 57.257050 0
M  V30 32 H 38.756284 28.336716 56.261795 0
M  V30 33 H 38.560620 29.793262 57.251776 0
M  V30 34 H 39.339024 33.737484 58.520838 0
M  V30 35 H 38.637559 32.179735 58.200746 0
M  V30 36 H 39.801388 29.093565 54.374930 0
M  V30 37 H 37.133769 32.029195 56.322468 0
M  V30 38 H 37.916989 34.521999 56.386079 0
M  V30 39 H 39.445618 33.737725 56.167193 0
M  V30 40 H 39.645408 30.536928 49.404586 0
M  V30 41 H 40.788917 31.338210 50.489364 0
M  V30 42 H 41.235897 29.813220 49.726359 0
M  V30 43 H 38.450092 28.283843 50.343840 0
M  V30 44 H 40.083561 27.675712 50.416558 0
M  V30 45 H 37.320292 32.938393 55.011855 0
M  V30 END ATOM
M  V30 BEGIN BOND
M  V30 1 1 4 3
M  V30 2 1 5 1
M  V30 3 2 6 4
M  V30 4 1 8 3
M  V30 5 1 9 2
M  V30 6 1 10 5
M  V30 7 1 11 1
M  V30 8 1 12 8
M  V30 9 1 13 5
M  V30 10 1 13 7
M  V30 11 1 13 9
M  V30 12 1 14 10
M  V30 13 1 15 12
M  V30 14 1 15 14
M  V30 15 1 17 2
M  V30 16 2 18 7
M  V30 17 1 18 16
M  V30 18 1 18 17
M  V30 19 1 19 2
M  V30 20 1 20 2
M  V30 21 1 21 3
M  V30 22 1 22 4
M  V30 23 1 5 23 CFG=3
M  V30 24 1 24 7
M  V30 25 1 25 8
M  V30 26 1 26 8
M  V30 27 1 27 9
M  V30 28 1 28 9
M  V30 29 1 29 10
M  V30 30 1 30 10
M  V30 31 1 31 11
M  V30 32 1 32 11
M  V30 33 1 33 11
M  V30 34 1 34 12
M  V30 35 1 35 12
M  V30 36 1 13 36 CFG=1
M  V30 37 1 37 14
M  V30 38 1 38 15
M  V30 39 1 39 15
M  V30 40 1 40 16
M  V30 41 1 41 16
M  V30 42 1 42 16
M  V30 43 1 43 17
M  V30 44 1 44 17
M  V30 45 1 45 14
M  V30 END BOND
M  V30 END CTAB
M  END
>  <i_epik_Tot_Q>  (1) 
1

>  <i_epik_Tot_abs_Q>  (1) 
1

>  <i_i_glide_confnum>  (1) 
143

>  <i_i_glide_lignum>  (1) 
84

>  <i_i_glide_posenum>  (1) 
14

>  <i_i_glide_rotatable_bonds>  (1) 
9

>  <i_lp_mmshare_version>  (1) 
72125

>  <i_m_source_file_index>  (1) 
38

>  <i_f3d_flags>  (1) 
0

>  <num_sample>  (1) 
100

>  <b_lp_Chiralities_Consistent>  (1) 
1

>  <r_epik_Charging_Adjusted_Penalty>  (1) 
0.011588435553483814

>  <r_epik_Ionization_Penalty>  (1) 
0.0057942400121425265

>  <r_epik_Ionization_Penalty_Charging>  (1) 
0.0057942177767419025

>  <r_epik_Ionization_Penalty_Neutral>  (1) 
2.2235400624284582e-08

>  <r_epik_State_Penalty>  (1) 
0.0057942177767419112

>  <r_glide_ring_energy>  (1) 
0

>  <r_i_docking_score>  (1) 
-5.4821203739244346

>  <r_i_glide_ecoul>  (1) 
-7.539879924087324

>  <r_i_glide_eff_state_penalty>  (1) 
0.0057942177767419112

>  <r_i_glide_einternal>  (1) 
9.5540618987996062

>  <r_i_glide_emodel>  (1) 
-44.616791049302094

>  <r_i_glide_emodel_strain>  (1) 
0.39765513825787835

>  <r_i_glide_energy>  (1) 
-34.144256603031486

>  <r_i_glide_erotb>  (1) 
2.6454654528843173

>  <r_i_glide_esite>  (1) 
-0.1399419955013935

>  <r_i_glide_evdw>  (1) 
-26.604376678944163

>  <r_i_glide_gscore>  (1) 
-5.4879145917011769

>  <r_i_glide_gscore_strain>  (1) 
0

>  <r_i_glide_hbond>  (1) 
-0.578201337921742

>  <r_i_glide_ligand_efficiency>  (1) 
-0.30456224299580192

>  <r_i_glide_ligand_efficiency_ln>  (1) 
-1.4091507740352958

>  <r_i_glide_ligand_efficiency_sa>  (1) 
-0.79817887733220672

>  <r_i_glide_lipo>  (1) 
-2.2520200358812401

>  <r_i_glide_metal>  (1) 
-0

>  <r_i_glide_rewards>  (1) 
-2.7020158527208116

>  <r_lp_Energy>  (1) 
14.633092999999999

>  <s_epik_cmdline>  (1) 
J2VwaWtfcHl0aG9uJywgJy1waHQnLCAnMS4wJywgJy1waCcsICc3LjQnLCAnLXRuJywgJzgnLCAnLW1hJywgJzUwMCcsICctaW1hZScsICc8aW5maWxlLm1hZT4nLCAnLW9tYWUnLCAnPG91dGZpbGUubWFlPic=

>  <s_epik_input>  (1) 
W0NIMl0xW0NIMl1bQ0gyXUMoW0NIM10pPVtDSF1bQ0BIXTFbQ0BASF0oT1tDSDNdKVtDSDJdW05IXVtDSDJdW0NIMl1bQ0gyXVtOSF1bQ0hdPU8=

>  <s_glide_docking_method>  (1) 
confgen

>  <s_i_glide_gridfile>  (1) 
gpcr_5ht2c_6bqh_protein_autoprepared_prepared

>  <s_lp_Force_Field>  (1) 
S-OPLS

>  <s_lp_Variant>  (1) 
DiffSBDD_37-1

>  <s_m_source_file>  (1) 
generated_GPCR_5HT2C_ligand_DiffSBDD_2026-06-23_prepared.sdf

>  <GenAI_Model>  (1) 
DiffSBDD

>  <Protein>  (1) 
GPCR_5HT2C

$$$$
DiffSBDD_80
     RDKit          3D

  0  0  0  0  0  0  0  0  0  0999 V3000
M  V30 BEGIN CTAB
M  V30 COUNTS 52 52 0 0 1
M  V30 BEGIN ATOM
M  V30 1 O 38.845133 32.418201 57.465002 0
M  V30 2 C 38.844961 31.294049 56.609018 0
M  V30 3 C 38.418497 30.295258 60.408559 0
M  V30 4 C 40.300555 28.799510 61.097395 0
M  V30 5 C 39.398832 25.329198 56.861755 0
M  V30 6 C 39.144034 27.024327 55.006385 0
M  V30 7 O 37.725984 28.537753 52.060077 0
M  V30 8 C 38.758174 25.617480 55.514425 0 CFG=2
M  V30 9 C 37.645172 28.548409 58.331702 0
M  V30 10 N 38.633435 27.238868 53.653571 0
M  V30 11 O 37.849798 33.349168 56.965923 0
M  V30 12 C 37.315243 30.606969 59.600515 0
M  V30 13 O 40.678973 29.553876 61.992641 0
M  V30 14 C 39.134158 29.095725 60.207716 0
M  V30 15 C 36.930106 29.737788 58.565835 0
M  V30 16 C 39.316904 26.150594 57.885157 0
M  V30 17 C 38.738855 28.193725 59.162360 0
M  V30 18 C 39.434152 26.891791 58.963559 0
M  V30 19 C 38.145296 28.410125 53.200809 0
M  V30 20 Cl 36.431934 32.061761 59.879361 0
M  V30 21 C 39.397303 31.593584 55.216466 0
M  V30 22 C 40.045143 30.785594 52.942743 0
M  V30 23 C 37.235392 25.362810 55.508346 0
M  V30 24 C 39.480447 30.350919 54.304420 0 CFG=2
M  V30 25 C 38.121090 29.613021 54.163134 0
M  V30 26 C 36.833647 23.919987 55.834264 0
M  V30 27 H 39.432099 30.504842 57.078738 0
M  V30 28 H 37.820278 30.943885 56.519956 0
M  V30 29 H 38.712312 30.974048 61.196485 0
M  V30 30 H 40.808180 27.864957 60.895837 0
M  V30 31 H 39.942487 24.399573 56.943342 0
M  V30 32 H 40.230826 27.105004 54.967860 0
M  V30 33 H 38.817633 27.757962 55.734840 0
M  V30 34 H 39.209000 24.902967 54.824248 0
M  V30 35 H 37.329863 27.888060 57.539364 0
M  V30 36 H 38.646377 26.450886 53.022901 0
M  V30 37 H 37.036937 32.897220 57.177870 0
M  V30 38 H 36.081873 29.985572 57.944612 0
M  V30 39 H 40.045133 26.557507 59.759260 0
M  V30 40 H 38.790782 32.361190 54.733966 0
M  V30 41 H 40.391813 32.018419 55.347261 0
M  V30 42 H 39.356249 31.453168 52.428233 0
M  V30 43 H 40.967450 31.337754 53.080287 0
M  V30 44 H 40.264699 29.943550 52.286196 0
M  V30 45 H 36.737770 26.043897 56.198038 0
M  V30 46 H 36.845163 25.589901 54.517797 0
M  V30 47 H 40.196223 29.669027 54.761913 0
M  V30 48 H 37.674616 29.326181 55.110939 0
M  V30 49 H 37.401883 30.328180 53.767843 0
M  V30 50 H 35.752209 23.798190 55.767758 0
M  V30 51 H 37.278826 23.221156 55.126948 0
M  V30 52 H 37.138385 23.637277 56.841923 0
M  V30 END ATOM
M  V30 BEGIN BOND
M  V30 1 1 2 1
M  V30 2 1 8 5
M  V30 3 1 8 6
M  V30 4 1 10 6
M  V30 5 1 11 1
M  V30 6 2 12 3
M  V30 7 2 13 4
M  V30 8 1 14 3
M  V30 9 1 14 4
M  V30 10 2 15 9
M  V30 11 1 15 12
M  V30 12 2 16 5
M  V30 13 1 17 9
M  V30 14 2 17 14
M  V30 15 2 18 16
M  V30 16 1 18 17
M  V30 17 2 19 7
M  V30 18 1 19 10
M  V30 19 1 20 12
M  V30 20 1 21 2
M  V30 21 1 23 8
M  V30 22 1 24 21
M  V30 23 1 24 22
M  V30 24 1 25 19
M  V30 25 1 25 24
M  V30 26 1 26 23
M  V30 27 1 27 2
M  V30 28 1 28 2
M  V30 29 1 29 3
M  V30 30 1 30 4
M  V30 31 1 31 5
M  V30 32 1 32 6
M  V30 33 1 33 6
M  V30 34 1 8 34 CFG=3
M  V30 35 1 35 9
M  V30 36 1 36 10
M  V30 37 1 37 11
M  V30 38 1 38 15
M  V30 39 1 39 18
M  V30 40 1 40 21
M  V30 41 1 41 21
M  V30 42 1 42 22
M  V30 43 1 43 22
M  V30 44 1 44 22
M  V30 45 1 45 23
M  V30 46 1 46 23
M  V30 47 1 24 47 CFG=1
M  V30 48 1 48 25
M  V30 49 1 49 25
M  V30 50 1 50 26
M  V30 51 1 51 26
M  V30 52 1 52 26
M  V30 END BOND
M  V30 END CTAB
M  END
>  <i_epik_Tot_Q>  (1) 
0

>  <i_epik_Tot_abs_Q>  (1) 
0

>  <i_i_glide_confnum>  (1) 
1610

>  <i_i_glide_lignum>  (1) 
186

>  <i_i_glide_posenum>  (1) 
285

>  <i_i_glide_rotatable_bonds>  (1) 
13

>  <i_lp_mmshare_version>  (1) 
72125

>  <i_m_source_file_index>  (1) 
81

>  <i_f3d_flags>  (1) 
0

>  <num_sample>  (1) 
100

>  <b_lp_Chiralities_Consistent>  (1) 
1

>  <r_epik_Charging_Adjusted_Penalty>  (1) 
0

>  <r_epik_Ionization_Penalty>  (1) 
8.3445448322163385e-06

>  <r_epik_Ionization_Penalty_Charging>  (1) 
0

>  <r_epik_Ionization_Penalty_Neutral>  (1) 
8.3445448322163385e-06

>  <r_epik_State_Penalty>  (1) 
-0

>  <r_glide_ring_energy>  (1) 
0

>  <r_i_docking_score>  (1) 
-5.4818859757213527

>  <r_i_glide_ecoul>  (1) 
-3.6056441000692212

>  <r_i_glide_eff_state_penalty>  (1) 
-0

>  <r_i_glide_einternal>  (1) 
21.334944506074912

>  <r_i_glide_emodel>  (1) 
-47.379861148876017

>  <r_i_glide_emodel_strain>  (1) 
0.12981697091251831

>  <r_i_glide_energy>  (1) 
-42.745032209071226

>  <r_i_glide_erotb>  (1) 
1.3439143837633358

>  <r_i_glide_esite>  (1) 
-0.14506626413968809

>  <r_i_glide_evdw>  (1) 
-39.139388109002006

>  <r_i_glide_gscore>  (1) 
-5.4818859757213527

>  <r_i_glide_gscore_strain>  (1) 
0

>  <r_i_glide_hbond>  (1) 
-0.31771993562095696

>  <r_i_glide_ligand_efficiency>  (1) 
-0.2108417682969751

>  <r_i_glide_ligand_efficiency_ln>  (1) 
-1.2874029338631441

>  <r_i_glide_ligand_efficiency_sa>  (1) 
-0.62461790963584662

>  <r_i_glide_lipo>  (1) 
-3.4294102535364317

>  <r_i_glide_metal>  (1) 
-0

>  <r_i_glide_rewards>  (1) 
-0.43578788572712823

>  <r_lp_Energy>  (1) 
-6.8237489999999994

>  <r_lp_tautomer_probability>  (1) 
1

>  <s_epik_cmdline>  (1) 
J2VwaWtfcHl0aG9uJywgJy1waHQnLCAnMS4wJywgJy1waCcsICc3LjQnLCAnLXRuJywgJzgnLCAnLW1hJywgJzUwMCcsICctaW1hZScsICc8aW5maWxlLm1hZT4nLCAnLW9tYWUnLCAnPG91dGZpbGUubWFlPic=

>  <s_epik_input>  (1) 
W09IXU9bQ0gyXVtDSDJdW0NASF0oW0NIM10pW0NIMl1DKD1PKVtOSF1bQ0gyXVtDQEhdKFtDSDJdW0NIM10pW0NIXT1DPVtDSF1jKFtjSF1bY0hdMSljKFtDSF09TylbY0hdYzFDbA==

>  <s_glide_docking_method>  (1) 
confgen

>  <s_i_glide_gridfile>  (1) 
gpcr_5ht2c_6bqh_protein_autoprepared_prepared

>  <s_lp_Force_Field>  (1) 
S-OPLS

>  <s_lp_Variant>  (1) 
DiffSBDD_80-1

>  <s_m_source_file>  (1) 
generated_GPCR_5HT2C_ligand_DiffSBDD_2026-06-23_prepared.sdf

>  <GenAI_Model>  (1) 
DiffSBDD

>  <Protein>  (1) 
GPCR_5HT2C

$$$$
DiffSBDD_62
     RDKit          3D

  0  0  0  0  0  0  0  0  0  0999 V3000
M  V30 BEGIN CTAB
M  V30 COUNTS 80 84 0 0 1
M  V30 BEGIN ATOM
M  V30 1 C 38.590291 28.719318 53.918835 0
M  V30 2 C 41.823743 34.728381 66.651425 0
M  V30 3 C 37.794410 32.170908 62.114900 0
M  V30 4 C 37.677838 30.720001 55.222549 0
M  V30 5 C 39.115326 24.331596 57.329433 0
M  V30 6 C 41.418756 32.769167 68.360464 0
M  V30 7 C 38.742445 30.999489 61.721977 0 CFG=2
M  V30 8 C 41.148946 32.664406 65.883039 0
M  V30 9 C 40.445142 30.843935 64.563836 0
M  V30 10 O 39.734058 26.305884 55.216735 0
M  V30 11 C 38.179966 25.386690 56.787821 0
M  V30 12 C 41.083542 33.786863 62.359305 0
M  V30 13 C 38.642727 29.543998 55.177528 0
M  V30 14 C 38.560567 26.084112 55.525933 0
M  V30 15 C 40.952120 32.925147 63.544044 0
M  V30 16 N 41.258482 33.408520 64.789197 0
M  V30 17 C 37.483347 33.290201 61.088817 0
M  V30 18 O 39.007284 28.137825 60.445129 0
M  V30 19 C 39.007897 25.662740 58.025386 0
M  V30 20 N 37.712664 26.537758 53.367760 0
M  V30 21 N 41.691243 34.784103 65.051153 0
M  V30 22 N 39.429395 29.247204 56.129533 0
M  V30 23 C 39.420781 29.910966 57.400974 0
M  V30 24 C 41.438508 33.298548 66.940701 0
M  V30 25 C 40.559282 31.721166 63.378551 0
M  V30 26 C 40.872736 32.573729 61.321366 0
M  V30 27 N 37.507596 26.482209 54.783895 0
M  V30 28 C 39.308505 29.336564 59.785188 0 CFG=2
M  V30 29 C 37.434388 27.732576 54.010328 0 CFG=1
M  V30 30 C 36.127375 34.168736 59.142190 0
M  V30 31 C 36.199853 33.107494 60.250076 0
M  V30 32 C 40.255674 31.250258 62.010441 0 CFG=2
M  V30 33 C 34.933843 33.167221 61.116429 0
M  V30 34 C 38.452394 30.507513 60.290442 0
M  V30 35 N 38.947178 28.956232 58.413021 0 CHG=1
M  V30 36 N 40.726283 31.291461 65.750935 0
M  V30 37 H 38.426373 29.369164 53.057787 0
M  V30 38 H 39.548003 28.234410 53.737745 0
M  V30 39 H 41.135718 35.432763 67.119925 0
M  V30 40 H 42.845069 34.936434 66.966244 0
M  V30 41 H 36.863203 31.750647 62.481793 0
M  V30 42 H 38.222595 32.677942 62.967753 0
M  V30 43 H 37.165695 30.851631 54.269851 0
M  V30 44 H 36.916107 30.537758 55.980118 0
M  V30 45 H 38.199122 31.652831 55.440462 0
M  V30 46 H 38.643529 23.456097 57.767755 0
M  V30 47 H 40.045154 24.137981 56.803869 0
M  V30 48 H 42.401472 32.889349 68.817285 0
M  V30 49 H 40.690224 33.321093 68.954603 0
M  V30 50 H 41.154961 31.711751 68.393583 0
M  V30 51 H 38.467574 30.174815 62.382435 0
M  V30 52 H 40.116530 29.817717 64.380139 0
M  V30 53 H 37.114628 25.215819 56.941041 0
M  V30 54 H 40.272217 34.514418 62.322105 0
M  V30 55 H 42.045141 34.279289 62.281452 0
M  V30 56 H 37.382297 34.228005 61.636725 0
M  V30 57 H 38.325153 33.460265 60.425504 0
M  V30 58 H 39.876578 26.313924 57.949995 0
M  V30 59 H 38.469826 25.714440 58.967804 0
M  V30 60 H 38.665171 26.374608 53.070304 0
M  V30 61 H 42.607173 34.923608 64.628368 0
M  V30 62 H 38.855439 30.841640 57.437829 0
M  V30 63 H 40.445115 30.137756 57.653223 0
M  V30 64 H 41.867347 32.297855 60.967768 0
M  V30 65 H 40.343579 32.885020 60.426194 0
M  V30 66 H 40.379664 29.531846 59.844851 0
M  V30 67 H 36.445132 28.149210 53.867397 0
M  V30 68 H 36.129221 35.179227 59.552826 0
M  V30 69 H 36.968897 34.083251 58.454650 0
M  V30 70 H 35.218101 34.056212 58.551674 0
M  V30 71 H 36.220861 32.138314 59.753671 0
M  V30 72 H 40.864119 30.370077 61.808587 0
M  V30 73 H 34.920652 34.058184 61.744402 0
M  V30 74 H 34.044782 33.194873 60.488587 0
M  V30 75 H 34.845131 32.298681 61.767319 0
M  V30 76 H 38.592871 31.344266 59.609393 0
M  V30 77 H 37.400477 30.229401 60.217554 0
M  V30 78 H 39.388486 28.068568 58.220373 0
M  V30 79 H 37.947013 28.841189 58.340960 0
M  V30 80 H 39.262456 28.212760 61.354620 0
M  V30 END ATOM
M  V30 BEGIN BOND
M  V30 1 1 7 3
M  V30 2 1 11 5
M  V30 3 1 13 1
M  V30 4 1 13 4
M  V30 5 2 14 10
M  V30 6 1 14 11
M  V30 7 1 15 12
M  V30 8 1 16 8
M  V30 9 1 16 15
M  V30 10 1 17 3
M  V30 11 1 19 5
M  V30 12 1 19 11
M  V30 13 1 21 2
M  V30 14 1 21 16
M  V30 15 2 22 13
M  V30 16 1 23 22
M  V30 17 1 24 2
M  V30 18 1 24 6
M  V30 19 2 24 8
M  V30 20 1 25 9
M  V30 21 2 25 15
M  V30 22 1 26 12
M  V30 23 1 27 14
M  V30 24 1 27 20
M  V30 25 1 28 18
M  V30 26 1 29 1
M  V30 27 1 29 20
M  V30 28 1 29 27
M  V30 29 1 31 17
M  V30 30 1 31 30
M  V30 31 1 32 7
M  V30 32 1 32 25
M  V30 33 1 32 26
M  V30 34 1 33 31
M  V30 35 1 34 7
M  V30 36 1 34 28
M  V30 37 1 35 23
M  V30 38 1 35 28
M  V30 39 1 36 8
M  V30 40 2 36 9
M  V30 41 1 37 1
M  V30 42 1 38 1
M  V30 43 1 39 2
M  V30 44 1 40 2
M  V30 45 1 41 3
M  V30 46 1 42 3
M  V30 47 1 43 4
M  V30 48 1 44 4
M  V30 49 1 45 4
M  V30 50 1 46 5
M  V30 51 1 47 5
M  V30 52 1 48 6
M  V30 53 1 49 6
M  V30 54 1 50 6
M  V30 55 1 7 51 CFG=1
M  V30 56 1 52 9
M  V30 57 1 53 11
M  V30 58 1 54 12
M  V30 59 1 55 12
M  V30 60 1 56 17
M  V30 61 1 57 17
M  V30 62 1 58 19
M  V30 63 1 59 19
M  V30 64 1 60 20
M  V30 65 1 61 21
M  V30 66 1 62 23
M  V30 67 1 63 23
M  V30 68 1 64 26
M  V30 69 1 65 26
M  V30 70 1 28 66 CFG=3
M  V30 71 1 29 67 CFG=3
M  V30 72 1 68 30
M  V30 73 1 69 30
M  V30 74 1 70 30
M  V30 75 1 71 31
M  V30 76 1 32 72 CFG=3
M  V30 77 1 73 33
M  V30 78 1 74 33
M  V30 79 1 75 33
M  V30 80 1 76 34
M  V30 81 1 77 34
M  V30 82 1 78 35
M  V30 83 1 79 35
M  V30 84 1 80 18
M  V30 END BOND
M  V30 END CTAB
M  END
>  <i_epik_Tot_Q>  (1) 
1

>  <i_epik_Tot_abs_Q>  (1) 
1

>  <i_i_glide_confnum>  (1) 
2598

>  <i_i_glide_lignum>  (1) 
138

>  <i_i_glide_posenum>  (1) 
159

>  <i_i_glide_rotatable_bonds>  (1) 
14

>  <i_lp_mmshare_version>  (1) 
72125

>  <i_m_source_file_index>  (1) 
63

>  <i_f3d_flags>  (1) 
0

>  <num_sample>  (1) 
100

>  <b_lp_Chiralities_Consistent>  (1) 
1

>  <r_epik_Charging_Adjusted_Penalty>  (1) 
1.9108014557952604

>  <r_epik_Ionization_Penalty>  (1) 
0.8812751426241725

>  <r_epik_Ionization_Penalty_Charging>  (1) 
0.72483633588800112

>  <r_epik_Ionization_Penalty_Neutral>  (1) 
0.15643880673617139

>  <r_epik_State_Penalty>  (1) 
1.1859651199072592

>  <r_glide_ring_energy>  (1) 
0

>  <r_i_docking_score>  (1) 
-5.4743511025674891

>  <r_i_glide_ecoul>  (1) 
1.5211288291254284

>  <r_i_glide_eff_state_penalty>  (1) 
1.1859651199072592

>  <r_i_glide_einternal>  (1) 
4.6856734174350194

>  <r_i_glide_emodel>  (1) 
-69.116630710589789

>  <r_i_glide_emodel_strain>  (1) 
0.44701627261883914

>  <r_i_glide_energy>  (1) 
-47.244916124675619

>  <r_i_glide_erotb>  (1) 
0.98469743448682379

>  <r_i_glide_esite>  (1) 
0

>  <r_i_glide_evdw>  (1) 
-48.76604495380105

>  <r_i_glide_gscore>  (1) 
-6.6603162224747487

>  <r_i_glide_gscore_strain>  (1) 
0

>  <r_i_glide_hbond>  (1) 
0

>  <r_i_glide_ligand_efficiency>  (1) 
-0.15206530840465249

>  <r_i_glide_ligand_efficiency_ln>  (1) 
-1.1943555107053714

>  <r_i_glide_ligand_efficiency_sa>  (1) 
-0.50210858543288717

>  <r_i_glide_lipo>  (1) 
-3.2744426933905859

>  <r_i_glide_metal>  (1) 
-0

>  <r_i_glide_rewards>  (1) 
-2.1604380402497485

>  <r_lp_Energy>  (1) 
41.955964999999999

>  <r_lp_tautomer_probability>  (1) 
0.49999399997599986

>  <s_epik_Chemistry_Notes>  (1) 
This compound has an imine and may undergo hydrolysis. This compound contains an acetal/aminal-like group ( X-CH(R)-Y where X, Y are N, S, or O) that may be acid/base labile, releasing an aldehyde.

>  <s_epik_cmdline>  (1) 
J2VwaWtfcHl0aG9uJywgJy1waHQnLCAnMS4wJywgJy1waCcsICc3LjQnLCAnLXRuJywgJzgnLCAnLW1hJywgJzUwMCcsICctaW1hZScsICc8aW5maWxlLm1hZT4nLCAnLW9tYWUnLCAnPG91dGZpbGUubWFlPic=

>  <s_epik_input>  (1) 
W0NIMl0xW0NIMl1bQ0hdMUMoPU8pTjJbTkhdW0NAQEhdMltDSDJdL0MoW0NIM10pPU4vW0NIMl1bTkhdW0NASF0oW09IXSlbQ0gyXVtDQEhdKFtDSDJdW0NIMl1bQ0hdKFtDSDNdKVtDSDNdKVtDQEBIXShbQ0gyXVtDSDJdMylDKFtDSF09TjQpPUMzTihDND01KVtOSF1bQ0gyXUM1W0NIM10=

>  <s_glide_docking_method>  (1) 
confgen

>  <s_i_glide_gridfile>  (1) 
gpcr_5ht2c_6bqh_protein_autoprepared_prepared

>  <s_lp_Force_Field>  (1) 
S-OPLS

>  <s_lp_Variant>  (1) 
DiffSBDD_62-4

>  <s_m_source_file>  (1) 
generated_GPCR_5HT2C_ligand_DiffSBDD_2026-06-23_prepared.sdf

>  <GenAI_Model>  (1) 
DiffSBDD

>  <Protein>  (1) 
GPCR_5HT2C

$$$$
DiffSBDD_21
     RDKit          3D

  0  0  0  0  0  0  0  0  0  0999 V3000
M  V30 BEGIN CTAB
M  V30 COUNTS 55 56 0 0 1
M  V30 BEGIN ATOM
M  V30 1 C 38.075858 39.734403 60.893115 0
M  V30 2 C 37.241728 38.697738 61.368185 0
M  V30 3 C 41.559907 31.930420 62.812030 0
M  V30 4 O 39.645237 29.210386 62.167678 0
M  V30 5 O 35.647400 29.737729 58.567776 0
M  V30 6 O 39.122238 29.512129 55.061628 0
M  V30 7 C 36.262028 30.242893 59.729001 0
M  V30 8 N 38.844517 40.537651 60.590686 0
M  V30 9 C 36.887355 35.305600 61.347409 0
M  V30 10 C 36.935879 36.433257 62.386949 0
M  V30 11 O 41.244800 31.333433 61.567940 0
M  V30 12 C 35.944017 34.153915 61.703844 0
M  V30 13 C 39.871151 31.481961 61.241519 0 CFG=2
M  V30 14 C 39.207085 28.592454 56.146590 0
M  V30 15 C 38.405351 31.267516 56.554519 0
M  V30 16 C 38.983896 30.317529 61.582756 0 CFG=1
M  V30 17 C 35.824382 33.146660 60.569198 0
M  V30 18 C 37.096594 31.501653 59.408520 0 CFG=1
M  V30 19 N 38.476629 30.377304 57.717479 0
M  V30 20 O 37.051977 32.421499 60.490627 0
M  V30 21 C 38.548153 31.129165 58.993214 0 CFG=2
M  V30 22 C 39.467700 29.340957 57.468360 0
M  V30 23 C 38.114362 30.498920 55.256680 0
M  V30 24 C 37.758969 37.568418 61.861048 0
M  V30 25 C 39.417730 30.539217 60.135709 0 CFG=1
M  V30 26 H 36.171863 38.846313 61.324788 0
M  V30 27 H 42.612939 31.764607 63.038857 0
M  V30 28 H 41.383711 33.006412 62.786973 0
M  V30 29 H 40.968522 31.495399 63.619200 0
M  V30 30 H 39.225258 28.997752 62.996263 0
M  V30 31 H 35.585407 30.449950 57.926952 0
M  V30 32 H 35.495471 30.463181 60.463738 0
M  V30 33 H 36.875989 29.452436 60.150561 0
M  V30 34 H 37.892201 34.916940 61.173987 0
M  V30 35 H 36.561154 35.726517 60.395774 0
M  V30 36 H 35.944222 36.800726 62.634281 0
M  V30 37 H 37.385207 36.137807 63.331462 0
M  V30 38 H 34.957398 34.530247 61.972234 0
M  V30 39 H 36.305357 33.619487 62.567772 0
M  V30 40 H 39.493682 32.502570 61.260837 0
M  V30 41 H 40.008479 27.881014 55.945271 0
M  V30 42 H 38.280739 28.019382 56.214663 0
M  V30 43 H 37.645333 32.034084 56.687674 0
M  V30 44 H 39.351722 31.800505 56.446553 0
M  V30 45 H 37.971454 30.501008 61.928742 0
M  V30 46 H 35.593983 33.658756 59.632959 0
M  V30 47 H 34.985072 32.487192 60.781180 0
M  V30 48 H 36.635219 32.025564 58.574763 0
M  V30 49 H 39.040132 32.075913 58.768564 0
M  V30 50 H 40.445328 29.794920 57.443146 0
M  V30 51 H 39.461504 28.605575 58.272207 0
M  V30 52 H 38.111028 31.178503 54.403939 0
M  V30 53 H 37.129787 30.029414 55.300259 0
M  V30 54 H 38.831308 37.440699 61.893087 0
M  V30 55 H 40.238988 29.913632 59.795466 0
M  V30 END ATOM
M  V30 BEGIN BOND
M  V30 1 1 2 1
M  V30 2 1 7 5
M  V30 3 3 8 1
M  V30 4 1 10 9
M  V30 5 1 11 3
M  V30 6 1 12 9
M  V30 7 1 13 11
M  V30 8 1 14 6
M  V30 9 1 16 4
M  V30 10 1 16 13
M  V30 11 1 17 12
M  V30 12 1 18 7
M  V30 13 1 19 15
M  V30 14 1 20 17
M  V30 15 1 20 18
M  V30 16 1 21 18
M  V30 17 1 21 19
M  V30 18 1 22 14
M  V30 19 1 22 19
M  V30 20 1 23 6
M  V30 21 1 23 15
M  V30 22 2 24 2
M  V30 23 1 24 10
M  V30 24 1 25 13
M  V30 25 1 25 16
M  V30 26 1 25 21
M  V30 27 1 26 2
M  V30 28 1 27 3
M  V30 29 1 28 3
M  V30 30 1 29 3
M  V30 31 1 30 4
M  V30 32 1 31 5
M  V30 33 1 32 7
M  V30 34 1 33 7
M  V30 35 1 34 9
M  V30 36 1 35 9
M  V30 37 1 36 10
M  V30 38 1 37 10
M  V30 39 1 38 12
M  V30 40 1 39 12
M  V30 41 1 13 40 CFG=3
M  V30 42 1 41 14
M  V30 43 1 42 14
M  V30 44 1 43 15
M  V30 45 1 44 15
M  V30 46 1 16 45 CFG=3
M  V30 47 1 46 17
M  V30 48 1 47 17
M  V30 49 1 18 48 CFG=3
M  V30 50 1 21 49 CFG=3
M  V30 51 1 50 22
M  V30 52 1 51 22
M  V30 53 1 52 23
M  V30 54 1 53 23
M  V30 55 1 54 24
M  V30 56 1 25 55 CFG=3
M  V30 END BOND
M  V30 END CTAB
M  END
>  <i_epik_Tot_Q>  (1) 
0

>  <i_epik_Tot_abs_Q>  (1) 
0

>  <i_i_glide_confnum>  (1) 
1526

>  <i_i_glide_lignum>  (1) 
52

>  <i_i_glide_posenum>  (1) 
101

>  <i_i_glide_rotatable_bonds>  (1) 
13

>  <i_lp_mmshare_version>  (1) 
72125

>  <i_m_source_file_index>  (1) 
22

>  <i_f3d_flags>  (1) 
0

>  <num_sample>  (1) 
100

>  <b_lp_Chiralities_Consistent>  (1) 
1

>  <r_epik_Charging_Adjusted_Penalty>  (1) 
0.033214284747091018

>  <r_epik_Ionization_Penalty>  (1) 
0.033214513384273246

>  <r_epik_Ionization_Penalty_Charging>  (1) 
0

>  <r_epik_Ionization_Penalty_Neutral>  (1) 
0.033214513384273246

>  <r_epik_State_Penalty>  (1) 
0.033214284747091018

>  <r_glide_ring_energy>  (1) 
0

>  <r_i_docking_score>  (1) 
-5.461415107827059

>  <r_i_glide_ecoul>  (1) 
-12.415668556667828

>  <r_i_glide_eff_state_penalty>  (1) 
0.033214284747091018

>  <r_i_glide_einternal>  (1) 
11.136900690354643

>  <r_i_glide_emodel>  (1) 
-33.538597224560469

>  <r_i_glide_emodel_strain>  (1) 
4.2632605204673055

>  <r_i_glide_energy>  (1) 
-30.970944006225206

>  <r_i_glide_erotb>  (1) 
1.5209836995870194

>  <r_i_glide_esite>  (1) 
0

>  <r_i_glide_evdw>  (1) 
-18.555275449557378

>  <r_i_glide_gscore>  (1) 
-5.4946293925741498

>  <r_i_glide_gscore_strain>  (1) 
0.065815130116826381

>  <r_i_glide_hbond>  (1) 
-1.1331398650294897

>  <r_i_glide_ligand_efficiency>  (1) 
-0.21845660431308236

>  <r_i_glide_ligand_efficiency_ln>  (1) 
-1.2945190459588072

>  <r_i_glide_ligand_efficiency_sa>  (1) 
-0.63877098604120219

>  <r_i_glide_lipo>  (1) 
-1.6387324097193487

>  <r_i_glide_metal>  (1) 
-0

>  <r_i_glide_rewards>  (1) 
-1.5194418915511143

>  <r_lp_Energy>  (1) 
16.758039999999998

>  <s_epik_cmdline>  (1) 
J2VwaWtfcHl0aG9uJywgJy1waHQnLCAnMS4wJywgJy1waCcsICc3LjQnLCAnLXRuJywgJzgnLCAnLW1hJywgJzUwMCcsICctaW1hZScsICc8aW5maWxlLm1hZT4nLCAnLW9tYWUnLCAnPG91dGZpbGUubWFlPic=

>  <s_epik_input>  (1) 
TiNDL1tDSF09W0NIXS9bQ0gyXVtDSDJdW0NIMl1bQ0gyXU9bQ0BIXShbQ0gyXVtPSF0pW0NAQEhdKFtDQEBIXTFbQ0BASF0oW09IXSlbQ0BIXTFPW0NIM10pTjJbQ0gyXVtDSDJdT1tDSDJdW0NIMl0y

>  <s_glide_docking_method>  (1) 
confgen

>  <s_i_glide_gridfile>  (1) 
gpcr_5ht2c_6bqh_protein_autoprepared_prepared

>  <s_lp_Force_Field>  (1) 
S-OPLS

>  <s_lp_Variant>  (1) 
DiffSBDD_21-2

>  <s_m_source_file>  (1) 
generated_GPCR_5HT2C_ligand_DiffSBDD_2026-06-23_prepared.sdf

>  <GenAI_Model>  (1) 
DiffSBDD

>  <Protein>  (1) 
GPCR_5HT2C

$$$$
DiffSBDD_18
     RDKit          3D

  0  0  0  0  0  0  0  0  0  0999 V3000
M  V30 BEGIN CTAB
M  V30 COUNTS 77 79 0 0 1
M  V30 BEGIN ATOM
M  V30 1 C 38.419928 25.758538 58.115110 0
M  V30 2 C 42.429836 31.763209 64.358991 0 CFG=2
M  V30 3 C 38.845550 31.456973 53.979674 0
M  V30 4 C 39.149852 30.105543 53.781559 0
M  V30 5 C 38.539378 31.039110 56.357156 0
M  V30 6 O 44.441042 28.464352 66.084046 0
M  V30 7 C 41.435148 27.627381 57.446393 0
M  V30 8 C 40.884216 28.872588 65.930473 0
M  V30 9 C 39.245192 29.089556 61.756012 0
M  V30 10 C 39.239877 28.403877 51.963935 0
M  V30 11 C 44.427438 29.661799 65.722348 0
M  V30 12 C 38.530858 31.923546 55.264179 0
M  V30 13 C 40.626899 28.176750 59.736325 0
M  V30 14 C 41.079693 29.786612 65.013947 0
M  V30 15 C 41.663842 28.827496 67.235555 0
M  V30 16 C 42.931277 27.885774 57.678481 0
M  V30 17 C 38.305115 26.834145 57.035051 0
M  V30 18 C 40.669583 29.364387 62.094249 0 CFG=2
M  V30 19 C 43.002815 31.881211 65.806497 0
M  V30 20 C 41.905654 33.140127 63.902363 0
M  V30 21 C 42.604009 30.010939 67.605941 0
M  V30 22 C 39.666423 28.043320 50.577223 0
M  V30 23 C 41.417206 30.653829 64.088228 0
M  V30 24 C 37.643173 29.149118 58.874958 0
M  V30 25 C 43.593805 30.651723 66.575272 0 CFG=1
M  V30 26 N 38.592779 27.484399 52.701828 0 CHG=1
M  V30 27 C 39.170977 29.204981 54.874559 0
M  V30 28 P 38.897905 28.527550 57.627859 0 CFG=2 CHG=1
M  V30 29 N 40.931895 30.610952 62.792083 0
M  V30 30 O 45.036602 30.132100 64.735592 0 CHG=-1
M  V30 31 C 40.242080 29.341680 60.639218 0 CFG=2
M  V30 32 C 38.866082 29.674489 56.176479 0
M  V30 33 N 40.544363 28.481428 58.280036 0 CFG=2 CHG=1
M  V30 34 N 39.486947 29.671739 52.416584 0
M  V30 35 H 37.824723 24.882434 57.853568 0
M  V30 36 H 39.446811 25.426649 58.261850 0
M  V30 37 H 38.045172 26.139382 59.057200 0
M  V30 38 H 43.245063 31.515870 63.690122 0
M  V30 39 H 38.843057 32.137697 53.142386 0
M  V30 40 H 38.298966 31.409965 57.342418 0
M  V30 41 H 41.225556 26.571478 57.611658 0
M  V30 42 H 41.225607 27.820396 56.394321 0
M  V30 43 H 40.186099 28.066276 65.763863 0
M  V30 44 H 38.896984 28.073531 61.931445 0
M  V30 45 H 38.521159 29.874453 61.965793 0
M  V30 46 H 38.282709 32.964747 55.414649 0
M  V30 47 H 41.640645 27.894502 60.015175 0
M  V30 48 H 40.008021 27.316351 59.967196 0
M  V30 49 H 40.939519 28.698400 68.039836 0
M  V30 50 H 42.239889 27.901902 67.219033 0
M  V30 51 H 43.527813 27.317585 56.967760 0
M  V30 52 H 43.197950 28.937682 57.572169 0
M  V30 53 H 43.257690 27.542916 58.655253 0
M  V30 54 H 37.257581 26.920180 56.745193 0
M  V30 55 H 38.840221 26.508295 56.144884 0
M  V30 56 H 41.278841 28.539412 62.464275 0
M  V30 57 H 43.793626 32.631109 65.767586 0
M  V30 58 H 42.236834 32.340644 66.430939 0
M  V30 59 H 41.668805 33.161601 62.838767 0
M  V30 60 H 41.006727 33.418259 64.453243 0
M  V30 61 H 42.646789 33.920893 64.074342 0
M  V30 62 H 43.204310 29.667006 68.450051 0
M  V30 63 H 41.988304 30.804289 68.029257 0
M  V30 64 H 38.844852 28.136163 49.874800 0
M  V30 65 H 40.445337 28.718759 50.234554 0
M  V30 66 H 40.044495 27.022064 50.539433 0
M  V30 67 H 36.632746 29.123648 58.465477 0
M  V30 68 H 37.645171 28.537782 59.769540 0
M  V30 69 H 37.837654 30.173712 59.189252 0
M  V30 70 H 44.356782 31.097423 67.214669 0
M  V30 71 H 38.400062 26.568923 52.312650 0
M  V30 72 H 39.444836 28.176525 54.735960 0
M  V30 73 H 41.269128 31.358838 62.204980 0
M  V30 74 H 40.214786 30.317216 60.158351 0
M  V30 75 H 39.752505 30.355948 51.719903 0
M  V30 76 H 38.252337 27.719406 53.619901 0
M  V30 77 H 40.907646 29.416864 58.173606 0
M  V30 END ATOM
M  V30 BEGIN BOND
M  V30 1 1 4 3
M  V30 2 2 11 6
M  V30 3 2 12 3
M  V30 4 1 12 5
M  V30 5 2 14 8
M  V30 6 1 15 8
M  V30 7 1 16 7
M  V30 8 1 17 1
M  V30 9 1 18 9
M  V30 10 1 19 2
M  V30 11 1 20 2
M  V30 12 1 21 15
M  V30 13 1 22 10
M  V30 14 1 23 2
M  V30 15 2 23 14
M  V30 16 1 25 11
M  V30 17 1 25 19
M  V30 18 1 25 21
M  V30 19 2 26 10
M  V30 20 2 27 4
M  V30 21 1 28 17 CFG=3
M  V30 22 1 28 24
M  V30 23 1 29 18
M  V30 24 1 29 23
M  V30 25 1 30 11
M  V30 26 1 31 9
M  V30 27 1 31 13
M  V30 28 1 31 18
M  V30 29 2 32 5
M  V30 30 1 32 27
M  V30 31 1 32 28
M  V30 32 1 33 7
M  V30 33 1 33 13
M  V30 34 1 33 28
M  V30 35 1 34 4
M  V30 36 1 34 10
M  V30 37 1 35 1
M  V30 38 1 36 1
M  V30 39 1 37 1
M  V30 40 1 2 38 CFG=3
M  V30 41 1 39 3
M  V30 42 1 40 5
M  V30 43 1 41 7
M  V30 44 1 42 7
M  V30 45 1 43 8
M  V30 46 1 44 9
M  V30 47 1 45 9
M  V30 48 1 46 12
M  V30 49 1 47 13
M  V30 50 1 48 13
M  V30 51 1 49 15
M  V30 52 1 50 15
M  V30 53 1 51 16
M  V30 54 1 52 16
M  V30 55 1 53 16
M  V30 56 1 54 17
M  V30 57 1 55 17
M  V30 58 1 18 56 CFG=3
M  V30 59 1 57 19
M  V30 60 1 58 19
M  V30 61 1 59 20
M  V30 62 1 60 20
M  V30 63 1 61 20
M  V30 64 1 62 21
M  V30 65 1 63 21
M  V30 66 1 64 22
M  V30 67 1 65 22
M  V30 68 1 66 22
M  V30 69 1 67 24
M  V30 70 1 68 24
M  V30 71 1 69 24
M  V30 72 1 25 70 CFG=1
M  V30 73 1 71 26
M  V30 74 1 72 27
M  V30 75 1 73 29
M  V30 76 1 31 74 CFG=3
M  V30 77 1 75 34
M  V30 78 1 76 26
M  V30 79 1 33 77 CFG=1
M  V30 END BOND
M  V30 END CTAB
M  END
>  <i_epik_Tot_Q>  (1) 
2

>  <i_epik_Tot_abs_Q>  (1) 
4

>  <i_i_glide_confnum>  (1) 
499

>  <i_i_glide_lignum>  (1) 
43

>  <i_i_glide_posenum>  (1) 
155

>  <i_i_glide_rotatable_bonds>  (1) 
11

>  <i_lp_mmshare_version>  (1) 
72125

>  <i_m_source_file_index>  (1) 
19

>  <i_f3d_flags>  (1) 
0

>  <num_sample>  (1) 
100

>  <b_lp_Chiralities_Consistent>  (1) 
1

>  <r_epik_Charging_Adjusted_Penalty>  (1) 
0.035732071636325656

>  <r_epik_Ionization_Penalty>  (1) 
0.019213783482484162

>  <r_epik_Ionization_Penalty_Charging>  (1) 
0.019186760244236628

>  <r_epik_Ionization_Penalty_Neutral>  (1) 
2.7023238247534635e-05

>  <r_epik_State_Penalty>  (1) 
0.016545311392089028

>  <r_glide_ring_energy>  (1) 
0

>  <r_i_docking_score>  (1) 
-5.4610210290753223

>  <r_i_glide_ecoul>  (1) 
-0.7865702156572123

>  <r_i_glide_eff_state_penalty>  (1) 
0.016545311392089028

>  <r_i_glide_einternal>  (1) 
8.6300980663337796

>  <r_i_glide_emodel>  (1) 
-55.661423659100365

>  <r_i_glide_emodel_strain>  (1) 
0.27209967052547768

>  <r_i_glide_energy>  (1) 
-41.562215439231117

>  <r_i_glide_erotb>  (1) 
0.68654883804919686

>  <r_i_glide_esite>  (1) 
-0.013192325016169001

>  <r_i_glide_evdw>  (1) 
-40.775645223573903

>  <r_i_glide_gscore>  (1) 
-5.4775663404674111

>  <r_i_glide_gscore_strain>  (1) 
0

>  <r_i_glide_hbond>  (1) 
0

>  <r_i_glide_ligand_efficiency>  (1) 
-0.16061826556103889

>  <r_i_glide_ligand_efficiency_ln>  (1) 
-1.2064927217741721

>  <r_i_glide_ligand_efficiency_sa>  (1) 
-0.52034082861226238

>  <r_i_glide_lipo>  (1) 
-2.9821138798699875

>  <r_i_glide_metal>  (1) 
-0

>  <r_i_glide_rewards>  (1) 
-1.0120411801031741

>  <r_lp_Energy>  (1) 
34.203074999999998

>  <s_epik_Chemistry_Notes>  (1) 
This compound has an imine and may undergo hydrolysis.

>  <s_epik_cmdline>  (1) 
J2VwaWtfcHl0aG9uJywgJy1waHQnLCAnMS4wJywgJy1waCcsICc3LjQnLCAnLXRuJywgJzgnLCAnLW1hJywgJzUwMCcsICctaW1hZScsICc8aW5maWxlLm1hZT4nLCAnLW9tYWUnLCAnPG91dGZpbGUubWFlPic=

>  <s_epik_input>  (1) 
W0hdL049QyhcW0NIM10pW05IXWMxW2NIXVtjSF1bY0hdYyhbY0hdMSlbUEBAK10oW0NIM10pKFtDSDJdW0NIM10pTihbQ0gyXVtDSDNdKVtDSDJdW0NASF0yW0NIMl1bQ0BASF0yW05IXUMzPUM9W0NIXVtDSDJdW0NIMl1bQ0BASF0oQyg9TylbT0hdKVtDSDJdW0NAQEhdM1tDSDNd

>  <s_glide_docking_method>  (1) 
confgen

>  <s_i_glide_gridfile>  (1) 
gpcr_5ht2c_6bqh_protein_autoprepared_prepared

>  <s_lp_Force_Field>  (1) 
S-OPLS

>  <s_lp_Variant>  (1) 
DiffSBDD_18-2

>  <s_m_source_file>  (1) 
generated_GPCR_5HT2C_ligand_DiffSBDD_2026-06-23_prepared.sdf

>  <GenAI_Model>  (1) 
DiffSBDD

>  <Protein>  (1) 
GPCR_5HT2C

$$$$
DiffSBDD_81
     RDKit          3D

  0  0  0  0  0  0  0  0  0  0999 V3000
M  V30 BEGIN CTAB
M  V30 COUNTS 67 68 0 0 1
M  V30 BEGIN ATOM
M  V30 1 C 40.045026 29.645686 49.541389 0
M  V30 2 C 39.027163 32.061685 55.776229 0
M  V30 3 C 39.081525 34.690097 61.015712 0 CFG=2
M  V30 4 C 39.116163 27.401329 53.764806 0
M  V30 5 C 36.703428 35.096233 60.920187 0
M  V30 6 C 39.003794 27.404361 52.243049 0
M  V30 7 C 38.021983 35.758411 61.297504 0
M  V30 8 C 38.261677 33.143554 56.544045 0
M  V30 9 C 38.277607 30.717535 55.703817 0
M  V30 10 C 38.248517 28.424924 54.502002 0
M  V30 11 C 37.248707 33.905277 58.749602 0
M  V30 12 C 40.105510 26.471226 55.919854 0
M  V30 13 C 36.038093 32.673378 60.685338 0
M  V30 14 C 38.988870 29.749368 54.756566 0
M  V30 15 O 38.334238 33.481579 60.920171 0
M  V30 16 O 39.383081 28.537766 50.154372 0
M  V30 17 C 39.932942 26.538575 54.411209 0
M  V30 18 C 41.086223 35.802924 62.168709 0
M  V30 19 C 40.177529 34.566873 62.085921 0
M  V30 20 C 37.083123 33.746617 60.285891 0 CFG=2
M  V30 21 C 36.324062 31.232496 60.243818 0
M  V30 22 C 40.746089 29.288436 51.767758 0
M  V30 23 C 38.238561 32.941545 58.065594 0
M  V30 24 C 39.345480 28.735644 51.546450 0 CFG=2
M  V30 25 C 41.007151 30.186327 50.582238 0
M  V30 26 H 40.547300 29.337756 48.625354 0
M  V30 27 H 39.332314 30.432762 49.301786 0
M  V30 28 H 40.021827 31.926585 56.200844 0
M  V30 29 H 39.182650 32.427109 54.760731 0
M  V30 30 H 39.547252 34.882789 60.049770 0
M  V30 31 H 36.100627 35.713441 60.252184 0
M  V30 32 H 36.119426 34.945649 61.829482 0
M  V30 33 H 39.644892 26.620780 51.837460 0
M  V30 34 H 37.986238 27.117517 51.979603 0
M  V30 35 H 38.007043 36.048304 62.348817 0
M  V30 36 H 38.209069 36.657482 60.709849 0
M  V30 37 H 38.678270 34.119775 56.305717 0
M  V30 38 H 37.245139 33.173120 56.167784 0
M  V30 39 H 37.258644 30.887635 55.352201 0
M  V30 40 H 38.192017 30.270948 56.694426 0
M  V30 41 H 37.342535 28.611443 53.923801 0
M  V30 42 H 37.890345 28.006808 55.441689 0
M  V30 43 H 37.571359 34.920163 58.522636 0
M  V30 44 H 36.268693 33.813327 58.279548 0
M  V30 45 H 41.164714 26.536618 56.168364 0
M  V30 46 H 39.607054 27.267571 56.467569 0
M  V30 47 H 39.734665 25.515584 56.290067 0
M  V30 48 H 35.945259 32.668640 61.767760 0
M  V30 49 H 35.056428 32.966064 60.309674 0
M  V30 50 H 39.990326 29.547297 55.138956 0
M  V30 51 H 39.105914 30.275055 53.814315 0
M  V30 52 H 40.517137 25.834914 53.836127 0
M  V30 53 H 41.861369 35.667533 62.923802 0
M  V30 54 H 41.580568 35.993576 61.215565 0
M  V30 55 H 40.522881 36.696906 62.437359 0
M  V30 56 H 39.723350 34.375038 63.058202 0
M  V30 57 H 40.792549 33.695062 61.860868 0
M  V30 58 H 35.645504 30.538365 60.736659 0
M  V30 59 H 36.169126 31.107984 59.172339 0
M  V30 60 H 37.342543 30.932060 60.490302 0
M  V30 61 H 40.844944 29.838763 52.695089 0
M  V30 62 H 41.463228 28.472135 51.767659 0
M  V30 63 H 37.974513 31.911907 58.282580 0
M  V30 64 H 39.243012 33.082792 58.463765 0
M  V30 65 H 38.588429 29.483433 51.764906 0
M  V30 66 H 42.045126 30.148786 50.257015 0
M  V30 67 H 40.766260 31.223344 50.819678 0
M  V30 END ATOM
M  V30 BEGIN BOND
M  V30 1 1 6 4
M  V30 2 1 7 3
M  V30 3 1 7 5
M  V30 4 1 8 2
M  V30 5 1 9 2
M  V30 6 1 10 4
M  V30 7 1 14 9
M  V30 8 1 14 10
M  V30 9 1 15 3
M  V30 10 1 16 1
M  V30 11 2 17 4
M  V30 12 1 17 12
M  V30 13 1 19 3
M  V30 14 1 19 18
M  V30 15 1 20 5
M  V30 16 1 20 11 CFG=3
M  V30 17 1 20 13
M  V30 18 1 20 15
M  V30 19 1 21 13
M  V30 20 1 23 8
M  V30 21 1 23 11
M  V30 22 1 24 6
M  V30 23 1 24 16
M  V30 24 1 24 22
M  V30 25 1 25 1
M  V30 26 1 25 22
M  V30 27 1 26 1
M  V30 28 1 27 1
M  V30 29 1 28 2
M  V30 30 1 29 2
M  V30 31 1 3 30 CFG=3
M  V30 32 1 31 5
M  V30 33 1 32 5
M  V30 34 1 33 6
M  V30 35 1 34 6
M  V30 36 1 35 7
M  V30 37 1 36 7
M  V30 38 1 37 8
M  V30 39 1 38 8
M  V30 40 1 39 9
M  V30 41 1 40 9
M  V30 42 1 41 10
M  V30 43 1 42 10
M  V30 44 1 43 11
M  V30 45 1 44 11
M  V30 46 1 45 12
M  V30 47 1 46 12
M  V30 48 1 47 12
M  V30 49 1 48 13
M  V30 50 1 49 13
M  V30 51 1 50 14
M  V30 52 1 51 14
M  V30 53 1 52 17
M  V30 54 1 53 18
M  V30 55 1 54 18
M  V30 56 1 55 18
M  V30 57 1 56 19
M  V30 58 1 57 19
M  V30 59 1 58 21
M  V30 60 1 59 21
M  V30 61 1 60 21
M  V30 62 1 61 22
M  V30 63 1 62 22
M  V30 64 1 63 23
M  V30 65 1 64 23
M  V30 66 1 24 65 CFG=3
M  V30 67 1 66 25
M  V30 68 1 67 25
M  V30 END BOND
M  V30 END CTAB
M  END
>  <i_epik_Tot_Q>  (1) 
0

>  <i_epik_Tot_abs_Q>  (1) 
0

>  <i_i_glide_confnum>  (1) 
2238

>  <i_i_glide_lignum>  (1) 
187

>  <i_i_glide_posenum>  (1) 
145

>  <i_i_glide_rotatable_bonds>  (1) 
12

>  <i_lp_mmshare_version>  (1) 
72125

>  <i_m_source_file_index>  (1) 
82

>  <i_f3d_flags>  (1) 
0

>  <num_sample>  (1) 
100

>  <b_lp_Chiralities_Consistent>  (1) 
1

>  <r_epik_Charging_Adjusted_Penalty>  (1) 
0

>  <r_epik_Ionization_Penalty>  (1) 
4.3050601408714213e-11

>  <r_epik_Ionization_Penalty_Charging>  (1) 
0

>  <r_epik_Ionization_Penalty_Neutral>  (1) 
4.3050601408714213e-11

>  <r_epik_State_Penalty>  (1) 
-0

>  <r_glide_ring_energy>  (1) 
0

>  <r_i_docking_score>  (1) 
-5.4443389592766236

>  <r_i_glide_ecoul>  (1) 
-0.060612670864434115

>  <r_i_glide_eff_state_penalty>  (1) 
-0

>  <r_i_glide_einternal>  (1) 
3.5379852494473782

>  <r_i_glide_emodel>  (1) 
-44.345740021908021

>  <r_i_glide_emodel_strain>  (1) 
0

>  <r_i_glide_energy>  (1) 
-34.625665437210642

>  <r_i_glide_erotb>  (1) 
1.3958139752623098

>  <r_i_glide_esite>  (1) 
0

>  <r_i_glide_evdw>  (1) 
-34.565052766346206

>  <r_i_glide_gscore>  (1) 
-5.4443389592766236

>  <r_i_glide_gscore_strain>  (1) 
0

>  <r_i_glide_hbond>  (1) 
0

>  <r_i_glide_ligand_efficiency>  (1) 
-0.21777355837106493

>  <r_i_glide_ligand_efficiency_ln>  (1) 
-1.290471487021476

>  <r_i_glide_ligand_efficiency_sa>  (1) 
-0.63677374759072891

>  <r_i_glide_lipo>  (1) 
-3.389301541791609

>  <r_i_glide_metal>  (1) 
-0

>  <r_i_glide_rewards>  (1) 
-1.7135068538003484

>  <r_lp_Energy>  (1) 
1.9057109999999999

>  <r_lp_tautomer_probability>  (1) 
1

>  <s_epik_cmdline>  (1) 
J2VwaWtfcHl0aG9uJywgJy1waHQnLCAnMS4wJywgJy1waCcsICc3LjQnLCAnLXRuJywgJzgnLCAnLW1hJywgJzUwMCcsICctaW1hZScsICc8aW5maWxlLm1hZT4nLCAnLW9tYWUnLCAnPG91dGZpbGUubWFlPic=

>  <s_epik_input>  (1) 
W0NIMl0xW0NIMl1bQ0gyXU9bQ0BIXTFbQ0gyXS9DKD1bQ0hdL1tDSDNdKVtDSDJdW0NIMl1bQ0gyXVtDSDJdW0NIMl1bQ0gyXVtDSDJdW0NAXTIoW0NIMl1bQ0gzXSlbQ0gyXVtDSDJdW0NASF0oTzIpW0NIMl1bQ0gzXQ==

>  <s_glide_docking_method>  (1) 
confgen

>  <s_i_glide_gridfile>  (1) 
gpcr_5ht2c_6bqh_protein_autoprepared_prepared

>  <s_lp_Force_Field>  (1) 
S-OPLS

>  <s_lp_Variant>  (1) 
DiffSBDD_81-1

>  <s_m_source_file>  (1) 
generated_GPCR_5HT2C_ligand_DiffSBDD_2026-06-23_prepared.sdf

>  <GenAI_Model>  (1) 
DiffSBDD

>  <Protein>  (1) 
GPCR_5HT2C

$$$$
DiffSBDD_83
     RDKit          3D

  0  0  0  0  0  0  0  0  0  0999 V3000
M  V30 BEGIN CTAB
M  V30 COUNTS 54 55 0 0 1
M  V30 BEGIN ATOM
M  V30 1 C 39.640005 28.646311 50.955744 0
M  V30 2 C 38.203219 32.498040 57.918627 0
M  V30 3 N 38.045137 33.568370 57.140225 0
M  V30 4 O 40.045154 32.090857 63.405238 0
M  V30 5 O 40.162715 29.437428 49.983461 0
M  V30 6 C 38.847515 28.802060 53.327413 0
M  V30 7 C 38.411702 27.339664 53.360379 0
M  V30 8 C 39.874379 30.288469 62.117616 0
M  V30 9 C 38.273684 36.930995 63.127579 0
M  V30 10 C 39.404190 29.394052 52.232194 0
M  V30 11 C 37.996343 32.625010 59.399294 0
M  V30 12 C 38.944226 31.074499 54.602615 0
M  V30 13 N 38.310058 33.104214 55.912048 0
M  V30 14 O 39.645140 30.802334 49.923776 0
M  V30 15 C 39.169456 33.449981 61.563725 0 CFG=1
M  V30 16 C 40.762170 35.507479 61.671584 0
M  V30 17 C 39.843104 30.775140 63.309900 0
M  V30 18 O 39.410172 27.451103 50.793665 0
M  V30 19 C 40.232268 32.399042 61.995705 0 CFG=2
M  V30 20 C 38.570891 31.332845 57.166498 0
M  V30 21 O 40.104865 31.202189 61.173933 0
M  V30 22 C 38.282400 35.802008 62.085592 0
M  V30 23 C 39.482839 34.832065 62.219174 0 CFG=1
M  V30 24 C 38.622573 31.778962 55.878661 0
M  V30 25 Cl 39.645135 28.614902 61.767771 0
M  V30 26 C 38.613701 29.568864 54.626775 0
M  V30 27 C 39.079345 33.521488 60.023837 0
M  V30 28 H 38.250462 33.702275 55.101531 0
M  V30 29 H 37.968191 27.090656 54.324431 0
M  V30 30 H 37.654524 27.134952 52.602049 0
M  V30 31 H 39.260446 26.669775 53.216910 0
M  V30 32 H 37.379708 37.544953 63.016588 0
M  V30 33 H 38.275477 36.537755 64.144325 0
M  V30 34 H 39.140124 37.583643 63.022062 0
M  V30 35 H 39.691932 30.431770 52.267304 0
M  V30 36 H 37.006435 33.032558 59.607607 0
M  V30 37 H 38.013358 31.632836 59.849004 0
M  V30 38 H 40.004530 31.217466 54.388858 0
M  V30 39 H 38.393624 31.555240 53.792390 0
M  V30 40 H 38.884924 30.669795 49.367770 0
M  V30 41 H 38.211140 33.097389 61.948504 0
M  V30 42 H 40.687594 35.730559 60.607397 0
M  V30 43 H 40.964357 36.448191 62.183005 0
M  V30 44 H 41.645128 34.890910 61.818823 0
M  V30 45 H 39.677353 30.264622 64.248145 0
M  V30 46 H 41.251621 32.755933 61.854389 0
M  V30 47 H 38.763225 30.332580 57.523207 0
M  V30 48 H 38.264893 36.243571 61.088472 0
M  V30 49 H 37.344246 35.253914 62.167751 0
M  V30 50 H 39.642216 34.653237 63.283667 0
M  V30 51 H 37.563585 29.447962 54.897448 0
M  V30 52 H 39.194331 29.080851 55.410093 0
M  V30 53 H 40.045137 33.295511 59.586009 0
M  V30 54 H 38.858725 34.537754 59.710590 0
M  V30 END ATOM
M  V30 BEGIN BOND
M  V30 1 2 3 2
M  V30 2 1 5 1
M  V30 3 1 7 6
M  V30 4 1 10 1
M  V30 5 2 10 6
M  V30 6 1 11 2
M  V30 7 1 13 3
M  V30 8 1 14 5
M  V30 9 1 17 4
M  V30 10 2 17 8
M  V30 11 2 18 1
M  V30 12 1 19 4
M  V30 13 1 19 15
M  V30 14 1 20 2
M  V30 15 1 21 8
M  V30 16 1 21 19
M  V30 17 1 22 9
M  V30 18 1 23 15
M  V30 19 1 23 16
M  V30 20 1 23 22
M  V30 21 1 24 12
M  V30 22 1 24 13
M  V30 23 2 24 20
M  V30 24 1 25 8
M  V30 25 1 26 6
M  V30 26 1 26 12
M  V30 27 1 27 11
M  V30 28 1 27 15
M  V30 29 1 28 13
M  V30 30 1 29 7
M  V30 31 1 30 7
M  V30 32 1 31 7
M  V30 33 1 32 9
M  V30 34 1 33 9
M  V30 35 1 34 9
M  V30 36 1 35 10
M  V30 37 1 36 11
M  V30 38 1 37 11
M  V30 39 1 38 12
M  V30 40 1 39 12
M  V30 41 1 40 14
M  V30 42 1 15 41 CFG=1
M  V30 43 1 42 16
M  V30 44 1 43 16
M  V30 45 1 44 16
M  V30 46 1 45 17
M  V30 47 1 19 46 CFG=1
M  V30 48 1 47 20
M  V30 49 1 48 22
M  V30 50 1 49 22
M  V30 51 1 23 50 CFG=1
M  V30 52 1 51 26
M  V30 53 1 52 26
M  V30 54 1 53 27
M  V30 55 1 54 27
M  V30 END BOND
M  V30 END CTAB
M  END
>  <i_epik_Tot_Q>  (1) 
0

>  <i_epik_Tot_abs_Q>  (1) 
0

>  <i_i_glide_confnum>  (1) 
716

>  <i_i_glide_lignum>  (1) 
197

>  <i_i_glide_posenum>  (1) 
180

>  <i_i_glide_rotatable_bonds>  (1) 
12

>  <i_lp_mmshare_version>  (1) 
72125

>  <i_m_source_file_index>  (1) 
84

>  <i_f3d_flags>  (1) 
0

>  <num_sample>  (1) 
100

>  <b_lp_Chiralities_Consistent>  (1) 
1

>  <r_epik_Charging_Adjusted_Penalty>  (1) 
0.41067983895260396

>  <r_epik_Ionization_Penalty>  (1) 
0.00090540554532319911

>  <r_epik_Ionization_Penalty_Charging>  (1) 
0

>  <r_epik_Ionization_Penalty_Neutral>  (1) 
0.00090540554532319911

>  <r_epik_State_Penalty>  (1) 
0.41067983895260396

>  <r_glide_ring_energy>  (1) 
0

>  <r_i_docking_score>  (1) 
-5.4406002106062195

>  <r_i_glide_ecoul>  (1) 
-1.4857039459017016

>  <r_i_glide_eff_state_penalty>  (1) 
0.41067983895260396

>  <r_i_glide_einternal>  (1) 
15.761249910440595

>  <r_i_glide_emodel>  (1) 
-50.891820484446299

>  <r_i_glide_emodel_strain>  (1) 
0

>  <r_i_glide_energy>  (1) 
-44.400829644497861

>  <r_i_glide_erotb>  (1) 
1.1080255732668134

>  <r_i_glide_esite>  (1) 
-0.020701912932801242

>  <r_i_glide_evdw>  (1) 
-42.915125698596157

>  <r_i_glide_gscore>  (1) 
-5.8512800495588237

>  <r_i_glide_gscore_strain>  (1) 
0

>  <r_i_glide_hbond>  (1) 
-0.32000000000000001

>  <r_i_glide_ligand_efficiency>  (1) 
-0.20150371150393406

>  <r_i_glide_ligand_efficiency_ln>  (1) 
-1.2664820337245872

>  <r_i_glide_ligand_efficiency_sa>  (1) 
-0.60451113451180227

>  <r_i_glide_lipo>  (1) 
-2.5928102551235641

>  <r_i_glide_metal>  (1) 
-0

>  <r_i_glide_rewards>  (1) 
-1.6571815779542085

>  <r_lp_Energy>  (1) 
14.495433999999999

>  <r_lp_tautomer_probability>  (1) 
0.5

>  <s_epik_Chemistry_Notes>  (1) 
This compound contains an acetal/aminal-like group ( X-CH(R)-Y where X, Y are N, S, or O) that may be acid/base labile, releasing an aldehyde.

>  <s_epik_cmdline>  (1) 
J2VwaWtfcHl0aG9uJywgJy1waHQnLCAnMS4wJywgJy1waCcsICc3LjQnLCAnLXRuJywgJzgnLCAnLW1hJywgJzUwMCcsICctaW1hZScsICc8aW5maWxlLm1hZT4nLCAnLW9tYWUnLCAnPG91dGZpbGUubWFlPic=

>  <s_epik_input>  (1) 
W09IXU9DKD1PKS9bQ0hdPUMoXFtDSDNdKVtDSDJdW0NIMl1jKFtjSF0xKW5bbkhdYzFbQ0gyXVtDSDJdW0NASF0oW0NAQEhdKFtDSDNdKVtDSDJdW0NIM10pW0NAQEhdKE8yKU9bQ0hdPUMyQ2w=

>  <s_glide_docking_method>  (1) 
confgen

>  <s_i_glide_gridfile>  (1) 
gpcr_5ht2c_6bqh_protein_autoprepared_prepared

>  <s_lp_Force_Field>  (1) 
S-OPLS

>  <s_lp_Variant>  (1) 
DiffSBDD_83-8

>  <s_m_source_file>  (1) 
generated_GPCR_5HT2C_ligand_DiffSBDD_2026-06-23_prepared.sdf

>  <GenAI_Model>  (1) 
DiffSBDD

>  <Protein>  (1) 
GPCR_5HT2C

$$$$
DiffSBDD_57
     RDKit          3D

  0  0  0  0  0  0  0  0  0  0999 V3000
M  V30 BEGIN CTAB
M  V30 COUNTS 64 66 0 0 1
M  V30 BEGIN ATOM
M  V30 1 O 38.612433 28.471699 56.270703 0
M  V30 2 C 37.664629 29.506274 59.327781 0
M  V30 3 C 39.481452 29.670803 52.117900 0
M  V30 4 C 38.357301 31.335391 57.777867 0 CFG=2
M  V30 5 C 39.849631 32.917461 62.044471 0
M  V30 6 S 39.012660 30.375312 60.163208 0
M  V30 7 O 40.445116 33.146902 61.004030 0
M  V30 8 C 37.190493 30.390673 58.172442 0
M  V30 9 N 40.211559 36.863168 63.108892 0
M  V30 10 C 38.665644 27.729206 53.647696 0 CFG=2
M  V30 11 N 38.502105 32.937903 62.167754 0
M  V30 12 C 39.124132 29.548060 55.964053 0
M  V30 13 O 39.276450 26.694829 52.856071 0
M  V30 14 C 39.507746 30.535551 57.078562 0
M  V30 15 C 37.678628 32.782370 59.809003 0
M  V30 16 C 41.664869 35.057347 63.910961 0 CFG=2
M  V30 17 O 38.889610 25.813708 54.998731 0
M  V30 18 C 37.579230 33.189092 61.112242 0
M  V30 19 C 40.303562 35.745997 64.040897 0 CFG=1
M  V30 20 C 38.781553 31.904750 59.177493 0 CFG=2
M  V30 21 C 38.007351 32.463560 56.774653 0
M  V30 22 C 41.807619 33.582078 63.527358 0 CFG=2
M  V30 23 C 39.189737 29.142544 53.475143 0
M  V30 24 C 40.637364 32.628563 63.324766 0 CFG=2
M  V30 25 C 42.153380 34.037118 64.919024 0
M  V30 26 N 39.627006 26.813851 54.271644 0
M  V30 27 N 40.045137 30.923654 51.960270 0
M  V30 28 C 40.056179 36.272300 65.474401 0
M  V30 29 O 38.815920 36.937756 65.588033 0
M  V30 30 O 40.328758 36.328151 61.767753 0
M  V30 31 C 39.198254 28.937665 51.022156 0
M  V30 32 C 39.404899 29.965412 54.554298 0
M  V30 33 Cl 41.245481 30.953918 63.269630 0
M  V30 34 H 36.844500 29.337851 60.021873 0
M  V30 35 H 38.028769 28.540739 58.975247 0
M  V30 36 H 36.348743 30.955053 58.567760 0
M  V30 37 H 36.772766 29.813814 57.348695 0
M  V30 38 H 40.984035 37.515693 63.189067 0
M  V30 39 H 37.595625 27.626107 53.823568 0
M  V30 40 H 38.112937 32.872361 63.095821 0
M  V30 41 H 40.094697 29.968238 57.797400 0
M  V30 42 H 40.179087 31.257738 56.623815 0
M  V30 43 H 36.889249 33.080923 59.139547 0
M  V30 44 H 42.448482 35.732969 63.575460 0
M  V30 45 H 38.577482 26.324917 55.733641 0
M  V30 46 H 36.725272 33.757806 61.451699 0
M  V30 47 H 39.524887 35.045711 63.767736 0
M  V30 48 H 39.645133 32.537757 59.000430 0
M  V30 49 H 37.245135 33.151129 57.121603 0
M  V30 50 H 38.879979 33.079067 56.554774 0
M  V30 51 H 37.645228 32.062428 55.828190 0
M  V30 52 H 42.651994 33.337785 62.886232 0
M  V30 53 H 39.977765 32.687944 64.188880 0
M  V30 54 H 41.487225 33.730857 65.722031 0
M  V30 55 H 43.207406 34.073462 65.186638 0
M  V30 56 H 40.279578 31.509336 52.748661 0
M  V30 57 H 40.045014 35.445200 66.183230 0
M  V30 58 H 40.845137 36.937699 65.809660 0
M  V30 59 H 38.162502 36.445299 65.116087 0
M  V30 60 H 41.118065 35.808084 61.813271 0
M  V30 61 H 39.412256 29.318982 50.034524 0
M  V30 62 H 38.751677 27.961826 51.088223 0
M  V30 63 H 39.788759 30.962419 54.406342 0
M  V30 64 H 40.256482 31.302186 51.047072 0
M  V30 END ATOM
M  V30 BEGIN BOND
M  V30 1 1 6 2
M  V30 2 2 7 5
M  V30 3 1 8 2
M  V30 4 1 8 4
M  V30 5 1 11 5
M  V30 6 2 12 1
M  V30 7 1 13 10
M  V30 8 1 4 14 CFG=3
M  V30 9 1 14 12
M  V30 10 1 18 11
M  V30 11 2 18 15
M  V30 12 1 19 9
M  V30 13 1 19 16
M  V30 14 1 20 4
M  V30 15 1 20 6
M  V30 16 1 20 15
M  V30 17 1 21 4
M  V30 18 1 22 16
M  V30 19 1 23 3
M  V30 20 1 23 10
M  V30 21 1 24 5
M  V30 22 1 24 22
M  V30 23 1 25 16
M  V30 24 1 25 22
M  V30 25 1 26 10
M  V30 26 1 26 13
M  V30 27 1 26 17
M  V30 28 1 27 3
M  V30 29 1 28 19
M  V30 30 1 29 28
M  V30 31 1 30 9
M  V30 32 2 31 3
M  V30 33 1 32 12
M  V30 34 2 32 23
M  V30 35 1 33 24
M  V30 36 1 34 2
M  V30 37 1 35 2
M  V30 38 1 36 8
M  V30 39 1 37 8
M  V30 40 1 38 9
M  V30 41 1 10 39 CFG=1
M  V30 42 1 40 11
M  V30 43 1 41 14
M  V30 44 1 42 14
M  V30 45 1 43 15
M  V30 46 1 16 44 CFG=3
M  V30 47 1 45 17
M  V30 48 1 46 18
M  V30 49 1 19 47 CFG=3
M  V30 50 1 20 48 CFG=3
M  V30 51 1 49 21
M  V30 52 1 50 21
M  V30 53 1 51 21
M  V30 54 1 22 52 CFG=3
M  V30 55 1 24 53 CFG=1
M  V30 56 1 54 25
M  V30 57 1 55 25
M  V30 58 1 56 27
M  V30 59 1 57 28
M  V30 60 1 58 28
M  V30 61 1 59 29
M  V30 62 1 60 30
M  V30 63 1 61 31
M  V30 64 1 62 31
M  V30 65 1 63 32
M  V30 66 1 64 27
M  V30 END BOND
M  V30 END CTAB
M  END
>  <i_epik_Tot_Q>  (1) 
0

>  <i_epik_Tot_abs_Q>  (1) 
0

>  <i_i_glide_confnum>  (1) 
1163

>  <i_i_glide_lignum>  (1) 
125

>  <i_i_glide_posenum>  (1) 
10

>  <i_i_glide_rotatable_bonds>  (1) 
16

>  <i_lp_mmshare_version>  (1) 
72125

>  <i_m_source_file_index>  (1) 
58

>  <i_f3d_flags>  (1) 
0

>  <num_sample>  (1) 
100

>  <b_lp_Chiralities_Consistent>  (1) 
1

>  <r_epik_Charging_Adjusted_Penalty>  (1) 
0.024416195549470061

>  <r_epik_Ionization_Penalty>  (1) 
0.014246986074461085

>  <r_epik_Ionization_Penalty_Charging>  (1) 
6.6592516266621022e-05

>  <r_epik_Ionization_Penalty_Neutral>  (1) 
0.014180393558194464

>  <r_epik_State_Penalty>  (1) 
0.024349603033203441

>  <r_glide_ring_energy>  (1) 
0.20506540225093017

>  <r_i_docking_score>  (1) 
-5.4397894987890911

>  <r_i_glide_ecoul>  (1) 
-4.5693886229155929

>  <r_i_glide_eff_state_penalty>  (1) 
0.024349603033203441

>  <r_i_glide_einternal>  (1) 
44.789127720534204

>  <r_i_glide_emodel>  (1) 
-37.405707056143967

>  <r_i_glide_emodel_strain>  (1) 
0.83412349057887525

>  <r_i_glide_energy>  (1) 
-44.581582444855357

>  <r_i_glide_erotb>  (1) 
1.0500022235395752

>  <r_i_glide_esite>  (1) 
0

>  <r_i_glide_evdw>  (1) 
-40.012193821939768

>  <r_i_glide_gscore>  (1) 
-5.4641391018222949

>  <r_i_glide_gscore_strain>  (1) 
0

>  <r_i_glide_hbond>  (1) 
-0.21560704581780457

>  <r_i_glide_ligand_efficiency>  (1) 
-0.16484210602391186

>  <r_i_glide_ligand_efficiency_ln>  (1) 
-1.2097810188080662

>  <r_i_glide_ligand_efficiency_sa>  (1) 
-0.52873671410050915

>  <r_i_glide_lipo>  (1) 
-2.1119244026787367

>  <r_i_glide_metal>  (1) 
-0

>  <r_i_glide_rewards>  (1) 
-1.5005918923310011

>  <r_lp_Energy>  (1) 
21.778162999999999

>  <s_epik_Chemistry_Notes>  (1) 
This compound has an imine and may undergo hydrolysis. This compound contains an acetal/aminal-like group ( X-CH(R)-Y where X, Y are N, S, or O) that may be acid/base labile, releasing an aldehyde. This compound has a N-S or N-O group and may undergo hydrolysis at high or low pH.

>  <s_epik_cmdline>  (1) 
J2VwaWtfcHl0aG9uJywgJy1waHQnLCAnMS4wJywgJy1waCcsICc3LjQnLCAnLXRuJywgJzgnLCAnLW1hJywgJzUwMCcsICctaW1hZScsICc8aW5maWxlLm1hZT4nLCAnLW9tYWUnLCAnPG91dGZpbGUubWFlPic=

>  <s_epik_input>  (1) 
W09IXU4xT1tDQEBIXTFDKC9DKD1OL1tIXSlbQ0gzXSk9W0NIXVxDKD1PKVtDSDJdW0NAQF0yKFtDSDNdKVtDSDJdW0NIMl1TW0NAQEhdMi9bQ0hdPVtDSF1cW05IXUMoPU8pW0NAQEhdKENsKVtDQEhdKFtDSDJdMylbQ0BIXTNbQ0BIXShbTkhdW09IXSlbQ0gyXVtPSF0=

>  <s_glide_docking_method>  (1) 
confgen

>  <s_i_glide_gridfile>  (1) 
gpcr_5ht2c_6bqh_protein_autoprepared_prepared

>  <s_lp_Force_Field>  (1) 
S-OPLS

>  <s_lp_Variant>  (1) 
DiffSBDD_57-1

>  <s_m_source_file>  (1) 
generated_GPCR_5HT2C_ligand_DiffSBDD_2026-06-23_prepared.sdf

>  <GenAI_Model>  (1) 
DiffSBDD

>  <Protein>  (1) 
GPCR_5HT2C

$$$$
DiffSBDD_15
     RDKit          3D

  0  0  0  0  0  0  0  0  0  0999 V3000
M  V30 BEGIN CTAB
M  V30 COUNTS 75 76 0 0 1
M  V30 BEGIN ATOM
M  V30 1 C 36.432260 32.027184 60.056726 0
M  V30 2 C 40.059910 34.886131 61.180797 0
M  V30 3 N 38.407078 31.796428 54.275458 0
M  V30 4 C 40.260118 33.740442 62.212364 0 CFG=2
M  V30 5 C 36.913378 38.157778 61.631397 0
M  V30 6 C 37.994889 28.825159 54.963338 0
M  V30 7 O 39.283977 32.236066 56.322767 0
M  V30 8 C 39.381198 30.771633 53.899373 0
M  V30 9 C 38.551849 30.581173 62.235612 0
M  V30 10 C 38.727693 36.645317 62.541931 0
M  V30 11 C 38.444759 32.445246 55.452459 0
M  V30 12 O 35.044814 37.275324 66.167829 0
M  V30 13 C 41.204810 34.145929 63.354825 0
M  V30 14 C 37.473175 34.857327 61.132629 0
M  V30 15 C 38.732212 29.381799 53.726919 0
M  V30 16 C 40.724276 32.427082 61.535270 0
M  V30 17 C 38.758283 35.716371 61.302950 0 CFG=2
M  V30 18 C 38.874266 28.783999 56.218110 0
M  V30 19 C 35.646141 38.751485 61.738232 0
M  V30 20 C 39.228648 30.641259 60.855628 0 CFG=2
M  V30 21 C 37.383758 37.337484 62.668531 0
M  V30 22 C 39.132757 29.511996 58.555038 0
M  V30 23 C 36.031379 33.439104 59.592706 0
M  V30 24 C 36.591151 37.146235 63.814113 0
M  V30 25 C 35.314166 37.743746 63.896060 0
M  V30 26 C 37.172755 34.468556 59.682094 0
M  V30 27 O 39.976467 28.238627 56.191003 0
M  V30 28 O 39.719605 31.962053 60.632486 0
M  V30 29 C 34.844935 38.515293 62.842693 0
M  V30 30 C 37.442181 31.363963 59.104460 0
M  V30 31 C 34.477275 37.576452 65.112919 0
M  V30 32 O 33.245139 37.737880 65.017850 0 CHG=-1
M  V30 33 N 38.380500 29.379754 57.309126 0
M  V30 34 C 38.302939 30.203834 59.672103 0 CFG=2
M  V30 35 H 35.540565 31.401143 60.109987 0
M  V30 36 H 36.813120 32.084108 61.068759 0
M  V30 37 H 40.063854 34.463539 60.176929 0
M  V30 38 H 40.920952 35.556331 61.194253 0
M  V30 39 H 37.685578 32.033177 53.608628 0
M  V30 40 H 39.318222 33.527276 62.707360 0
M  V30 41 H 37.517386 38.327172 60.750011 0
M  V30 42 H 37.109484 29.433947 55.155775 0
M  V30 43 H 37.633840 27.816978 54.756102 0
M  V30 44 H 39.821993 31.077331 52.949860 0
M  V30 45 H 40.217213 30.711695 54.597264 0
M  V30 46 H 37.574349 30.137761 62.167788 0
M  V30 47 H 39.144791 29.998986 62.940673 0
M  V30 48 H 38.390520 31.565020 62.667871 0
M  V30 49 H 38.912554 36.071126 63.447780 0
M  V30 50 H 39.516906 37.394449 62.478712 0
M  V30 51 H 37.631837 33.181502 55.528080 0
M  V30 52 H 42.186750 34.401068 62.972437 0
M  V30 53 H 40.836241 35.009720 63.909078 0
M  V30 54 H 41.327870 33.333305 64.072017 0
M  V30 55 H 36.574104 35.366155 61.470258 0
M  V30 56 H 37.521218 33.977634 61.766719 0
M  V30 57 H 38.028800 29.418273 52.897587 0
M  V30 58 H 39.500930 28.673731 53.419820 0
M  V30 59 H 41.642982 32.579069 60.969560 0
M  V30 60 H 40.964188 31.683736 62.297614 0
M  V30 61 H 38.765390 36.393656 60.448677 0
M  V30 62 H 35.283924 39.377133 60.967779 0
M  V30 63 H 40.079726 29.958456 60.893893 0
M  V30 64 H 39.481711 28.533919 58.891646 0
M  V30 65 H 40.021576 30.101630 58.333621 0
M  V30 66 H 35.673538 33.389216 58.567588 0
M  V30 67 H 35.182427 33.793430 60.179481 0
M  V30 68 H 36.952815 36.538055 64.626199 0
M  V30 69 H 38.070399 34.106845 59.187933 0
M  V30 70 H 36.886794 35.362228 59.124849 0
M  V30 71 H 33.863616 38.937697 62.891836 0
M  V30 72 H 38.126047 32.090383 58.677022 0
M  V30 73 H 36.845492 31.023634 58.261779 0
M  V30 74 H 37.471949 29.819413 57.260528 0
M  V30 75 H 37.619459 29.434951 60.031496 0
M  V30 END ATOM
M  V30 BEGIN BOND
M  V30 1 1 4 2
M  V30 2 1 8 3
M  V30 3 1 11 3
M  V30 4 2 11 7
M  V30 5 1 13 4
M  V30 6 1 15 6
M  V30 7 1 15 8
M  V30 8 1 16 4
M  V30 9 1 17 2
M  V30 10 1 17 10
M  V30 11 1 17 14
M  V30 12 1 18 6
M  V30 13 2 19 5
M  V30 14 1 20 9
M  V30 15 1 21 5
M  V30 16 1 21 10
M  V30 17 1 23 1
M  V30 18 2 24 21
M  V30 19 1 25 24
M  V30 20 1 26 14
M  V30 21 1 26 23
M  V30 22 2 27 18
M  V30 23 1 28 16
M  V30 24 1 28 20
M  V30 25 1 29 19
M  V30 26 2 29 25
M  V30 27 1 30 1
M  V30 28 2 31 12
M  V30 29 1 31 25
M  V30 30 1 32 31
M  V30 31 1 33 18
M  V30 32 1 33 22
M  V30 33 1 34 20
M  V30 34 1 34 22
M  V30 35 1 34 30
M  V30 36 1 35 1
M  V30 37 1 36 1
M  V30 38 1 37 2
M  V30 39 1 38 2
M  V30 40 1 39 3
M  V30 41 1 4 40 CFG=1
M  V30 42 1 41 5
M  V30 43 1 42 6
M  V30 44 1 43 6
M  V30 45 1 44 8
M  V30 46 1 45 8
M  V30 47 1 46 9
M  V30 48 1 47 9
M  V30 49 1 48 9
M  V30 50 1 49 10
M  V30 51 1 50 10
M  V30 52 1 51 11
M  V30 53 1 52 13
M  V30 54 1 53 13
M  V30 55 1 54 13
M  V30 56 1 55 14
M  V30 57 1 56 14
M  V30 58 1 57 15
M  V30 59 1 58 15
M  V30 60 1 59 16
M  V30 61 1 60 16
M  V30 62 1 17 61 CFG=3
M  V30 63 1 62 19
M  V30 64 1 20 63 CFG=1
M  V30 65 1 64 22
M  V30 66 1 65 22
M  V30 67 1 66 23
M  V30 68 1 67 23
M  V30 69 1 68 24
M  V30 70 1 69 26
M  V30 71 1 70 26
M  V30 72 1 71 29
M  V30 73 1 72 30
M  V30 74 1 73 30
M  V30 75 1 74 33
M  V30 76 1 34 75 CFG=1
M  V30 END BOND
M  V30 END CTAB
M  END
>  <i_epik_Tot_Q>  (1) 
-1

>  <i_epik_Tot_abs_Q>  (1) 
1

>  <i_i_glide_confnum>  (1) 
2660

>  <i_i_glide_lignum>  (1) 
31

>  <i_i_glide_posenum>  (1) 
42

>  <i_i_glide_rotatable_bonds>  (1) 
11

>  <i_lp_mmshare_version>  (1) 
72125

>  <i_m_source_file_index>  (1) 
16

>  <i_f3d_flags>  (1) 
0

>  <num_sample>  (1) 
100

>  <b_lp_Chiralities_Consistent>  (1) 
1

>  <r_epik_Charging_Adjusted_Penalty>  (1) 
0.00039988353432540339

>  <r_epik_Ionization_Penalty>  (1) 
0.00039992702821499621

>  <r_epik_Ionization_Penalty_Charging>  (1) 
0.00039988353432540339

>  <r_epik_Ionization_Penalty_Neutral>  (1) 
4.349388959280561e-08

>  <r_epik_State_Penalty>  (1) 
-0

>  <r_glide_ring_energy>  (1) 
0

>  <r_i_docking_score>  (1) 
-5.4378946510594668

>  <r_i_glide_ecoul>  (1) 
-1.8135924405994794

>  <r_i_glide_eff_state_penalty>  (1) 
-0

>  <r_i_glide_einternal>  (1) 
11.185647011831559

>  <r_i_glide_emodel>  (1) 
-25.845201686359438

>  <r_i_glide_emodel_strain>  (1) 
5.8419258889926837

>  <r_i_glide_energy>  (1) 
-30.65514205143652

>  <r_i_glide_erotb>  (1) 
0.81156586864238245

>  <r_i_glide_esite>  (1) 
-0.050083238253931711

>  <r_i_glide_evdw>  (1) 
-28.841549610837042

>  <r_i_glide_gscore>  (1) 
-5.4378946510594668

>  <r_i_glide_gscore_strain>  (1) 
0.46048147224817093

>  <r_i_glide_hbond>  (1) 
-0.21152411289943282

>  <r_i_glide_ligand_efficiency>  (1) 
-0.15993807797233725

>  <r_i_glide_ligand_efficiency_ln>  (1) 
-1.2013834561975383

>  <r_i_glide_ligand_efficiency_sa>  (1) 
-0.51813728487282218

>  <r_i_glide_lipo>  (1) 
-3.6509101376059854

>  <r_i_glide_metal>  (1) 
-0

>  <r_i_glide_rewards>  (1) 
-1.0833081565588965

>  <r_lp_Energy>  (1) 
33.049985999999997

>  <r_lp_tautomer_probability>  (1) 
1

>  <s_epik_cmdline>  (1) 
J2VwaWtfcHl0aG9uJywgJy1waHQnLCAnMS4wJywgJy1waCcsICc3LjQnLCAnLXRuJywgJzgnLCAnLW1hJywgJzUwMCcsICctaW1hZScsICc8aW5maWxlLm1hZT4nLCAnLW9tYWUnLCAnPG91dGZpbGUubWFlPic=

>  <s_epik_input>  (1) 
Tz1bQ0hdW05IXVtDSDJdW0NIMl1bQ0gyXUMoPU8pW05IXVtDSDJdW0NAQEhdKFtDQEhdKFtDSDNdKU9bQ0gyXTEpW0NIMl1bQ0gyXVtDSDJdW0NIMl1bQ0gyXVtDQEhdKFtDSDJdW0NAQEhdMVtDSDNdKVtDSDJdYzJbY0hdW2NIXVtjSF1jKFtjSF0yKUMoPU8pW09IXQ==

>  <s_glide_docking_method>  (1) 
confgen

>  <s_i_glide_gridfile>  (1) 
gpcr_5ht2c_6bqh_protein_autoprepared_prepared

>  <s_lp_Force_Field>  (1) 
S-OPLS

>  <s_lp_Variant>  (1) 
DiffSBDD_15-1

>  <s_m_source_file>  (1) 
generated_GPCR_5HT2C_ligand_DiffSBDD_2026-06-23_prepared.sdf

>  <GenAI_Model>  (1) 
DiffSBDD

>  <Protein>  (1) 
GPCR_5HT2C

$$$$
DiffSBDD_26
     RDKit          3D

  0  0  0  0  0  0  0  0  0  0999 V3000
M  V30 BEGIN CTAB
M  V30 COUNTS 63 67 0 0 1
M  V30 BEGIN ATOM
M  V30 1 C 36.471511 31.000690 59.005907 0 CFG=1
M  V30 2 C 38.225233 27.324185 57.239320 0
M  V30 3 O 38.632552 25.738075 58.967756 0
M  V30 4 C 40.201953 29.657684 51.274812 0
M  V30 5 N 37.898043 32.354681 61.497925 0
M  V30 6 C 38.083143 28.516543 57.939057 0
M  V30 7 C 37.937470 28.341389 55.100722 0
M  V30 8 C 37.794973 29.619468 55.732915 0
M  V30 9 C 37.551253 33.009340 60.235986 0 CFG=1
M  V30 10 C 38.469206 25.997240 57.798264 0
M  V30 11 O 41.352172 31.849364 64.610169 0
M  V30 12 O 36.748790 30.137755 60.073752 0
M  V30 13 C 40.632890 31.149331 61.773469 0
M  V30 14 C 39.839884 32.051001 62.737716 0 CFG=1
M  V30 15 C 41.801952 33.728389 63.181759 0
M  V30 16 C 38.854008 31.604648 58.518854 0
M  V30 17 N 38.845115 31.242767 54.168412 0
M  V30 18 C 38.810598 29.125725 52.893400 0
M  V30 19 C 40.722505 32.793404 63.765719 0 CFG=2
M  V30 20 C 39.245134 30.396909 53.114986 0
M  V30 21 C 37.831318 29.702975 57.189270 0
M  V30 22 O 38.174746 25.337909 54.450188 0
M  V30 23 C 38.685756 32.980731 59.189788 0
M  V30 24 C 37.615341 30.860399 54.869190 0
M  V30 25 C 38.132971 27.228320 55.936195 0
M  V30 26 C 36.251000 32.390984 59.659484 0
M  V30 27 C 40.127965 30.755793 52.086394 0
M  V30 28 N 38.476417 25.140874 56.735567 0
M  V30 29 O 41.245103 34.857428 62.538278 0
M  V30 30 C 37.597352 31.040506 57.932043 0 CFG=1
M  V30 31 C 38.265491 25.805748 55.562293 0
M  V30 32 O 39.406667 28.636683 51.755881 0
M  V30 33 C 37.861487 28.213847 53.582460 0
M  V30 34 O 39.059327 33.017457 62.028954 0
M  V30 35 H 35.552364 30.607643 58.568036 0
M  V30 36 H 40.736182 29.434512 50.363470 0
M  V30 37 H 37.167610 32.543101 62.166952 0
M  V30 38 H 38.147280 28.534560 59.014457 0
M  V30 39 H 37.350482 34.051970 60.485453 0
M  V30 40 H 41.886502 31.276592 64.081926 0
M  V30 41 H 35.953094 30.025555 60.567613 0
M  V30 42 H 41.323749 30.500661 62.310293 0
M  V30 43 H 39.959409 30.490629 61.229315 0
M  V30 44 H 41.200530 31.732134 61.048148 0
M  V30 45 H 39.179807 31.404756 63.318872 0
M  V30 46 H 42.444862 33.195452 62.482056 0
M  V30 47 H 42.446833 34.094390 63.981579 0
M  V30 48 H 39.562667 31.686369 57.693894 0
M  V30 49 H 39.245127 30.885122 59.229733 0
M  V30 50 H 39.081949 32.223494 54.128006 0
M  V30 51 H 40.061019 33.361798 64.412903 0
M  V30 52 H 38.449438 33.710031 58.414049 0
M  V30 53 H 39.631474 33.312454 59.619441 0
M  V30 54 H 36.815884 30.647984 54.167611 0
M  V30 55 H 37.245632 31.745184 55.367711 0
M  V30 56 H 35.474113 32.340941 60.423072 0
M  V30 57 H 35.862988 33.073936 58.904010 0
M  V30 58 H 40.641342 31.692709 51.943840 0
M  V30 59 H 38.610315 24.145923 56.809200 0
M  V30 60 H 40.757208 35.361992 63.172100 0
M  V30 61 H 37.272033 31.818843 57.264524 0
M  V30 62 H 38.024596 27.221669 53.185495 0
M  V30 63 H 36.845078 28.464199 53.279755 0
M  V30 END ATOM
M  V30 BEGIN BOND
M  V30 1 2 6 2
M  V30 2 1 8 7
M  V30 3 1 9 5
M  V30 4 1 10 2
M  V30 5 2 10 3
M  V30 6 1 12 1
M  V30 7 1 14 13
M  V30 8 1 19 11
M  V30 9 1 19 14
M  V30 10 1 19 15
M  V30 11 1 20 17
M  V30 12 2 20 18
M  V30 13 1 21 6
M  V30 14 2 21 8
M  V30 15 1 23 9
M  V30 16 1 23 16
M  V30 17 1 24 8
M  V30 18 1 24 17
M  V30 19 1 25 2
M  V30 20 2 25 7
M  V30 21 1 26 1
M  V30 22 1 26 9
M  V30 23 2 27 4
M  V30 24 1 27 20
M  V30 25 1 28 10
M  V30 26 1 29 15
M  V30 27 1 30 1
M  V30 28 1 30 16
M  V30 29 1 30 21
M  V30 30 2 31 22
M  V30 31 1 31 25
M  V30 32 1 31 28
M  V30 33 1 32 4
M  V30 34 1 32 18
M  V30 35 1 33 7
M  V30 36 1 33 18
M  V30 37 1 34 5
M  V30 38 1 34 14
M  V30 39 1 1 35 CFG=3
M  V30 40 1 36 4
M  V30 41 1 37 5
M  V30 42 1 38 6
M  V30 43 1 9 39 CFG=1
M  V30 44 1 40 11
M  V30 45 1 41 12
M  V30 46 1 42 13
M  V30 47 1 43 13
M  V30 48 1 44 13
M  V30 49 1 14 45 CFG=1
M  V30 50 1 46 15
M  V30 51 1 47 15
M  V30 52 1 48 16
M  V30 53 1 49 16
M  V30 54 1 50 17
M  V30 55 1 19 51 CFG=1
M  V30 56 1 52 23
M  V30 57 1 53 23
M  V30 58 1 54 24
M  V30 59 1 55 24
M  V30 60 1 56 26
M  V30 61 1 57 26
M  V30 62 1 58 27
M  V30 63 1 59 28
M  V30 64 1 60 29
M  V30 65 1 30 61 CFG=3
M  V30 66 1 62 33
M  V30 67 1 63 33
M  V30 END BOND
M  V30 END CTAB
M  END
>  <i_epik_Tot_Q>  (1) 
0

>  <i_epik_Tot_abs_Q>  (1) 
0

>  <i_i_glide_confnum>  (1) 
81

>  <i_i_glide_lignum>  (1) 
67

>  <i_i_glide_posenum>  (1) 
42

>  <i_i_glide_rotatable_bonds>  (1) 
9

>  <i_lp_mmshare_version>  (1) 
72125

>  <i_m_source_file_index>  (1) 
27

>  <i_f3d_flags>  (1) 
0

>  <num_sample>  (1) 
100

>  <b_lp_Chiralities_Consistent>  (1) 
1

>  <r_epik_Charging_Adjusted_Penalty>  (1) 
0.011663948100313749

>  <r_epik_Ionization_Penalty>  (1) 
0.013971723249614831

>  <r_epik_Ionization_Penalty_Charging>  (1) 
0

>  <r_epik_Ionization_Penalty_Neutral>  (1) 
0.013971723249614831

>  <r_epik_State_Penalty>  (1) 
0.011663948100313749

>  <r_glide_ring_energy>  (1) 
1.4878355022131675

>  <r_i_docking_score>  (1) 
-5.4356988912606017

>  <r_i_glide_ecoul>  (1) 
-1.456192823964781

>  <r_i_glide_eff_state_penalty>  (1) 
0.011663948100313749

>  <r_i_glide_einternal>  (1) 
9.3800576491680854

>  <r_i_glide_emodel>  (1) 
-39.199166289904795

>  <r_i_glide_emodel_strain>  (1) 
0.5652215351714176

>  <r_i_glide_energy>  (1) 
-33.946318099936455

>  <r_i_glide_erotb>  (1) 
0.54550006929946782

>  <r_i_glide_esite>  (1) 
0

>  <r_i_glide_evdw>  (1) 
-32.490125275971671

>  <r_i_glide_gscore>  (1) 
-5.447362839360915

>  <r_i_glide_gscore_strain>  (1) 
0

>  <r_i_glide_hbond>  (1) 
0

>  <r_i_glide_ligand_efficiency>  (1) 
-0.15987349680178239

>  <r_i_glide_ligand_efficiency_ln>  (1) 
-1.2008983512689928

>  <r_i_glide_ligand_efficiency_sa>  (1) 
-0.51792806695055238

>  <r_i_glide_lipo>  (1) 
-2.5194135750147573

>  <r_i_glide_metal>  (1) 
-0

>  <r_i_glide_rewards>  (1) 
-1.6305141462523258

>  <r_lp_Energy>  (1) 
55.099730999999998

>  <r_lp_tautomer_probability>  (1) 
0.99894395353395549

>  <s_epik_Chemistry_Notes>  (1) 
This compound has a N-S or N-O group and may undergo hydrolysis at high or low pH.

>  <s_epik_cmdline>  (1) 
J2VwaWtfcHl0aG9uJywgJy1waHQnLCAnMS4wJywgJy1waCcsICc3LjQnLCAnLXRuJywgJzgnLCAnLW1hJywgJzUwMCcsICctaW1hZScsICc8aW5maWxlLm1hZT4nLCAnLW9tYWUnLCAnPG91dGZpbGUubWFlPic=

>  <s_epik_input>  (1) 
W09IXVtDSDJdW0NASF0oW09IXSlbQ0BIXShbQ0gzXSlPW05IXVtDQEhdKFtDSDJdW0NAQEhdMVtPSF0pW0NIMl1bQ0gyXVtDQEhdMWMoW2NIXTIpYyhjM2MoYzI0KUMoPU8pW05IXUM0PU8pW0NIMl1bTkhdYzVjKFtDSDJdMylvW2NIXVtjSF01

>  <s_glide_docking_method>  (1) 
confgen

>  <s_i_glide_gridfile>  (1) 
gpcr_5ht2c_6bqh_protein_autoprepared_prepared

>  <s_lp_Force_Field>  (1) 
S-OPLS

>  <s_lp_Variant>  (1) 
DiffSBDD_26-1

>  <s_m_source_file>  (1) 
generated_GPCR_5HT2C_ligand_DiffSBDD_2026-06-23_prepared.sdf

>  <GenAI_Model>  (1) 
DiffSBDD

>  <Protein>  (1) 
GPCR_5HT2C

$$$$
DiffSBDD_12
     RDKit          3D

  0  0  0  0  0  0  0  0  0  0999 V3000
M  V30 BEGIN CTAB
M  V30 COUNTS 68 70 0 0 1
M  V30 BEGIN ATOM
M  V30 1 C 41.538633 33.731360 63.911221 0 CFG=1
M  V30 2 C 37.036883 30.406005 59.001370 0
M  V30 3 N 40.280301 33.580073 63.132159 0 CFG=1 CHG=1
M  V30 4 C 33.907836 33.307885 59.637291 0
M  V30 5 O 38.576793 36.409233 61.340482 0
M  V30 6 O 41.313080 35.737770 65.249350 0
M  V30 7 N 38.944155 27.708649 57.739168 0 CHG=-1
M  V30 8 C 39.693964 26.599507 57.560211 0
M  V30 9 O 40.703059 29.337366 58.674211 0
M  V30 10 C 39.758442 34.955412 62.863982 0 CFG=1
M  V30 11 C 38.380530 26.840857 54.624685 0
M  V30 12 S 37.503915 34.126150 59.319459 0
M  V30 13 C 36.671883 31.579230 59.459712 0
M  V30 14 C 40.499550 32.744301 61.924194 0
M  V30 15 C 38.069144 25.955836 55.808724 0 CFG=1
M  V30 16 C 38.932510 34.131226 60.530579 0 CFG=1
M  V30 17 O 36.784696 35.402115 59.468223 0
M  V30 18 O 36.845194 25.199518 54.017269 0
M  V30 19 C 41.004566 35.838181 62.840013 0
M  V30 20 C 37.610326 24.700949 55.098810 0 CFG=2
M  V30 21 C 38.274863 30.219841 58.148268 0
M  V30 22 N 37.245141 26.584311 53.767723 0
M  V30 23 O 40.718672 26.333696 58.167747 0
M  V30 24 O 38.845107 28.562263 60.167587 0
M  V30 25 C 38.690815 35.059514 61.735458 0 CFG=2
M  V30 26 C 39.276501 32.716974 61.015416 0
M  V30 27 C 35.095523 33.131999 60.596172 0
M  V30 28 C 36.354126 32.803456 59.818562 0
M  V30 29 O 38.045135 33.737686 58.008769 0
M  V30 30 C 41.794143 35.247350 64.016523 0 CFG=2
M  V30 31 C 41.486236 32.950592 65.236664 0
M  V30 32 C 36.728359 23.782110 55.943263 0
M  V30 33 S 39.321362 28.856966 58.808210 0
M  V30 34 N 39.258896 25.731884 56.628272 0
M  V30 35 H 42.375637 33.323553 63.340253 0
M  V30 36 H 36.458265 29.518721 59.213645 0
M  V30 37 H 32.961368 33.382708 60.167739 0
M  V30 38 H 34.024837 34.196495 59.015332 0
M  V30 39 H 33.826106 32.452355 58.967856 0
M  V30 40 H 37.868349 36.468176 60.707931 0
M  V30 41 H 41.510766 36.670386 65.289902 0
M  V30 42 H 39.245603 35.325605 63.752619 0
M  V30 43 H 38.462289 27.897649 54.881395 0
M  V30 44 H 39.298498 26.527669 54.124361 0
M  V30 45 H 41.356180 33.122669 61.366403 0
M  V30 46 H 40.751351 31.728422 62.232568 0
M  V30 47 H 37.235610 26.362085 56.386296 0
M  V30 48 H 39.781771 34.526432 59.971898 0
M  V30 49 H 41.549624 35.713196 61.904016 0
M  V30 50 H 40.786647 36.900371 62.965268 0
M  V30 51 H 38.460375 24.150256 54.695424 0
M  V30 52 H 37.983086 29.982416 57.125195 0
M  V30 53 H 38.872746 31.127951 58.104401 0
M  V30 54 H 37.486539 26.623486 52.785092 0
M  V30 55 H 37.726002 34.783677 62.158851 0
M  V30 56 H 39.480571 32.065616 60.167377 0
M  V30 57 H 38.441803 32.278566 61.562219 0
M  V30 58 H 34.885182 32.325728 61.300132 0
M  V30 59 H 35.244858 34.035417 61.187783 0
M  V30 60 H 42.845141 35.501991 63.958777 0
M  V30 61 H 42.394179 33.111655 65.819198 0
M  V30 62 H 40.636945 33.249898 65.852644 0
M  V30 63 H 41.399730 31.878741 65.057137 0
M  V30 64 H 37.211489 23.518195 56.884670 0
M  V30 65 H 35.786868 24.280646 56.167765 0
M  V30 66 H 36.489634 22.864446 55.405617 0
M  V30 67 H 39.789776 24.889539 56.466198 0
M  V30 68 H 39.599187 33.109260 63.710098 0
M  V30 END ATOM
M  V30 BEGIN BOND
M  V30 1 1 3 1
M  V30 2 1 8 7
M  V30 3 1 10 3
M  V30 4 2 13 2
M  V30 5 1 14 3
M  V30 6 1 15 11
M  V30 7 1 16 12
M  V30 8 2 17 12
M  V30 9 1 19 10
M  V30 10 1 20 15
M  V30 11 1 20 18
M  V30 12 1 21 2
M  V30 13 1 22 11
M  V30 14 1 22 18
M  V30 15 2 23 8
M  V30 16 1 25 5
M  V30 17 1 25 10
M  V30 18 1 25 16
M  V30 19 1 26 14
M  V30 20 1 26 16
M  V30 21 1 27 4
M  V30 22 1 28 12
M  V30 23 2 28 13
M  V30 24 1 28 27
M  V30 25 2 29 12
M  V30 26 1 30 1
M  V30 27 1 30 6
M  V30 28 1 30 19
M  V30 29 1 31 1
M  V30 30 1 32 20
M  V30 31 1 33 7
M  V30 32 2 33 9
M  V30 33 1 33 21
M  V30 34 2 33 24
M  V30 35 1 34 8
M  V30 36 1 34 15
M  V30 37 1 1 35 CFG=3
M  V30 38 1 36 2
M  V30 39 1 37 4
M  V30 40 1 38 4
M  V30 41 1 39 4
M  V30 42 1 40 5
M  V30 43 1 41 6
M  V30 44 1 10 42 CFG=1
M  V30 45 1 43 11
M  V30 46 1 44 11
M  V30 47 1 45 14
M  V30 48 1 46 14
M  V30 49 1 15 47 CFG=1
M  V30 50 1 16 48 CFG=3
M  V30 51 1 49 19
M  V30 52 1 50 19
M  V30 53 1 20 51 CFG=3
M  V30 54 1 52 21
M  V30 55 1 53 21
M  V30 56 1 54 22
M  V30 57 1 25 55 CFG=1
M  V30 58 1 56 26
M  V30 59 1 57 26
M  V30 60 1 58 27
M  V30 61 1 59 27
M  V30 62 1 30 60 CFG=3
M  V30 63 1 61 31
M  V30 64 1 62 31
M  V30 65 1 63 31
M  V30 66 1 64 32
M  V30 67 1 65 32
M  V30 68 1 66 32
M  V30 69 1 67 34
M  V30 70 1 3 68 CFG=1
M  V30 END BOND
M  V30 END CTAB
M  END
>  <i_epik_Tot_Q>  (1) 
0

>  <i_epik_Tot_abs_Q>  (1) 
2

>  <i_i_glide_confnum>  (1) 
63

>  <i_i_glide_lignum>  (1) 
19

>  <i_i_glide_posenum>  (1) 
233

>  <i_i_glide_rotatable_bonds>  (1) 
11

>  <i_lp_mmshare_version>  (1) 
72125

>  <i_m_source_file_index>  (1) 
13

>  <i_f3d_flags>  (1) 
0

>  <num_sample>  (1) 
100

>  <b_lp_Chiralities_Consistent>  (1) 
1

>  <r_epik_Charging_Adjusted_Penalty>  (1) 
0.60912623126161669

>  <r_epik_Ionization_Penalty>  (1) 
0.30573665464692801

>  <r_epik_Ionization_Penalty_Charging>  (1) 
0.30464155940026277

>  <r_epik_Ionization_Penalty_Neutral>  (1) 
0.0010950952466652615

>  <r_epik_State_Penalty>  (1) 
0.30448467186135392

>  <r_glide_ring_energy>  (1) 
0

>  <r_i_docking_score>  (1) 
-5.4317116872952083

>  <r_i_glide_ecoul>  (1) 
-2.708610892777553

>  <r_i_glide_eff_state_penalty>  (1) 
0.30448467186135392

>  <r_i_glide_einternal>  (1) 
22.577548660584785

>  <r_i_glide_emodel>  (1) 
-45.982671523341594

>  <r_i_glide_emodel_strain>  (1) 
0.55882645758148897

>  <r_i_glide_energy>  (1) 
-44.101992157324325

>  <r_i_glide_erotb>  (1) 
0.67758354065758886

>  <r_i_glide_esite>  (1) 
-0.051588757458897933

>  <r_i_glide_evdw>  (1) 
-41.393381264546775

>  <r_i_glide_gscore>  (1) 
-5.7361963591565619

>  <r_i_glide_gscore_strain>  (1) 
0

>  <r_i_glide_hbond>  (1) 
-0.32869385049885097

>  <r_i_glide_ligand_efficiency>  (1) 
-0.15975622609691789

>  <r_i_glide_ligand_efficiency_ln>  (1) 
-1.2000174660757543

>  <r_i_glide_ligand_efficiency_sa>  (1) 
-0.51754815539112908

>  <r_i_glide_lipo>  (1) 
-3.3237132687069808

>  <r_i_glide_metal>  (1) 
-0

>  <r_i_glide_rewards>  (1) 
-0.23382332600544919

>  <r_lp_Energy>  (1) 
-2.0210079999999997

>  <s_epik_Chemistry_Notes>  (1) 
This compound has a N-S or N-O group and may undergo hydrolysis at high or low pH.

>  <s_epik_cmdline>  (1) 
J2VwaWtfcHl0aG9uJywgJy1waHQnLCAnMS4wJywgJy1waCcsICc3LjQnLCAnLXRuJywgJzgnLCAnLW1hJywgJzUwMCcsICctaW1hZScsICc8aW5maWxlLm1hZT4nLCAnLW9tYWUnLCAnPG91dGZpbGUubWFlPic=

>  <s_epik_input>  (1) 
W0NIM11bQ0BASF0xW0NASF0oW09IXSlbQ0gyXVtDQEhdKE4xMilbQ0BASF0oW09IXSlbQ0BASF0oW0NIMl1bQ0gyXTIpUyg9TykoPU8pQyhbQ0gyXVtDSDNdKT1DPVtDSF1bQ0gyXVMoPU8pKD1PKVtOSF1DKD1PKVtOSF1bQ0BIXTNbQ0gyXVtOSF1PW0NAQEhdM1tDSDNd

>  <s_glide_docking_method>  (1) 
confgen

>  <s_i_glide_gridfile>  (1) 
gpcr_5ht2c_6bqh_protein_autoprepared_prepared

>  <s_lp_Force_Field>  (1) 
S-OPLS

>  <s_lp_Variant>  (1) 
DiffSBDD_12-1

>  <s_m_source_file>  (1) 
generated_GPCR_5HT2C_ligand_DiffSBDD_2026-06-23_prepared.sdf

>  <GenAI_Model>  (1) 
DiffSBDD

>  <Protein>  (1) 
GPCR_5HT2C

$$$$
DiffSBDD_83
     RDKit          3D

  0  0  0  0  0  0  0  0  0  0999 V3000
M  V30 BEGIN CTAB
M  V30 COUNTS 54 55 0 0 1
M  V30 BEGIN ATOM
M  V30 1 C 40.413079 34.308061 62.148764 0
M  V30 2 C 38.950959 30.107127 58.488128 0
M  V30 3 N 38.988457 29.367597 59.601903 0
M  V30 4 O 37.245195 26.471077 54.691849 0
M  V30 5 O 41.403365 34.699401 62.977537 0
M  V30 6 C 38.082984 34.998706 61.506151 0
M  V30 7 C 36.865279 35.881174 61.676956 0
M  V30 8 C 38.111447 25.255605 56.335259 0
M  V30 9 C 38.776403 27.643296 51.696353 0
M  V30 10 C 39.193422 35.173774 62.276778 0
M  V30 11 C 39.461460 29.536152 57.196552 0
M  V30 12 C 37.633542 32.513825 60.952601 0
M  V30 13 N 38.514473 30.202985 60.542230 0
M  V30 14 O 41.645136 36.137769 63.005137 0
M  V30 15 C 38.981132 28.180646 55.058487 0 CFG=1
M  V30 16 C 38.457132 30.574602 54.227299 0
M  V30 17 C 37.060729 25.583719 55.668162 0
M  V30 18 O 40.511443 33.339115 61.400743 0
M  V30 19 C 38.672756 26.672285 54.833216 0 CFG=1
M  V30 20 C 38.425048 31.418748 58.726144 0
M  V30 21 O 39.224556 25.873310 55.922376 0
M  V30 22 C 39.108556 28.907545 52.501712 0
M  V30 23 C 38.408373 29.065844 53.886522 0 CFG=1
M  V30 24 C 38.168298 31.433326 60.064399 0
M  V30 25 Cl 38.084637 24.137777 57.645006 0
M  V30 26 C 37.953759 33.927722 60.421955 0
M  V30 27 C 38.476114 28.600881 56.477173 0
M  V30 28 H 38.445973 29.920760 61.510684 0
M  V30 29 H 36.044996 35.277646 62.060434 0
M  V30 30 H 37.046589 36.696483 62.379340 0
M  V30 31 H 36.564982 36.314673 60.722331 0
M  V30 32 H 38.849932 27.842072 50.626292 0
M  V30 33 H 39.467452 26.827371 51.903500 0
M  V30 34 H 37.760908 27.303105 51.897125 0
M  V30 35 H 39.208578 35.959934 63.016617 0
M  V30 36 H 39.737076 30.363683 56.548641 0
M  V30 37 H 40.390714 28.995867 57.380019 0
M  V30 38 H 38.056365 32.391673 61.950388 0
M  V30 39 H 36.555450 32.401617 61.074682 0
M  V30 40 H 41.280780 36.383367 63.844201 0
M  V30 41 H 40.064235 28.259976 55.055212 0
M  V30 42 H 39.480085 30.917781 54.380172 0
M  V30 43 H 38.045138 31.187133 53.430348 0
M  V30 44 H 37.872051 30.828405 55.110804 0
M  V30 45 H 36.045200 25.242153 55.793453 0
M  V30 46 H 39.157171 26.294123 53.938008 0
M  V30 47 H 38.280524 32.225049 58.021357 0
M  V30 48 H 38.807282 29.737689 51.866428 0
M  V30 49 H 40.183112 29.040186 52.567758 0
M  V30 50 H 37.352798 28.822030 53.757122 0
M  V30 51 H 37.180291 34.219670 59.710726 0
M  V30 52 H 38.853808 33.942061 59.810198 0
M  V30 53 H 38.328036 27.749726 57.137892 0
M  V30 54 H 37.490022 29.058054 56.407206 0
M  V30 END ATOM
M  V30 BEGIN BOND
M  V30 1 2 3 2
M  V30 2 1 5 1
M  V30 3 1 7 6
M  V30 4 1 10 1
M  V30 5 2 10 6
M  V30 6 1 11 2
M  V30 7 1 13 3
M  V30 8 1 14 5
M  V30 9 1 17 4
M  V30 10 2 17 8
M  V30 11 2 18 1
M  V30 12 1 19 4
M  V30 13 1 19 15
M  V30 14 1 20 2
M  V30 15 1 21 8
M  V30 16 1 21 19
M  V30 17 1 22 9
M  V30 18 1 23 15
M  V30 19 1 23 16
M  V30 20 1 23 22
M  V30 21 1 24 12
M  V30 22 1 24 13
M  V30 23 2 24 20
M  V30 24 1 25 8
M  V30 25 1 26 6
M  V30 26 1 26 12
M  V30 27 1 27 11
M  V30 28 1 27 15
M  V30 29 1 28 13
M  V30 30 1 29 7
M  V30 31 1 30 7
M  V30 32 1 31 7
M  V30 33 1 32 9
M  V30 34 1 33 9
M  V30 35 1 34 9
M  V30 36 1 35 10
M  V30 37 1 36 11
M  V30 38 1 37 11
M  V30 39 1 38 12
M  V30 40 1 39 12
M  V30 41 1 40 14
M  V30 42 1 15 41 CFG=1
M  V30 43 1 42 16
M  V30 44 1 43 16
M  V30 45 1 44 16
M  V30 46 1 45 17
M  V30 47 1 19 46 CFG=3
M  V30 48 1 47 20
M  V30 49 1 48 22
M  V30 50 1 49 22
M  V30 51 1 23 50 CFG=3
M  V30 52 1 51 26
M  V30 53 1 52 26
M  V30 54 1 53 27
M  V30 55 1 54 27
M  V30 END BOND
M  V30 END CTAB
M  END
>  <i_epik_Tot_Q>  (1) 
0

>  <i_epik_Tot_abs_Q>  (1) 
0

>  <i_i_glide_confnum>  (1) 
1010

>  <i_i_glide_lignum>  (1) 
194

>  <i_i_glide_posenum>  (1) 
279

>  <i_i_glide_rotatable_bonds>  (1) 
12

>  <i_lp_mmshare_version>  (1) 
72125

>  <i_m_source_file_index>  (1) 
84

>  <i_f3d_flags>  (1) 
0

>  <num_sample>  (1) 
100

>  <b_lp_Chiralities_Consistent>  (1) 
1

>  <r_epik_Charging_Adjusted_Penalty>  (1) 
0.41067983895260396

>  <r_epik_Ionization_Penalty>  (1) 
0.00090540554532319911

>  <r_epik_Ionization_Penalty_Charging>  (1) 
0

>  <r_epik_Ionization_Penalty_Neutral>  (1) 
0.00090540554532319911

>  <r_epik_State_Penalty>  (1) 
0.41067983895260396

>  <r_glide_ring_energy>  (1) 
0

>  <r_i_docking_score>  (1) 
-5.4224402769123285

>  <r_i_glide_ecoul>  (1) 
-2.4274712040743753

>  <r_i_glide_eff_state_penalty>  (1) 
0.41067983895260396

>  <r_i_glide_einternal>  (1) 
12.923995559400009

>  <r_i_glide_emodel>  (1) 
-45.80323703502058

>  <r_i_glide_emodel_strain>  (1) 
0.37950839171570294

>  <r_i_glide_energy>  (1) 
-39.279886008950932

>  <r_i_glide_erotb>  (1) 
1.1080255732668134

>  <r_i_glide_esite>  (1) 
0

>  <r_i_glide_evdw>  (1) 
-36.85241480487656

>  <r_i_glide_gscore>  (1) 
-5.8331201158649328

>  <r_i_glide_gscore_strain>  (1) 
0

>  <r_i_glide_hbond>  (1) 
-0.030995786991801517

>  <r_i_glide_ligand_efficiency>  (1) 
-0.20083112136712328

>  <r_i_glide_ligand_efficiency_ln>  (1) 
-1.2622547005505549

>  <r_i_glide_ligand_efficiency_sa>  (1) 
-0.60249336410137

>  <r_i_glide_lipo>  (1) 
-2.8885313265376156

>  <r_i_glide_metal>  (1) 
-0

>  <r_i_glide_rewards>  (1) 
-1.8148771547473452

>  <r_lp_Energy>  (1) 
15.108011999999999

>  <r_lp_tautomer_probability>  (1) 
0.5

>  <s_epik_Chemistry_Notes>  (1) 
This compound contains an acetal/aminal-like group ( X-CH(R)-Y where X, Y are N, S, or O) that may be acid/base labile, releasing an aldehyde.

>  <s_epik_cmdline>  (1) 
J2VwaWtfcHl0aG9uJywgJy1waHQnLCAnMS4wJywgJy1waCcsICc3LjQnLCAnLXRuJywgJzgnLCAnLW1hJywgJzUwMCcsICctaW1hZScsICc8aW5maWxlLm1hZT4nLCAnLW9tYWUnLCAnPG91dGZpbGUubWFlPic=

>  <s_epik_input>  (1) 
W09IXU9DKD1PKVxbQ0hdPUMoXFtDSDNdKVtDSDJdW0NIMl1jKFtjSF0xKW5bbkhdYzFbQ0gyXVtDSDJdW0NASF0oW0NAQEhdKFtDSDNdKVtDSDJdW0NIM10pW0NAQEhdKE8yKU9bQ0hdPUMyQ2w=

>  <s_glide_docking_method>  (1) 
confgen

>  <s_i_glide_gridfile>  (1) 
gpcr_5ht2c_6bqh_protein_autoprepared_prepared

>  <s_lp_Force_Field>  (1) 
S-OPLS

>  <s_lp_Variant>  (1) 
DiffSBDD_83-5

>  <s_m_source_file>  (1) 
generated_GPCR_5HT2C_ligand_DiffSBDD_2026-06-23_prepared.sdf

>  <GenAI_Model>  (1) 
DiffSBDD

>  <Protein>  (1) 
GPCR_5HT2C

$$$$
DiffSBDD_54
     RDKit          3D

  0  0  0  0  0  0  0  0  0  0999 V3000
M  V30 BEGIN CTAB
M  V30 COUNTS 42 43 0 0 1
M  V30 BEGIN ATOM
M  V30 1 C 38.535322 30.921083 54.230848 0
M  V30 2 C 38.960491 26.351538 56.717741 0
M  V30 3 C 40.971091 27.806987 56.969031 0
M  V30 4 C 39.750235 29.580692 50.357005 0
M  V30 5 C 39.442704 28.018578 52.373260 0
M  V30 6 S 38.557774 28.949299 56.004129 0 CHG=1
M  V30 7 C 38.780282 31.303745 56.700781 0
M  V30 8 N 38.038248 26.447017 57.656072 0
M  V30 9 C 37.277244 27.627340 53.640844 0
M  V30 10 C 37.718287 25.102482 57.767119 0
M  V30 11 N 38.409392 24.269702 56.967854 0
M  V30 12 N 39.197509 25.128695 56.312119 0
M  V30 13 N 38.903416 29.484777 54.374738 0 CFG=1 CHG=1
M  V30 14 C 38.338724 28.667138 53.240693 0 CFG=1
M  V30 15 C 39.184601 31.794516 55.308892 0
M  V30 16 C 40.357702 29.020901 51.641813 0
M  V30 17 O 39.260219 29.975073 56.837206 0
M  V30 18 C 39.707090 27.515426 56.143178 0 CFG=2
M  V30 19 H 37.449518 31.029620 54.276260 0
M  V30 20 H 38.852447 31.289320 53.256107 0
M  V30 21 H 41.580198 26.910987 57.083556 0
M  V30 22 H 40.731133 28.165617 57.970797 0
M  V30 23 H 41.604656 28.537459 56.476648 0
M  V30 24 H 40.446435 30.251302 49.851848 0
M  V30 25 H 38.845053 30.139251 50.567512 0
M  V30 26 H 39.493443 28.783469 49.661092 0
M  V30 27 H 38.980098 27.375700 51.621716 0
M  V30 28 H 40.045084 27.337463 52.969383 0
M  V30 29 H 39.244713 31.929718 57.462801 0
M  V30 30 H 37.699904 31.365852 56.856515 0
M  V30 31 H 36.845157 27.190070 52.748167 0
M  V30 32 H 36.445179 28.082735 54.168082 0
M  V30 33 H 37.673849 26.801760 54.230866 0
M  V30 34 H 36.964193 24.735283 58.444928 0
M  V30 35 H 39.868698 24.833606 55.615876 0
M  V30 36 H 37.804863 29.337412 52.568899 0
M  V30 37 H 40.270227 31.761171 55.210341 0
M  V30 38 H 38.882386 32.834830 55.178389 0
M  V30 39 H 40.639876 29.844271 52.294492 0
M  V30 40 H 41.286623 28.526953 51.367722 0
M  V30 41 H 40.027985 27.230419 55.145095 0
M  V30 42 H 39.902701 29.474714 54.234530 0
M  V30 END ATOM
M  V30 BEGIN BOND
M  V30 1 2 8 2
M  V30 2 1 10 8
M  V30 3 2 11 10
M  V30 4 1 12 2
M  V30 5 1 12 11
M  V30 6 1 13 1
M  V30 7 1 13 6
M  V30 8 1 14 5
M  V30 9 1 14 9
M  V30 10 1 14 13
M  V30 11 1 15 1
M  V30 12 1 15 7
M  V30 13 1 16 4
M  V30 14 1 16 5
M  V30 15 1 6 17 CFG=1
M  V30 16 1 17 7
M  V30 17 1 18 2
M  V30 18 1 18 3
M  V30 19 1 18 6
M  V30 20 1 19 1
M  V30 21 1 20 1
M  V30 22 1 21 3
M  V30 23 1 22 3
M  V30 24 1 23 3
M  V30 25 1 24 4
M  V30 26 1 25 4
M  V30 27 1 26 4
M  V30 28 1 27 5
M  V30 29 1 28 5
M  V30 30 1 29 7
M  V30 31 1 30 7
M  V30 32 1 31 9
M  V30 33 1 32 9
M  V30 34 1 33 9
M  V30 35 1 34 10
M  V30 36 1 35 12
M  V30 37 1 14 36 CFG=3
M  V30 38 1 37 15
M  V30 39 1 38 15
M  V30 40 1 39 16
M  V30 41 1 40 16
M  V30 42 1 18 41 CFG=3
M  V30 43 1 13 42 CFG=3
M  V30 END BOND
M  V30 END CTAB
M  END
>  <i_epik_Tot_Q>  (1) 
2

>  <i_epik_Tot_abs_Q>  (1) 
2

>  <i_i_glide_confnum>  (1) 
27

>  <i_i_glide_lignum>  (1) 
117

>  <i_i_glide_posenum>  (1) 
264

>  <i_i_glide_rotatable_bonds>  (1) 
5

>  <i_lp_mmshare_version>  (1) 
72125

>  <i_m_source_file_index>  (1) 
55

>  <i_f3d_flags>  (1) 
0

>  <num_sample>  (1) 
100

>  <b_lp_Chiralities_Consistent>  (1) 
1

>  <r_epik_Charging_Adjusted_Penalty>  (1) 
0.22285261290592212

>  <r_epik_Ionization_Penalty>  (1) 
0.11376846567106323

>  <r_epik_Ionization_Penalty_Charging>  (1) 
0.11142630645296109

>  <r_epik_Ionization_Penalty_Neutral>  (1) 
0.0023421592181021404

>  <r_epik_State_Penalty>  (1) 
0.11142630645296105

>  <r_glide_ring_energy>  (1) 
0

>  <r_i_docking_score>  (1) 
-5.4141160883643344

>  <r_i_glide_ecoul>  (1) 
-1.6167334816568091

>  <r_i_glide_eff_state_penalty>  (1) 
0.11142630645296105

>  <r_i_glide_einternal>  (1) 
6.3671220085413536

>  <r_i_glide_emodel>  (1) 
-43.84855609437551

>  <r_i_glide_emodel_strain>  (1) 
0.13977319030575686

>  <r_i_glide_energy>  (1) 
-29.431092209560894

>  <r_i_glide_erotb>  (1) 
0.96597774364564237

>  <r_i_glide_esite>  (1) 
0

>  <r_i_glide_evdw>  (1) 
-27.814358727904086

>  <r_i_glide_gscore>  (1) 
-5.5255423948172959

>  <r_i_glide_gscore_strain>  (1) 
0

>  <r_i_glide_hbond>  (1) 
0

>  <r_i_glide_ligand_efficiency>  (1) 
-0.30078422713135189

>  <r_i_glide_ligand_efficiency_ln>  (1) 
-1.3916706230903189

>  <r_i_glide_ligand_efficiency_sa>  (1) 
-0.78827767476826471

>  <r_i_glide_lipo>  (1) 
-2.0358898504687937

>  <r_i_glide_metal>  (1) 
-0

>  <r_i_glide_rewards>  (1) 
-2.8224023293504183

>  <r_lp_Energy>  (1) 
23.329950999999998

>  <r_lp_tautomer_probability>  (1) 
0.94828448534560383

>  <s_epik_cmdline>  (1) 
J2VwaWtfcHl0aG9uJywgJy1waHQnLCAnMS4wJywgJy1waCcsICc3LjQnLCAnLXRuJywgJzgnLCAnLW1hJywgJzUwMCcsICctaW1hZScsICc8aW5maWxlLm1hZT4nLCAnLW9tYWUnLCAnPG91dGZpbGUubWFlPic=

>  <s_epik_input>  (1) 
W0NIM11bQ0gyXVtDSDJdW0NASF0oW0NIM10pTihbQ0gyXVtDSDJdW0NIMl1PMSlbUytdMVtDQEBIXShbQ0gzXSljMm5bY0hdbltuSF0y

>  <s_glide_docking_method>  (1) 
confgen

>  <s_i_glide_gridfile>  (1) 
gpcr_5ht2c_6bqh_protein_autoprepared_prepared

>  <s_lp_Force_Field>  (1) 
S-OPLS

>  <s_lp_Variant>  (1) 
DiffSBDD_54-3

>  <s_m_source_file>  (1) 
generated_GPCR_5HT2C_ligand_DiffSBDD_2026-06-23_prepared.sdf

>  <GenAI_Model>  (1) 
DiffSBDD

>  <Protein>  (1) 
GPCR_5HT2C

$$$$
DiffSBDD_36
     RDKit          3D

  0  0  0  0  0  0  0  0  0  0999 V3000
M  V30 BEGIN CTAB
M  V30 COUNTS 49 49 0 0 1
M  V30 BEGIN ATOM
M  V30 1 C 39.537621 26.287068 54.260116 0
M  V30 2 C 37.483008 26.287291 57.416280 0
M  V30 3 C 37.993300 24.803402 55.579201 0
M  V30 4 C 38.045182 28.529037 56.243958 0
M  V30 5 C 39.482100 30.186394 61.001942 0
M  V30 6 C 38.462562 27.057808 56.507242 0 CFG=1
M  V30 7 C 37.697026 24.814736 57.078055 0
M  V30 8 C 40.365963 29.057114 51.007075 0
M  V30 9 C 39.645102 27.005130 53.126248 0
M  V30 10 C 38.585591 27.925431 52.550214 0
M  V30 11 O 38.339592 30.476125 60.661531 0
M  V30 12 C 40.372507 27.683160 58.125124 0
M  V30 13 C 39.602128 28.762129 58.869977 0
M  V30 14 C 39.883786 26.939754 57.105217 0
M  V30 15 C 38.320583 26.253617 55.176126 0 CFG=1
M  V30 16 C 40.654952 30.313389 50.167184 0
M  V30 17 S 40.445140 30.936914 62.242255 0 CHG=-1
M  V30 18 C 40.177755 29.037586 60.270384 0
M  V30 19 C 39.521534 30.231286 53.145551 0
M  V30 20 C 39.203177 29.241873 52.007772 0 CFG=1
M  V30 21 H 40.372269 25.673298 54.561595 0
M  V30 22 H 37.645196 26.476907 58.475594 0
M  V30 23 H 36.446846 26.537706 57.194925 0
M  V30 24 H 38.828549 24.137752 55.376496 0
M  V30 25 H 37.138934 24.432427 55.011309 0
M  V30 26 H 37.281297 28.621631 55.472749 0
M  V30 27 H 37.623580 29.017153 57.120189 0
M  V30 28 H 38.894468 29.121321 55.903289 0
M  V30 29 H 38.559406 24.432517 57.626432 0
M  V30 30 H 36.845136 24.191020 57.343691 0
M  V30 31 H 41.274408 28.760899 51.525130 0
M  V30 32 H 40.118625 28.241551 50.325898 0
M  V30 33 H 40.545236 26.937831 52.567764 0
M  V30 34 H 38.111147 27.390749 51.726341 0
M  V30 35 H 37.792928 28.159379 53.255877 0
M  V30 36 H 41.388154 27.513996 58.453518 0
M  V30 37 H 39.639569 29.681151 58.284049 0
M  V30 38 H 38.558796 28.475876 58.982225 0
M  V30 39 H 40.526411 26.196883 56.659365 0
M  V30 40 H 37.439037 26.597092 54.637649 0
M  V30 41 H 41.445612 30.136980 49.438269 0
M  V30 42 H 39.769026 30.632040 49.617184 0
M  V30 43 H 40.978549 31.146918 50.788441 0
M  V30 44 H 40.091835 28.138659 60.882810 0
M  V30 45 H 41.245043 29.240398 60.164887 0
M  V30 46 H 40.280672 29.849089 53.825226 0
M  V30 47 H 39.870345 31.191558 52.766533 0
M  V30 48 H 38.630373 30.435082 53.739980 0
M  V30 49 H 38.439351 29.695602 51.398571 0
M  V30 END ATOM
M  V30 BEGIN BOND
M  V30 1 1 6 2
M  V30 2 1 6 4 CFG=3
M  V30 3 1 7 2
M  V30 4 1 7 3
M  V30 5 2 9 1
M  V30 6 1 10 9
M  V30 7 2 11 5
M  V30 8 1 13 12
M  V30 9 1 14 6
M  V30 10 2 14 12
M  V30 11 1 15 1
M  V30 12 1 15 3
M  V30 13 1 15 6
M  V30 14 1 16 8
M  V30 15 1 17 5
M  V30 16 1 18 5
M  V30 17 1 18 13
M  V30 18 1 20 8
M  V30 19 1 20 10
M  V30 20 1 20 19
M  V30 21 1 21 1
M  V30 22 1 22 2
M  V30 23 1 23 2
M  V30 24 1 24 3
M  V30 25 1 25 3
M  V30 26 1 26 4
M  V30 27 1 27 4
M  V30 28 1 28 4
M  V30 29 1 29 7
M  V30 30 1 30 7
M  V30 31 1 31 8
M  V30 32 1 32 8
M  V30 33 1 33 9
M  V30 34 1 34 10
M  V30 35 1 35 10
M  V30 36 1 36 12
M  V30 37 1 37 13
M  V30 38 1 38 13
M  V30 39 1 39 14
M  V30 40 1 15 40 CFG=3
M  V30 41 1 41 16
M  V30 42 1 42 16
M  V30 43 1 43 16
M  V30 44 1 44 18
M  V30 45 1 45 18
M  V30 46 1 46 19
M  V30 47 1 47 19
M  V30 48 1 48 19
M  V30 49 1 20 49 CFG=3
M  V30 END BOND
M  V30 END CTAB
M  END
>  <i_epik_Tot_Q>  (1) 
-1

>  <i_epik_Tot_abs_Q>  (1) 
1

>  <i_i_glide_confnum>  (1) 
153

>  <i_i_glide_lignum>  (1) 
83

>  <i_i_glide_posenum>  (1) 
9

>  <i_i_glide_rotatable_bonds>  (1) 
8

>  <i_lp_mmshare_version>  (1) 
72125

>  <i_m_source_file_index>  (1) 
37

>  <i_f3d_flags>  (1) 
0

>  <num_sample>  (1) 
100

>  <b_lp_Chiralities_Consistent>  (1) 
1

>  <r_epik_Charging_Adjusted_Penalty>  (1) 
9.4165288777969193e-05

>  <r_epik_Ionization_Penalty>  (1) 
9.4165288777969193e-05

>  <r_epik_Ionization_Penalty_Charging>  (1) 
9.4165288777969193e-05

>  <r_epik_Ionization_Penalty_Neutral>  (1) 
0

>  <r_epik_State_Penalty>  (1) 
-0

>  <r_glide_ring_energy>  (1) 
0

>  <r_i_docking_score>  (1) 
-5.4124365433787354

>  <r_i_glide_ecoul>  (1) 
-0.53188197630797895

>  <r_i_glide_eff_state_penalty>  (1) 
-0

>  <r_i_glide_einternal>  (1) 
7.2429116851046498

>  <r_i_glide_emodel>  (1) 
-35.222650089443675

>  <r_i_glide_emodel_strain>  (1) 
0.38058389597786402

>  <r_i_glide_energy>  (1) 
-28.005635577480632

>  <r_i_glide_erotb>  (1) 
2.5456975872200465

>  <r_i_glide_esite>  (1) 
0

>  <r_i_glide_evdw>  (1) 
-27.473753601172653

>  <r_i_glide_gscore>  (1) 
-5.4124365433787354

>  <r_i_glide_gscore_strain>  (1) 
0

>  <r_i_glide_hbond>  (1) 
0

>  <r_i_glide_ligand_efficiency>  (1) 
-0.27062182716893679

>  <r_i_glide_ligand_efficiency_ln>  (1) 
-1.3545543527030808

>  <r_i_glide_ligand_efficiency_sa>  (1) 
-0.73458065510246418

>  <r_i_glide_lipo>  (1) 
-4.420195062269574

>  <r_i_glide_metal>  (1) 
-0

>  <r_i_glide_rewards>  (1) 
-2.0844690918243782

>  <r_lp_Energy>  (1) 
18.646117

>  <r_lp_tautomer_probability>  (1) 
1

>  <s_epik_cmdline>  (1) 
J2VwaWtfcHl0aG9uJywgJy1waHQnLCAnMS4wJywgJy1waCcsICc3LjQnLCAnLXRuJywgJzgnLCAnLW1hJywgJzUwMCcsICctaW1hZScsICc8aW5maWxlLm1hZT4nLCAnLW9tYWUnLCAnPG91dGZpbGUubWFlPic=

>  <s_epik_input>  (1) 
W0NIM11bQ0gyXVtDQEhdKFtDSDNdKVtDSDJdL1tDSF09W0NIXVxbQ0BIXTFbQ0gyXVtDSDJdW0NIMl1bQ0BAXTEoW0NIM10pL1tDSF09W0NIXVxbQ0gyXVtDSDJdQyg9TylbU0hd

>  <s_glide_docking_method>  (1) 
confgen

>  <s_i_glide_gridfile>  (1) 
gpcr_5ht2c_6bqh_protein_autoprepared_prepared

>  <s_lp_Force_Field>  (1) 
S-OPLS

>  <s_lp_Variant>  (1) 
DiffSBDD_36-4

>  <s_m_source_file>  (1) 
generated_GPCR_5HT2C_ligand_DiffSBDD_2026-06-23_prepared.sdf

>  <GenAI_Model>  (1) 
DiffSBDD

>  <Protein>  (1) 
GPCR_5HT2C

$$$$
DiffSBDD_93
     RDKit          3D

  0  0  0  0  0  0  0  0  0  0999 V3000
M  V30 BEGIN CTAB
M  V30 COUNTS 84 85 0 0 1
M  V30 BEGIN ATOM
M  V30 1 C 39.465907 28.073525 59.167380 0
M  V30 2 O 40.411386 28.164642 60.212298 0
M  V30 3 C 40.377195 30.728854 52.325780 0
M  V30 4 C 41.319397 34.323333 62.270191 0
M  V30 5 O 38.119859 30.137722 60.402721 0
M  V30 6 C 36.846058 35.835789 60.102248 0
M  V30 7 N 37.185260 36.890493 59.367681 0
M  V30 8 O 35.960085 35.058601 59.767774 0
M  V30 9 O 36.845138 29.737978 54.221976 0
M  V30 10 C 41.966697 33.987449 63.603473 0
M  V30 11 C 40.190425 30.307611 53.772260 0
M  V30 12 C 38.390407 31.743417 58.641656 0
M  V30 13 C 39.655085 29.579908 57.178157 0
M  V30 14 C 38.963631 34.791654 61.170037 0 CFG=2
M  V30 15 C 37.628698 35.613498 61.412028 0 CFG=1
M  V30 16 C 39.640166 28.410873 52.398173 0 CFG=1
M  V30 17 C 39.153318 28.253912 54.934620 0 CFG=1
M  V30 18 C 40.253808 27.222747 55.283813 0
M  V30 19 C 38.018649 32.950569 59.517448 0
M  V30 20 S 37.245137 30.137766 55.803083 0 CHG=1
M  V30 21 O 36.845159 32.237238 61.964051 0
M  V30 22 N 39.200383 29.389782 58.568256 0
M  V30 23 O 37.944365 31.662382 55.566664 0
M  V30 24 O 39.957886 29.705381 50.238649 0
M  V30 25 F 37.738526 27.071472 52.618971 0
M  V30 26 C 41.596610 32.883855 62.652146 0
M  V30 27 C 38.232529 32.465987 62.053709 0
M  V30 28 C 38.780552 33.257019 60.841494 0 CFG=2
M  V30 29 C 38.558373 30.350870 59.283331 0
M  V30 30 C 37.816624 36.949814 62.206921 0
M  V30 31 C 38.845083 26.843180 50.605958 0
M  V30 32 C 38.613296 28.998860 56.186893 0 CFG=2
M  V30 33 O 36.322189 38.746627 61.767828 0
M  V30 34 C 39.976430 35.029106 62.334832 0
M  V30 35 C 38.403984 27.791225 51.724136 0 CFG=2
M  V30 36 C 36.526585 37.737759 62.475271 0
M  V30 37 C 40.432220 29.434364 51.537394 0 CFG=1
M  V30 38 O 35.783775 37.320148 63.387057 0 CHG=-1
M  V30 39 N 39.329089 29.100364 53.689702 0 CFG=1 CHG=1
M  V30 40 H 38.538867 27.644052 59.553945 0
M  V30 41 H 39.843535 27.364511 58.431232 0
M  V30 42 H 39.958339 28.083361 61.039916 0
M  V30 43 H 39.527581 31.339208 52.029449 0
M  V30 44 H 41.245129 31.337779 52.150637 0
M  V30 45 H 41.949311 34.695995 61.465497 0
M  V30 46 H 37.907059 37.518293 59.687726 0
M  V30 47 H 36.709391 37.059342 58.494743 0
M  V30 48 H 35.902040 29.812595 54.188409 0
M  V30 49 H 43.019738 34.171680 63.767727 0
M  V30 50 H 41.358275 34.075381 64.501690 0
M  V30 51 H 39.769899 31.141269 54.302206 0
M  V30 52 H 41.131552 30.137760 54.282724 0
M  V30 53 H 39.245132 32.060779 58.061518 0
M  V30 54 H 37.545460 31.663487 57.973128 0
M  V30 55 H 40.588328 29.027545 57.123535 0
M  V30 56 H 39.961613 30.579092 56.890160 0
M  V30 57 H 39.449981 35.226894 60.295494 0
M  V30 58 H 36.978370 35.005833 62.039046 0
M  V30 59 H 40.312410 27.573960 52.567652 0
M  V30 60 H 38.316122 27.605791 54.695896 0
M  V30 61 H 39.924710 26.589277 56.108583 0
M  V30 62 H 40.470346 26.537724 54.464668 0
M  V30 63 H 41.183782 27.679174 55.613777 0
M  V30 64 H 38.162216 33.805243 58.856909 0
M  V30 65 H 36.943839 32.890956 59.668096 0
M  V30 66 H 36.427078 33.050015 61.715907 0
M  V30 67 H 37.308266 32.274041 55.925045 0
M  V30 68 H 40.495910 30.377672 49.845066 0
M  V30 69 H 42.408098 32.389339 62.119783 0
M  V30 70 H 40.782744 32.237466 62.964578 0
M  V30 71 H 38.750386 31.519587 62.188346 0
M  V30 72 H 38.445164 32.990310 62.968016 0
M  V30 73 H 39.787461 32.881645 60.661442 0
M  V30 74 H 38.230236 36.750129 63.194558 0
M  V30 75 H 38.530197 37.600119 61.701723 0
M  V30 76 H 39.239563 27.402341 49.767770 0
M  V30 77 H 39.637635 26.190858 50.967834 0
M  V30 78 H 38.057585 26.183133 50.226709 0
M  V30 79 H 38.101017 28.202379 56.731980 0
M  V30 80 H 40.229834 36.088427 62.373426 0
M  V30 81 H 39.514058 34.811008 63.295543 0
M  V30 82 H 37.707935 28.548609 51.367707 0
M  V30 83 H 41.458230 29.085865 51.422970 0
M  V30 84 H 38.399454 29.480564 53.531506 0
M  V30 END ATOM
M  V30 BEGIN BOND
M  V30 1 1 2 1
M  V30 2 1 7 6
M  V30 3 2 8 6
M  V30 4 1 10 4
M  V30 5 1 11 3
M  V30 6 1 15 6
M  V30 7 1 15 14
M  V30 8 1 18 17
M  V30 9 1 19 12
M  V30 10 1 20 9
M  V30 11 1 22 1
M  V30 12 1 22 13
M  V30 13 1 23 20
M  V30 14 1 26 4
M  V30 15 1 26 10
M  V30 16 1 27 21
M  V30 17 1 28 14
M  V30 18 1 28 19
M  V30 19 1 28 27
M  V30 20 2 29 5
M  V30 21 1 29 12
M  V30 22 1 29 22
M  V30 23 1 30 15
M  V30 24 1 32 13
M  V30 25 1 32 17
M  V30 26 1 32 20
M  V30 27 1 34 4
M  V30 28 1 34 14
M  V30 29 1 35 16
M  V30 30 1 35 25
M  V30 31 1 35 31
M  V30 32 1 36 30
M  V30 33 2 36 33
M  V30 34 1 37 3
M  V30 35 1 37 16
M  V30 36 1 37 24
M  V30 37 1 38 36
M  V30 38 1 39 11
M  V30 39 1 39 16
M  V30 40 1 39 17
M  V30 41 1 40 1
M  V30 42 1 41 1
M  V30 43 1 42 2
M  V30 44 1 43 3
M  V30 45 1 44 3
M  V30 46 1 45 4
M  V30 47 1 46 7
M  V30 48 1 47 7
M  V30 49 1 48 9
M  V30 50 1 49 10
M  V30 51 1 50 10
M  V30 52 1 51 11
M  V30 53 1 52 11
M  V30 54 1 53 12
M  V30 55 1 54 12
M  V30 56 1 55 13
M  V30 57 1 56 13
M  V30 58 1 14 57 CFG=3
M  V30 59 1 15 58 CFG=1
M  V30 60 1 16 59 CFG=1
M  V30 61 1 17 60 CFG=3
M  V30 62 1 61 18
M  V30 63 1 62 18
M  V30 64 1 63 18
M  V30 65 1 64 19
M  V30 66 1 65 19
M  V30 67 1 66 21
M  V30 68 1 67 23
M  V30 69 1 68 24
M  V30 70 1 69 26
M  V30 71 1 70 26
M  V30 72 1 71 27
M  V30 73 1 72 27
M  V30 74 1 28 73 CFG=3
M  V30 75 1 74 30
M  V30 76 1 75 30
M  V30 77 1 76 31
M  V30 78 1 77 31
M  V30 79 1 78 31
M  V30 80 1 32 79 CFG=1
M  V30 81 1 80 34
M  V30 82 1 81 34
M  V30 83 1 35 82 CFG=3
M  V30 84 1 37 83 CFG=3
M  V30 85 1 39 84 CFG=3
M  V30 END BOND
M  V30 END CTAB
M  END
>  <i_epik_Tot_Q>  (1) 
1

>  <i_epik_Tot_abs_Q>  (1) 
3

>  <i_i_glide_confnum>  (1) 
10749

>  <i_i_glide_lignum>  (1) 
224

>  <i_i_glide_posenum>  (1) 
35

>  <i_i_glide_rotatable_bonds>  (1) 
24

>  <i_lp_mmshare_version>  (1) 
72125

>  <i_m_source_file_index>  (1) 
94

>  <i_f3d_flags>  (1) 
0

>  <num_sample>  (1) 
100

>  <b_lp_Chiralities_Consistent>  (1) 
1

>  <r_epik_Charging_Adjusted_Penalty>  (1) 
0.90916677635763199

>  <r_epik_Ionization_Penalty>  (1) 
0.45507897092921873

>  <r_epik_Ionization_Penalty_Charging>  (1) 
0.45507471778648678

>  <r_epik_Ionization_Penalty_Neutral>  (1) 
4.2531427319391784e-06

>  <r_epik_State_Penalty>  (1) 
0.45409205857114521

>  <r_glide_ring_energy>  (1) 
0

>  <r_i_docking_score>  (1) 
-5.4111718637846549

>  <r_i_glide_ecoul>  (1) 
-2.5439753556109403

>  <r_i_glide_eff_state_penalty>  (1) 
0.45409205857114521

>  <r_i_glide_einternal>  (1) 
26.750355804340678

>  <r_i_glide_emodel>  (1) 
-37.884241266163727

>  <r_i_glide_emodel_strain>  (1) 
5.7412753685414941

>  <r_i_glide_energy>  (1) 
-30.598928323705302

>  <r_i_glide_erotb>  (1) 
0.82188833391367333

>  <r_i_glide_esite>  (1) 
-0.12337866218125933

>  <r_i_glide_evdw>  (1) 
-28.054952968094362

>  <r_i_glide_gscore>  (1) 
-5.8652639223558003

>  <r_i_glide_gscore_strain>  (1) 
0.43531884213537353

>  <r_i_glide_hbond>  (1) 
-0.39235472933110405

>  <r_i_glide_ligand_efficiency>  (1) 
-0.13874799650729885

>  <r_i_glide_ligand_efficiency_ln>  (1) 
-1.1603088528432899

>  <r_i_glide_ligand_efficiency_sa>  (1) 
-0.47052379345084155

>  <r_i_glide_lipo>  (1) 
-3.3503232112860335

>  <r_i_glide_metal>  (1) 
-0

>  <r_i_glide_rewards>  (1) 
-1.4720705438600901

>  <r_lp_Energy>  (1) 
27.571353999999999

>  <s_epik_Chemistry_Notes>  (1) 
This compound contains an acetal/aminal-like group ( X-CH(R)-Y where X, Y are N, S, or O) that may be acid/base labile, releasing an aldehyde.

>  <s_epik_cmdline>  (1) 
J2VwaWtfcHl0aG9uJywgJy1waHQnLCAnMS4wJywgJy1waCcsICc3LjQnLCAnLXRuJywgJzgnLCAnLW1hJywgJzUwMCcsICctaW1hZScsICc8aW5maWxlLm1hZT4nLCAnLW9tYWUnLCAnPG91dGZpbGUubWFlPic=

>  <s_epik_input>  (1) 
W0NIMl0xW0NIMl1bQ0hdMVtDSDJdW0NAQEhdKFtDQEBIXShDKD1PKVtOSDJdKVtDSDJdQyg9TylbT0hdKVtDQEBIXShbQ0gyXVtPSF0pW0NIMl1bQ0gyXUMoPU8pTihbQ0gyXVtPSF0pW0NIMl1bQ0BASF0oW1MrXShbT0hdKVtPSF0pW0NASF0oW0NIM10pTjJbQ0gyXVtDSDJdW0NASF0oW09IXSlbQ0BASF0yW0NASF0oRilbQ0gzXQ==

>  <s_glide_docking_method>  (1) 
confgen

>  <s_i_glide_gridfile>  (1) 
gpcr_5ht2c_6bqh_protein_autoprepared_prepared

>  <s_lp_Force_Field>  (1) 
S-OPLS

>  <s_lp_Variant>  (1) 
DiffSBDD_93-12

>  <s_m_source_file>  (1) 
generated_GPCR_5HT2C_ligand_DiffSBDD_2026-06-23_prepared.sdf

>  <GenAI_Model>  (1) 
DiffSBDD

>  <Protein>  (1) 
GPCR_5HT2C

$$$$
DiffSBDD_60
     RDKit          3D

  0  0  0  0  0  0  0  0  0  0999 V3000
M  V30 BEGIN CTAB
M  V30 COUNTS 34 34 0 0 1
M  V30 BEGIN ATOM
M  V30 1 C 37.125295 25.006467 56.404339 0 CFG=2
M  V30 2 C 39.080293 31.337769 53.837247 0
M  V30 3 C 37.651981 26.432103 56.479437 0
M  V30 4 C 38.468588 29.467356 56.057793 0 CFG=2
M  V30 5 S 39.645137 29.321975 52.032471 0
M  V30 6 C 38.621661 30.983395 56.298716 0
M  V30 7 C 38.449322 26.896568 57.461576 0
M  V30 8 C 38.810800 29.853105 53.560569 0 CFG=1
M  V30 9 S 39.054995 28.567628 57.530791 0
M  V30 10 O 37.645220 24.184864 57.430504 0
M  V30 11 C 39.243906 29.035350 54.791996 0
M  V30 12 C 37.439277 24.359522 55.051143 0
M  V30 13 C 38.275195 31.814860 55.054102 0
M  V30 14 C 38.705712 27.820931 51.631949 0
M  V30 15 H 36.045087 25.053326 56.533588 0
M  V30 16 H 38.845137 31.949178 52.968129 0
M  V30 17 H 40.144397 31.478502 54.025839 0
M  V30 18 H 37.349959 27.087976 55.681063 0
M  V30 19 H 37.404798 29.270118 55.926737 0
M  V30 20 H 37.986077 31.293348 57.129738 0
M  V30 21 H 39.645994 31.205252 56.596883 0
M  V30 22 H 38.760734 26.252613 58.270514 0
M  V30 23 H 37.740558 29.718192 53.400337 0
M  V30 24 H 38.581705 24.122274 57.320564 0
M  V30 25 H 40.308684 29.186903 54.967768 0
M  V30 26 H 39.113611 27.971586 54.602645 0
M  V30 27 H 37.012839 24.937742 54.230452 0
M  V30 28 H 38.514360 24.292191 54.885922 0
M  V30 29 H 37.028148 23.351142 54.990224 0
M  V30 30 H 37.207188 31.737723 54.846575 0
M  V30 31 H 38.473958 32.869838 55.245727 0
M  V30 32 H 39.063275 27.395016 50.694039 0
M  V30 33 H 38.818544 27.069385 52.413018 0
M  V30 34 H 37.645446 28.049456 51.520444 0
M  V30 END ATOM
M  V30 BEGIN BOND
M  V30 1 1 3 1
M  V30 2 1 6 4
M  V30 3 2 7 3
M  V30 4 1 8 2
M  V30 5 1 8 5
M  V30 6 1 9 4
M  V30 7 1 9 7
M  V30 8 1 10 1
M  V30 9 1 11 4
M  V30 10 1 11 8
M  V30 11 1 12 1
M  V30 12 1 13 2
M  V30 13 1 13 6
M  V30 14 1 14 5
M  V30 15 1 1 15 CFG=1
M  V30 16 1 16 2
M  V30 17 1 17 2
M  V30 18 1 18 3
M  V30 19 1 4 19 CFG=3
M  V30 20 1 20 6
M  V30 21 1 21 6
M  V30 22 1 22 7
M  V30 23 1 8 23 CFG=3
M  V30 24 1 24 10
M  V30 25 1 25 11
M  V30 26 1 26 11
M  V30 27 1 27 12
M  V30 28 1 28 12
M  V30 29 1 29 12
M  V30 30 1 30 13
M  V30 31 1 31 13
M  V30 32 1 32 14
M  V30 33 1 33 14
M  V30 34 1 34 14
M  V30 END BOND
M  V30 END CTAB
M  END
>  <i_epik_Tot_Q>  (1) 
0

>  <i_epik_Tot_abs_Q>  (1) 
0

>  <i_i_glide_confnum>  (1) 
15

>  <i_i_glide_lignum>  (1) 
132

>  <i_i_glide_posenum>  (1) 
24

>  <i_i_glide_rotatable_bonds>  (1) 
5

>  <i_lp_mmshare_version>  (1) 
72125

>  <i_m_source_file_index>  (1) 
61

>  <i_f3d_flags>  (1) 
0

>  <num_sample>  (1) 
100

>  <b_lp_Chiralities_Consistent>  (1) 
1

>  <r_epik_Charging_Adjusted_Penalty>  (1) 
0

>  <r_epik_Ionization_Penalty>  (1) 
3.7959940703639166e-07

>  <r_epik_Ionization_Penalty_Charging>  (1) 
0

>  <r_epik_Ionization_Penalty_Neutral>  (1) 
3.7959940703639166e-07

>  <r_epik_State_Penalty>  (1) 
-0

>  <r_glide_ring_energy>  (1) 
0

>  <r_i_docking_score>  (1) 
-5.4099275079571516

>  <r_i_glide_ecoul>  (1) 
-0.60571869522860278

>  <r_i_glide_eff_state_penalty>  (1) 
-0

>  <r_i_glide_einternal>  (1) 
1.2873144578086739

>  <r_i_glide_emodel>  (1) 
-36.88102217727188

>  <r_i_glide_emodel_strain>  (1) 
0

>  <r_i_glide_energy>  (1) 
-27.976951161366738

>  <r_i_glide_erotb>  (1) 
0.95139353164667573

>  <r_i_glide_esite>  (1) 
0

>  <r_i_glide_evdw>  (1) 
-27.371232466138135

>  <r_i_glide_gscore>  (1) 
-5.4099275079571516

>  <r_i_glide_gscore_strain>  (1) 
0

>  <r_i_glide_hbond>  (1) 
0

>  <r_i_glide_ligand_efficiency>  (1) 
-0.38642339342551085

>  <r_i_glide_ligand_efficiency_ln>  (1) 
-1.4866288211318506

>  <r_i_glide_ligand_efficiency_sa>  (1) 
-0.93133535236083642

>  <r_i_glide_lipo>  (1) 
-2.4799775843715759

>  <r_i_glide_metal>  (1) 
-0

>  <r_i_glide_rewards>  (1) 
-2.4219240276410532

>  <r_lp_Energy>  (1) 
4.4605119999999996

>  <r_lp_tautomer_probability>  (1) 
1

>  <s_epik_cmdline>  (1) 
J2VwaWtfcHl0aG9uJywgJy1waHQnLCAnMS4wJywgJy1waCcsICc3LjQnLCAnLXRuJywgJzgnLCAnLW1hJywgJzUwMCcsICctaW1hZScsICc8aW5maWxlLm1hZT4nLCAnLW9tYWUnLCAnPG91dGZpbGUubWFlPic=

>  <s_epik_input>  (1) 
W09IXVtDQEhdKFtDSDNdKS9bQ0hdPVtDSF0vU1tDQEhdMVtDSDJdW0NIMl1bQ0gyXVtDQEhdKFtDSDJdMSlTW0NIM10=

>  <s_glide_docking_method>  (1) 
confgen

>  <s_i_glide_gridfile>  (1) 
gpcr_5ht2c_6bqh_protein_autoprepared_prepared

>  <s_lp_Force_Field>  (1) 
S-OPLS

>  <s_lp_Variant>  (1) 
DiffSBDD_60-1

>  <s_m_source_file>  (1) 
generated_GPCR_5HT2C_ligand_DiffSBDD_2026-06-23_prepared.sdf

>  <GenAI_Model>  (1) 
DiffSBDD

>  <Protein>  (1) 
GPCR_5HT2C

$$$$
DiffSBDD_54
     RDKit          3D

  0  0  0  0  0  0  0  0  0  0999 V3000
M  V30 BEGIN CTAB
M  V30 COUNTS 42 43 0 0 1
M  V30 BEGIN ATOM
M  V30 1 C 38.601574 26.504186 54.762418 0
M  V30 2 C 38.248219 29.792867 58.409926 0
M  V30 3 C 37.136652 27.673922 57.767756 0
M  V30 4 C 39.483309 27.673564 50.535232 0
M  V30 5 C 38.295375 28.523879 52.595487 0
M  V30 6 S 39.573384 28.354587 56.501331 0 CHG=1
M  V30 7 C 39.605084 25.834062 56.960414 0
M  V30 8 N 39.069173 29.544433 59.413196 0
M  V30 9 C 39.014323 30.329410 54.208256 0
M  V30 10 C 38.867511 30.709735 60.139076 0
M  V30 11 N 38.026137 31.606773 59.586257 0
M  V30 12 N 37.645052 30.957852 58.475966 0
M  V30 13 N 39.138325 27.884878 54.877195 0 CFG=2 CHG=1
M  V30 14 C 38.394546 28.916407 54.084168 0 CFG=2
M  V30 15 C 39.528057 25.525180 55.468593 0
M  V30 16 C 39.644722 28.162253 51.960656 0
M  V30 17 O 40.096867 27.150162 57.237201 0
M  V30 18 C 37.982966 28.841393 57.279982 0 CFG=2
M  V30 19 H 38.553511 26.184671 53.723085 0
M  V30 20 H 37.578644 26.434928 55.122410 0
M  V30 21 H 36.203136 28.069559 58.167736 0
M  V30 22 H 37.646662 27.147621 58.567792 0
M  V30 23 H 36.872540 26.937796 57.014956 0
M  V30 24 H 40.445106 27.328417 50.167657 0
M  V30 25 H 39.125330 28.467040 49.877659 0
M  V30 26 H 38.791500 26.832796 50.479984 0
M  V30 27 H 37.846771 29.337755 52.029215 0
M  V30 28 H 37.596539 27.696078 52.471178 0
M  V30 29 H 38.648740 25.624426 57.429357 0
M  V30 30 H 40.293489 25.131816 57.432656 0
M  V30 31 H 38.540054 31.028013 53.518949 0
M  V30 32 H 40.081026 30.334328 53.982400 0
M  V30 33 H 38.883304 30.764709 55.198287 0
M  V30 34 H 39.355012 30.899739 61.084676 0
M  V30 35 H 36.959694 31.338143 57.820805 0
M  V30 36 H 37.368571 28.966784 54.448711 0
M  V30 37 H 39.162865 24.510939 55.319277 0
M  V30 38 H 40.521033 25.571574 55.025816 0
M  V30 39 H 40.319418 29.018640 51.972482 0
M  V30 40 H 40.129595 27.358761 52.512181 0
M  V30 41 H 37.395430 29.397656 56.552506 0
M  V30 42 H 40.011396 27.817027 54.376181 0
M  V30 END ATOM
M  V30 BEGIN BOND
M  V30 1 2 8 2
M  V30 2 1 10 8
M  V30 3 2 11 10
M  V30 4 1 12 2
M  V30 5 1 12 11
M  V30 6 1 13 1
M  V30 7 1 13 6
M  V30 8 1 14 5
M  V30 9 1 14 9
M  V30 10 1 14 13
M  V30 11 1 15 1
M  V30 12 1 15 7
M  V30 13 1 16 4
M  V30 14 1 16 5
M  V30 15 1 6 17 CFG=1
M  V30 16 1 17 7
M  V30 17 1 18 2
M  V30 18 1 18 3
M  V30 19 1 18 6
M  V30 20 1 19 1
M  V30 21 1 20 1
M  V30 22 1 21 3
M  V30 23 1 22 3
M  V30 24 1 23 3
M  V30 25 1 24 4
M  V30 26 1 25 4
M  V30 27 1 26 4
M  V30 28 1 27 5
M  V30 29 1 28 5
M  V30 30 1 29 7
M  V30 31 1 30 7
M  V30 32 1 31 9
M  V30 33 1 32 9
M  V30 34 1 33 9
M  V30 35 1 34 10
M  V30 36 1 35 12
M  V30 37 1 14 36 CFG=1
M  V30 38 1 37 15
M  V30 39 1 38 15
M  V30 40 1 39 16
M  V30 41 1 40 16
M  V30 42 1 18 41 CFG=3
M  V30 43 1 13 42 CFG=3
M  V30 END BOND
M  V30 END CTAB
M  END
>  <i_epik_Tot_Q>  (1) 
2

>  <i_epik_Tot_abs_Q>  (1) 
2

>  <i_i_glide_confnum>  (1) 
39

>  <i_i_glide_lignum>  (1) 
116

>  <i_i_glide_posenum>  (1) 
281

>  <i_i_glide_rotatable_bonds>  (1) 
5

>  <i_lp_mmshare_version>  (1) 
72125

>  <i_m_source_file_index>  (1) 
55

>  <i_f3d_flags>  (1) 
0

>  <num_sample>  (1) 
100

>  <b_lp_Chiralities_Consistent>  (1) 
1

>  <r_epik_Charging_Adjusted_Penalty>  (1) 
0.22285261290592212

>  <r_epik_Ionization_Penalty>  (1) 
0.11376846567106323

>  <r_epik_Ionization_Penalty_Charging>  (1) 
0.11142630645296109

>  <r_epik_Ionization_Penalty_Neutral>  (1) 
0.0023421592181021404

>  <r_epik_State_Penalty>  (1) 
0.11142630645296105

>  <r_glide_ring_energy>  (1) 
0

>  <r_i_docking_score>  (1) 
-5.404706295589663

>  <r_i_glide_ecoul>  (1) 
-3.065940846617683

>  <r_i_glide_eff_state_penalty>  (1) 
0.11142630645296105

>  <r_i_glide_einternal>  (1) 
3.6097493675367724

>  <r_i_glide_emodel>  (1) 
-41.908323035791099

>  <r_i_glide_emodel_strain>  (1) 
1.7828099423411459e-06

>  <r_i_glide_energy>  (1) 
-26.558855962671501

>  <r_i_glide_erotb>  (1) 
0.96597774364564237

>  <r_i_glide_esite>  (1) 
-0.10686930474708256

>  <r_i_glide_evdw>  (1) 
-23.492915116053819

>  <r_i_glide_gscore>  (1) 
-5.5161326020426245

>  <r_i_glide_gscore_strain>  (1) 
0

>  <r_i_glide_hbond>  (1) 
-0.16

>  <r_i_glide_ligand_efficiency>  (1) 
-0.3002614608660924

>  <r_i_glide_ligand_efficiency_ln>  (1) 
-1.3892518843783763

>  <r_i_glide_ligand_efficiency_sa>  (1) 
-0.78690763957740306

>  <r_i_glide_lipo>  (1) 
-2.5263788102345406

>  <r_i_glide_metal>  (1) 
-0

>  <r_i_glide_rewards>  (1) 
-2.0543253479112984

>  <r_lp_Energy>  (1) 
20.164648

>  <r_lp_tautomer_probability>  (1) 
0.94828448534560383

>  <s_epik_cmdline>  (1) 
J2VwaWtfcHl0aG9uJywgJy1waHQnLCAnMS4wJywgJy1waCcsICc3LjQnLCAnLXRuJywgJzgnLCAnLW1hJywgJzUwMCcsICctaW1hZScsICc8aW5maWxlLm1hZT4nLCAnLW9tYWUnLCAnPG91dGZpbGUubWFlPic=

>  <s_epik_input>  (1) 
W0NIM11bQ0gyXVtDSDJdW0NASF0oW0NIM10pTihbQ0gyXVtDSDJdW0NIMl1PMSlbUytdMVtDQEBIXShbQ0gzXSljMm5bY0hdbltuSF0y

>  <s_glide_docking_method>  (1) 
confgen

>  <s_i_glide_gridfile>  (1) 
gpcr_5ht2c_6bqh_protein_autoprepared_prepared

>  <s_lp_Force_Field>  (1) 
S-OPLS

>  <s_lp_Variant>  (1) 
DiffSBDD_54-2

>  <s_m_source_file>  (1) 
generated_GPCR_5HT2C_ligand_DiffSBDD_2026-06-23_prepared.sdf

>  <GenAI_Model>  (1) 
DiffSBDD

>  <Protein>  (1) 
GPCR_5HT2C

$$$$
DiffSBDD_0
     RDKit          3D

  0  0  0  0  0  0  0  0  0  0999 V3000
M  V30 BEGIN CTAB
M  V30 COUNTS 61 60 0 0 1
M  V30 BEGIN ATOM
M  V30 1 C 40.259631 29.302991 51.488534 0
M  V30 2 C 38.006868 26.350425 55.145754 0
M  V30 3 C 38.094936 36.823143 61.167433 0 CFG=1
M  V30 4 C 37.918402 29.625210 56.252277 0
M  V30 5 C 38.164466 27.765052 54.558300 0 CFG=1
M  V30 6 C 38.652704 30.899247 59.946203 0
M  V30 7 C 38.212109 35.289441 61.156313 0
M  V30 8 C 37.983844 30.110998 58.780526 0 CFG=2
M  V30 9 C 39.804702 28.546719 50.232846 0
M  V30 10 C 38.672795 28.690911 55.647170 0
M  V30 11 C 38.427728 30.546359 57.346388 0 CFG=2
M  V30 12 C 39.083177 27.778307 53.310160 0 CFG=1
M  V30 13 O 38.498212 26.937910 52.348517 0
M  V30 14 C 37.216541 34.599893 60.203360 0
M  V30 15 C 37.240248 33.060919 60.269458 0
M  V30 16 O 38.045138 31.869324 57.033642 0
M  V30 17 C 39.278635 29.182850 52.688411 0
M  V30 18 O 36.907082 37.212247 61.824852 0
M  V30 19 C 38.617831 32.442936 59.965589 0
M  V30 20 C 40.508795 30.780585 51.147524 0
M  V30 21 C 39.281915 37.487373 61.880230 0
M  V30 22 O 36.571597 30.152451 58.901935 0
M  V30 23 C 38.345529 28.624758 59.005408 0
M  V30 24 H 41.224916 28.885724 51.767626 0
M  V30 25 H 37.366482 26.361747 56.028590 0
M  V30 26 H 37.556242 25.662224 54.430472 0
M  V30 27 H 38.971516 25.937989 55.442212 0
M  V30 28 H 38.045145 37.188894 60.141006 0
M  V30 29 H 36.883472 29.746860 55.963654 0
M  V30 30 H 37.174175 28.115760 54.262039 0
M  V30 31 H 39.704244 30.614116 59.968118 0
M  V30 32 H 38.250132 30.539320 60.894281 0
M  V30 33 H 39.223740 35.032403 60.841758 0
M  V30 34 H 38.101562 34.899046 62.167647 0
M  V30 35 H 38.729426 28.623456 50.097835 0
M  V30 36 H 40.287035 28.937779 49.337042 0
M  V30 37 H 40.045092 27.485368 50.297514 0
M  V30 38 H 39.706878 28.569820 55.937445 0
M  V30 39 H 39.518065 30.528048 57.314765 0
M  V30 40 H 40.045137 27.337209 53.566466 0
M  V30 41 H 37.615672 27.224140 52.161826 0
M  V30 42 H 36.204573 34.937021 60.431803 0
M  V30 43 H 37.412522 34.918756 59.179033 0
M  V30 44 H 36.901757 32.730618 61.251754 0
M  V30 45 H 36.508045 32.687107 59.555055 0
M  V30 46 H 37.089376 31.913931 56.967067 0
M  V30 47 H 38.304029 29.575327 52.410512 0
M  V30 48 H 39.645596 29.850764 53.468277 0
M  V30 49 H 36.905439 36.838562 62.693220 0
M  V30 50 H 39.034515 32.859730 59.050899 0
M  V30 51 H 39.308097 32.756438 60.748566 0
M  V30 52 H 39.610509 31.265186 50.769160 0
M  V30 53 H 40.844395 31.337689 52.022127 0
M  V30 54 H 41.280589 30.883908 50.384201 0
M  V30 55 H 40.232204 37.150822 61.464038 0
M  V30 56 H 39.245657 38.570504 61.767868 0
M  V30 57 H 39.294017 37.257466 62.946165 0
M  V30 58 H 36.226037 30.842976 58.343067 0
M  V30 59 H 39.407190 28.442758 58.832865 0
M  V30 60 H 38.127865 28.311747 60.026078 0
M  V30 61 H 37.789402 27.958506 58.345011 0
M  V30 END ATOM
M  V30 BEGIN BOND
M  V30 1 1 5 2
M  V30 2 1 7 3
M  V30 3 1 8 6
M  V30 4 1 9 1
M  V30 5 2 10 4
M  V30 6 1 10 5
M  V30 7 1 11 4
M  V30 8 1 11 8
M  V30 9 1 12 5
M  V30 10 1 13 12
M  V30 11 1 14 7
M  V30 12 1 15 14
M  V30 13 1 16 11
M  V30 14 1 17 1
M  V30 15 1 17 12
M  V30 16 1 18 3
M  V30 17 1 19 6
M  V30 18 1 19 15
M  V30 19 1 20 1
M  V30 20 1 21 3
M  V30 21 1 8 22 CFG=3
M  V30 22 1 23 8
M  V30 23 1 24 1
M  V30 24 1 25 2
M  V30 25 1 26 2
M  V30 26 1 27 2
M  V30 27 1 3 28 CFG=3
M  V30 28 1 29 4
M  V30 29 1 5 30 CFG=3
M  V30 30 1 31 6
M  V30 31 1 32 6
M  V30 32 1 33 7
M  V30 33 1 34 7
M  V30 34 1 35 9
M  V30 35 1 36 9
M  V30 36 1 37 9
M  V30 37 1 38 10
M  V30 38 1 11 39 CFG=1
M  V30 39 1 12 40 CFG=1
M  V30 40 1 41 13
M  V30 41 1 42 14
M  V30 42 1 43 14
M  V30 43 1 44 15
M  V30 44 1 45 15
M  V30 45 1 46 16
M  V30 46 1 47 17
M  V30 47 1 48 17
M  V30 48 1 49 18
M  V30 49 1 50 19
M  V30 50 1 51 19
M  V30 51 1 52 20
M  V30 52 1 53 20
M  V30 53 1 54 20
M  V30 54 1 55 21
M  V30 55 1 56 21
M  V30 56 1 57 21
M  V30 57 1 58 22
M  V30 58 1 59 23
M  V30 59 1 60 23
M  V30 60 1 61 23
M  V30 END BOND
M  V30 END CTAB
M  END
>  <i_epik_Tot_Q>  (1) 
0

>  <i_epik_Tot_abs_Q>  (1) 
0

>  <i_i_glide_confnum>  (1) 
1681

>  <i_i_glide_lignum>  (1) 
1

>  <i_i_glide_posenum>  (1) 
24

>  <i_i_glide_rotatable_bonds>  (1) 
16

>  <i_lp_mmshare_version>  (1) 
72125

>  <i_m_source_file_index>  (1) 
1

>  <i_f3d_flags>  (1) 
0

>  <num_sample>  (1) 
100

>  <b_lp_Chiralities_Consistent>  (1) 
1

>  <r_epik_Charging_Adjusted_Penalty>  (1) 
0

>  <r_epik_Ionization_Penalty>  (1) 
5.9169763795933225e-07

>  <r_epik_Ionization_Penalty_Charging>  (1) 
0

>  <r_epik_Ionization_Penalty_Neutral>  (1) 
5.9169763795933225e-07

>  <r_epik_State_Penalty>  (1) 
-0

>  <r_glide_ring_energy>  (1) 
0

>  <r_i_docking_score>  (1) 
-5.4007326096809516

>  <r_i_glide_ecoul>  (1) 
-7.4500161364521276

>  <r_i_glide_eff_state_penalty>  (1) 
-0

>  <r_i_glide_einternal>  (1) 
5.7703858522679141

>  <r_i_glide_emodel>  (1) 
-45.417221650929456

>  <r_i_glide_emodel_strain>  (1) 
0.54214006933619174

>  <r_i_glide_energy>  (1) 
-37.933673556614274

>  <r_i_glide_erotb>  (1) 
1.894024340436764

>  <r_i_glide_esite>  (1) 
0

>  <r_i_glide_evdw>  (1) 
-30.483657420162146

>  <r_i_glide_gscore>  (1) 
-5.4007326096809516

>  <r_i_glide_gscore_strain>  (1) 
0

>  <r_i_glide_hbond>  (1) 
-0.35593336903528122

>  <r_i_glide_ligand_efficiency>  (1) 
-0.23481446129047615

>  <r_i_glide_ligand_efficiency_ln>  (1) 
-1.305946116156647

>  <r_i_glide_ligand_efficiency_sa>  (1) 
-0.66778109285561882

>  <r_i_glide_lipo>  (1) 
-2.8602642617492253

>  <r_i_glide_metal>  (1) 
-0

>  <r_i_glide_rewards>  (1) 
-1.4368740278572834

>  <r_lp_Energy>  (1) 
8.761194999999999

>  <r_lp_tautomer_probability>  (1) 
1

>  <s_epik_cmdline>  (1) 
J2VwaWtfcHl0aG9uJywgJy1waHQnLCAnMS4wJywgJy1waCcsICc3LjQnLCAnLXRuJywgJzgnLCAnLW1hJywgJzUwMCcsICctaW1hZScsICc8aW5maWxlLm1hZT4nLCAnLW9tYWUnLCAnPG91dGZpbGUubWFlPic=

>  <s_epik_input>  (1) 
W0NIM11bQ0hdKFtDSDNdKVtDSDJdW0NASF0oW09IXSlbQ0BASF0oW0NIM10pXFtDSF09W0NIXVxbQ0BASF0oW09IXSlbQ0BAXShbT0hdKShbQ0gzXSlbQ0gyXVtDSDJdW0NIMl1bQ0gyXVtDSDJdW0NAQEhdKFtPSF0pW0NIM10=

>  <s_glide_docking_method>  (1) 
confgen

>  <s_i_glide_gridfile>  (1) 
gpcr_5ht2c_6bqh_protein_autoprepared_prepared

>  <s_lp_Force_Field>  (1) 
S-OPLS

>  <s_lp_Variant>  (1) 
DiffSBDD_0-1

>  <s_m_source_file>  (1) 
generated_GPCR_5HT2C_ligand_DiffSBDD_2026-06-23_prepared.sdf

>  <GenAI_Model>  (1) 
DiffSBDD

>  <Protein>  (1) 
GPCR_5HT2C

$$$$
DiffSBDD_86
     RDKit          3D

  0  0  0  0  0  0  0  0  0  0999 V3000
M  V30 BEGIN CTAB
M  V30 COUNTS 78 80 0 0 1
M  V30 BEGIN ATOM
M  V30 1 C 41.094453 33.671435 63.589422 0
M  V30 2 C 38.280575 24.993869 56.207314 0
M  V30 3 C 37.424083 30.455531 58.909520 0 CFG=2
M  V30 4 C 36.991460 24.531931 56.886836 0
M  V30 5 N 38.380297 29.842959 59.882767 0
M  V30 6 C 40.844246 28.551598 51.461049 0
M  V30 7 N 40.704035 33.284808 62.309570 0
M  V30 8 C 38.607180 30.289371 55.200302 0
M  V30 9 O 39.238394 32.937707 56.809459 0
M  V30 10 O 36.845247 28.055097 53.231760 0
M  V30 11 C 38.827540 29.323252 52.923903 0 CFG=2
M  V30 12 C 38.842082 30.176993 56.715302 0
M  V30 13 C 38.900813 28.581458 59.737104 0
M  V30 14 N 39.339399 29.281260 54.353702 0 CFG=2 CHG=1
M  V30 15 C 37.904944 28.138322 52.585884 0
M  V30 16 C 41.361409 34.981207 64.056140 0
M  V30 17 C 41.875190 34.122743 66.290525 0
M  V30 18 O 39.699832 28.152112 60.597826 0
M  V30 19 C 38.713001 30.654353 61.067647 0
M  V30 20 C 41.616558 32.815783 65.849718 0
M  V30 21 C 36.203476 29.562338 58.613480 0
M  V30 22 S 40.853670 31.082639 63.699256 0
M  V30 23 O 38.291651 27.337911 51.712503 0 CHG=-1
M  V30 24 C 39.401169 27.896824 54.954021 0
M  V30 25 C 38.051368 31.112576 57.633542 0 CFG=2
M  V30 26 C 39.655333 30.490096 50.528772 0
M  V30 27 O 38.816130 32.241886 58.014126 0
M  V30 28 N 39.170488 25.712702 57.148599 0 CHG=1
M  V30 29 C 40.095448 31.299080 60.950385 0
M  V30 30 C 41.232314 32.594711 64.517834 0
M  V30 31 O 41.243827 36.036571 63.197464 0
M  V30 32 C 40.423542 27.627749 56.081397 0
M  V30 33 C 40.530641 31.964281 62.207068 0
M  V30 34 C 40.259500 31.108631 51.743049 0
M  V30 35 C 39.879881 29.662221 51.815111 0
M  V30 36 O 38.570447 27.877583 58.755816 0 CHG=-1
M  V30 37 C 41.749694 35.203720 65.396931 0
M  V30 38 C 40.445628 26.168803 56.556745 0
M  V30 39 H 38.025035 25.598265 55.340229 0
M  V30 40 H 38.820900 24.137542 55.810749 0
M  V30 41 H 36.962411 31.302227 59.420654 0
M  V30 42 H 36.347582 24.019588 56.168778 0
M  V30 43 H 37.199511 23.842957 57.706321 0
M  V30 44 H 36.428589 25.378762 57.284642 0
M  V30 45 H 41.852583 28.937693 51.367880 0
M  V30 46 H 40.812459 27.737823 52.167581 0
M  V30 47 H 40.538260 28.108623 50.514612 0
M  V30 48 H 37.532870 30.170310 55.039095 0
M  V30 49 H 38.854413 31.287077 54.841971 0
M  V30 50 H 40.135517 32.645735 56.742244 0
M  V30 51 H 38.141476 30.163455 52.967632 0
M  V30 52 H 39.895996 30.229858 56.984944 0
M  V30 53 H 38.439958 29.205179 56.929992 0
M  V30 54 H 42.171596 34.298673 67.314816 0
M  V30 55 H 37.971571 31.429026 61.268358 0
M  V30 56 H 38.679346 30.019134 61.953060 0
M  V30 57 H 41.712433 31.983753 66.533021 0
M  V30 58 H 35.396984 30.137626 58.167756 0
M  V30 59 H 36.440007 28.749527 57.929484 0
M  V30 60 H 35.796408 29.140451 59.528699 0
M  V30 61 H 38.401963 27.662674 55.315434 0
M  V30 62 H 39.648218 27.163145 54.185968 0
M  V30 63 H 37.245162 31.509301 57.038605 0
M  V30 64 H 40.344148 30.325242 49.701755 0
M  V30 65 H 38.719278 30.892867 50.167776 0
M  V30 66 H 39.405859 25.066538 57.887261 0
M  V30 67 H 40.849377 30.566189 60.660706 0
M  V30 68 H 40.045868 32.053379 60.167815 0
M  V30 69 H 40.968592 35.747325 62.339491 0
M  V30 70 H 41.411117 27.932585 55.768665 0
M  V30 71 H 40.275119 28.198435 56.983033 0
M  V30 72 H 39.640111 31.775147 52.330344 0
M  V30 73 H 41.312034 31.337714 51.718729 0
M  V30 74 H 41.951169 36.207554 65.739194 0
M  V30 75 H 40.788414 25.493612 55.770254 0
M  V30 76 H 41.177165 26.137704 57.363676 0
M  V30 77 H 38.718961 26.510678 57.602732 0
M  V30 78 H 40.294029 29.603191 54.290905 0
M  V30 END ATOM
M  V30 BEGIN BOND
M  V30 1 1 4 2
M  V30 2 1 5 3
M  V30 3 1 7 1
M  V30 4 1 12 8
M  V30 5 1 13 5
M  V30 6 1 14 8
M  V30 7 1 14 11
M  V30 8 2 15 10
M  V30 9 1 15 11
M  V30 10 2 16 1
M  V30 11 2 18 13
M  V30 12 1 19 5
M  V30 13 1 20 17
M  V30 14 1 21 3
M  V30 15 1 23 15
M  V30 16 1 24 14
M  V30 17 1 25 3
M  V30 18 1 25 12
M  V30 19 1 27 9
M  V30 20 1 27 25
M  V30 21 1 28 2
M  V30 22 1 29 19
M  V30 23 1 30 1
M  V30 24 2 30 20
M  V30 25 1 30 22
M  V30 26 1 31 16
M  V30 27 1 32 24
M  V30 28 2 33 7
M  V30 29 1 33 22
M  V30 30 1 33 29
M  V30 31 1 34 26
M  V30 32 1 35 6
M  V30 33 1 35 11
M  V30 34 1 35 26
M  V30 35 1 35 34
M  V30 36 1 36 13
M  V30 37 1 37 16
M  V30 38 2 37 17
M  V30 39 1 38 28
M  V30 40 1 38 32
M  V30 41 1 39 2
M  V30 42 1 40 2
M  V30 43 1 3 41 CFG=1
M  V30 44 1 42 4
M  V30 45 1 43 4
M  V30 46 1 44 4
M  V30 47 1 45 6
M  V30 48 1 46 6
M  V30 49 1 47 6
M  V30 50 1 48 8
M  V30 51 1 49 8
M  V30 52 1 50 9
M  V30 53 1 11 51 CFG=1
M  V30 54 1 52 12
M  V30 55 1 53 12
M  V30 56 1 54 17
M  V30 57 1 55 19
M  V30 58 1 56 19
M  V30 59 1 57 20
M  V30 60 1 58 21
M  V30 61 1 59 21
M  V30 62 1 60 21
M  V30 63 1 61 24
M  V30 64 1 62 24
M  V30 65 1 25 63 CFG=3
M  V30 66 1 64 26
M  V30 67 1 65 26
M  V30 68 1 66 28
M  V30 69 1 67 29
M  V30 70 1 68 29
M  V30 71 1 69 31
M  V30 72 1 70 32
M  V30 73 1 71 32
M  V30 74 1 72 34
M  V30 75 1 73 34
M  V30 76 1 74 37
M  V30 77 1 75 38
M  V30 78 1 76 38
M  V30 79 1 77 28
M  V30 80 1 14 78 CFG=3
M  V30 END BOND
M  V30 END CTAB
M  END
>  <i_epik_Tot_Q>  (1) 
0

>  <i_epik_Tot_abs_Q>  (1) 
4

>  <i_i_glide_confnum>  (1) 
157

>  <i_i_glide_lignum>  (1) 
204

>  <i_i_glide_posenum>  (1) 
109

>  <i_i_glide_rotatable_bonds>  (1) 
20

>  <i_lp_mmshare_version>  (1) 
72125

>  <i_m_source_file_index>  (1) 
87

>  <i_f3d_flags>  (1) 
0

>  <num_sample>  (1) 
100

>  <b_lp_Chiralities_Consistent>  (1) 
1

>  <r_epik_Charging_Adjusted_Penalty>  (1) 
0.22044164317972559

>  <r_epik_Ionization_Penalty>  (1) 
0.19516572318186753

>  <r_epik_Ionization_Penalty_Charging>  (1) 
0.026579669222116228

>  <r_epik_Ionization_Penalty_Neutral>  (1) 
0.16858605395975129

>  <r_epik_State_Penalty>  (1) 
0.19386197395760935

>  <r_glide_ring_energy>  (1) 
0

>  <r_i_docking_score>  (1) 
-5.3969494637463562

>  <r_i_glide_ecoul>  (1) 
0.70273908094477211

>  <r_i_glide_eff_state_penalty>  (1) 
0.19386197395760935

>  <r_i_glide_einternal>  (1) 
9.8183855759914564

>  <r_i_glide_emodel>  (1) 
-49.644397118979256

>  <r_i_glide_emodel_strain>  (1) 
4.9585823072954227

>  <r_i_glide_energy>  (1) 
-37.481414193402337

>  <r_i_glide_erotb>  (1) 
0.94715796475939662

>  <r_i_glide_esite>  (1) 
-0.065657127740438276

>  <r_i_glide_evdw>  (1) 
-38.184153274347111

>  <r_i_glide_gscore>  (1) 
-5.5908114377039659

>  <r_i_glide_gscore_strain>  (1) 
0.23964557682385568

>  <r_i_glide_hbond>  (1) 
0

>  <r_i_glide_ligand_efficiency>  (1) 
-0.14202498588806201

>  <r_i_glide_ligand_efficiency_ln>  (1) 
-1.163741066551909

>  <r_i_glide_ligand_efficiency_sa>  (1) 
-0.47748450970663436

>  <r_i_glide_lipo>  (1) 
-3.5047351133791249

>  <r_i_glide_metal>  (1) 
-0

>  <r_i_glide_rewards>  (1) 
-1.403425936592015

>  <r_lp_Energy>  (1) 
44.186366999999997

>  <s_epik_cmdline>  (1) 
J2VwaWtfcHl0aG9uJywgJy1waHQnLCAnMS4wJywgJy1waCcsICc3LjQnLCAnLXRuJywgJzgnLCAnLW1hJywgJzUwMCcsICctaW1hZScsICc8aW5maWxlLm1hZT4nLCAnLW9tYWUnLCAnPG91dGZpbGUubWFlPic=

>  <s_epik_input>  (1) 
W09IXWMxW2NIXVtjSF1bY0hdYyhjMTIpc2MobjIpW0NIMl1bQ0gyXU4oQyg9TylbT0hdKVtDQEhdKFtDSDNdKVtDQEBIXShPW09IXSlbQ0gyXVtDSDJdTihbQ0BIXShDKD1PKVtPSF0pQzMoW0NIM10pW0NIMl1bQ0gyXTMpW0NIMl1bQ0gyXVtDSDJdW05IXVtDSDJdW0NIM10=

>  <s_glide_docking_method>  (1) 
confgen

>  <s_i_glide_gridfile>  (1) 
gpcr_5ht2c_6bqh_protein_autoprepared_prepared

>  <s_lp_Force_Field>  (1) 
S-OPLS

>  <s_lp_Variant>  (1) 
DiffSBDD_86-1

>  <s_m_source_file>  (1) 
generated_GPCR_5HT2C_ligand_DiffSBDD_2026-06-23_prepared.sdf

>  <GenAI_Model>  (1) 
DiffSBDD

>  <Protein>  (1) 
GPCR_5HT2C

$$$$
DiffSBDD_73
     RDKit          3D

  0  0  0  0  0  0  0  0  0  0999 V3000
M  V30 BEGIN CTAB
M  V30 COUNTS 65 66 0 0 1
M  V30 BEGIN ATOM
M  V30 1 C 37.588687 33.428998 60.515978 0 CFG=1
M  V30 2 C 38.193210 29.169795 58.573860 0
M  V30 3 N 38.140198 26.963666 56.022942 0
M  V30 4 C 36.932973 37.213732 60.652662 0
M  V30 5 C 36.991085 35.889673 60.339913 0
M  V30 6 C 37.791772 33.183688 59.026516 0
M  V30 7 C 38.828674 25.685438 56.238767 0 CFG=2
M  V30 8 N 37.342508 29.737856 56.292329 0 CHG=1
M  V30 9 O 39.245074 27.495629 54.126914 0
M  V30 10 C 35.390041 31.894668 60.597031 0
M  V30 11 C 37.763618 29.192201 54.968521 0 CFG=2
M  V30 12 C 38.651253 37.279528 62.640704 0
M  V30 13 C 37.776551 37.991229 61.635416 0 CFG=1
M  V30 14 C 38.445417 27.799352 55.010172 0
M  V30 15 O 37.955424 31.824126 58.693487 0
M  V30 16 C 36.965007 24.110907 55.450662 0
M  V30 17 C 37.923339 34.839586 60.842225 0
M  V30 18 C 39.624607 36.410020 61.929964 0
M  V30 19 C 38.421532 29.979457 57.275047 0 CFG=1
M  V30 20 C 36.409343 32.805565 61.255317 0 CFG=1
M  V30 21 O 38.445140 39.038711 60.967730 0
M  V30 22 C 37.814361 24.595438 56.632096 0
M  V30 23 C 38.445126 31.496686 57.495649 0
M  V30 24 O 38.849626 32.294869 56.650237 0
M  V30 25 C 38.574349 30.227957 54.162685 0
M  V30 26 C 39.065207 35.081816 61.542557 0
M  V30 27 C 39.899029 25.859046 57.325742 0
M  V30 28 C 37.802868 32.312850 61.536197 0
M  V30 29 H 38.948478 29.405137 59.325026 0
M  V30 30 H 37.213554 29.366057 59.012610 0
M  V30 31 H 38.254146 28.099141 58.399828 0
M  V30 32 H 37.426683 27.226372 56.682882 0
M  V30 33 H 36.166983 37.796961 60.168150 0
M  V30 34 H 36.249299 35.550553 59.630515 0
M  V30 35 H 36.946228 33.593493 58.472062 0
M  V30 36 H 38.679066 33.737375 58.713524 0
M  V30 37 H 39.338533 25.351634 55.332572 0
M  V30 38 H 36.664228 29.121612 56.711145 0
M  V30 39 H 35.861847 31.174761 59.931279 0
M  V30 40 H 34.845169 31.337130 61.358114 0
M  V30 41 H 34.677257 32.483188 60.018416 0
M  V30 42 H 36.845337 29.031066 54.409124 0
M  V30 43 H 39.245000 37.987310 63.223206 0
M  V30 44 H 38.052293 36.704207 63.348811 0
M  V30 45 H 37.009358 38.518579 62.202425 0
M  V30 46 H 36.218963 23.385597 55.774958 0
M  V30 47 H 36.445131 24.936474 54.968400 0
M  V30 48 H 37.587275 23.628771 54.696786 0
M  V30 49 H 40.428713 36.190508 62.634286 0
M  V30 50 H 40.124492 36.886980 61.094913 0
M  V30 51 H 39.383082 29.687515 56.852458 0
M  V30 52 H 35.965659 33.445514 62.016832 0
M  V30 53 H 37.832060 39.434559 60.366522 0
M  V30 54 H 38.343327 23.738912 57.051468 0
M  V30 55 H 37.165854 24.959176 57.429727 0
M  V30 56 H 38.754259 29.886877 53.142160 0
M  V30 57 H 38.041666 31.176862 54.091548 0
M  V30 58 H 39.547136 30.426550 54.613126 0
M  V30 59 H 39.668733 34.236087 61.837657 0
M  V30 60 H 40.445072 24.930390 57.480266 0
M  V30 61 H 40.626608 26.622486 57.048433 0
M  V30 62 H 39.464416 26.137264 58.284743 0
M  V30 63 H 38.064656 31.319483 61.177603 0
M  V30 64 H 38.216818 32.563548 62.510961 0
M  V30 65 H 36.866741 30.627777 56.158208 0
M  V30 END ATOM
M  V30 BEGIN BOND
M  V30 1 2 5 4
M  V30 2 1 1 6 CFG=3
M  V30 3 1 7 3
M  V30 4 1 11 8
M  V30 5 1 13 4
M  V30 6 1 13 12
M  V30 7 1 14 3
M  V30 8 2 14 9
M  V30 9 1 14 11
M  V30 10 1 15 6
M  V30 11 1 17 1
M  V30 12 1 17 5
M  V30 13 1 18 12
M  V30 14 1 19 2
M  V30 15 1 19 8
M  V30 16 1 20 1
M  V30 17 1 20 10
M  V30 18 1 21 13
M  V30 19 1 22 7
M  V30 20 1 22 16
M  V30 21 1 23 15
M  V30 22 1 23 19
M  V30 23 2 24 23
M  V30 24 1 25 11
M  V30 25 2 26 17
M  V30 26 1 26 18
M  V30 27 1 27 7
M  V30 28 1 28 1
M  V30 29 1 28 20
M  V30 30 1 29 2
M  V30 31 1 30 2
M  V30 32 1 31 2
M  V30 33 1 32 3
M  V30 34 1 33 4
M  V30 35 1 34 5
M  V30 36 1 35 6
M  V30 37 1 36 6
M  V30 38 1 7 37 CFG=3
M  V30 39 1 38 8
M  V30 40 1 39 10
M  V30 41 1 40 10
M  V30 42 1 41 10
M  V30 43 1 11 42 CFG=3
M  V30 44 1 43 12
M  V30 45 1 44 12
M  V30 46 1 13 45 CFG=1
M  V30 47 1 46 16
M  V30 48 1 47 16
M  V30 49 1 48 16
M  V30 50 1 49 18
M  V30 51 1 50 18
M  V30 52 1 19 51 CFG=3
M  V30 53 1 20 52 CFG=1
M  V30 54 1 53 21
M  V30 55 1 54 22
M  V30 56 1 55 22
M  V30 57 1 56 25
M  V30 58 1 57 25
M  V30 59 1 58 25
M  V30 60 1 59 26
M  V30 61 1 60 27
M  V30 62 1 61 27
M  V30 63 1 62 27
M  V30 64 1 63 28
M  V30 65 1 64 28
M  V30 66 1 65 8
M  V30 END BOND
M  V30 END CTAB
M  END
>  <i_epik_Tot_Q>  (1) 
1

>  <i_epik_Tot_abs_Q>  (1) 
1

>  <i_i_glide_confnum>  (1) 
1513

>  <i_i_glide_lignum>  (1) 
161

>  <i_i_glide_posenum>  (1) 
316

>  <i_i_glide_rotatable_bonds>  (1) 
12

>  <i_lp_mmshare_version>  (1) 
72125

>  <i_m_source_file_index>  (1) 
74

>  <i_f3d_flags>  (1) 
0

>  <num_sample>  (1) 
100

>  <b_lp_Chiralities_Consistent>  (1) 
1

>  <r_epik_Charging_Adjusted_Penalty>  (1) 
2.336176939713237

>  <r_epik_Ionization_Penalty>  (1) 
1.168091143672223

>  <r_epik_Ionization_Penalty_Charging>  (1) 
1.1680884698566185

>  <r_epik_Ionization_Penalty_Neutral>  (1) 
2.673815604532901e-06

>  <r_epik_State_Penalty>  (1) 
1.1680884698566185

>  <r_glide_ring_energy>  (1) 
0

>  <r_i_docking_score>  (1) 
-5.3952956143651978

>  <r_i_glide_ecoul>  (1) 
-4.0076081700776918

>  <r_i_glide_eff_state_penalty>  (1) 
1.1680884698566185

>  <r_i_glide_einternal>  (1) 
8.6124746480965708

>  <r_i_glide_emodel>  (1) 
-60.314223046779766

>  <r_i_glide_emodel_strain>  (1) 
2.1187820130596364

>  <r_i_glide_energy>  (1) 
-43.927806006759639

>  <r_i_glide_erotb>  (1) 
1.2613414017289797

>  <r_i_glide_esite>  (1) 
-0.15250559597012359

>  <r_i_glide_evdw>  (1) 
-39.920197836681943

>  <r_i_glide_gscore>  (1) 
-6.5633840842218163

>  <r_i_glide_gscore_strain>  (1) 
0

>  <r_i_glide_hbond>  (1) 
-0.16076297231941145

>  <r_i_glide_ligand_efficiency>  (1) 
-0.19268912908447136

>  <r_i_glide_ligand_efficiency_ln>  (1) 
-1.2453926405581901

>  <r_i_glide_ligand_efficiency_sa>  (1) 
-0.58511768437823175

>  <r_i_glide_lipo>  (1) 
-3.2853317907801109

>  <r_i_glide_metal>  (1) 
-0

>  <r_i_glide_rewards>  (1) 
-1.6289740095353977

>  <r_lp_Energy>  (1) 
23.653385

>  <s_epik_Chemistry_Notes>  (1) 
This compound has an ester and may undergo hydrolysis at high or low pH.

>  <s_epik_cmdline>  (1) 
J2VwaWtfcHl0aG9uJywgJy1waHQnLCAnMS4wJywgJy1waCcsICc3LjQnLCAnLXRuJywgJzgnLCAnLW1hJywgJzUwMCcsICctaW1hZScsICc8aW5maWxlLm1hZT4nLCAnLW9tYWUnLCAnPG91dGZpbGUubWFlPic=

>  <s_epik_input>  (1) 
W09IXVtDQEhdMVtDSF09W0NIXUMoPVtDSF1bQ0gyXVtDSDJdMSlbQ0BAXTIoW0NAQEhdKFtDSDNdKVtDSDJdMilbQ0gyXU9DKD1PKVtDQEBIXShbQ0gzXSlbTkhdW0NASF0oW0NIM10pQyg9TylbTkhdW0NAQEhdKFtDSDNdKVtDSDJdW0NIM10=

>  <s_glide_docking_method>  (1) 
confgen

>  <s_i_glide_gridfile>  (1) 
gpcr_5ht2c_6bqh_protein_autoprepared_prepared

>  <s_lp_Force_Field>  (1) 
S-OPLS

>  <s_lp_Variant>  (1) 
DiffSBDD_73-4

>  <s_m_source_file>  (1) 
generated_GPCR_5HT2C_ligand_DiffSBDD_2026-06-23_prepared.sdf

>  <GenAI_Model>  (1) 
DiffSBDD

>  <Protein>  (1) 
GPCR_5HT2C

$$$$
DiffSBDD_18
     RDKit          3D

  0  0  0  0  0  0  0  0  0  0999 V3000
M  V30 BEGIN CTAB
M  V30 COUNTS 77 79 0 0 1
M  V30 BEGIN ATOM
M  V30 1 C 40.025367 30.622820 53.264492 0
M  V30 2 C 41.031384 34.035832 62.859038 0 CFG=2
M  V30 3 C 40.291602 26.293114 58.070584 0
M  V30 4 C 39.378016 26.258399 57.014564 0
M  V30 5 C 40.443129 28.721027 57.852815 0
M  V30 6 O 43.827610 32.930097 66.302463 0
M  V30 7 C 37.772250 32.617602 56.325748 0
M  V30 8 C 40.055086 30.555704 63.305286 0
M  V30 9 C 37.326699 33.466630 59.640104 0
M  V30 10 C 37.586440 24.830400 56.015217 0
M  V30 11 C 42.609565 33.183849 66.174072 0
M  V30 12 C 40.828063 27.525654 58.491103 0
M  V30 13 C 38.291423 31.374163 58.361453 0
M  V30 14 C 40.024655 31.751927 62.766901 0
M  V30 15 C 41.012297 30.176341 64.431199 0
M  V30 16 C 38.457504 33.516796 55.338203 0
M  V30 17 C 40.409891 30.734466 54.748143 0
M  V30 18 C 38.151097 32.732935 60.660262 0 CFG=2
M  V30 19 C 42.226142 33.475848 63.669940 0
M  V30 20 C 40.438935 35.286032 63.537046 0
M  V30 21 C 42.223175 31.105571 64.708419 0
M  V30 22 C 37.031546 23.489120 55.673434 0
M  V30 23 C 39.989155 33.009158 62.380609 0
M  V30 24 C 37.496021 29.876476 54.835845 0
M  V30 25 C 41.901667 32.617627 64.931294 0 CFG=1
M  V30 26 N 36.845131 25.885654 55.756109 0 CHG=1
M  V30 27 C 39.017034 27.457730 56.343582 0
M  V30 28 P 39.010252 30.264833 55.903770 0 CFG=1 CHG=1
M  V30 29 N 39.033893 33.507692 61.513902 0
M  V30 30 O 41.915635 33.861095 66.963571 0 CHG=-1
M  V30 31 C 38.512019 32.628915 59.199692 0 CFG=2
M  V30 32 C 39.531328 28.696146 56.773356 0
M  V30 33 N 38.694329 31.650272 56.959733 0 CFG=1 CHG=1
M  V30 34 N 38.812937 24.937705 56.621607 0
M  V30 35 H 40.845129 30.937822 52.622579 0
M  V30 36 H 39.761454 29.601381 52.989809 0
M  V30 37 H 39.188561 31.269989 53.009655 0
M  V30 38 H 41.468040 34.407246 61.930375 0
M  V30 39 H 40.575885 25.379005 58.567754 0
M  V30 40 H 40.854280 29.659541 58.188287 0
M  V30 41 H 37.017997 32.090568 55.767665 0
M  V30 42 H 37.245230 33.248026 57.039387 0
M  V30 43 H 39.344024 29.798728 63.008735 0
M  V30 44 H 36.328390 33.083159 59.435050 0
M  V30 45 H 37.428641 34.548608 59.570606 0
M  V30 46 H 41.531564 27.556725 59.311189 0
M  V30 47 H 38.891700 30.584096 58.802023 0
M  V30 48 H 37.249324 31.050468 58.413340 0
M  V30 49 H 40.413495 30.089853 65.338304 0
M  V30 50 H 41.383663 29.172380 64.223155 0
M  V30 51 H 37.695769 34.137753 54.886654 0
M  V30 52 H 39.233877 34.137763 55.767756 0
M  V30 53 H 38.887115 32.936607 54.535987 0
M  V30 54 H 40.765378 31.737738 54.967838 0
M  V30 55 H 41.248553 30.085636 54.967739 0
M  V30 56 H 37.695219 31.882068 61.164780 0
M  V30 57 H 42.845093 32.908438 62.975954 0
M  V30 58 H 42.845080 34.327587 63.954045 0
M  V30 59 H 39.530045 35.643069 63.055695 0
M  V30 60 H 40.226274 35.112368 64.588387 0
M  V30 61 H 41.157075 36.106342 63.510696 0
M  V30 62 H 42.955032 30.978961 63.910363 0
M  V30 63 H 42.721962 30.698021 65.588702 0
M  V30 64 H 36.845138 22.937713 56.592942 0
M  V30 65 H 36.057758 23.598992 55.192553 0
M  V30 66 H 37.645217 22.937828 54.967781 0
M  V30 67 H 37.627655 28.989965 54.218164 0
M  V30 68 H 36.608458 29.737744 55.452987 0
M  V30 69 H 37.267067 30.687906 54.149219 0
M  V30 70 H 40.841293 32.713836 65.172037 0
M  V30 71 H 35.938622 25.771935 55.321326 0
M  V30 72 H 38.368945 27.445526 55.499157 0
M  V30 73 H 39.079477 34.497107 61.314335 0
M  V30 74 H 39.415487 33.176740 58.930749 0
M  V30 75 H 39.241446 24.083096 56.949530 0
M  V30 76 H 37.160459 26.802652 56.022438 0
M  V30 77 H 39.574826 32.137057 57.037102 0
M  V30 END ATOM
M  V30 BEGIN BOND
M  V30 1 1 4 3
M  V30 2 2 11 6
M  V30 3 2 12 3
M  V30 4 1 12 5
M  V30 5 2 14 8
M  V30 6 1 15 8
M  V30 7 1 16 7
M  V30 8 1 17 1
M  V30 9 1 18 9
M  V30 10 1 19 2
M  V30 11 1 20 2
M  V30 12 1 21 15
M  V30 13 1 22 10
M  V30 14 1 23 2
M  V30 15 2 23 14
M  V30 16 1 25 11
M  V30 17 1 25 19
M  V30 18 1 25 21
M  V30 19 2 26 10
M  V30 20 2 27 4
M  V30 21 1 28 17 CFG=3
M  V30 22 1 28 24
M  V30 23 1 29 18
M  V30 24 1 29 23
M  V30 25 1 30 11
M  V30 26 1 31 9
M  V30 27 1 31 13
M  V30 28 1 31 18
M  V30 29 2 32 5
M  V30 30 1 32 27
M  V30 31 1 32 28
M  V30 32 1 33 7
M  V30 33 1 33 13
M  V30 34 1 33 28
M  V30 35 1 34 4
M  V30 36 1 34 10
M  V30 37 1 35 1
M  V30 38 1 36 1
M  V30 39 1 37 1
M  V30 40 1 2 38 CFG=3
M  V30 41 1 39 3
M  V30 42 1 40 5
M  V30 43 1 41 7
M  V30 44 1 42 7
M  V30 45 1 43 8
M  V30 46 1 44 9
M  V30 47 1 45 9
M  V30 48 1 46 12
M  V30 49 1 47 13
M  V30 50 1 48 13
M  V30 51 1 49 15
M  V30 52 1 50 15
M  V30 53 1 51 16
M  V30 54 1 52 16
M  V30 55 1 53 16
M  V30 56 1 54 17
M  V30 57 1 55 17
M  V30 58 1 18 56 CFG=1
M  V30 59 1 57 19
M  V30 60 1 58 19
M  V30 61 1 59 20
M  V30 62 1 60 20
M  V30 63 1 61 20
M  V30 64 1 62 21
M  V30 65 1 63 21
M  V30 66 1 64 22
M  V30 67 1 65 22
M  V30 68 1 66 22
M  V30 69 1 67 24
M  V30 70 1 68 24
M  V30 71 1 69 24
M  V30 72 1 25 70 CFG=1
M  V30 73 1 71 26
M  V30 74 1 72 27
M  V30 75 1 73 29
M  V30 76 1 31 74 CFG=1
M  V30 77 1 75 34
M  V30 78 1 76 26
M  V30 79 1 33 77 CFG=1
M  V30 END BOND
M  V30 END CTAB
M  END
>  <i_epik_Tot_Q>  (1) 
2

>  <i_epik_Tot_abs_Q>  (1) 
4

>  <i_i_glide_confnum>  (1) 
74

>  <i_i_glide_lignum>  (1) 
44

>  <i_i_glide_posenum>  (1) 
151

>  <i_i_glide_rotatable_bonds>  (1) 
11

>  <i_lp_mmshare_version>  (1) 
72125

>  <i_m_source_file_index>  (1) 
19

>  <i_f3d_flags>  (1) 
0

>  <num_sample>  (1) 
100

>  <b_lp_Chiralities_Consistent>  (1) 
1

>  <r_epik_Charging_Adjusted_Penalty>  (1) 
0.035732071636325656

>  <r_epik_Ionization_Penalty>  (1) 
0.019213783482484162

>  <r_epik_Ionization_Penalty_Charging>  (1) 
0.019186760244236628

>  <r_epik_Ionization_Penalty_Neutral>  (1) 
2.7023238247534635e-05

>  <r_epik_State_Penalty>  (1) 
0.016545311392089028

>  <r_glide_ring_energy>  (1) 
0

>  <r_i_docking_score>  (1) 
-5.3895413007457043

>  <r_i_glide_ecoul>  (1) 
-2.3641920322975025

>  <r_i_glide_eff_state_penalty>  (1) 
0.016545311392089028

>  <r_i_glide_einternal>  (1) 
15.347993198935789

>  <r_i_glide_emodel>  (1) 
-44.940354855065792

>  <r_i_glide_emodel_strain>  (1) 
1.248787711379066

>  <r_i_glide_energy>  (1) 
-34.518432954732219

>  <r_i_glide_erotb>  (1) 
0.68654883804919686

>  <r_i_glide_esite>  (1) 
-0.057495633645810909

>  <r_i_glide_evdw>  (1) 
-32.154240922434717

>  <r_i_glide_gscore>  (1) 
-5.4060866121377931

>  <r_i_glide_gscore_strain>  (1) 
0

>  <r_i_glide_hbond>  (1) 
0

>  <r_i_glide_ligand_efficiency>  (1) 
-0.15851592061016778

>  <r_i_glide_ligand_efficiency_ln>  (1) 
-1.1907008448476917

>  <r_i_glide_ligand_efficiency_sa>  (1) 
-0.51353004709906425

>  <r_i_glide_lipo>  (1) 
-2.8993157564783805

>  <r_i_glide_metal>  (1) 
-0

>  <r_i_glide_rewards>  (1) 
-1.173483209096438

>  <r_lp_Energy>  (1) 
34.808309999999999

>  <s_epik_Chemistry_Notes>  (1) 
This compound has an imine and may undergo hydrolysis.

>  <s_epik_cmdline>  (1) 
J2VwaWtfcHl0aG9uJywgJy1waHQnLCAnMS4wJywgJy1waCcsICc3LjQnLCAnLXRuJywgJzgnLCAnLW1hJywgJzUwMCcsICctaW1hZScsICc8aW5maWxlLm1hZT4nLCAnLW9tYWUnLCAnPG91dGZpbGUubWFlPic=

>  <s_epik_input>  (1) 
W0hdL049QyhcW0NIM10pW05IXWMxW2NIXVtjSF1bY0hdYyhbY0hdMSlbUEBAK10oW0NIM10pKFtDSDJdW0NIM10pTihbQ0gyXVtDSDNdKVtDSDJdW0NASF0yW0NIMl1bQ0BASF0yW05IXUMzPUM9W0NIXVtDSDJdW0NIMl1bQ0BASF0oQyg9TylbT0hdKVtDSDJdW0NAQEhdM1tDSDNd

>  <s_glide_docking_method>  (1) 
confgen

>  <s_i_glide_gridfile>  (1) 
gpcr_5ht2c_6bqh_protein_autoprepared_prepared

>  <s_lp_Force_Field>  (1) 
S-OPLS

>  <s_lp_Variant>  (1) 
DiffSBDD_18-3

>  <s_m_source_file>  (1) 
generated_GPCR_5HT2C_ligand_DiffSBDD_2026-06-23_prepared.sdf

>  <GenAI_Model>  (1) 
DiffSBDD

>  <Protein>  (1) 
GPCR_5HT2C

$$$$
DiffSBDD_41
     RDKit          3D

  0  0  0  0  0  0  0  0  0  0999 V3000
M  V30 BEGIN CTAB
M  V30 COUNTS 51 52 0 0 1
M  V30 BEGIN ATOM
M  V30 1 C 39.417131 27.185272 58.365942 0
M  V30 2 C 38.052759 29.995453 58.343928 0 CFG=1
M  V30 3 C 36.991507 27.603431 53.769391 0
M  V30 4 C 38.940792 30.597304 55.234168 0
M  V30 5 C 39.722903 30.145991 52.954661 0
M  V30 6 C 38.845135 29.063847 52.840771 0
M  V30 7 C 39.764727 30.907053 54.132398 0
M  V30 8 O 38.044983 24.591838 56.127754 0 CHG=-1
M  V30 9 C 38.664224 31.259490 57.740690 0
M  V30 10 S 39.178198 29.557648 59.725942 0
M  V30 11 N 37.556601 26.251229 53.767775 0 CHG=1
M  V30 12 C 39.787012 26.204652 55.760633 0
M  V30 13 C 40.541927 27.282841 56.221595 0
M  V30 14 C 38.809779 28.257750 51.549579 0
M  V30 15 C 36.645962 30.220633 58.947738 0
M  V30 16 C 38.815177 25.618343 56.593088 0
M  V30 17 C 39.052231 31.485713 56.449935 0
M  V30 18 C 40.373570 27.766134 57.518801 0
M  V30 19 C 35.180784 31.737749 60.451088 0
M  V30 20 C 38.039875 29.499225 55.124438 0
M  V30 21 C 36.502754 31.563114 59.707829 0
M  V30 22 F 39.984882 25.737735 54.505746 0
M  V30 23 C 38.629830 26.107313 57.902390 0
M  V30 24 C 37.989855 28.738148 53.917202 0
M  V30 25 C 39.217322 27.737765 59.758662 0
M  V30 26 H 38.052537 29.142852 57.694673 0
M  V30 27 H 36.289268 27.646953 54.567760 0
M  V30 28 H 36.413729 27.754911 52.861596 0
M  V30 29 H 40.371594 30.402465 52.129531 0
M  V30 30 H 40.445124 31.737754 54.199192 0
M  V30 31 H 38.822133 32.059999 58.447892 0
M  V30 32 H 36.902190 25.606518 53.349436 0
M  V30 33 H 38.420946 26.236628 53.248231 0
M  V30 34 H 41.245143 27.742654 55.576678 0
M  V30 35 H 39.252364 27.272113 51.696194 0
M  V30 36 H 37.796311 28.137459 51.172675 0
M  V30 37 H 39.379134 28.757711 50.764744 0
M  V30 38 H 35.892579 30.137742 58.167706 0
M  V30 39 H 36.419813 29.398748 59.627509 0
M  V30 40 H 39.511590 32.443809 56.253722 0
M  V30 41 H 40.970762 28.597162 57.862910 0
M  V30 42 H 35.159062 32.689181 60.982396 0
M  V30 43 H 34.345996 31.737763 59.749752 0
M  V30 44 H 35.027479 30.944095 61.182693 0
M  V30 45 H 37.364800 29.263386 55.920204 0
M  V30 46 H 37.315194 31.671134 60.426308 0
M  V30 47 H 36.595362 32.393181 59.006353 0
M  V30 48 H 37.884816 25.663178 58.544706 0
M  V30 49 H 40.044782 27.417657 60.393799 0
M  V30 50 H 38.297774 27.370180 60.195605 0
M  V30 51 H 37.762214 25.922688 54.715672 0
M  V30 END ATOM
M  V30 BEGIN BOND
M  V30 1 1 6 5
M  V30 2 1 7 4
M  V30 3 2 7 5
M  V30 4 1 9 2
M  V30 5 1 10 2
M  V30 6 1 11 3
M  V30 7 1 13 12
M  V30 8 1 14 6
M  V30 9 1 15 2
M  V30 10 1 16 8
M  V30 11 2 16 12
M  V30 12 1 17 4
M  V30 13 2 17 9
M  V30 14 1 18 1
M  V30 15 2 18 13
M  V30 16 2 20 4
M  V30 17 1 21 15
M  V30 18 1 21 19
M  V30 19 1 22 12
M  V30 20 2 23 1
M  V30 21 1 23 16
M  V30 22 1 24 3
M  V30 23 2 24 6
M  V30 24 1 24 20
M  V30 25 1 25 1
M  V30 26 1 25 10
M  V30 27 1 2 26 CFG=3
M  V30 28 1 27 3
M  V30 29 1 28 3
M  V30 30 1 29 5
M  V30 31 1 30 7
M  V30 32 1 31 9
M  V30 33 1 32 11
M  V30 34 1 33 11
M  V30 35 1 34 13
M  V30 36 1 35 14
M  V30 37 1 36 14
M  V30 38 1 37 14
M  V30 39 1 38 15
M  V30 40 1 39 15
M  V30 41 1 40 17
M  V30 42 1 41 18
M  V30 43 1 42 19
M  V30 44 1 43 19
M  V30 45 1 44 19
M  V30 46 1 45 20
M  V30 47 1 46 21
M  V30 48 1 47 21
M  V30 49 1 48 23
M  V30 50 1 49 25
M  V30 51 1 50 25
M  V30 52 1 51 11
M  V30 END BOND
M  V30 END CTAB
M  END
>  <i_epik_Tot_Q>  (1) 
0

>  <i_epik_Tot_abs_Q>  (1) 
2

>  <i_i_glide_confnum>  (1) 
41

>  <i_i_glide_lignum>  (1) 
91

>  <i_i_glide_posenum>  (1) 
274

>  <i_i_glide_rotatable_bonds>  (1) 
8

>  <i_lp_mmshare_version>  (1) 
72125

>  <i_m_source_file_index>  (1) 
42

>  <i_f3d_flags>  (1) 
0

>  <num_sample>  (1) 
100

>  <b_lp_Chiralities_Consistent>  (1) 
1

>  <r_epik_Charging_Adjusted_Penalty>  (1) 
2.7167828853708742

>  <r_epik_Ionization_Penalty>  (1) 
1.3565026725465308

>  <r_epik_Ionization_Penalty_Charging>  (1) 
1.3565026725465308

>  <r_epik_Ionization_Penalty_Neutral>  (1) 
0

>  <r_epik_State_Penalty>  (1) 
1.3602802128243434

>  <r_glide_ring_energy>  (1) 
0

>  <r_i_docking_score>  (1) 
-5.3894401770616938

>  <r_i_glide_ecoul>  (1) 
-1.3077018544100865

>  <r_i_glide_eff_state_penalty>  (1) 
1.3602802128243434

>  <r_i_glide_einternal>  (1) 
7.0013278566746022

>  <r_i_glide_emodel>  (1) 
-48.795673564197017

>  <r_i_glide_emodel_strain>  (1) 
2.108387302080768

>  <r_i_glide_energy>  (1) 
-33.928808251520316

>  <r_i_glide_erotb>  (1) 
0.74153290357203427

>  <r_i_glide_esite>  (1) 
0

>  <r_i_glide_evdw>  (1) 
-32.621106397110232

>  <r_i_glide_gscore>  (1) 
-6.7497203898860372

>  <r_i_glide_gscore_strain>  (1) 
0

>  <r_i_glide_hbond>  (1) 
0

>  <r_i_glide_ligand_efficiency>  (1) 
-0.21557760708246776

>  <r_i_glide_ligand_efficiency_ln>  (1) 
-1.2774588304527927

>  <r_i_glide_ligand_efficiency_sa>  (1) 
-0.63035274707061928

>  <r_i_glide_lipo>  (1) 
-3.7701682800920699

>  <r_i_glide_metal>  (1) 
-0

>  <r_i_glide_rewards>  (1) 
-1.8938744153489768

>  <r_lp_Energy>  (1) 
21.037921999999998

>  <s_epik_cmdline>  (1) 
J2VwaWtfcHl0aG9uJywgJy1waHQnLCAnMS4wJywgJy1waCcsICc3LjQnLCAnLXRuJywgJzgnLCAnLW1hJywgJzUwMCcsICctaW1hZScsICc8aW5maWxlLm1hZT4nLCAnLW9tYWUnLCAnPG91dGZpbGUubWFlPic=

>  <s_epik_input>  (1) 
W09IXWMoW2NIXTEpYyhGKVtjSF1bY0hdYzFbQ0gyXVNbQ0BASF0oW0NIMl1bQ0gyXVtDSDNdKS9bQ0hdPVtDSF1cYzJbY0hdW2NIXWMoW0NIM10pYyhbY0hdMilbQ0gyXVtOSDJd

>  <s_glide_docking_method>  (1) 
confgen

>  <s_i_glide_gridfile>  (1) 
gpcr_5ht2c_6bqh_protein_autoprepared_prepared

>  <s_lp_Force_Field>  (1) 
S-OPLS

>  <s_lp_Variant>  (1) 
DiffSBDD_41-4

>  <s_m_source_file>  (1) 
generated_GPCR_5HT2C_ligand_DiffSBDD_2026-06-23_prepared.sdf

>  <GenAI_Model>  (1) 
DiffSBDD

>  <Protein>  (1) 
GPCR_5HT2C

$$$$
DiffSBDD_58
     RDKit          3D

  0  0  0  0  0  0  0  0  0  0999 V3000
M  V30 BEGIN CTAB
M  V30 COUNTS 76 76 0 0 1
M  V30 BEGIN ATOM
M  V30 1 C 37.764619 34.359182 59.139699 0
M  V30 2 C 38.129465 32.024116 57.997442 0 CFG=1
M  V30 3 C 37.666742 25.508688 56.721241 0
M  V30 4 C 38.636555 29.944282 59.523705 0 CFG=1
M  V30 5 C 37.735813 37.756486 59.967827 0
M  V30 6 C 38.591991 27.586308 52.290738 0
M  V30 7 O 37.156420 37.574472 62.966860 0
M  V30 8 C 39.249964 27.454759 57.339666 0
M  V30 9 N 39.605333 26.937933 52.906297 0
M  V30 10 C 39.140319 36.559093 61.807584 0 CFG=2
M  V30 11 C 39.869098 34.054693 62.323137 0
M  V30 12 C 37.795286 33.736572 56.080151 0
M  V30 13 C 39.693067 32.201940 55.841074 0
M  V30 14 C 38.175739 36.600975 63.018728 0
M  V30 15 N 37.258353 27.849484 54.299179 0
M  V30 16 C 38.089077 26.961851 56.436592 0 CFG=1
M  V30 17 N 38.816631 27.583581 58.755889 0 CHG=1
M  V30 18 O 37.265716 29.723241 59.767601 0
M  V30 19 C 37.442726 28.031762 52.973171 0
M  V30 20 C 38.540405 33.040017 59.123399 0
M  V30 21 O 40.947250 33.173096 62.090264 0
M  V30 22 C 39.472446 28.639451 59.560111 0 CFG=2
M  V30 23 C 38.310565 32.381298 56.478546 0
M  V30 24 O 41.190245 35.895954 62.926946 0
M  V30 25 C 38.270203 36.514859 60.534608 0
M  V30 26 C 38.042098 38.983261 60.446998 0
M  V30 27 C 40.276448 35.488725 61.921937 0 CFG=2
M  V30 28 C 39.428666 26.751679 54.233626 0
M  V30 29 C 38.694305 30.597751 58.152385 0
M  V30 30 C 38.270435 27.199936 54.923437 0
M  V30 31 N 40.445048 26.095803 54.907658 0
M  V30 32 C 38.027373 35.345887 59.972698 0
M  V30 33 C 39.744521 28.168956 60.997381 0
M  V30 34 H 36.980748 34.460759 58.419248 0
M  V30 35 H 37.058988 31.922183 58.167734 0
M  V30 36 H 36.775196 25.247930 56.150395 0
M  V30 37 H 38.450624 24.800923 56.447860 0
M  V30 38 H 37.429009 25.350746 57.772827 0
M  V30 39 H 39.041912 30.612212 60.280779 0
M  V30 40 H 37.074646 37.687937 59.117112 0
M  V30 41 H 38.697473 27.749289 51.227770 0
M  V30 42 H 36.683104 37.477045 62.152110 0
M  V30 43 H 39.614309 28.404192 56.952719 0
M  V30 44 H 40.105306 26.782714 57.329024 0
M  V30 45 H 39.706216 37.485775 61.803425 0
M  V30 46 H 39.001029 33.692151 61.787702 0
M  V30 47 H 39.601183 34.000604 63.369814 0
M  V30 48 H 38.445212 34.537931 56.405612 0
M  V30 49 H 37.645263 33.814619 55.002963 0
M  V30 50 H 36.845135 33.833595 56.567774 0
M  V30 51 H 40.433043 32.849970 56.305737 0
M  V30 52 H 40.045591 31.173236 55.856857 0
M  V30 53 H 39.644602 32.466747 54.787290 0
M  V30 54 H 37.552572 35.737765 62.967707 0
M  V30 55 H 38.693905 36.629741 63.977937 0
M  V30 56 H 37.245212 27.580112 56.732772 0
M  V30 57 H 38.930182 26.692346 59.216852 0
M  V30 58 H 36.793962 30.522962 59.575502 0
M  V30 59 H 36.651884 28.537673 52.442506 0
M  V30 60 H 39.611551 33.244051 59.096071 0
M  V30 61 H 38.331105 32.588741 60.088110 0
M  V30 62 H 41.673904 33.491374 62.607571 0
M  V30 63 H 40.457355 28.839963 59.134839 0
M  V30 64 H 37.662673 31.680767 55.948741 0
M  V30 65 H 41.380789 36.818857 62.836517 0
M  V30 66 H 37.644969 39.870184 59.993345 0
M  V30 67 H 38.693206 39.114374 61.290717 0
M  V30 68 H 40.814694 35.464242 60.971087 0
M  V30 69 H 38.145941 29.974593 57.445569 0
M  V30 70 H 39.725332 30.538716 57.832461 0
M  V30 71 H 40.375392 25.873560 55.887307 0
M  V30 72 H 41.251847 25.740918 54.416483 0
M  V30 73 H 40.197062 28.963496 61.590106 0
M  V30 74 H 38.845190 27.852722 61.519072 0
M  V30 75 H 40.444641 27.337755 61.006133 0
M  V30 76 H 37.834595 27.829522 58.773531 0
M  V30 END ATOM
M  V30 BEGIN BOND
M  V30 1 1 9 6
M  V30 2 1 14 7
M  V30 3 1 14 10
M  V30 4 1 16 3
M  V30 5 1 16 8
M  V30 6 1 17 8
M  V30 7 1 18 4
M  V30 8 2 19 6
M  V30 9 1 19 15
M  V30 10 1 20 1
M  V30 11 1 20 2
M  V30 12 1 21 11
M  V30 13 1 22 4
M  V30 14 1 22 17
M  V30 15 1 23 2
M  V30 16 1 23 12
M  V30 17 1 23 13
M  V30 18 1 25 5
M  V30 19 1 25 10
M  V30 20 2 26 5
M  V30 21 1 27 10
M  V30 22 1 27 11
M  V30 23 1 27 24
M  V30 24 2 28 9
M  V30 25 1 29 2
M  V30 26 1 29 4
M  V30 27 2 30 15
M  V30 28 1 30 16
M  V30 29 1 30 28
M  V30 30 1 31 28
M  V30 31 2 32 1
M  V30 32 2 32 25
M  V30 33 1 33 22
M  V30 34 1 34 1
M  V30 35 1 2 35 CFG=3
M  V30 36 1 36 3
M  V30 37 1 37 3
M  V30 38 1 38 3
M  V30 39 1 4 39 CFG=1
M  V30 40 1 40 5
M  V30 41 1 41 6
M  V30 42 1 42 7
M  V30 43 1 43 8
M  V30 44 1 44 8
M  V30 45 1 10 45 CFG=3
M  V30 46 1 46 11
M  V30 47 1 47 11
M  V30 48 1 48 12
M  V30 49 1 49 12
M  V30 50 1 50 12
M  V30 51 1 51 13
M  V30 52 1 52 13
M  V30 53 1 53 13
M  V30 54 1 54 14
M  V30 55 1 55 14
M  V30 56 1 16 56 CFG=1
M  V30 57 1 57 17
M  V30 58 1 58 18
M  V30 59 1 59 19
M  V30 60 1 60 20
M  V30 61 1 61 20
M  V30 62 1 62 21
M  V30 63 1 22 63 CFG=3
M  V30 64 1 64 23
M  V30 65 1 65 24
M  V30 66 1 66 26
M  V30 67 1 67 26
M  V30 68 1 27 68 CFG=3
M  V30 69 1 69 29
M  V30 70 1 70 29
M  V30 71 1 71 31
M  V30 72 1 72 31
M  V30 73 1 73 33
M  V30 74 1 74 33
M  V30 75 1 75 33
M  V30 76 1 76 17
M  V30 END BOND
M  V30 END CTAB
M  END
>  <i_epik_Tot_Q>  (1) 
1

>  <i_epik_Tot_abs_Q>  (1) 
1

>  <i_i_glide_confnum>  (1) 
5141

>  <i_i_glide_lignum>  (1) 
130

>  <i_i_glide_posenum>  (1) 
197

>  <i_i_glide_rotatable_bonds>  (1) 
19

>  <i_lp_mmshare_version>  (1) 
72125

>  <i_m_source_file_index>  (1) 
59

>  <i_f3d_flags>  (1) 
0

>  <num_sample>  (1) 
100

>  <b_lp_Chiralities_Consistent>  (1) 
1

>  <r_epik_Charging_Adjusted_Penalty>  (1) 
0.031800499123457865

>  <r_epik_Ionization_Penalty>  (1) 
0.015929061655920795

>  <r_epik_Ionization_Penalty_Charging>  (1) 
0.015900249561728946

>  <r_epik_Ionization_Penalty_Neutral>  (1) 
2.8812094191846713e-05

>  <r_epik_State_Penalty>  (1) 
0.015900249561728919

>  <r_glide_ring_energy>  (1) 
0

>  <r_i_docking_score>  (1) 
-5.3891890056867817

>  <r_i_glide_ecoul>  (1) 
-2.1336304316462362

>  <r_i_glide_eff_state_penalty>  (1) 
0.015900249561728919

>  <r_i_glide_einternal>  (1) 
19.828528972929842

>  <r_i_glide_emodel>  (1) 
-37.438748665809946

>  <r_i_glide_emodel_strain>  (1) 
4.3725153482550354

>  <r_i_glide_energy>  (1) 
-33.023430230699837

>  <r_i_glide_erotb>  (1) 
1.3125063474323406

>  <r_i_glide_esite>  (1) 
0

>  <r_i_glide_evdw>  (1) 
-30.889799799053598

>  <r_i_glide_gscore>  (1) 
-5.4050892552485106

>  <r_i_glide_gscore_strain>  (1) 
0.093128837063758851

>  <r_i_glide_hbond>  (1) 
0

>  <r_i_glide_ligand_efficiency>  (1) 
-0.16330875774808429

>  <r_i_glide_ligand_efficiency_ln>  (1) 
-1.198527731137444

>  <r_i_glide_ligand_efficiency_sa>  (1) 
-0.52381844686595236

>  <r_i_glide_lipo>  (1) 
-4.1720966085846616

>  <r_i_glide_metal>  (1) 
-0

>  <r_i_glide_rewards>  (1) 
-0.77409327646033321

>  <r_lp_Energy>  (1) 
12.855034999999999

>  <r_lp_tautomer_probability>  (1) 
0.99999990128000804

>  <s_epik_cmdline>  (1) 
J2VwaWtfcHl0aG9uJywgJy1waHQnLCAnMS4wJywgJy1waCcsICc3LjQnLCAnLXRuJywgJzgnLCAnLW1hJywgJzUwMCcsICctaW1hZScsICc8aW5maWxlLm1hZT4nLCAnLW9tYWUnLCAnPG91dGZpbGUubWFlPic=

>  <s_epik_input>  (1) 
W09IXVtDSDJdW0NASF0oW09IXSlbQ0BIXShbQ0gyXVtPSF0pQyhbQ0hdPVtDSDJdKT1DPVtDSF1bQ0gyXVtDQEBIXShbQ0hdKFtDSDNdKVtDSDNdKVtDSDJdW0NAQEhdKFtPSF0pW0NAQEhdKFtDSDNdKVtOSF1bQ0gyXVtDQEBIXShbQ0gzXSljMW5bY0hdW2NIXW5jMVtOSDJd

>  <s_glide_docking_method>  (1) 
confgen

>  <s_i_glide_gridfile>  (1) 
gpcr_5ht2c_6bqh_protein_autoprepared_prepared

>  <s_lp_Force_Field>  (1) 
S-OPLS

>  <s_lp_Variant>  (1) 
DiffSBDD_58-2

>  <s_m_source_file>  (1) 
generated_GPCR_5HT2C_ligand_DiffSBDD_2026-06-23_prepared.sdf

>  <GenAI_Model>  (1) 
DiffSBDD

>  <Protein>  (1) 
GPCR_5HT2C

$$$$
DiffSBDD_16
     RDKit          3D

  0  0  0  0  0  0  0  0  0  0999 V3000
M  V30 BEGIN CTAB
M  V30 COUNTS 70 74 0 0 1
M  V30 BEGIN ATOM
M  V30 1 C 39.467474 28.038539 52.941747 0
M  V30 2 C 36.705986 36.840893 60.586816 0
M  V30 3 C 38.830464 31.747006 57.099805 0 CFG=1
M  V30 4 C 39.156928 33.050027 56.435719 0
M  V30 5 C 39.723640 29.856797 51.326710 0
M  V30 6 C 39.505149 28.959331 50.285530 0
M  V30 7 C 39.328345 27.819603 58.130025 0
M  V30 8 C 37.839992 28.071318 58.366848 0
M  V30 9 C 39.668247 30.556502 56.562783 0
M  V30 10 C 39.244908 27.620297 50.567712 0
M  V30 11 O 40.044435 26.065720 56.697202 0
M  V30 12 C 37.322578 35.351591 58.796283 0
M  V30 13 C 37.655547 34.129855 58.257229 0
M  V30 14 C 37.748272 32.824087 59.053647 0
M  V30 15 C 37.215282 35.692997 60.210859 0
M  V30 16 C 39.681455 29.414095 52.658244 0
M  V30 17 N 36.845078 37.150184 61.911501 0
M  V30 18 C 39.780290 35.604420 63.282624 0
M  V30 19 N 38.845142 31.953421 58.572637 0 CHG=1
M  V30 20 C 40.055008 34.648075 62.173541 0
M  V30 21 C 40.047965 31.288269 51.022442 0
M  V30 22 C 37.105053 29.189006 57.620865 0
M  V30 23 C 36.455645 30.137683 55.236368 0
M  V30 24 C 37.412017 29.286991 56.106377 0 CFG=1
M  V30 25 C 39.593128 27.452363 54.319877 0
M  V30 26 C 38.879418 29.503560 55.741372 0 CFG=2
M  V30 27 C 39.641590 27.226254 56.756119 0
M  V30 28 C 37.835145 34.931193 61.314145 0 CFG=2
M  V30 29 C 39.427344 28.068180 55.527262 0
M  V30 30 C 37.708795 36.234858 62.191087 0
M  V30 31 N 39.233424 34.450906 61.199929 0
M  V30 32 C 39.245308 27.165990 51.881619 0
M  V30 33 C 37.980808 33.988173 56.749296 0
M  V30 34 C 38.671304 36.366822 63.278285 0
M  V30 35 H 36.272663 37.574876 59.925649 0
M  V30 36 H 37.794380 31.584595 56.863126 0
M  V30 37 H 39.231269 32.923493 55.352977 0
M  V30 38 H 40.138458 33.337734 56.790504 0
M  V30 39 H 39.540648 29.301094 49.263348 0
M  V30 40 H 39.606265 27.030977 58.834281 0
M  V30 41 H 39.968019 28.629375 58.445515 0
M  V30 42 H 37.313095 27.135373 58.167914 0
M  V30 43 H 37.750725 28.307961 59.425919 0
M  V30 44 H 40.419401 30.946752 55.871500 0
M  V30 45 H 40.255246 30.135988 57.361331 0
M  V30 46 H 39.070557 26.929110 49.767667 0
M  V30 47 H 37.245169 36.178814 58.122404 0
M  V30 48 H 37.725577 32.831202 60.127933 0
M  V30 49 H 36.817776 32.309160 58.814556 0
M  V30 50 H 39.924704 30.106707 53.434348 0
M  V30 51 H 40.530934 35.681883 64.054539 0
M  V30 52 H 38.743615 31.056893 59.022729 0
M  V30 53 H 41.015551 34.128622 62.233908 0
M  V30 54 H 40.351584 31.746352 51.956624 0
M  V30 55 H 40.893137 31.336979 50.334198 0
M  V30 56 H 39.221310 31.830756 50.573316 0
M  V30 57 H 36.045302 29.014443 57.768484 0
M  V30 58 H 37.233768 30.104760 58.169939 0
M  V30 59 H 36.771147 31.172873 55.119184 0
M  V30 60 H 36.446525 29.745343 54.221316 0
M  V30 61 H 35.439108 30.137736 55.617145 0
M  V30 62 H 37.245143 28.288874 55.715992 0
M  V30 63 H 39.874089 26.408199 54.330981 0
M  V30 64 H 38.710134 30.003271 54.818182 0
M  V30 65 H 37.160343 34.170119 61.706949 0
M  V30 66 H 39.093195 26.137759 52.080801 0
M  V30 67 H 37.234210 33.510024 56.174031 0
M  V30 68 H 38.118029 34.938868 56.256377 0
M  V30 69 H 38.467983 37.110894 64.034842 0
M  V30 70 H 39.718253 32.378458 58.844706 0
M  V30 END ATOM
M  V30 BEGIN BOND
M  V30 1 1 4 3
M  V30 2 1 6 5
M  V30 3 1 8 7
M  V30 4 1 9 3
M  V30 5 2 10 6
M  V30 6 2 13 12
M  V30 7 1 14 13
M  V30 8 2 15 2
M  V30 9 1 15 12
M  V30 10 1 16 1
M  V30 11 2 16 5
M  V30 12 1 17 2
M  V30 13 1 19 3
M  V30 14 1 19 14
M  V30 15 1 20 18
M  V30 16 1 21 5
M  V30 17 1 22 8
M  V30 18 1 24 22
M  V30 19 1 24 23
M  V30 20 1 25 1
M  V30 21 1 26 9
M  V30 22 1 26 24
M  V30 23 1 27 7
M  V30 24 2 27 11
M  V30 25 1 28 15
M  V30 26 2 29 25
M  V30 27 1 29 26
M  V30 28 1 29 27
M  V30 29 2 30 17
M  V30 30 1 30 28
M  V30 31 2 31 20
M  V30 32 1 31 28
M  V30 33 2 32 1
M  V30 34 1 32 10
M  V30 35 1 33 4
M  V30 36 1 33 13
M  V30 37 2 34 18
M  V30 38 1 34 30
M  V30 39 1 35 2
M  V30 40 1 3 36 CFG=3
M  V30 41 1 37 4
M  V30 42 1 38 4
M  V30 43 1 39 6
M  V30 44 1 40 7
M  V30 45 1 41 7
M  V30 46 1 42 8
M  V30 47 1 43 8
M  V30 48 1 44 9
M  V30 49 1 45 9
M  V30 50 1 46 10
M  V30 51 1 47 12
M  V30 52 1 48 14
M  V30 53 1 49 14
M  V30 54 1 50 16
M  V30 55 1 51 18
M  V30 56 1 52 19
M  V30 57 1 53 20
M  V30 58 1 54 21
M  V30 59 1 55 21
M  V30 60 1 56 21
M  V30 61 1 57 22
M  V30 62 1 58 22
M  V30 63 1 59 23
M  V30 64 1 60 23
M  V30 65 1 61 23
M  V30 66 1 24 62 CFG=3
M  V30 67 1 63 25
M  V30 68 1 26 64 CFG=3
M  V30 69 1 28 65 CFG=1
M  V30 70 1 66 32
M  V30 71 1 67 33
M  V30 72 1 68 33
M  V30 73 1 69 34
M  V30 74 1 70 19
M  V30 END BOND
M  V30 END CTAB
M  END
>  <i_epik_Tot_Q>  (1) 
1

>  <i_epik_Tot_abs_Q>  (1) 
1

>  <i_i_glide_confnum>  (1) 
20

>  <i_i_glide_lignum>  (1) 
35

>  <i_i_glide_posenum>  (1) 
266

>  <i_i_glide_rotatable_bonds>  (1) 
4

>  <i_lp_mmshare_version>  (1) 
72125

>  <i_m_source_file_index>  (1) 
17

>  <i_f3d_flags>  (1) 
0

>  <num_sample>  (1) 
100

>  <b_lp_Chiralities_Consistent>  (1) 
1

>  <r_epik_Charging_Adjusted_Penalty>  (1) 
0.57808156404405586

>  <r_epik_Ionization_Penalty>  (1) 
0.28904078202202793

>  <r_epik_Ionization_Penalty_Charging>  (1) 
0.28904078202202793

>  <r_epik_Ionization_Penalty_Neutral>  (1) 
0

>  <r_epik_State_Penalty>  (1) 
0.28904078202202793

>  <r_glide_ring_energy>  (1) 
0

>  <r_i_docking_score>  (1) 
-5.3884394646337217

>  <r_i_glide_ecoul>  (1) 
-2.230018472504081

>  <r_i_glide_eff_state_penalty>  (1) 
0.28904078202202793

>  <r_i_glide_einternal>  (1) 
36.09227927588158

>  <r_i_glide_emodel>  (1) 
2.2032821818025923

>  <r_i_glide_emodel_strain>  (1) 
5.042181385459827

>  <r_i_glide_energy>  (1) 
-12.471757665351383

>  <r_i_glide_erotb>  (1) 
0.29147875755417113

>  <r_i_glide_esite>  (1) 
-0.032699962553735633

>  <r_i_glide_evdw>  (1) 
-10.241739192847302

>  <r_i_glide_gscore>  (1) 
-5.6774802466557492

>  <r_i_glide_gscore_strain>  (1) 
0.26054534636495674

>  <r_i_glide_hbond>  (1) 
0

>  <r_i_glide_ligand_efficiency>  (1) 
-0.15848351366569768

>  <r_i_glide_ligand_efficiency_ln>  (1) 
-1.1904574183450987

>  <r_i_glide_ligand_efficiency_sa>  (1) 
-0.51342506117931563

>  <r_i_glide_lipo>  (1) 
-3.3400366998179272

>  <r_i_glide_metal>  (1) 
-0

>  <r_i_glide_rewards>  (1) 
-2.0101779576852374

>  <r_lp_Energy>  (1) 
58.685900999999994

>  <s_epik_Chemistry_Notes>  (1) 
This compound has an imine and may undergo hydrolysis.

>  <s_epik_cmdline>  (1) 
J2VwaWtfcHl0aG9uJywgJy1waHQnLCAnMS4wJywgJy1waCcsICc3LjQnLCAnLXRuJywgJzgnLCAnLW1hJywgJzUwMCcsICctaW1hZScsICc8aW5maWxlLm1hZT4nLCAnLW9tYWUnLCAnPG91dGZpbGUubWFlPic=

>  <s_epik_input>  (1) 
W2NIXTFbY0hdW2NIXWMoW0NIM10pW2NIXWMxL1tDSF09QyhDKD1PKVtDSDJdW0NIMl1bQ0gyXVtDQEhdMltDSDNdKVxbQ0BASF0yW0NIMl1bQ0BASF0zW0NIMl1bQ0gyXUMoXFtDSDJdW05IXTMpPVtDSF1cQzQ9W0NIXU49QyhbQ0BASF00NSlbQ0hdPVtDSF1bQ0hdPU41

>  <s_glide_docking_method>  (1) 
confgen

>  <s_i_glide_gridfile>  (1) 
gpcr_5ht2c_6bqh_protein_autoprepared_prepared

>  <s_lp_Force_Field>  (1) 
S-OPLS

>  <s_lp_Variant>  (1) 
DiffSBDD_16-3

>  <s_m_source_file>  (1) 
generated_GPCR_5HT2C_ligand_DiffSBDD_2026-06-23_prepared.sdf

>  <GenAI_Model>  (1) 
DiffSBDD

>  <Protein>  (1) 
GPCR_5HT2C

$$$$
DiffSBDD_54
     RDKit          3D

  0  0  0  0  0  0  0  0  0  0999 V3000
M  V30 BEGIN CTAB
M  V30 COUNTS 42 43 0 0 1
M  V30 BEGIN ATOM
M  V30 1 C 38.287922 30.539986 54.356985 0
M  V30 2 C 38.214848 25.525111 55.765619 0
M  V30 3 C 40.413662 26.784855 55.929939 0
M  V30 4 C 41.294122 30.391020 49.942303 0
M  V30 5 C 39.863747 29.815162 51.945627 0
M  V30 6 S 38.045203 28.093381 55.195342 0 CHG=1
M  V30 7 C 37.646866 29.934428 56.746873 0
M  V30 8 N 37.407161 24.776319 55.042841 0
M  V30 9 C 37.879332 28.183031 52.081867 0
M  V30 10 C 36.852063 24.027657 56.066314 0
M  V30 11 N 37.311936 24.295882 57.306401 0
M  V30 12 N 38.185457 25.273897 57.053712 0
M  V30 13 N 38.912171 29.192882 54.190129 0 CFG=1 CHG=1
M  V30 14 C 39.135871 28.738304 52.776627 0 CFG=2
M  V30 15 C 38.301203 30.985611 55.833501 0
M  V30 16 C 40.347938 29.363007 50.565869 0
M  V30 17 O 38.300745 28.686019 56.543332 0
M  V30 18 C 39.077599 26.605189 55.202049 0 CFG=2
M  V30 19 H 37.259872 30.528570 53.990687 0
M  V30 20 H 38.813745 31.307639 53.793209 0
M  V30 21 H 41.036705 25.909487 55.763537 0
M  V30 22 H 40.292488 26.918714 57.003899 0
M  V30 23 H 40.949962 27.653636 55.566503 0
M  V30 24 H 41.637667 30.056509 48.968916 0
M  V30 25 H 42.173976 30.556372 50.564131 0
M  V30 26 H 40.800749 31.348422 49.791494 0
M  V30 27 H 40.715804 30.168183 52.520470 0
M  V30 28 H 39.245138 30.689193 51.796226 0
M  V30 29 H 37.747227 30.231810 57.791664 0
M  V30 30 H 36.573417 29.856606 56.556831 0
M  V30 31 H 38.105267 27.823032 51.077587 0
M  V30 32 H 37.103857 28.937785 51.993117 0
M  V30 33 H 37.463893 27.319270 52.598478 0
M  V30 34 H 36.101752 23.270546 55.893629 0
M  V30 35 H 38.719495 25.732684 57.780556 0
M  V30 36 H 39.824248 27.897863 52.819171 0
M  V30 37 H 39.326815 31.164235 56.161061 0
M  V30 38 H 37.775875 31.936659 55.940937 0
M  V30 39 H 40.844444 28.399137 50.663445 0
M  V30 40 H 39.501980 29.214890 49.892031 0
M  V30 41 H 39.280985 26.317806 54.171587 0
M  V30 42 H 39.841752 29.307793 54.566034 0
M  V30 END ATOM
M  V30 BEGIN BOND
M  V30 1 2 8 2
M  V30 2 1 10 8
M  V30 3 2 11 10
M  V30 4 1 12 2
M  V30 5 1 12 11
M  V30 6 1 13 1
M  V30 7 1 13 6
M  V30 8 1 14 5
M  V30 9 1 14 9
M  V30 10 1 14 13
M  V30 11 1 15 1
M  V30 12 1 15 7
M  V30 13 1 16 4
M  V30 14 1 16 5
M  V30 15 1 6 17 CFG=1
M  V30 16 1 17 7
M  V30 17 1 18 2
M  V30 18 1 18 3
M  V30 19 1 18 6
M  V30 20 1 19 1
M  V30 21 1 20 1
M  V30 22 1 21 3
M  V30 23 1 22 3
M  V30 24 1 23 3
M  V30 25 1 24 4
M  V30 26 1 25 4
M  V30 27 1 26 4
M  V30 28 1 27 5
M  V30 29 1 28 5
M  V30 30 1 29 7
M  V30 31 1 30 7
M  V30 32 1 31 9
M  V30 33 1 32 9
M  V30 34 1 33 9
M  V30 35 1 34 10
M  V30 36 1 35 12
M  V30 37 1 14 36 CFG=1
M  V30 38 1 37 15
M  V30 39 1 38 15
M  V30 40 1 39 16
M  V30 41 1 40 16
M  V30 42 1 18 41 CFG=3
M  V30 43 1 13 42 CFG=1
M  V30 END BOND
M  V30 END CTAB
M  END
>  <i_epik_Tot_Q>  (1) 
2

>  <i_epik_Tot_abs_Q>  (1) 
2

>  <i_i_glide_confnum>  (1) 
6

>  <i_i_glide_lignum>  (1) 
115

>  <i_i_glide_posenum>  (1) 
105

>  <i_i_glide_rotatable_bonds>  (1) 
5

>  <i_lp_mmshare_version>  (1) 
72125

>  <i_m_source_file_index>  (1) 
55

>  <i_f3d_flags>  (1) 
0

>  <num_sample>  (1) 
100

>  <b_lp_Chiralities_Consistent>  (1) 
1

>  <r_epik_Charging_Adjusted_Penalty>  (1) 
0.22285261290592212

>  <r_epik_Ionization_Penalty>  (1) 
0.11376846567106323

>  <r_epik_Ionization_Penalty_Charging>  (1) 
0.11142630645296109

>  <r_epik_Ionization_Penalty_Neutral>  (1) 
0.0023421592181021404

>  <r_epik_State_Penalty>  (1) 
0.11142630645296105

>  <r_glide_ring_energy>  (1) 
0

>  <r_i_docking_score>  (1) 
-5.3868745986332529

>  <r_i_glide_ecoul>  (1) 
-1.0069617240152202

>  <r_i_glide_eff_state_penalty>  (1) 
0.11142630645296105

>  <r_i_glide_einternal>  (1) 
2.8724358000127865

>  <r_i_glide_emodel>  (1) 
-44.424647393073911

>  <r_i_glide_emodel_strain>  (1) 
1.8887287474268177

>  <r_i_glide_energy>  (1) 
-29.073070024493848

>  <r_i_glide_erotb>  (1) 
0.96597774364564237

>  <r_i_glide_esite>  (1) 
0

>  <r_i_glide_evdw>  (1) 
-28.066108300478628

>  <r_i_glide_gscore>  (1) 
-5.4983009050862144

>  <r_i_glide_gscore_strain>  (1) 
0

>  <r_i_glide_hbond>  (1) 
0

>  <r_i_glide_ligand_efficiency>  (1) 
-0.29927081103518072

>  <r_i_glide_ligand_efficiency_ln>  (1) 
-1.384668338623342

>  <r_i_glide_ligand_efficiency_sa>  (1) 
-0.78431140255836684

>  <r_i_glide_lipo>  (1) 
-1.8789643836819963

>  <r_i_glide_metal>  (1) 
-0

>  <r_i_glide_rewards>  (1) 
-3.030964591423646

>  <r_lp_Energy>  (1) 
23.784423

>  <r_lp_tautomer_probability>  (1) 
0.94828448534560383

>  <s_epik_cmdline>  (1) 
J2VwaWtfcHl0aG9uJywgJy1waHQnLCAnMS4wJywgJy1waCcsICc3LjQnLCAnLXRuJywgJzgnLCAnLW1hJywgJzUwMCcsICctaW1hZScsICc8aW5maWxlLm1hZT4nLCAnLW9tYWUnLCAnPG91dGZpbGUubWFlPic=

>  <s_epik_input>  (1) 
W0NIM11bQ0gyXVtDSDJdW0NASF0oW0NIM10pTihbQ0gyXVtDSDJdW0NIMl1PMSlbUytdMVtDQEBIXShbQ0gzXSljMm5bY0hdbltuSF0y

>  <s_glide_docking_method>  (1) 
confgen

>  <s_i_glide_gridfile>  (1) 
gpcr_5ht2c_6bqh_protein_autoprepared_prepared

>  <s_lp_Force_Field>  (1) 
S-OPLS

>  <s_lp_Variant>  (1) 
DiffSBDD_54-1

>  <s_m_source_file>  (1) 
generated_GPCR_5HT2C_ligand_DiffSBDD_2026-06-23_prepared.sdf

>  <GenAI_Model>  (1) 
DiffSBDD

>  <Protein>  (1) 
GPCR_5HT2C

$$$$
DiffSBDD_73
     RDKit          3D

  0  0  0  0  0  0  0  0  0  0999 V3000
M  V30 BEGIN CTAB
M  V30 COUNTS 65 66 0 0 1
M  V30 BEGIN ATOM
M  V30 1 C 38.670019 27.444672 54.824122 0 CFG=1
M  V30 2 C 42.768228 28.213806 57.767436 0
M  V30 3 N 38.406185 30.959332 59.052610 0
M  V30 4 C 39.790303 30.501995 52.753361 0
M  V30 5 C 39.244219 29.674052 53.698385 0
M  V30 6 C 39.902234 26.690518 55.297284 0
M  V30 7 C 37.930041 32.342411 59.114770 0 CFG=2
M  V30 8 N 40.663742 29.053325 58.822696 0 CHG=1
M  V30 9 O 39.096812 30.881664 61.200115 0
M  V30 10 C 37.063875 25.453515 55.587528 0
M  V30 11 C 39.588895 28.949995 59.850627 0 CFG=2
M  V30 12 C 40.224048 28.741784 50.841823 0
M  V30 13 C 40.245845 30.157198 51.335895 0 CFG=1
M  V30 14 C 38.984918 30.344738 60.098029 0
M  V30 15 O 40.526476 27.415557 56.341306 0
M  V30 16 C 35.878948 33.781796 59.779000 0
M  V30 17 C 38.892682 28.227462 53.577857 0
M  V30 18 C 38.862759 28.187917 51.051582 0
M  V30 19 C 41.449415 27.844195 58.479478 0 CFG=1
M  V30 20 C 37.292897 26.831667 54.990619 0 CFG=1
M  V30 21 O 39.645140 31.006031 50.384514 0
M  V30 22 C 36.472728 32.373651 59.624314 0
M  V30 23 C 40.578071 26.937920 57.598178 0
M  V30 24 O 39.996571 25.934969 58.009387 0
M  V30 25 C 40.095912 28.351616 61.179023 0
M  V30 26 C 38.744736 27.585816 52.398123 0
M  V30 27 C 38.135508 32.980551 57.731444 0
M  V30 28 C 37.706149 27.988809 55.859419 0
M  V30 29 H 43.450781 27.361900 57.747646 0
M  V30 30 H 42.629365 28.537397 56.737361 0
M  V30 31 H 43.270318 29.039825 58.259928 0
M  V30 32 H 38.276457 30.456646 58.186725 0
M  V30 33 H 39.966743 31.528095 53.038567 0
M  V30 34 H 39.050421 30.126396 54.658781 0
M  V30 35 H 39.648236 25.675623 55.596637 0
M  V30 36 H 40.601384 26.572654 54.468937 0
M  V30 37 H 38.543369 32.912049 59.816387 0
M  V30 38 H 41.321191 29.736123 59.170148 0
M  V30 39 H 37.731793 25.263444 56.427211 0
M  V30 40 H 36.045469 25.373264 55.961040 0
M  V30 41 H 37.215909 24.685454 54.828465 0
M  V30 42 H 38.793582 28.309957 59.463805 0
M  V30 43 H 40.445154 28.725129 49.774359 0
M  V30 44 H 40.975372 28.137755 51.349895 0
M  V30 45 H 41.286985 30.459898 51.304035 0
M  V30 46 H 34.892019 33.733957 60.240924 0
M  V30 47 H 36.507913 34.413981 60.406714 0
M  V30 48 H 35.757438 34.274579 58.814009 0
M  V30 49 H 38.708481 27.387714 50.329181 0
M  V30 50 H 38.065252 28.917253 50.936686 0
M  V30 51 H 41.730202 27.337754 59.394848 0
M  V30 52 H 36.595114 27.090100 54.199000 0
M  V30 53 H 40.034474 31.866220 50.452322 0
M  V30 54 H 35.835342 31.783494 58.967826 0
M  V30 55 H 36.426791 31.884003 60.597730 0
M  V30 56 H 39.300949 28.311097 61.926208 0
M  V30 57 H 40.445169 27.337643 61.051551 0
M  V30 58 H 40.918724 28.926101 61.604262 0
M  V30 59 H 38.482813 26.538290 52.413451 0
M  V30 60 H 37.747627 33.996917 57.691647 0
M  V30 61 H 39.197200 33.038924 57.488958 0
M  V30 62 H 37.644685 32.410247 56.942421 0
M  V30 63 H 37.878816 27.770341 56.910194 0
M  V30 64 H 37.246314 28.956554 55.660496 0
M  V30 65 H 40.261840 29.412407 57.968741 0
M  V30 END ATOM
M  V30 BEGIN BOND
M  V30 1 2 5 4
M  V30 2 1 1 6 CFG=1
M  V30 3 1 7 3
M  V30 4 1 11 8
M  V30 5 1 13 4
M  V30 6 1 13 12
M  V30 7 1 14 3
M  V30 8 2 14 9
M  V30 9 1 14 11
M  V30 10 1 15 6
M  V30 11 1 17 1
M  V30 12 1 17 5
M  V30 13 1 18 12
M  V30 14 1 19 2
M  V30 15 1 19 8
M  V30 16 1 20 1
M  V30 17 1 20 10
M  V30 18 1 21 13
M  V30 19 1 22 7
M  V30 20 1 22 16
M  V30 21 1 23 15
M  V30 22 1 23 19
M  V30 23 2 24 23
M  V30 24 1 25 11
M  V30 25 2 26 17
M  V30 26 1 26 18
M  V30 27 1 27 7
M  V30 28 1 28 1
M  V30 29 1 28 20
M  V30 30 1 29 2
M  V30 31 1 30 2
M  V30 32 1 31 2
M  V30 33 1 32 3
M  V30 34 1 33 4
M  V30 35 1 34 5
M  V30 36 1 35 6
M  V30 37 1 36 6
M  V30 38 1 7 37 CFG=1
M  V30 39 1 38 8
M  V30 40 1 39 10
M  V30 41 1 40 10
M  V30 42 1 41 10
M  V30 43 1 11 42 CFG=3
M  V30 44 1 43 12
M  V30 45 1 44 12
M  V30 46 1 13 45 CFG=1
M  V30 47 1 46 16
M  V30 48 1 47 16
M  V30 49 1 48 16
M  V30 50 1 49 18
M  V30 51 1 50 18
M  V30 52 1 19 51 CFG=1
M  V30 53 1 20 52 CFG=3
M  V30 54 1 53 21
M  V30 55 1 54 22
M  V30 56 1 55 22
M  V30 57 1 56 25
M  V30 58 1 57 25
M  V30 59 1 58 25
M  V30 60 1 59 26
M  V30 61 1 60 27
M  V30 62 1 61 27
M  V30 63 1 62 27
M  V30 64 1 63 28
M  V30 65 1 64 28
M  V30 66 1 65 8
M  V30 END BOND
M  V30 END CTAB
M  END
>  <i_epik_Tot_Q>  (1) 
1

>  <i_epik_Tot_abs_Q>  (1) 
1

>  <i_i_glide_confnum>  (1) 
152

>  <i_i_glide_lignum>  (1) 
161

>  <i_i_glide_posenum>  (1) 
29

>  <i_i_glide_rotatable_bonds>  (1) 
12

>  <i_lp_mmshare_version>  (1) 
72125

>  <i_m_source_file_index>  (1) 
74

>  <i_f3d_flags>  (1) 
0

>  <num_sample>  (1) 
100

>  <b_lp_Chiralities_Consistent>  (1) 
1

>  <r_epik_Charging_Adjusted_Penalty>  (1) 
2.336176939713237

>  <r_epik_Ionization_Penalty>  (1) 
1.168091143672223

>  <r_epik_Ionization_Penalty_Charging>  (1) 
1.1680884698566185

>  <r_epik_Ionization_Penalty_Neutral>  (1) 
2.673815604532901e-06

>  <r_epik_State_Penalty>  (1) 
1.1680884698566185

>  <r_glide_ring_energy>  (1) 
0

>  <r_i_docking_score>  (1) 
-5.3830241566163979

>  <r_i_glide_ecoul>  (1) 
-2.5312413816274564

>  <r_i_glide_eff_state_penalty>  (1) 
1.1680884698566185

>  <r_i_glide_einternal>  (1) 
7.5246432635135552

>  <r_i_glide_emodel>  (1) 
-59.225593097746177

>  <r_i_glide_emodel_strain>  (1) 
0.71873635766649357

>  <r_i_glide_energy>  (1) 
-40.937864899958569

>  <r_i_glide_erotb>  (1) 
1.2613414017289797

>  <r_i_glide_esite>  (1) 
-0.032315374199325529

>  <r_i_glide_evdw>  (1) 
-38.406623518331109

>  <r_i_glide_gscore>  (1) 
-6.5511126264730164

>  <r_i_glide_gscore_strain>  (1) 
0

>  <r_i_glide_hbond>  (1) 
0

>  <r_i_glide_ligand_efficiency>  (1) 
-0.19225086273629993

>  <r_i_glide_ligand_efficiency_ln>  (1) 
-1.2425600278041113

>  <r_i_glide_ligand_efficiency_sa>  (1) 
-0.58378684961863014

>  <r_i_glide_lipo>  (1) 
-4.0289914591591423

>  <r_i_glide_metal>  (1) 
-0

>  <r_i_glide_rewards>  (1) 
-1.451129811682855

>  <r_lp_Energy>  (1) 
23.653385

>  <s_epik_Chemistry_Notes>  (1) 
This compound has an ester and may undergo hydrolysis at high or low pH.

>  <s_epik_cmdline>  (1) 
J2VwaWtfcHl0aG9uJywgJy1waHQnLCAnMS4wJywgJy1waCcsICc3LjQnLCAnLXRuJywgJzgnLCAnLW1hJywgJzUwMCcsICctaW1hZScsICc8aW5maWxlLm1hZT4nLCAnLW9tYWUnLCAnPG91dGZpbGUubWFlPic=

>  <s_epik_input>  (1) 
W09IXVtDQEhdMVtDSF09W0NIXUMoPVtDSF1bQ0gyXVtDSDJdMSlbQ0BAXTIoW0NAQEhdKFtDSDNdKVtDSDJdMilbQ0gyXU9DKD1PKVtDQEBIXShbQ0gzXSlbTkhdW0NASF0oW0NIM10pQyg9TylbTkhdW0NAQEhdKFtDSDNdKVtDSDJdW0NIM10=

>  <s_glide_docking_method>  (1) 
confgen

>  <s_i_glide_gridfile>  (1) 
gpcr_5ht2c_6bqh_protein_autoprepared_prepared

>  <s_lp_Force_Field>  (1) 
S-OPLS

>  <s_lp_Variant>  (1) 
DiffSBDD_73-4

>  <s_m_source_file>  (1) 
generated_GPCR_5HT2C_ligand_DiffSBDD_2026-06-23_prepared.sdf

>  <GenAI_Model>  (1) 
DiffSBDD

>  <Protein>  (1) 
GPCR_5HT2C

$$$$
DiffSBDD_46
     RDKit          3D

  0  0  0  0  0  0  0  0  0  0999 V3000
M  V30 BEGIN CTAB
M  V30 COUNTS 55 56 0 0 1
M  V30 BEGIN ATOM
M  V30 1 C 38.242225 28.218007 57.645572 0
M  V30 2 C 40.944328 31.115260 62.980369 0
M  V30 3 C 38.626761 28.209877 54.830332 0
M  V30 4 O 37.361758 32.470159 61.656943 0
M  V30 5 C 39.036750 29.342877 55.581123 0
M  V30 6 C 41.089063 35.231805 61.451806 0
M  V30 7 C 37.233853 33.606764 58.941581 0
M  V30 8 P 38.434045 31.926661 60.787082 0
M  V30 9 C 39.553254 30.474767 54.886875 0
M  V30 10 C 40.013771 32.882968 61.246397 0 CFG=1
M  V30 11 C 38.733976 28.210909 53.422746 0
M  V30 12 O 38.045126 32.264722 56.754617 0
M  V30 13 O 39.354378 29.337749 51.391342 0
M  V30 14 N 38.649891 34.910849 61.782587 0 CHG=1
M  V30 15 C 41.923957 32.262497 62.977893 0
M  V30 16 C 39.236676 30.554292 57.765571 0
M  V30 17 C 39.646658 30.466945 53.483308 0
M  V30 18 C 38.305751 26.996931 52.633068 0
M  V30 19 C 39.837770 34.417432 61.049721 0 CFG=1
M  V30 20 S 38.145434 36.501026 61.367582 0 CHG=-1
M  V30 21 O 38.710997 30.476532 60.827782 0 CHG=-1
M  V30 22 N 38.140410 32.457770 59.098412 0
M  V30 23 C 38.045207 31.517765 57.955386 0 CFG=1
M  V30 24 C 39.245078 29.339064 52.752815 0
M  V30 25 C 40.466429 32.512999 62.655254 0
M  V30 26 N 38.937575 29.332127 57.011754 0
M  V30 27 H 37.245139 28.084560 57.233348 0
M  V30 28 H 38.805928 27.291448 57.532909 0
M  V30 29 H 38.129732 28.405299 58.714477 0
M  V30 30 H 40.652333 30.699517 63.942607 0
M  V30 31 H 41.014081 30.395821 62.167680 0
M  V30 32 H 38.236776 27.337946 55.330636 0
M  V30 33 H 41.991836 34.869748 60.967768 0
M  V30 34 H 40.989642 36.280832 61.171987 0
M  V30 35 H 41.261125 35.201135 62.527660 0
M  V30 36 H 37.641863 34.334546 58.239485 0
M  V30 37 H 36.258732 33.293224 58.568481 0
M  V30 38 H 37.052676 34.132439 59.874936 0
M  V30 39 H 39.877632 31.347936 55.419911 0
M  V30 40 H 40.793562 32.542751 60.567763 0
M  V30 41 H 37.128727 32.288836 56.481264 0
M  V30 42 H 39.027579 28.546316 50.992622 0
M  V30 43 H 37.906803 34.226235 61.633359 0
M  V30 44 H 42.640787 32.313514 62.161118 0
M  V30 45 H 42.291791 32.613169 63.940132 0
M  V30 46 H 39.627841 30.208481 58.717066 0
M  V30 47 H 40.045130 31.095108 57.324755 0
M  V30 48 H 40.038525 31.331299 52.966501 0
M  V30 49 H 37.783255 26.270801 53.257258 0
M  V30 50 H 37.645146 27.298437 51.822003 0
M  V30 51 H 39.187531 26.531062 52.195770 0
M  V30 52 H 39.659371 34.587417 59.988026 0
M  V30 53 H 37.126035 30.937998 58.040860 0
M  V30 54 H 39.866987 32.970410 63.439821 0
M  V30 55 H 38.869344 34.852209 62.765836 0
M  V30 END ATOM
M  V30 BEGIN BOND
M  V30 1 2 5 3
M  V30 2 2 8 4
M  V30 3 1 9 5
M  V30 4 1 10 8
M  V30 5 1 11 3
M  V30 6 1 15 2
M  V30 7 2 17 9
M  V30 8 1 18 11
M  V30 9 1 19 6
M  V30 10 1 19 10
M  V30 11 1 19 14
M  V30 12 1 20 14
M  V30 13 1 21 8
M  V30 14 1 22 7
M  V30 15 1 22 8
M  V30 16 1 23 12
M  V30 17 1 23 16
M  V30 18 1 23 22
M  V30 19 2 24 11
M  V30 20 1 24 13
M  V30 21 1 24 17
M  V30 22 1 25 2
M  V30 23 1 25 10
M  V30 24 1 25 15
M  V30 25 1 26 1
M  V30 26 1 26 5
M  V30 27 1 26 16
M  V30 28 1 27 1
M  V30 29 1 28 1
M  V30 30 1 29 1
M  V30 31 1 30 2
M  V30 32 1 31 2
M  V30 33 1 32 3
M  V30 34 1 33 6
M  V30 35 1 34 6
M  V30 36 1 35 6
M  V30 37 1 36 7
M  V30 38 1 37 7
M  V30 39 1 38 7
M  V30 40 1 39 9
M  V30 41 1 10 40 CFG=3
M  V30 42 1 41 12
M  V30 43 1 42 13
M  V30 44 1 43 14
M  V30 45 1 44 15
M  V30 46 1 45 15
M  V30 47 1 46 16
M  V30 48 1 47 16
M  V30 49 1 48 17
M  V30 50 1 49 18
M  V30 51 1 50 18
M  V30 52 1 51 18
M  V30 53 1 19 52 CFG=3
M  V30 54 1 23 53 CFG=1
M  V30 55 1 54 25
M  V30 56 1 55 14
M  V30 END BOND
M  V30 END CTAB
M  END
>  <i_epik_Tot_Q>  (1) 
-1

>  <i_epik_Tot_abs_Q>  (1) 
3

>  <i_i_glide_confnum>  (1) 
485

>  <i_i_glide_lignum>  (1) 
98

>  <i_i_glide_posenum>  (1) 
366

>  <i_i_glide_rotatable_bonds>  (1) 
11

>  <i_lp_mmshare_version>  (1) 
72125

>  <i_m_source_file_index>  (1) 
47

>  <i_f3d_flags>  (1) 
0

>  <num_sample>  (1) 
100

>  <b_lp_Chiralities_Consistent>  (1) 
1

>  <r_epik_Charging_Adjusted_Penalty>  (1) 
3.3730423186562179e-05

>  <r_epik_Ionization_Penalty>  (1) 
0.037967810470841745

>  <r_epik_Ionization_Penalty_Charging>  (1) 
3.3730423186562179e-05

>  <r_epik_Ionization_Penalty_Neutral>  (1) 
0.03793408004765518

>  <r_epik_State_Penalty>  (1) 
-0

>  <r_glide_ring_energy>  (1) 
0

>  <r_i_docking_score>  (1) 
-5.3782434340734158

>  <r_i_glide_ecoul>  (1) 
-4.372590473550904

>  <r_i_glide_eff_state_penalty>  (1) 
-0

>  <r_i_glide_einternal>  (1) 
13.119202643647334

>  <r_i_glide_emodel>  (1) 
-50.916324077835242

>  <r_i_glide_emodel_strain>  (1) 
1.3563293670448644

>  <r_i_glide_energy>  (1) 
-40.980965116982631

>  <r_i_glide_erotb>  (1) 
0.84802462455657757

>  <r_i_glide_esite>  (1) 
-0.14405130724874859

>  <r_i_glide_evdw>  (1) 
-36.608374643431731

>  <r_i_glide_gscore>  (1) 
-5.3782434340734158

>  <r_i_glide_gscore_strain>  (1) 
0

>  <r_i_glide_hbond>  (1) 
-0.15595528946560064

>  <r_i_glide_ligand_efficiency>  (1) 
-0.20685551669513139

>  <r_i_glide_ligand_efficiency_ln>  (1) 
-1.2630628230360434

>  <r_i_glide_ligand_efficiency_sa>  (1) 
-0.61280865493770198

>  <r_i_glide_lipo>  (1) 
-2.6029378625890343

>  <r_i_glide_metal>  (1) 
-0

>  <r_i_glide_rewards>  (1) 
-0.83701629612238737

>  <r_lp_Energy>  (1) 
26.114241

>  <r_lp_tautomer_probability>  (1) 
1

>  <s_epik_Chemistry_Notes>  (1) 
This compound contains an acetal/aminal-like group ( X-CH(R)-Y where X, Y are N, S, or O) that may be acid/base labile, releasing an aldehyde.

>  <s_epik_cmdline>  (1) 
J2VwaWtfcHl0aG9uJywgJy1waHQnLCAnMS4wJywgJy1waCcsICc3LjQnLCAnLXRuJywgJzgnLCAnLW1hJywgJzUwMCcsICctaW1hZScsICc8aW5maWxlLm1hZT4nLCAnLW9tYWUnLCAnPG91dGZpbGUubWFlPic=

>  <s_epik_input>  (1) 
W2NIXTFbY0hdYyhbT0hdKWMoW0NIM10pW2NIXWMxTihbQ0gzXSlbQ0gyXVtDQEhdKFtPSF0pTihbQ0gzXSlbUEBAXSg9TykoW09IXSlbQ0BASF0oW0NASF0oW0NIM10pW05IXVtTSF0pW0NIXTJbQ0gyXVtDSDJdMg==

>  <s_glide_docking_method>  (1) 
confgen

>  <s_i_glide_gridfile>  (1) 
gpcr_5ht2c_6bqh_protein_autoprepared_prepared

>  <s_lp_Force_Field>  (1) 
S-OPLS

>  <s_lp_Variant>  (1) 
DiffSBDD_46-1

>  <s_m_source_file>  (1) 
generated_GPCR_5HT2C_ligand_DiffSBDD_2026-06-23_prepared.sdf

>  <GenAI_Model>  (1) 
DiffSBDD

>  <Protein>  (1) 
GPCR_5HT2C

$$$$
DiffSBDD_18
     RDKit          3D

  0  0  0  0  0  0  0  0  0  0999 V3000
M  V30 BEGIN CTAB
M  V30 COUNTS 77 79 0 0 1
M  V30 BEGIN ATOM
M  V30 1 C 38.932736 25.853900 56.927211 0
M  V30 2 C 42.403966 31.785634 64.483116 0 CFG=2
M  V30 3 C 38.958066 31.305434 53.969805 0
M  V30 4 C 39.078920 29.912120 53.864279 0
M  V30 5 C 38.802611 31.099839 56.389126 0
M  V30 6 O 44.448463 28.613933 66.520803 0
M  V30 7 C 41.479039 27.712802 57.567260 0
M  V30 8 C 40.850942 28.960428 66.167831 0
M  V30 9 C 39.245142 29.053807 61.858334 0
M  V30 10 C 38.826601 28.070517 52.192712 0
M  V30 11 C 44.371342 29.759656 66.025693 0
M  V30 12 C 38.813608 31.898990 55.232125 0
M  V30 13 C 40.671215 28.151766 59.881121 0
M  V30 14 C 41.064808 29.819819 65.203033 0
M  V30 15 C 41.589401 29.007290 67.496511 0
M  V30 16 C 42.979646 27.959810 57.767794 0
M  V30 17 C 38.085086 26.981877 57.531963 0
M  V30 18 C 40.657835 29.297469 62.275205 0 CFG=2
M  V30 19 C 42.952937 31.985092 65.930315 0
M  V30 20 C 41.845529 33.129408 63.968606 0
M  V30 21 C 42.489635 30.231723 67.819559 0
M  V30 22 C 38.061974 27.191460 53.145641 0
M  V30 23 C 41.410536 30.648194 64.245347 0
M  V30 24 C 37.785478 29.572165 58.984931 0
M  V30 25 C 43.518291 30.804539 66.788158 0 CFG=1
M  V30 26 N 39.078572 27.604545 50.961587 0 CHG=1
M  V30 27 C 39.088308 29.102735 55.023886 0
M  V30 28 P 38.938799 28.654354 57.824049 0 CFG=2 CHG=1
M  V30 29 N 40.936020 30.552965 62.949703 0
M  V30 30 O 44.930899 30.137719 64.972280 0 CHG=-1
M  V30 31 C 40.305498 29.300358 60.804211 0 CFG=2
M  V30 32 C 38.943934 29.694379 56.295044 0
M  V30 33 N 40.595429 28.528940 58.447019 0 CFG=2 CHG=1
M  V30 34 N 39.245152 29.336825 52.521506 0
M  V30 35 H 38.284515 25.066129 56.541420 0
M  V30 36 H 39.556993 26.185227 56.099932 0
M  V30 37 H 39.563016 25.383213 57.680997 0
M  V30 38 H 43.245137 31.540023 63.840157 0
M  V30 39 H 38.966508 31.920660 53.082116 0
M  V30 40 H 38.689061 31.566796 57.356419 0
M  V30 41 H 41.301930 26.652963 57.728780 0
M  V30 42 H 41.245478 27.925695 56.524371 0
M  V30 43 H 40.165003 28.137814 66.031765 0
M  V30 44 H 38.872336 28.040839 61.998036 0
M  V30 45 H 38.524441 29.845544 62.055603 0
M  V30 46 H 38.709554 32.971633 55.315889 0
M  V30 47 H 41.679131 27.843173 60.146175 0
M  V30 48 H 40.030931 27.294565 60.073031 0
M  V30 49 H 40.845108 28.924606 68.287295 0
M  V30 50 H 42.179815 28.093737 67.563239 0
M  V30 51 H 43.552668 27.494853 56.967770 0
M  V30 52 H 43.245161 29.015340 57.788913 0
M  V30 53 H 43.330555 27.487003 58.680673 0
M  V30 54 H 37.649327 26.620245 58.461280 0
M  V30 55 H 37.245142 27.155712 56.864326 0
M  V30 56 H 41.238308 28.462611 62.666959 0
M  V30 57 H 43.752600 32.723844 65.857236 0
M  V30 58 H 42.181105 32.490298 66.511014 0
M  V30 59 H 41.639109 33.111896 62.898883 0
M  V30 60 H 40.919216 33.388274 64.482820 0
M  V30 61 H 42.551426 33.942864 64.139492 0
M  V30 62 H 43.047861 29.968131 68.719011 0
M  V30 63 H 41.837490 31.041979 68.144753 0
M  V30 64 H 38.721298 26.525829 53.702644 0
M  V30 65 H 37.373064 27.741193 53.786657 0
M  V30 66 H 37.416893 26.537758 52.567787 0
M  V30 67 H 36.890897 29.899979 58.453231 0
M  V30 68 H 37.447728 28.937755 59.795973 0
M  V30 69 H 38.238374 30.464807 59.412840 0
M  V30 70 H 44.262465 31.287489 67.423050 0
M  V30 71 H 38.762274 26.679074 50.695077 0
M  V30 72 H 39.226546 28.047831 54.956822 0
M  V30 73 H 41.274780 31.285868 62.345737 0
M  V30 74 H 40.355202 30.286996 60.347766 0
M  V30 75 H 39.528214 29.930775 51.754358 0
M  V30 76 H 39.574164 28.175481 50.291075 0
M  V30 77 H 40.975808 29.461838 58.392431 0
M  V30 END ATOM
M  V30 BEGIN BOND
M  V30 1 1 4 3
M  V30 2 2 11 6
M  V30 3 2 12 3
M  V30 4 1 12 5
M  V30 5 2 14 8
M  V30 6 1 15 8
M  V30 7 1 16 7
M  V30 8 1 17 1
M  V30 9 1 18 9
M  V30 10 1 19 2
M  V30 11 1 20 2
M  V30 12 1 21 15
M  V30 13 1 22 10
M  V30 14 1 23 2
M  V30 15 2 23 14
M  V30 16 1 25 11
M  V30 17 1 25 19
M  V30 18 1 25 21
M  V30 19 2 26 10
M  V30 20 2 27 4
M  V30 21 1 28 17 CFG=3
M  V30 22 1 28 24
M  V30 23 1 29 18
M  V30 24 1 29 23
M  V30 25 1 30 11
M  V30 26 1 31 9
M  V30 27 1 31 13
M  V30 28 1 31 18
M  V30 29 2 32 5
M  V30 30 1 32 27
M  V30 31 1 32 28
M  V30 32 1 33 7
M  V30 33 1 33 13
M  V30 34 1 33 28
M  V30 35 1 34 4
M  V30 36 1 34 10
M  V30 37 1 35 1
M  V30 38 1 36 1
M  V30 39 1 37 1
M  V30 40 1 2 38 CFG=3
M  V30 41 1 39 3
M  V30 42 1 40 5
M  V30 43 1 41 7
M  V30 44 1 42 7
M  V30 45 1 43 8
M  V30 46 1 44 9
M  V30 47 1 45 9
M  V30 48 1 46 12
M  V30 49 1 47 13
M  V30 50 1 48 13
M  V30 51 1 49 15
M  V30 52 1 50 15
M  V30 53 1 51 16
M  V30 54 1 52 16
M  V30 55 1 53 16
M  V30 56 1 54 17
M  V30 57 1 55 17
M  V30 58 1 18 56 CFG=3
M  V30 59 1 57 19
M  V30 60 1 58 19
M  V30 61 1 59 20
M  V30 62 1 60 20
M  V30 63 1 61 20
M  V30 64 1 62 21
M  V30 65 1 63 21
M  V30 66 1 64 22
M  V30 67 1 65 22
M  V30 68 1 66 22
M  V30 69 1 67 24
M  V30 70 1 68 24
M  V30 71 1 69 24
M  V30 72 1 25 70 CFG=1
M  V30 73 1 71 26
M  V30 74 1 72 27
M  V30 75 1 73 29
M  V30 76 1 31 74 CFG=3
M  V30 77 1 75 34
M  V30 78 1 76 26
M  V30 79 1 33 77 CFG=1
M  V30 END BOND
M  V30 END CTAB
M  END
>  <i_epik_Tot_Q>  (1) 
2

>  <i_epik_Tot_abs_Q>  (1) 
4

>  <i_i_glide_confnum>  (1) 
499

>  <i_i_glide_lignum>  (1) 
43

>  <i_i_glide_posenum>  (1) 
155

>  <i_i_glide_rotatable_bonds>  (1) 
11

>  <i_lp_mmshare_version>  (1) 
72125

>  <i_m_source_file_index>  (1) 
19

>  <i_f3d_flags>  (1) 
0

>  <num_sample>  (1) 
100

>  <b_lp_Chiralities_Consistent>  (1) 
1

>  <r_epik_Charging_Adjusted_Penalty>  (1) 
0.035732071636325656

>  <r_epik_Ionization_Penalty>  (1) 
0.019213783482484162

>  <r_epik_Ionization_Penalty_Charging>  (1) 
0.019186760244236628

>  <r_epik_Ionization_Penalty_Neutral>  (1) 
2.7023238247534635e-05

>  <r_epik_State_Penalty>  (1) 
0.016545311392089028

>  <r_glide_ring_energy>  (1) 
0

>  <r_i_docking_score>  (1) 
-5.372196203494874

>  <r_i_glide_ecoul>  (1) 
-1.072050316321977

>  <r_i_glide_eff_state_penalty>  (1) 
0.016545311392089028

>  <r_i_glide_einternal>  (1) 
8.9946765604088128

>  <r_i_glide_emodel>  (1) 
-53.695356751508214

>  <r_i_glide_emodel_strain>  (1) 
1.43682571756257

>  <r_i_glide_energy>  (1) 
-41.246183869890295

>  <r_i_glide_erotb>  (1) 
0.68654883804919686

>  <r_i_glide_esite>  (1) 
-0.012724700825903185

>  <r_i_glide_evdw>  (1) 
-40.174133553568318

>  <r_i_glide_gscore>  (1) 
-5.3887415148869628

>  <r_i_glide_gscore_strain>  (1) 
0

>  <r_i_glide_hbond>  (1) 
0

>  <r_i_glide_ligand_efficiency>  (1) 
-0.1580057706910257

>  <r_i_glide_ligand_efficiency_ln>  (1) 
-1.1868688263514846

>  <r_i_glide_ligand_efficiency_sa>  (1) 
-0.51187735940059087

>  <r_i_glide_lipo>  (1) 
-2.9531931737287653

>  <r_i_glide_metal>  (1) 
-0

>  <r_i_glide_rewards>  (1) 
-0.93985825325477823

>  <r_lp_Energy>  (1) 
34.203074999999998

>  <s_epik_Chemistry_Notes>  (1) 
This compound has an imine and may undergo hydrolysis.

>  <s_epik_cmdline>  (1) 
J2VwaWtfcHl0aG9uJywgJy1waHQnLCAnMS4wJywgJy1waCcsICc3LjQnLCAnLXRuJywgJzgnLCAnLW1hJywgJzUwMCcsICctaW1hZScsICc8aW5maWxlLm1hZT4nLCAnLW9tYWUnLCAnPG91dGZpbGUubWFlPic=

>  <s_epik_input>  (1) 
W0hdL049QyhcW0NIM10pW05IXWMxW2NIXVtjSF1bY0hdYyhbY0hdMSlbUEBAK10oW0NIM10pKFtDSDJdW0NIM10pTihbQ0gyXVtDSDNdKVtDSDJdW0NASF0yW0NIMl1bQ0BASF0yW05IXUMzPUM9W0NIXVtDSDJdW0NIMl1bQ0BASF0oQyg9TylbT0hdKVtDSDJdW0NAQEhdM1tDSDNd

>  <s_glide_docking_method>  (1) 
confgen

>  <s_i_glide_gridfile>  (1) 
gpcr_5ht2c_6bqh_protein_autoprepared_prepared

>  <s_lp_Force_Field>  (1) 
S-OPLS

>  <s_lp_Variant>  (1) 
DiffSBDD_18-2

>  <s_m_source_file>  (1) 
generated_GPCR_5HT2C_ligand_DiffSBDD_2026-06-23_prepared.sdf

>  <GenAI_Model>  (1) 
DiffSBDD

>  <Protein>  (1) 
GPCR_5HT2C

$$$$
DiffSBDD_86
     RDKit          3D

  0  0  0  0  0  0  0  0  0  0999 V3000
M  V30 BEGIN CTAB
M  V30 COUNTS 78 80 0 0 1
M  V30 BEGIN ATOM
M  V30 1 C 37.930077 25.997675 56.618338 0
M  V30 2 C 35.661171 37.796027 63.728344 0
M  V30 3 C 37.317469 31.649371 59.275205 0 CFG=2
M  V30 4 C 34.160378 37.740009 63.471700 0
M  V30 5 N 38.001028 31.496986 57.955083 0
M  V30 6 C 40.620259 32.588553 65.608871 0
M  V30 7 N 38.468335 27.082984 57.286235 0
M  V30 8 C 39.328388 32.784479 62.454776 0
M  V30 9 O 38.445404 29.107491 60.167556 0
M  V30 10 O 42.445573 32.537672 61.496921 0
M  V30 11 C 41.532061 33.590037 63.399214 0 CFG=2
M  V30 12 C 39.116425 32.606032 60.949212 0
M  V30 13 C 38.842599 32.428753 57.481352 0
M  V30 14 N 40.297193 33.909742 62.639730 0 CFG=2 CHG=1
M  V30 15 C 42.203320 32.403190 62.712377 0
M  V30 16 C 37.516665 24.759946 57.160948 0
M  V30 17 C 36.845303 23.974363 54.967689 0
M  V30 18 O 39.132332 33.384475 58.204300 0
M  V30 19 C 37.699879 30.294585 57.173562 0
M  V30 20 C 37.245065 25.191083 54.410029 0
M  V30 21 C 36.422239 32.935488 59.366632 0
M  V30 22 S 38.353971 27.775709 54.777472 0
M  V30 23 O 42.445015 31.389680 63.401143 0 CHG=-1
M  V30 24 C 39.781160 35.269698 62.951919 0
M  V30 25 C 38.232791 31.415792 60.525915 0 CFG=2
M  V30 26 C 42.799751 33.946973 65.630934 0
M  V30 27 O 39.163131 30.356337 60.322671 0
M  V30 28 N 36.445104 37.076149 62.701804 0 CHG=1
M  V30 29 C 38.983324 29.464903 56.956361 0
M  V30 30 C 37.778767 26.183152 55.218569 0
M  V30 31 O 37.644942 24.537899 58.486022 0
M  V30 32 C 38.484461 35.714759 62.254516 0
M  V30 33 C 38.636725 28.127585 56.473349 0
M  V30 34 C 41.709535 34.974067 65.662332 0
M  V30 35 C 41.485257 33.644343 64.945614 0
M  V30 36 O 39.318651 32.306436 56.329555 0 CHG=-1
M  V30 37 C 36.972611 23.759899 56.338776 0
M  V30 38 C 37.843618 36.830587 63.088058 0
M  V30 39 H 35.845406 37.337215 64.702762 0
M  V30 40 H 35.980249 38.835386 63.766769 0
M  V30 41 H 36.582518 30.848903 59.324500 0
M  V30 42 H 33.610292 38.137698 64.324042 0
M  V30 43 H 33.878101 38.291135 62.570515 0
M  V30 44 H 33.840679 36.709505 63.367723 0
M  V30 45 H 40.482387 32.813829 66.665379 0
M  V30 46 H 39.647642 32.537639 65.143644 0
M  V30 47 H 41.086755 31.607282 65.551954 0
M  V30 48 H 38.388525 32.937764 62.967635 0
M  V30 49 H 39.695225 31.842033 62.862942 0
M  V30 50 H 38.551771 28.731432 61.028413 0
M  V30 51 H 42.196657 34.408008 63.137684 0
M  V30 52 H 40.076618 32.497458 60.447530 0
M  V30 53 H 38.750053 33.554067 60.583318 0
M  V30 54 H 36.445181 23.203965 54.338020 0
M  V30 55 H 36.947213 29.678148 57.663237 0
M  V30 56 H 37.254667 30.571876 56.214872 0
M  V30 57 H 37.137572 25.360109 53.357849 0
M  V30 58 H 35.541085 32.760475 59.984900 0
M  V30 59 H 36.924762 33.802756 59.774919 0
M  V30 60 H 36.074707 33.306723 58.400555 0
M  V30 61 H 39.647693 35.337878 64.025525 0
M  V30 62 H 40.563010 35.996493 62.719944 0
M  V30 63 H 37.582076 31.170394 61.368120 0
M  V30 64 H 43.028065 33.416189 66.554458 0
M  V30 65 H 43.644319 34.143163 64.976732 0
M  V30 66 H 36.416044 37.567383 61.817629 0
M  V30 67 H 39.647841 29.913189 56.217490 0
M  V30 68 H 39.558557 29.371653 57.876230 0
M  V30 69 H 38.044189 25.292522 58.897727 0
M  V30 70 H 38.684642 36.040009 61.231934 0
M  V30 71 H 37.769024 34.901826 62.165606 0
M  V30 72 H 41.861685 35.867796 65.059161 0
M  V30 73 H 41.203171 35.142565 66.610131 0
M  V30 74 H 36.658398 22.822491 56.769446 0
M  V30 75 H 37.849849 36.542800 64.140614 0
M  V30 76 H 38.436051 37.737756 63.019640 0
M  V30 77 H 36.003641 36.172550 62.592286 0
M  V30 78 H 40.690871 33.978527 61.707995 0
M  V30 END ATOM
M  V30 BEGIN BOND
M  V30 1 1 4 2
M  V30 2 1 5 3
M  V30 3 1 7 1
M  V30 4 1 12 8
M  V30 5 1 13 5
M  V30 6 1 14 8
M  V30 7 1 14 11
M  V30 8 2 15 10
M  V30 9 1 15 11
M  V30 10 2 16 1
M  V30 11 2 18 13
M  V30 12 1 19 5
M  V30 13 1 20 17
M  V30 14 1 21 3
M  V30 15 1 23 15
M  V30 16 1 24 14
M  V30 17 1 25 3
M  V30 18 1 25 12
M  V30 19 1 27 9
M  V30 20 1 27 25
M  V30 21 1 28 2
M  V30 22 1 29 19
M  V30 23 1 30 1
M  V30 24 2 30 20
M  V30 25 1 30 22
M  V30 26 1 31 16
M  V30 27 1 32 24
M  V30 28 2 33 7
M  V30 29 1 33 22
M  V30 30 1 33 29
M  V30 31 1 34 26
M  V30 32 1 35 6
M  V30 33 1 35 11
M  V30 34 1 35 26
M  V30 35 1 35 34
M  V30 36 1 36 13
M  V30 37 1 37 16
M  V30 38 2 37 17
M  V30 39 1 38 28
M  V30 40 1 38 32
M  V30 41 1 39 2
M  V30 42 1 40 2
M  V30 43 1 3 41 CFG=3
M  V30 44 1 42 4
M  V30 45 1 43 4
M  V30 46 1 44 4
M  V30 47 1 45 6
M  V30 48 1 46 6
M  V30 49 1 47 6
M  V30 50 1 48 8
M  V30 51 1 49 8
M  V30 52 1 50 9
M  V30 53 1 11 51 CFG=3
M  V30 54 1 52 12
M  V30 55 1 53 12
M  V30 56 1 54 17
M  V30 57 1 55 19
M  V30 58 1 56 19
M  V30 59 1 57 20
M  V30 60 1 58 21
M  V30 61 1 59 21
M  V30 62 1 60 21
M  V30 63 1 61 24
M  V30 64 1 62 24
M  V30 65 1 25 63 CFG=1
M  V30 66 1 64 26
M  V30 67 1 65 26
M  V30 68 1 66 28
M  V30 69 1 67 29
M  V30 70 1 68 29
M  V30 71 1 69 31
M  V30 72 1 70 32
M  V30 73 1 71 32
M  V30 74 1 72 34
M  V30 75 1 73 34
M  V30 76 1 74 37
M  V30 77 1 75 38
M  V30 78 1 76 38
M  V30 79 1 77 28
M  V30 80 1 14 78 CFG=3
M  V30 END BOND
M  V30 END CTAB
M  END
>  <i_epik_Tot_Q>  (1) 
0

>  <i_epik_Tot_abs_Q>  (1) 
4

>  <i_i_glide_confnum>  (1) 
10170

>  <i_i_glide_lignum>  (1) 
204

>  <i_i_glide_posenum>  (1) 
284

>  <i_i_glide_rotatable_bonds>  (1) 
20

>  <i_lp_mmshare_version>  (1) 
72125

>  <i_m_source_file_index>  (1) 
87

>  <i_f3d_flags>  (1) 
0

>  <num_sample>  (1) 
100

>  <b_lp_Chiralities_Consistent>  (1) 
1

>  <r_epik_Charging_Adjusted_Penalty>  (1) 
0.22044164317972559

>  <r_epik_Ionization_Penalty>  (1) 
0.19516572318186753

>  <r_epik_Ionization_Penalty_Charging>  (1) 
0.026579669222116228

>  <r_epik_Ionization_Penalty_Neutral>  (1) 
0.16858605395975129

>  <r_epik_State_Penalty>  (1) 
0.19386197395760935

>  <r_glide_ring_energy>  (1) 
0

>  <r_i_docking_score>  (1) 
-5.3672395220312508

>  <r_i_glide_ecoul>  (1) 
-2.2655479477714913

>  <r_i_glide_eff_state_penalty>  (1) 
0.19386197395760935

>  <r_i_glide_einternal>  (1) 
8.2974016370008812

>  <r_i_glide_emodel>  (1) 
-42.152661533898282

>  <r_i_glide_emodel_strain>  (1) 
4.4156431943366812

>  <r_i_glide_energy>  (1) 
-28.803320430942517

>  <r_i_glide_erotb>  (1) 
0.94715796475939662

>  <r_i_glide_esite>  (1) 
-0.144992516249593

>  <r_i_glide_evdw>  (1) 
-26.537772483171025

>  <r_i_glide_gscore>  (1) 
-5.5611014959888605

>  <r_i_glide_gscore_strain>  (1) 
0.10391079858417029

>  <r_i_glide_hbond>  (1) 
-6.2676149599900265e-05

>  <r_i_glide_ligand_efficiency>  (1) 
-0.14124314531661186

>  <r_i_glide_ligand_efficiency_ln>  (1) 
-1.1573347291401943

>  <r_i_glide_ligand_efficiency_sa>  (1) 
-0.47485598093338138

>  <r_i_glide_lipo>  (1) 
-4.184706033356397

>  <r_i_glide_metal>  (1) 
-0

>  <r_i_glide_rewards>  (1) 
-0.61568821725256284

>  <r_lp_Energy>  (1) 
44.186366999999997

>  <s_epik_cmdline>  (1) 
J2VwaWtfcHl0aG9uJywgJy1waHQnLCAnMS4wJywgJy1waCcsICc3LjQnLCAnLXRuJywgJzgnLCAnLW1hJywgJzUwMCcsICctaW1hZScsICc8aW5maWxlLm1hZT4nLCAnLW9tYWUnLCAnPG91dGZpbGUubWFlPic=

>  <s_epik_input>  (1) 
W09IXWMxW2NIXVtjSF1bY0hdYyhjMTIpc2MobjIpW0NIMl1bQ0gyXU4oQyg9TylbT0hdKVtDQEhdKFtDSDNdKVtDQEBIXShPW09IXSlbQ0gyXVtDSDJdTihbQ0BIXShDKD1PKVtPSF0pQzMoW0NIM10pW0NIMl1bQ0gyXTMpW0NIMl1bQ0gyXVtDSDJdW05IXVtDSDJdW0NIM10=

>  <s_glide_docking_method>  (1) 
confgen

>  <s_i_glide_gridfile>  (1) 
gpcr_5ht2c_6bqh_protein_autoprepared_prepared

>  <s_lp_Force_Field>  (1) 
S-OPLS

>  <s_lp_Variant>  (1) 
DiffSBDD_86-1

>  <s_m_source_file>  (1) 
generated_GPCR_5HT2C_ligand_DiffSBDD_2026-06-23_prepared.sdf

>  <GenAI_Model>  (1) 
DiffSBDD

>  <Protein>  (1) 
GPCR_5HT2C

$$$$
DiffSBDD_16
     RDKit          3D

  0  0  0  0  0  0  0  0  0  0999 V3000
M  V30 BEGIN CTAB
M  V30 COUNTS 69 73 0 0 1
M  V30 BEGIN ATOM
M  V30 1 C 40.032252 32.339215 62.437138 0
M  V30 2 C 39.188462 26.857925 53.029322 0
M  V30 3 C 39.005906 31.481397 57.372507 0 CFG=1
M  V30 4 C 38.720459 31.521241 55.852533 0
M  V30 5 C 41.691235 31.542095 64.065405 0
M  V30 6 C 41.330714 30.214140 63.796087 0
M  V30 7 C 36.668901 34.878576 59.446475 0
M  V30 8 C 35.525988 34.129660 60.162261 0
M  V30 9 C 38.198889 32.497157 58.242328 0
M  V30 10 C 40.320130 29.936567 62.864555 0
M  V30 11 O 38.370300 35.936487 60.730396 0
M  V30 12 C 38.891456 28.029194 55.126496 0
M  V30 13 C 38.448751 29.069535 55.891297 0
M  V30 14 C 38.501509 29.000753 57.390722 0
M  V30 15 C 38.941053 27.974834 53.655592 0
M  V30 16 C 41.047893 32.599563 63.389413 0
M  V30 17 N 39.245792 26.938429 51.657287 0
M  V30 18 C 40.016538 30.223170 50.471501 0
M  V30 19 N 39.244912 30.137154 57.939502 0
M  V30 20 C 40.045143 30.884773 51.800649 0
M  V30 21 C 42.767309 31.837200 65.090223 0
M  V30 22 C 35.502355 32.605184 59.983529 0
M  V30 23 C 36.543245 30.352972 59.777236 0
M  V30 24 C 36.760940 31.765253 60.315055 0 CFG=1
M  V30 25 C 39.366237 33.522921 61.771502 0
M  V30 26 C 38.114196 32.332717 59.810639 0 CFG=2
M  V30 27 C 37.921591 34.865496 60.320464 0
M  V30 28 C 38.777331 29.122148 52.754315 0 CFG=2
M  V30 29 C 38.520662 33.545312 60.686648 0
M  V30 30 C 39.219241 28.221806 51.554529 0
M  V30 31 N 39.645062 30.309762 52.877065 0
M  V30 32 C 39.663925 30.984894 62.190588 0
M  V30 33 C 37.854152 30.365064 55.361502 0
M  V30 34 C 39.641766 28.940272 50.361433 0
M  V30 35 H 39.361244 25.909301 53.508296 0
M  V30 36 H 39.983680 31.936087 57.367429 0
M  V30 37 H 38.269339 32.474976 55.577389 0
M  V30 38 H 39.672686 31.487850 55.320314 0
M  V30 39 H 41.821672 29.404477 64.315997 0
M  V30 40 H 36.377593 35.924630 59.341938 0
M  V30 41 H 36.831218 34.534726 58.431026 0
M  V30 42 H 35.522984 34.368405 61.226780 0
M  V30 43 H 34.582650 34.508990 59.766894 0
M  V30 44 H 38.644222 33.464968 58.013699 0
M  V30 45 H 37.212271 32.547469 57.813927 0
M  V30 46 H 40.031984 28.913421 62.676099 0
M  V30 47 H 39.255594 27.160134 55.653873 0
M  V30 48 H 37.479999 28.959283 57.751411 0
M  V30 49 H 38.978270 28.075656 57.719816 0
M  V30 50 H 41.329200 33.621224 63.604803 0
M  V30 51 H 40.352928 30.806402 49.626771 0
M  V30 52 H 40.222081 29.929872 57.795327 0
M  V30 53 H 40.445337 31.887758 51.805215 0
M  V30 54 H 42.958309 32.906647 65.174055 0
M  V30 55 H 42.461520 31.473010 66.071332 0
M  V30 56 H 43.695148 31.333149 64.822206 0
M  V30 57 H 34.681860 32.215675 60.582980 0
M  V30 58 H 35.195932 32.409247 58.967751 0
M  V30 59 H 36.399347 30.393073 58.699721 0
M  V30 60 H 37.379407 29.696936 60.010852 0
M  V30 61 H 35.645119 29.900157 60.167739 0
M  V30 62 H 36.814747 31.693119 61.401857 0
M  V30 63 H 39.567449 34.467553 62.254382 0
M  V30 64 H 38.939971 31.654737 59.902965 0
M  V30 65 H 37.720763 29.338870 52.608169 0
M  V30 66 H 38.873149 30.737841 61.525424 0
M  V30 67 H 37.583518 30.471179 54.326024 0
M  V30 68 H 36.883443 30.454457 55.852251 0
M  V30 69 H 39.659169 28.407564 49.434758 0
M  V30 END ATOM
M  V30 BEGIN BOND
M  V30 1 1 4 3
M  V30 2 1 6 5
M  V30 3 1 8 7
M  V30 4 1 9 3
M  V30 5 2 10 6
M  V30 6 2 13 12
M  V30 7 1 14 13
M  V30 8 2 15 2
M  V30 9 1 15 12
M  V30 10 1 16 1
M  V30 11 2 16 5
M  V30 12 1 17 2
M  V30 13 1 19 3
M  V30 14 1 19 14
M  V30 15 1 20 18
M  V30 16 1 21 5
M  V30 17 1 22 8
M  V30 18 1 24 22
M  V30 19 1 24 23
M  V30 20 1 25 1
M  V30 21 1 26 9
M  V30 22 1 26 24
M  V30 23 1 27 7
M  V30 24 2 27 11
M  V30 25 1 28 15
M  V30 26 2 29 25
M  V30 27 1 29 26
M  V30 28 1 29 27
M  V30 29 2 30 17
M  V30 30 1 30 28
M  V30 31 2 31 20
M  V30 32 1 31 28
M  V30 33 2 32 1
M  V30 34 1 32 10
M  V30 35 1 33 4
M  V30 36 1 33 13
M  V30 37 2 34 18
M  V30 38 1 34 30
M  V30 39 1 35 2
M  V30 40 1 3 36 CFG=3
M  V30 41 1 37 4
M  V30 42 1 38 4
M  V30 43 1 39 6
M  V30 44 1 40 7
M  V30 45 1 41 7
M  V30 46 1 42 8
M  V30 47 1 43 8
M  V30 48 1 44 9
M  V30 49 1 45 9
M  V30 50 1 46 10
M  V30 51 1 47 12
M  V30 52 1 48 14
M  V30 53 1 49 14
M  V30 54 1 50 16
M  V30 55 1 51 18
M  V30 56 1 52 19
M  V30 57 1 53 20
M  V30 58 1 54 21
M  V30 59 1 55 21
M  V30 60 1 56 21
M  V30 61 1 57 22
M  V30 62 1 58 22
M  V30 63 1 59 23
M  V30 64 1 60 23
M  V30 65 1 61 23
M  V30 66 1 24 62 CFG=1
M  V30 67 1 63 25
M  V30 68 1 26 64 CFG=1
M  V30 69 1 28 65 CFG=3
M  V30 70 1 66 32
M  V30 71 1 67 33
M  V30 72 1 68 33
M  V30 73 1 69 34
M  V30 END BOND
M  V30 END CTAB
M  END
>  <i_epik_Tot_Q>  (1) 
0

>  <i_epik_Tot_abs_Q>  (1) 
0

>  <i_i_glide_confnum>  (1) 
6

>  <i_i_glide_lignum>  (1) 
40

>  <i_i_glide_posenum>  (1) 
73

>  <i_i_glide_rotatable_bonds>  (1) 
4

>  <i_lp_mmshare_version>  (1) 
72125

>  <i_m_source_file_index>  (1) 
17

>  <i_f3d_flags>  (1) 
0

>  <num_sample>  (1) 
100

>  <b_lp_Chiralities_Consistent>  (1) 
1

>  <r_epik_Charging_Adjusted_Penalty>  (1) 
0.56391873878667209

>  <r_epik_Ionization_Penalty>  (1) 
0.56391873878667209

>  <r_epik_Ionization_Penalty_Charging>  (1) 
0

>  <r_epik_Ionization_Penalty_Neutral>  (1) 
0.56391873878667209

>  <r_epik_State_Penalty>  (1) 
0.56391873878667209

>  <r_glide_ring_energy>  (1) 
2.0215911855591866

>  <r_i_docking_score>  (1) 
-5.3633502559800155

>  <r_i_glide_ecoul>  (1) 
-0.99990001819390273

>  <r_i_glide_eff_state_penalty>  (1) 
0.56391873878667209

>  <r_i_glide_einternal>  (1) 
9.6712855688240467

>  <r_i_glide_emodel>  (1) 
-26.366728952992339

>  <r_i_glide_emodel_strain>  (1) 
6.2946411458734417

>  <r_i_glide_energy>  (1) 
-37.447475390871823

>  <r_i_glide_erotb>  (1) 
0.29265828080580603

>  <r_i_glide_esite>  (1) 
0

>  <r_i_glide_evdw>  (1) 
-36.447575372677917

>  <r_i_glide_gscore>  (1) 
-5.9272689947666874

>  <r_i_glide_gscore_strain>  (1) 
0.57366028646836043

>  <r_i_glide_hbond>  (1) 
0

>  <r_i_glide_ligand_efficiency>  (1) 
-0.15774559576411809

>  <r_i_glide_ligand_efficiency_ln>  (1) 
-1.184914508425029

>  <r_i_glide_ligand_efficiency_sa>  (1) 
-0.5110344936369845

>  <r_i_glide_lipo>  (1) 
-2.9221519115922363

>  <r_i_glide_metal>  (1) 
-0

>  <r_i_glide_rewards>  (1) 
-1.899071879085636

>  <r_lp_Energy>  (1) 
58.143042999999999

>  <s_epik_Chemistry_Notes>  (1) 
This compound has an imine and may undergo hydrolysis.

>  <s_epik_cmdline>  (1) 
J2VwaWtfcHl0aG9uJywgJy1waHQnLCAnMS4wJywgJy1waCcsICc3LjQnLCAnLXRuJywgJzgnLCAnLW1hJywgJzUwMCcsICctaW1hZScsICc8aW5maWxlLm1hZT4nLCAnLW9tYWUnLCAnPG91dGZpbGUubWFlPic=

>  <s_epik_input>  (1) 
W2NIXTFbY0hdW2NIXWMoW0NIM10pW2NIXWMxL1tDSF09QyhDKD1PKVtDSDJdW0NIMl1bQ0gyXVtDQEhdMltDSDNdKVxbQ0BASF0yW0NIMl1bQ0BASF0zW0NIMl1bQ0gyXUMoL1tDSDJdW05IXTMpPVtDSF1cQzQ9W0NIXU49QyhbQ0BASF00NSlbQ0hdPVtDSF1bQ0hdPU41

>  <s_glide_docking_method>  (1) 
confgen

>  <s_i_glide_gridfile>  (1) 
gpcr_5ht2c_6bqh_protein_autoprepared_prepared

>  <s_lp_Force_Field>  (1) 
S-OPLS

>  <s_lp_Variant>  (1) 
DiffSBDD_16-8

>  <s_m_source_file>  (1) 
generated_GPCR_5HT2C_ligand_DiffSBDD_2026-06-23_prepared.sdf

>  <GenAI_Model>  (1) 
DiffSBDD

>  <Protein>  (1) 
GPCR_5HT2C

$$$$
DiffSBDD_67
     RDKit          3D

  0  0  0  0  0  0  0  0  0  0999 V3000
M  V30 BEGIN CTAB
M  V30 COUNTS 77 78 0 0 1
M  V30 BEGIN ATOM
M  V30 1 C 39.334995 29.970797 56.039244 0
M  V30 2 O 37.382444 35.036122 59.592598 0
M  V30 3 O 34.846870 32.408876 61.767523 0 CHG=-1
M  V30 4 C 39.111198 30.519120 54.597072 0 CFG=1
M  V30 5 O 38.003589 32.655915 54.562128 0
M  V30 6 C 38.312119 34.529722 60.221166 0
M  V30 7 C 39.267294 29.502097 53.389186 0 CFG=1
M  V30 8 C 40.268896 28.936497 56.279667 0
M  V30 9 C 36.508660 30.778884 54.568093 0
M  V30 10 C 38.365873 28.226407 53.438156 0
M  V30 11 N 37.025609 25.318603 55.604591 0 CFG=1 CHG=1
M  V30 12 C 37.981989 30.604118 59.575860 0
M  V30 13 C 38.100199 25.449344 57.629722 0
M  V30 14 C 39.893664 27.757536 50.588843 0
M  V30 15 C 40.463512 28.449945 57.586823 0
M  V30 16 C 39.734654 31.463540 51.758341 0
M  V30 17 C 40.369775 29.180940 50.924863 0
M  V30 18 C 38.797414 30.024745 58.426101 0
M  V30 19 C 37.594950 32.118555 59.481293 0 CFG=2
M  V30 20 C 37.944223 24.149621 55.724684 0
M  V30 21 C 36.868027 25.955516 56.939112 0
M  V30 22 C 38.666595 24.183404 57.082630 0
M  V30 23 C 40.589242 29.929946 49.582671 0
M  V30 24 O 36.915622 31.794725 62.126787 0
M  V30 25 O 38.613310 26.040926 58.567557 0
M  V30 26 C 38.235632 27.395352 54.716912 0
M  V30 27 C 37.319130 26.212448 54.441988 0
M  V30 28 C 36.003725 32.177135 61.359245 0
M  V30 29 C 39.132430 35.344338 61.211925 0
M  V30 30 C 38.703103 33.055865 60.038099 0
M  V30 31 C 39.400581 29.968197 51.886150 0 CFG=1
M  V30 32 C 38.604740 30.507249 57.125927 0
M  V30 33 N 36.269369 32.342309 60.064662 0
M  V30 34 C 37.882507 31.434888 54.561666 0
M  V30 35 C 39.727566 28.992852 58.660716 0
M  V30 36 H 39.941233 31.220513 54.488159 0
M  V30 37 H 40.296179 29.337825 53.556278 0
M  V30 38 H 40.835154 28.519677 55.465412 0
M  V30 39 H 36.235781 30.524670 55.584663 0
M  V30 40 H 35.760556 31.459460 54.167367 0
M  V30 41 H 36.464884 29.863132 54.010512 0
M  V30 42 H 37.381535 28.463963 53.039741 0
M  V30 43 H 38.696463 27.495665 52.732000 0
M  V30 44 H 37.073438 30.004511 59.595577 0
M  V30 45 H 38.486746 30.401179 60.519885 0
M  V30 46 H 38.840678 27.748204 50.326195 0
M  V30 47 H 40.445015 27.319755 49.767793 0
M  V30 48 H 40.046710 27.062962 51.405581 0
M  V30 49 H 41.175643 27.659787 57.768520 0
M  V30 50 H 40.798613 31.626084 51.913761 0
M  V30 51 H 39.469504 31.838751 50.770118 0
M  V30 52 H 39.219591 32.130014 52.435290 0
M  V30 53 H 41.351475 29.094180 51.380276 0
M  V30 54 H 37.412465 32.444543 58.463825 0
M  V30 55 H 37.319859 23.265096 55.624612 0
M  V30 56 H 38.679778 24.134819 54.922756 0
M  V30 57 H 36.853272 27.037571 56.967672 0
M  V30 58 H 35.979039 25.571112 57.442205 0
M  V30 59 H 39.752841 24.261762 57.001605 0
M  V30 60 H 38.419121 23.347594 57.733171 0
M  V30 61 H 39.647117 30.264063 49.157735 0
M  V30 62 H 41.229259 30.805007 49.700818 0
M  V30 63 H 41.066716 29.337268 48.813816 0
M  V30 64 H 39.201763 27.017088 55.048366 0
M  V30 65 H 37.799448 28.024910 55.488342 0
M  V30 66 H 36.445156 26.671177 53.988874 0
M  V30 67 H 37.736503 25.611621 53.639012 0
M  V30 68 H 40.190920 35.297858 60.952483 0
M  V30 69 H 38.822221 36.388952 61.201660 0
M  V30 70 H 38.998051 34.949635 62.218877 0
M  V30 71 H 39.048460 32.682224 61.001746 0
M  V30 72 H 39.563101 33.023503 59.367843 0
M  V30 73 H 38.445063 29.737813 51.429331 0
M  V30 74 H 37.889729 31.286140 56.960574 0
M  V30 75 H 35.526870 32.639172 59.449658 0
M  V30 76 H 39.873106 28.609213 59.659673 0
M  V30 77 H 36.132963 24.903468 55.375048 0
M  V30 END ATOM
M  V30 BEGIN BOND
M  V30 1 1 4 1
M  V30 2 2 6 2
M  V30 3 1 7 4
M  V30 4 2 8 1
M  V30 5 1 10 7
M  V30 6 1 15 8
M  V30 7 1 17 14
M  V30 8 1 18 12
M  V30 9 1 19 12
M  V30 10 1 20 11
M  V30 11 1 21 11
M  V30 12 1 21 13
M  V30 13 1 22 13
M  V30 14 1 22 20
M  V30 15 1 23 17
M  V30 16 2 25 13
M  V30 17 1 26 10
M  V30 18 1 27 11
M  V30 19 1 27 26
M  V30 20 1 28 3
M  V30 21 2 28 24
M  V30 22 1 29 6
M  V30 23 1 30 6
M  V30 24 1 30 19
M  V30 25 1 31 7
M  V30 26 1 31 16
M  V30 27 1 31 17
M  V30 28 1 32 1
M  V30 29 2 32 18
M  V30 30 1 33 19
M  V30 31 1 33 28
M  V30 32 1 34 4
M  V30 33 2 34 5
M  V30 34 1 34 9
M  V30 35 2 35 15
M  V30 36 1 35 18
M  V30 37 1 4 36 CFG=3
M  V30 38 1 7 37 CFG=1
M  V30 39 1 38 8
M  V30 40 1 39 9
M  V30 41 1 40 9
M  V30 42 1 41 9
M  V30 43 1 42 10
M  V30 44 1 43 10
M  V30 45 1 44 12
M  V30 46 1 45 12
M  V30 47 1 46 14
M  V30 48 1 47 14
M  V30 49 1 48 14
M  V30 50 1 49 15
M  V30 51 1 50 16
M  V30 52 1 51 16
M  V30 53 1 52 16
M  V30 54 1 53 17
M  V30 55 1 19 54 CFG=3
M  V30 56 1 55 20
M  V30 57 1 56 20
M  V30 58 1 57 21
M  V30 59 1 58 21
M  V30 60 1 59 22
M  V30 61 1 60 22
M  V30 62 1 61 23
M  V30 63 1 62 23
M  V30 64 1 63 23
M  V30 65 1 64 26
M  V30 66 1 65 26
M  V30 67 1 66 27
M  V30 68 1 67 27
M  V30 69 1 68 29
M  V30 70 1 69 29
M  V30 71 1 70 29
M  V30 72 1 71 30
M  V30 73 1 72 30
M  V30 74 1 31 73 CFG=3
M  V30 75 1 74 32
M  V30 76 1 75 33
M  V30 77 1 76 35
M  V30 78 1 11 77 CFG=3
M  V30 END BOND
M  V30 END CTAB
M  END
>  <i_epik_Tot_Q>  (1) 
0

>  <i_epik_Tot_abs_Q>  (1) 
2

>  <i_i_glide_confnum>  (1) 
2031

>  <i_i_glide_lignum>  (1) 
150

>  <i_i_glide_posenum>  (1) 
72

>  <i_i_glide_rotatable_bonds>  (1) 
15

>  <i_lp_mmshare_version>  (1) 
72125

>  <i_m_source_file_index>  (1) 
68

>  <i_f3d_flags>  (1) 
0

>  <num_sample>  (1) 
100

>  <b_lp_Chiralities_Consistent>  (1) 
1

>  <r_epik_Charging_Adjusted_Penalty>  (1) 
0.5296149838886226

>  <r_epik_Ionization_Penalty>  (1) 
0.26529925199373078

>  <r_epik_Ionization_Penalty_Charging>  (1) 
0.26525061984488274

>  <r_epik_Ionization_Penalty_Neutral>  (1) 
4.8632148848023016e-05

>  <r_epik_State_Penalty>  (1) 
0.26436436404373981

>  <r_glide_ring_energy>  (1) 
0

>  <r_i_docking_score>  (1) 
-5.3631653245819297

>  <r_i_glide_ecoul>  (1) 
-3.9318612335693373

>  <r_i_glide_eff_state_penalty>  (1) 
0.26436436404373981

>  <r_i_glide_einternal>  (1) 
7.2614416686460386

>  <r_i_glide_emodel>  (1) 
-30.502524202771248

>  <r_i_glide_emodel_strain>  (1) 
8.4058582695835327

>  <r_i_glide_energy>  (1) 
-24.575646554495307

>  <r_i_glide_erotb>  (1) 
0.8581402996549512

>  <r_i_glide_esite>  (1) 
-0.15317657472463242

>  <r_i_glide_evdw>  (1) 
-20.643785320925971

>  <r_i_glide_gscore>  (1) 
-5.6275296886256694

>  <r_i_glide_gscore_strain>  (1) 
1.1014645673958832

>  <r_i_glide_hbond>  (1) 
-0.16

>  <r_i_glide_ligand_efficiency>  (1) 
-0.15323329498805513

>  <r_i_glide_ligand_efficiency_ln>  (1) 
-1.1773338177869976

>  <r_i_glide_ligand_efficiency_sa>  (1) 
-0.50123626883461736

>  <r_i_glide_lipo>  (1) 
-4.0646484160978069

>  <r_i_glide_metal>  (1) 
-0

>  <r_i_glide_rewards>  (1) 
-1.587341113772365

>  <r_lp_Energy>  (1) 
26.316364

>  <r_lp_tautomer_probability>  (1) 
0.99994994000300153

>  <s_epik_cmdline>  (1) 
J2VwaWtfcHl0aG9uJywgJy1waHQnLCAnMS4wJywgJy1waCcsICc3LjQnLCAnLXRuJywgJzgnLCAnLW1hJywgJzUwMCcsICctaW1hZScsICc8aW5maWxlLm1hZT4nLCAnLW9tYWUnLCAnPG91dGZpbGUubWFlPic=

>  <s_epik_input>  (1) 
Tz1DKFtDSDNdKVtDSDJdW0NASF0oW05IXUMoPU8pW09IXSlbQ0gyXWMoW2NIXTEpW2NIXVtjSF1bY0hdYzFbQ0BIXShDKD1PKVtDSDNdKVtDQEhdKFtDQEBIXShbQ0gzXSlbQ0hdKFtDSDNdKVtDSDNdKVtDSDJdW0NIMl1bQ0gyXU4yW0NIMl1bQ0gyXUMoPU8pW0NIMl0y

>  <s_glide_docking_method>  (1) 
confgen

>  <s_i_glide_gridfile>  (1) 
gpcr_5ht2c_6bqh_protein_autoprepared_prepared

>  <s_lp_Force_Field>  (1) 
S-OPLS

>  <s_lp_Variant>  (1) 
DiffSBDD_67-2

>  <s_m_source_file>  (1) 
generated_GPCR_5HT2C_ligand_DiffSBDD_2026-06-23_prepared.sdf

>  <GenAI_Model>  (1) 
DiffSBDD

>  <Protein>  (1) 
GPCR_5HT2C

$$$$
DiffSBDD_46
     RDKit          3D

  0  0  0  0  0  0  0  0  0  0999 V3000
M  V30 BEGIN CTAB
M  V30 COUNTS 55 56 0 0 1
M  V30 BEGIN ATOM
M  V30 1 C 39.295586 27.703434 59.049905 0
M  V30 2 C 40.454721 33.659826 62.710208 0
M  V30 3 C 38.385211 27.346090 56.397646 0
M  V30 4 O 36.042150 33.742406 60.591342 0
M  V30 5 C 38.354337 28.642770 56.973173 0
M  V30 6 C 36.630690 36.104199 62.180388 0
M  V30 7 C 37.855679 33.044084 58.267058 0
M  V30 8 P 37.382763 33.250068 60.971600 0
M  V30 9 C 37.975217 29.747356 56.162272 0
M  V30 10 C 38.605734 34.735823 61.126099 0 CFG=1
M  V30 11 C 38.045138 27.159992 55.041869 0
M  V30 12 O 36.528129 30.551364 58.967760 0
M  V30 13 O 37.340055 28.106409 52.932758 0
M  V30 14 N 38.876743 37.137994 61.861027 0 CHG=1
M  V30 15 C 40.636329 32.936464 61.404124 0
M  V30 16 C 38.970575 30.201762 58.785135 0
M  V30 17 C 37.645133 29.557398 54.809776 0
M  V30 18 C 38.071326 25.762952 54.451864 0
M  V30 19 C 38.143342 35.864897 62.102451 0 CFG=1
M  V30 20 S 38.045138 38.370892 60.967759 0 CHG=-1
M  V30 21 O 37.514346 32.384318 62.167758 0 CHG=-1
M  V30 22 N 38.003487 32.362267 59.557303 0
M  V30 23 C 37.794272 30.902079 59.512588 0 CFG=1
M  V30 24 C 37.675544 28.272286 54.245899 0
M  V30 25 C 40.066556 34.347705 61.416963 0
M  V30 26 N 38.688712 28.831095 58.349828 0
M  V30 27 H 38.582761 26.884968 59.152039 0
M  V30 28 H 40.184159 27.344226 58.529114 0
M  V30 29 H 39.594292 27.993327 60.057784 0
M  V30 30 H 41.350543 34.012802 63.217428 0
M  V30 31 H 39.660439 33.309311 63.366349 0
M  V30 32 H 38.662729 26.491791 56.993517 0
M  V30 33 H 36.067721 35.256700 62.567760 0
M  V30 34 H 36.382987 36.956199 62.814543 0
M  V30 35 H 36.284048 36.304531 61.166870 0
M  V30 36 H 38.549889 32.672406 57.517017 0
M  V30 37 H 36.845137 32.945183 57.880252 0
M  V30 38 H 38.042386 34.111925 58.359316 0
M  V30 39 H 37.927742 30.739375 56.575351 0
M  V30 40 H 38.603581 35.198640 60.143084 0
M  V30 41 H 36.258256 31.179097 58.297624 0
M  V30 42 H 37.301385 27.204502 52.650326 0
M  V30 43 H 39.110525 37.488518 62.779144 0
M  V30 44 H 39.992534 32.077050 61.245339 0
M  V30 45 H 41.662034 32.797362 61.071054 0
M  V30 46 H 39.801259 30.153693 59.489024 0
M  V30 47 H 39.374038 30.792485 57.968284 0
M  V30 48 H 37.357565 30.404289 54.204354 0
M  V30 49 H 37.367729 25.124241 54.986280 0
M  V30 50 H 37.801612 25.737768 53.399116 0
M  V30 51 H 39.066962 25.333194 54.567755 0
M  V30 52 H 38.465688 35.581169 63.099088 0
M  V30 53 H 37.779244 30.505538 60.527702 0
M  V30 54 H 40.765514 35.112138 61.082370 0
M  V30 55 H 39.751224 36.889679 61.421394 0
M  V30 END ATOM
M  V30 BEGIN BOND
M  V30 1 2 5 3
M  V30 2 2 8 4
M  V30 3 1 9 5
M  V30 4 1 10 8
M  V30 5 1 11 3
M  V30 6 1 15 2
M  V30 7 2 17 9
M  V30 8 1 18 11
M  V30 9 1 19 6
M  V30 10 1 19 10
M  V30 11 1 19 14
M  V30 12 1 20 14
M  V30 13 1 21 8
M  V30 14 1 22 7
M  V30 15 1 22 8
M  V30 16 1 23 12
M  V30 17 1 23 16
M  V30 18 1 23 22
M  V30 19 2 24 11
M  V30 20 1 24 13
M  V30 21 1 24 17
M  V30 22 1 25 2
M  V30 23 1 25 10
M  V30 24 1 25 15
M  V30 25 1 26 1
M  V30 26 1 26 5
M  V30 27 1 26 16
M  V30 28 1 27 1
M  V30 29 1 28 1
M  V30 30 1 29 1
M  V30 31 1 30 2
M  V30 32 1 31 2
M  V30 33 1 32 3
M  V30 34 1 33 6
M  V30 35 1 34 6
M  V30 36 1 35 6
M  V30 37 1 36 7
M  V30 38 1 37 7
M  V30 39 1 38 7
M  V30 40 1 39 9
M  V30 41 1 10 40 CFG=3
M  V30 42 1 41 12
M  V30 43 1 42 13
M  V30 44 1 43 14
M  V30 45 1 44 15
M  V30 46 1 45 15
M  V30 47 1 46 16
M  V30 48 1 47 16
M  V30 49 1 48 17
M  V30 50 1 49 18
M  V30 51 1 50 18
M  V30 52 1 51 18
M  V30 53 1 19 52 CFG=1
M  V30 54 1 23 53 CFG=1
M  V30 55 1 54 25
M  V30 56 1 55 14
M  V30 END BOND
M  V30 END CTAB
M  END
>  <i_epik_Tot_Q>  (1) 
-1

>  <i_epik_Tot_abs_Q>  (1) 
3

>  <i_i_glide_confnum>  (1) 
154

>  <i_i_glide_lignum>  (1) 
98

>  <i_i_glide_posenum>  (1) 
249

>  <i_i_glide_rotatable_bonds>  (1) 
11

>  <i_lp_mmshare_version>  (1) 
72125

>  <i_m_source_file_index>  (1) 
47

>  <i_f3d_flags>  (1) 
0

>  <num_sample>  (1) 
100

>  <b_lp_Chiralities_Consistent>  (1) 
1

>  <r_epik_Charging_Adjusted_Penalty>  (1) 
3.3730423186562179e-05

>  <r_epik_Ionization_Penalty>  (1) 
0.037967810470841745

>  <r_epik_Ionization_Penalty_Charging>  (1) 
3.3730423186562179e-05

>  <r_epik_Ionization_Penalty_Neutral>  (1) 
0.03793408004765518

>  <r_epik_State_Penalty>  (1) 
-0

>  <r_glide_ring_energy>  (1) 
0

>  <r_i_docking_score>  (1) 
-5.3608522090773647

>  <r_i_glide_ecoul>  (1) 
-8.1966992101435174

>  <r_i_glide_eff_state_penalty>  (1) 
-0

>  <r_i_glide_einternal>  (1) 
16.674013657713616

>  <r_i_glide_emodel>  (1) 
-45.363207058682669

>  <r_i_glide_emodel_strain>  (1) 
4.5902971994049295

>  <r_i_glide_energy>  (1) 
-40.496945822252243

>  <r_i_glide_erotb>  (1) 
0.84802462455657757

>  <r_i_glide_esite>  (1) 
-0.062927659564677704

>  <r_i_glide_evdw>  (1) 
-32.300246612108722

>  <r_i_glide_gscore>  (1) 
-5.3608522090773647

>  <r_i_glide_gscore_strain>  (1) 
0.14757429985123238

>  <r_i_glide_hbond>  (1) 
-0.17475085344991684

>  <r_i_glide_ligand_efficiency>  (1) 
-0.20618662342605248

>  <r_i_glide_ligand_efficiency_ln>  (1) 
-1.2589785509109845

>  <r_i_glide_ligand_efficiency_sa>  (1) 
-0.61082706125787167

>  <r_i_glide_lipo>  (1) 
-2.26214591551817

>  <r_i_glide_metal>  (1) 
-0

>  <r_i_glide_rewards>  (1) 
-1.0121094928254462

>  <r_lp_Energy>  (1) 
26.114241

>  <r_lp_tautomer_probability>  (1) 
1

>  <s_epik_Chemistry_Notes>  (1) 
This compound contains an acetal/aminal-like group ( X-CH(R)-Y where X, Y are N, S, or O) that may be acid/base labile, releasing an aldehyde.

>  <s_epik_cmdline>  (1) 
J2VwaWtfcHl0aG9uJywgJy1waHQnLCAnMS4wJywgJy1waCcsICc3LjQnLCAnLXRuJywgJzgnLCAnLW1hJywgJzUwMCcsICctaW1hZScsICc8aW5maWxlLm1hZT4nLCAnLW9tYWUnLCAnPG91dGZpbGUubWFlPic=

>  <s_epik_input>  (1) 
W2NIXTFbY0hdYyhbT0hdKWMoW0NIM10pW2NIXWMxTihbQ0gzXSlbQ0gyXVtDQEhdKFtPSF0pTihbQ0gzXSlbUEBAXSg9TykoW09IXSlbQ0BASF0oW0NASF0oW0NIM10pW05IXVtTSF0pW0NIXTJbQ0gyXVtDSDJdMg==

>  <s_glide_docking_method>  (1) 
confgen

>  <s_i_glide_gridfile>  (1) 
gpcr_5ht2c_6bqh_protein_autoprepared_prepared

>  <s_lp_Force_Field>  (1) 
S-OPLS

>  <s_lp_Variant>  (1) 
DiffSBDD_46-1

>  <s_m_source_file>  (1) 
generated_GPCR_5HT2C_ligand_DiffSBDD_2026-06-23_prepared.sdf

>  <GenAI_Model>  (1) 
DiffSBDD

>  <Protein>  (1) 
GPCR_5HT2C

$$$$
DiffSBDD_93
     RDKit          3D

  0  0  0  0  0  0  0  0  0  0999 V3000
M  V30 BEGIN CTAB
M  V30 COUNTS 83 84 0 0 1
M  V30 BEGIN ATOM
M  V30 1 C 36.668822 33.328099 60.350847 0
M  V30 2 O 37.053918 34.280919 59.378729 0
M  V30 3 C 40.698483 29.954186 64.781753 0
M  V30 4 C 38.612496 30.036722 53.419111 0
M  V30 5 O 39.055560 30.622790 60.095399 0
M  V30 6 C 39.495803 26.420606 55.413993 0
M  V30 7 N 38.974121 25.270368 55.837689 0
M  V30 8 O 40.045131 26.537392 54.322480 0
M  V30 9 O 41.245139 35.737752 61.295150 0
M  V30 10 C 39.996163 30.452309 52.960085 0
M  V30 11 C 40.801581 30.664989 63.443610 0
M  V30 12 C 37.277186 31.165229 58.576505 0
M  V30 13 C 38.523013 32.663715 61.903771 0
M  V30 14 C 39.270517 29.048044 55.739062 0 CFG=2
M  V30 15 C 39.376163 27.622301 56.371922 0 CFG=2
M  V30 16 C 41.726883 32.180583 64.912790 0 CFG=1
M  V30 17 C 41.087184 32.983471 62.617343 0 CFG=1
M  V30 18 C 42.317243 32.542392 61.795106 0
M  V30 19 C 37.693095 30.018976 57.623444 0
M  V30 20 S 39.672125 35.129511 61.398669 0 CHG=1
M  V30 21 O 38.150111 32.110417 55.533304 0
M  V30 22 N 37.773326 32.406360 60.664428 0
M  V30 23 O 39.245207 35.705380 62.937056 0
M  V30 24 O 40.874935 30.988414 66.945000 0
M  V30 25 F 40.445190 33.733232 66.198499 0
M  V30 26 C 39.237151 29.436281 52.164563 0
M  V30 27 C 39.245067 31.615773 56.271230 0
M  V30 28 C 39.016972 30.180586 56.812281 0 CFG=2
M  V30 29 C 38.116963 31.373738 59.846604 0
M  V30 30 C 40.537533 27.518240 57.401707 0
M  V30 31 C 42.364033 34.728642 65.320810 0
M  V30 32 C 39.904140 33.319857 61.633692 0 CFG=2
M  V30 33 O 39.031119 26.591395 58.967762 0
M  V30 34 C 38.261017 29.093827 54.552464 0
M  V30 35 C 41.687839 33.445486 65.826272 0 CFG=2
M  V30 36 C 39.980554 27.390287 58.809216 0
M  V30 37 C 41.532467 30.851904 65.701075 0 CFG=1
M  V30 38 O 40.513810 28.087657 59.699424 0 CHG=-1
M  V30 39 N 40.794451 32.095366 63.767084 0
M  V30 40 H 35.779351 32.794603 60.013362 0
M  V30 41 H 36.343324 33.868904 61.239856 0
M  V30 42 H 36.456580 34.219892 58.642775 0
M  V30 43 H 39.654123 29.931647 65.097534 0
M  V30 44 H 41.060177 28.926070 64.745937 0
M  V30 45 H 37.912101 30.857664 53.367762 0
M  V30 46 H 38.541219 25.223428 56.751269 0
M  V30 47 H 39.023331 24.450482 55.253547 0
M  V30 48 H 41.258478 36.340357 60.565410 0
M  V30 49 H 40.100177 31.434861 52.509098 0
M  V30 50 H 40.845128 30.137828 53.546727 0
M  V30 51 H 40.019077 30.349301 62.757425 0
M  V30 52 H 41.747792 30.372253 62.988475 0
M  V30 53 H 36.260443 30.945067 58.903515 0
M  V30 54 H 37.245158 32.095601 58.015451 0
M  V30 55 H 38.578948 31.724911 62.441226 0
M  V30 56 H 37.957719 33.300714 62.567736 0
M  V30 57 H 40.266350 29.221754 55.345637 0
M  V30 58 H 38.401602 27.466249 56.835952 0
M  V30 59 H 42.744334 32.120435 64.527310 0
M  V30 60 H 41.373150 33.931890 63.046654 0
M  V30 61 H 42.708408 33.337760 61.172571 0
M  V30 62 H 43.139649 32.202499 62.415859 0
M  V30 63 H 42.045130 31.737796 61.117683 0
M  V30 64 H 37.721184 29.097900 58.202947 0
M  V30 65 H 36.861855 29.894136 56.932706 0
M  V30 66 H 38.195424 33.052111 55.481083 0
M  V30 67 H 39.954923 35.477139 63.518405 0
M  V30 68 H 40.039104 31.400855 66.786141 0
M  V30 69 H 39.598008 28.410125 52.209840 0
M  V30 70 H 38.845344 29.737698 51.195940 0
M  V30 71 H 39.415438 32.302905 57.100065 0
M  V30 72 H 40.140773 31.660016 55.651900 0
M  V30 73 H 39.809465 30.077452 57.550679 0
M  V30 74 H 41.171572 26.644567 57.237169 0
M  V30 75 H 41.213928 28.370573 57.343450 0
M  V30 76 H 43.369402 34.531231 64.955211 0
M  V30 77 H 41.799446 35.233292 64.541272 0
M  V30 78 H 42.445535 35.450761 66.134739 0
M  V30 79 H 40.220239 32.984816 60.646804 0
M  V30 80 H 38.091698 28.124043 54.093587 0
M  V30 81 H 37.269129 29.363052 54.907435 0
M  V30 82 H 42.207193 33.192620 66.752050 0
M  V30 83 H 42.507383 30.398868 65.887316 0
M  V30 END ATOM
M  V30 BEGIN BOND
M  V30 1 1 2 1
M  V30 2 1 7 6
M  V30 3 2 8 6
M  V30 4 1 10 4
M  V30 5 1 11 3
M  V30 6 1 15 6
M  V30 7 1 15 14
M  V30 8 1 18 17
M  V30 9 1 19 12
M  V30 10 1 20 9
M  V30 11 1 22 1
M  V30 12 1 22 13
M  V30 13 1 23 20
M  V30 14 1 26 4
M  V30 15 1 26 10
M  V30 16 1 27 21
M  V30 17 1 28 14
M  V30 18 1 28 19
M  V30 19 1 28 27
M  V30 20 2 29 5
M  V30 21 1 29 12
M  V30 22 1 29 22
M  V30 23 1 30 15
M  V30 24 1 32 13
M  V30 25 1 32 17
M  V30 26 1 32 20
M  V30 27 1 34 4
M  V30 28 1 34 14
M  V30 29 1 35 16
M  V30 30 1 35 25
M  V30 31 1 35 31
M  V30 32 1 36 30
M  V30 33 2 36 33
M  V30 34 1 37 3
M  V30 35 1 37 16
M  V30 36 1 37 24
M  V30 37 1 38 36
M  V30 38 1 39 11
M  V30 39 1 39 16
M  V30 40 1 39 17
M  V30 41 1 40 1
M  V30 42 1 41 1
M  V30 43 1 42 2
M  V30 44 1 43 3
M  V30 45 1 44 3
M  V30 46 1 45 4
M  V30 47 1 46 7
M  V30 48 1 47 7
M  V30 49 1 48 9
M  V30 50 1 49 10
M  V30 51 1 50 10
M  V30 52 1 51 11
M  V30 53 1 52 11
M  V30 54 1 53 12
M  V30 55 1 54 12
M  V30 56 1 55 13
M  V30 57 1 56 13
M  V30 58 1 14 57 CFG=3
M  V30 59 1 15 58 CFG=1
M  V30 60 1 16 59 CFG=3
M  V30 61 1 17 60 CFG=1
M  V30 62 1 61 18
M  V30 63 1 62 18
M  V30 64 1 63 18
M  V30 65 1 64 19
M  V30 66 1 65 19
M  V30 67 1 66 21
M  V30 68 1 67 23
M  V30 69 1 68 24
M  V30 70 1 69 26
M  V30 71 1 70 26
M  V30 72 1 71 27
M  V30 73 1 72 27
M  V30 74 1 28 73 CFG=1
M  V30 75 1 74 30
M  V30 76 1 75 30
M  V30 77 1 76 31
M  V30 78 1 77 31
M  V30 79 1 78 31
M  V30 80 1 32 79 CFG=3
M  V30 81 1 80 34
M  V30 82 1 81 34
M  V30 83 1 35 82 CFG=1
M  V30 84 1 37 83 CFG=1
M  V30 END BOND
M  V30 END CTAB
M  END
>  <i_epik_Tot_Q>  (1) 
0

>  <i_epik_Tot_abs_Q>  (1) 
2

>  <i_i_glide_confnum>  (1) 
2057

>  <i_i_glide_lignum>  (1) 
214

>  <i_i_glide_posenum>  (1) 
322

>  <i_i_glide_rotatable_bonds>  (1) 
24

>  <i_lp_mmshare_version>  (1) 
72125

>  <i_m_source_file_index>  (1) 
94

>  <i_f3d_flags>  (1) 
0

>  <num_sample>  (1) 
100

>  <b_lp_Chiralities_Consistent>  (1) 
1

>  <r_epik_Charging_Adjusted_Penalty>  (1) 
0.37121505818338452

>  <r_epik_Ionization_Penalty>  (1) 
0.37121789513022985

>  <r_epik_Ionization_Penalty_Charging>  (1) 
0.00098257200063165957

>  <r_epik_Ionization_Penalty_Neutral>  (1) 
0.37023532312959817

>  <r_epik_State_Penalty>  (1) 
0.37023248618275284

>  <r_glide_ring_energy>  (1) 
0

>  <r_i_docking_score>  (1) 
-5.3590812284374607

>  <r_i_glide_ecoul>  (1) 
-1.0853980431369006

>  <r_i_glide_eff_state_penalty>  (1) 
0.37023248618275284

>  <r_i_glide_einternal>  (1) 
19.108634605188488

>  <r_i_glide_emodel>  (1) 
-53.921948438127856

>  <r_i_glide_emodel_strain>  (1) 
4.5130418808161181

>  <r_i_glide_energy>  (1) 
-46.053444600371257

>  <r_i_glide_erotb>  (1) 
0.82577533054746977

>  <r_i_glide_esite>  (1) 
-0.021698933000415074

>  <r_i_glide_evdw>  (1) 
-44.968046557234359

>  <r_i_glide_gscore>  (1) 
-5.729313714620214

>  <r_i_glide_gscore_strain>  (1) 
0.12826047020402953

>  <r_i_glide_hbond>  (1) 
0

>  <r_i_glide_ligand_efficiency>  (1) 
-0.13741233919070411

>  <r_i_glide_ligand_efficiency_ln>  (1) 
-1.1491391419442338

>  <r_i_glide_ligand_efficiency_sa>  (1) 
-0.4659942970748599

>  <r_i_glide_lipo>  (1) 
-2.6985014913963461

>  <r_i_glide_metal>  (1) 
-0

>  <r_i_glide_rewards>  (1) 
-1.5519370566426989

>  <r_lp_Energy>  (1) 
19.498639999999998

>  <s_epik_Chemistry_Notes>  (1) 
This compound contains an acetal/aminal-like group ( X-CH(R)-Y where X, Y are N, S, or O) that may be acid/base labile, releasing an aldehyde.

>  <s_epik_cmdline>  (1) 
J2VwaWtfcHl0aG9uJywgJy1waHQnLCAnMS4wJywgJy1waCcsICc3LjQnLCAnLXRuJywgJzgnLCAnLW1hJywgJzUwMCcsICctaW1hZScsICc8aW5maWxlLm1hZT4nLCAnLW9tYWUnLCAnPG91dGZpbGUubWFlPic=

>  <s_epik_input>  (1) 
W0NIMl0xW0NIMl1bQ0hdMVtDSDJdW0NAQEhdKFtDQEBIXShDKD1PKVtOSDJdKVtDSDJdQyg9TylbT0hdKVtDQEBIXShbQ0gyXVtPSF0pW0NIMl1bQ0gyXUMoPU8pTihbQ0gyXVtPSF0pW0NIMl1bQ0BASF0oW1MrXShbT0hdKVtPSF0pW0NASF0oW0NIM10pTjJbQ0gyXVtDSDJdW0NASF0oW09IXSlbQ0BASF0yW0NASF0oRilbQ0gzXQ==

>  <s_glide_docking_method>  (1) 
confgen

>  <s_i_glide_gridfile>  (1) 
gpcr_5ht2c_6bqh_protein_autoprepared_prepared

>  <s_lp_Force_Field>  (1) 
S-OPLS

>  <s_lp_Variant>  (1) 
DiffSBDD_93-2

>  <s_m_source_file>  (1) 
generated_GPCR_5HT2C_ligand_DiffSBDD_2026-06-23_prepared.sdf

>  <GenAI_Model>  (1) 
DiffSBDD

>  <Protein>  (1) 
GPCR_5HT2C

$$$$
DiffSBDD_93
     RDKit          3D

  0  0  0  0  0  0  0  0  0  0999 V3000
M  V30 BEGIN CTAB
M  V30 COUNTS 84 85 0 0 1
M  V30 BEGIN ATOM
M  V30 1 C 38.738388 31.738433 56.091851 0
M  V30 2 O 37.646637 32.028739 55.235277 0
M  V30 3 C 39.126238 27.764926 54.146193 0
M  V30 4 C 36.541220 37.485710 62.642965 0
M  V30 5 O 37.356811 31.611734 59.414954 0
M  V30 6 C 39.527537 33.671373 62.341055 0
M  V30 7 N 40.849272 33.676499 62.530312 0
M  V30 8 O 38.878244 32.629707 62.302699 0
M  V30 9 O 40.509537 28.173829 60.688567 0
M  V30 10 C 35.447650 38.522065 62.610392 0
M  V30 11 C 39.941638 28.052398 55.383116 0
M  V30 12 C 37.657941 33.562836 58.042843 0
M  V30 13 C 38.310352 29.777319 57.603797 0
M  V30 14 C 37.319066 35.211670 61.651431 0 CFG=2
M  V30 15 C 38.828370 35.068719 62.195050 0 CFG=2
M  V30 16 C 38.965674 26.000835 55.880328 0 CFG=1
M  V30 17 C 39.720052 27.587840 57.826698 0 CFG=1
M  V30 18 C 41.125305 26.939404 58.002299 0
M  V30 19 C 37.821148 34.488399 59.263793 0
M  V30 20 S 39.977950 29.579768 59.915520 0 CHG=1
M  V30 21 O 34.845740 33.340441 61.280582 0
M  V30 22 N 38.304705 31.240441 57.408604 0
M  V30 23 O 38.445099 29.568357 60.567746 0
M  V30 24 O 37.427940 26.134379 53.893387 0
M  V30 25 F 36.846143 26.026382 56.923781 0
M  V30 26 C 35.338324 37.338144 63.551811 0
M  V30 27 C 35.461402 34.014804 60.197035 0
M  V30 28 C 36.959803 34.237206 60.504223 0 CFG=2
M  V30 29 C 37.769785 32.049215 58.351634 0
M  V30 30 C 39.804944 36.105881 61.561532 0
M  V30 31 C 38.238303 24.349425 57.736919 0
M  V30 32 C 39.640786 29.127567 58.148169 0 CFG=2
M  V30 33 O 39.992020 37.264109 63.609990 0
M  V30 34 C 36.862964 36.676581 61.378675 0
M  V30 35 C 37.817186 25.201692 56.542230 0 CFG=2
M  V30 36 C 39.821460 37.384422 62.381154 0
M  V30 37 C 38.748470 26.307042 54.362223 0 CFG=1
M  V30 38 O 39.645176 38.460211 61.767852 0 CHG=-1
M  V30 39 N 39.200394 27.353664 56.443268 0 CFG=1 CHG=1
M  V30 40 H 39.416099 32.589181 56.168971 0
M  V30 41 H 39.343935 31.006520 55.576019 0
M  V30 42 H 36.835945 32.137186 55.736326 0
M  V30 43 H 38.245185 28.410179 54.148838 0
M  V30 44 H 39.644736 27.938247 53.203869 0
M  V30 45 H 37.416237 37.737868 63.221756 0
M  V30 46 H 41.345801 34.557975 62.572016 0
M  V30 47 H 41.344987 32.807375 62.644843 0
M  V30 48 H 39.745603 27.806693 61.108404 0
M  V30 49 H 35.699316 39.495205 63.027394 0
M  V30 50 H 34.796496 38.538516 61.739755 0
M  V30 51 H 40.103238 29.110021 55.520975 0
M  V30 52 H 40.913509 27.582484 55.363576 0
M  V30 53 H 38.370034 33.917535 57.307637 0
M  V30 54 H 36.683789 33.736919 57.591375 0
M  V30 55 H 38.010924 29.415103 56.625375 0
M  V30 56 H 37.467394 29.453222 58.217901 0
M  V30 57 H 36.596228 34.937753 62.409330 0
M  V30 58 H 38.736397 35.337414 63.242916 0
M  V30 59 H 39.888616 25.422466 55.961602 0
M  V30 60 H 39.032260 27.105481 58.520988 0
M  V30 61 H 41.705744 27.337972 58.827862 0
M  V30 62 H 41.026585 25.867210 58.166655 0
M  V30 63 H 41.789098 27.065892 57.153204 0
M  V30 64 H 38.868606 34.423120 59.556996 0
M  V30 65 H 37.643795 35.515168 58.950325 0
M  V30 66 H 34.842662 33.926270 62.023571 0
M  V30 67 H 38.119719 30.465563 60.516968 0
M  V30 68 H 37.404142 26.206649 52.947043 0
M  V30 69 H 34.609680 36.555188 63.367813 0
M  V30 70 H 35.511108 37.528076 64.609330 0
M  V30 71 H 34.955707 34.932917 59.917661 0
M  V30 72 H 35.327382 33.354479 59.343043 0
M  V30 73 H 37.232646 33.285308 60.903888 0
M  V30 74 H 40.840905 35.805249 61.426038 0
M  V30 75 H 39.468311 36.324091 60.566275 0
M  V30 76 H 39.120296 23.749108 57.515848 0
M  V30 77 H 38.443977 24.971412 58.598437 0
M  V30 78 H 37.443036 23.663379 58.022700 0
M  V30 79 H 40.446460 29.606368 57.607404 0
M  V30 80 H 37.589842 37.235414 60.799306 0
M  V30 81 H 36.045306 36.704474 60.678946 0
M  V30 82 H 37.379876 24.514773 55.816546 0
M  V30 83 H 39.448089 25.737180 53.767718 0
M  V30 84 H 38.270548 27.753310 56.440628 0
M  V30 END ATOM
M  V30 BEGIN BOND
M  V30 1 1 2 1
M  V30 2 1 7 6
M  V30 3 2 8 6
M  V30 4 1 10 4
M  V30 5 1 11 3
M  V30 6 1 15 6
M  V30 7 1 15 14
M  V30 8 1 18 17
M  V30 9 1 19 12
M  V30 10 1 20 9
M  V30 11 1 22 1
M  V30 12 1 22 13
M  V30 13 1 23 20
M  V30 14 1 26 4
M  V30 15 1 26 10
M  V30 16 1 27 21
M  V30 17 1 28 14
M  V30 18 1 28 19
M  V30 19 1 28 27
M  V30 20 2 29 5
M  V30 21 1 29 12
M  V30 22 1 29 22
M  V30 23 1 30 15
M  V30 24 1 32 13
M  V30 25 1 32 17
M  V30 26 1 32 20
M  V30 27 1 34 4
M  V30 28 1 34 14
M  V30 29 1 35 16
M  V30 30 1 35 25
M  V30 31 1 35 31
M  V30 32 1 36 30
M  V30 33 2 36 33
M  V30 34 1 37 3
M  V30 35 1 37 16
M  V30 36 1 37 24
M  V30 37 1 38 36
M  V30 38 1 39 11
M  V30 39 1 39 16
M  V30 40 1 39 17
M  V30 41 1 40 1
M  V30 42 1 41 1
M  V30 43 1 42 2
M  V30 44 1 43 3
M  V30 45 1 44 3
M  V30 46 1 45 4
M  V30 47 1 46 7
M  V30 48 1 47 7
M  V30 49 1 48 9
M  V30 50 1 49 10
M  V30 51 1 50 10
M  V30 52 1 51 11
M  V30 53 1 52 11
M  V30 54 1 53 12
M  V30 55 1 54 12
M  V30 56 1 55 13
M  V30 57 1 56 13
M  V30 58 1 14 57 CFG=1
M  V30 59 1 15 58 CFG=1
M  V30 60 1 16 59 CFG=3
M  V30 61 1 17 60 CFG=1
M  V30 62 1 61 18
M  V30 63 1 62 18
M  V30 64 1 63 18
M  V30 65 1 64 19
M  V30 66 1 65 19
M  V30 67 1 66 21
M  V30 68 1 67 23
M  V30 69 1 68 24
M  V30 70 1 69 26
M  V30 71 1 70 26
M  V30 72 1 71 27
M  V30 73 1 72 27
M  V30 74 1 28 73 CFG=1
M  V30 75 1 74 30
M  V30 76 1 75 30
M  V30 77 1 76 31
M  V30 78 1 77 31
M  V30 79 1 78 31
M  V30 80 1 32 79 CFG=3
M  V30 81 1 80 34
M  V30 82 1 81 34
M  V30 83 1 35 82 CFG=3
M  V30 84 1 37 83 CFG=3
M  V30 85 1 39 84 CFG=1
M  V30 END BOND
M  V30 END CTAB
M  END
>  <i_epik_Tot_Q>  (1) 
1

>  <i_epik_Tot_abs_Q>  (1) 
3

>  <i_i_glide_confnum>  (1) 
863

>  <i_i_glide_lignum>  (1) 
220

>  <i_i_glide_posenum>  (1) 
28

>  <i_i_glide_rotatable_bonds>  (1) 
24

>  <i_lp_mmshare_version>  (1) 
72125

>  <i_m_source_file_index>  (1) 
94

>  <i_f3d_flags>  (1) 
0

>  <num_sample>  (1) 
100

>  <b_lp_Chiralities_Consistent>  (1) 
1

>  <r_epik_Charging_Adjusted_Penalty>  (1) 
0.90916677635763199

>  <r_epik_Ionization_Penalty>  (1) 
0.45507897092921873

>  <r_epik_Ionization_Penalty_Charging>  (1) 
0.45507471778648678

>  <r_epik_Ionization_Penalty_Neutral>  (1) 
4.2531427319391784e-06

>  <r_epik_State_Penalty>  (1) 
0.45409205857114521

>  <r_glide_ring_energy>  (1) 
0

>  <r_i_docking_score>  (1) 
-5.3558522323320918

>  <r_i_glide_ecoul>  (1) 
-4.6414272992590284

>  <r_i_glide_eff_state_penalty>  (1) 
0.45409205857114521

>  <r_i_glide_einternal>  (1) 
28.876654673875567

>  <r_i_glide_emodel>  (1) 
-37.516480117347591

>  <r_i_glide_emodel_strain>  (1) 
8.6240451849626112

>  <r_i_glide_energy>  (1) 
-35.847618944374148

>  <r_i_glide_erotb>  (1) 
0.82188833391367333

>  <r_i_glide_esite>  (1) 
-0.23438008252071954

>  <r_i_glide_evdw>  (1) 
-31.206191645115119

>  <r_i_glide_gscore>  (1) 
-5.8099442909032373

>  <r_i_glide_gscore_strain>  (1) 
1.1560112962406528

>  <r_i_glide_hbond>  (1) 
-0.24406016315678825

>  <r_i_glide_ligand_efficiency>  (1) 
-0.1373295444187716

>  <r_i_glide_ligand_efficiency_ln>  (1) 
-1.1484467535187375

>  <r_i_glide_ligand_efficiency_sa>  (1) 
-0.46571352249686054

>  <r_i_glide_lipo>  (1) 
-3.5680357731010726

>  <r_i_glide_metal>  (1) 
-0

>  <r_i_glide_rewards>  (1) 
-1.4848442251343725

>  <r_lp_Energy>  (1) 
27.354928999999998

>  <s_epik_Chemistry_Notes>  (1) 
This compound contains an acetal/aminal-like group ( X-CH(R)-Y where X, Y are N, S, or O) that may be acid/base labile, releasing an aldehyde.

>  <s_epik_cmdline>  (1) 
J2VwaWtfcHl0aG9uJywgJy1waHQnLCAnMS4wJywgJy1waCcsICc3LjQnLCAnLXRuJywgJzgnLCAnLW1hJywgJzUwMCcsICctaW1hZScsICc8aW5maWxlLm1hZT4nLCAnLW9tYWUnLCAnPG91dGZpbGUubWFlPic=

>  <s_epik_input>  (1) 
W0NIMl0xW0NIMl1bQ0hdMVtDSDJdW0NAQEhdKFtDQEBIXShDKD1PKVtOSDJdKVtDSDJdQyg9TylbT0hdKVtDQEBIXShbQ0gyXVtPSF0pW0NIMl1bQ0gyXUMoPU8pTihbQ0gyXVtPSF0pW0NIMl1bQ0BASF0oW1MrXShbT0hdKVtPSF0pW0NASF0oW0NIM10pTjJbQ0gyXVtDSDJdW0NASF0oW09IXSlbQ0BASF0yW0NASF0oRilbQ0gzXQ==

>  <s_glide_docking_method>  (1) 
confgen

>  <s_i_glide_gridfile>  (1) 
gpcr_5ht2c_6bqh_protein_autoprepared_prepared

>  <s_lp_Force_Field>  (1) 
S-OPLS

>  <s_lp_Variant>  (1) 
DiffSBDD_93-8

>  <s_m_source_file>  (1) 
generated_GPCR_5HT2C_ligand_DiffSBDD_2026-06-23_prepared.sdf

>  <GenAI_Model>  (1) 
DiffSBDD

>  <Protein>  (1) 
GPCR_5HT2C

$$$$
DiffSBDD_36
     RDKit          3D

  0  0  0  0  0  0  0  0  0  0999 V3000
M  V30 BEGIN CTAB
M  V30 COUNTS 49 49 0 0 1
M  V30 BEGIN ATOM
M  V30 1 C 38.888251 29.380336 55.127338 0
M  V30 2 C 38.810198 26.494189 57.608795 0
M  V30 3 C 39.734553 26.941969 55.383808 0
M  V30 4 C 37.498692 28.710904 57.907123 0
M  V30 5 C 40.187588 30.504124 61.693944 0
M  V30 6 C 38.762815 28.016224 57.346157 0 CFG=1
M  V30 7 C 39.687067 25.898971 56.501771 0
M  V30 8 C 39.764031 29.518305 50.674683 0
M  V30 9 C 38.761092 29.637948 53.806616 0
M  V30 10 C 38.413063 28.607200 52.740191 0
M  V30 11 O 41.245199 30.108047 62.167012 0
M  V30 12 C 40.468162 28.844683 59.104702 0
M  V30 13 C 39.722225 28.341505 60.333870 0
M  V30 14 C 40.061765 28.703740 57.818833 0
M  V30 15 C 38.700195 28.007023 55.784134 0 CFG=1
M  V30 16 C 40.386157 30.801602 51.239939 0
M  V30 17 S 39.671668 32.153819 61.462695 0 CHG=-1
M  V30 18 C 39.177976 29.456412 61.249692 0
M  V30 19 C 39.295175 27.042986 50.975836 0
M  V30 20 C 39.530693 28.374726 51.687876 0 CFG=1
M  V30 21 H 39.138238 30.194753 55.791712 0
M  V30 22 H 39.184777 26.207529 58.588543 0
M  V30 23 H 37.806909 26.074257 57.521935 0
M  V30 24 H 40.734160 27.373810 55.367720 0
M  V30 25 H 39.549712 26.497583 54.407224 0
M  V30 26 H 36.612635 28.097932 57.767811 0
M  V30 27 H 37.542539 28.922467 58.967468 0
M  V30 28 H 37.318031 29.669906 57.420738 0
M  V30 29 H 40.693563 25.737569 56.880223 0
M  V30 30 H 39.297299 24.942110 56.153875 0
M  V30 31 H 40.433726 29.157510 49.893369 0
M  V30 32 H 38.845141 29.770119 50.167843 0
M  V30 33 H 38.912202 30.647640 53.458370 0
M  V30 34 H 38.135525 27.661278 53.200385 0
M  V30 35 H 37.506514 28.937378 52.233973 0
M  V30 36 H 41.400863 29.352653 59.300509 0
M  V30 37 H 38.900456 27.677763 60.090486 0
M  V30 38 H 40.431166 27.738251 60.902166 0
M  V30 39 H 40.689654 29.100186 57.039931 0
M  V30 40 H 37.713952 27.645683 55.487803 0
M  V30 41 H 41.144760 31.195836 50.563620 0
M  V30 42 H 39.645085 31.584958 51.379906 0
M  V30 43 H 40.845048 30.633909 52.208380 0
M  V30 44 H 38.291385 29.901587 60.796994 0
M  V30 45 H 38.845161 28.978836 62.167841 0
M  V30 46 H 38.292731 26.967846 50.567834 0
M  V30 47 H 40.010425 26.911784 50.167911 0
M  V30 48 H 39.433854 26.212952 51.667730 0
M  V30 49 H 40.485540 28.233555 52.167752 0
M  V30 END ATOM
M  V30 BEGIN BOND
M  V30 1 1 6 2
M  V30 2 1 6 4 CFG=1
M  V30 3 1 7 2
M  V30 4 1 7 3
M  V30 5 2 9 1
M  V30 6 1 10 9
M  V30 7 2 11 5
M  V30 8 1 13 12
M  V30 9 1 14 6
M  V30 10 2 14 12
M  V30 11 1 15 1
M  V30 12 1 15 3
M  V30 13 1 15 6
M  V30 14 1 16 8
M  V30 15 1 17 5
M  V30 16 1 18 5
M  V30 17 1 18 13
M  V30 18 1 20 8
M  V30 19 1 20 10
M  V30 20 1 20 19
M  V30 21 1 21 1
M  V30 22 1 22 2
M  V30 23 1 23 2
M  V30 24 1 24 3
M  V30 25 1 25 3
M  V30 26 1 26 4
M  V30 27 1 27 4
M  V30 28 1 28 4
M  V30 29 1 29 7
M  V30 30 1 30 7
M  V30 31 1 31 8
M  V30 32 1 32 8
M  V30 33 1 33 9
M  V30 34 1 34 10
M  V30 35 1 35 10
M  V30 36 1 36 12
M  V30 37 1 37 13
M  V30 38 1 38 13
M  V30 39 1 39 14
M  V30 40 1 15 40 CFG=1
M  V30 41 1 41 16
M  V30 42 1 42 16
M  V30 43 1 43 16
M  V30 44 1 44 18
M  V30 45 1 45 18
M  V30 46 1 46 19
M  V30 47 1 47 19
M  V30 48 1 48 19
M  V30 49 1 20 49 CFG=1
M  V30 END BOND
M  V30 END CTAB
M  END
>  <i_epik_Tot_Q>  (1) 
-1

>  <i_epik_Tot_abs_Q>  (1) 
1

>  <i_i_glide_confnum>  (1) 
322

>  <i_i_glide_lignum>  (1) 
83

>  <i_i_glide_posenum>  (1) 
217

>  <i_i_glide_rotatable_bonds>  (1) 
8

>  <i_lp_mmshare_version>  (1) 
72125

>  <i_m_source_file_index>  (1) 
37

>  <i_f3d_flags>  (1) 
0

>  <num_sample>  (1) 
100

>  <b_lp_Chiralities_Consistent>  (1) 
1

>  <r_epik_Charging_Adjusted_Penalty>  (1) 
9.4165288777969193e-05

>  <r_epik_Ionization_Penalty>  (1) 
9.4165288777969193e-05

>  <r_epik_Ionization_Penalty_Charging>  (1) 
9.4165288777969193e-05

>  <r_epik_Ionization_Penalty_Neutral>  (1) 
0

>  <r_epik_State_Penalty>  (1) 
-0

>  <r_glide_ring_energy>  (1) 
0

>  <r_i_docking_score>  (1) 
-5.3533061504895256

>  <r_i_glide_ecoul>  (1) 
-3.1283334393201594

>  <r_i_glide_eff_state_penalty>  (1) 
-0

>  <r_i_glide_einternal>  (1) 
6.7276840121658363

>  <r_i_glide_emodel>  (1) 
-35.242760443359622

>  <r_i_glide_emodel_strain>  (1) 
1.2440782365248282

>  <r_i_glide_energy>  (1) 
-28.754193615774586

>  <r_i_glide_erotb>  (1) 
2.5456975872200465

>  <r_i_glide_esite>  (1) 
0

>  <r_i_glide_evdw>  (1) 
-25.625860176454427

>  <r_i_glide_gscore>  (1) 
-5.3533061504895256

>  <r_i_glide_gscore_strain>  (1) 
0

>  <r_i_glide_hbond>  (1) 
-0.32000000000000001

>  <r_i_glide_ligand_efficiency>  (1) 
-0.26766530752447626

>  <r_i_glide_ligand_efficiency_ln>  (1) 
-1.3397559656137936

>  <r_i_glide_ligand_efficiency_sa>  (1) 
-0.72655542609573165

>  <r_i_glide_lipo>  (1) 
-3.8026597653551706

>  <r_i_glide_metal>  (1) 
-0

>  <r_i_glide_rewards>  (1) 
-2.0258009476336554

>  <r_lp_Energy>  (1) 
18.646117

>  <r_lp_tautomer_probability>  (1) 
1

>  <s_epik_cmdline>  (1) 
J2VwaWtfcHl0aG9uJywgJy1waHQnLCAnMS4wJywgJy1waCcsICc3LjQnLCAnLXRuJywgJzgnLCAnLW1hJywgJzUwMCcsICctaW1hZScsICc8aW5maWxlLm1hZT4nLCAnLW9tYWUnLCAnPG91dGZpbGUubWFlPic=

>  <s_epik_input>  (1) 
W0NIM11bQ0gyXVtDQEhdKFtDSDNdKVtDSDJdL1tDSF09W0NIXVxbQ0BIXTFbQ0gyXVtDSDJdW0NIMl1bQ0BAXTEoW0NIM10pL1tDSF09W0NIXVxbQ0gyXVtDSDJdQyg9TylbU0hd

>  <s_glide_docking_method>  (1) 
confgen

>  <s_i_glide_gridfile>  (1) 
gpcr_5ht2c_6bqh_protein_autoprepared_prepared

>  <s_lp_Force_Field>  (1) 
S-OPLS

>  <s_lp_Variant>  (1) 
DiffSBDD_36-4

>  <s_m_source_file>  (1) 
generated_GPCR_5HT2C_ligand_DiffSBDD_2026-06-23_prepared.sdf

>  <GenAI_Model>  (1) 
DiffSBDD

>  <Protein>  (1) 
GPCR_5HT2C

$$$$
DiffSBDD_57
     RDKit          3D

  0  0  0  0  0  0  0  0  0  0999 V3000
M  V30 BEGIN CTAB
M  V30 COUNTS 64 66 0 0 1
M  V30 BEGIN ATOM
M  V30 1 O 41.645058 33.878309 62.514277 0
M  V30 2 C 36.803518 33.254291 61.389147 0
M  V30 3 C 39.806486 36.334621 65.677641 0
M  V30 4 C 39.188928 32.740708 60.873243 0 CFG=2
M  V30 5 C 38.765685 28.573596 57.510835 0
M  V30 6 S 36.845283 33.303147 59.584847 0
M  V30 7 O 38.148053 28.484045 58.567062 0
M  V30 8 C 38.024769 32.455567 61.843230 0
M  V30 9 N 37.805913 29.900621 54.219545 0
M  V30 10 C 41.734846 34.721382 65.065424 0 CFG=2
M  V30 11 N 39.236999 29.740642 56.996416 0
M  V30 12 C 40.549760 34.416582 62.380911 0
M  V30 13 O 41.957359 34.407811 66.452359 0
M  V30 14 C 39.762747 34.186671 61.081994 0
M  V30 15 C 38.573105 31.281640 58.823742 0
M  V30 16 C 37.610360 27.529528 54.439621 0 CFG=2
M  V30 17 O 42.457458 32.474964 65.231789 0
M  V30 18 C 39.144110 31.019031 57.620415 0
M  V30 19 C 38.442995 28.647180 53.833139 0 CFG=1
M  V30 20 C 38.542742 32.672310 59.450117 0 CFG=2
M  V30 21 C 40.288482 31.665350 61.112247 0
M  V30 22 C 37.906851 26.888137 55.789017 0 CFG=2
M  V30 23 C 40.470498 35.449658 64.674741 0
M  V30 24 C 39.061111 27.309319 56.686053 0 CFG=2
M  V30 25 C 38.174031 26.129448 54.510176 0
M  V30 26 N 41.394824 33.385881 65.544970 0
M  V30 27 N 40.392910 36.543565 66.909769 0
M  V30 28 C 38.489122 28.529280 52.294741 0
M  V30 29 O 39.645105 29.169408 51.800313 0
M  V30 30 O 38.828618 30.925851 54.141801 0
M  V30 31 C 38.630157 36.938086 65.408742 0
M  V30 32 C 39.926288 35.294536 63.416531 0
M  V30 33 Cl 39.467042 25.948143 57.767475 0
M  V30 34 H 35.870763 32.823432 61.753937 0
M  V30 35 H 36.857494 34.277846 61.760313 0
M  V30 36 H 37.774322 31.394259 61.806966 0
M  V30 37 H 38.294784 32.671186 62.875186 0
M  V30 38 H 37.544963 29.934084 55.199044 0
M  V30 39 H 42.635619 34.921985 64.487743 0
M  V30 40 H 39.716776 29.712473 56.107303 0
M  V30 41 H 38.961144 34.922364 61.019367 0
M  V30 42 H 40.437990 34.432076 60.263941 0
M  V30 43 H 38.117045 30.505727 59.402190 0
M  V30 44 H 36.560015 27.583948 54.159563 0
M  V30 45 H 42.963474 32.499872 66.029517 0
M  V30 46 H 39.600411 31.798693 57.026405 0
M  V30 47 H 39.451001 28.582414 54.242257 0
M  V30 48 H 39.079774 33.335664 58.770103 0
M  V30 49 H 39.976628 30.654962 60.850772 0
M  V30 50 H 41.202525 31.892011 60.567864 0
M  V30 51 H 40.557788 31.603601 62.166922 0
M  V30 52 H 37.042121 26.537449 56.350496 0
M  V30 53 H 39.953685 27.476107 56.083107 0
M  V30 54 H 39.211858 25.985070 54.215170 0
M  V30 55 H 37.503833 25.309267 54.259865 0
M  V30 56 H 41.226205 36.040520 67.187666 0
M  V30 57 H 38.547701 27.483256 51.990837 0
M  V30 58 H 37.593696 28.937667 51.827231 0
M  V30 59 H 39.681062 30.031939 52.189412 0
M  V30 60 H 38.387277 31.613978 53.660174 0
M  V30 61 H 38.163312 37.570386 66.150073 0
M  V30 62 H 38.118366 36.818637 64.474425 0
M  V30 63 H 39.023971 35.800330 63.138202 0
M  V30 64 H 39.927267 37.067631 67.636571 0
M  V30 END ATOM
M  V30 BEGIN BOND
M  V30 1 1 6 2
M  V30 2 2 7 5
M  V30 3 1 8 2
M  V30 4 1 8 4
M  V30 5 1 11 5
M  V30 6 2 12 1
M  V30 7 1 13 10
M  V30 8 1 4 14 CFG=1
M  V30 9 1 14 12
M  V30 10 1 18 11
M  V30 11 2 18 15
M  V30 12 1 19 9
M  V30 13 1 19 16
M  V30 14 1 20 4
M  V30 15 1 20 6
M  V30 16 1 20 15
M  V30 17 1 21 4
M  V30 18 1 22 16
M  V30 19 1 23 3
M  V30 20 1 23 10
M  V30 21 1 24 5
M  V30 22 1 24 22
M  V30 23 1 25 16
M  V30 24 1 25 22
M  V30 25 1 26 10
M  V30 26 1 26 13
M  V30 27 1 26 17
M  V30 28 1 27 3
M  V30 29 1 28 19
M  V30 30 1 29 28
M  V30 31 1 30 9
M  V30 32 2 31 3
M  V30 33 1 32 12
M  V30 34 2 32 23
M  V30 35 1 33 24
M  V30 36 1 34 2
M  V30 37 1 35 2
M  V30 38 1 36 8
M  V30 39 1 37 8
M  V30 40 1 38 9
M  V30 41 1 10 39 CFG=3
M  V30 42 1 40 11
M  V30 43 1 41 14
M  V30 44 1 42 14
M  V30 45 1 43 15
M  V30 46 1 16 44 CFG=1
M  V30 47 1 45 17
M  V30 48 1 46 18
M  V30 49 1 19 47 CFG=1
M  V30 50 1 20 48 CFG=3
M  V30 51 1 49 21
M  V30 52 1 50 21
M  V30 53 1 51 21
M  V30 54 1 22 52 CFG=1
M  V30 55 1 24 53 CFG=3
M  V30 56 1 54 25
M  V30 57 1 55 25
M  V30 58 1 56 27
M  V30 59 1 57 28
M  V30 60 1 58 28
M  V30 61 1 59 29
M  V30 62 1 60 30
M  V30 63 1 61 31
M  V30 64 1 62 31
M  V30 65 1 63 32
M  V30 66 1 64 27
M  V30 END BOND
M  V30 END CTAB
M  END
>  <i_epik_Tot_Q>  (1) 
0

>  <i_epik_Tot_abs_Q>  (1) 
0

>  <i_i_glide_confnum>  (1) 
4461

>  <i_i_glide_lignum>  (1) 
126

>  <i_i_glide_posenum>  (1) 
125

>  <i_i_glide_rotatable_bonds>  (1) 
16

>  <i_lp_mmshare_version>  (1) 
72125

>  <i_m_source_file_index>  (1) 
58

>  <i_f3d_flags>  (1) 
0

>  <num_sample>  (1) 
100

>  <b_lp_Chiralities_Consistent>  (1) 
1

>  <r_epik_Charging_Adjusted_Penalty>  (1) 
0.024416195549470061

>  <r_epik_Ionization_Penalty>  (1) 
0.014246986074461085

>  <r_epik_Ionization_Penalty_Charging>  (1) 
6.6592516266621022e-05

>  <r_epik_Ionization_Penalty_Neutral>  (1) 
0.014180393558194464

>  <r_epik_State_Penalty>  (1) 
0.024349603033203441

>  <r_glide_ring_energy>  (1) 
0.20502008593199658

>  <r_i_docking_score>  (1) 
-5.3525303395350523

>  <r_i_glide_ecoul>  (1) 
0.082387703351778002

>  <r_i_glide_eff_state_penalty>  (1) 
0.024349603033203441

>  <r_i_glide_einternal>  (1) 
18.483624718920385

>  <r_i_glide_emodel>  (1) 
-50.660002853304356

>  <r_i_glide_emodel_strain>  (1) 
1.6599406388202027

>  <r_i_glide_energy>  (1) 
-46.579001836879918

>  <r_i_glide_erotb>  (1) 
1.0500022235395752

>  <r_i_glide_esite>  (1) 
0

>  <r_i_glide_evdw>  (1) 
-46.661389540231696

>  <r_i_glide_gscore>  (1) 
-5.3768799425682561

>  <r_i_glide_gscore_strain>  (1) 
0

>  <r_i_glide_hbond>  (1) 
0

>  <r_i_glide_ligand_efficiency>  (1) 
-0.16219788907681976

>  <r_i_glide_ligand_efficiency_ln>  (1) 
-1.1903750335937144

>  <r_i_glide_ligand_efficiency_sa>  (1) 
-0.52025529746675447

>  <r_i_glide_lipo>  (1) 
-2.927605782184421

>  <r_i_glide_metal>  (1) 
-0

>  <r_i_glide_rewards>  (1) 
-1.1785650624145931

>  <r_lp_Energy>  (1) 
12.674657999999999

>  <s_epik_Chemistry_Notes>  (1) 
This compound has an imine and may undergo hydrolysis. This compound contains an acetal/aminal-like group ( X-CH(R)-Y where X, Y are N, S, or O) that may be acid/base labile, releasing an aldehyde. This compound has a N-S or N-O group and may undergo hydrolysis at high or low pH.

>  <s_epik_cmdline>  (1) 
J2VwaWtfcHl0aG9uJywgJy1waHQnLCAnMS4wJywgJy1waCcsICc3LjQnLCAnLXRuJywgJzgnLCAnLW1hJywgJzUwMCcsICctaW1hZScsICc8aW5maWxlLm1hZT4nLCAnLW9tYWUnLCAnPG91dGZpbGUubWFlPic=

>  <s_epik_input>  (1) 
W09IXU4xT1tDQEBIXTFDKC9DKD1OL1tIXSlbQ0gzXSk9W0NIXVxDKD1PKVtDSDJdW0NAQF0yKFtDSDNdKVtDSDJdW0NIMl1TW0NAQEhdMi9bQ0hdPVtDSF0vW05IXUMoPU8pW0NAQEhdKENsKVtDQEhdKFtDSDJdMylbQ0BIXTNbQ0BIXShbTkhdW09IXSlbQ0gyXVtPSF0=

>  <s_glide_docking_method>  (1) 
confgen

>  <s_i_glide_gridfile>  (1) 
gpcr_5ht2c_6bqh_protein_autoprepared_prepared

>  <s_lp_Force_Field>  (1) 
S-OPLS

>  <s_lp_Variant>  (1) 
DiffSBDD_57-2

>  <s_m_source_file>  (1) 
generated_GPCR_5HT2C_ligand_DiffSBDD_2026-06-23_prepared.sdf

>  <GenAI_Model>  (1) 
DiffSBDD

>  <Protein>  (1) 
GPCR_5HT2C

$$$$
DiffSBDD_20
     RDKit          3D

  0  0  0  0  0  0  0  0  0  0999 V3000
M  V30 BEGIN CTAB
M  V30 COUNTS 52 53 0 0 1
M  V30 BEGIN ATOM
M  V30 1 C 38.620657 33.988637 60.619559 0 CFG=2
M  V30 2 O 36.368344 34.648656 61.202853 0
M  V30 3 O 39.245138 28.828408 60.939352 0
M  V30 4 P 39.645140 30.188541 61.471106 0
M  V30 5 C 37.989794 36.333768 60.431764 0 CFG=1
M  V30 6 N 39.223043 29.404086 55.629982 0
M  V30 7 C 37.204636 37.118323 62.798789 0
M  V30 8 C 35.090902 38.537753 63.247310 0
M  V30 9 C 38.335055 32.621754 61.248841 0
M  V30 10 C 37.740548 30.983114 59.400087 0 CFG=2
M  V30 11 N 39.476377 34.781308 61.503564 0 CHG=1
M  V30 12 C 37.415258 34.892686 60.294014 0
M  V30 13 F 39.258533 31.562238 54.754879 0
M  V30 14 C 35.876197 37.263584 63.557760 0
M  V30 15 C 39.006702 30.733313 55.794445 0
M  V30 16 O 41.132880 30.459985 61.367775 0 CHG=-1
M  V30 17 O 39.123145 30.452396 62.866136 0 CHG=-1
M  V30 18 C 38.264851 30.424327 58.083239 0
M  V30 19 C 38.532213 31.281678 57.003247 0
M  V30 20 C 38.841313 31.453755 60.387528 0 CFG=2
M  V30 21 C 38.960220 28.588089 56.677900 0
M  V30 22 O 37.584073 38.646923 60.967762 0
M  V30 23 C 38.482231 29.047685 57.916055 0
M  V30 24 C 37.143810 37.333588 61.262871 0 CFG=1
M  V30 25 C 39.426311 36.137788 60.974180 0
M  V30 26 O 36.829783 30.137757 60.044968 0
M  V30 27 O 37.015862 34.629716 58.967760 0
M  V30 28 H 39.206074 33.878790 59.704305 0
M  V30 29 H 36.115925 33.739516 61.119694 0
M  V30 30 H 38.045147 36.763874 59.430429 0
M  V30 31 H 37.557097 36.117608 63.010453 0
M  V30 32 H 37.973227 37.737755 63.249515 0
M  V30 33 H 34.162387 38.537713 63.813342 0
M  V30 34 H 35.651937 39.430936 63.516230 0
M  V30 35 H 34.819448 38.614235 62.195181 0
M  V30 36 H 38.829212 32.634994 62.217913 0
M  V30 37 H 37.291743 32.443894 61.499931 0
M  V30 38 H 37.148058 31.851680 59.109985 0
M  V30 39 H 40.414398 34.408797 61.536630 0
M  V30 40 H 35.244981 36.397962 63.367757 0
M  V30 41 H 36.074205 37.219530 64.628618 0
M  V30 42 H 38.369367 32.345410 57.094489 0
M  V30 43 H 39.645136 31.830117 59.768373 0
M  V30 44 H 39.136284 27.534661 56.519389 0
M  V30 45 H 36.842328 39.147232 60.648671 0
M  V30 46 H 38.287034 28.354263 58.720562 0
M  V30 47 H 36.117998 37.272191 60.901347 0
M  V30 48 H 40.155714 36.137739 60.167791 0
M  V30 49 H 39.738027 36.880173 61.710680 0
M  V30 50 H 37.349199 29.405302 60.367609 0
M  V30 51 H 36.403696 35.288852 58.673134 0
M  V30 52 H 39.067182 34.765773 62.426853 0
M  V30 END ATOM
M  V30 BEGIN BOND
M  V30 1 2 4 3
M  V30 2 1 9 1
M  V30 3 1 11 1
M  V30 4 1 12 1
M  V30 5 1 12 2
M  V30 6 1 12 5
M  V30 7 1 14 7
M  V30 8 1 14 8
M  V30 9 2 15 6
M  V30 10 1 15 13
M  V30 11 1 16 4
M  V30 12 1 17 4
M  V30 13 1 18 10
M  V30 14 1 19 15
M  V30 15 2 19 18
M  V30 16 1 20 4
M  V30 17 1 20 9
M  V30 18 1 20 10
M  V30 19 1 21 6
M  V30 20 1 23 18
M  V30 21 2 23 21
M  V30 22 1 24 5
M  V30 23 1 24 7
M  V30 24 1 24 22
M  V30 25 1 25 5
M  V30 26 1 25 11
M  V30 27 1 26 10
M  V30 28 1 27 12
M  V30 29 1 1 28 CFG=3
M  V30 30 1 29 2
M  V30 31 1 5 30 CFG=3
M  V30 32 1 31 7
M  V30 33 1 32 7
M  V30 34 1 33 8
M  V30 35 1 34 8
M  V30 36 1 35 8
M  V30 37 1 36 9
M  V30 38 1 37 9
M  V30 39 1 10 38 CFG=3
M  V30 40 1 39 11
M  V30 41 1 40 14
M  V30 42 1 41 14
M  V30 43 1 42 19
M  V30 44 1 20 43 CFG=3
M  V30 45 1 44 21
M  V30 46 1 45 22
M  V30 47 1 46 23
M  V30 48 1 24 47 CFG=3
M  V30 49 1 48 25
M  V30 50 1 49 25
M  V30 51 1 50 26
M  V30 52 1 51 27
M  V30 53 1 52 11
M  V30 END BOND
M  V30 END CTAB
M  END
>  <i_epik_Tot_Q>  (1) 
-1

>  <i_epik_Tot_abs_Q>  (1) 
3

>  <i_i_glide_confnum>  (1) 
171

>  <i_i_glide_lignum>  (1) 
47

>  <i_i_glide_posenum>  (1) 
105

>  <i_i_glide_rotatable_bonds>  (1) 
12

>  <i_lp_mmshare_version>  (1) 
72125

>  <i_m_source_file_index>  (1) 
21

>  <i_f3d_flags>  (1) 
0

>  <num_sample>  (1) 
100

>  <b_lp_Chiralities_Consistent>  (1) 
1

>  <r_epik_Charging_Adjusted_Penalty>  (1) 
0.6119073465235404

>  <r_epik_Ionization_Penalty>  (1) 
0.30667552727884728

>  <r_epik_Ionization_Penalty_Charging>  (1) 
0.30666936404430589

>  <r_epik_Ionization_Penalty_Neutral>  (1) 
6.1632345413695363e-06

>  <r_epik_State_Penalty>  (1) 
0.3052379824792345

>  <r_glide_ring_energy>  (1) 
1.9592154643148372

>  <r_i_docking_score>  (1) 
-5.3472568519649792

>  <r_i_glide_ecoul>  (1) 
-7.8210012247686924

>  <r_i_glide_eff_state_penalty>  (1) 
0.3052379824792345

>  <r_i_glide_einternal>  (1) 
16.965307653893166

>  <r_i_glide_emodel>  (1) 
-42.580207530893034

>  <r_i_glide_emodel_strain>  (1) 
4.7785397502973908

>  <r_i_glide_energy>  (1) 
-35.693259699101311

>  <r_i_glide_erotb>  (1) 
0.59271143775516177

>  <r_i_glide_esite>  (1) 
0

>  <r_i_glide_evdw>  (1) 
-27.872258474332622

>  <r_i_glide_gscore>  (1) 
-5.6524948344442141

>  <r_i_glide_gscore_strain>  (1) 
0.19463493757434769

>  <r_i_glide_hbond>  (1) 
-0.4309996455913756

>  <r_i_glide_ligand_efficiency>  (1) 
-0.19804655007277702

>  <r_i_glide_ligand_efficiency_ln>  (1) 
-1.2447532387184441

>  <r_i_glide_ligand_efficiency_sa>  (1) 
-0.59413965021833115

>  <r_i_glide_lipo>  (1) 
-1.6860557532652207

>  <r_i_glide_metal>  (1) 
-0

>  <r_i_glide_rewards>  (1) 
-1.7560227034851918

>  <r_lp_Energy>  (1) 
8.2369690000000002

>  <s_epik_cmdline>  (1) 
J2VwaWtfcHl0aG9uJywgJy1waHQnLCAnMS4wJywgJy1waCcsICc3LjQnLCAnLXRuJywgJzgnLCAnLW1hJywgJzUwMCcsICctaW1hZScsICc8aW5maWxlLm1hZT4nLCAnLW9tYWUnLCAnPG91dGZpbGUubWFlPic=

>  <s_epik_input>  (1) 
W0NIM11bQ0gyXVtDSDJdW0NAQEhdKFtPSF0pW0NASF0xW0NIMl1bTkhdW0NASF0oQzEoW09IXSlbT0hdKVtDSDJdW0NAQEhdKFAoPU8pKFtPSF0pW09IXSlbQ0BIXShbT0hdKWMoW2NIXTIpW2NIXVtjSF1uYzJG

>  <s_glide_docking_method>  (1) 
confgen

>  <s_i_glide_gridfile>  (1) 
gpcr_5ht2c_6bqh_protein_autoprepared_prepared

>  <s_lp_Force_Field>  (1) 
S-OPLS

>  <s_lp_Variant>  (1) 
DiffSBDD_20-1

>  <s_m_source_file>  (1) 
generated_GPCR_5HT2C_ligand_DiffSBDD_2026-06-23_prepared.sdf

>  <GenAI_Model>  (1) 
DiffSBDD

>  <Protein>  (1) 
GPCR_5HT2C

$$$$
DiffSBDD_57
     RDKit          3D

  0  0  0  0  0  0  0  0  0  0999 V3000
M  V30 BEGIN CTAB
M  V30 COUNTS 64 66 0 0 1
M  V30 BEGIN ATOM
M  V30 1 O 36.124114 32.624763 61.367767 0
M  V30 2 C 40.707265 30.944492 62.410346 0
M  V30 3 C 37.494791 37.200779 60.711717 0
M  V30 4 C 39.252022 32.194834 60.829315 0 CFG=2
M  V30 5 C 38.801281 29.206280 56.427720 0
M  V30 6 S 39.646982 29.637157 61.767635 0
M  V30 7 O 39.932547 29.167453 56.904723 0
M  V30 8 C 40.699034 32.051405 61.360142 0
M  V30 9 N 37.663953 26.385549 57.439145 0
M  V30 10 C 39.284472 35.574390 61.781362 0 CFG=2
M  V30 11 N 37.715607 29.707621 57.073330 0
M  V30 12 C 37.072123 33.404072 61.452558 0
M  V30 13 O 40.276409 36.596036 61.888145 0
M  V30 14 C 38.404670 32.857268 61.956596 0
M  V30 15 C 38.781380 30.211992 59.245291 0
M  V30 16 C 38.960720 26.031574 55.386395 0 CFG=2
M  V30 17 O 40.446678 35.337565 63.823875 0
M  V30 18 C 37.712520 30.190092 58.410548 0
M  V30 19 C 37.634460 25.798942 56.104938 0 CFG=1
M  V30 20 C 38.720421 30.734415 60.657066 0 CFG=2
M  V30 21 C 39.193761 33.022093 59.491429 0
M  V30 22 C 39.382249 27.384476 54.849540 0 CFG=2
M  V30 23 C 37.891671 35.843900 61.193447 0
M  V30 24 C 38.554096 28.646636 55.027828 0 CFG=2
M  V30 25 C 39.007950 26.290025 53.897766 0
M  V30 26 N 39.527208 36.161691 63.089616 0
M  V30 27 N 36.346742 37.337752 59.978206 0
M  V30 28 C 37.263132 24.312179 56.214762 0
M  V30 29 O 36.845227 23.806319 54.967791 0
M  V30 30 O 38.766597 25.790974 58.167634 0
M  V30 31 C 38.224985 38.307950 60.967758 0
M  V30 32 C 36.929332 34.850798 61.058162 0
M  V30 33 Cl 39.019737 29.858304 53.805845 0
M  V30 34 H 41.710709 30.572431 62.616114 0
M  V30 35 H 40.290005 31.305012 63.351371 0
M  V30 36 H 41.376459 31.754705 60.567757 0
M  V30 37 H 41.098064 32.979905 61.767730 0
M  V30 38 H 36.863170 26.163663 58.016022 0
M  V30 39 H 39.800926 34.704243 61.423714 0
M  V30 40 H 36.829251 29.726256 56.587194 0
M  V30 41 H 38.938568 33.485195 62.656099 0
M  V30 42 H 38.116253 32.054786 62.634188 0
M  V30 43 H 39.737103 29.852019 58.936125 0
M  V30 44 H 39.773214 25.413801 55.767446 0
M  V30 45 H 41.235543 35.859607 63.776361 0
M  V30 46 H 36.740542 30.552501 58.716008 0
M  V30 47 H 36.844518 26.308741 55.556308 0
M  V30 48 H 37.673725 30.661131 60.949528 0
M  V30 49 H 39.645136 32.537796 58.641355 0
M  V30 50 H 38.177545 33.185018 59.135846 0
M  V30 51 H 39.676527 33.992776 59.543344 0
M  V30 52 H 40.445098 27.559547 54.967953 0
M  V30 53 H 37.498809 28.423912 54.874810 0
M  V30 54 H 38.060487 26.362635 53.367313 0
M  V30 55 H 39.848588 25.885007 53.340089 0
M  V30 56 H 35.727997 36.557198 59.813068 0
M  V30 57 H 38.108475 23.737795 56.589679 0
M  V30 58 H 36.445150 24.179575 56.918814 0
M  V30 59 H 36.531550 22.922975 55.088961 0
M  V30 60 H 39.318635 26.542780 58.338576 0
M  V30 61 H 37.900040 39.267384 60.591788 0
M  V30 62 H 39.121071 38.295910 61.535360 0
M  V30 63 H 35.975111 35.110868 60.637433 0
M  V30 64 H 35.967105 38.259097 59.767787 0
M  V30 END ATOM
M  V30 BEGIN BOND
M  V30 1 1 6 2
M  V30 2 2 7 5
M  V30 3 1 8 2
M  V30 4 1 8 4
M  V30 5 1 11 5
M  V30 6 2 12 1
M  V30 7 1 13 10
M  V30 8 1 4 14 CFG=1
M  V30 9 1 14 12
M  V30 10 1 18 11
M  V30 11 2 18 15
M  V30 12 1 19 9
M  V30 13 1 19 16
M  V30 14 1 20 4
M  V30 15 1 20 6
M  V30 16 1 20 15
M  V30 17 1 21 4
M  V30 18 1 22 16
M  V30 19 1 23 3
M  V30 20 1 23 10
M  V30 21 1 24 5
M  V30 22 1 24 22
M  V30 23 1 25 16
M  V30 24 1 25 22
M  V30 25 1 26 10
M  V30 26 1 26 13
M  V30 27 1 26 17
M  V30 28 1 27 3
M  V30 29 1 28 19
M  V30 30 1 29 28
M  V30 31 1 30 9
M  V30 32 2 31 3
M  V30 33 1 32 12
M  V30 34 2 32 23
M  V30 35 1 33 24
M  V30 36 1 34 2
M  V30 37 1 35 2
M  V30 38 1 36 8
M  V30 39 1 37 8
M  V30 40 1 38 9
M  V30 41 1 10 39 CFG=1
M  V30 42 1 40 11
M  V30 43 1 41 14
M  V30 44 1 42 14
M  V30 45 1 43 15
M  V30 46 1 16 44 CFG=3
M  V30 47 1 45 17
M  V30 48 1 46 18
M  V30 49 1 19 47 CFG=3
M  V30 50 1 20 48 CFG=1
M  V30 51 1 49 21
M  V30 52 1 50 21
M  V30 53 1 51 21
M  V30 54 1 22 52 CFG=3
M  V30 55 1 24 53 CFG=1
M  V30 56 1 54 25
M  V30 57 1 55 25
M  V30 58 1 56 27
M  V30 59 1 57 28
M  V30 60 1 58 28
M  V30 61 1 59 29
M  V30 62 1 60 30
M  V30 63 1 61 31
M  V30 64 1 62 31
M  V30 65 1 63 32
M  V30 66 1 64 27
M  V30 END BOND
M  V30 END CTAB
M  END
>  <i_epik_Tot_Q>  (1) 
0

>  <i_epik_Tot_abs_Q>  (1) 
0

>  <i_i_glide_confnum>  (1) 
992

>  <i_i_glide_lignum>  (1) 
126

>  <i_i_glide_posenum>  (1) 
179

>  <i_i_glide_rotatable_bonds>  (1) 
16

>  <i_lp_mmshare_version>  (1) 
72125

>  <i_m_source_file_index>  (1) 
58

>  <i_f3d_flags>  (1) 
0

>  <num_sample>  (1) 
100

>  <b_lp_Chiralities_Consistent>  (1) 
1

>  <r_epik_Charging_Adjusted_Penalty>  (1) 
0.024416195549470061

>  <r_epik_Ionization_Penalty>  (1) 
0.014246986074461085

>  <r_epik_Ionization_Penalty_Charging>  (1) 
6.6592516266621022e-05

>  <r_epik_Ionization_Penalty_Neutral>  (1) 
0.014180393558194464

>  <r_epik_State_Penalty>  (1) 
0.024349603033203441

>  <r_glide_ring_energy>  (1) 
0.20502008593199658

>  <r_i_docking_score>  (1) 
-5.344847919222163

>  <r_i_glide_ecoul>  (1) 
-3.2140764275267428

>  <r_i_glide_eff_state_penalty>  (1) 
0.024349603033203441

>  <r_i_glide_einternal>  (1) 
8.0051747181727961

>  <r_i_glide_emodel>  (1) 
-47.248640627774662

>  <r_i_glide_emodel_strain>  (1) 
7.5515054348863089

>  <r_i_glide_energy>  (1) 
-43.84138658276806

>  <r_i_glide_erotb>  (1) 
1.0500022235395752

>  <r_i_glide_esite>  (1) 
-0.063938532636158105

>  <r_i_glide_evdw>  (1) 
-40.627310155241318

>  <r_i_glide_gscore>  (1) 
-5.3691975222553667

>  <r_i_glide_gscore_strain>  (1) 
0.88787635872157722

>  <r_i_glide_hbond>  (1) 
-0.32000000000000001

>  <r_i_glide_ligand_efficiency>  (1) 
-0.16196508846127766

>  <r_i_glide_ligand_efficiency_ln>  (1) 
-1.1886665030935715

>  <r_i_glide_ligand_efficiency_sa>  (1) 
-0.51950858150035906

>  <r_i_glide_lipo>  (1) 
-3.2111008474117102

>  <r_i_glide_metal>  (1) 
-0

>  <r_i_glide_rewards>  (1) 
-1.1985597525775744

>  <r_lp_Energy>  (1) 
12.674657999999999

>  <s_epik_Chemistry_Notes>  (1) 
This compound has an imine and may undergo hydrolysis. This compound contains an acetal/aminal-like group ( X-CH(R)-Y where X, Y are N, S, or O) that may be acid/base labile, releasing an aldehyde. This compound has a N-S or N-O group and may undergo hydrolysis at high or low pH.

>  <s_epik_cmdline>  (1) 
J2VwaWtfcHl0aG9uJywgJy1waHQnLCAnMS4wJywgJy1waCcsICc3LjQnLCAnLXRuJywgJzgnLCAnLW1hJywgJzUwMCcsICctaW1hZScsICc8aW5maWxlLm1hZT4nLCAnLW9tYWUnLCAnPG91dGZpbGUubWFlPic=

>  <s_epik_input>  (1) 
W09IXU4xT1tDQEBIXTFDKC9DKD1OL1tIXSlbQ0gzXSk9W0NIXVxDKD1PKVtDSDJdW0NAQF0yKFtDSDNdKVtDSDJdW0NIMl1TW0NAQEhdMi9bQ0hdPVtDSF0vW05IXUMoPU8pW0NAQEhdKENsKVtDQEhdKFtDSDJdMylbQ0BIXTNbQ0BIXShbTkhdW09IXSlbQ0gyXVtPSF0=

>  <s_glide_docking_method>  (1) 
confgen

>  <s_i_glide_gridfile>  (1) 
gpcr_5ht2c_6bqh_protein_autoprepared_prepared

>  <s_lp_Force_Field>  (1) 
S-OPLS

>  <s_lp_Variant>  (1) 
DiffSBDD_57-2

>  <s_m_source_file>  (1) 
generated_GPCR_5HT2C_ligand_DiffSBDD_2026-06-23_prepared.sdf

>  <GenAI_Model>  (1) 
DiffSBDD

>  <Protein>  (1) 
GPCR_5HT2C

$$$$
DiffSBDD_57
     RDKit          3D

  0  0  0  0  0  0  0  0  0  0999 V3000
M  V30 BEGIN CTAB
M  V30 COUNTS 64 66 0 0 1
M  V30 BEGIN ATOM
M  V30 1 O 41.458791 33.445567 63.085372 0
M  V30 2 C 36.914450 34.210826 61.486973 0
M  V30 3 C 40.084215 36.171924 66.268257 0
M  V30 4 C 39.192714 33.313551 60.971358 0 CFG=2
M  V30 5 C 38.874573 30.208825 56.081185 0
M  V30 6 S 37.248588 34.816012 59.815806 0
M  V30 7 O 39.930916 30.625518 55.605160 0
M  V30 8 C 37.909273 33.074109 61.787363 0
M  V30 9 N 40.358463 27.649174 58.094030 0
M  V30 10 C 41.397140 33.961754 65.736939 0 CFG=2
M  V30 11 N 38.240026 30.794865 57.109692 0
M  V30 12 C 40.666000 34.364833 62.899384 0
M  V30 13 O 42.775606 33.992178 65.317214 0
M  V30 14 C 40.033075 34.532078 61.507791 0
M  V30 15 C 38.127593 32.458709 58.815436 0
M  V30 16 C 39.738941 26.831695 55.830595 0 CFG=2
M  V30 17 O 42.710161 32.874172 67.370140 0
M  V30 18 C 38.736647 31.921667 57.751068 0
M  V30 19 C 39.473070 26.769424 57.330193 0 CFG=1
M  V30 20 C 38.638926 33.673623 59.563681 0 CFG=2
M  V30 21 C 40.041426 32.009456 60.978543 0
M  V30 22 C 39.117578 27.900753 54.960445 0 CFG=2
M  V30 23 C 40.580104 35.165687 65.286855 0
M  V30 24 C 38.206422 28.974136 55.504589 0 CFG=2
M  V30 25 C 38.631227 26.477428 54.862916 0
M  V30 26 N 42.444693 34.141864 66.734930 0
M  V30 27 N 39.444442 37.313613 65.828858 0
M  V30 28 C 39.493111 25.346089 57.898056 0
M  V30 29 O 38.462346 24.539406 57.364299 0
M  V30 30 O 41.742638 27.358658 57.752703 0
M  V30 31 C 40.241278 35.983539 67.594640 0
M  V30 32 C 40.256539 35.338346 63.961514 0
M  V30 33 Cl 37.245127 29.539257 54.168053 0
M  V30 34 H 35.878932 33.880639 61.582731 0
M  V30 35 H 37.058174 35.050905 62.166906 0
M  V30 36 H 37.453728 32.131400 61.480381 0
M  V30 37 H 38.124608 32.937828 62.844623 0
M  V30 38 H 40.335010 27.502292 59.094627 0
M  V30 39 H 40.894553 32.999633 65.650638 0
M  V30 40 H 37.366567 30.413264 57.444674 0
M  V30 41 H 39.419506 35.431781 61.518451 0
M  V30 42 H 40.840347 34.746479 60.811771 0
M  V30 43 H 37.215179 32.013355 59.186268 0
M  V30 44 H 40.725038 26.482410 55.533416 0
M  V30 45 H 41.949187 32.764743 67.918858 0
M  V30 46 H 39.645106 32.314459 57.324209 0
M  V30 47 H 38.467875 27.140993 57.517789 0
M  V30 48 H 39.422229 34.137523 58.966027 0
M  V30 49 H 39.588837 31.181966 60.436298 0
M  V30 50 H 41.034155 32.177545 60.568009 0
M  V30 51 H 40.178000 31.630337 61.991171 0
M  V30 52 H 39.644823 28.224775 54.071989 0
M  V30 53 H 37.527301 28.553320 56.239781 0
M  V30 54 H 37.644024 26.258279 55.266158 0
M  V30 55 H 38.900589 25.922812 53.966840 0
M  V30 56 H 39.437883 37.565030 64.851765 0
M  V30 57 H 40.448782 24.862728 57.740997 0
M  V30 58 H 39.331332 25.416324 58.967323 0
M  V30 59 H 38.505607 23.684338 57.767078 0
M  V30 60 H 41.771511 26.414732 57.677583 0
M  V30 61 H 39.880242 36.718811 68.299915 0
M  V30 62 H 40.716821 35.110554 67.996248 0
M  V30 63 H 39.670372 36.187497 63.651044 0
M  V30 64 H 39.189704 38.050711 66.470759 0
M  V30 END ATOM
M  V30 BEGIN BOND
M  V30 1 1 6 2
M  V30 2 2 7 5
M  V30 3 1 8 2
M  V30 4 1 8 4
M  V30 5 1 11 5
M  V30 6 2 12 1
M  V30 7 1 13 10
M  V30 8 1 4 14 CFG=1
M  V30 9 1 14 12
M  V30 10 1 18 11
M  V30 11 2 18 15
M  V30 12 1 19 9
M  V30 13 1 19 16
M  V30 14 1 20 4
M  V30 15 1 20 6
M  V30 16 1 20 15
M  V30 17 1 21 4
M  V30 18 1 22 16
M  V30 19 1 23 3
M  V30 20 1 23 10
M  V30 21 1 24 5
M  V30 22 1 24 22
M  V30 23 1 25 16
M  V30 24 1 25 22
M  V30 25 1 26 10
M  V30 26 1 26 13
M  V30 27 1 26 17
M  V30 28 1 27 3
M  V30 29 1 28 19
M  V30 30 1 29 28
M  V30 31 1 30 9
M  V30 32 2 31 3
M  V30 33 1 32 12
M  V30 34 2 32 23
M  V30 35 1 33 24
M  V30 36 1 34 2
M  V30 37 1 35 2
M  V30 38 1 36 8
M  V30 39 1 37 8
M  V30 40 1 38 9
M  V30 41 1 10 39 CFG=1
M  V30 42 1 40 11
M  V30 43 1 41 14
M  V30 44 1 42 14
M  V30 45 1 43 15
M  V30 46 1 16 44 CFG=1
M  V30 47 1 45 17
M  V30 48 1 46 18
M  V30 49 1 19 47 CFG=3
M  V30 50 1 20 48 CFG=3
M  V30 51 1 49 21
M  V30 52 1 50 21
M  V30 53 1 51 21
M  V30 54 1 22 52 CFG=3
M  V30 55 1 24 53 CFG=1
M  V30 56 1 54 25
M  V30 57 1 55 25
M  V30 58 1 56 27
M  V30 59 1 57 28
M  V30 60 1 58 28
M  V30 61 1 59 29
M  V30 62 1 60 30
M  V30 63 1 61 31
M  V30 64 1 62 31
M  V30 65 1 63 32
M  V30 66 1 64 27
M  V30 END BOND
M  V30 END CTAB
M  END
>  <i_epik_Tot_Q>  (1) 
0

>  <i_epik_Tot_abs_Q>  (1) 
0

>  <i_i_glide_confnum>  (1) 
1423

>  <i_i_glide_lignum>  (1) 
126

>  <i_i_glide_posenum>  (1) 
289

>  <i_i_glide_rotatable_bonds>  (1) 
16

>  <i_lp_mmshare_version>  (1) 
72125

>  <i_m_source_file_index>  (1) 
58

>  <i_f3d_flags>  (1) 
0

>  <num_sample>  (1) 
100

>  <b_lp_Chiralities_Consistent>  (1) 
1

>  <r_epik_Charging_Adjusted_Penalty>  (1) 
0.024416195549470061

>  <r_epik_Ionization_Penalty>  (1) 
0.014246986074461085

>  <r_epik_Ionization_Penalty_Charging>  (1) 
6.6592516266621022e-05

>  <r_epik_Ionization_Penalty_Neutral>  (1) 
0.014180393558194464

>  <r_epik_State_Penalty>  (1) 
0.024349603033203441

>  <r_glide_ring_energy>  (1) 
0.20502008593199658

>  <r_i_docking_score>  (1) 
-5.3401895393420036

>  <r_i_glide_ecoul>  (1) 
-2.5921005215827631

>  <r_i_glide_eff_state_penalty>  (1) 
0.024349603033203441

>  <r_i_glide_einternal>  (1) 
12.175795141768052

>  <r_i_glide_emodel>  (1) 
-48.015040186302123

>  <r_i_glide_emodel_strain>  (1) 
1.2100144315578447

>  <r_i_glide_energy>  (1) 
-40.364585992925214

>  <r_i_glide_erotb>  (1) 
1.0500022235395752

>  <r_i_glide_esite>  (1) 
-0.097324103009576973

>  <r_i_glide_evdw>  (1) 
-37.772485471342449

>  <r_i_glide_gscore>  (1) 
-5.3645391423752073

>  <r_i_glide_gscore_strain>  (1) 
0

>  <r_i_glide_hbond>  (1) 
-0.24356491168057776

>  <r_i_glide_ligand_efficiency>  (1) 
-0.16182392543460616

>  <r_i_glide_ligand_efficiency_ln>  (1) 
-1.1876305035280241

>  <r_i_glide_ligand_efficiency_sa>  (1) 
-0.51905579624618414

>  <r_i_glide_lipo>  (1) 
-2.698707972905499

>  <r_i_glide_metal>  (1) 
-0

>  <r_i_glide_rewards>  (1) 
-1.0975050265145914

>  <r_lp_Energy>  (1) 
12.674657999999999

>  <s_epik_Chemistry_Notes>  (1) 
This compound has an imine and may undergo hydrolysis. This compound contains an acetal/aminal-like group ( X-CH(R)-Y where X, Y are N, S, or O) that may be acid/base labile, releasing an aldehyde. This compound has a N-S or N-O group and may undergo hydrolysis at high or low pH.

>  <s_epik_cmdline>  (1) 
J2VwaWtfcHl0aG9uJywgJy1waHQnLCAnMS4wJywgJy1waCcsICc3LjQnLCAnLXRuJywgJzgnLCAnLW1hJywgJzUwMCcsICctaW1hZScsICc8aW5maWxlLm1hZT4nLCAnLW9tYWUnLCAnPG91dGZpbGUubWFlPic=

>  <s_epik_input>  (1) 
W09IXU4xT1tDQEBIXTFDKC9DKD1OL1tIXSlbQ0gzXSk9W0NIXVxDKD1PKVtDSDJdW0NAQF0yKFtDSDNdKVtDSDJdW0NIMl1TW0NAQEhdMi9bQ0hdPVtDSF0vW05IXUMoPU8pW0NAQEhdKENsKVtDQEhdKFtDSDJdMylbQ0BIXTNbQ0BIXShbTkhdW09IXSlbQ0gyXVtPSF0=

>  <s_glide_docking_method>  (1) 
confgen

>  <s_i_glide_gridfile>  (1) 
gpcr_5ht2c_6bqh_protein_autoprepared_prepared

>  <s_lp_Force_Field>  (1) 
S-OPLS

>  <s_lp_Variant>  (1) 
DiffSBDD_57-2

>  <s_m_source_file>  (1) 
generated_GPCR_5HT2C_ligand_DiffSBDD_2026-06-23_prepared.sdf

>  <GenAI_Model>  (1) 
DiffSBDD

>  <Protein>  (1) 
GPCR_5HT2C

$$$$
DiffSBDD_11
     RDKit          3D

  0  0  0  0  0  0  0  0  0  0999 V3000
M  V30 BEGIN CTAB
M  V30 COUNTS 43 45 0 0 1
M  V30 BEGIN ATOM
M  V30 1 C 38.228377 30.180536 56.147938 0
M  V30 2 C 39.239633 25.975695 57.084133 0
M  V30 3 N 38.436679 28.773039 55.857194 0
M  V30 4 C 38.099004 28.166261 54.584551 0 CFG=1
M  V30 5 N 36.045122 31.151316 59.768121 0
M  V30 6 C 39.760943 26.852350 55.927054 0 CFG=2
M  V30 7 C 38.132650 32.629990 58.514195 0
M  V30 8 C 38.424345 29.004956 53.323336 0
M  V30 9 C 38.260181 31.107646 58.656546 0 CFG=2
M  V30 10 C 37.736075 28.457254 52.066411 0
M  V30 11 C 39.007559 30.468148 57.454586 0 CFG=1
M  V30 12 O 36.634784 29.337738 58.569197 0
M  V30 13 S 39.914029 28.940167 57.905490 0
M  V30 14 C 36.903570 30.454705 58.995174 0
M  V30 15 C 39.751142 28.355432 56.211155 0 CFG=2
M  V30 16 C 36.285095 32.517857 60.255650 0
M  V30 17 C 38.842065 26.792029 54.673478 0 CFG=2
M  V30 18 F 38.503174 33.070956 60.776710 0
M  V30 19 C 37.587444 33.208364 59.816042 0 CFG=1
M  V30 20 O 39.646463 26.537957 53.540480 0
M  V30 21 H 37.165874 30.415440 56.208748 0
M  V30 22 H 38.650482 30.803515 55.360072 0
M  V30 23 H 38.246270 26.288358 57.408424 0
M  V30 24 H 39.178340 24.929459 56.783791 0
M  V30 25 H 39.904234 26.022403 57.947498 0
M  V30 26 H 37.022874 27.989154 54.565578 0
M  V30 27 H 35.157827 30.729771 59.994010 0
M  V30 28 H 40.778506 26.530347 55.697749 0
M  V30 29 H 39.100633 33.081670 58.293668 0
M  V30 30 H 37.470944 32.879584 57.682493 0
M  V30 31 H 38.068873 30.026271 53.448438 0
M  V30 32 H 39.500264 29.085942 53.170645 0
M  V30 33 H 38.886428 30.924080 59.530444 0
M  V30 34 H 38.045292 29.015284 51.184849 0
M  V30 35 H 37.964314 27.410921 51.870543 0
M  V30 36 H 36.653428 28.534112 52.162388 0
M  V30 37 H 39.781886 31.164332 57.146862 0
M  V30 38 H 40.478036 28.869744 55.580725 0
M  V30 39 H 35.446373 33.109748 59.886081 0
M  V30 40 H 36.198357 32.529894 61.343044 0
M  V30 41 H 38.119365 25.979667 54.760688 0
M  V30 42 H 37.425849 34.282274 59.716964 0
M  V30 43 H 39.090608 26.551701 52.775922 0
M  V30 END ATOM
M  V30 BEGIN BOND
M  V30 1 1 3 1
M  V30 2 1 4 3
M  V30 3 1 6 2
M  V30 4 1 8 4
M  V30 5 1 9 7
M  V30 6 1 10 8
M  V30 7 1 11 1
M  V30 8 1 11 9
M  V30 9 1 13 11
M  V30 10 1 14 5
M  V30 11 1 14 9
M  V30 12 2 14 12
M  V30 13 1 15 3
M  V30 14 1 15 6
M  V30 15 1 15 13
M  V30 16 1 16 5
M  V30 17 1 17 4
M  V30 18 1 17 6
M  V30 19 1 19 7
M  V30 20 1 19 16
M  V30 21 1 19 18
M  V30 22 1 20 17
M  V30 23 1 21 1
M  V30 24 1 22 1
M  V30 25 1 23 2
M  V30 26 1 24 2
M  V30 27 1 25 2
M  V30 28 1 4 26 CFG=1
M  V30 29 1 27 5
M  V30 30 1 6 28 CFG=3
M  V30 31 1 29 7
M  V30 32 1 30 7
M  V30 33 1 31 8
M  V30 34 1 32 8
M  V30 35 1 9 33 CFG=1
M  V30 36 1 34 10
M  V30 37 1 35 10
M  V30 38 1 36 10
M  V30 39 1 11 37 CFG=3
M  V30 40 1 15 38 CFG=3
M  V30 41 1 39 16
M  V30 42 1 40 16
M  V30 43 1 17 41 CFG=1
M  V30 44 1 19 42 CFG=3
M  V30 45 1 43 20
M  V30 END BOND
M  V30 END CTAB
M  END
>  <i_epik_Tot_Q>  (1) 
0

>  <i_epik_Tot_abs_Q>  (1) 
0

>  <i_i_glide_confnum>  (1) 
3

>  <i_i_glide_lignum>  (1) 
18

>  <i_i_glide_posenum>  (1) 
213

>  <i_i_glide_rotatable_bonds>  (1) 
3

>  <i_lp_mmshare_version>  (1) 
72125

>  <i_m_source_file_index>  (1) 
12

>  <i_f3d_flags>  (1) 
0

>  <num_sample>  (1) 
100

>  <b_lp_Chiralities_Consistent>  (1) 
1

>  <r_epik_Charging_Adjusted_Penalty>  (1) 
0

>  <r_epik_Ionization_Penalty>  (1) 
0.0013281564367089848

>  <r_epik_Ionization_Penalty_Charging>  (1) 
0

>  <r_epik_Ionization_Penalty_Neutral>  (1) 
0.0013281564367089848

>  <r_epik_State_Penalty>  (1) 
-0

>  <r_glide_ring_energy>  (1) 
0

>  <r_i_docking_score>  (1) 
-5.3391012939269107

>  <r_i_glide_ecoul>  (1) 
-1.3367933814895288

>  <r_i_glide_eff_state_penalty>  (1) 
-0

>  <r_i_glide_einternal>  (1) 
2.3400475732405202

>  <r_i_glide_emodel>  (1) 
-36.24279365288902

>  <r_i_glide_emodel_strain>  (1) 
1.8807342882284246

>  <r_i_glide_energy>  (1) 
-29.441180631774674

>  <r_i_glide_erotb>  (1) 
0.20132193000906404

>  <r_i_glide_esite>  (1) 
-0.18477805148856374

>  <r_i_glide_evdw>  (1) 
-28.104387250285146

>  <r_i_glide_gscore>  (1) 
-5.3391012939269107

>  <r_i_glide_gscore_strain>  (1) 
0

>  <r_i_glide_hbond>  (1) 
0

>  <r_i_glide_ligand_efficiency>  (1) 
-0.26695506469634556

>  <r_i_glide_ligand_efficiency_ln>  (1) 
-1.3362009585236962

>  <r_i_glide_ligand_efficiency_sa>  (1) 
-0.72462753045099337

>  <r_i_glide_lipo>  (1) 
-1.8728808709763196

>  <r_i_glide_metal>  (1) 
-0

>  <r_i_glide_rewards>  (1) 
-1.8770259317334046

>  <r_lp_Energy>  (1) 
13.978804

>  <r_lp_tautomer_probability>  (1) 
1

>  <s_epik_Chemistry_Notes>  (1) 
This compound contains an acetal/aminal-like group ( X-CH(R)-Y where X, Y are N, S, or O) that may be acid/base labile, releasing an aldehyde.

>  <s_epik_cmdline>  (1) 
J2VwaWtfcHl0aG9uJywgJy1waHQnLCAnMS4wJywgJy1waCcsICc3LjQnLCAnLXRuJywgJzgnLCAnLW1hJywgJzUwMCcsICctaW1hZScsICc8aW5maWxlLm1hZT4nLCAnLW9tYWUnLCAnPG91dGZpbGUubWFlPic=

>  <s_epik_input>  (1) 
Tz1DMVtOSF1bQ0gyXVtDQEBIXShGKVtDSDJdW0NAQEhdMVtDQEhdKFtDSDJdMilTW0NASF0oTjIzKVtDQEBIXShbQ0gzXSlbQ0BIXShbT0hdKVtDQEBIXTNbQ0gyXVtDSDNd

>  <s_glide_docking_method>  (1) 
confgen

>  <s_i_glide_gridfile>  (1) 
gpcr_5ht2c_6bqh_protein_autoprepared_prepared

>  <s_lp_Force_Field>  (1) 
S-OPLS

>  <s_lp_Variant>  (1) 
DiffSBDD_11-1

>  <s_m_source_file>  (1) 
generated_GPCR_5HT2C_ligand_DiffSBDD_2026-06-23_prepared.sdf

>  <GenAI_Model>  (1) 
DiffSBDD

>  <Protein>  (1) 
GPCR_5HT2C

$$$$
DiffSBDD_22
     RDKit          3D

  0  0  0  0  0  0  0  0  0  0999 V3000
M  V30 BEGIN CTAB
M  V30 COUNTS 47 50 0 0 1
M  V30 BEGIN ATOM
M  V30 1 C 39.575208 29.668694 51.976585 0
M  V30 2 C 38.470494 31.107714 61.196712 0
M  V30 3 C 39.085457 27.637267 54.807304 0
M  V30 4 F 37.149855 30.938115 61.367504 0
M  V30 5 N 38.703497 28.881527 54.100792 0 CFG=1 CHG=1
M  V30 6 C 39.569116 30.058272 54.365930 0 CFG=1
M  V30 7 C 39.905257 30.677165 53.043992 0 CFG=2
M  V30 8 O 40.494255 28.093379 56.727694 0
M  V30 9 O 37.550726 26.392032 57.628117 0
M  V30 10 N 41.197070 28.223041 58.970016 0
M  V30 11 O 38.844762 24.137733 57.366453 0
M  V30 12 C 39.912825 26.244482 58.023471 0 CFG=1
M  V30 13 C 39.150927 27.793856 56.336430 0 CFG=2
M  V30 14 C 40.535620 29.597847 60.869507 0
M  V30 15 N 38.887557 32.099911 60.540874 0
M  V30 16 C 38.582804 28.699594 52.629014 0
M  V30 17 C 40.041034 28.744173 59.688692 0
M  V30 18 C 38.911549 31.353606 53.980775 0
M  V30 19 C 39.627621 25.229043 56.941713 0 CFG=2
M  V30 20 C 40.915006 27.364262 57.847682 0 CFG=1
M  V30 21 C 39.419828 30.094071 61.810254 0
M  V30 22 C 38.831018 26.500945 57.032206 0 CFG=2
M  V30 23 H 40.491755 29.137854 51.715547 0
M  V30 24 H 39.204098 30.137780 51.065902 0
M  V30 25 H 40.028024 27.240560 54.428833 0
M  V30 26 H 38.323100 26.895898 54.561162 0
M  V30 27 H 40.316373 30.010744 55.154284 0
M  V30 28 H 40.845070 31.208010 52.918987 0
M  V30 29 H 36.893893 26.371418 56.947593 0
M  V30 30 H 41.833789 27.778624 59.621369 0
M  V30 31 H 38.095821 24.506646 57.818125 0
M  V30 32 H 39.645310 25.964803 59.038783 0
M  V30 33 H 38.479031 28.571384 56.704199 0
M  V30 34 H 41.110788 30.448112 60.502630 0
M  V30 35 H 41.226556 28.998612 61.465164 0
M  V30 36 H 38.127354 32.672178 60.200890 0
M  V30 37 H 38.765840 27.671926 52.309383 0
M  V30 38 H 37.561022 28.938131 52.335114 0
M  V30 39 H 39.426224 27.927643 60.067716 0
M  V30 40 H 39.423376 29.335879 59.012251 0
M  V30 41 H 39.244706 32.243624 54.510083 0
M  V30 42 H 37.845749 31.328331 53.767762 0
M  V30 43 H 40.330237 25.053347 56.129693 0
M  V30 44 H 41.871901 26.936578 57.544530 0
M  V30 45 H 37.785160 29.132109 54.441639 0
M  V30 46 H 39.867554 30.549121 62.694298 0
M  V30 47 H 38.845135 29.241688 62.168362 0
M  V30 END ATOM
M  V30 BEGIN BOND
M  V30 1 1 4 2
M  V30 2 1 5 3
M  V30 3 1 6 5
M  V30 4 1 7 1
M  V30 5 1 7 6
M  V30 6 1 13 3
M  V30 7 1 13 8
M  V30 8 2 15 2
M  V30 9 1 16 1
M  V30 10 1 16 5
M  V30 11 1 17 10
M  V30 12 1 17 14
M  V30 13 1 18 6
M  V30 14 1 18 7
M  V30 15 1 19 11
M  V30 16 1 19 12
M  V30 17 1 20 8
M  V30 18 1 20 10
M  V30 19 1 20 12
M  V30 20 1 21 2
M  V30 21 1 21 14
M  V30 22 1 22 9 CFG=1
M  V30 23 1 22 12
M  V30 24 1 22 13
M  V30 25 1 22 19
M  V30 26 1 23 1
M  V30 27 1 24 1
M  V30 28 1 25 3
M  V30 29 1 26 3
M  V30 30 1 6 27 CFG=1
M  V30 31 1 7 28 CFG=1
M  V30 32 1 29 9
M  V30 33 1 30 10
M  V30 34 1 31 11
M  V30 35 1 12 32 CFG=1
M  V30 36 1 13 33 CFG=1
M  V30 37 1 34 14
M  V30 38 1 35 14
M  V30 39 1 36 15
M  V30 40 1 37 16
M  V30 41 1 38 16
M  V30 42 1 39 17
M  V30 43 1 40 17
M  V30 44 1 41 18
M  V30 45 1 42 18
M  V30 46 1 19 43 CFG=3
M  V30 47 1 20 44 CFG=3
M  V30 48 1 5 45 CFG=1
M  V30 49 1 46 21
M  V30 50 1 47 21
M  V30 END BOND
M  V30 END CTAB
M  END
>  <i_epik_Tot_Q>  (1) 
1

>  <i_epik_Tot_abs_Q>  (1) 
1

>  <i_i_glide_confnum>  (1) 
377

>  <i_i_glide_lignum>  (1) 
54

>  <i_i_glide_posenum>  (1) 
275

>  <i_i_glide_rotatable_bonds>  (1) 
9

>  <i_lp_mmshare_version>  (1) 
72125

>  <i_m_source_file_index>  (1) 
23

>  <i_f3d_flags>  (1) 
0

>  <num_sample>  (1) 
100

>  <b_lp_Chiralities_Consistent>  (1) 
1

>  <r_epik_Charging_Adjusted_Penalty>  (1) 
0.69687758696528612

>  <r_epik_Ionization_Penalty>  (1) 
0.32102159834462574

>  <r_epik_Ionization_Penalty_Charging>  (1) 
0.0068758800046254996

>  <r_epik_Ionization_Penalty_Neutral>  (1) 
0.31414571834000021

>  <r_epik_State_Penalty>  (1) 
0.69000170696066065

>  <r_glide_ring_energy>  (1) 
1.6455033096424496

>  <r_i_docking_score>  (1) 
-5.3378464906520149

>  <r_i_glide_ecoul>  (1) 
-4.3261219758538818

>  <r_i_glide_eff_state_penalty>  (1) 
0.69000170696066065

>  <r_i_glide_einternal>  (1) 
8.7114682555607352

>  <r_i_glide_emodel>  (1) 
-38.242655070100895

>  <r_i_glide_emodel_strain>  (1) 
1.1602761806706781

>  <r_i_glide_energy>  (1) 
-34.400422637645605

>  <r_i_glide_erotb>  (1) 
1.3164448029953435

>  <r_i_glide_esite>  (1) 
-0.045252630414605755

>  <r_i_glide_evdw>  (1) 
-30.074300661791725

>  <r_i_glide_gscore>  (1) 
-6.0278481976126752

>  <r_i_glide_gscore_strain>  (1) 
0

>  <r_i_glide_hbond>  (1) 
0

>  <r_i_glide_ligand_efficiency>  (1) 
-0.24262938593872796

>  <r_i_glide_ligand_efficiency_ln>  (1) 
-1.3047643849968371

>  <r_i_glide_ligand_efficiency_sa>  (1) 
-0.67985708217308094

>  <r_i_glide_lipo>  (1) 
-2.9267631097591802

>  <r_i_glide_metal>  (1) 
-0

>  <r_i_glide_rewards>  (1) 
-2.2196439309665639

>  <r_lp_Energy>  (1) 
10.052434999999999

>  <r_lp_tautomer_probability>  (1) 
0.49999300000000002

>  <s_epik_Chemistry_Notes>  (1) 
This compound has an imine and may undergo hydrolysis. This compound contains an acetal/aminal-like group ( X-CH(R)-Y where X, Y are N, S, or O) that may be acid/base labile, releasing an aldehyde.

>  <s_epik_cmdline>  (1) 
J2VwaWtfcHl0aG9uJywgJy1waHQnLCAnMS4wJywgJy1waCcsICc3LjQnLCAnLXRuJywgJzgnLCAnLW1hJywgJzUwMCcsICctaW1hZScsICc8aW5maWxlLm1hZT4nLCAnLW9tYWUnLCAnPG91dGZpbGUubWFlPic=

>  <s_epik_input>  (1) 
W0NAQEhdMTJbQ0BIXShbQ0gyXTIpW0NIMl1bQ0gyXU4xW0NIMl1bQ0BASF0zT1tDQEhdKFtDSF0oW0NASF00W09IXSlbQ0BAXTM0W09IXSlbTkhdW0NIMl1bQ0gyXVxbQ0hdPUMoXEYpW05IMl0=

>  <s_glide_docking_method>  (1) 
confgen

>  <s_i_glide_gridfile>  (1) 
gpcr_5ht2c_6bqh_protein_autoprepared_prepared

>  <s_lp_Force_Field>  (1) 
S-OPLS

>  <s_lp_Variant>  (1) 
DiffSBDD_22-2

>  <s_m_source_file>  (1) 
generated_GPCR_5HT2C_ligand_DiffSBDD_2026-06-23_prepared.sdf

>  <GenAI_Model>  (1) 
DiffSBDD

>  <Protein>  (1) 
GPCR_5HT2C

$$$$
DiffSBDD_9
     RDKit          3D

  0  0  0  0  0  0  0  0  0  0999 V3000
M  V30 BEGIN CTAB
M  V30 COUNTS 66 67 0 0 1
M  V30 BEGIN ATOM
M  V30 1 C 38.241029 29.561132 57.006747 0 CFG=1
M  V30 2 C 35.079368 33.737754 61.954280 0
M  V30 3 C 39.000088 27.934506 51.182443 0
M  V30 4 C 40.617204 35.470961 63.960684 0
M  V30 5 O 38.233999 28.152636 52.257061 0
M  V30 6 O 40.445136 37.337754 62.567766 0
M  V30 7 C 38.151749 29.965730 55.541892 0 CFG=1
M  V30 8 C 39.501664 29.834129 56.224330 0
M  V30 9 N 37.813956 30.562763 57.981827 0
M  V30 10 C 37.964345 32.829698 60.296655 0
M  V30 11 C 37.367973 35.288197 60.602712 0 CFG=2
M  V30 12 C 38.355042 35.589576 61.730569 0
M  V30 13 C 39.836335 35.309926 61.462142 0 CFG=1
M  V30 14 C 37.552488 31.382780 60.259170 0
M  V30 15 C 40.753236 35.973117 62.517014 0 CFG=2
M  V30 16 C 35.509080 33.514557 60.508127 0
M  V30 17 C 39.467003 33.107379 60.187337 0
M  V30 18 C 37.461368 37.366743 59.484281 0
M  V30 19 C 37.690665 29.071000 54.407978 0
M  V30 20 C 37.944343 28.140983 57.478944 0
M  V30 21 O 36.623611 30.937750 60.931102 0
M  V30 22 C 38.314031 30.424346 59.346916 0
M  V30 23 O 40.045299 28.532590 50.932396 0
M  V30 24 C 38.670260 29.073413 53.239275 0
M  V30 25 C 37.013696 33.807652 60.448631 0
M  V30 26 C 40.094189 33.804763 61.395843 0
M  V30 27 O 37.819727 31.325102 55.330374 0
M  V30 28 O 37.625315 35.959537 59.394480 0
M  V30 29 C 34.733932 34.256371 59.403921 0
M  V30 30 H 35.955039 33.546456 62.567758 0
M  V30 31 H 34.845138 34.748344 62.233766 0
M  V30 32 H 34.253388 33.089552 62.241734 0
M  V30 33 H 38.554672 27.152835 50.567869 0
M  V30 34 H 40.750853 34.393643 64.043891 0
M  V30 35 H 41.367867 35.935779 64.601760 0
M  V30 36 H 39.645143 35.737756 64.372152 0
M  V30 37 H 40.956412 37.730080 63.267243 0
M  V30 38 H 40.123222 28.982118 55.958645 0
M  V30 39 H 40.044618 30.751401 56.442356 0
M  V30 40 H 36.796536 30.657289 57.969189 0
M  V30 41 H 36.449040 35.741138 60.972284 0
M  V30 42 H 38.191218 36.611591 62.063814 0
M  V30 43 H 38.066103 34.989479 62.567759 0
M  V30 44 H 40.094577 35.739238 60.494236 0
M  V30 45 H 41.791645 35.871263 62.201374 0
M  V30 46 H 35.213439 32.508920 60.248522 0
M  V30 47 H 40.028160 32.181514 60.167759 0
M  V30 48 H 39.671517 33.635200 59.255532 0
M  V30 49 H 37.803681 37.830936 58.567761 0
M  V30 50 H 36.414888 37.622709 59.644637 0
M  V30 51 H 38.045138 37.818199 60.283015 0
M  V30 52 H 37.556667 28.049071 54.752736 0
M  V30 53 H 36.718012 29.413774 54.068656 0
M  V30 54 H 38.165060 27.406128 56.706366 0
M  V30 55 H 38.567165 27.877782 58.333237 0
M  V30 56 H 36.897198 28.041004 57.767744 0
M  V30 57 H 38.093520 29.428194 59.729265 0
M  V30 58 H 39.394581 30.513471 59.377674 0
M  V30 59 H 38.782091 30.072567 52.817898 0
M  V30 60 H 39.645139 28.758637 53.599751 0
M  V30 61 H 41.173075 33.646353 61.367785 0
M  V30 62 H 39.754690 33.312016 62.307601 0
M  V30 63 H 37.076483 31.549484 55.885380 0
M  V30 64 H 35.022904 33.869882 58.428088 0
M  V30 65 H 33.658559 34.105333 59.507849 0
M  V30 66 H 34.924966 35.326716 59.367745 0
M  V30 END ATOM
M  V30 BEGIN BOND
M  V30 1 1 5 3
M  V30 2 1 7 1
M  V30 3 1 8 1
M  V30 4 1 8 7
M  V30 5 1 1 9 CFG=1
M  V30 6 1 12 11
M  V30 7 1 13 12
M  V30 8 1 14 10
M  V30 9 1 15 4
M  V30 10 1 15 6
M  V30 11 1 15 13
M  V30 12 1 16 2
M  V30 13 1 17 10
M  V30 14 1 19 7
M  V30 15 1 20 1
M  V30 16 2 21 14
M  V30 17 1 22 9
M  V30 18 1 22 14
M  V30 19 2 23 3
M  V30 20 1 24 5
M  V30 21 1 24 19
M  V30 22 2 25 10
M  V30 23 1 25 11
M  V30 24 1 25 16
M  V30 25 1 26 13
M  V30 26 1 26 17
M  V30 27 1 7 27 CFG=1
M  V30 28 1 28 11
M  V30 29 1 28 18
M  V30 30 1 29 16
M  V30 31 1 30 2
M  V30 32 1 31 2
M  V30 33 1 32 2
M  V30 34 1 33 3
M  V30 35 1 34 4
M  V30 36 1 35 4
M  V30 37 1 36 4
M  V30 38 1 37 6
M  V30 39 1 38 8
M  V30 40 1 39 8
M  V30 41 1 40 9
M  V30 42 1 11 41 CFG=1
M  V30 43 1 42 12
M  V30 44 1 43 12
M  V30 45 1 13 44 CFG=3
M  V30 46 1 15 45 CFG=3
M  V30 47 1 46 16
M  V30 48 1 47 17
M  V30 49 1 48 17
M  V30 50 1 49 18
M  V30 51 1 50 18
M  V30 52 1 51 18
M  V30 53 1 52 19
M  V30 54 1 53 19
M  V30 55 1 54 20
M  V30 56 1 55 20
M  V30 57 1 56 20
M  V30 58 1 57 22
M  V30 59 1 58 22
M  V30 60 1 59 24
M  V30 61 1 60 24
M  V30 62 1 61 26
M  V30 63 1 62 26
M  V30 64 1 63 27
M  V30 65 1 64 29
M  V30 66 1 65 29
M  V30 67 1 66 29
M  V30 END BOND
M  V30 END CTAB
M  END
>  <i_epik_Tot_Q>  (1) 
0

>  <i_epik_Tot_abs_Q>  (1) 
0

>  <i_i_glide_confnum>  (1) 
1518

>  <i_i_glide_lignum>  (1) 
16

>  <i_i_glide_posenum>  (1) 
16

>  <i_i_glide_rotatable_bonds>  (1) 
13

>  <i_lp_mmshare_version>  (1) 
72125

>  <i_m_source_file_index>  (1) 
10

>  <i_f3d_flags>  (1) 
0

>  <num_sample>  (1) 
100

>  <b_lp_Chiralities_Consistent>  (1) 
1

>  <r_epik_Charging_Adjusted_Penalty>  (1) 
0.70191645640278022

>  <r_epik_Ionization_Penalty>  (1) 
0.70191663338499877

>  <r_epik_Ionization_Penalty_Charging>  (1) 
0

>  <r_epik_Ionization_Penalty_Neutral>  (1) 
0.70191663338499877

>  <r_epik_State_Penalty>  (1) 
0.70191645640278022

>  <r_glide_ring_energy>  (1) 
0

>  <r_i_docking_score>  (1) 
-5.3353184938105462

>  <r_i_glide_ecoul>  (1) 
-7.3630659869837087

>  <r_i_glide_eff_state_penalty>  (1) 
0.70191645640278022

>  <r_i_glide_einternal>  (1) 
9.2439046908182121

>  <r_i_glide_emodel>  (1) 
-34.285273140682783

>  <r_i_glide_emodel_strain>  (1) 
4.2425851232418665

>  <r_i_glide_energy>  (1) 
-34.585835662742618

>  <r_i_glide_erotb>  (1) 
0.93101816362055201

>  <r_i_glide_esite>  (1) 
-0.0092753705857772737

>  <r_i_glide_evdw>  (1) 
-27.222769675758908

>  <r_i_glide_gscore>  (1) 
-6.0372349502133265

>  <r_i_glide_gscore_strain>  (1) 
0.060646280810466635

>  <r_i_glide_hbond>  (1) 
-0.75139369383824806

>  <r_i_glide_ligand_efficiency>  (1) 
-0.18397649978657055

>  <r_i_glide_ligand_efficiency_ln>  (1) 
-1.2216526430789254

>  <r_i_glide_ligand_efficiency_sa>  (1) 
-0.56523409582506956

>  <r_i_glide_lipo>  (1) 
-2.5263611516206055

>  <r_i_glide_metal>  (1) 
-0

>  <r_i_glide_rewards>  (1) 
-1.2762707967642113

>  <r_lp_Energy>  (1) 
41.088991

>  <s_epik_Chemistry_Notes>  (1) 
This compound has an ester and may undergo hydrolysis at high or low pH.

>  <s_epik_cmdline>  (1) 
J2VwaWtfcHl0aG9uJywgJy1waHQnLCAnMS4wJywgJy1waCcsICc3LjQnLCAnLXRuJywgJzgnLCAnLW1hJywgJzUwMCcsICctaW1hZScsICc8aW5maWxlLm1hZT4nLCAnLW9tYWUnLCAnPG91dGZpbGUubWFlPic=

>  <s_epik_input>  (1) 
Tz1bQ0hdT1tDSDJdW0NIMl1bQ0BAXShbQ0gyXTEpKFtPSF0pW0NAXTEoW0NIM10pW05IXVtDSDJdQyg9TylDMj1DKFtDSF0oW0NIM10pW0NIM10pW0NASF0oT1tDSDNdKVtDSDJdW0NAQEhdKFtDQEBIXShbQ0gzXSlbT0hdKVtDSDJdW0NIMl0y

>  <s_glide_docking_method>  (1) 
confgen

>  <s_i_glide_gridfile>  (1) 
gpcr_5ht2c_6bqh_protein_autoprepared_prepared

>  <s_lp_Force_Field>  (1) 
S-OPLS

>  <s_lp_Variant>  (1) 
DiffSBDD_9-4

>  <s_m_source_file>  (1) 
generated_GPCR_5HT2C_ligand_DiffSBDD_2026-06-23_prepared.sdf

>  <GenAI_Model>  (1) 
DiffSBDD

>  <Protein>  (1) 
GPCR_5HT2C

$$$$
DiffSBDD_35
     RDKit          3D

  0  0  0  0  0  0  0  0  0  0999 V3000
M  V30 BEGIN CTAB
M  V30 COUNTS 52 54 0 0 1
M  V30 BEGIN ATOM
M  V30 1 N 36.357058 32.296577 61.353164 0
M  V30 2 C 39.824774 26.738295 54.720188 0
M  V30 3 C 38.363570 32.701138 60.102811 0
M  V30 4 C 38.911977 31.526567 55.399710 0
M  V30 5 N 36.835885 30.989062 59.368159 0
M  V30 6 C 37.511313 32.960911 61.176693 0
M  V30 7 C 39.274249 27.979710 55.465823 0 CFG=2
M  V30 8 O 38.445133 26.092412 58.567812 0
M  V30 9 C 38.320495 29.610372 53.717488 0
M  V30 10 C 39.033131 25.447850 54.989085 0
M  V30 11 C 38.908708 25.180235 56.481409 0
M  V30 12 C 37.974943 31.689582 59.200778 0
M  V30 13 C 38.320490 26.390238 57.211275 0 CFG=2
M  V30 14 C 38.119507 31.079630 54.167754 0
M  V30 15 C 39.476475 29.915899 58.059991 0
M  V30 16 C 39.127686 27.675881 56.979955 0 CFG=2
M  V30 17 N 38.543552 28.805916 57.753977 0 CHG=1
M  V30 18 C 36.078193 31.389725 60.405804 0
M  V30 19 C 38.826370 31.326011 57.968955 0 CFG=1
M  V30 20 C 38.002334 28.536764 54.775259 0
M  V30 21 C 38.045476 31.538853 56.668136 0
M  V30 22 C 39.645104 33.478497 59.934914 0
M  V30 23 H 39.877021 26.925138 53.646710 0
M  V30 24 H 40.845165 26.562549 55.049257 0
M  V30 25 H 39.274003 32.543368 55.241667 0
M  V30 26 H 39.813891 30.928715 55.500577 0
M  V30 27 H 37.753308 33.719306 61.905584 0
M  V30 28 H 40.049721 28.738908 55.385918 0
M  V30 29 H 38.009728 25.269241 58.736127 0
M  V30 30 H 39.331865 29.477380 53.330839 0
M  V30 31 H 37.671583 29.415382 52.864506 0
M  V30 32 H 38.047615 25.489015 54.524542 0
M  V30 33 H 39.555808 24.593560 54.567766 0
M  V30 34 H 38.292827 24.294628 56.646891 0
M  V30 35 H 39.898937 24.946123 56.878361 0
M  V30 36 H 37.271385 26.528857 56.945070 0
M  V30 37 H 38.444459 31.733210 53.363858 0
M  V30 38 H 37.057989 31.294911 54.300897 0
M  V30 39 H 39.912122 29.749161 59.045681 0
M  V30 40 H 40.312248 29.861024 57.368093 0
M  V30 41 H 40.130023 27.495992 57.376510 0
M  V30 42 H 37.749304 29.175917 57.251415 0
M  V30 43 H 35.112114 30.937320 60.481595 0
M  V30 44 H 39.615665 32.056284 57.829445 0
M  V30 45 H 37.464634 27.718720 54.295538 0
M  V30 46 H 37.282092 28.937638 55.483155 0
M  V30 47 H 37.557735 32.513568 56.709232 0
M  V30 48 H 37.245122 30.809460 56.605345 0
M  V30 49 H 40.460724 32.805830 60.167822 0
M  V30 50 H 39.691915 34.313245 60.635308 0
M  V30 51 H 39.751484 33.887075 58.933451 0
M  V30 52 H 38.206109 28.430505 58.630482 0
M  V30 END ATOM
M  V30 BEGIN BOND
M  V30 1 1 6 1
M  V30 2 2 6 3
M  V30 3 1 7 2
M  V30 4 1 10 2
M  V30 5 1 11 10
M  V30 6 1 12 3
M  V30 7 2 12 5
M  V30 8 1 13 8
M  V30 9 1 13 11
M  V30 10 1 14 4
M  V30 11 1 14 9
M  V30 12 1 16 7
M  V30 13 1 16 13
M  V30 14 1 17 15
M  V30 15 1 17 16
M  V30 16 2 18 1
M  V30 17 1 18 5
M  V30 18 1 19 12
M  V30 19 1 19 15
M  V30 20 1 20 7
M  V30 21 1 20 9
M  V30 22 1 21 4
M  V30 23 1 21 19
M  V30 24 1 22 3
M  V30 25 1 23 2
M  V30 26 1 24 2
M  V30 27 1 25 4
M  V30 28 1 26 4
M  V30 29 1 27 6
M  V30 30 1 7 28 CFG=1
M  V30 31 1 29 8
M  V30 32 1 30 9
M  V30 33 1 31 9
M  V30 34 1 32 10
M  V30 35 1 33 10
M  V30 36 1 34 11
M  V30 37 1 35 11
M  V30 38 1 13 36 CFG=3
M  V30 39 1 37 14
M  V30 40 1 38 14
M  V30 41 1 39 15
M  V30 42 1 40 15
M  V30 43 1 16 41 CFG=1
M  V30 44 1 42 17
M  V30 45 1 43 18
M  V30 46 1 19 44 CFG=3
M  V30 47 1 45 20
M  V30 48 1 46 20
M  V30 49 1 47 21
M  V30 50 1 48 21
M  V30 51 1 49 22
M  V30 52 1 50 22
M  V30 53 1 51 22
M  V30 54 1 52 17
M  V30 END BOND
M  V30 END CTAB
M  END
>  <i_epik_Tot_Q>  (1) 
1

>  <i_epik_Tot_abs_Q>  (1) 
1

>  <i_i_glide_confnum>  (1) 
2

>  <i_i_glide_lignum>  (1) 
79

>  <i_i_glide_posenum>  (1) 
104

>  <i_i_glide_rotatable_bonds>  (1) 
2

>  <i_lp_mmshare_version>  (1) 
72125

>  <i_m_source_file_index>  (1) 
36

>  <i_f3d_flags>  (1) 
0

>  <num_sample>  (1) 
100

>  <b_lp_Chiralities_Consistent>  (1) 
1

>  <r_epik_Charging_Adjusted_Penalty>  (1) 
0.039208821755369223

>  <r_epik_Ionization_Penalty>  (1) 
0.019605249659357914

>  <r_epik_Ionization_Penalty_Charging>  (1) 
0.019604410877684601

>  <r_epik_Ionization_Penalty_Neutral>  (1) 
8.3878167331114202e-07

>  <r_epik_State_Penalty>  (1) 
0.019604410877684622

>  <r_glide_ring_energy>  (1) 
0

>  <r_i_docking_score>  (1) 
-5.3337227958510391

>  <r_i_glide_ecoul>  (1) 
-0.026194942056866566

>  <r_i_glide_eff_state_penalty>  (1) 
0.019604410877684622

>  <r_i_glide_einternal>  (1) 
0.0010827272548388223

>  <r_i_glide_emodel>  (1) 
-31.447390280036423

>  <r_i_glide_emodel_strain>  (1) 
0.0033291026593929018

>  <r_i_glide_energy>  (1) 
-25.474298215466888

>  <r_i_glide_erotb>  (1) 
0.1989582782383891

>  <r_i_glide_esite>  (1) 
-0.072020034293765675

>  <r_i_glide_evdw>  (1) 
-25.448103273410023

>  <r_i_glide_gscore>  (1) 
-5.3533272067287241

>  <r_i_glide_gscore_strain>  (1) 
0

>  <r_i_glide_hbond>  (1) 
-0.077956354440343129

>  <r_i_glide_ligand_efficiency>  (1) 
-0.24244194526595633

>  <r_i_glide_ligand_efficiency_ln>  (1) 
-1.3037564035720561

>  <r_i_glide_ligand_efficiency_sa>  (1) 
-0.67933186603581031

>  <r_i_glide_lipo>  (1) 
-2.1982916859677677

>  <r_i_glide_metal>  (1) 
-0

>  <r_i_glide_rewards>  (1) 
-1.9276830052862053

>  <r_lp_Energy>  (1) 
40.847864000000001

>  <r_lp_tautomer_probability>  (1) 
1

>  <s_epik_Chemistry_Notes>  (1) 
This compound contains an electron-poor aromatic ring that is susceptible to covalent hydrolysis at low pH, typically resulting in measured values for nitrogen ring protonation that are around two units higher than predicted values.

>  <s_epik_cmdline>  (1) 
J2VwaWtfcHl0aG9uJywgJy1waHQnLCAnMS4wJywgJy1waCcsICc3LjQnLCAnLXRuJywgJzgnLCAnLW1hJywgJzUwMCcsICctaW1hZScsICc8aW5maWxlLm1hZT4nLCAnLW9tYWUnLCAnPG91dGZpbGUubWFlPic=

>  <s_epik_input>  (1) 
W0NIM11jMVtjSF1uW2NIXW5jMVtDQEhdKFtDSDJdW0NIMl1bQ0gyXVtDSDJdW0NIMl0yKVtDSDJdW05IXVtDQEhdKFtDQEhdMjMpW0NASF0oW09IXSlbQ0gyXVtDSDJdW0NIMl0z

>  <s_glide_docking_method>  (1) 
confgen

>  <s_i_glide_gridfile>  (1) 
gpcr_5ht2c_6bqh_protein_autoprepared_prepared

>  <s_lp_Force_Field>  (1) 
S-OPLS

>  <s_lp_Variant>  (1) 
DiffSBDD_35-1

>  <s_m_source_file>  (1) 
generated_GPCR_5HT2C_ligand_DiffSBDD_2026-06-23_prepared.sdf

>  <GenAI_Model>  (1) 
DiffSBDD

>  <Protein>  (1) 
GPCR_5HT2C

$$$$
DiffSBDD_36
     RDKit          3D

  0  0  0  0  0  0  0  0  0  0999 V3000
M  V30 BEGIN CTAB
M  V30 COUNTS 49 49 0 0 1
M  V30 BEGIN ATOM
M  V30 1 C 39.997442 26.292028 54.811618 0
M  V30 2 C 37.601613 26.849518 57.679801 0
M  V30 3 C 38.819740 25.023555 56.633207 0
M  V30 4 C 38.005903 28.703279 56.068439 0
M  V30 5 C 40.445133 30.138762 61.191698 0
M  V30 6 C 38.624282 27.458273 56.718911 0 CFG=1
M  V30 7 C 37.923889 25.360921 57.824878 0
M  V30 8 C 40.152777 28.590970 51.015785 0
M  V30 9 C 39.980864 26.714285 53.530074 0
M  V30 10 C 38.765326 27.278415 52.790696 0
M  V30 11 O 41.245138 30.880276 61.753267 0
M  V30 12 C 40.127323 27.728308 58.774408 0
M  V30 13 C 41.303680 28.284318 59.530435 0
M  V30 14 C 39.872225 27.967168 57.470287 0
M  V30 15 C 38.802917 26.273894 55.740484 0 CFG=1
M  V30 16 C 40.274457 29.870127 50.165936 0
M  V30 17 S 38.845137 30.537739 60.616314 0 CHG=-1
M  V30 18 C 40.864660 28.681627 60.971451 0
M  V30 19 C 39.180929 29.811943 53.036223 0
M  V30 20 C 39.014406 28.633671 52.061247 0 CFG=1
M  V30 21 H 40.922354 25.924557 55.227947 0
M  V30 22 H 36.575425 26.937624 57.347982 0
M  V30 23 H 37.645128 27.425717 58.583159 0
M  V30 24 H 38.475368 24.137737 56.098411 0
M  V30 25 H 39.829488 24.817749 56.993605 0
M  V30 26 H 37.245273 28.467169 55.325207 0
M  V30 27 H 37.538676 29.344911 56.818024 0
M  V30 28 H 38.776567 29.303936 55.597071 0
M  V30 29 H 37.013496 24.760903 57.829799 0
M  V30 30 H 38.444942 25.177241 58.760569 0
M  V30 31 H 41.110771 28.424846 51.504308 0
M  V30 32 H 39.989386 27.742478 50.350788 0
M  V30 33 H 40.885079 26.657428 52.967759 0
M  V30 34 H 38.487783 26.537765 52.043505 0
M  V30 35 H 37.894750 27.385018 53.431182 0
M  V30 36 H 39.459816 27.114132 59.349760 0
M  V30 37 H 42.048166 27.494171 59.577084 0
M  V30 38 H 41.755339 29.121885 58.997052 0
M  V30 39 H 40.561864 28.572124 56.899708 0
M  V30 40 H 37.893222 26.183828 55.148248 0
M  V30 41 H 40.950507 29.737692 49.322532 0
M  V30 42 H 39.309093 30.177321 49.767821 0
M  V30 43 H 40.672075 30.701182 50.748415 0
M  V30 44 H 40.089713 28.010430 61.347097 0
M  V30 45 H 41.702473 28.498364 61.642346 0
M  V30 46 H 40.019884 29.671815 53.716761 0
M  V30 47 H 39.346358 30.759629 52.529068 0
M  V30 48 H 38.269887 29.952713 53.614079 0
M  V30 49 H 38.099929 28.834835 51.501364 0
M  V30 END ATOM
M  V30 BEGIN BOND
M  V30 1 1 6 2
M  V30 2 1 6 4 CFG=3
M  V30 3 1 7 2
M  V30 4 1 7 3
M  V30 5 2 9 1
M  V30 6 1 10 9
M  V30 7 2 11 5
M  V30 8 1 13 12
M  V30 9 1 14 6
M  V30 10 2 14 12
M  V30 11 1 15 1
M  V30 12 1 15 3
M  V30 13 1 15 6
M  V30 14 1 16 8
M  V30 15 1 17 5
M  V30 16 1 18 5
M  V30 17 1 18 13
M  V30 18 1 20 8
M  V30 19 1 20 10
M  V30 20 1 20 19
M  V30 21 1 21 1
M  V30 22 1 22 2
M  V30 23 1 23 2
M  V30 24 1 24 3
M  V30 25 1 25 3
M  V30 26 1 26 4
M  V30 27 1 27 4
M  V30 28 1 28 4
M  V30 29 1 29 7
M  V30 30 1 30 7
M  V30 31 1 31 8
M  V30 32 1 32 8
M  V30 33 1 33 9
M  V30 34 1 34 10
M  V30 35 1 35 10
M  V30 36 1 36 12
M  V30 37 1 37 13
M  V30 38 1 38 13
M  V30 39 1 39 14
M  V30 40 1 15 40 CFG=3
M  V30 41 1 41 16
M  V30 42 1 42 16
M  V30 43 1 43 16
M  V30 44 1 44 18
M  V30 45 1 45 18
M  V30 46 1 46 19
M  V30 47 1 47 19
M  V30 48 1 48 19
M  V30 49 1 20 49 CFG=3
M  V30 END BOND
M  V30 END CTAB
M  END
>  <i_epik_Tot_Q>  (1) 
-1

>  <i_epik_Tot_abs_Q>  (1) 
1

>  <i_i_glide_confnum>  (1) 
400

>  <i_i_glide_lignum>  (1) 
81

>  <i_i_glide_posenum>  (1) 
260

>  <i_i_glide_rotatable_bonds>  (1) 
8

>  <i_lp_mmshare_version>  (1) 
72125

>  <i_m_source_file_index>  (1) 
37

>  <i_f3d_flags>  (1) 
0

>  <num_sample>  (1) 
100

>  <b_lp_Chiralities_Consistent>  (1) 
1

>  <r_epik_Charging_Adjusted_Penalty>  (1) 
9.4165288777969193e-05

>  <r_epik_Ionization_Penalty>  (1) 
9.4165288777969193e-05

>  <r_epik_Ionization_Penalty_Charging>  (1) 
9.4165288777969193e-05

>  <r_epik_Ionization_Penalty_Neutral>  (1) 
0

>  <r_epik_State_Penalty>  (1) 
-0

>  <r_glide_ring_energy>  (1) 
0

>  <r_i_docking_score>  (1) 
-5.3313836246917754

>  <r_i_glide_ecoul>  (1) 
-3.3578825956810623

>  <r_i_glide_eff_state_penalty>  (1) 
-0

>  <r_i_glide_einternal>  (1) 
4.9453877710971792

>  <r_i_glide_emodel>  (1) 
-30.289891794468122

>  <r_i_glide_emodel_strain>  (1) 
1.5108410256775073

>  <r_i_glide_energy>  (1) 
-26.709204797077511

>  <r_i_glide_erotb>  (1) 
2.5456975872200465

>  <r_i_glide_esite>  (1) 
-0.023007989829630912

>  <r_i_glide_evdw>  (1) 
-23.351322201396449

>  <r_i_glide_gscore>  (1) 
-5.3313836246917754

>  <r_i_glide_gscore_strain>  (1) 
0

>  <r_i_glide_hbond>  (1) 
-0.29627459611975432

>  <r_i_glide_ligand_efficiency>  (1) 
-0.26656918123458878

>  <r_i_glide_ligand_efficiency_ln>  (1) 
-1.3342694804599093

>  <r_i_glide_ligand_efficiency_sa>  (1) 
-0.7235800815844482

>  <r_i_glide_lipo>  (1) 
-3.9602387682439608

>  <r_i_glide_metal>  (1) 
-0

>  <r_i_glide_rewards>  (1) 
-1.9263113582964935

>  <r_lp_Energy>  (1) 
16.069313999999999

>  <r_lp_tautomer_probability>  (1) 
1

>  <s_epik_cmdline>  (1) 
J2VwaWtfcHl0aG9uJywgJy1waHQnLCAnMS4wJywgJy1waCcsICc3LjQnLCAnLXRuJywgJzgnLCAnLW1hJywgJzUwMCcsICctaW1hZScsICc8aW5maWxlLm1hZT4nLCAnLW9tYWUnLCAnPG91dGZpbGUubWFlPic=

>  <s_epik_input>  (1) 
W0NIM11bQ0gyXVtDQEhdKFtDSDNdKVtDSDJdL1tDSF09W0NIXVxbQ0BIXTFbQ0gyXVtDSDJdW0NIMl1bQ0BAXTEoW0NIM10pXFtDSF09W0NIXVxbQ0gyXVtDSDJdQyg9TylbU0hd

>  <s_glide_docking_method>  (1) 
confgen

>  <s_i_glide_gridfile>  (1) 
gpcr_5ht2c_6bqh_protein_autoprepared_prepared

>  <s_lp_Force_Field>  (1) 
S-OPLS

>  <s_lp_Variant>  (1) 
DiffSBDD_36-2

>  <s_m_source_file>  (1) 
generated_GPCR_5HT2C_ligand_DiffSBDD_2026-06-23_prepared.sdf

>  <GenAI_Model>  (1) 
DiffSBDD

>  <Protein>  (1) 
GPCR_5HT2C

$$$$
DiffSBDD_73
     RDKit          3D

  0  0  0  0  0  0  0  0  0  0999 V3000
M  V30 BEGIN CTAB
M  V30 COUNTS 65 66 0 0 1
M  V30 BEGIN ATOM
M  V30 1 C 37.696726 33.164176 60.665615 0 CFG=1
M  V30 2 C 38.721886 29.558624 58.271889 0
M  V30 3 N 38.510589 29.288991 52.934324 0
M  V30 4 C 38.127585 36.533710 62.439503 0
M  V30 5 C 37.730343 35.541066 61.589571 0
M  V30 6 C 37.315305 33.344834 59.208805 0
M  V30 7 C 39.395787 28.377464 52.227301 0 CFG=2
M  V30 8 N 37.386772 30.290724 56.306123 0 CHG=1
M  V30 9 O 38.838796 28.413372 55.001062 0
M  V30 10 C 35.344798 32.013203 61.100300 0
M  V30 11 C 37.539974 30.433218 54.842797 0 CFG=2
M  V30 12 C 40.448773 35.521976 63.236157 0
M  V30 13 C 39.409078 36.613462 63.263832 0 CFG=1
M  V30 14 C 38.359696 29.275299 54.262865 0
M  V30 15 O 37.536514 32.122078 58.541193 0
M  V30 16 C 40.102933 29.967376 50.269669 0
M  V30 17 C 38.470660 34.308973 61.209820 0
M  V30 18 C 40.757922 35.221945 61.804116 0
M  V30 19 C 38.590997 30.573008 57.121818 0 CFG=1
M  V30 20 C 36.696902 32.503067 61.586356 0 CFG=1
M  V30 21 O 40.045127 37.824316 62.967754 0
M  V30 22 C 40.496905 29.208523 51.548689 0
M  V30 23 C 38.487728 32.016208 57.623527 0
M  V30 24 O 39.192327 32.937160 57.210563 0
M  V30 25 C 38.123152 31.808508 54.437299 0
M  V30 26 C 39.812963 34.179045 61.322342 0
M  V30 27 C 38.586098 27.514716 51.270900 0
M  V30 28 C 37.959511 31.770774 61.255999 0
M  V30 29 H 39.512356 29.842900 58.968249 0
M  V30 30 H 37.793184 29.460659 58.834779 0
M  V30 31 H 38.971734 28.571296 57.882195 0
M  V30 32 H 38.042276 29.999174 52.394171 0
M  V30 33 H 37.445062 37.356198 62.594884 0
M  V30 34 H 36.749118 35.658305 61.152873 0
M  V30 35 H 36.262442 33.616435 59.131013 0
M  V30 36 H 37.880510 34.171606 58.776591 0
M  V30 37 H 39.878163 27.685355 52.917924 0
M  V30 38 H 37.106453 29.339923 56.488198 0
M  V30 39 H 35.432161 31.488191 60.147512 0
M  V30 40 H 34.898929 31.330619 61.822868 0
M  V30 41 H 34.674476 32.864317 60.972052 0
M  V30 42 H 36.533032 30.352244 54.434388 0
M  V30 43 H 41.349913 35.856305 63.755902 0
M  V30 44 H 40.107133 34.631626 63.766859 0
M  V30 45 H 39.076174 36.701038 64.299900 0
M  V30 46 H 40.921465 30.602783 49.930073 0
M  V30 47 H 39.861580 29.289236 49.451386 0
M  V30 48 H 39.245366 30.617536 50.434208 0
M  V30 49 H 41.753714 34.795520 61.728362 0
M  V30 50 H 40.749610 36.098822 61.152622 0
M  V30 51 H 39.487470 30.487131 56.508443 0
M  V30 52 H 36.680174 32.946138 62.567611 0
M  V30 53 H 40.686065 38.002707 63.651099 0
M  V30 54 H 40.845122 29.950529 52.263899 0
M  V30 55 H 41.346314 28.557009 51.366511 0
M  V30 56 H 38.046104 31.989033 53.367831 0
M  V30 57 H 37.594374 32.626601 54.924073 0
M  V30 58 H 39.180232 31.897842 54.695867 0
M  V30 59 H 40.269039 33.248199 61.017002 0
M  V30 60 H 39.219044 26.826467 50.709186 0
M  V30 61 H 37.851968 26.937728 51.826151 0
M  V30 62 H 38.045259 28.138826 50.567761 0
M  V30 63 H 37.846524 30.877865 60.647039 0
M  V30 64 H 38.681453 31.670792 62.063350 0
M  V30 65 H 36.626321 30.915086 56.603335 0
M  V30 END ATOM
M  V30 BEGIN BOND
M  V30 1 2 5 4
M  V30 2 1 1 6 CFG=3
M  V30 3 1 7 3
M  V30 4 1 11 8
M  V30 5 1 13 4
M  V30 6 1 13 12
M  V30 7 1 14 3
M  V30 8 2 14 9
M  V30 9 1 14 11
M  V30 10 1 15 6
M  V30 11 1 17 1
M  V30 12 1 17 5
M  V30 13 1 18 12
M  V30 14 1 19 2
M  V30 15 1 19 8
M  V30 16 1 20 1
M  V30 17 1 20 10
M  V30 18 1 21 13
M  V30 19 1 22 7
M  V30 20 1 22 16
M  V30 21 1 23 15
M  V30 22 1 23 19
M  V30 23 2 24 23
M  V30 24 1 25 11
M  V30 25 2 26 17
M  V30 26 1 26 18
M  V30 27 1 27 7
M  V30 28 1 28 1
M  V30 29 1 28 20
M  V30 30 1 29 2
M  V30 31 1 30 2
M  V30 32 1 31 2
M  V30 33 1 32 3
M  V30 34 1 33 4
M  V30 35 1 34 5
M  V30 36 1 35 6
M  V30 37 1 36 6
M  V30 38 1 7 37 CFG=1
M  V30 39 1 38 8
M  V30 40 1 39 10
M  V30 41 1 40 10
M  V30 42 1 41 10
M  V30 43 1 11 42 CFG=3
M  V30 44 1 43 12
M  V30 45 1 44 12
M  V30 46 1 13 45 CFG=1
M  V30 47 1 46 16
M  V30 48 1 47 16
M  V30 49 1 48 16
M  V30 50 1 49 18
M  V30 51 1 50 18
M  V30 52 1 19 51 CFG=3
M  V30 53 1 20 52 CFG=1
M  V30 54 1 53 21
M  V30 55 1 54 22
M  V30 56 1 55 22
M  V30 57 1 56 25
M  V30 58 1 57 25
M  V30 59 1 58 25
M  V30 60 1 59 26
M  V30 61 1 60 27
M  V30 62 1 61 27
M  V30 63 1 62 27
M  V30 64 1 63 28
M  V30 65 1 64 28
M  V30 66 1 65 8
M  V30 END BOND
M  V30 END CTAB
M  END
>  <i_epik_Tot_Q>  (1) 
1

>  <i_epik_Tot_abs_Q>  (1) 
1

>  <i_i_glide_confnum>  (1) 
2552

>  <i_i_glide_lignum>  (1) 
161

>  <i_i_glide_posenum>  (1) 
360

>  <i_i_glide_rotatable_bonds>  (1) 
12

>  <i_lp_mmshare_version>  (1) 
72125

>  <i_m_source_file_index>  (1) 
74

>  <i_f3d_flags>  (1) 
0

>  <num_sample>  (1) 
100

>  <b_lp_Chiralities_Consistent>  (1) 
1

>  <r_epik_Charging_Adjusted_Penalty>  (1) 
2.336176939713237

>  <r_epik_Ionization_Penalty>  (1) 
1.168091143672223

>  <r_epik_Ionization_Penalty_Charging>  (1) 
1.1680884698566185

>  <r_epik_Ionization_Penalty_Neutral>  (1) 
2.673815604532901e-06

>  <r_epik_State_Penalty>  (1) 
1.1680884698566185

>  <r_glide_ring_energy>  (1) 
0

>  <r_i_docking_score>  (1) 
-5.3260376891503922

>  <r_i_glide_ecoul>  (1) 
-7.681079368792755

>  <r_i_glide_eff_state_penalty>  (1) 
1.1680884698566185

>  <r_i_glide_einternal>  (1) 
5.6349369918718804

>  <r_i_glide_emodel>  (1) 
-61.284645531611801

>  <r_i_glide_emodel_strain>  (1) 
0.85273663156301893

>  <r_i_glide_energy>  (1) 
-42.384124369092717

>  <r_i_glide_erotb>  (1) 
1.2613414017289797

>  <r_i_glide_esite>  (1) 
-0.17414876946427568

>  <r_i_glide_evdw>  (1) 
-34.703045000299966

>  <r_i_glide_gscore>  (1) 
-6.4941261590070107

>  <r_i_glide_gscore_strain>  (1) 
0

>  <r_i_glide_hbond>  (1) 
-0.52000000000000002

>  <r_i_glide_ligand_efficiency>  (1) 
-0.19021563175537115

>  <r_i_glide_ligand_efficiency_ln>  (1) 
-1.2294058779175674

>  <r_i_glide_ligand_efficiency_sa>  (1) 
-0.57760668966672224

>  <r_i_glide_lipo>  (1) 
-2.7367835700986545

>  <r_i_glide_metal>  (1) 
-0

>  <r_i_glide_rewards>  (1) 
-1.4372210658391484

>  <r_lp_Energy>  (1) 
23.653385

>  <s_epik_Chemistry_Notes>  (1) 
This compound has an ester and may undergo hydrolysis at high or low pH.

>  <s_epik_cmdline>  (1) 
J2VwaWtfcHl0aG9uJywgJy1waHQnLCAnMS4wJywgJy1waCcsICc3LjQnLCAnLXRuJywgJzgnLCAnLW1hJywgJzUwMCcsICctaW1hZScsICc8aW5maWxlLm1hZT4nLCAnLW9tYWUnLCAnPG91dGZpbGUubWFlPic=

>  <s_epik_input>  (1) 
W09IXVtDQEhdMVtDSF09W0NIXUMoPVtDSF1bQ0gyXVtDSDJdMSlbQ0BAXTIoW0NAQEhdKFtDSDNdKVtDSDJdMilbQ0gyXU9DKD1PKVtDQEBIXShbQ0gzXSlbTkhdW0NASF0oW0NIM10pQyg9TylbTkhdW0NAQEhdKFtDSDNdKVtDSDJdW0NIM10=

>  <s_glide_docking_method>  (1) 
confgen

>  <s_i_glide_gridfile>  (1) 
gpcr_5ht2c_6bqh_protein_autoprepared_prepared

>  <s_lp_Force_Field>  (1) 
S-OPLS

>  <s_lp_Variant>  (1) 
DiffSBDD_73-4

>  <s_m_source_file>  (1) 
generated_GPCR_5HT2C_ligand_DiffSBDD_2026-06-23_prepared.sdf

>  <GenAI_Model>  (1) 
DiffSBDD

>  <Protein>  (1) 
GPCR_5HT2C

$$$$
DiffSBDD_54
     RDKit          3D

  0  0  0  0  0  0  0  0  0  0999 V3000
M  V30 BEGIN CTAB
M  V30 COUNTS 42 43 0 0 1
M  V30 BEGIN ATOM
M  V30 1 C 39.719806 28.963892 55.047312 0
M  V30 2 C 38.100925 31.084699 58.627573 0
M  V30 3 C 38.512846 32.910717 56.981300 0
M  V30 4 C 37.858651 24.139587 57.325454 0
M  V30 5 C 38.172542 26.564144 56.597301 0
M  V30 6 S 37.645138 30.427011 55.993106 0 CHG=1
M  V30 7 C 39.096535 31.161391 54.069650 0
M  V30 8 N 38.872374 30.654062 59.603249 0
M  V30 9 C 39.827265 28.068051 57.803881 0
M  V30 10 C 37.925630 30.594537 60.611084 0
M  V30 11 N 36.670231 30.937757 60.257932 0
M  V30 12 N 36.845138 31.256559 58.967761 0
M  V30 13 N 38.462327 28.898737 55.820952 0 CFG=2 CHG=1
M  V30 14 C 38.487376 28.016583 57.027973 0 CFG=1
M  V30 15 C 39.522971 29.735176 53.739940 0
M  V30 16 C 37.853454 25.608255 57.758494 0
M  V30 17 O 37.815550 31.152890 54.689521 0
M  V30 18 C 38.589492 31.393206 57.233291 0 CFG=2
M  V30 19 H 40.045134 27.944657 54.839276 0
M  V30 20 H 40.508212 29.437661 55.629581 0
M  V30 21 H 39.063348 33.447615 57.753626 0
M  V30 22 H 37.482844 33.269841 57.003720 0
M  V30 23 H 38.935199 33.202227 56.021526 0
M  V30 24 H 37.645134 23.481692 58.167757 0
M  V30 25 H 38.835289 23.853522 56.934201 0
M  V30 26 H 37.112898 23.947623 56.553478 0
M  V30 27 H 39.014598 26.165005 56.029949 0
M  V30 28 H 37.322622 26.549740 55.912975 0
M  V30 29 H 39.849410 31.657693 54.682525 0
M  V30 30 H 39.022627 31.737755 53.147968 0
M  V30 31 H 39.727731 27.626775 58.795629 0
M  V30 32 H 40.193563 29.079443 57.956684 0
M  V30 33 H 40.616675 27.519196 57.288151 0
M  V30 34 H 38.165127 30.285544 61.618421 0
M  V30 35 H 36.081638 31.588369 58.364704 0
M  V30 36 H 37.684956 28.338559 57.694389 0
M  V30 37 H 40.445077 29.762265 53.159351 0
M  V30 38 H 38.776403 29.249116 53.109737 0
M  V30 39 H 38.572685 25.723271 58.568111 0
M  V30 40 H 36.875932 25.858606 58.167751 0
M  V30 41 H 39.636820 31.107754 57.152222 0
M  V30 42 H 37.864978 28.368752 55.202921 0
M  V30 END ATOM
M  V30 BEGIN BOND
M  V30 1 2 8 2
M  V30 2 1 10 8
M  V30 3 2 11 10
M  V30 4 1 12 2
M  V30 5 1 12 11
M  V30 6 1 13 1
M  V30 7 1 13 6
M  V30 8 1 14 5
M  V30 9 1 14 9
M  V30 10 1 14 13
M  V30 11 1 15 1
M  V30 12 1 15 7
M  V30 13 1 16 4
M  V30 14 1 16 5
M  V30 15 1 6 17 CFG=3
M  V30 16 1 17 7
M  V30 17 1 18 2
M  V30 18 1 18 3
M  V30 19 1 18 6
M  V30 20 1 19 1
M  V30 21 1 20 1
M  V30 22 1 21 3
M  V30 23 1 22 3
M  V30 24 1 23 3
M  V30 25 1 24 4
M  V30 26 1 25 4
M  V30 27 1 26 4
M  V30 28 1 27 5
M  V30 29 1 28 5
M  V30 30 1 29 7
M  V30 31 1 30 7
M  V30 32 1 31 9
M  V30 33 1 32 9
M  V30 34 1 33 9
M  V30 35 1 34 10
M  V30 36 1 35 12
M  V30 37 1 14 36 CFG=1
M  V30 38 1 37 15
M  V30 39 1 38 15
M  V30 40 1 39 16
M  V30 41 1 40 16
M  V30 42 1 18 41 CFG=1
M  V30 43 1 13 42 CFG=3
M  V30 END BOND
M  V30 END CTAB
M  END
>  <i_epik_Tot_Q>  (1) 
2

>  <i_epik_Tot_abs_Q>  (1) 
2

>  <i_i_glide_confnum>  (1) 
30

>  <i_i_glide_lignum>  (1) 
118

>  <i_i_glide_posenum>  (1) 
251

>  <i_i_glide_rotatable_bonds>  (1) 
5

>  <i_lp_mmshare_version>  (1) 
72125

>  <i_m_source_file_index>  (1) 
55

>  <i_f3d_flags>  (1) 
0

>  <num_sample>  (1) 
100

>  <b_lp_Chiralities_Consistent>  (1) 
1

>  <r_epik_Charging_Adjusted_Penalty>  (1) 
0.22285261290592212

>  <r_epik_Ionization_Penalty>  (1) 
0.11376846567106323

>  <r_epik_Ionization_Penalty_Charging>  (1) 
0.11142630645296109

>  <r_epik_Ionization_Penalty_Neutral>  (1) 
0.0023421592181021404

>  <r_epik_State_Penalty>  (1) 
0.11142630645296105

>  <r_glide_ring_energy>  (1) 
0

>  <r_i_docking_score>  (1) 
-5.3252390864390504

>  <r_i_glide_ecoul>  (1) 
-8.0325247224311926

>  <r_i_glide_eff_state_penalty>  (1) 
0.11142630645296105

>  <r_i_glide_einternal>  (1) 
2.6452939555359354

>  <r_i_glide_emodel>  (1) 
-46.779229581984865

>  <r_i_glide_emodel_strain>  (1) 
0.26916625787986703

>  <r_i_glide_energy>  (1) 
-30.517738450153011

>  <r_i_glide_erotb>  (1) 
0.96597774364564237

>  <r_i_glide_esite>  (1) 
-0.2580608674380977

>  <r_i_glide_evdw>  (1) 
-22.48521372772182

>  <r_i_glide_gscore>  (1) 
-5.4366653928920119

>  <r_i_glide_gscore_strain>  (1) 
0

>  <r_i_glide_hbond>  (1) 
-0.16

>  <r_i_glide_ligand_efficiency>  (1) 
-0.2958466159132806

>  <r_i_glide_ligand_efficiency_ln>  (1) 
-1.3688252480320373

>  <r_i_glide_ligand_efficiency_sa>  (1) 
-0.77533747266055497

>  <r_i_glide_lipo>  (1) 
-1.7585278913592208

>  <r_i_glide_metal>  (1) 
-0

>  <r_i_glide_rewards>  (1) 
-1.8969149829895668

>  <r_lp_Energy>  (1) 
19.301023999999998

>  <r_lp_tautomer_probability>  (1) 
0.94828448534560383

>  <s_epik_cmdline>  (1) 
J2VwaWtfcHl0aG9uJywgJy1waHQnLCAnMS4wJywgJy1waCcsICc3LjQnLCAnLXRuJywgJzgnLCAnLW1hJywgJzUwMCcsICctaW1hZScsICc8aW5maWxlLm1hZT4nLCAnLW9tYWUnLCAnPG91dGZpbGUubWFlPic=

>  <s_epik_input>  (1) 
W0NIM11bQ0gyXVtDSDJdW0NASF0oW0NIM10pTihbQ0gyXVtDSDJdW0NIMl1PMSlbUytdMVtDQEBIXShbQ0gzXSljMm5bY0hdbltuSF0y

>  <s_glide_docking_method>  (1) 
confgen

>  <s_i_glide_gridfile>  (1) 
gpcr_5ht2c_6bqh_protein_autoprepared_prepared

>  <s_lp_Force_Field>  (1) 
S-OPLS

>  <s_lp_Variant>  (1) 
DiffSBDD_54-4

>  <s_m_source_file>  (1) 
generated_GPCR_5HT2C_ligand_DiffSBDD_2026-06-23_prepared.sdf

>  <GenAI_Model>  (1) 
DiffSBDD

>  <Protein>  (1) 
GPCR_5HT2C

$$$$
DiffSBDD_78
     RDKit          3D

  0  0  0  0  0  0  0  0  0  0999 V3000
M  V30 BEGIN CTAB
M  V30 COUNTS 105 110 0 0 1
M  V30 BEGIN ATOM
M  V30 1 O 38.620542 26.578870 57.237124 0
M  V30 2 C 39.645077 37.247805 65.023867 0
M  V30 3 C 41.708200 31.288371 62.375232 0 CFG=1
M  V30 4 C 37.048840 28.508816 53.125660 0
M  V30 5 O 39.980698 29.064615 49.906048 0
M  V30 6 C 40.445593 34.739319 64.511000 0 CFG=2
M  V30 7 C 39.110388 26.570746 55.906921 0
M  V30 8 O 39.245162 28.012199 53.955877 0
M  V30 9 C 39.731174 35.851709 65.219452 0 CFG=2
M  V30 10 O 38.429372 33.654759 56.695696 0
M  V30 11 C 43.875579 31.836828 67.232881 0
M  V30 12 N 41.083080 32.293663 63.205403 0
M  V30 13 N 41.182837 35.798438 65.179068 0 CFG=1 CHG=1
M  V30 14 C 42.963899 32.949756 69.137596 0
M  V30 15 C 39.892007 38.097485 66.266340 0
M  V30 16 C 41.335853 29.826014 62.459012 0 CFG=1
M  V30 17 N 40.944488 33.430094 62.374771 0
M  V30 18 C 38.699941 25.332540 57.900895 0
M  V30 19 C 40.788557 34.742359 63.017264 0 CFG=1
M  V30 20 C 42.237949 31.713737 68.699846 0
M  V30 21 C 40.573884 35.730407 60.709157 0
M  V30 22 C 38.274610 27.610228 53.005887 0 CFG=2
M  V30 23 C 39.306790 32.539722 60.695036 0
M  V30 24 C 42.264526 29.867069 66.967132 0
M  V30 25 C 39.714737 28.939269 51.286239 0
M  V30 26 C 38.938354 27.991042 55.347466 0 CFG=2
M  V30 27 C 39.396021 31.062738 61.057263 0
M  V30 28 C 37.546531 24.404735 57.505304 0
M  V30 29 O 39.435065 37.737214 63.926751 0
M  V30 30 C 39.808422 35.021142 61.823144 0
M  V30 31 C 42.740560 31.127644 67.669046 0
M  V30 32 C 38.494875 35.798800 61.969271 0
M  V30 33 C 39.681133 30.465049 55.549761 0
M  V30 34 C 41.584592 35.996886 66.583284 0
M  V30 35 C 41.667259 30.167294 65.586039 0
M  V30 36 C 41.174788 28.918079 64.840231 0
M  V30 37 O 44.042151 32.936811 68.088364 0
M  V30 38 N 38.701775 32.068934 58.393290 0
M  V30 39 S 38.045363 31.111839 55.976320 0
M  V30 40 C 38.984353 32.960953 59.446526 0
M  V30 41 C 38.914783 27.658371 51.603139 0
M  V30 42 C 38.434305 32.493567 57.094781 0
M  V30 43 C 41.102382 37.440213 67.052999 0
M  V30 44 C 40.446446 29.245507 63.523859 0
M  V30 45 O 44.592730 31.555182 66.274175 0
M  V30 46 C 39.591333 33.496556 61.865347 0 CFG=2
M  V30 47 C 40.844919 30.650147 61.280713 0 CFG=1
M  V30 48 C 39.881522 29.009110 56.026265 0
M  V30 49 H 42.761649 31.451614 62.167819 0
M  V30 50 H 36.442911 28.508187 52.222283 0
M  V30 51 H 37.326446 29.532749 53.364675 0
M  V30 52 H 36.445119 28.137212 53.943196 0
M  V30 53 H 39.165704 29.240401 49.453224 0
M  V30 54 H 40.588665 33.818121 65.070847 0
M  V30 55 H 38.542145 25.856144 55.310856 0
M  V30 56 H 40.155308 26.257190 55.877379 0
M  V30 57 H 39.347006 35.682813 66.219428 0
M  V30 58 H 41.680946 32.501316 64.001378 0
M  V30 59 H 43.373007 32.851878 70.142473 0
M  V30 60 H 38.985682 38.072623 66.873834 0
M  V30 61 H 40.045666 39.140142 65.990182 0
M  V30 62 H 42.111988 29.111551 62.193716 0
M  V30 63 H 39.667936 24.853655 57.750145 0
M  V30 64 H 38.617713 25.541824 58.967459 0
M  V30 65 H 41.712485 35.298149 62.849396 0
M  V30 66 H 41.362756 31.367099 69.226269 0
M  V30 67 H 40.048573 35.697238 59.767879 0
M  V30 68 H 41.576884 35.336986 60.567483 0
M  V30 69 H 40.745912 36.773534 60.971702 0
M  V30 70 H 37.966450 26.583120 53.201415 0
M  V30 71 H 41.514775 29.377061 67.590006 0
M  V30 72 H 43.098319 29.169894 66.878268 0
M  V30 73 H 40.683105 28.913880 51.776893 0
M  V30 74 H 39.201363 29.833778 51.632333 0
M  V30 75 H 37.912579 28.298309 55.539810 0
M  V30 76 H 38.814322 30.908318 61.964765 0
M  V30 77 H 38.956795 30.409739 60.305797 0
M  V30 78 H 37.579524 23.486198 58.093362 0
M  V30 79 H 37.583784 24.122487 56.454433 0
M  V30 80 H 36.587738 24.892852 57.688532 0
M  V30 81 H 42.331643 33.834910 69.066497 0
M  V30 82 H 37.741316 35.407056 61.286451 0
M  V30 83 H 38.598792 36.856385 61.725480 0
M  V30 84 H 38.072556 35.738144 62.967411 0
M  V30 85 H 39.784605 30.516060 54.463566 0
M  V30 86 H 40.444429 31.130002 55.939799 0
M  V30 87 H 41.218204 35.196506 67.230169 0
M  V30 88 H 42.672420 35.939143 66.567329 0
M  V30 89 H 40.837231 30.864886 65.698245 0
M  V30 90 H 42.418027 30.668948 64.977616 0
M  V30 91 H 42.012278 28.244641 64.654140 0
M  V30 92 H 40.484239 28.372514 65.484850 0
M  V30 93 H 38.680200 31.078207 58.576711 0
M  V30 94 H 38.909116 33.998498 59.170541 0
M  V30 95 H 39.572294 26.798677 51.472311 0
M  V30 96 H 38.112754 27.525107 50.882515 0
M  V30 97 H 41.944094 38.122247 66.967950 0
M  V30 98 H 40.872695 37.419635 68.120079 0
M  V30 99 H 39.621837 29.919845 63.730862 0
M  V30 100 H 40.043931 28.330686 63.086615 0
M  V30 101 H 38.872434 33.256928 62.656011 0
M  V30 102 H 41.325275 30.466793 60.326578 0
M  V30 103 H 39.759457 28.966640 57.107943 0
M  V30 104 H 40.911159 28.714762 55.832163 0
M  V30 105 H 41.485630 36.560303 64.577372 0
M  V30 END ATOM
M  V30 BEGIN BOND
M  V30 1 1 7 1
M  V30 2 1 9 2
M  V30 3 1 9 6
M  V30 4 1 12 3
M  V30 5 1 13 6
M  V30 6 1 13 9
M  V30 7 1 15 2
M  V30 8 1 16 3
M  V30 9 1 17 12
M  V30 10 1 18 1
M  V30 11 1 19 6
M  V30 12 1 19 17
M  V30 13 1 20 14
M  V30 14 1 22 4
M  V30 15 1 22 8
M  V30 16 1 25 5
M  V30 17 1 26 7
M  V30 18 1 26 8
M  V30 19 1 27 23
M  V30 20 1 28 18
M  V30 21 2 29 2
M  V30 22 1 30 19
M  V30 23 1 30 21
M  V30 24 1 31 11
M  V30 25 2 31 20
M  V30 26 1 31 24
M  V30 27 1 32 30
M  V30 28 1 34 13
M  V30 29 1 35 24
M  V30 30 1 36 35
M  V30 31 1 37 11
M  V30 32 1 37 14
M  V30 33 1 39 33
M  V30 34 2 40 23
M  V30 35 1 40 38
M  V30 36 1 41 22
M  V30 37 1 41 25
M  V30 38 2 42 10
M  V30 39 1 42 38
M  V30 40 1 42 39
M  V30 41 1 43 15
M  V30 42 1 43 34
M  V30 43 1 44 16
M  V30 44 1 44 36
M  V30 45 2 45 11
M  V30 46 1 46 17
M  V30 47 1 46 23
M  V30 48 1 46 30
M  V30 49 1 47 3
M  V30 50 1 47 16
M  V30 51 1 47 27
M  V30 52 1 48 26
M  V30 53 1 48 33
M  V30 54 1 3 49 CFG=3
M  V30 55 1 50 4
M  V30 56 1 51 4
M  V30 57 1 52 4
M  V30 58 1 53 5
M  V30 59 1 6 54 CFG=1
M  V30 60 1 55 7
M  V30 61 1 56 7
M  V30 62 1 9 57 CFG=1
M  V30 63 1 58 12
M  V30 64 1 59 14
M  V30 65 1 60 15
M  V30 66 1 61 15
M  V30 67 1 16 62 CFG=3
M  V30 68 1 63 18
M  V30 69 1 64 18
M  V30 70 1 19 65 CFG=1
M  V30 71 1 66 20
M  V30 72 1 67 21
M  V30 73 1 68 21
M  V30 74 1 69 21
M  V30 75 1 22 70 CFG=1
M  V30 76 1 71 24
M  V30 77 1 72 24
M  V30 78 1 73 25
M  V30 79 1 74 25
M  V30 80 1 26 75 CFG=3
M  V30 81 1 76 27
M  V30 82 1 77 27
M  V30 83 1 78 28
M  V30 84 1 79 28
M  V30 85 1 80 28
M  V30 86 1 81 14
M  V30 87 1 82 32
M  V30 88 1 83 32
M  V30 89 1 84 32
M  V30 90 1 85 33
M  V30 91 1 86 33
M  V30 92 1 87 34
M  V30 93 1 88 34
M  V30 94 1 89 35
M  V30 95 1 90 35
M  V30 96 1 91 36
M  V30 97 1 92 36
M  V30 98 1 93 38
M  V30 99 1 94 40
M  V30 100 1 95 41
M  V30 101 1 96 41
M  V30 102 1 97 43
M  V30 103 1 98 43
M  V30 104 1 99 44
M  V30 105 1 100 44
M  V30 106 1 46 101 CFG=1
M  V30 107 1 47 102 CFG=3
M  V30 108 1 103 48
M  V30 109 1 104 48
M  V30 110 1 13 105 CFG=3
M  V30 END BOND
M  V30 END CTAB
M  END
>  <i_epik_Tot_Q>  (1) 
1

>  <i_epik_Tot_abs_Q>  (1) 
1

>  <i_i_glide_confnum>  (1) 
3825

>  <i_i_glide_lignum>  (1) 
180

>  <i_i_glide_posenum>  (1) 
188

>  <i_i_glide_rotatable_bonds>  (1) 
20

>  <i_lp_mmshare_version>  (1) 
72125

>  <i_m_source_file_index>  (1) 
79

>  <i_f3d_flags>  (1) 
0

>  <num_sample>  (1) 
100

>  <b_lp_Chiralities_Consistent>  (1) 
1

>  <r_epik_Charging_Adjusted_Penalty>  (1) 
0.27991857207723647

>  <r_epik_Ionization_Penalty>  (1) 
0.14008487576319317

>  <r_epik_Ionization_Penalty_Charging>  (1) 
0.13995928603861824

>  <r_epik_Ionization_Penalty_Neutral>  (1) 
0.0001255897245749389

>  <r_epik_State_Penalty>  (1) 
0.13995928603861821

>  <r_glide_ring_energy>  (1) 
0

>  <r_i_docking_score>  (1) 
-5.3241944257098766

>  <r_i_glide_ecoul>  (1) 
-4.9425945669781504

>  <r_i_glide_eff_state_penalty>  (1) 
0.13995928603861821

>  <r_i_glide_einternal>  (1) 
20.424994439203651

>  <r_i_glide_emodel>  (1) 
-12.775046882012344

>  <r_i_glide_emodel_strain>  (1) 
10.084826438416172

>  <r_i_glide_energy>  (1) 
-31.912504783423579

>  <r_i_glide_erotb>  (1) 
0.59343049219720367

>  <r_i_glide_esite>  (1) 
-0.19224405040947132

>  <r_i_glide_evdw>  (1) 
-26.969910216445427

>  <r_i_glide_gscore>  (1) 
-5.4641537117484944

>  <r_i_glide_gscore_strain>  (1) 
1.5212066096040431

>  <r_i_glide_hbond>  (1) 
-0.31522945417336784

>  <r_i_glide_ligand_efficiency>  (1) 
-0.11092071720228909

>  <r_i_glide_ligand_efficiency_ln>  (1) 
-1.0929941946118864

>  <r_i_glide_ligand_efficiency_sa>  (1) 
-0.40311263879997938

>  <r_i_glide_lipo>  (1) 
-4.3006485060686792

>  <r_i_glide_metal>  (1) 
-0

>  <r_i_glide_rewards>  (1) 
-0.6807841070292292

>  <r_lp_Energy>  (1) 
62.663834999999999

>  <r_lp_tautomer_probability>  (1) 
0.99979120136373534

>  <s_epik_Chemistry_Notes>  (1) 
This compound has an ester and may undergo hydrolysis at high or low pH.

>  <s_epik_cmdline>  (1) 
J2VwaWtfcHl0aG9uJywgJy1waHQnLCAnMS4wJywgJy1waCcsICc3LjQnLCAnLXRuJywgJzgnLCAnLW1hJywgJzUwMCcsICctaW1hZScsICc8aW5maWxlLm1hZT4nLCAnLW9tYWUnLCAnPG91dGZpbGUubWFlPic=

>  <s_epik_input>  (1) 
W09IXVtDSDJdW0NIMl1bQ0BIXShbQ0gzXSlPW0NAQEhdKFtDSDJdT1tDSDJdW0NIM10pW0NIMl1bQ0gyXVNDKD1PKVtOSF0vW0NIXT1DKFtDQEhdMU4oW05IXTIpW0NAQEhdKEMxKFtDSDNdKVtDSDNdKVtDQEhdM04oW0NASF0zNClbQ0gyXVtDSDJdW0NIMl1DND1PKVxbQ0gyXVtDQEBIXShbQ0BASF0yNSlbQ0BASF01W0NIMl1bQ0gyXVtDSDJdW0NIMl1bQ0BASF0oQzY9TylbQ0hdPVtDSF1PNg==

>  <s_glide_docking_method>  (1) 
confgen

>  <s_i_glide_gridfile>  (1) 
gpcr_5ht2c_6bqh_protein_autoprepared_prepared

>  <s_lp_Force_Field>  (1) 
S-OPLS

>  <s_lp_Variant>  (1) 
DiffSBDD_78-2

>  <s_m_source_file>  (1) 
generated_GPCR_5HT2C_ligand_DiffSBDD_2026-06-23_prepared.sdf

>  <GenAI_Model>  (1) 
DiffSBDD

>  <Protein>  (1) 
GPCR_5HT2C

$$$$
DiffSBDD_22
     RDKit          3D

  0  0  0  0  0  0  0  0  0  0999 V3000
M  V30 BEGIN CTAB
M  V30 COUNTS 47 50 0 0 1
M  V30 BEGIN ATOM
M  V30 1 C 39.793487 30.700616 52.429832 0
M  V30 2 C 40.445065 29.900179 62.760585 0
M  V30 3 C 38.894553 27.590707 54.255834 0
M  V30 4 F 39.673365 30.955425 63.067469 0
M  V30 5 N 38.641412 28.825954 53.465353 0 CFG=2 CHG=1
M  V30 6 C 38.593264 28.595882 51.995180 0 CFG=1
M  V30 7 C 39.342964 29.736761 51.364082 0 CFG=2
M  V30 8 O 40.052412 28.264610 56.291233 0
M  V30 9 O 37.275480 26.151232 56.938722 0
M  V30 10 N 40.528226 28.544444 58.584173 0
M  V30 11 O 38.908990 24.137756 57.076223 0
M  V30 12 C 39.581438 26.404672 57.621503 0 CFG=1
M  V30 13 C 38.801116 27.781552 55.787602 0 CFG=2
M  V30 14 C 39.481700 29.807074 60.408569 0
M  V30 15 N 41.491303 29.679016 63.430895 0
M  V30 16 C 39.498637 30.006638 53.763012 0
M  V30 17 C 39.248833 28.950020 59.155525 0
M  V30 18 C 39.894143 28.334403 51.257072 0
M  V30 19 C 39.535851 25.310229 56.587434 0 CFG=2
M  V30 20 C 40.454232 27.628249 57.475363 0 CFG=1
M  V30 21 C 40.030385 29.006885 61.607566 0
M  V30 22 C 38.582965 26.472927 56.513191 0 CFG=2
M  V30 23 H 39.247212 31.639562 52.353320 0
M  V30 24 H 40.845098 30.938692 52.303651 0
M  V30 25 H 39.854944 27.147309 53.992037 0
M  V30 26 H 38.138221 26.864426 53.952753 0
M  V30 27 H 37.645093 28.257119 51.584181 0
M  V30 28 H 38.988056 30.171284 50.432992 0
M  V30 29 H 37.299214 25.221811 57.134307 0
M  V30 30 H 41.121135 28.173369 59.313747 0
M  V30 31 H 39.532837 23.662387 57.606437 0
M  V30 32 H 39.270349 26.132139 58.630285 0
M  V30 33 H 38.012656 28.478480 56.069747 0
M  V30 34 H 38.532761 30.257868 60.700387 0
M  V30 35 H 40.139116 30.642573 60.171132 0
M  V30 36 H 41.994844 28.852798 63.141686 0
M  V30 37 H 38.978801 30.678216 54.448676 0
M  V30 38 H 40.432468 29.738324 54.249905 0
M  V30 39 H 38.638318 28.087725 59.423980 0
M  V30 40 H 38.693866 29.519983 58.409284 0
M  V30 41 H 39.810831 27.844829 50.289652 0
M  V30 42 H 40.827636 28.138380 51.768772 0
M  V30 43 H 40.342659 25.185311 55.868635 0
M  V30 44 H 41.476280 27.302598 57.272700 0
M  V30 45 H 37.705699 29.120118 53.709770 0
M  V30 46 H 40.889416 28.408437 61.301620 0
M  V30 47 H 39.271628 28.307552 61.961374 0
M  V30 END ATOM
M  V30 BEGIN BOND
M  V30 1 1 4 2
M  V30 2 1 5 3
M  V30 3 1 6 5
M  V30 4 1 7 1
M  V30 5 1 7 6
M  V30 6 1 13 3
M  V30 7 1 13 8
M  V30 8 2 15 2
M  V30 9 1 16 1
M  V30 10 1 16 5
M  V30 11 1 17 10
M  V30 12 1 17 14
M  V30 13 1 18 6
M  V30 14 1 18 7
M  V30 15 1 19 11
M  V30 16 1 19 12
M  V30 17 1 20 8
M  V30 18 1 20 10
M  V30 19 1 20 12
M  V30 20 1 21 2
M  V30 21 1 21 14
M  V30 22 1 22 9 CFG=1
M  V30 23 1 22 12
M  V30 24 1 22 13
M  V30 25 1 22 19
M  V30 26 1 23 1
M  V30 27 1 24 1
M  V30 28 1 25 3
M  V30 29 1 26 3
M  V30 30 1 6 27 CFG=3
M  V30 31 1 7 28 CFG=3
M  V30 32 1 29 9
M  V30 33 1 30 10
M  V30 34 1 31 11
M  V30 35 1 12 32 CFG=1
M  V30 36 1 13 33 CFG=3
M  V30 37 1 34 14
M  V30 38 1 35 14
M  V30 39 1 36 15
M  V30 40 1 37 16
M  V30 41 1 38 16
M  V30 42 1 39 17
M  V30 43 1 40 17
M  V30 44 1 41 18
M  V30 45 1 42 18
M  V30 46 1 19 43 CFG=3
M  V30 47 1 20 44 CFG=3
M  V30 48 1 5 45 CFG=1
M  V30 49 1 46 21
M  V30 50 1 47 21
M  V30 END BOND
M  V30 END CTAB
M  END
>  <i_epik_Tot_Q>  (1) 
1

>  <i_epik_Tot_abs_Q>  (1) 
1

>  <i_i_glide_confnum>  (1) 
91

>  <i_i_glide_lignum>  (1) 
53

>  <i_i_glide_posenum>  (1) 
304

>  <i_i_glide_rotatable_bonds>  (1) 
9

>  <i_lp_mmshare_version>  (1) 
72125

>  <i_m_source_file_index>  (1) 
23

>  <i_f3d_flags>  (1) 
0

>  <num_sample>  (1) 
100

>  <b_lp_Chiralities_Consistent>  (1) 
1

>  <r_epik_Charging_Adjusted_Penalty>  (1) 
0.69687758696528612

>  <r_epik_Ionization_Penalty>  (1) 
0.32102159834462574

>  <r_epik_Ionization_Penalty_Charging>  (1) 
0.0068758800046254996

>  <r_epik_Ionization_Penalty_Neutral>  (1) 
0.31414571834000021

>  <r_epik_State_Penalty>  (1) 
0.69000170696066065

>  <r_glide_ring_energy>  (1) 
1.6455033096424427

>  <r_i_docking_score>  (1) 
-5.3109919118256714

>  <r_i_glide_ecoul>  (1) 
-2.3581572333972289

>  <r_i_glide_eff_state_penalty>  (1) 
0.69000170696066065

>  <r_i_glide_einternal>  (1) 
3.7189756545639803

>  <r_i_glide_emodel>  (1) 
-41.550823533245776

>  <r_i_glide_emodel_strain>  (1) 
0.76659701364889088

>  <r_i_glide_energy>  (1) 
-31.319050367568671

>  <r_i_glide_erotb>  (1) 
1.3164448029953435

>  <r_i_glide_esite>  (1) 
-0.034862923086563496

>  <r_i_glide_evdw>  (1) 
-28.960893134171442

>  <r_i_glide_gscore>  (1) 
-6.0009936187863318

>  <r_i_glide_gscore_strain>  (1) 
0

>  <r_i_glide_hbond>  (1) 
-0.052895012852739585

>  <r_i_glide_ligand_efficiency>  (1) 
-0.24140872326480325

>  <r_i_glide_ligand_efficiency_ln>  (1) 
-1.2982001463871158

>  <r_i_glide_ligand_efficiency_sa>  (1) 
-0.67643673735128096

>  <r_i_glide_lipo>  (1) 
-3.1488404098305418

>  <r_i_glide_metal>  (1) 
-0

>  <r_i_glide_rewards>  (1) 
-2.2790718342936742

>  <r_lp_Energy>  (1) 
11.334823

>  <r_lp_tautomer_probability>  (1) 
0.49999300000000002

>  <s_epik_Chemistry_Notes>  (1) 
This compound has an imine and may undergo hydrolysis. This compound contains an acetal/aminal-like group ( X-CH(R)-Y where X, Y are N, S, or O) that may be acid/base labile, releasing an aldehyde.

>  <s_epik_cmdline>  (1) 
J2VwaWtfcHl0aG9uJywgJy1waHQnLCAnMS4wJywgJy1waCcsICc3LjQnLCAnLXRuJywgJzgnLCAnLW1hJywgJzUwMCcsICctaW1hZScsICc8aW5maWxlLm1hZT4nLCAnLW9tYWUnLCAnPG91dGZpbGUubWFlPic=

>  <s_epik_input>  (1) 
W0NAQEhdMTJbQ0BIXShbQ0gyXTIpW0NIMl1bQ0gyXU4xW0NIMl1bQ0BASF0zT1tDQEhdKFtDSF0oW0NASF00W09IXSlbQ0BAXTM0W09IXSlbTkhdW0NIMl1bQ0gyXVxbQ0hdPUMoXEYpW05IMl0=

>  <s_glide_docking_method>  (1) 
confgen

>  <s_i_glide_gridfile>  (1) 
gpcr_5ht2c_6bqh_protein_autoprepared_prepared

>  <s_lp_Force_Field>  (1) 
S-OPLS

>  <s_lp_Variant>  (1) 
DiffSBDD_22-1

>  <s_m_source_file>  (1) 
generated_GPCR_5HT2C_ligand_DiffSBDD_2026-06-23_prepared.sdf

>  <GenAI_Model>  (1) 
DiffSBDD

>  <Protein>  (1) 
GPCR_5HT2C

$$$$
DiffSBDD_41
     RDKit          3D

  0  0  0  0  0  0  0  0  0  0999 V3000
M  V30 BEGIN CTAB
M  V30 COUNTS 51 52 0 0 1
M  V30 BEGIN ATOM
M  V30 1 C 39.833895 27.748812 59.134111 0
M  V30 2 C 38.196072 30.715191 59.684657 0 CFG=1
M  V30 3 C 37.412752 27.419839 53.749719 0
M  V30 4 C 38.851246 30.311554 55.832796 0
M  V30 5 C 39.645210 30.537797 53.531675 0
M  V30 6 C 38.949482 29.371507 53.162390 0
M  V30 7 C 39.594751 31.004616 54.857896 0
M  V30 8 O 38.258568 25.424456 56.750334 0 CHG=-1
M  V30 9 C 38.187206 30.212356 58.247547 0
M  V30 10 S 39.676645 30.131110 60.577035 0
M  V30 11 N 38.095064 26.191164 54.167537 0 CHG=1
M  V30 12 C 40.292855 26.697906 56.562325 0
M  V30 13 C 41.205776 27.612395 57.123963 0
M  V30 14 C 39.021998 28.875972 51.727474 0
M  V30 15 C 38.086540 32.248509 59.853049 0
M  V30 16 C 39.148256 26.309697 57.287812 0
M  V30 17 C 38.835132 30.812839 57.227616 0
M  V30 18 C 40.979498 28.135381 58.409817 0
M  V30 19 C 35.506615 32.384683 59.810486 0
M  V30 20 C 38.145150 29.140737 55.461671 0
M  V30 21 C 36.835708 32.911591 59.251017 0
M  V30 22 F 40.514310 26.193801 55.323847 0
M  V30 23 C 38.920094 26.835565 58.567759 0
M  V30 24 C 38.188487 28.671750 54.130813 0
M  V30 25 C 39.582690 28.310089 60.523388 0
M  V30 26 H 37.339009 30.257691 60.178798 0
M  V30 27 H 36.445100 27.454685 54.235159 0
M  V30 28 H 37.211986 27.365478 52.682316 0
M  V30 29 H 40.224164 31.077156 52.795526 0
M  V30 30 H 40.135670 31.897116 55.131902 0
M  V30 31 H 37.624284 29.312666 58.070537 0
M  V30 32 H 37.626804 25.382606 53.789704 0
M  V30 33 H 39.057100 26.207774 53.864167 0
M  V30 34 H 42.079400 27.910761 56.568151 0
M  V30 35 H 38.045160 28.936941 51.252499 0
M  V30 36 H 39.712238 29.480023 51.137711 0
M  V30 37 H 39.372520 27.844224 51.685978 0
M  V30 38 H 38.109954 32.480509 60.918593 0
M  V30 39 H 38.973592 32.727064 59.436937 0
M  V30 40 H 39.391514 31.716139 57.416986 0
M  V30 41 H 41.682499 28.833936 58.839417 0
M  V30 42 H 34.668837 32.947090 59.396812 0
M  V30 43 H 35.350076 31.339272 59.544487 0
M  V30 44 H 35.466100 32.473209 60.896023 0
M  V30 45 H 37.575205 28.597830 56.193892 0
M  V30 46 H 36.888368 33.984483 59.437898 0
M  V30 47 H 36.845266 32.807047 58.167813 0
M  V30 48 H 38.045198 26.537757 59.118348 0
M  V30 49 H 40.334005 27.902409 61.200376 0
M  V30 50 H 38.613762 27.982262 60.891930 0
M  V30 51 H 38.111991 26.087365 55.193443 0
M  V30 END ATOM
M  V30 BEGIN BOND
M  V30 1 1 6 5
M  V30 2 1 7 4
M  V30 3 2 7 5
M  V30 4 1 9 2
M  V30 5 1 10 2
M  V30 6 1 11 3
M  V30 7 1 13 12
M  V30 8 1 14 6
M  V30 9 1 15 2
M  V30 10 1 16 8
M  V30 11 2 16 12
M  V30 12 1 17 4
M  V30 13 2 17 9
M  V30 14 1 18 1
M  V30 15 2 18 13
M  V30 16 2 20 4
M  V30 17 1 21 15
M  V30 18 1 21 19
M  V30 19 1 22 12
M  V30 20 2 23 1
M  V30 21 1 23 16
M  V30 22 1 24 3
M  V30 23 2 24 6
M  V30 24 1 24 20
M  V30 25 1 25 1
M  V30 26 1 25 10
M  V30 27 1 2 26 CFG=1
M  V30 28 1 27 3
M  V30 29 1 28 3
M  V30 30 1 29 5
M  V30 31 1 30 7
M  V30 32 1 31 9
M  V30 33 1 32 11
M  V30 34 1 33 11
M  V30 35 1 34 13
M  V30 36 1 35 14
M  V30 37 1 36 14
M  V30 38 1 37 14
M  V30 39 1 38 15
M  V30 40 1 39 15
M  V30 41 1 40 17
M  V30 42 1 41 18
M  V30 43 1 42 19
M  V30 44 1 43 19
M  V30 45 1 44 19
M  V30 46 1 45 20
M  V30 47 1 46 21
M  V30 48 1 47 21
M  V30 49 1 48 23
M  V30 50 1 49 25
M  V30 51 1 50 25
M  V30 52 1 51 11
M  V30 END BOND
M  V30 END CTAB
M  END
>  <i_epik_Tot_Q>  (1) 
0

>  <i_epik_Tot_abs_Q>  (1) 
2

>  <i_i_glide_confnum>  (1) 
131

>  <i_i_glide_lignum>  (1) 
90

>  <i_i_glide_posenum>  (1) 
299

>  <i_i_glide_rotatable_bonds>  (1) 
8

>  <i_lp_mmshare_version>  (1) 
72125

>  <i_m_source_file_index>  (1) 
42

>  <i_f3d_flags>  (1) 
0

>  <num_sample>  (1) 
100

>  <b_lp_Chiralities_Consistent>  (1) 
1

>  <r_epik_Charging_Adjusted_Penalty>  (1) 
2.7167828853708742

>  <r_epik_Ionization_Penalty>  (1) 
1.3565026725465308

>  <r_epik_Ionization_Penalty_Charging>  (1) 
1.3565026725465308

>  <r_epik_Ionization_Penalty_Neutral>  (1) 
0

>  <r_epik_State_Penalty>  (1) 
1.3602802128243434

>  <r_glide_ring_energy>  (1) 
0

>  <r_i_docking_score>  (1) 
-5.3088701220492007

>  <r_i_glide_ecoul>  (1) 
-1.089689945077946

>  <r_i_glide_eff_state_penalty>  (1) 
1.3602802128243434

>  <r_i_glide_einternal>  (1) 
4.126237764188045

>  <r_i_glide_emodel>  (1) 
-53.178330403684733

>  <r_i_glide_emodel_strain>  (1) 
0.13288842692016267

>  <r_i_glide_energy>  (1) 
-37.007585362931827

>  <r_i_glide_erotb>  (1) 
0.74153290357203427

>  <r_i_glide_esite>  (1) 
0

>  <r_i_glide_evdw>  (1) 
-35.917895417853885

>  <r_i_glide_gscore>  (1) 
-6.6691503348735441

>  <r_i_glide_gscore_strain>  (1) 
0

>  <r_i_glide_hbond>  (1) 
0

>  <r_i_glide_ligand_efficiency>  (1) 
-0.21235480488196803

>  <r_i_glide_ligand_efficiency_ln>  (1) 
-1.2583613129251205

>  <r_i_glide_ligand_efficiency_sa>  (1) 
-0.62092921626960673

>  <r_i_glide_lipo>  (1) 
-3.554716765918168

>  <r_i_glide_metal>  (1) 
-0

>  <r_i_glide_rewards>  (1) 
-1.8966182098730247

>  <r_lp_Energy>  (1) 
26.063465999999998

>  <s_epik_cmdline>  (1) 
J2VwaWtfcHl0aG9uJywgJy1waHQnLCAnMS4wJywgJy1waCcsICc3LjQnLCAnLXRuJywgJzgnLCAnLW1hJywgJzUwMCcsICctaW1hZScsICc8aW5maWxlLm1hZT4nLCAnLW9tYWUnLCAnPG91dGZpbGUubWFlPic=

>  <s_epik_input>  (1) 
W09IXWMoW2NIXTEpYyhGKVtjSF1bY0hdYzFbQ0gyXVNbQ0BASF0oW0NIMl1bQ0gyXVtDSDNdKS9bQ0hdPVtDSF0vYzJbY0hdW2NIXWMoW0NIM10pYyhbY0hdMilbQ0gyXVtOSDJd

>  <s_glide_docking_method>  (1) 
confgen

>  <s_i_glide_gridfile>  (1) 
gpcr_5ht2c_6bqh_protein_autoprepared_prepared

>  <s_lp_Force_Field>  (1) 
S-OPLS

>  <s_lp_Variant>  (1) 
DiffSBDD_41-3

>  <s_m_source_file>  (1) 
generated_GPCR_5HT2C_ligand_DiffSBDD_2026-06-23_prepared.sdf

>  <GenAI_Model>  (1) 
DiffSBDD

>  <Protein>  (1) 
GPCR_5HT2C

$$$$
DiffSBDD_11
     RDKit          3D

  0  0  0  0  0  0  0  0  0  0999 V3000
M  V30 BEGIN CTAB
M  V30 COUNTS 43 45 0 0 1
M  V30 BEGIN ATOM
M  V30 1 C 38.813618 30.138710 56.879939 0
M  V30 2 C 37.708056 25.723047 56.001009 0
M  V30 3 N 38.319329 29.047847 56.067719 0
M  V30 4 C 37.975260 29.177228 54.667038 0 CFG=1
M  V30 5 N 36.205717 31.243067 59.767779 0
M  V30 6 C 38.519817 26.828491 55.303207 0 CFG=2
M  V30 7 C 39.057451 31.280118 60.075222 0
M  V30 8 C 39.058284 29.823606 53.767702 0
M  V30 9 C 38.372632 30.033265 59.485077 0 CFG=2
M  V30 10 C 39.069834 31.354895 53.803605 0
M  V30 11 C 39.169237 29.512283 58.251870 0 CFG=1
M  V30 12 O 36.253205 29.337758 58.567772 0
M  V30 13 S 39.120296 27.690079 58.030992 0
M  V30 14 C 36.845137 30.179239 59.232736 0
M  V30 15 C 39.136450 27.892546 56.231430 0 CFG=2
M  V30 16 C 36.856000 32.296003 60.553289 0
M  V30 17 C 37.668760 27.689556 54.324274 0 CFG=2
M  V30 18 F 38.045132 31.066224 62.167744 0
M  V30 19 C 38.206011 31.917509 61.156294 0 CFG=1
M  V30 20 O 37.867942 27.337770 52.967760 0
M  V30 21 H 38.083658 30.946729 56.941827 0
M  V30 22 H 39.723121 30.548259 56.444849 0
M  V30 23 H 36.894951 26.137757 56.598062 0
M  V30 24 H 37.269667 25.044231 55.269392 0
M  V30 25 H 38.340655 25.130027 56.661943 0
M  V30 26 H 37.058420 29.760124 54.567301 0
M  V30 27 H 35.216851 31.341777 59.590075 0
M  V30 28 H 39.338060 26.354210 54.759073 0
M  V30 29 H 40.027416 31.010081 60.494837 0
M  V30 30 H 39.244901 32.012541 59.288802 0
M  V30 31 H 40.045131 29.437246 54.004141 0
M  V30 32 H 38.873594 29.558872 52.727343 0
M  V30 33 H 38.445671 29.263680 60.254367 0
M  V30 34 H 39.620636 31.737747 52.945237 0
M  V30 35 H 38.061232 31.767419 53.767773 0
M  V30 36 H 39.552007 31.748221 54.695503 0
M  V30 37 H 40.223636 29.727216 58.426740 0
M  V30 38 H 40.156414 28.114679 55.912945 0
M  V30 39 H 36.983184 33.156136 59.894375 0
M  V30 40 H 36.173894 32.616375 61.341342 0
M  V30 41 H 36.615276 27.514441 54.530834 0
M  V30 42 H 38.699197 32.796825 61.572240 0
M  V30 43 H 37.367649 26.558860 52.765962 0
M  V30 END ATOM
M  V30 BEGIN BOND
M  V30 1 1 3 1
M  V30 2 1 4 3
M  V30 3 1 6 2
M  V30 4 1 8 4
M  V30 5 1 9 7
M  V30 6 1 10 8
M  V30 7 1 11 1
M  V30 8 1 11 9
M  V30 9 1 13 11
M  V30 10 1 14 5
M  V30 11 1 14 9
M  V30 12 2 14 12
M  V30 13 1 15 3
M  V30 14 1 15 6
M  V30 15 1 15 13
M  V30 16 1 16 5
M  V30 17 1 17 4
M  V30 18 1 17 6
M  V30 19 1 19 7
M  V30 20 1 19 16
M  V30 21 1 19 18
M  V30 22 1 20 17
M  V30 23 1 21 1
M  V30 24 1 22 1
M  V30 25 1 23 2
M  V30 26 1 24 2
M  V30 27 1 25 2
M  V30 28 1 4 26 CFG=1
M  V30 29 1 27 5
M  V30 30 1 6 28 CFG=3
M  V30 31 1 29 7
M  V30 32 1 30 7
M  V30 33 1 31 8
M  V30 34 1 32 8
M  V30 35 1 9 33 CFG=1
M  V30 36 1 34 10
M  V30 37 1 35 10
M  V30 38 1 36 10
M  V30 39 1 11 37 CFG=1
M  V30 40 1 15 38 CFG=3
M  V30 41 1 39 16
M  V30 42 1 40 16
M  V30 43 1 17 41 CFG=1
M  V30 44 1 19 42 CFG=1
M  V30 45 1 43 20
M  V30 END BOND
M  V30 END CTAB
M  END
>  <i_epik_Tot_Q>  (1) 
0

>  <i_epik_Tot_abs_Q>  (1) 
0

>  <i_i_glide_confnum>  (1) 
3

>  <i_i_glide_lignum>  (1) 
18

>  <i_i_glide_posenum>  (1) 
123

>  <i_i_glide_rotatable_bonds>  (1) 
3

>  <i_lp_mmshare_version>  (1) 
72125

>  <i_m_source_file_index>  (1) 
12

>  <i_f3d_flags>  (1) 
0

>  <num_sample>  (1) 
100

>  <b_lp_Chiralities_Consistent>  (1) 
1

>  <r_epik_Charging_Adjusted_Penalty>  (1) 
0

>  <r_epik_Ionization_Penalty>  (1) 
0.0013281564367089848

>  <r_epik_Ionization_Penalty_Charging>  (1) 
0

>  <r_epik_Ionization_Penalty_Neutral>  (1) 
0.0013281564367089848

>  <r_epik_State_Penalty>  (1) 
-0

>  <r_glide_ring_energy>  (1) 
0

>  <r_i_docking_score>  (1) 
-5.3084769269240928

>  <r_i_glide_ecoul>  (1) 
-1.1946657271829142

>  <r_i_glide_eff_state_penalty>  (1) 
-0

>  <r_i_glide_einternal>  (1) 
2.7961826651804902

>  <r_i_glide_emodel>  (1) 
-37.604822132151206

>  <r_i_glide_emodel_strain>  (1) 
0.34151982342120846

>  <r_i_glide_energy>  (1) 
-29.548574067828195

>  <r_i_glide_erotb>  (1) 
0.20132193000906404

>  <r_i_glide_esite>  (1) 
-0.15605634271561963

>  <r_i_glide_evdw>  (1) 
-28.35390834064528

>  <r_i_glide_gscore>  (1) 
-5.3084769269240928

>  <r_i_glide_gscore_strain>  (1) 
0

>  <r_i_glide_hbond>  (1) 
-0.064291101234227169

>  <r_i_glide_ligand_efficiency>  (1) 
-0.26542384634620464

>  <r_i_glide_ligand_efficiency_ln>  (1) 
-1.3285366895221149

>  <r_i_glide_ligand_efficiency_sa>  (1) 
-0.72047116438651759

>  <r_i_glide_lipo>  (1) 
-2.17228455999008

>  <r_i_glide_metal>  (1) 
-0

>  <r_i_glide_rewards>  (1) 
-1.5202715768835287

>  <r_lp_Energy>  (1) 
13.978804

>  <r_lp_tautomer_probability>  (1) 
1

>  <s_epik_Chemistry_Notes>  (1) 
This compound contains an acetal/aminal-like group ( X-CH(R)-Y where X, Y are N, S, or O) that may be acid/base labile, releasing an aldehyde.

>  <s_epik_cmdline>  (1) 
J2VwaWtfcHl0aG9uJywgJy1waHQnLCAnMS4wJywgJy1waCcsICc3LjQnLCAnLXRuJywgJzgnLCAnLW1hJywgJzUwMCcsICctaW1hZScsICc8aW5maWxlLm1hZT4nLCAnLW9tYWUnLCAnPG91dGZpbGUubWFlPic=

>  <s_epik_input>  (1) 
Tz1DMVtOSF1bQ0gyXVtDQEBIXShGKVtDSDJdW0NAQEhdMVtDQEhdKFtDSDJdMilTW0NASF0oTjIzKVtDQEBIXShbQ0gzXSlbQ0BIXShbT0hdKVtDQEBIXTNbQ0gyXVtDSDNd

>  <s_glide_docking_method>  (1) 
confgen

>  <s_i_glide_gridfile>  (1) 
gpcr_5ht2c_6bqh_protein_autoprepared_prepared

>  <s_lp_Force_Field>  (1) 
S-OPLS

>  <s_lp_Variant>  (1) 
DiffSBDD_11-1

>  <s_m_source_file>  (1) 
generated_GPCR_5HT2C_ligand_DiffSBDD_2026-06-23_prepared.sdf

>  <GenAI_Model>  (1) 
DiffSBDD

>  <Protein>  (1) 
GPCR_5HT2C

$$$$
DiffSBDD_16
     RDKit          3D

  0  0  0  0  0  0  0  0  0  0999 V3000
M  V30 BEGIN CTAB
M  V30 COUNTS 69 73 0 0 1
M  V30 BEGIN ATOM
M  V30 1 C 38.692047 31.345523 56.834555 0
M  V30 2 C 43.040836 32.852834 67.466316 0
M  V30 3 C 40.369153 32.973530 61.535844 0 CFG=1
M  V30 4 C 40.522880 31.841942 62.577339 0
M  V30 5 C 39.239829 30.629847 54.548168 0
M  V30 6 C 38.660531 29.376684 54.787161 0
M  V30 7 C 36.042873 31.575240 60.051691 0
M  V30 8 C 35.735016 32.555351 61.189685 0
M  V30 9 C 38.927070 33.530837 61.458061 0
M  V30 10 C 38.089922 29.096813 56.035204 0
M  V30 11 O 38.087014 30.338240 60.073643 0
M  V30 12 C 42.174443 33.568471 65.308845 0
M  V30 13 C 41.327140 33.496065 64.236323 0
M  V30 14 C 41.309972 34.586854 63.176444 0
M  V30 15 C 42.307720 32.585746 66.411807 0
M  V30 16 C 39.259365 31.604988 55.564440 0
M  V30 17 N 43.100143 31.869834 68.422107 0
M  V30 18 C 42.239675 28.589669 67.254255 0
M  V30 19 N 41.337786 34.038919 61.812317 0
M  V30 20 C 41.951960 28.969379 65.837107 0
M  V30 21 C 39.842612 30.937614 53.195618 0
M  V30 22 C 35.888318 34.068195 60.903478 0
M  V30 23 C 37.289208 36.079661 60.337045 0
M  V30 24 C 37.048390 34.588820 60.017496 0 CFG=1
M  V30 25 C 38.754236 32.465042 57.872313 0
M  V30 26 C 38.364790 33.770829 60.032535 0 CFG=2
M  V30 27 C 37.532894 31.393846 59.764527 0
M  V30 28 C 41.667528 31.245601 66.465849 0 CFG=2
M  V30 29 C 38.244657 32.519100 59.150342 0
M  V30 30 C 42.480038 30.936655 67.777585 0
M  V30 31 N 41.889429 30.196199 65.444640 0
M  V30 32 C 38.088949 30.069538 57.054681 0
M  V30 33 C 40.315982 32.391444 63.989796 0
M  V30 34 C 42.517159 29.535694 68.171638 0
M  V30 35 H 43.589933 33.768152 67.626678 0
M  V30 36 H 40.623961 32.549480 60.565524 0
M  V30 37 H 39.802880 31.049043 62.370810 0
M  V30 38 H 41.508953 31.382615 62.503456 0
M  V30 39 H 38.649008 28.627796 54.008831 0
M  V30 40 H 35.538247 31.885092 59.136529 0
M  V30 41 H 35.645388 30.594998 60.307071 0
M  V30 42 H 34.708300 32.397756 61.505726 0
M  V30 43 H 36.311317 32.268577 62.064974 0
M  V30 44 H 38.285688 32.841325 61.991546 0
M  V30 45 H 38.848361 34.454818 62.026068 0
M  V30 46 H 37.646016 28.131175 56.215122 0
M  V30 47 H 42.815127 34.437683 65.359359 0
M  V30 48 H 40.411518 35.186806 63.318211 0
M  V30 49 H 42.152769 35.263887 63.319385 0
M  V30 50 H 39.707668 32.565750 55.368952 0
M  V30 51 H 42.263068 27.534577 67.484014 0
M  V30 52 H 42.262680 33.658853 61.667568 0
M  V30 53 H 41.817252 28.133542 65.145683 0
M  V30 54 H 39.246959 31.695837 52.685705 0
M  V30 55 H 40.845229 31.337755 53.313680 0
M  V30 56 H 39.899430 30.048599 52.566608 0
M  V30 57 H 34.971178 34.446044 60.447496 0
M  V30 58 H 35.934382 34.555496 61.877928 0
M  V30 59 H 37.532696 36.234123 61.388440 0
M  V30 60 H 38.109257 36.501931 59.762072 0
M  V30 61 H 36.401140 36.673382 60.118943 0
M  V30 62 H 36.693667 34.559747 58.984753 0
M  V30 63 H 39.253808 33.351635 57.523606 0
M  V30 64 H 39.114304 34.390488 59.545031 0
M  V30 65 H 40.615109 31.335656 66.741607 0
M  V30 66 H 37.629089 29.822481 57.972556 0
M  V30 67 H 40.105869 31.625479 64.709815 0
M  V30 68 H 39.375371 32.927607 63.969532 0
M  V30 69 H 42.791877 29.308373 69.191047 0
M  V30 END ATOM
M  V30 BEGIN BOND
M  V30 1 1 4 3
M  V30 2 1 6 5
M  V30 3 1 8 7
M  V30 4 1 9 3
M  V30 5 2 10 6
M  V30 6 2 13 12
M  V30 7 1 14 13
M  V30 8 2 15 2
M  V30 9 1 15 12
M  V30 10 1 16 1
M  V30 11 2 16 5
M  V30 12 1 17 2
M  V30 13 1 19 3
M  V30 14 1 19 14
M  V30 15 1 20 18
M  V30 16 1 21 5
M  V30 17 1 22 8
M  V30 18 1 24 22
M  V30 19 1 24 23
M  V30 20 1 25 1
M  V30 21 1 26 9
M  V30 22 1 26 24
M  V30 23 1 27 7
M  V30 24 2 27 11
M  V30 25 1 28 15
M  V30 26 2 29 25
M  V30 27 1 29 26
M  V30 28 1 29 27
M  V30 29 2 30 17
M  V30 30 1 30 28
M  V30 31 2 31 20
M  V30 32 1 31 28
M  V30 33 2 32 1
M  V30 34 1 32 10
M  V30 35 1 33 4
M  V30 36 1 33 13
M  V30 37 2 34 18
M  V30 38 1 34 30
M  V30 39 1 35 2
M  V30 40 1 3 36 CFG=3
M  V30 41 1 37 4
M  V30 42 1 38 4
M  V30 43 1 39 6
M  V30 44 1 40 7
M  V30 45 1 41 7
M  V30 46 1 42 8
M  V30 47 1 43 8
M  V30 48 1 44 9
M  V30 49 1 45 9
M  V30 50 1 46 10
M  V30 51 1 47 12
M  V30 52 1 48 14
M  V30 53 1 49 14
M  V30 54 1 50 16
M  V30 55 1 51 18
M  V30 56 1 52 19
M  V30 57 1 53 20
M  V30 58 1 54 21
M  V30 59 1 55 21
M  V30 60 1 56 21
M  V30 61 1 57 22
M  V30 62 1 58 22
M  V30 63 1 59 23
M  V30 64 1 60 23
M  V30 65 1 61 23
M  V30 66 1 24 62 CFG=3
M  V30 67 1 63 25
M  V30 68 1 26 64 CFG=3
M  V30 69 1 28 65 CFG=1
M  V30 70 1 66 32
M  V30 71 1 67 33
M  V30 72 1 68 33
M  V30 73 1 69 34
M  V30 END BOND
M  V30 END CTAB
M  END
>  <i_epik_Tot_Q>  (1) 
0

>  <i_epik_Tot_abs_Q>  (1) 
0

>  <i_i_glide_confnum>  (1) 
11

>  <i_i_glide_lignum>  (1) 
38

>  <i_i_glide_posenum>  (1) 
175

>  <i_i_glide_rotatable_bonds>  (1) 
4

>  <i_lp_mmshare_version>  (1) 
72125

>  <i_m_source_file_index>  (1) 
17

>  <i_f3d_flags>  (1) 
0

>  <num_sample>  (1) 
100

>  <b_lp_Chiralities_Consistent>  (1) 
1

>  <r_epik_Charging_Adjusted_Penalty>  (1) 
0.56391873878667209

>  <r_epik_Ionization_Penalty>  (1) 
0.56391873878667209

>  <r_epik_Ionization_Penalty_Charging>  (1) 
0

>  <r_epik_Ionization_Penalty_Neutral>  (1) 
0.56391873878667209

>  <r_epik_State_Penalty>  (1) 
0.56391873878667209

>  <r_glide_ring_energy>  (1) 
2.0215911855591866

>  <r_i_docking_score>  (1) 
-5.2989386736150168

>  <r_i_glide_ecoul>  (1) 
-0.44825634685199262

>  <r_i_glide_eff_state_penalty>  (1) 
0.56391873878667209

>  <r_i_glide_einternal>  (1) 
6.2297761980683752

>  <r_i_glide_emodel>  (1) 
-43.794630013613016

>  <r_i_glide_emodel_strain>  (1) 
3.6269022370408379

>  <r_i_glide_energy>  (1) 
-39.47384192835122

>  <r_i_glide_erotb>  (1) 
0.29265828080580603

>  <r_i_glide_esite>  (1) 
-0.039952514437597592

>  <r_i_glide_evdw>  (1) 
-39.025585581499229

>  <r_i_glide_gscore>  (1) 
-5.8628574124016888

>  <r_i_glide_gscore_strain>  (1) 
0

>  <r_i_glide_hbond>  (1) 
0

>  <r_i_glide_ligand_efficiency>  (1) 
-0.15585113745926521

>  <r_i_glide_ligand_efficiency_ln>  (1) 
-1.1706841831969119

>  <r_i_glide_ligand_efficiency_sa>  (1) 
-0.50489718415555485

>  <r_i_glide_lipo>  (1) 
-2.8979183416170651

>  <r_i_glide_metal>  (1) 
-0

>  <r_i_glide_rewards>  (1) 
-1.1991271060500732

>  <r_lp_Energy>  (1) 
60.789839000000001

>  <s_epik_Chemistry_Notes>  (1) 
This compound has an imine and may undergo hydrolysis.

>  <s_epik_cmdline>  (1) 
J2VwaWtfcHl0aG9uJywgJy1waHQnLCAnMS4wJywgJy1waCcsICc3LjQnLCAnLXRuJywgJzgnLCAnLW1hJywgJzUwMCcsICctaW1hZScsICc8aW5maWxlLm1hZT4nLCAnLW9tYWUnLCAnPG91dGZpbGUubWFlPic=

>  <s_epik_input>  (1) 
W2NIXTFbY0hdW2NIXWMoW0NIM10pW2NIXWMxL1tDSF09QyhDKD1PKVtDSDJdW0NIMl1bQ0gyXVtDQEhdMltDSDNdKS9bQ0BASF0yW0NIMl1bQ0BASF0zW0NIMl1bQ0gyXUMoL1tDSDJdW05IXTMpPVtDSF1cQzQ9W0NIXU49QyhbQ0BASF00NSlbQ0hdPVtDSF1bQ0hdPU41

>  <s_glide_docking_method>  (1) 
confgen

>  <s_i_glide_gridfile>  (1) 
gpcr_5ht2c_6bqh_protein_autoprepared_prepared

>  <s_lp_Force_Field>  (1) 
S-OPLS

>  <s_lp_Variant>  (1) 
DiffSBDD_16-6

>  <s_m_source_file>  (1) 
generated_GPCR_5HT2C_ligand_DiffSBDD_2026-06-23_prepared.sdf

>  <GenAI_Model>  (1) 
DiffSBDD

>  <Protein>  (1) 
GPCR_5HT2C

$$$$
DiffSBDD_85
     RDKit          3D

  0  0  0  0  0  0  0  0  0  0999 V3000
M  V30 BEGIN CTAB
M  V30 COUNTS 62 65 0 0 1
M  V30 BEGIN ATOM
M  V30 1 C 38.043340 27.165020 54.751992 0
M  V30 2 C 38.140065 33.039009 56.733408 0
M  V30 3 N 37.049814 32.425934 61.428307 0
M  V30 4 C 40.028393 27.535819 58.164051 0
M  V30 5 C 39.699874 29.069966 50.372957 0
M  V30 6 C 37.119645 31.625930 60.224365 0 CFG=2
M  V30 7 O 37.245209 26.636113 53.984332 0
M  V30 8 F 40.045922 31.333260 51.041518 0
M  V30 9 C 39.408240 27.738816 50.715040 0
M  V30 10 O 39.025692 28.037726 54.386933 0
M  V30 11 O 40.444796 28.743188 62.624175 0
M  V30 12 C 38.136251 31.453875 61.326365 0 CFG=1
M  V30 13 C 40.046954 26.256390 57.525585 0
M  V30 14 C 37.454450 33.952022 59.712098 0
M  V30 15 C 40.489102 31.772401 61.995486 0
M  V30 16 C 37.245247 32.577675 59.071936 0 CFG=1
M  V30 17 C 40.986248 29.742247 63.458018 0
M  V30 18 N 39.478808 31.911132 61.112402 0
M  V30 19 O 37.567449 33.759324 61.116328 0
M  V30 20 C 38.304527 32.184239 58.004529 0 CFG=1
M  V30 21 O 39.244745 32.842086 55.879282 0
M  V30 22 C 38.011815 26.883354 56.251835 0 CFG=1
M  V30 23 C 38.942142 29.807951 58.487627 0
M  V30 24 C 40.192578 31.063100 63.341212 0 CFG=1
M  V30 25 N 38.267560 30.764405 57.602862 0
M  V30 26 Cl 41.262563 27.940550 59.303763 0
M  V30 27 C 39.189127 27.388828 52.051998 0
M  V30 28 C 39.054462 28.428076 57.876527 0
M  V30 29 C 39.245136 28.374676 53.064155 0
M  V30 30 C 39.122137 25.934669 56.633970 0
M  V30 31 C 40.563886 32.008713 64.493259 0
M  V30 32 C 39.769038 30.054750 51.373713 0
M  V30 33 O 38.047537 28.141716 56.962583 0
M  V30 34 O 41.621460 32.189916 61.760915 0
M  V30 35 C 39.538437 29.710680 52.719706 0
M  V30 36 H 37.245111 32.775090 56.181671 0
M  V30 37 H 38.061939 34.101489 56.968723 0
M  V30 38 H 39.867834 29.337437 49.339896 0
M  V30 39 H 36.391710 30.827007 60.096962 0
M  V30 40 H 39.351746 26.982135 49.951687 0
M  V30 41 H 39.647518 28.434525 63.039573 0
M  V30 42 H 38.018816 30.485930 61.804718 0
M  V30 43 H 40.823942 25.549871 57.769933 0
M  V30 44 H 36.611790 34.612623 59.501762 0
M  V30 45 H 38.362097 34.445258 59.366714 0
M  V30 46 H 36.276737 32.608577 58.585319 0
M  V30 47 H 40.955537 29.367112 64.481819 0
M  V30 48 H 42.038031 29.880950 63.204082 0
M  V30 49 H 39.668506 32.384389 60.242801 0
M  V30 50 H 39.277266 32.420361 58.416681 0
M  V30 51 H 38.938577 32.391112 55.106787 0
M  V30 52 H 37.066671 26.389749 56.482256 0
M  V30 53 H 39.949607 30.137754 58.722104 0
M  V30 54 H 38.415803 29.680286 59.428411 0
M  V30 55 H 39.143371 30.836942 63.497023 0
M  V30 56 H 38.681321 30.701914 56.678210 0
M  V30 57 H 38.973625 26.364926 52.303374 0
M  V30 58 H 39.142497 24.968663 56.150850 0
M  V30 59 H 40.062593 32.968399 64.378855 0
M  V30 60 H 40.254155 31.592475 65.451048 0
M  V30 61 H 41.638144 32.191089 64.540405 0
M  V30 62 H 39.587962 30.468932 53.487287 0
M  V30 END ATOM
M  V30 BEGIN BOND
M  V30 1 1 6 3
M  V30 2 2 7 1
M  V30 3 2 9 5
M  V30 4 1 10 1
M  V30 5 1 12 3
M  V30 6 1 12 6
M  V30 7 1 13 4
M  V30 8 1 16 6
M  V30 9 1 16 14
M  V30 10 1 17 11
M  V30 11 1 18 12
M  V30 12 1 18 15
M  V30 13 1 19 3
M  V30 14 1 19 14
M  V30 15 1 20 2
M  V30 16 1 20 16
M  V30 17 1 21 2
M  V30 18 1 22 1
M  V30 19 1 24 15
M  V30 20 1 24 17
M  V30 21 1 25 20
M  V30 22 1 25 23
M  V30 23 1 26 4
M  V30 24 1 27 9
M  V30 25 2 28 4
M  V30 26 1 28 23
M  V30 27 1 29 10
M  V30 28 2 29 27
M  V30 29 2 30 13
M  V30 30 1 30 22
M  V30 31 1 31 24
M  V30 32 1 32 5
M  V30 33 1 32 8
M  V30 34 1 33 22
M  V30 35 1 33 28
M  V30 36 2 34 15
M  V30 37 1 35 29
M  V30 38 2 35 32
M  V30 39 1 36 2
M  V30 40 1 37 2
M  V30 41 1 38 5
M  V30 42 1 6 39 CFG=3
M  V30 43 1 40 9
M  V30 44 1 41 11
M  V30 45 1 12 42 CFG=1
M  V30 46 1 43 13
M  V30 47 1 44 14
M  V30 48 1 45 14
M  V30 49 1 16 46 CFG=3
M  V30 50 1 47 17
M  V30 51 1 48 17
M  V30 52 1 49 18
M  V30 53 1 20 50 CFG=1
M  V30 54 1 51 21
M  V30 55 1 22 52 CFG=3
M  V30 56 1 53 23
M  V30 57 1 54 23
M  V30 58 1 24 55 CFG=3
M  V30 59 1 56 25
M  V30 60 1 57 27
M  V30 61 1 58 30
M  V30 62 1 59 31
M  V30 63 1 60 31
M  V30 64 1 61 31
M  V30 65 1 62 35
M  V30 END BOND
M  V30 END CTAB
M  END
>  <i_epik_Tot_Q>  (1) 
0

>  <i_epik_Tot_abs_Q>  (1) 
0

>  <i_i_glide_confnum>  (1) 
2649

>  <i_i_glide_lignum>  (1) 
203

>  <i_i_glide_posenum>  (1) 
258

>  <i_i_glide_rotatable_bonds>  (1) 
14

>  <i_lp_mmshare_version>  (1) 
72125

>  <i_m_source_file_index>  (1) 
86

>  <i_f3d_flags>  (1) 
0

>  <num_sample>  (1) 
100

>  <b_lp_Chiralities_Consistent>  (1) 
1

>  <r_epik_Charging_Adjusted_Penalty>  (1) 
0

>  <r_epik_Ionization_Penalty>  (1) 
0.002846787164494627

>  <r_epik_Ionization_Penalty_Charging>  (1) 
0

>  <r_epik_Ionization_Penalty_Neutral>  (1) 
0.002846787164494627

>  <r_epik_State_Penalty>  (1) 
-0

>  <r_glide_ring_energy>  (1) 
0

>  <r_i_docking_score>  (1) 
-5.2902391831971638

>  <r_i_glide_ecoul>  (1) 
-3.8448557559080525

>  <r_i_glide_eff_state_penalty>  (1) 
-0

>  <r_i_glide_einternal>  (1) 
8.0724284763766043

>  <r_i_glide_emodel>  (1) 
-60.733461230848114

>  <r_i_glide_emodel_strain>  (1) 
2.1466722196197594

>  <r_i_glide_energy>  (1) 
-50.809923356640837

>  <r_i_glide_erotb>  (1) 
0.93847147272533338

>  <r_i_glide_esite>  (1) 
0

>  <r_i_glide_evdw>  (1) 
-46.965067600732787

>  <r_i_glide_gscore>  (1) 
-5.2902391831971638

>  <r_i_glide_gscore_strain>  (1) 
0

>  <r_i_glide_hbond>  (1) 
-0.32000000000000001

>  <r_i_glide_ligand_efficiency>  (1) 
-0.1511496909484904

>  <r_i_glide_ligand_efficiency_ln>  (1) 
-1.1613249112445365

>  <r_i_glide_ligand_efficiency_sa>  (1) 
-0.49442066185702421

>  <r_i_glide_lipo>  (1) 
-3.1883402359275546

>  <r_i_glide_metal>  (1) 
-0

>  <r_i_glide_rewards>  (1) 
0.20461132342790567

>  <r_lp_Energy>  (1) 
30.891655999999998

>  <r_lp_tautomer_probability>  (1) 
1

>  <s_epik_Chemistry_Notes>  (1) 
This compound contains an acetal/aminal-like group ( X-CH(R)-Y where X, Y are N, S, or O) that may be acid/base labile, releasing an aldehyde. This compound has a N-S or N-O group and may undergo hydrolysis at high or low pH.

>  <s_epik_cmdline>  (1) 
J2VwaWtfcHl0aG9uJywgJy1waHQnLCAnMS4wJywgJy1waCcsICc3LjQnLCAnLXRuJywgJzgnLCAnLW1hJywgJzUwMCcsICctaW1hZScsICc8aW5maWxlLm1hZT4nLCAnLW9tYWUnLCAnPG91dGZpbGUubWFlPic=

>  <s_epik_input>  (1) 
RmMoW2NIXTEpW2NIXVtjSF1bY0hdYzFPQyg9TylbQ0BASF0oW0NIXT1bQ0hdMilPQyg9QzJDbClbQ0gyXVtOSF1bQ0BASF0oW0NIMl1bT0hdKVtDQEBIXShbQ0gyXU8zKVtDSF0oW05AQF0zNClbQ0BIXTRbTkhdQyg9TylbQ0BIXShbQ0gzXSlbQ0gyXVtPSF0=

>  <s_glide_docking_method>  (1) 
confgen

>  <s_i_glide_gridfile>  (1) 
gpcr_5ht2c_6bqh_protein_autoprepared_prepared

>  <s_lp_Force_Field>  (1) 
S-OPLS

>  <s_lp_Variant>  (1) 
DiffSBDD_85-2

>  <s_m_source_file>  (1) 
generated_GPCR_5HT2C_ligand_DiffSBDD_2026-06-23_prepared.sdf

>  <GenAI_Model>  (1) 
DiffSBDD

>  <Protein>  (1) 
GPCR_5HT2C

$$$$
DiffSBDD_91
     RDKit          3D

  0  0  0  0  0  0  0  0  0  0999 V3000
M  V30 BEGIN CTAB
M  V30 COUNTS 47 48 0 0 1
M  V30 BEGIN ATOM
M  V30 1 N 37.753741 32.850651 61.739107 0
M  V30 2 C 37.617120 33.548310 59.456198 0
M  V30 3 C 38.032579 32.453588 58.770792 0
M  V30 4 C 38.203734 26.845974 55.649134 0 CFG=1
M  V30 5 O 37.373940 25.376730 57.351669 0
M  V30 6 C 38.829440 30.255851 57.185610 0
M  V30 7 C 38.447777 31.532792 56.564720 0
M  V30 8 C 38.447163 31.130970 59.359404 0
M  V30 9 C 38.121313 26.945982 53.037573 0 CFG=2
M  V30 10 C 38.992877 27.003398 51.774551 0
M  V30 11 O 37.623448 24.545717 55.301479 0 CHG=-1
M  V30 12 C 38.507712 30.788407 60.672505 0
M  V30 13 C 37.690783 25.468349 56.144112 0
M  V30 14 C 41.024505 27.625667 58.339137 0
M  V30 15 C 38.177030 31.653670 61.767760 0
M  V30 16 O 37.420553 28.174167 53.087503 0
M  V30 17 C 38.976893 27.662557 56.736607 0 CFG=1
M  V30 18 C 40.299260 26.966246 57.159556 0
M  V30 19 N 37.465249 33.759269 60.822453 0
M  V30 20 N 38.828609 30.112355 58.455923 0
M  V30 21 C 38.074073 32.563315 57.326447 0
M  V30 22 N 36.995562 35.003602 61.230626 0
M  V30 23 C 39.227345 29.125816 56.244155 0
M  V30 24 C 38.981817 26.759908 54.302524 0
M  V30 25 H 37.341941 34.436407 58.902600 0
M  V30 26 H 37.283006 27.394290 55.464633 0
M  V30 27 H 38.481645 31.589486 55.487202 0
M  V30 28 H 37.393481 26.137761 52.968456 0
M  V30 29 H 39.645091 26.137856 51.698442 0
M  V30 30 H 39.634085 27.885408 51.768419 0
M  V30 31 H 38.379170 27.035259 50.876165 0
M  V30 32 H 38.833529 29.789349 60.925180 0
M  V30 33 H 41.938830 27.080737 58.573288 0
M  V30 34 H 40.397456 27.632713 59.231513 0
M  V30 35 H 41.310822 28.654381 58.120515 0
M  V30 36 H 38.323245 31.166167 62.731631 0
M  V30 37 H 38.044959 28.865717 53.238709 0
M  V30 38 H 38.329373 27.693536 57.614277 0
M  V30 39 H 40.981332 26.919510 56.310457 0
M  V30 40 H 40.101886 25.930003 57.433714 0
M  V30 41 H 37.791071 33.493111 56.853526 0
M  V30 42 H 36.126475 35.180269 60.730452 0
M  V30 43 H 36.785340 34.938800 62.224336 0
M  V30 44 H 38.671291 29.291064 55.322518 0
M  V30 45 H 40.273259 29.262041 55.968197 0
M  V30 46 H 39.767884 27.506486 54.280840 0
M  V30 47 H 39.521634 25.813604 54.237703 0
M  V30 END ATOM
M  V30 BEGIN BOND
M  V30 1 2 3 2
M  V30 2 1 7 6
M  V30 3 1 8 3
M  V30 4 1 10 9
M  V30 5 2 12 8
M  V30 6 1 13 4
M  V30 7 2 13 5
M  V30 8 1 13 11
M  V30 9 2 15 1
M  V30 10 1 15 12
M  V30 11 1 16 9
M  V30 12 1 17 4
M  V30 13 1 18 14
M  V30 14 1 18 17
M  V30 15 1 19 1
M  V30 16 1 19 2
M  V30 17 2 20 6
M  V30 18 1 20 8
M  V30 19 1 21 3
M  V30 20 2 21 7
M  V30 21 1 22 19
M  V30 22 1 23 6
M  V30 23 1 23 17
M  V30 24 1 24 4
M  V30 25 1 24 9
M  V30 26 1 25 2
M  V30 27 1 4 26 CFG=3
M  V30 28 1 27 7
M  V30 29 1 9 28 CFG=3
M  V30 30 1 29 10
M  V30 31 1 30 10
M  V30 32 1 31 10
M  V30 33 1 32 12
M  V30 34 1 33 14
M  V30 35 1 34 14
M  V30 36 1 35 14
M  V30 37 1 36 15
M  V30 38 1 37 16
M  V30 39 1 17 38 CFG=1
M  V30 40 1 39 18
M  V30 41 1 40 18
M  V30 42 1 41 21
M  V30 43 1 42 22
M  V30 44 1 43 22
M  V30 45 1 44 23
M  V30 46 1 45 23
M  V30 47 1 46 24
M  V30 48 1 47 24
M  V30 END BOND
M  V30 END CTAB
M  END
>  <i_epik_Tot_Q>  (1) 
-1

>  <i_epik_Tot_abs_Q>  (1) 
1

>  <i_i_glide_confnum>  (1) 
231

>  <i_i_glide_lignum>  (1) 
211

>  <i_i_glide_posenum>  (1) 
221

>  <i_i_glide_rotatable_bonds>  (1) 
8

>  <i_lp_mmshare_version>  (1) 
72125

>  <i_m_source_file_index>  (1) 
92

>  <i_f3d_flags>  (1) 
0

>  <num_sample>  (1) 
100

>  <b_lp_Chiralities_Consistent>  (1) 
1

>  <r_epik_Charging_Adjusted_Penalty>  (1) 
0.00040007819211634345

>  <r_epik_Ionization_Penalty>  (1) 
0.00040449686215294139

>  <r_epik_Ionization_Penalty_Charging>  (1) 
0.00040007819211634345

>  <r_epik_Ionization_Penalty_Neutral>  (1) 
4.4186700365979628e-06

>  <r_epik_State_Penalty>  (1) 
-0

>  <r_glide_ring_energy>  (1) 
0

>  <r_i_docking_score>  (1) 
-5.2853168127038552

>  <r_i_glide_ecoul>  (1) 
-0.96076702063387076

>  <r_i_glide_eff_state_penalty>  (1) 
-0

>  <r_i_glide_einternal>  (1) 
10.770633760274716

>  <r_i_glide_emodel>  (1) 
-47.118603980950049

>  <r_i_glide_emodel_strain>  (1) 
0.93673510167195673

>  <r_i_glide_energy>  (1) 
-37.897924281274335

>  <r_i_glide_erotb>  (1) 
0.85685710586464559

>  <r_i_glide_esite>  (1) 
0

>  <r_i_glide_evdw>  (1) 
-36.937157260640461

>  <r_i_glide_gscore>  (1) 
-5.2853168127038552

>  <r_i_glide_gscore_strain>  (1) 
0

>  <r_i_glide_hbond>  (1) 
0

>  <r_i_glide_ligand_efficiency>  (1) 
-0.22022153386266063

>  <r_i_glide_ligand_efficiency_ln>  (1) 
-1.2650188406652716

>  <r_i_glide_ligand_efficiency_sa>  (1) 
-0.63522882517172141

>  <r_i_glide_lipo>  (1) 
-1.7545052547135138

>  <r_i_glide_metal>  (1) 
-0

>  <r_i_glide_rewards>  (1) 
-2.3966957477278834

>  <r_lp_Energy>  (1) 
41.094901

>  <r_lp_tautomer_probability>  (1) 
1

>  <s_epik_Chemistry_Notes>  (1) 
This compound has an imine and may undergo hydrolysis.

>  <s_epik_cmdline>  (1) 
J2VwaWtfcHl0aG9uJywgJy1waHQnLCAnMS4wJywgJy1waCcsICc3LjQnLCAnLXRuJywgJzgnLCAnLW1hJywgJzUwMCcsICctaW1hZScsICc8aW5maWxlLm1hZT4nLCAnLW9tYWUnLCAnPG91dGZpbGUubWFlPic=

>  <s_epik_input>  (1) 
W0NIXT0xTihbTkgyXSlOPVtDSF1bQ0hdPWMoYzEyKW5jKFtjSF1bY0hdMilbQ0gyXVtDQEhdKFtDSDJdW0NIM10pW0NASF0oQyg9TylbT0hdKVtDSDJdW0NASF0oW0NIM10pW09IXQ==

>  <s_glide_docking_method>  (1) 
confgen

>  <s_i_glide_gridfile>  (1) 
gpcr_5ht2c_6bqh_protein_autoprepared_prepared

>  <s_lp_Force_Field>  (1) 
S-OPLS

>  <s_lp_Variant>  (1) 
DiffSBDD_91-1

>  <s_m_source_file>  (1) 
generated_GPCR_5HT2C_ligand_DiffSBDD_2026-06-23_prepared.sdf

>  <GenAI_Model>  (1) 
DiffSBDD

>  <Protein>  (1) 
GPCR_5HT2C

$$$$
DiffSBDD_86
     RDKit          3D

  0  0  0  0  0  0  0  0  0  0999 V3000
M  V30 BEGIN CTAB
M  V30 COUNTS 77 79 0 0 1
M  V30 BEGIN ATOM
M  V30 1 C 39.196205 29.023029 53.098529 0
M  V30 2 C 42.657670 30.505774 64.021860 0
M  V30 3 C 40.104179 29.123728 58.065903 0 CFG=2
M  V30 4 C 42.883952 29.396678 65.051987 0
M  V30 5 N 39.613531 27.736897 57.957769 0
M  V30 6 C 35.567796 33.683649 61.749389 0
M  V30 7 N 38.762510 28.827417 54.400734 0
M  V30 8 C 39.229809 32.305824 59.778307 0
M  V30 9 O 37.244979 30.137705 56.696824 0
M  V30 10 O 38.836542 35.864718 60.567783 0
M  V30 11 C 37.400481 34.013489 60.044304 0 CFG=2
M  V30 12 C 38.847317 30.811235 59.706200 0
M  V30 13 C 38.990079 27.127370 58.967604 0
M  V30 14 N 38.343978 33.033813 60.710170 0 CFG=2 CHG=1
M  V30 15 C 37.676943 35.531708 60.249106 0
M  V30 16 C 39.645158 30.212545 52.511698 0
M  V30 17 C 40.029824 29.077828 50.384134 0
M  V30 18 O 38.845165 27.737935 60.051299 0
M  V30 19 C 39.789350 27.052864 56.688150 0
M  V30 20 C 39.580077 27.876150 50.954279 0
M  V30 21 C 41.342780 29.154068 59.007430 0
M  V30 22 S 38.584876 26.537768 53.268207 0
M  V30 23 O 36.724241 36.317728 60.066285 0 CHG=-1
M  V30 24 C 39.071330 33.418179 61.955025 0
M  V30 25 C 38.972034 30.191980 58.295238 0 CFG=2
M  V30 26 C 34.899132 33.826915 59.214106 0
M  V30 27 O 37.674589 29.671129 58.004764 0
M  V30 28 N 41.219851 30.725700 63.766314 0 CHG=1
M  V30 29 C 38.416385 27.009846 56.005034 0
M  V30 30 C 39.173523 27.857768 52.296273 0
M  V30 31 O 39.659740 31.337697 53.253241 0 CHG=-1
M  V30 32 C 39.457327 32.206709 62.823355 0
M  V30 33 C 38.567391 27.540522 54.659402 0
M  V30 34 C 35.350256 32.432067 59.574144 0
M  V30 35 C 35.936943 33.614064 60.298826 0
M  V30 36 O 38.567124 25.960346 58.802160 0 CHG=-1
M  V30 37 C 40.062040 30.247599 51.163526 0
M  V30 38 C 40.946584 31.817292 62.807200 0
M  V30 39 H 43.163525 30.253766 63.089105 0
M  V30 40 H 43.103763 31.431427 64.386723 0
M  V30 41 H 40.445024 29.385306 57.068473 0
M  V30 42 H 43.950117 29.266114 65.245502 0
M  V30 43 H 42.405848 29.631865 66.004104 0
M  V30 44 H 42.490244 28.441807 64.701519 0
M  V30 45 H 34.493526 33.560048 61.893305 0
M  V30 46 H 36.079763 32.829005 62.167683 0
M  V30 47 H 35.886208 34.616787 62.214262 0
M  V30 48 H 40.243563 32.396347 60.167802 0
M  V30 49 H 39.244621 32.778951 58.797219 0
M  V30 50 H 36.599880 30.816525 56.917840 0
M  V30 51 H 37.514425 33.909247 58.965424 0
M  V30 52 H 37.810751 30.697972 60.027530 0
M  V30 53 H 39.404105 30.239473 60.446971 0
M  V30 54 H 40.344677 29.105302 49.351958 0
M  V30 55 H 40.560433 27.520678 56.074353 0
M  V30 56 H 40.153246 26.035163 56.848233 0
M  V30 57 H 39.549404 26.971083 50.365598 0
M  V30 58 H 41.642754 30.136250 59.366727 0
M  V30 59 H 41.182614 28.576406 59.915852 0
M  V30 60 H 42.200200 28.702171 58.505665 0
M  V30 61 H 39.972166 33.991311 61.730897 0
M  V30 62 H 38.445059 34.080153 62.538735 0
M  V30 63 H 39.177505 31.004133 57.597147 0
M  V30 64 H 33.899336 34.132534 59.517716 0
M  V30 65 H 35.231640 34.228720 58.260669 0
M  V30 66 H 40.777173 30.956614 64.644058 0
M  V30 67 H 38.051139 25.984139 55.949342 0
M  V30 68 H 37.644588 27.577414 56.521385 0
M  V30 69 H 39.247794 32.528949 63.831769 0
M  V30 70 H 38.812985 31.346560 62.631445 0
M  V30 71 H 36.059789 31.884761 58.967569 0
M  V30 72 H 34.629724 31.806414 60.095559 0
M  V30 73 H 40.402128 31.177303 50.729627 0
M  V30 74 H 41.272128 31.488966 61.821105 0
M  V30 75 H 41.549381 32.690004 63.067415 0
M  V30 76 H 40.807711 29.867949 63.420474 0
M  V30 77 H 37.694299 32.326986 61.019243 0
M  V30 END ATOM
M  V30 BEGIN BOND
M  V30 1 1 4 2
M  V30 2 1 5 3
M  V30 3 1 7 1
M  V30 4 1 12 8
M  V30 5 1 13 5
M  V30 6 1 14 8
M  V30 7 1 14 11
M  V30 8 2 15 10
M  V30 9 1 15 11
M  V30 10 2 16 1
M  V30 11 2 18 13
M  V30 12 1 19 5
M  V30 13 1 20 17
M  V30 14 1 21 3
M  V30 15 1 23 15
M  V30 16 1 24 14
M  V30 17 1 25 3
M  V30 18 1 25 12
M  V30 19 1 27 9
M  V30 20 1 27 25
M  V30 21 1 28 2
M  V30 22 1 29 19
M  V30 23 1 30 1
M  V30 24 2 30 20
M  V30 25 1 30 22
M  V30 26 1 31 16
M  V30 27 1 32 24
M  V30 28 2 33 7
M  V30 29 1 33 22
M  V30 30 1 33 29
M  V30 31 1 34 26
M  V30 32 1 35 6
M  V30 33 1 35 11
M  V30 34 1 35 26
M  V30 35 1 35 34
M  V30 36 1 36 13
M  V30 37 1 37 16
M  V30 38 2 37 17
M  V30 39 1 38 28
M  V30 40 1 38 32
M  V30 41 1 39 2
M  V30 42 1 40 2
M  V30 43 1 3 41 CFG=3
M  V30 44 1 42 4
M  V30 45 1 43 4
M  V30 46 1 44 4
M  V30 47 1 45 6
M  V30 48 1 46 6
M  V30 49 1 47 6
M  V30 50 1 48 8
M  V30 51 1 49 8
M  V30 52 1 50 9
M  V30 53 1 11 51 CFG=3
M  V30 54 1 52 12
M  V30 55 1 53 12
M  V30 56 1 54 17
M  V30 57 1 55 19
M  V30 58 1 56 19
M  V30 59 1 57 20
M  V30 60 1 58 21
M  V30 61 1 59 21
M  V30 62 1 60 21
M  V30 63 1 61 24
M  V30 64 1 62 24
M  V30 65 1 25 63 CFG=3
M  V30 66 1 64 26
M  V30 67 1 65 26
M  V30 68 1 66 28
M  V30 69 1 67 29
M  V30 70 1 68 29
M  V30 71 1 69 32
M  V30 72 1 70 32
M  V30 73 1 71 34
M  V30 74 1 72 34
M  V30 75 1 73 37
M  V30 76 1 74 38
M  V30 77 1 75 38
M  V30 78 1 76 28
M  V30 79 1 14 77 CFG=1
M  V30 END BOND
M  V30 END CTAB
M  END
>  <i_epik_Tot_Q>  (1) 
-1

>  <i_epik_Tot_abs_Q>  (1) 
5

>  <i_i_glide_confnum>  (1) 
2842

>  <i_i_glide_lignum>  (1) 
206

>  <i_i_glide_posenum>  (1) 
197

>  <i_i_glide_rotatable_bonds>  (1) 
19

>  <i_lp_mmshare_version>  (1) 
72125

>  <i_m_source_file_index>  (1) 
87

>  <i_f3d_flags>  (1) 
0

>  <num_sample>  (1) 
100

>  <b_lp_Chiralities_Consistent>  (1) 
1

>  <r_epik_Charging_Adjusted_Penalty>  (1) 
1.7068457012274814

>  <r_epik_Ionization_Penalty>  (1) 
0.85572285372979207

>  <r_epik_Ionization_Penalty_Charging>  (1) 
0.8536556191236474

>  <r_epik_Ionization_Penalty_Neutral>  (1) 
0.0020672346061446629

>  <r_epik_State_Penalty>  (1) 
0.85319008210383396

>  <r_glide_ring_energy>  (1) 
0

>  <r_i_docking_score>  (1) 
-5.2847203461146437

>  <r_i_glide_ecoul>  (1) 
-5.6263362502517733

>  <r_i_glide_eff_state_penalty>  (1) 
0.85319008210383396

>  <r_i_glide_einternal>  (1) 
13.618506840643375

>  <r_i_glide_emodel>  (1) 
-43.136143857086857

>  <r_i_glide_emodel_strain>  (1) 
6.2996361264957983

>  <r_i_glide_energy>  (1) 
-34.355191832093425

>  <r_i_glide_erotb>  (1) 
0.88358493265308913

>  <r_i_glide_esite>  (1) 
-0.14597962210444071

>  <r_i_glide_evdw>  (1) 
-28.728855581841653

>  <r_i_glide_gscore>  (1) 
-6.1379104282184773

>  <r_i_glide_gscore_strain>  (1) 
0.57490903162394957

>  <r_i_glide_hbond>  (1) 
-0.16

>  <r_i_glide_ligand_efficiency>  (1) 
-0.13907158805564851

>  <r_i_glide_ligand_efficiency_ln>  (1) 
-1.1395411673443581

>  <r_i_glide_ligand_efficiency_sa>  (1) 
-0.46755525882756688

>  <r_i_glide_lipo>  (1) 
-3.8628830754907604

>  <r_i_glide_metal>  (1) 
-0

>  <r_i_glide_rewards>  (1) 
-1.1471484782704657

>  <r_lp_Energy>  (1) 
38.436468999999995

>  <s_epik_cmdline>  (1) 
J2VwaWtfcHl0aG9uJywgJy1waHQnLCAnMS4wJywgJy1waCcsICc3LjQnLCAnLXRuJywgJzgnLCAnLW1hJywgJzUwMCcsICctaW1hZScsICc8aW5maWxlLm1hZT4nLCAnLW9tYWUnLCAnPG91dGZpbGUubWFlPic=

>  <s_epik_input>  (1) 
W09IXWMxW2NIXVtjSF1bY0hdYyhjMTIpc2MobjIpW0NIMl1bQ0gyXU4oQyg9TylbT0hdKVtDQEhdKFtDSDNdKVtDQEBIXShPW09IXSlbQ0gyXVtDSDJdTihbQ0BIXShDKD1PKVtPSF0pQzMoW0NIM10pW0NIMl1bQ0gyXTMpW0NIMl1bQ0gyXVtDSDJdW05IXVtDSDJdW0NIM10=

>  <s_glide_docking_method>  (1) 
confgen

>  <s_i_glide_gridfile>  (1) 
gpcr_5ht2c_6bqh_protein_autoprepared_prepared

>  <s_lp_Force_Field>  (1) 
S-OPLS

>  <s_lp_Variant>  (1) 
DiffSBDD_86-3

>  <s_m_source_file>  (1) 
generated_GPCR_5HT2C_ligand_DiffSBDD_2026-06-23_prepared.sdf

>  <GenAI_Model>  (1) 
DiffSBDD

>  <Protein>  (1) 
GPCR_5HT2C

$$$$
DiffSBDD_16
     RDKit          3D

  0  0  0  0  0  0  0  0  0  0999 V3000
M  V30 BEGIN CTAB
M  V30 COUNTS 69 73 0 0 1
M  V30 BEGIN ATOM
M  V30 1 C 38.881527 31.089234 56.878277 0
M  V30 2 C 43.936413 32.133498 66.595781 0
M  V30 3 C 40.277931 33.131572 61.342109 0 CFG=1
M  V30 4 C 40.584550 31.821444 62.114672 0
M  V30 5 C 38.502526 28.785513 56.090478 0
M  V30 6 C 39.204220 29.069025 54.910896 0
M  V30 7 C 36.128817 31.146419 60.186065 0
M  V30 8 C 35.842764 32.056469 61.379999 0
M  V30 9 C 38.799580 33.583711 61.347326 0
M  V30 10 C 39.734374 30.348911 54.700406 0
M  V30 11 O 38.247344 30.056515 59.999248 0
M  V30 12 C 42.564869 33.156355 64.868060 0
M  V30 13 C 41.535481 33.189709 63.967993 0
M  V30 14 C 41.205394 34.462021 63.212047 0
M  V30 15 C 43.042514 31.987588 65.646543 0
M  V30 16 C 38.323201 29.787437 57.067991 0
M  V30 17 N 44.338096 30.982935 67.226422 0
M  V30 18 C 43.766593 27.981477 65.343890 0
M  V30 19 N 41.173857 34.213372 61.769899 0
M  V30 20 C 43.103435 28.621769 64.166972 0
M  V30 21 C 37.936319 27.397774 56.313812 0
M  V30 22 C 35.738970 33.564937 61.064349 0
M  V30 23 C 36.648766 35.656132 59.919446 0
M  V30 24 C 36.651392 34.117641 59.944296 0 CFG=1
M  V30 25 C 38.758802 32.237289 57.875467 0
M  V30 26 C 38.095804 33.565235 59.950252 0 CFG=2
M  V30 27 C 37.601098 31.079402 59.770657 0
M  V30 28 C 42.626289 30.574087 65.442967 0 CFG=2
M  V30 29 C 38.183481 32.271237 59.127702 0
M  V30 30 C 43.747688 30.128393 66.457410 0
M  V30 31 N 42.762009 29.865744 64.149986 0
M  V30 32 C 39.578236 31.348515 55.675141 0
M  V30 33 C 40.618867 32.025870 63.635059 0
M  V30 34 C 44.094476 28.712869 66.425197 0
M  V30 35 H 44.378044 33.073436 66.894908 0
M  V30 36 H 40.507066 32.936407 60.298897 0
M  V30 37 H 39.851870 31.053593 61.867397 0
M  V30 38 H 41.548405 31.429768 61.790241 0
M  V30 39 H 39.333086 28.301710 54.162923 0
M  V30 40 H 35.527463 31.449021 59.327873 0
M  V30 41 H 35.813349 30.137616 60.429250 0
M  V30 42 H 34.909277 31.736735 61.829910 0
M  V30 43 H 36.569322 31.863442 62.165851 0
M  V30 44 H 38.270015 33.004242 62.092497 0
M  V30 45 H 38.734355 34.606857 61.717975 0
M  V30 46 H 40.270075 30.567484 53.788315 0
M  V30 47 H 43.103214 34.082582 65.016558 0
M  V30 48 H 40.240981 34.847256 63.544733 0
M  V30 49 H 41.960978 35.224570 63.416528 0
M  V30 50 H 37.760142 29.545490 57.928736 0
M  V30 51 H 44.009183 26.932512 65.259183 0
M  V30 52 H 42.111373 33.970075 61.485398 0
M  V30 53 H 42.942664 27.967059 63.306465 0
M  V30 54 H 37.255163 27.374517 57.167171 0
M  V30 55 H 37.389358 27.064315 55.431413 0
M  V30 56 H 38.739591 26.683676 56.498268 0
M  V30 57 H 34.706883 33.775331 60.784788 0
M  V30 58 H 35.901508 34.126211 61.982772 0
M  V30 59 H 37.044238 36.077256 60.844318 0
M  V30 60 H 37.247344 36.040779 59.093212 0
M  V30 61 H 35.644948 36.043736 59.768772 0
M  V30 62 H 36.199502 33.815872 58.996346 0
M  V30 63 H 39.162692 33.170704 57.513155 0
M  V30 64 H 38.683519 34.272703 59.370174 0
M  V30 65 H 41.657343 30.388278 65.908878 0
M  V30 66 H 39.998302 32.327519 55.502300 0
M  V30 67 H 40.673532 31.100479 64.175594 0
M  V30 68 H 39.640661 32.393022 63.926573 0
M  V30 69 H 44.629562 28.307346 67.271776 0
M  V30 END ATOM
M  V30 BEGIN BOND
M  V30 1 1 4 3
M  V30 2 1 6 5
M  V30 3 1 8 7
M  V30 4 1 9 3
M  V30 5 2 10 6
M  V30 6 2 13 12
M  V30 7 1 14 13
M  V30 8 2 15 2
M  V30 9 1 15 12
M  V30 10 1 16 1
M  V30 11 2 16 5
M  V30 12 1 17 2
M  V30 13 1 19 3
M  V30 14 1 19 14
M  V30 15 1 20 18
M  V30 16 1 21 5
M  V30 17 1 22 8
M  V30 18 1 24 22
M  V30 19 1 24 23
M  V30 20 1 25 1
M  V30 21 1 26 9
M  V30 22 1 26 24
M  V30 23 1 27 7
M  V30 24 2 27 11
M  V30 25 1 28 15
M  V30 26 2 29 25
M  V30 27 1 29 26
M  V30 28 1 29 27
M  V30 29 2 30 17
M  V30 30 1 30 28
M  V30 31 2 31 20
M  V30 32 1 31 28
M  V30 33 2 32 1
M  V30 34 1 32 10
M  V30 35 1 33 4
M  V30 36 1 33 13
M  V30 37 2 34 18
M  V30 38 1 34 30
M  V30 39 1 35 2
M  V30 40 1 3 36 CFG=3
M  V30 41 1 37 4
M  V30 42 1 38 4
M  V30 43 1 39 6
M  V30 44 1 40 7
M  V30 45 1 41 7
M  V30 46 1 42 8
M  V30 47 1 43 8
M  V30 48 1 44 9
M  V30 49 1 45 9
M  V30 50 1 46 10
M  V30 51 1 47 12
M  V30 52 1 48 14
M  V30 53 1 49 14
M  V30 54 1 50 16
M  V30 55 1 51 18
M  V30 56 1 52 19
M  V30 57 1 53 20
M  V30 58 1 54 21
M  V30 59 1 55 21
M  V30 60 1 56 21
M  V30 61 1 57 22
M  V30 62 1 58 22
M  V30 63 1 59 23
M  V30 64 1 60 23
M  V30 65 1 61 23
M  V30 66 1 24 62 CFG=3
M  V30 67 1 63 25
M  V30 68 1 26 64 CFG=3
M  V30 69 1 28 65 CFG=1
M  V30 70 1 66 32
M  V30 71 1 67 33
M  V30 72 1 68 33
M  V30 73 1 69 34
M  V30 END BOND
M  V30 END CTAB
M  END
>  <i_epik_Tot_Q>  (1) 
0

>  <i_epik_Tot_abs_Q>  (1) 
0

>  <i_i_glide_confnum>  (1) 
12

>  <i_i_glide_lignum>  (1) 
38

>  <i_i_glide_posenum>  (1) 
107

>  <i_i_glide_rotatable_bonds>  (1) 
4

>  <i_lp_mmshare_version>  (1) 
72125

>  <i_m_source_file_index>  (1) 
17

>  <i_f3d_flags>  (1) 
0

>  <num_sample>  (1) 
100

>  <b_lp_Chiralities_Consistent>  (1) 
1

>  <r_epik_Charging_Adjusted_Penalty>  (1) 
0.56391873878667209

>  <r_epik_Ionization_Penalty>  (1) 
0.56391873878667209

>  <r_epik_Ionization_Penalty_Charging>  (1) 
0

>  <r_epik_Ionization_Penalty_Neutral>  (1) 
0.56391873878667209

>  <r_epik_State_Penalty>  (1) 
0.56391873878667209

>  <r_glide_ring_energy>  (1) 
2.0215911855591866

>  <r_i_docking_score>  (1) 
-5.2816849227691609

>  <r_i_glide_ecoul>  (1) 
-0.19733227410465154

>  <r_i_glide_eff_state_penalty>  (1) 
0.56391873878667209

>  <r_i_glide_einternal>  (1) 
9.7922537785319683

>  <r_i_glide_emodel>  (1) 
-45.991839256844685

>  <r_i_glide_emodel_strain>  (1) 
1.1729732362304048

>  <r_i_glide_energy>  (1) 
-41.030916924482192

>  <r_i_glide_erotb>  (1) 
0.29265828080580603

>  <r_i_glide_esite>  (1) 
-0.033364555241084462

>  <r_i_glide_evdw>  (1) 
-40.833584650377539

>  <r_i_glide_gscore>  (1) 
-5.8456036615558329

>  <r_i_glide_gscore_strain>  (1) 
0

>  <r_i_glide_hbond>  (1) 
0

>  <r_i_glide_ligand_efficiency>  (1) 
-0.15534367419909298

>  <r_i_glide_ligand_efficiency_ln>  (1) 
-1.1668723456837435

>  <r_i_glide_ligand_efficiency_sa>  (1) 
-0.50325320018918618

>  <r_i_glide_lipo>  (1) 
-2.8284324862920265

>  <r_i_glide_metal>  (1) 
-0

>  <r_i_glide_rewards>  (1) 
-1.2051858271939544

>  <r_lp_Energy>  (1) 
60.789839000000001

>  <s_epik_Chemistry_Notes>  (1) 
This compound has an imine and may undergo hydrolysis.

>  <s_epik_cmdline>  (1) 
J2VwaWtfcHl0aG9uJywgJy1waHQnLCAnMS4wJywgJy1waCcsICc3LjQnLCAnLXRuJywgJzgnLCAnLW1hJywgJzUwMCcsICctaW1hZScsICc8aW5maWxlLm1hZT4nLCAnLW9tYWUnLCAnPG91dGZpbGUubWFlPic=

>  <s_epik_input>  (1) 
W2NIXTFbY0hdW2NIXWMoW0NIM10pW2NIXWMxL1tDSF09QyhDKD1PKVtDSDJdW0NIMl1bQ0gyXVtDQEhdMltDSDNdKS9bQ0BASF0yW0NIMl1bQ0BASF0zW0NIMl1bQ0gyXUMoL1tDSDJdW05IXTMpPVtDSF1cQzQ9W0NIXU49QyhbQ0BASF00NSlbQ0hdPVtDSF1bQ0hdPU41

>  <s_glide_docking_method>  (1) 
confgen

>  <s_i_glide_gridfile>  (1) 
gpcr_5ht2c_6bqh_protein_autoprepared_prepared

>  <s_lp_Force_Field>  (1) 
S-OPLS

>  <s_lp_Variant>  (1) 
DiffSBDD_16-6

>  <s_m_source_file>  (1) 
generated_GPCR_5HT2C_ligand_DiffSBDD_2026-06-23_prepared.sdf

>  <GenAI_Model>  (1) 
DiffSBDD

>  <Protein>  (1) 
GPCR_5HT2C

$$$$
DiffSBDD_57
     RDKit          3D

  0  0  0  0  0  0  0  0  0  0999 V3000
M  V30 BEGIN CTAB
M  V30 COUNTS 64 66 0 0 1
M  V30 BEGIN ATOM
M  V30 1 O 38.866928 29.189397 54.797011 0
M  V30 2 C 38.941099 32.831489 55.368959 0
M  V30 3 C 38.591180 26.367931 54.595549 0
M  V30 4 C 38.663856 31.181937 57.191195 0 CFG=2
M  V30 5 C 39.547350 34.600710 61.411543 0
M  V30 6 S 38.045140 33.737707 56.592085 0
M  V30 7 O 40.162825 34.937801 60.415131 0
M  V30 8 C 39.654633 31.760880 56.146073 0
M  V30 9 N 37.645152 37.140749 60.107385 0
M  V30 10 C 37.332083 25.444712 56.619165 0 CFG=2
M  V30 11 N 38.553777 33.677976 61.418696 0
M  V30 12 C 38.105469 29.117707 55.756496 0
M  V30 13 O 37.294439 24.212892 55.891325 0
M  V30 14 C 37.593784 30.400463 56.397177 0
M  V30 15 C 38.617882 33.053650 59.037687 0
M  V30 16 C 39.047071 37.737310 62.004220 0 CFG=2
M  V30 17 O 37.645259 23.749157 58.131216 0
M  V30 18 C 38.041115 33.039589 60.262154 0
M  V30 19 C 37.629494 37.356797 61.550527 0 CFG=1
M  V30 20 C 37.993172 32.425258 57.823727 0 CFG=2
M  V30 21 C 39.244809 30.217243 58.265731 0
M  V30 22 C 40.093604 36.749119 62.540508 0 CFG=2
M  V30 23 C 37.871884 26.601825 55.861334 0
M  V30 24 C 39.848581 35.269826 62.736452 0 CFG=2
M  V30 25 C 39.432436 37.723389 63.466250 0
M  V30 26 N 38.247877 24.413648 57.021835 0
M  V30 27 N 39.645117 25.487281 54.567812 0
M  V30 28 C 36.550631 38.420877 61.898896 0
M  V30 29 O 36.845175 39.697957 61.367769 0
M  V30 30 O 36.451179 36.391691 59.767670 0
M  V30 31 C 38.220181 27.003708 53.464819 0
M  V30 32 C 37.645135 27.847284 56.374039 0
M  V30 33 Cl 41.243935 34.495901 63.533177 0
M  V30 34 H 39.645073 33.536478 54.967757 0
M  V30 35 H 38.293965 32.453749 54.577474 0
M  V30 36 H 40.445143 32.343080 56.567723 0
M  V30 37 H 40.150157 31.044664 55.497284 0
M  V30 38 H 38.390148 36.507922 59.840151 0
M  V30 39 H 36.446605 25.656228 57.216429 0
M  V30 40 H 38.077373 33.490466 62.289113 0
M  V30 41 H 37.126502 31.009120 55.625315 0
M  V30 42 H 36.778951 30.137504 57.070464 0
M  V30 43 H 39.557280 33.536946 58.869638 0
M  V30 44 H 39.456327 38.573026 61.438886 0
M  V30 45 H 37.215997 23.020663 57.705500 0
M  V30 46 H 37.105531 32.532063 60.447578 0
M  V30 47 H 37.356599 36.424311 62.043951 0
M  V30 48 H 36.975574 32.206110 58.149494 0
M  V30 49 H 39.645162 30.700720 59.150315 0
M  V30 50 H 38.454834 29.573189 58.658628 0
M  V30 51 H 40.017705 29.567548 57.853015 0
M  V30 52 H 41.120085 36.962297 62.250900 0
M  V30 53 H 38.979599 35.156217 63.367777 0
M  V30 54 H 38.709695 37.338636 64.182960 0
M  V30 55 H 40.045117 38.537922 63.826672 0
M  V30 56 H 39.951282 24.996162 55.396788 0
M  V30 57 H 35.565817 38.137865 61.533237 0
M  V30 58 H 36.445043 38.513474 62.978667 0
M  V30 59 H 36.543654 39.710185 60.460273 0
M  V30 60 H 36.734821 35.491762 59.842605 0
M  V30 61 H 38.742537 26.837288 52.534573 0
M  V30 62 H 37.388405 27.694205 53.457217 0
M  V30 63 H 37.094519 27.933137 57.305211 0
M  V30 64 H 40.178345 25.322814 53.727859 0
M  V30 END ATOM
M  V30 BEGIN BOND
M  V30 1 1 6 2
M  V30 2 2 7 5
M  V30 3 1 8 2
M  V30 4 1 8 4
M  V30 5 1 11 5
M  V30 6 2 12 1
M  V30 7 1 13 10
M  V30 8 1 4 14 CFG=3
M  V30 9 1 14 12
M  V30 10 1 18 11
M  V30 11 2 18 15
M  V30 12 1 19 9
M  V30 13 1 19 16
M  V30 14 1 20 4
M  V30 15 1 20 6
M  V30 16 1 20 15
M  V30 17 1 21 4
M  V30 18 1 22 16
M  V30 19 1 23 3
M  V30 20 1 23 10
M  V30 21 1 24 5
M  V30 22 1 24 22
M  V30 23 1 25 16
M  V30 24 1 25 22
M  V30 25 1 26 10
M  V30 26 1 26 13
M  V30 27 1 26 17
M  V30 28 1 27 3
M  V30 29 1 28 19
M  V30 30 1 29 28
M  V30 31 1 30 9
M  V30 32 2 31 3
M  V30 33 1 32 12
M  V30 34 2 32 23
M  V30 35 1 33 24
M  V30 36 1 34 2
M  V30 37 1 35 2
M  V30 38 1 36 8
M  V30 39 1 37 8
M  V30 40 1 38 9
M  V30 41 1 10 39 CFG=1
M  V30 42 1 40 11
M  V30 43 1 41 14
M  V30 44 1 42 14
M  V30 45 1 43 15
M  V30 46 1 16 44 CFG=3
M  V30 47 1 45 17
M  V30 48 1 46 18
M  V30 49 1 19 47 CFG=1
M  V30 50 1 20 48 CFG=1
M  V30 51 1 49 21
M  V30 52 1 50 21
M  V30 53 1 51 21
M  V30 54 1 22 52 CFG=3
M  V30 55 1 24 53 CFG=1
M  V30 56 1 54 25
M  V30 57 1 55 25
M  V30 58 1 56 27
M  V30 59 1 57 28
M  V30 60 1 58 28
M  V30 61 1 59 29
M  V30 62 1 60 30
M  V30 63 1 61 31
M  V30 64 1 62 31
M  V30 65 1 63 32
M  V30 66 1 64 27
M  V30 END BOND
M  V30 END CTAB
M  END
>  <i_epik_Tot_Q>  (1) 
0

>  <i_epik_Tot_abs_Q>  (1) 
0

>  <i_i_glide_confnum>  (1) 
3634

>  <i_i_glide_lignum>  (1) 
128

>  <i_i_glide_posenum>  (1) 
364

>  <i_i_glide_rotatable_bonds>  (1) 
16

>  <i_lp_mmshare_version>  (1) 
72125

>  <i_m_source_file_index>  (1) 
58

>  <i_f3d_flags>  (1) 
0

>  <num_sample>  (1) 
100

>  <b_lp_Chiralities_Consistent>  (1) 
1

>  <r_epik_Charging_Adjusted_Penalty>  (1) 
0.024416195549470061

>  <r_epik_Ionization_Penalty>  (1) 
0.014246986074461085

>  <r_epik_Ionization_Penalty_Charging>  (1) 
6.6592516266621022e-05

>  <r_epik_Ionization_Penalty_Neutral>  (1) 
0.014180393558194464

>  <r_epik_State_Penalty>  (1) 
0.024349603033203441

>  <r_glide_ring_energy>  (1) 
0.20502008593199658

>  <r_i_docking_score>  (1) 
-5.2774119740672241

>  <r_i_glide_ecoul>  (1) 
-5.9907291495203268

>  <r_i_glide_eff_state_penalty>  (1) 
0.024349603033203441

>  <r_i_glide_einternal>  (1) 
22.400446921961169

>  <r_i_glide_emodel>  (1) 
-28.727066079211394

>  <r_i_glide_emodel_strain>  (1) 
2.0242278019301665

>  <r_i_glide_energy>  (1) 
-28.826728963308742

>  <r_i_glide_erotb>  (1) 
1.0500022235395752

>  <r_i_glide_esite>  (1) 
-0.0016505552882483733

>  <r_i_glide_evdw>  (1) 
-22.835999813788415

>  <r_i_glide_gscore>  (1) 
-5.3017615771004278

>  <r_i_glide_gscore_strain>  (1) 
0

>  <r_i_glide_hbond>  (1) 
-0.32000000000000001

>  <r_i_glide_ligand_efficiency>  (1) 
-0.15992157497173407

>  <r_i_glide_ligand_efficiency_ln>  (1) 
-1.1736690980557503

>  <r_i_glide_ligand_efficiency_sa>  (1) 
-0.51295394182883836

>  <r_i_glide_lipo>  (1) 
-2.2745346883998354

>  <r_i_glide_metal>  (1) 
-0

>  <r_i_glide_rewards>  (1) 
-1.7151691938344498

>  <r_lp_Energy>  (1) 
18.870881999999998

>  <s_epik_Chemistry_Notes>  (1) 
This compound has an imine and may undergo hydrolysis. This compound contains an acetal/aminal-like group ( X-CH(R)-Y where X, Y are N, S, or O) that may be acid/base labile, releasing an aldehyde. This compound has a N-S or N-O group and may undergo hydrolysis at high or low pH.

>  <s_epik_cmdline>  (1) 
J2VwaWtfcHl0aG9uJywgJy1waHQnLCAnMS4wJywgJy1waCcsICc3LjQnLCAnLXRuJywgJzgnLCAnLW1hJywgJzUwMCcsICctaW1hZScsICc8aW5maWxlLm1hZT4nLCAnLW9tYWUnLCAnPG91dGZpbGUubWFlPic=

>  <s_epik_input>  (1) 
W09IXU4xT1tDQEBIXTFDKC9DKD1OL1tIXSlbQ0gzXSk9W0NIXS9DKD1PKVtDSDJdW0NAQF0yKFtDSDNdKVtDSDJdW0NIMl1TW0NAQEhdMi9bQ0hdPVtDSF0vW05IXUMoPU8pW0NAQEhdKENsKVtDQEhdKFtDSDJdMylbQ0BIXTNbQ0BIXShbTkhdW09IXSlbQ0gyXVtPSF0=

>  <s_glide_docking_method>  (1) 
confgen

>  <s_i_glide_gridfile>  (1) 
gpcr_5ht2c_6bqh_protein_autoprepared_prepared

>  <s_lp_Force_Field>  (1) 
S-OPLS

>  <s_lp_Variant>  (1) 
DiffSBDD_57-4

>  <s_m_source_file>  (1) 
generated_GPCR_5HT2C_ligand_DiffSBDD_2026-06-23_prepared.sdf

>  <GenAI_Model>  (1) 
DiffSBDD

>  <Protein>  (1) 
GPCR_5HT2C

$$$$
DiffSBDD_79
     RDKit          3D

  0  0  0  0  0  0  0  0  0  0999 V3000
M  V30 BEGIN CTAB
M  V30 COUNTS 42 42 0 0 1
M  V30 BEGIN ATOM
M  V30 1 C 38.774153 29.649630 55.388421 0
M  V30 2 O 38.045181 26.852212 57.769851 0
M  V30 3 C 38.587204 27.220827 54.985070 0
M  V30 4 C 39.632628 29.296658 61.696573 0
M  V30 5 O 37.402544 31.288510 61.030977 0
M  V30 6 C 38.731852 30.884071 56.312579 0
M  V30 7 C 39.076192 28.726001 53.131951 0
M  V30 8 O 39.245137 32.286640 60.121317 0
M  V30 9 C 38.184283 33.315742 55.908876 0
M  V30 10 C 35.217386 32.262545 61.037873 0
M  V30 11 C 38.298344 27.987434 57.361528 0
M  V30 12 C 39.382729 28.923800 51.724429 0
M  V30 13 C 39.032111 29.831065 54.004205 0
M  V30 14 C 38.249418 28.923840 59.578386 0
M  V30 15 C 38.961470 32.245327 55.684047 0
M  V30 16 C 38.556437 28.307963 55.891715 0
M  V30 17 C 39.217599 29.870882 60.324169 0 CFG=1
M  V30 18 O 38.390392 29.054158 58.169061 0
M  V30 19 C 36.713563 32.518468 61.188098 0
M  V30 20 C 38.627858 31.283400 60.475347 0
M  V30 21 O 40.842653 29.880175 62.143602 0
M  V30 22 N 39.645141 29.077262 50.608225 0
M  V30 23 C 38.845240 27.430007 53.620170 0
M  V30 24 H 38.422149 26.215441 55.345602 0
M  V30 25 H 39.789762 28.218879 61.635630 0
M  V30 26 H 38.856194 29.459842 62.445018 0
M  V30 27 H 37.766982 30.929876 56.821662 0
M  V30 28 H 39.529214 30.799404 57.050628 0
M  V30 29 H 38.393338 34.264132 55.437254 0
M  V30 30 H 37.328521 33.255571 56.567718 0
M  V30 31 H 34.653254 33.185125 61.178501 0
M  V30 32 H 34.986386 31.881252 60.042171 0
M  V30 33 H 34.859677 31.536388 61.767767 0
M  V30 34 H 39.204800 30.820695 53.611045 0
M  V30 35 H 38.445137 27.897976 59.892597 0
M  V30 36 H 37.210059 29.130507 59.829358 0
M  V30 37 H 39.808110 32.333980 55.025679 0
M  V30 38 H 40.122987 29.945589 59.721337 0
M  V30 39 H 36.939937 32.937596 62.168093 0
M  V30 40 H 37.021260 33.251798 60.440792 0
M  V30 41 H 41.023111 29.553062 63.013660 0
M  V30 42 H 38.877732 26.586126 52.945324 0
M  V30 END ATOM
M  V30 BEGIN BOND
M  V30 1 1 6 1
M  V30 2 2 11 2
M  V30 3 1 12 7
M  V30 4 1 13 1
M  V30 5 2 13 7
M  V30 6 1 15 6
M  V30 7 2 15 9
M  V30 8 2 16 1
M  V30 9 1 16 3
M  V30 10 1 16 11
M  V30 11 1 17 4
M  V30 12 1 17 14
M  V30 13 1 18 11
M  V30 14 1 18 14
M  V30 15 1 19 5
M  V30 16 1 19 10
M  V30 17 1 20 5
M  V30 18 2 20 8
M  V30 19 1 20 17
M  V30 20 1 21 4
M  V30 21 3 22 12
M  V30 22 2 23 3
M  V30 23 1 23 7
M  V30 24 1 24 3
M  V30 25 1 25 4
M  V30 26 1 26 4
M  V30 27 1 27 6
M  V30 28 1 28 6
M  V30 29 1 29 9
M  V30 30 1 30 9
M  V30 31 1 31 10
M  V30 32 1 32 10
M  V30 33 1 33 10
M  V30 34 1 34 13
M  V30 35 1 35 14
M  V30 36 1 36 14
M  V30 37 1 37 15
M  V30 38 1 17 38 CFG=3
M  V30 39 1 39 19
M  V30 40 1 40 19
M  V30 41 1 41 21
M  V30 42 1 42 23
M  V30 END BOND
M  V30 END CTAB
M  END
>  <i_epik_Tot_Q>  (1) 
0

>  <i_epik_Tot_abs_Q>  (1) 
0

>  <i_i_glide_confnum>  (1) 
543

>  <i_i_glide_lignum>  (1) 
185

>  <i_i_glide_posenum>  (1) 
145

>  <i_i_glide_rotatable_bonds>  (1) 
11

>  <i_lp_mmshare_version>  (1) 
72125

>  <i_m_source_file_index>  (1) 
80

>  <i_f3d_flags>  (1) 
0

>  <num_sample>  (1) 
100

>  <b_lp_Chiralities_Consistent>  (1) 
1

>  <r_epik_Charging_Adjusted_Penalty>  (1) 
0

>  <r_epik_Ionization_Penalty>  (1) 
1.2942401493755896e-07

>  <r_epik_Ionization_Penalty_Charging>  (1) 
0

>  <r_epik_Ionization_Penalty_Neutral>  (1) 
1.2942401493755896e-07

>  <r_epik_State_Penalty>  (1) 
-0

>  <r_glide_ring_energy>  (1) 
0

>  <r_i_docking_score>  (1) 
-5.26984237586099

>  <r_i_glide_ecoul>  (1) 
-3.5023327153937784

>  <r_i_glide_eff_state_penalty>  (1) 
-0

>  <r_i_glide_einternal>  (1) 
4.1556465251832746

>  <r_i_glide_emodel>  (1) 
-53.57087783011103

>  <r_i_glide_emodel_strain>  (1) 
0.87806518592235605

>  <r_i_glide_energy>  (1) 
-42.082094629976226

>  <r_i_glide_erotb>  (1) 
1.6648782888351312

>  <r_i_glide_esite>  (1) 
0

>  <r_i_glide_evdw>  (1) 
-38.579761914582448

>  <r_i_glide_gscore>  (1) 
-5.26984237586099

>  <r_i_glide_gscore_strain>  (1) 
0

>  <r_i_glide_hbond>  (1) 
-0.30686298751478042

>  <r_i_glide_ligand_efficiency>  (1) 
-0.22912358155917348

>  <r_i_glide_ligand_efficiency_ln>  (1) 
-1.2742956707719584

>  <r_i_glide_ligand_efficiency_sa>  (1) 
-0.65159698790146059

>  <r_i_glide_lipo>  (1) 
-1.5588761454539513

>  <r_i_glide_metal>  (1) 
-0

>  <r_i_glide_rewards>  (1) 
-2.6146435286892

>  <r_lp_Energy>  (1) 
10.946185999999999

>  <r_lp_tautomer_probability>  (1) 
1

>  <s_epik_Chemistry_Notes>  (1) 
This compound has an ester and may undergo hydrolysis at high or low pH.

>  <s_epik_cmdline>  (1) 
J2VwaWtfcHl0aG9uJywgJy1waHQnLCAnMS4wJywgJy1waCcsICc3LjQnLCAnLXRuJywgJzgnLCAnLW1hJywgJzUwMCcsICctaW1hZScsICc8aW5maWxlLm1hZT4nLCAnLW9tYWUnLCAnPG91dGZpbGUubWFlPic=

>  <s_epik_input>  (1) 
W0NIMl09W0NIXVtDSDJdYzFbY0hdYyhDI04pW2NIXVtjSF1jMUMoPU8pT1tDSDJdW0NASF0oW0NIMl1bT0hdKUMoPU8pT1tDSDJdW0NIM10=

>  <s_glide_docking_method>  (1) 
confgen

>  <s_i_glide_gridfile>  (1) 
gpcr_5ht2c_6bqh_protein_autoprepared_prepared

>  <s_lp_Force_Field>  (1) 
S-OPLS

>  <s_lp_Variant>  (1) 
DiffSBDD_79-1

>  <s_m_source_file>  (1) 
generated_GPCR_5HT2C_ligand_DiffSBDD_2026-06-23_prepared.sdf

>  <GenAI_Model>  (1) 
DiffSBDD

>  <Protein>  (1) 
GPCR_5HT2C

$$$$
DiffSBDD_11
     RDKit          3D

  0  0  0  0  0  0  0  0  0  0999 V3000
M  V30 BEGIN CTAB
M  V30 COUNTS 43 45 0 0 1
M  V30 BEGIN ATOM
M  V30 1 C 38.527673 28.806239 55.829417 0
M  V30 2 C 39.995321 30.284175 51.734083 0
M  V30 3 N 38.982161 28.659558 54.454478 0
M  V30 4 C 39.000452 27.384983 53.761012 0 CFG=1
M  V30 5 N 37.381386 30.950682 59.534418 0
M  V30 6 C 38.884543 29.322896 52.200044 0 CFG=2
M  V30 7 C 38.280734 32.523695 57.272055 0
M  V30 8 C 37.669808 26.595477 53.902132 0
M  V30 9 C 38.563388 31.000290 57.328065 0 CFG=2
M  V30 10 C 37.746780 25.482808 54.957978 0
M  V30 11 C 38.103187 30.289148 56.022769 0 CFG=1
M  V30 12 O 38.301612 29.051969 58.741393 0
M  V30 13 S 38.590983 31.139181 54.477211 0
M  V30 14 C 38.063284 30.249676 58.602799 0
M  V30 15 C 38.316203 29.585457 53.604878 0 CFG=2
M  V30 16 C 37.059831 32.372242 59.421839 0
M  V30 17 C 39.365069 27.854733 52.310968 0 CFG=2
M  V30 18 F 39.245094 33.215808 59.308342 0
M  V30 19 C 38.093725 33.169894 58.636027 0 CFG=1
M  V30 20 O 38.851770 27.087097 51.244032 0
M  V30 21 H 39.336093 28.517182 56.500827 0
M  V30 22 H 37.675996 28.164271 56.048794 0
M  V30 23 H 40.822285 30.291504 52.438579 0
M  V30 24 H 40.386285 29.985331 50.761351 0
M  V30 25 H 39.645137 31.311596 51.643183 0
M  V30 26 H 39.812376 26.765864 54.144746 0
M  V30 27 H 37.061679 30.467159 60.358614 0
M  V30 28 H 38.062734 29.337755 51.484731 0
M  V30 29 H 39.086406 33.030406 56.739882 0
M  V30 30 H 37.382249 32.713100 56.684950 0
M  V30 31 H 36.845137 27.263837 54.139733 0
M  V30 32 H 37.373636 26.137754 52.967760 0
M  V30 33 H 39.645138 30.897694 57.367760 0
M  V30 34 H 36.793559 24.960902 55.042760 0
M  V30 35 H 38.503741 24.743434 54.696076 0
M  V30 36 H 37.996789 25.878452 55.942155 0
M  V30 37 H 37.011845 30.305340 56.010591 0
M  V30 38 H 37.245141 29.380390 53.602695 0
M  V30 39 H 36.073851 32.470104 58.967760 0
M  V30 40 H 36.967892 32.784565 60.426823 0
M  V30 41 H 40.445136 27.828065 52.167760 0
M  V30 42 H 37.761207 34.201445 58.520566 0
M  V30 43 H 39.227153 26.220607 51.270712 0
M  V30 END ATOM
M  V30 BEGIN BOND
M  V30 1 1 3 1
M  V30 2 1 4 3
M  V30 3 1 6 2
M  V30 4 1 8 4
M  V30 5 1 9 7
M  V30 6 1 10 8
M  V30 7 1 11 1
M  V30 8 1 11 9
M  V30 9 1 13 11
M  V30 10 1 14 5
M  V30 11 1 14 9
M  V30 12 2 14 12
M  V30 13 1 15 3
M  V30 14 1 15 6
M  V30 15 1 15 13
M  V30 16 1 16 5
M  V30 17 1 17 4
M  V30 18 1 17 6
M  V30 19 1 19 7
M  V30 20 1 19 16
M  V30 21 1 19 18
M  V30 22 1 20 17
M  V30 23 1 21 1
M  V30 24 1 22 1
M  V30 25 1 23 2
M  V30 26 1 24 2
M  V30 27 1 25 2
M  V30 28 1 4 26 CFG=1
M  V30 29 1 27 5
M  V30 30 1 6 28 CFG=3
M  V30 31 1 29 7
M  V30 32 1 30 7
M  V30 33 1 31 8
M  V30 34 1 32 8
M  V30 35 1 9 33 CFG=1
M  V30 36 1 34 10
M  V30 37 1 35 10
M  V30 38 1 36 10
M  V30 39 1 11 37 CFG=1
M  V30 40 1 15 38 CFG=3
M  V30 41 1 39 16
M  V30 42 1 40 16
M  V30 43 1 17 41 CFG=1
M  V30 44 1 19 42 CFG=3
M  V30 45 1 43 20
M  V30 END BOND
M  V30 END CTAB
M  END
>  <i_epik_Tot_Q>  (1) 
0

>  <i_epik_Tot_abs_Q>  (1) 
0

>  <i_i_glide_confnum>  (1) 
1

>  <i_i_glide_lignum>  (1) 
18

>  <i_i_glide_posenum>  (1) 
28

>  <i_i_glide_rotatable_bonds>  (1) 
3

>  <i_lp_mmshare_version>  (1) 
72125

>  <i_m_source_file_index>  (1) 
12

>  <i_f3d_flags>  (1) 
0

>  <num_sample>  (1) 
100

>  <b_lp_Chiralities_Consistent>  (1) 
1

>  <r_epik_Charging_Adjusted_Penalty>  (1) 
0

>  <r_epik_Ionization_Penalty>  (1) 
0.0013281564367089848

>  <r_epik_Ionization_Penalty_Charging>  (1) 
0

>  <r_epik_Ionization_Penalty_Neutral>  (1) 
0.0013281564367089848

>  <r_epik_State_Penalty>  (1) 
-0

>  <r_glide_ring_energy>  (1) 
0

>  <r_i_docking_score>  (1) 
-5.2695367719294604

>  <r_i_glide_ecoul>  (1) 
0.31265070796745009

>  <r_i_glide_eff_state_penalty>  (1) 
-0

>  <r_i_glide_einternal>  (1) 
3.7322747211417902

>  <r_i_glide_emodel>  (1) 
-36.28430890772654

>  <r_i_glide_emodel_strain>  (1) 
1.0315826036529785

>  <r_i_glide_energy>  (1) 
-29.45802684937652

>  <r_i_glide_erotb>  (1) 
0.20132193000906404

>  <r_i_glide_esite>  (1) 
-0.091711467272042158

>  <r_i_glide_evdw>  (1) 
-29.770677557343969

>  <r_i_glide_gscore>  (1) 
-5.2695367719294604

>  <r_i_glide_gscore_strain>  (1) 
0

>  <r_i_glide_hbond>  (1) 
0

>  <r_i_glide_ligand_efficiency>  (1) 
-0.26347683859647303

>  <r_i_glide_ligand_efficiency_ln>  (1) 
-1.3187912530592267

>  <r_i_glide_ligand_efficiency_sa>  (1) 
-0.71518617225099923

>  <r_i_glide_lipo>  (1) 
-2.2031488740921228

>  <r_i_glide_metal>  (1) 
-0

>  <r_i_glide_rewards>  (1) 
-1.7343620889022784

>  <r_lp_Energy>  (1) 
13.978804

>  <r_lp_tautomer_probability>  (1) 
1

>  <s_epik_Chemistry_Notes>  (1) 
This compound contains an acetal/aminal-like group ( X-CH(R)-Y where X, Y are N, S, or O) that may be acid/base labile, releasing an aldehyde.

>  <s_epik_cmdline>  (1) 
J2VwaWtfcHl0aG9uJywgJy1waHQnLCAnMS4wJywgJy1waCcsICc3LjQnLCAnLXRuJywgJzgnLCAnLW1hJywgJzUwMCcsICctaW1hZScsICc8aW5maWxlLm1hZT4nLCAnLW9tYWUnLCAnPG91dGZpbGUubWFlPic=

>  <s_epik_input>  (1) 
Tz1DMVtOSF1bQ0gyXVtDQEBIXShGKVtDSDJdW0NAQEhdMVtDQEhdKFtDSDJdMilTW0NASF0oTjIzKVtDQEBIXShbQ0gzXSlbQ0BIXShbT0hdKVtDQEBIXTNbQ0gyXVtDSDNd

>  <s_glide_docking_method>  (1) 
confgen

>  <s_i_glide_gridfile>  (1) 
gpcr_5ht2c_6bqh_protein_autoprepared_prepared

>  <s_lp_Force_Field>  (1) 
S-OPLS

>  <s_lp_Variant>  (1) 
DiffSBDD_11-1

>  <s_m_source_file>  (1) 
generated_GPCR_5HT2C_ligand_DiffSBDD_2026-06-23_prepared.sdf

>  <GenAI_Model>  (1) 
DiffSBDD

>  <Protein>  (1) 
GPCR_5HT2C

$$$$
DiffSBDD_10
     RDKit          3D

  0  0  0  0  0  0  0  0  0  0999 V3000
M  V30 BEGIN CTAB
M  V30 COUNTS 84 88 0 0 1
M  V30 BEGIN ATOM
M  V30 1 C 36.844985 28.071685 53.200186 0
M  V30 2 C 44.716110 30.735382 65.706525 0
M  V30 3 C 42.493103 31.898775 65.376630 0
M  V30 4 C 37.678482 34.224422 60.836635 0
M  V30 5 C 37.201805 34.547919 59.559318 0
M  V30 6 O 42.840284 31.991104 64.182751 0 CHG=-1
M  V30 7 C 39.370337 28.558458 61.833597 0
M  V30 8 C 38.960580 29.736661 59.230806 0 CFG=1
M  V30 9 O 43.729137 32.052221 69.679630 0
M  V30 10 C 38.919774 30.048412 61.690014 0 CFG=1
M  V30 11 C 42.483882 29.511289 66.079142 0 CFG=2
M  V30 12 C 39.645241 29.678762 53.488730 0 CFG=1
M  V30 13 O 41.571003 32.554121 65.920682 0
M  V30 14 O 45.233872 31.282489 68.303068 0 CHG=-1
M  V30 15 F 37.493583 35.091943 61.858568 0
M  V30 16 C 37.385244 33.663501 58.489257 0
M  V30 17 C 39.570017 28.596781 58.445378 0
M  V30 18 C 38.346622 33.005737 61.064445 0
M  V30 19 F 36.561925 35.722664 59.358780 0
M  V30 20 C 42.879317 28.430164 67.115432 0
M  V30 21 C 44.049409 31.578049 68.568598 0
M  V30 22 C 39.828385 27.781018 51.746526 0
M  V30 23 C 39.533725 28.930526 55.885862 0
M  V30 24 C 41.910398 27.236607 67.158713 0
M  V30 25 C 37.725283 30.010022 57.501771 0 CFG=1
M  V30 26 C 39.377440 31.140619 53.225840 0
M  V30 27 C 38.716935 29.071236 54.583389 0 CFG=2
M  V30 28 C 40.780080 28.374301 62.366845 0
M  V30 29 O 39.340654 30.736182 62.867294 0
M  V30 30 S 42.605479 28.819342 64.370775 0
M  V30 31 N 39.645813 30.120097 51.152139 0
M  V30 32 C 39.680256 29.257115 52.044721 0
M  V30 33 C 38.548100 32.081762 60.011789 0
M  V30 34 O 37.600227 29.787412 58.867382 0
M  V30 35 C 38.048181 32.431458 58.670132 0
M  V30 36 C 37.934546 27.790326 54.229628 0
M  V30 37 C 39.294327 30.712702 60.331325 0 CFG=2
M  V30 38 C 41.002367 29.228473 63.606427 0 CFG=1
M  V30 39 O 39.769349 31.336886 51.855700 0
M  V30 40 O 40.817815 30.534297 63.091874 0
M  V30 41 C 43.254457 30.868416 66.253998 0 CFG=1
M  V30 42 C 38.217254 31.504654 57.411536 0
M  V30 43 N 43.073490 31.382772 67.651513 0
M  V30 44 C 38.701540 28.812048 57.174469 0 CFG=2
M  V30 45 H 36.049519 27.338057 53.290941 0
M  V30 46 H 36.445433 29.062550 53.369442 0
M  V30 47 H 37.147191 28.075656 52.161848 0
M  V30 48 H 44.758073 30.492359 64.644972 0
M  V30 49 H 45.279524 31.660811 65.818722 0
M  V30 50 H 45.267376 29.938738 66.203431 0
M  V30 51 H 38.799055 28.022163 62.567750 0
M  V30 52 H 39.203906 27.954718 60.952028 0
M  V30 53 H 39.646149 30.351418 58.671352 0
M  V30 54 H 37.834924 30.137730 61.725113 0
M  V30 55 H 41.427691 29.714849 66.255025 0
M  V30 56 H 40.646816 29.738045 53.875855 0
M  V30 57 H 37.014469 33.931986 57.511487 0
M  V30 58 H 40.649095 28.684243 58.272197 0
M  V30 59 H 39.360130 27.615332 58.870642 0
M  V30 60 H 38.699045 32.779250 62.055491 0
M  V30 61 H 43.890496 28.072887 66.926392 0
M  V30 62 H 42.905880 28.856927 68.116748 0
M  V30 63 H 40.317155 27.252764 52.566559 0
M  V30 64 H 38.895928 27.285452 51.499078 0
M  V30 65 H 40.443142 27.705332 50.850172 0
M  V30 66 H 40.187848 29.794054 55.997599 0
M  V30 67 H 40.195588 28.068587 55.798416 0
M  V30 68 H 42.169242 26.548959 67.966000 0
M  V30 69 H 40.886146 27.567706 67.335619 0
M  V30 70 H 41.922404 26.671243 66.226368 0
M  V30 71 H 36.761990 29.892527 57.008619 0
M  V30 72 H 38.331343 31.412428 53.368745 0
M  V30 73 H 39.958120 31.737578 53.922060 0
M  V30 74 H 37.958495 29.820211 54.811182 0
M  V30 75 H 41.528536 28.577403 61.598379 0
M  V30 76 H 40.858307 27.338155 62.661575 0
M  V30 77 H 38.575548 26.958617 53.940148 0
M  V30 78 H 37.419842 27.433386 55.118145 0
M  V30 79 H 40.369075 30.910002 60.399025 0
M  V30 80 H 40.250203 29.023914 64.364055 0
M  V30 81 H 37.669502 31.964034 56.590712 0
M  V30 82 H 39.244306 31.584517 57.057453 0
M  V30 83 H 42.135616 31.650763 67.906606 0
M  V30 84 H 38.076980 27.920568 57.101264 0
M  V30 END ATOM
M  V30 BEGIN BOND
M  V30 1 1 5 4
M  V30 2 1 6 3
M  V30 3 1 10 7
M  V30 4 2 13 3
M  V30 5 1 15 4
M  V30 6 2 16 5
M  V30 7 1 17 8
M  V30 8 2 18 4
M  V30 9 1 19 5
M  V30 10 1 20 11
M  V30 11 2 21 9
M  V30 12 1 21 14
M  V30 13 1 24 20
M  V30 14 1 26 12
M  V30 15 1 27 12
M  V30 16 1 27 23
M  V30 17 1 28 7
M  V30 18 1 29 10
M  V30 19 1 30 11
M  V30 20 1 32 12
M  V30 21 1 32 22
M  V30 22 2 32 31
M  V30 23 1 33 18
M  V30 24 1 34 8
M  V30 25 1 34 25
M  V30 26 1 35 16
M  V30 27 2 35 33
M  V30 28 1 36 1
M  V30 29 1 36 27
M  V30 30 1 37 8
M  V30 31 1 37 10
M  V30 32 1 37 33
M  V30 33 1 38 28
M  V30 34 1 38 30
M  V30 35 1 39 26
M  V30 36 1 39 31
M  V30 37 1 40 29
M  V30 38 1 40 38
M  V30 39 1 41 2
M  V30 40 1 41 3
M  V30 41 1 41 11
M  V30 42 1 42 25
M  V30 43 1 42 35
M  V30 44 1 43 21
M  V30 45 1 41 43 CFG=1
M  V30 46 1 44 17
M  V30 47 1 44 23
M  V30 48 1 44 25
M  V30 49 1 45 1
M  V30 50 1 46 1
M  V30 51 1 47 1
M  V30 52 1 48 2
M  V30 53 1 49 2
M  V30 54 1 50 2
M  V30 55 1 51 7
M  V30 56 1 52 7
M  V30 57 1 8 53 CFG=3
M  V30 58 1 10 54 CFG=1
M  V30 59 1 11 55 CFG=1
M  V30 60 1 12 56 CFG=1
M  V30 61 1 57 16
M  V30 62 1 58 17
M  V30 63 1 59 17
M  V30 64 1 60 18
M  V30 65 1 61 20
M  V30 66 1 62 20
M  V30 67 1 63 22
M  V30 68 1 64 22
M  V30 69 1 65 22
M  V30 70 1 66 23
M  V30 71 1 67 23
M  V30 72 1 68 24
M  V30 73 1 69 24
M  V30 74 1 70 24
M  V30 75 1 25 71 CFG=3
M  V30 76 1 72 26
M  V30 77 1 73 26
M  V30 78 1 27 74 CFG=1
M  V30 79 1 75 28
M  V30 80 1 76 28
M  V30 81 1 77 36
M  V30 82 1 78 36
M  V30 83 1 37 79 CFG=1
M  V30 84 1 38 80 CFG=1
M  V30 85 1 81 42
M  V30 86 1 82 42
M  V30 87 1 83 43
M  V30 88 1 44 84 CFG=3
M  V30 END BOND
M  V30 END CTAB
M  END
>  <i_epik_Tot_Q>  (1) 
-2

>  <i_epik_Tot_abs_Q>  (1) 
2

>  <i_i_glide_confnum>  (1) 
892

>  <i_i_glide_lignum>  (1) 
17

>  <i_i_glide_posenum>  (1) 
67

>  <i_i_glide_rotatable_bonds>  (1) 
12

>  <i_lp_mmshare_version>  (1) 
72125

>  <i_m_source_file_index>  (1) 
11

>  <i_f3d_flags>  (1) 
0

>  <num_sample>  (1) 
100

>  <b_lp_Chiralities_Consistent>  (1) 
1

>  <r_epik_Charging_Adjusted_Penalty>  (1) 
0.0066641346833683675

>  <r_epik_Ionization_Penalty>  (1) 
0.0034118145539950863

>  <r_epik_Ionization_Penalty_Charging>  (1) 
0.0034117433904366969

>  <r_epik_Ionization_Penalty_Neutral>  (1) 
7.1163558389510919e-08

>  <r_epik_State_Penalty>  (1) 
0.0032523912929316705

>  <r_glide_ring_energy>  (1) 
1.0808791285296326

>  <r_i_docking_score>  (1) 
-5.2561106754901132

>  <r_i_glide_ecoul>  (1) 
0.18459367548896849

>  <r_i_glide_eff_state_penalty>  (1) 
0.0032523912929316705

>  <r_i_glide_einternal>  (1) 
13.141611696440645

>  <r_i_glide_emodel>  (1) 
-32.139065370153524

>  <r_i_glide_emodel_strain>  (1) 
5.549816042351523

>  <r_i_glide_energy>  (1) 
-33.487540521511995

>  <r_i_glide_erotb>  (1) 
0.27131343112086626

>  <r_i_glide_esite>  (1) 
-0.0096756926044360616

>  <r_i_glide_evdw>  (1) 
-33.672134197000965

>  <r_i_glide_gscore>  (1) 
-5.2593630667830453

>  <r_i_glide_gscore_strain>  (1) 
0.38745401058788076

>  <r_i_glide_hbond>  (1) 
0

>  <r_i_glide_ligand_efficiency>  (1) 
-0.11945706080659348

>  <r_i_glide_ligand_efficiency_ln>  (1) 
-1.0986417925882566

>  <r_i_glide_ligand_efficiency_sa>  (1) 
-0.42172503576150167

>  <r_i_glide_lipo>  (1) 
-3.1223760004905272

>  <r_i_glide_metal>  (1) 
-0

>  <r_i_glide_rewards>  (1) 
-1.1301611568701264

>  <r_lp_Energy>  (1) 
101.860817

>  <s_epik_Chemistry_Notes>  (1) 
This compound has an imine and may undergo hydrolysis. This compound contains an acetal/aminal-like group ( X-CH(R)-Y where X, Y are N, S, or O) that may be acid/base labile, releasing an aldehyde.

>  <s_epik_cmdline>  (1) 
J2VwaWtfcHl0aG9uJywgJy1waHQnLCAnMS4wJywgJy1waCcsICc3LjQnLCAnLXRuJywgJzgnLCAnLW1hJywgJzUwMCcsICctaW1hZScsICc8aW5maWxlLm1hZT4nLCAnLW9tYWUnLCAnPG91dGZpbGUubWFlPic=

>  <s_epik_input>  (1) 
W0NIM11DMT1OT1tDSDJdW0NASF0xW0NAQEhdKFtDSDJdW0NIM10pW0NIMl1bQ0BASF0oW0NIMl1bQ0BASF0yMylbQ0BASF0oTzIpW0NIMl1jNGMoW2NIXWMoRiljKEYpW2NIXTQpW0NASF0zW0NASF01W0NIMl1bQ0gyXVtDQEhdKE9PNSlTW0NAQEhdKFtDSDJdW0NIM10pW0NAQF0oW0NIM10pKEMoPU8pW09IXSlbTkhdQyg9TylbT0hd

>  <s_glide_docking_method>  (1) 
confgen

>  <s_i_glide_gridfile>  (1) 
gpcr_5ht2c_6bqh_protein_autoprepared_prepared

>  <s_lp_Force_Field>  (1) 
S-OPLS

>  <s_lp_Variant>  (1) 
DiffSBDD_10-1

>  <s_m_source_file>  (1) 
generated_GPCR_5HT2C_ligand_DiffSBDD_2026-06-23_prepared.sdf

>  <GenAI_Model>  (1) 
DiffSBDD

>  <Protein>  (1) 
GPCR_5HT2C

$$$$
DiffSBDD_80
     RDKit          3D

  0  0  0  0  0  0  0  0  0  0999 V3000
M  V30 BEGIN CTAB
M  V30 COUNTS 52 52 0 0 1
M  V30 BEGIN ATOM
M  V30 1 O 38.605457 32.395537 57.548979 0
M  V30 2 C 38.690465 31.294609 56.663877 0
M  V30 3 C 37.953955 30.944295 60.884759 0
M  V30 4 C 40.039856 29.905849 61.769380 0
M  V30 5 C 39.779691 26.018041 57.596905 0
M  V30 6 C 39.174876 27.406454 55.565544 0
M  V30 7 O 38.167714 28.164607 52.180212 0
M  V30 8 C 38.983473 26.069788 56.298953 0 CFG=2
M  V30 9 C 37.669484 29.036502 58.828994 0
M  V30 10 N 38.845180 27.278677 54.141995 0
M  V30 11 O 37.645140 33.337767 57.000386 0
M  V30 12 C 36.871798 31.020515 59.996017 0
M  V30 13 O 40.979435 29.120636 61.771563 0
M  V30 14 C 38.910448 29.910481 60.771806 0
M  V30 15 C 36.732106 30.073593 58.972292 0
M  V30 16 C 39.673186 26.922151 58.548725 0
M  V30 17 C 38.767664 28.917299 59.723651 0
M  V30 18 C 39.715395 27.758285 59.566345 0
M  V30 19 C 38.409403 28.299118 53.376857 0
M  V30 20 Cl 35.707879 32.282843 60.167789 0
M  V30 21 C 39.274091 31.653309 55.289619 0
M  V30 22 C 40.226660 30.875175 53.097259 0
M  V30 23 C 37.500629 25.680802 56.466309 0
M  V30 24 C 39.510473 30.433458 54.378404 0 CFG=2
M  V30 25 C 38.207691 29.665818 54.051957 0
M  V30 26 C 37.305891 24.166708 56.531858 0
M  V30 27 H 39.318944 30.539179 57.134987 0
M  V30 28 H 37.693223 30.870560 56.561443 0
M  V30 29 H 38.052484 31.684172 61.666371 0
M  V30 30 H 39.961194 30.694819 62.517596 0
M  V30 31 H 40.458558 25.187851 57.702065 0
M  V30 32 H 40.225865 27.690596 55.631448 0
M  V30 33 H 38.606207 28.170376 56.087850 0
M  V30 34 H 39.455531 25.316741 55.665370 0
M  V30 35 H 37.533882 28.314533 58.041185 0
M  V30 36 H 38.972026 26.374242 53.712695 0
M  V30 37 H 36.818741 32.858618 57.092567 0
M  V30 38 H 35.896302 30.137752 58.290484 0
M  V30 39 H 40.444745 27.610451 60.327471 0
M  V30 40 H 38.637549 32.378239 54.780127 0
M  V30 41 H 40.233034 32.137853 55.460326 0
M  V30 42 H 39.642605 31.603333 52.534495 0
M  V30 43 H 41.173119 31.337757 53.359895 0
M  V30 44 H 40.445052 30.039358 52.433291 0
M  V30 45 H 37.067975 26.153830 57.348432 0
M  V30 46 H 36.923727 26.050656 55.617900 0
M  V30 47 H 40.199406 29.779967 54.909045 0
M  V30 48 H 37.538968 29.543842 54.899777 0
M  V30 49 H 37.645144 30.287037 53.367853 0
M  V30 50 H 36.249469 23.919309 56.567634 0
M  V30 51 H 37.711670 23.694364 55.638129 0
M  V30 52 H 37.792417 23.737866 57.408322 0
M  V30 END ATOM
M  V30 BEGIN BOND
M  V30 1 1 2 1
M  V30 2 1 8 5
M  V30 3 1 8 6
M  V30 4 1 10 6
M  V30 5 1 11 1
M  V30 6 2 12 3
M  V30 7 2 13 4
M  V30 8 1 14 3
M  V30 9 1 14 4
M  V30 10 2 15 9
M  V30 11 1 15 12
M  V30 12 2 16 5
M  V30 13 1 17 9
M  V30 14 2 17 14
M  V30 15 2 18 16
M  V30 16 1 18 17
M  V30 17 2 19 7
M  V30 18 1 19 10
M  V30 19 1 20 12
M  V30 20 1 21 2
M  V30 21 1 23 8
M  V30 22 1 24 21
M  V30 23 1 24 22
M  V30 24 1 25 19
M  V30 25 1 25 24
M  V30 26 1 26 23
M  V30 27 1 27 2
M  V30 28 1 28 2
M  V30 29 1 29 3
M  V30 30 1 30 4
M  V30 31 1 31 5
M  V30 32 1 32 6
M  V30 33 1 33 6
M  V30 34 1 8 34 CFG=3
M  V30 35 1 35 9
M  V30 36 1 36 10
M  V30 37 1 37 11
M  V30 38 1 38 15
M  V30 39 1 39 18
M  V30 40 1 40 21
M  V30 41 1 41 21
M  V30 42 1 42 22
M  V30 43 1 43 22
M  V30 44 1 44 22
M  V30 45 1 45 23
M  V30 46 1 46 23
M  V30 47 1 24 47 CFG=1
M  V30 48 1 48 25
M  V30 49 1 49 25
M  V30 50 1 50 26
M  V30 51 1 51 26
M  V30 52 1 52 26
M  V30 END BOND
M  V30 END CTAB
M  END
>  <i_epik_Tot_Q>  (1) 
0

>  <i_epik_Tot_abs_Q>  (1) 
0

>  <i_i_glide_confnum>  (1) 
1610

>  <i_i_glide_lignum>  (1) 
186

>  <i_i_glide_posenum>  (1) 
285

>  <i_i_glide_rotatable_bonds>  (1) 
13

>  <i_lp_mmshare_version>  (1) 
72125

>  <i_m_source_file_index>  (1) 
81

>  <i_f3d_flags>  (1) 
0

>  <num_sample>  (1) 
100

>  <b_lp_Chiralities_Consistent>  (1) 
1

>  <r_epik_Charging_Adjusted_Penalty>  (1) 
0

>  <r_epik_Ionization_Penalty>  (1) 
8.3445448322163385e-06

>  <r_epik_Ionization_Penalty_Charging>  (1) 
0

>  <r_epik_Ionization_Penalty_Neutral>  (1) 
8.3445448322163385e-06

>  <r_epik_State_Penalty>  (1) 
-0

>  <r_glide_ring_energy>  (1) 
0

>  <r_i_docking_score>  (1) 
-5.2555154848258114

>  <r_i_glide_ecoul>  (1) 
-3.7495595137980242

>  <r_i_glide_eff_state_penalty>  (1) 
-0

>  <r_i_glide_einternal>  (1) 
21.762710593283348

>  <r_i_glide_emodel>  (1) 
-47.677669685852649

>  <r_i_glide_emodel_strain>  (1) 
0.23980461416763887

>  <r_i_glide_energy>  (1) 
-44.003969518857716

>  <r_i_glide_erotb>  (1) 
1.3439143837633358

>  <r_i_glide_esite>  (1) 
-0.15974788436056925

>  <r_i_glide_evdw>  (1) 
-40.25441000505969

>  <r_i_glide_gscore>  (1) 
-5.2555154848258114

>  <r_i_glide_gscore_strain>  (1) 
0

>  <r_i_glide_hbond>  (1) 
-0.4613570867206902

>  <r_i_glide_ligand_efficiency>  (1) 
-0.20213521095483891

>  <r_i_glide_ligand_efficiency_ln>  (1) 
-1.234240566858491

>  <r_i_glide_ligand_efficiency_sa>  (1) 
-0.59882476774040483

>  <r_i_glide_lipo>  (1) 
-3.1587161083914772

>  <r_i_glide_metal>  (1) 
-0

>  <r_i_glide_rewards>  (1) 
-0.24445436179372315

>  <r_lp_Energy>  (1) 
-6.8237489999999994

>  <r_lp_tautomer_probability>  (1) 
1

>  <s_epik_cmdline>  (1) 
J2VwaWtfcHl0aG9uJywgJy1waHQnLCAnMS4wJywgJy1waCcsICc3LjQnLCAnLXRuJywgJzgnLCAnLW1hJywgJzUwMCcsICctaW1hZScsICc8aW5maWxlLm1hZT4nLCAnLW9tYWUnLCAnPG91dGZpbGUubWFlPic=

>  <s_epik_input>  (1) 
W09IXU9bQ0gyXVtDSDJdW0NASF0oW0NIM10pW0NIMl1DKD1PKVtOSF1bQ0gyXVtDQEhdKFtDSDJdW0NIM10pW0NIXT1DPVtDSF1jKFtjSF1bY0hdMSljKFtDSF09TylbY0hdYzFDbA==

>  <s_glide_docking_method>  (1) 
confgen

>  <s_i_glide_gridfile>  (1) 
gpcr_5ht2c_6bqh_protein_autoprepared_prepared

>  <s_lp_Force_Field>  (1) 
S-OPLS

>  <s_lp_Variant>  (1) 
DiffSBDD_80-1

>  <s_m_source_file>  (1) 
generated_GPCR_5HT2C_ligand_DiffSBDD_2026-06-23_prepared.sdf

>  <GenAI_Model>  (1) 
DiffSBDD

>  <Protein>  (1) 
GPCR_5HT2C

$$$$
DiffSBDD_16
     RDKit          3D

  0  0  0  0  0  0  0  0  0  0999 V3000
M  V30 BEGIN CTAB
M  V30 COUNTS 70 74 0 0 1
M  V30 BEGIN ATOM
M  V30 1 C 38.034265 29.142333 58.699100 0
M  V30 2 C 43.791064 28.088519 64.709028 0
M  V30 3 C 39.294034 31.786590 61.965388 0 CFG=1
M  V30 4 C 40.444561 32.169805 62.932985 0
M  V30 5 C 39.329506 28.979284 56.624715 0
M  V30 6 C 39.744212 27.684070 56.977616 0
M  V30 7 C 36.254815 33.415587 60.996266 0
M  V30 8 C 36.100902 34.294513 59.744410 0
M  V30 9 C 39.334923 32.562795 60.598814 0
M  V30 10 C 39.301934 27.112190 58.181094 0
M  V30 11 O 35.245174 31.276919 61.262206 0
M  V30 12 C 42.118353 28.962258 63.184063 0
M  V30 13 C 41.490010 29.948922 62.474744 0
M  V30 14 C 40.434033 29.610126 61.449389 0
M  V30 15 C 43.150989 29.127364 64.229073 0
M  V30 16 C 38.482837 29.706425 57.483791 0
M  V30 17 N 44.717169 28.352131 65.685350 0
M  V30 18 C 44.283489 31.499303 67.351714 0
M  V30 19 N 39.195530 30.304492 61.843671 0 CHG=1
M  V30 20 C 43.082768 31.953197 66.583010 0
M  V30 21 C 39.783487 29.588563 55.316194 0
M  V30 22 C 37.409875 34.473828 58.967779 0
M  V30 23 C 38.917163 33.294861 57.219858 0
M  V30 24 C 37.913007 33.153099 58.368947 0 CFG=1
M  V30 25 C 37.111408 29.904912 59.608028 0
M  V30 26 C 38.367406 32.125064 59.428905 0 CFG=2
M  V30 27 C 36.163190 31.898880 60.745176 0
M  V30 28 C 43.570551 30.410672 64.842095 0 CFG=2
M  V30 29 C 37.207283 31.242841 59.880804 0
M  V30 30 C 44.459678 29.606478 65.860208 0
M  V30 31 N 42.645178 31.329840 65.541655 0
M  V30 32 C 38.445165 27.835697 59.034247 0
M  V30 33 C 41.761387 31.446632 62.597996 0
M  V30 34 C 44.920637 30.361340 67.015336 0
M  V30 35 H 43.636525 27.064347 64.399124 0
M  V30 36 H 38.376957 32.085651 62.471071 0
M  V30 37 H 40.157988 31.909623 63.953416 0
M  V30 38 H 40.595620 33.249877 62.931738 0
M  V30 39 H 40.396408 27.125871 56.321040 0
M  V30 40 H 35.429474 33.659750 61.666249 0
M  V30 41 H 37.150499 33.679745 61.551580 0
M  V30 42 H 35.324749 33.895453 59.088475 0
M  V30 43 H 35.747775 35.279008 60.049080 0
M  V30 44 H 39.195021 33.610648 60.847365 0
M  V30 45 H 40.353254 32.538383 60.216687 0
M  V30 46 H 39.617760 26.115290 58.451980 0
M  V30 47 H 41.828211 27.946509 62.956366 0
M  V30 48 H 40.750129 29.930615 60.455733 0
M  V30 49 H 40.250164 28.535603 61.403297 0
M  V30 50 H 38.149370 30.683746 57.196880 0
M  V30 51 H 44.573386 32.095178 68.204894 0
M  V30 52 H 38.920589 29.928746 62.743414 0
M  V30 53 H 42.584645 32.843423 66.975179 0
M  V30 54 H 39.241592 30.507362 55.091016 0
M  V30 55 H 40.845128 29.817266 55.356910 0
M  V30 56 H 39.612434 28.890696 54.496547 0
M  V30 57 H 37.244913 35.190826 58.167786 0
M  V30 58 H 38.152104 34.939124 59.609512 0
M  V30 59 H 39.937346 33.337773 57.590297 0
M  V30 60 H 38.897812 32.447273 56.542699 0
M  V30 61 H 38.679917 34.137490 56.577878 0
M  V30 62 H 37.045885 32.738745 57.865302 0
M  V30 63 H 36.303854 29.337819 60.041611 0
M  V30 64 H 39.070629 31.486068 58.923153 0
M  V30 65 H 44.240434 30.937554 64.167838 0
M  V30 66 H 38.115843 27.391769 59.958876 0
M  V30 67 H 42.588982 31.812792 63.174173 0
M  V30 68 H 42.045803 31.768408 61.597193 0
M  V30 69 H 45.752483 29.960884 67.576018 0
M  V30 70 H 38.475851 30.082451 61.169377 0
M  V30 END ATOM
M  V30 BEGIN BOND
M  V30 1 1 4 3
M  V30 2 1 6 5
M  V30 3 1 8 7
M  V30 4 1 9 3
M  V30 5 2 10 6
M  V30 6 2 13 12
M  V30 7 1 14 13
M  V30 8 2 15 2
M  V30 9 1 15 12
M  V30 10 1 16 1
M  V30 11 2 16 5
M  V30 12 1 17 2
M  V30 13 1 19 3
M  V30 14 1 19 14
M  V30 15 1 20 18
M  V30 16 1 21 5
M  V30 17 1 22 8
M  V30 18 1 24 22
M  V30 19 1 24 23
M  V30 20 1 25 1
M  V30 21 1 26 9
M  V30 22 1 26 24
M  V30 23 1 27 7
M  V30 24 2 27 11
M  V30 25 1 28 15
M  V30 26 2 29 25
M  V30 27 1 29 26
M  V30 28 1 29 27
M  V30 29 2 30 17
M  V30 30 1 30 28
M  V30 31 2 31 20
M  V30 32 1 31 28
M  V30 33 2 32 1
M  V30 34 1 32 10
M  V30 35 1 33 4
M  V30 36 1 33 13
M  V30 37 2 34 18
M  V30 38 1 34 30
M  V30 39 1 35 2
M  V30 40 1 3 36 CFG=1
M  V30 41 1 37 4
M  V30 42 1 38 4
M  V30 43 1 39 6
M  V30 44 1 40 7
M  V30 45 1 41 7
M  V30 46 1 42 8
M  V30 47 1 43 8
M  V30 48 1 44 9
M  V30 49 1 45 9
M  V30 50 1 46 10
M  V30 51 1 47 12
M  V30 52 1 48 14
M  V30 53 1 49 14
M  V30 54 1 50 16
M  V30 55 1 51 18
M  V30 56 1 52 19
M  V30 57 1 53 20
M  V30 58 1 54 21
M  V30 59 1 55 21
M  V30 60 1 56 21
M  V30 61 1 57 22
M  V30 62 1 58 22
M  V30 63 1 59 23
M  V30 64 1 60 23
M  V30 65 1 61 23
M  V30 66 1 24 62 CFG=3
M  V30 67 1 63 25
M  V30 68 1 26 64 CFG=3
M  V30 69 1 28 65 CFG=3
M  V30 70 1 66 32
M  V30 71 1 67 33
M  V30 72 1 68 33
M  V30 73 1 69 34
M  V30 74 1 70 19
M  V30 END BOND
M  V30 END CTAB
M  END
>  <i_epik_Tot_Q>  (1) 
1

>  <i_epik_Tot_abs_Q>  (1) 
1

>  <i_i_glide_confnum>  (1) 
4

>  <i_i_glide_lignum>  (1) 
36

>  <i_i_glide_posenum>  (1) 
186

>  <i_i_glide_rotatable_bonds>  (1) 
4

>  <i_lp_mmshare_version>  (1) 
72125

>  <i_m_source_file_index>  (1) 
17

>  <i_f3d_flags>  (1) 
0

>  <num_sample>  (1) 
100

>  <b_lp_Chiralities_Consistent>  (1) 
1

>  <r_epik_Charging_Adjusted_Penalty>  (1) 
0.57808156404405586

>  <r_epik_Ionization_Penalty>  (1) 
0.28904078202202793

>  <r_epik_Ionization_Penalty_Charging>  (1) 
0.28904078202202793

>  <r_epik_Ionization_Penalty_Neutral>  (1) 
0

>  <r_epik_State_Penalty>  (1) 
0.28904078202202793

>  <r_glide_ring_energy>  (1) 
2.0215911855591844

>  <r_i_docking_score>  (1) 
-5.2455003651252801

>  <r_i_glide_ecoul>  (1) 
-1.9211397793582659

>  <r_i_glide_eff_state_penalty>  (1) 
0.28904078202202793

>  <r_i_glide_einternal>  (1) 
3.9524438789009793

>  <r_i_glide_emodel>  (1) 
-33.399294862061573

>  <r_i_glide_emodel_strain>  (1) 
2.4568965579623523

>  <r_i_glide_energy>  (1) 
-33.466496194851722

>  <r_i_glide_erotb>  (1) 
0.29147875755417113

>  <r_i_glide_esite>  (1) 
-0.050881433349090323

>  <r_i_glide_evdw>  (1) 
-31.545356415493455

>  <r_i_glide_gscore>  (1) 
-5.5345411471473076

>  <r_i_glide_gscore_strain>  (1) 
0

>  <r_i_glide_hbond>  (1) 
-0.24608160066013099

>  <r_i_glide_ligand_efficiency>  (1) 
-0.1542794225036847

>  <r_i_glide_ligand_efficiency_ln>  (1) 
-1.1588781619577468

>  <r_i_glide_ligand_efficiency_sa>  (1) 
-0.49980543783721199

>  <r_i_glide_lipo>  (1) 
-2.2309141670451909

>  <r_i_glide_metal>  (1) 
-0

>  <r_i_glide_rewards>  (1) 
-1.4327039159686543

>  <r_lp_Energy>  (1) 
58.700623999999998

>  <s_epik_Chemistry_Notes>  (1) 
This compound has an imine and may undergo hydrolysis.

>  <s_epik_cmdline>  (1) 
J2VwaWtfcHl0aG9uJywgJy1waHQnLCAnMS4wJywgJy1waCcsICc3LjQnLCAnLXRuJywgJzgnLCAnLW1hJywgJzUwMCcsICctaW1hZScsICc8aW5maWxlLm1hZT4nLCAnLW9tYWUnLCAnPG91dGZpbGUubWFlPic=

>  <s_epik_input>  (1) 
W2NIXTFbY0hdW2NIXWMoW0NIM10pW2NIXWMxL1tDSF09QyhDKD1PKVtDSDJdW0NIMl1bQ0gyXVtDQEhdMltDSDNdKVxbQ0BASF0yW0NIMl1bQ0BASF0zW0NIMl1bQ0gyXUMoL1tDSDJdW05IXTMpPVtDSF1cQzQ9W0NIXU49QyhbQ0BASF00NSlbQ0hdPVtDSF1bQ0hdPU41

>  <s_glide_docking_method>  (1) 
confgen

>  <s_i_glide_gridfile>  (1) 
gpcr_5ht2c_6bqh_protein_autoprepared_prepared

>  <s_lp_Force_Field>  (1) 
S-OPLS

>  <s_lp_Variant>  (1) 
DiffSBDD_16-4

>  <s_m_source_file>  (1) 
generated_GPCR_5HT2C_ligand_DiffSBDD_2026-06-23_prepared.sdf

>  <GenAI_Model>  (1) 
DiffSBDD

>  <Protein>  (1) 
GPCR_5HT2C

$$$$
DiffSBDD_22
     RDKit          3D

  0  0  0  0  0  0  0  0  0  0999 V3000
M  V30 BEGIN CTAB
M  V30 COUNTS 47 50 0 0 1
M  V30 BEGIN ATOM
M  V30 1 C 39.633224 29.777837 52.000100 0
M  V30 2 C 38.633094 31.228001 61.284049 0
M  V30 3 C 39.104744 27.676387 54.799050 0
M  V30 4 F 37.319535 31.237321 61.565019 0
M  V30 5 N 38.734804 28.925214 54.092916 0 CFG=1 CHG=1
M  V30 6 C 39.569981 30.113328 54.399908 0 CFG=1
M  V30 7 C 39.921697 30.765199 53.098283 0 CFG=2
M  V30 8 O 40.507183 28.113850 56.729783 0
M  V30 9 O 37.548324 26.402646 57.569090 0
M  V30 10 N 41.212039 28.236533 58.972998 0
M  V30 11 O 38.845796 24.138489 57.367467 0
M  V30 12 C 39.908469 26.267319 58.024438 0 CFG=1
M  V30 13 C 39.164662 27.821224 56.329771 0 CFG=2
M  V30 14 C 40.587032 29.578201 60.902479 0
M  V30 15 N 39.119015 32.144158 60.567684 0
M  V30 16 C 38.666393 28.758886 52.615177 0
M  V30 17 C 40.068443 28.810254 59.672220 0
M  V30 18 C 38.894133 31.403019 54.022351 0
M  V30 19 C 39.624374 25.245158 56.944067 0 CFG=2
M  V30 20 C 40.918559 27.380398 57.850439 0 CFG=1
M  V30 21 C 39.491259 30.110404 61.850847 0
M  V30 22 C 38.839146 26.526334 57.018658 0 CFG=2
M  V30 23 H 40.567985 29.288006 51.725133 0
M  V30 24 H 39.244982 30.264613 51.105691 0
M  V30 25 H 40.045025 27.273385 54.423250 0
M  V30 26 H 38.337575 26.942080 54.547405 0
M  V30 27 H 40.303651 30.064443 55.200909 0
M  V30 28 H 40.845219 31.327433 53.001756 0
M  V30 29 H 37.505504 25.531636 57.942753 0
M  V30 30 H 41.821335 27.773706 59.636880 0
M  V30 31 H 38.345372 23.818864 56.631766 0
M  V30 32 H 39.646584 25.990349 59.041906 0
M  V30 33 H 38.491399 28.596620 56.698221 0
M  V30 34 H 41.229264 30.398908 60.581363 0
M  V30 35 H 41.224952 28.911544 61.484948 0
M  V30 36 H 38.412807 32.803139 60.271877 0
M  V30 37 H 38.906825 27.745335 52.288921 0
M  V30 38 H 37.645164 28.954737 52.290982 0
M  V30 39 H 39.382486 28.027365 59.995357 0
M  V30 40 H 39.521098 29.472092 58.998983 0
M  V30 41 H 39.197948 32.291644 54.571512 0
M  V30 42 H 37.837752 31.367078 53.767839 0
M  V30 43 H 40.333227 25.066073 56.138309 0
M  V30 44 H 41.869391 26.937738 57.549009 0
M  V30 45 H 37.803188 29.158417 54.408534 0
M  V30 46 H 39.960309 30.484929 62.760978 0
M  V30 47 H 38.845439 29.292010 62.166228 0
M  V30 END ATOM
M  V30 BEGIN BOND
M  V30 1 1 4 2
M  V30 2 1 5 3
M  V30 3 1 6 5
M  V30 4 1 7 1
M  V30 5 1 7 6
M  V30 6 1 13 3
M  V30 7 1 13 8
M  V30 8 2 15 2
M  V30 9 1 16 1
M  V30 10 1 16 5
M  V30 11 1 17 10
M  V30 12 1 17 14
M  V30 13 1 18 6
M  V30 14 1 18 7
M  V30 15 1 19 11
M  V30 16 1 19 12
M  V30 17 1 20 8
M  V30 18 1 20 10
M  V30 19 1 20 12
M  V30 20 1 21 2
M  V30 21 1 21 14
M  V30 22 1 22 9 CFG=1
M  V30 23 1 22 12
M  V30 24 1 22 13
M  V30 25 1 22 19
M  V30 26 1 23 1
M  V30 27 1 24 1
M  V30 28 1 25 3
M  V30 29 1 26 3
M  V30 30 1 6 27 CFG=1
M  V30 31 1 7 28 CFG=1
M  V30 32 1 29 9
M  V30 33 1 30 10
M  V30 34 1 31 11
M  V30 35 1 12 32 CFG=1
M  V30 36 1 13 33 CFG=1
M  V30 37 1 34 14
M  V30 38 1 35 14
M  V30 39 1 36 15
M  V30 40 1 37 16
M  V30 41 1 38 16
M  V30 42 1 39 17
M  V30 43 1 40 17
M  V30 44 1 41 18
M  V30 45 1 42 18
M  V30 46 1 19 43 CFG=3
M  V30 47 1 20 44 CFG=3
M  V30 48 1 5 45 CFG=1
M  V30 49 1 46 21
M  V30 50 1 47 21
M  V30 END BOND
M  V30 END CTAB
M  END
>  <i_epik_Tot_Q>  (1) 
1

>  <i_epik_Tot_abs_Q>  (1) 
1

>  <i_i_glide_confnum>  (1) 
382

>  <i_i_glide_lignum>  (1) 
54

>  <i_i_glide_posenum>  (1) 
279

>  <i_i_glide_rotatable_bonds>  (1) 
9

>  <i_lp_mmshare_version>  (1) 
72125

>  <i_m_source_file_index>  (1) 
23

>  <i_f3d_flags>  (1) 
0

>  <num_sample>  (1) 
100

>  <b_lp_Chiralities_Consistent>  (1) 
1

>  <r_epik_Charging_Adjusted_Penalty>  (1) 
0.69687758696528612

>  <r_epik_Ionization_Penalty>  (1) 
0.32102159834462574

>  <r_epik_Ionization_Penalty_Charging>  (1) 
0.0068758800046254996

>  <r_epik_Ionization_Penalty_Neutral>  (1) 
0.31414571834000021

>  <r_epik_State_Penalty>  (1) 
0.69000170696066065

>  <r_glide_ring_energy>  (1) 
1.6455033096424496

>  <r_i_docking_score>  (1) 
-5.2445949328845698

>  <r_i_glide_ecoul>  (1) 
-3.6381043870084606

>  <r_i_glide_eff_state_penalty>  (1) 
0.69000170696066065

>  <r_i_glide_einternal>  (1) 
12.187635349584994

>  <r_i_glide_emodel>  (1) 
-36.027697380031988

>  <r_i_glide_emodel_strain>  (1) 
0.85612322986922607

>  <r_i_glide_energy>  (1) 
-33.764168717388706

>  <r_i_glide_erotb>  (1) 
1.3164448029953435

>  <r_i_glide_esite>  (1) 
-0.048956048311767003

>  <r_i_glide_evdw>  (1) 
-30.126064330380249

>  <r_i_glide_gscore>  (1) 
-5.9345966398452301

>  <r_i_glide_gscore_strain>  (1) 
0

>  <r_i_glide_hbond>  (1) 
0

>  <r_i_glide_ligand_efficiency>  (1) 
-0.23839067876748044

>  <r_i_glide_ligand_efficiency_ln>  (1) 
-1.2819703028452585

>  <r_i_glide_ligand_efficiency_sa>  (1) 
-0.66798005796811433

>  <r_i_glide_lipo>  (1) 
-2.8746801861210907

>  <r_i_glide_metal>  (1) 
-0

>  <r_i_glide_rewards>  (1) 
-2.2753863338374352

>  <r_lp_Energy>  (1) 
10.052434999999999

>  <r_lp_tautomer_probability>  (1) 
0.49999300000000002

>  <s_epik_Chemistry_Notes>  (1) 
This compound has an imine and may undergo hydrolysis. This compound contains an acetal/aminal-like group ( X-CH(R)-Y where X, Y are N, S, or O) that may be acid/base labile, releasing an aldehyde.

>  <s_epik_cmdline>  (1) 
J2VwaWtfcHl0aG9uJywgJy1waHQnLCAnMS4wJywgJy1waCcsICc3LjQnLCAnLXRuJywgJzgnLCAnLW1hJywgJzUwMCcsICctaW1hZScsICc8aW5maWxlLm1hZT4nLCAnLW9tYWUnLCAnPG91dGZpbGUubWFlPic=

>  <s_epik_input>  (1) 
W0NAQEhdMTJbQ0BIXShbQ0gyXTIpW0NIMl1bQ0gyXU4xW0NIMl1bQ0BASF0zT1tDQEhdKFtDSF0oW0NASF00W09IXSlbQ0BAXTM0W09IXSlbTkhdW0NIMl1bQ0gyXVxbQ0hdPUMoXEYpW05IMl0=

>  <s_glide_docking_method>  (1) 
confgen

>  <s_i_glide_gridfile>  (1) 
gpcr_5ht2c_6bqh_protein_autoprepared_prepared

>  <s_lp_Force_Field>  (1) 
S-OPLS

>  <s_lp_Variant>  (1) 
DiffSBDD_22-2

>  <s_m_source_file>  (1) 
generated_GPCR_5HT2C_ligand_DiffSBDD_2026-06-23_prepared.sdf

>  <GenAI_Model>  (1) 
DiffSBDD

>  <Protein>  (1) 
GPCR_5HT2C

$$$$
DiffSBDD_22
     RDKit          3D

  0  0  0  0  0  0  0  0  0  0999 V3000
M  V30 BEGIN CTAB
M  V30 COUNTS 47 50 0 0 1
M  V30 BEGIN ATOM
M  V30 1 C 39.886889 30.938032 52.366362 0
M  V30 2 C 35.902238 31.955848 60.139573 0
M  V30 3 C 38.872695 27.671871 53.848598 0
M  V30 4 F 36.123637 31.763281 61.449970 0
M  V30 5 N 38.719278 28.948780 53.106120 0 CFG=2 CHG=1
M  V30 6 C 38.885395 28.817412 51.635748 0 CFG=1
M  V30 7 C 39.646026 30.034345 51.188126 0 CFG=2
M  V30 8 O 39.335524 28.496724 56.122117 0
M  V30 9 O 37.103842 25.737031 55.956007 0
M  V30 10 N 38.432622 28.923362 58.252566 0
M  V30 11 O 39.084820 24.322513 56.967825 0
M  V30 12 C 38.802187 26.657377 57.397474 0 CFG=1
M  V30 13 C 38.404514 27.771847 55.310675 0 CFG=2
M  V30 14 C 38.153584 30.795601 59.779828 0
M  V30 15 N 34.884642 32.597637 59.767785 0
M  V30 16 C 39.535191 30.093078 53.594698 0
M  V30 17 C 39.063749 30.137485 58.735413 0
M  V30 18 C 40.291637 28.671492 51.097758 0
M  V30 19 C 39.472213 25.614207 56.549468 0 CFG=2
M  V30 20 C 39.279385 28.079735 57.460378 0 CFG=1
M  V30 21 C 36.886207 31.386096 59.142958 0
M  V30 22 C 38.330080 26.429770 55.997257 0 CFG=2
M  V30 23 H 39.245139 31.808478 52.298400 0
M  V30 24 H 40.899312 31.328561 52.374852 0
M  V30 25 H 39.892573 27.296495 53.797228 0
M  V30 26 H 38.253679 26.927690 53.344122 0
M  V30 27 H 38.038879 28.437232 51.071415 0
M  V30 28 H 39.375826 30.512878 50.247821 0
M  V30 29 H 37.286349 24.882357 56.329538 0
M  V30 30 H 37.562886 29.142741 57.786399 0
M  V30 31 H 39.721825 24.004070 57.592546 0
M  V30 32 H 38.192974 26.312969 58.233111 0
M  V30 33 H 37.432783 28.260968 55.367905 0
M  V30 34 H 38.704913 31.591603 60.282079 0
M  V30 35 H 37.896896 30.070084 60.553489 0
M  V30 36 H 34.845218 32.637538 58.753919 0
M  V30 37 H 38.987445 30.670120 54.340911 0
M  V30 38 H 40.445132 29.741006 54.074621 0
M  V30 39 H 39.245211 30.813801 57.899243 0
M  V30 40 H 40.023751 29.891866 59.191288 0
M  V30 41 H 40.390769 28.233398 50.108523 0
M  V30 42 H 41.119502 28.471520 51.767796 0
M  V30 43 H 40.489588 25.740977 56.185256 0
M  V30 44 H 40.292189 28.102716 57.866418 0
M  V30 45 H 37.758240 29.232821 53.233380 0
M  V30 46 H 36.366423 30.619447 58.567826 0
M  V30 47 H 37.171034 32.170819 58.440686 0
M  V30 END ATOM
M  V30 BEGIN BOND
M  V30 1 1 4 2
M  V30 2 1 5 3
M  V30 3 1 6 5
M  V30 4 1 7 1
M  V30 5 1 7 6
M  V30 6 1 13 3
M  V30 7 1 13 8
M  V30 8 2 15 2
M  V30 9 1 16 1
M  V30 10 1 16 5
M  V30 11 1 17 10
M  V30 12 1 17 14
M  V30 13 1 18 6
M  V30 14 1 18 7
M  V30 15 1 19 11
M  V30 16 1 19 12
M  V30 17 1 20 8
M  V30 18 1 20 10
M  V30 19 1 20 12
M  V30 20 1 21 2
M  V30 21 1 21 14
M  V30 22 1 22 9 CFG=1
M  V30 23 1 22 12
M  V30 24 1 22 13
M  V30 25 1 22 19
M  V30 26 1 23 1
M  V30 27 1 24 1
M  V30 28 1 25 3
M  V30 29 1 26 3
M  V30 30 1 6 27 CFG=3
M  V30 31 1 7 28 CFG=3
M  V30 32 1 29 9
M  V30 33 1 30 10
M  V30 34 1 31 11
M  V30 35 1 12 32 CFG=1
M  V30 36 1 13 33 CFG=3
M  V30 37 1 34 14
M  V30 38 1 35 14
M  V30 39 1 36 15
M  V30 40 1 37 16
M  V30 41 1 38 16
M  V30 42 1 39 17
M  V30 43 1 40 17
M  V30 44 1 41 18
M  V30 45 1 42 18
M  V30 46 1 19 43 CFG=3
M  V30 47 1 20 44 CFG=1
M  V30 48 1 5 45 CFG=3
M  V30 49 1 46 21
M  V30 50 1 47 21
M  V30 END BOND
M  V30 END CTAB
M  END
>  <i_epik_Tot_Q>  (1) 
1

>  <i_epik_Tot_abs_Q>  (1) 
1

>  <i_i_glide_confnum>  (1) 
135

>  <i_i_glide_lignum>  (1) 
53

>  <i_i_glide_posenum>  (1) 
311

>  <i_i_glide_rotatable_bonds>  (1) 
9

>  <i_lp_mmshare_version>  (1) 
72125

>  <i_m_source_file_index>  (1) 
23

>  <i_f3d_flags>  (1) 
0

>  <num_sample>  (1) 
100

>  <b_lp_Chiralities_Consistent>  (1) 
1

>  <r_epik_Charging_Adjusted_Penalty>  (1) 
0.69687758696528612

>  <r_epik_Ionization_Penalty>  (1) 
0.32102159834462574

>  <r_epik_Ionization_Penalty_Charging>  (1) 
0.0068758800046254996

>  <r_epik_Ionization_Penalty_Neutral>  (1) 
0.31414571834000021

>  <r_epik_State_Penalty>  (1) 
0.69000170696066065

>  <r_glide_ring_energy>  (1) 
1.6455033096424427

>  <r_i_docking_score>  (1) 
-5.2434251536864478

>  <r_i_glide_ecoul>  (1) 
-5.105787446333995

>  <r_i_glide_eff_state_penalty>  (1) 
0.69000170696066065

>  <r_i_glide_einternal>  (1) 
3.5877856970366251

>  <r_i_glide_emodel>  (1) 
-43.426027077299892

>  <r_i_glide_emodel_strain>  (1) 
0.055732302204646089

>  <r_i_glide_energy>  (1) 
-32.562564210738174

>  <r_i_glide_erotb>  (1) 
1.3164448029953435

>  <r_i_glide_esite>  (1) 
-0.15399128644451224

>  <r_i_glide_evdw>  (1) 
-27.456776764404182

>  <r_i_glide_gscore>  (1) 
-5.9334268606471081

>  <r_i_glide_gscore_strain>  (1) 
0

>  <r_i_glide_hbond>  (1) 
-0.23829169124284555

>  <r_i_glide_ligand_efficiency>  (1) 
-0.23833750698574763

>  <r_i_glide_ligand_efficiency_ln>  (1) 
-1.2816843661405044

>  <r_i_glide_ligand_efficiency_sa>  (1) 
-0.66783106854441798

>  <r_i_glide_lipo>  (1) 
-2.617973377080614

>  <r_i_glide_metal>  (1) 
-0

>  <r_i_glide_rewards>  (1) 
-2.1009083537041726

>  <r_lp_Energy>  (1) 
11.334823

>  <r_lp_tautomer_probability>  (1) 
0.49999300000000002

>  <s_epik_Chemistry_Notes>  (1) 
This compound has an imine and may undergo hydrolysis. This compound contains an acetal/aminal-like group ( X-CH(R)-Y where X, Y are N, S, or O) that may be acid/base labile, releasing an aldehyde.

>  <s_epik_cmdline>  (1) 
J2VwaWtfcHl0aG9uJywgJy1waHQnLCAnMS4wJywgJy1waCcsICc3LjQnLCAnLXRuJywgJzgnLCAnLW1hJywgJzUwMCcsICctaW1hZScsICc8aW5maWxlLm1hZT4nLCAnLW9tYWUnLCAnPG91dGZpbGUubWFlPic=

>  <s_epik_input>  (1) 
W0NAQEhdMTJbQ0BIXShbQ0gyXTIpW0NIMl1bQ0gyXU4xW0NIMl1bQ0BASF0zT1tDQEhdKFtDSF0oW0NASF00W09IXSlbQ0BAXTM0W09IXSlbTkhdW0NIMl1bQ0gyXVxbQ0hdPUMoXEYpW05IMl0=

>  <s_glide_docking_method>  (1) 
confgen

>  <s_i_glide_gridfile>  (1) 
gpcr_5ht2c_6bqh_protein_autoprepared_prepared

>  <s_lp_Force_Field>  (1) 
S-OPLS

>  <s_lp_Variant>  (1) 
DiffSBDD_22-1

>  <s_m_source_file>  (1) 
generated_GPCR_5HT2C_ligand_DiffSBDD_2026-06-23_prepared.sdf

>  <GenAI_Model>  (1) 
DiffSBDD

>  <Protein>  (1) 
GPCR_5HT2C

$$$$
DiffSBDD_88
     RDKit          3D

  0  0  0  0  0  0  0  0  0  0999 V3000
M  V30 BEGIN CTAB
M  V30 COUNTS 46 47 0 0 1
M  V30 BEGIN ATOM
M  V30 1 C 38.046410 27.904102 54.633364 0
M  V30 2 O 42.364848 28.466818 58.141273 0
M  V30 3 O 39.153747 32.419710 62.405275 0
M  V30 4 C 39.577572 30.167936 53.943423 0
M  V30 5 C 39.004762 27.126587 57.610116 0
M  V30 6 C 40.845504 34.493711 63.001424 0
M  V30 7 C 39.055009 29.336351 52.934453 0
M  V30 8 C 40.541595 27.094007 57.487421 0
M  V30 9 C 38.199453 31.791316 58.527304 0 CFG=1
M  V30 10 C 36.572498 29.915711 59.231183 0
M  V30 11 C 39.574440 33.230767 61.573672 0
M  V30 12 C 41.274024 27.977858 58.502789 0
M  V30 13 C 37.246167 32.989889 58.657451 0
M  V30 14 C 38.289942 28.204718 53.278722 0
M  V30 15 C 39.338658 29.868635 55.298390 0
M  V30 16 C 39.159576 33.111843 60.104687 0 CFG=1
M  V30 17 C 38.570833 28.735264 55.647539 0
M  V30 18 O 38.845016 31.763660 59.791328 0
M  V30 19 C 38.304712 28.408264 57.116149 0 CFG=2
M  V30 20 C 37.864150 33.848751 59.753094 0
M  V30 21 N 40.428287 34.300724 61.814645 0
M  V30 22 C 37.555474 30.435337 58.170015 0 CFG=2
M  V30 23 O 38.603392 29.489546 57.995435 0
M  V30 24 O 40.734904 28.137755 59.620212 0 CHG=-1
M  V30 25 H 37.458643 27.036777 54.895487 0
M  V30 26 H 40.164156 31.034647 53.677725 0
M  V30 27 H 38.707755 26.936625 58.642676 0
M  V30 28 H 38.609649 26.280391 57.047039 0
M  V30 29 H 41.524856 35.321609 63.219877 0
M  V30 30 H 40.535830 33.841817 63.824372 0
M  V30 31 H 39.242038 29.566463 51.896019 0
M  V30 32 H 40.872135 26.073174 57.661605 0
M  V30 33 H 40.857662 27.352606 56.476838 0
M  V30 34 H 38.952734 32.027304 57.773618 0
M  V30 35 H 35.764499 30.619626 59.418529 0
M  V30 36 H 36.109893 28.981105 58.921189 0
M  V30 37 H 37.090886 29.739078 60.170128 0
M  V30 38 H 37.159217 33.522751 57.710177 0
M  V30 39 H 36.244056 32.697930 58.967085 0
M  V30 40 H 37.889585 27.567255 52.503388 0
M  V30 41 H 39.743812 30.507887 56.069203 0
M  V30 42 H 39.972731 33.441992 59.457147 0
M  V30 43 H 37.244628 28.186020 57.190533 0
M  V30 44 H 37.187703 33.900890 60.607282 0
M  V30 45 H 38.045357 34.868108 59.417265 0
M  V30 46 H 37.045647 30.537039 57.214427 0
M  V30 END ATOM
M  V30 BEGIN BOND
M  V30 1 2 7 4
M  V30 2 1 8 5
M  V30 3 2 11 3
M  V30 4 2 12 2
M  V30 5 1 12 8
M  V30 6 1 13 9
M  V30 7 2 14 1
M  V30 8 1 14 7
M  V30 9 1 15 4
M  V30 10 1 16 11
M  V30 11 1 17 1
M  V30 12 2 17 15
M  V30 13 1 18 9
M  V30 14 1 18 16
M  V30 15 1 19 5
M  V30 16 1 19 17
M  V30 17 1 20 13
M  V30 18 1 20 16
M  V30 19 2 21 6
M  V30 20 1 21 11
M  V30 21 1 22 9
M  V30 22 1 22 10
M  V30 23 1 23 19
M  V30 24 1 23 22
M  V30 25 1 24 12
M  V30 26 1 25 1
M  V30 27 1 26 4
M  V30 28 1 27 5
M  V30 29 1 28 5
M  V30 30 1 29 6
M  V30 31 1 30 6
M  V30 32 1 31 7
M  V30 33 1 32 8
M  V30 34 1 33 8
M  V30 35 1 9 34 CFG=3
M  V30 36 1 35 10
M  V30 37 1 36 10
M  V30 38 1 37 10
M  V30 39 1 38 13
M  V30 40 1 39 13
M  V30 41 1 40 14
M  V30 42 1 41 15
M  V30 43 1 16 42 CFG=3
M  V30 44 1 19 43 CFG=3
M  V30 45 1 44 20
M  V30 46 1 45 20
M  V30 47 1 22 46 CFG=3
M  V30 END BOND
M  V30 END CTAB
M  END
>  <i_epik_Tot_Q>  (1) 
-1

>  <i_epik_Tot_abs_Q>  (1) 
1

>  <i_i_glide_confnum>  (1) 
874

>  <i_i_glide_lignum>  (1) 
208

>  <i_i_glide_posenum>  (1) 
293

>  <i_i_glide_rotatable_bonds>  (1) 
9

>  <i_lp_mmshare_version>  (1) 
72125

>  <i_m_source_file_index>  (1) 
89

>  <i_f3d_flags>  (1) 
0

>  <num_sample>  (1) 
100

>  <b_lp_Chiralities_Consistent>  (1) 
1

>  <r_epik_Charging_Adjusted_Penalty>  (1) 
0.00097316561850613933

>  <r_epik_Ionization_Penalty>  (1) 
0.00097316561914866995

>  <r_epik_Ionization_Penalty_Charging>  (1) 
0.00097316561850613933

>  <r_epik_Ionization_Penalty_Neutral>  (1) 
6.4253058124533643e-13

>  <r_epik_State_Penalty>  (1) 
-0

>  <r_glide_ring_energy>  (1) 
0

>  <r_i_docking_score>  (1) 
-5.2358624161325249

>  <r_i_glide_ecoul>  (1) 
-1.65889315112036

>  <r_i_glide_eff_state_penalty>  (1) 
-0

>  <r_i_glide_einternal>  (1) 
3.2870580981910926

>  <r_i_glide_emodel>  (1) 
-46.90808546223095

>  <r_i_glide_emodel_strain>  (1) 
0.087697402974733052

>  <r_i_glide_energy>  (1) 
-34.800223368627421

>  <r_i_glide_erotb>  (1) 
1.1933401275703905

>  <r_i_glide_esite>  (1) 
0

>  <r_i_glide_evdw>  (1) 
-33.141330217507061

>  <r_i_glide_gscore>  (1) 
-5.2358624161325249

>  <r_i_glide_gscore_strain>  (1) 
0

>  <r_i_glide_hbond>  (1) 
0

>  <r_i_glide_ligand_efficiency>  (1) 
-0.21816093400552186

>  <r_i_glide_ligand_efficiency_ln>  (1) 
-1.253182134251364

>  <r_i_glide_ligand_efficiency_sa>  (1) 
-0.62928502665465358

>  <r_i_glide_lipo>  (1) 
-2.0204306341168716

>  <r_i_glide_metal>  (1) 
-0

>  <r_i_glide_rewards>  (1) 
-2.5028714260426375

>  <r_lp_Energy>  (1) 
7.8123529999999999

>  <r_lp_tautomer_probability>  (1) 
1

>  <s_epik_Chemistry_Notes>  (1) 
This compound has an imine and may undergo hydrolysis.

>  <s_epik_cmdline>  (1) 
J2VwaWtfcHl0aG9uJywgJy1waHQnLCAnMS4wJywgJy1waCcsICc3LjQnLCAnLXRuJywgJzgnLCAnLW1hJywgJzUwMCcsICctaW1hZScsICc8aW5maWxlLm1hZT4nLCAnLW9tYWUnLCAnPG91dGZpbGUubWFlPic=

>  <s_epik_input>  (1) 
W2NIXTFbY0hdW2NIXVtjSF1bY0hdYzFbQ0BASF0oW0NIMl1bQ0gyXUMoPU8pW09IXSlPW0NAQEhdKFtDSDNdKVtDQEhdMltDSDJdW0NIMl1bQ0BIXShPMilDKD1PKU49W0NIMl0=

>  <s_glide_docking_method>  (1) 
confgen

>  <s_i_glide_gridfile>  (1) 
gpcr_5ht2c_6bqh_protein_autoprepared_prepared

>  <s_lp_Force_Field>  (1) 
S-OPLS

>  <s_lp_Variant>  (1) 
DiffSBDD_88-1

>  <s_m_source_file>  (1) 
generated_GPCR_5HT2C_ligand_DiffSBDD_2026-06-23_prepared.sdf

>  <GenAI_Model>  (1) 
DiffSBDD

>  <Protein>  (1) 
GPCR_5HT2C

$$$$
DiffSBDD_21
     RDKit          3D

  0  0  0  0  0  0  0  0  0  0999 V3000
M  V30 BEGIN CTAB
M  V30 COUNTS 55 56 0 0 1
M  V30 BEGIN ATOM
M  V30 1 C 35.245101 32.559795 60.763805 0
M  V30 2 C 34.789498 33.698102 60.046165 0
M  V30 3 C 38.229195 25.552416 57.585054 0
M  V30 4 O 37.644863 28.775854 58.074496 0
M  V30 5 O 36.583010 30.937763 54.567764 0
M  V30 6 O 39.925151 28.091280 50.840386 0
M  V30 7 C 37.732706 31.731704 54.410102 0
M  V30 8 N 35.662661 31.667506 61.367750 0
M  V30 9 C 37.591353 33.752079 58.117899 0
M  V30 10 C 37.148797 34.356937 59.449124 0
M  V30 11 O 37.896839 26.474132 56.561724 0
M  V30 12 C 38.957579 33.076650 58.137631 0
M  V30 13 C 38.903734 27.457485 56.379995 0 CFG=2
M  V30 14 C 39.699107 29.484387 50.952574 0
M  V30 15 C 39.084914 27.723037 53.097645 0
M  V30 16 C 38.770180 28.701346 57.223557 0 CFG=1
M  V30 17 C 39.377064 32.728533 56.707810 0
M  V30 18 C 38.986044 31.089452 55.031052 0 CFG=1
M  V30 19 N 38.937078 29.170096 53.333809 0
M  V30 20 O 38.943195 31.409341 56.412243 0
M  V30 21 C 39.167755 29.555453 54.752572 0 CFG=2
M  V30 22 C 39.824671 29.900812 52.422070 0
M  V30 23 C 38.997924 27.337217 51.608386 0
M  V30 24 C 35.644387 34.535122 59.440115 0
M  V30 25 C 38.363828 28.731310 55.757788 0 CFG=1
M  V30 26 H 33.725027 33.869682 60.002132 0
M  V30 27 H 37.427413 24.821627 57.692260 0
M  V30 28 H 39.148243 25.014562 57.350219 0
M  V30 29 H 38.354862 26.054125 58.546236 0
M  V30 30 H 37.197733 29.592841 57.901804 0
M  V30 31 H 36.203641 31.154103 55.421936 0
M  V30 32 H 37.950442 31.882805 53.367760 0
M  V30 33 H 37.503421 32.725098 54.785280 0
M  V30 34 H 37.596227 34.537628 57.367448 0
M  V30 35 H 36.861274 33.017325 57.784813 0
M  V30 36 H 37.452357 33.708992 60.271410 0
M  V30 37 H 37.630340 35.319955 59.622716 0
M  V30 38 H 38.931692 32.183254 58.762922 0
M  V30 39 H 39.692764 33.737801 58.586339 0
M  V30 40 H 39.885626 27.086497 56.089166 0
M  V30 41 H 38.717714 29.736216 50.567782 0
M  V30 42 H 40.431072 30.013741 50.341093 0
M  V30 43 H 40.027102 27.344573 53.496889 0
M  V30 44 H 38.302082 27.182230 53.630329 0
M  V30 45 H 39.654018 29.240767 57.560266 0
M  V30 46 H 40.445137 32.793147 56.567733 0
M  V30 47 H 38.994786 33.478797 56.018391 0
M  V30 48 H 39.862413 31.588329 54.612479 0
M  V30 49 H 40.210972 29.340269 54.985268 0
M  V30 50 H 39.662134 30.974130 52.479579 0
M  V30 51 H 40.845131 29.737754 52.724704 0
M  V30 52 H 37.989488 27.489379 51.224897 0
M  V30 53 H 39.245174 26.284944 51.480727 0
M  V30 54 H 35.261424 35.389821 58.902662 0
M  V30 55 H 37.298587 28.726430 55.547912 0
M  V30 END ATOM
M  V30 BEGIN BOND
M  V30 1 1 2 1
M  V30 2 1 7 5
M  V30 3 3 8 1
M  V30 4 1 10 9
M  V30 5 1 11 3
M  V30 6 1 12 9
M  V30 7 1 13 11
M  V30 8 1 14 6
M  V30 9 1 16 4
M  V30 10 1 16 13
M  V30 11 1 17 12
M  V30 12 1 18 7
M  V30 13 1 19 15
M  V30 14 1 20 17
M  V30 15 1 20 18
M  V30 16 1 21 18
M  V30 17 1 21 19
M  V30 18 1 22 14
M  V30 19 1 22 19
M  V30 20 1 23 6
M  V30 21 1 23 15
M  V30 22 2 24 2
M  V30 23 1 24 10
M  V30 24 1 25 13
M  V30 25 1 25 16
M  V30 26 1 25 21
M  V30 27 1 26 2
M  V30 28 1 27 3
M  V30 29 1 28 3
M  V30 30 1 29 3
M  V30 31 1 30 4
M  V30 32 1 31 5
M  V30 33 1 32 7
M  V30 34 1 33 7
M  V30 35 1 34 9
M  V30 36 1 35 9
M  V30 37 1 36 10
M  V30 38 1 37 10
M  V30 39 1 38 12
M  V30 40 1 39 12
M  V30 41 1 13 40 CFG=3
M  V30 42 1 41 14
M  V30 43 1 42 14
M  V30 44 1 43 15
M  V30 45 1 44 15
M  V30 46 1 16 45 CFG=1
M  V30 47 1 46 17
M  V30 48 1 47 17
M  V30 49 1 18 48 CFG=3
M  V30 50 1 21 49 CFG=1
M  V30 51 1 50 22
M  V30 52 1 51 22
M  V30 53 1 52 23
M  V30 54 1 53 23
M  V30 55 1 54 24
M  V30 56 1 25 55 CFG=1
M  V30 END BOND
M  V30 END CTAB
M  END
>  <i_epik_Tot_Q>  (1) 
0

>  <i_epik_Tot_abs_Q>  (1) 
0

>  <i_i_glide_confnum>  (1) 
3476

>  <i_i_glide_lignum>  (1) 
51

>  <i_i_glide_posenum>  (1) 
391

>  <i_i_glide_rotatable_bonds>  (1) 
13

>  <i_lp_mmshare_version>  (1) 
72125

>  <i_m_source_file_index>  (1) 
22

>  <i_f3d_flags>  (1) 
0

>  <num_sample>  (1) 
100

>  <b_lp_Chiralities_Consistent>  (1) 
1

>  <r_epik_Charging_Adjusted_Penalty>  (1) 
0.033214284747091018

>  <r_epik_Ionization_Penalty>  (1) 
0.033214513384273246

>  <r_epik_Ionization_Penalty_Charging>  (1) 
0

>  <r_epik_Ionization_Penalty_Neutral>  (1) 
0.033214513384273246

>  <r_epik_State_Penalty>  (1) 
0.033214284747091018

>  <r_glide_ring_energy>  (1) 
0

>  <r_i_docking_score>  (1) 
-5.2266068526342266

>  <r_i_glide_ecoul>  (1) 
-9.1014697581789044

>  <r_i_glide_eff_state_penalty>  (1) 
0.033214284747091018

>  <r_i_glide_einternal>  (1) 
23.051217576649815

>  <r_i_glide_emodel>  (1) 
-38.222910695326092

>  <r_i_glide_emodel_strain>  (1) 
1.2427526130797659

>  <r_i_glide_energy>  (1) 
-36.865710608547587

>  <r_i_glide_erotb>  (1) 
1.5209836995870194

>  <r_i_glide_esite>  (1) 
0

>  <r_i_glide_evdw>  (1) 
-27.76424085036868

>  <r_i_glide_gscore>  (1) 
-5.2598211373813175

>  <r_i_glide_gscore_strain>  (1) 
0

>  <r_i_glide_hbond>  (1) 
-0.46490008508489267

>  <r_i_glide_ligand_efficiency>  (1) 
-0.20906427410536907

>  <r_i_glide_ligand_efficiency_ln>  (1) 
-1.2388624528425194

>  <r_i_glide_ligand_efficiency_sa>  (1) 
-0.61130764591069597

>  <r_i_glide_lipo>  (1) 
-2.2808560301563046

>  <r_i_glide_metal>  (1) 
-0

>  <r_i_glide_rewards>  (1) 
-1.28161621548187

>  <r_lp_Energy>  (1) 
18.010252999999999

>  <s_epik_cmdline>  (1) 
J2VwaWtfcHl0aG9uJywgJy1waHQnLCAnMS4wJywgJy1waCcsICc3LjQnLCAnLXRuJywgJzgnLCAnLW1hJywgJzUwMCcsICctaW1hZScsICc8aW5maWxlLm1hZT4nLCAnLW9tYWUnLCAnPG91dGZpbGUubWFlPic=

>  <s_epik_input>  (1) 
TiNDL1tDSF09W0NIXVxbQ0gyXVtDSDJdW0NIMl1bQ0gyXU9bQ0BIXShbQ0gyXVtPSF0pW0NAQEhdKFtDQEBIXTFbQ0BASF0oW09IXSlbQ0BIXTFPW0NIM10pTjJbQ0gyXVtDSDJdT1tDSDJdW0NIMl0y

>  <s_glide_docking_method>  (1) 
confgen

>  <s_i_glide_gridfile>  (1) 
gpcr_5ht2c_6bqh_protein_autoprepared_prepared

>  <s_lp_Force_Field>  (1) 
S-OPLS

>  <s_lp_Variant>  (1) 
DiffSBDD_21-1

>  <s_m_source_file>  (1) 
generated_GPCR_5HT2C_ligand_DiffSBDD_2026-06-23_prepared.sdf

>  <GenAI_Model>  (1) 
DiffSBDD

>  <Protein>  (1) 
GPCR_5HT2C

$$$$
DiffSBDD_83
     RDKit          3D

  0  0  0  0  0  0  0  0  0  0999 V3000
M  V30 BEGIN CTAB
M  V30 COUNTS 54 55 0 0 1
M  V30 BEGIN ATOM
M  V30 1 C 38.813480 36.757757 61.952930 0
M  V30 2 C 39.659864 29.511374 60.498913 0
M  V30 3 N 40.430514 29.060148 61.530014 0
M  V30 4 O 39.645136 29.167951 55.156467 0
M  V30 5 O 37.737555 37.109899 61.226208 0
M  V30 6 C 39.861741 34.682059 62.863529 0
M  V30 7 C 41.032469 35.437166 63.489140 0
M  V30 8 C 38.611613 31.116248 55.419201 0
M  V30 9 C 38.046724 24.309274 57.322419 0
M  V30 10 C 38.860206 35.287051 62.167732 0
M  V30 11 C 38.989252 28.583181 59.538062 0
M  V30 12 C 40.956258 32.493864 62.211516 0
M  V30 13 N 40.966183 30.039770 62.275620 0
M  V30 14 O 37.645129 38.541307 60.967758 0
M  V30 15 C 38.315138 28.248191 57.028830 0 CFG=1
M  V30 16 C 40.217930 26.492349 56.810782 0
M  V30 17 C 39.678659 30.496852 55.048173 0
M  V30 18 O 39.645137 37.560942 62.378232 0
M  V30 19 C 38.294756 29.014559 55.674356 0 CFG=1
M  V30 20 C 39.673322 30.872049 60.567759 0
M  V30 21 O 37.645108 30.302728 55.853053 0
M  V30 22 C 37.956933 25.787661 57.731960 0
M  V30 23 C 38.698941 26.753536 56.777989 0 CFG=1
M  V30 24 C 40.526634 31.153550 61.685004 0
M  V30 25 Cl 38.445247 32.832305 55.367736 0
M  V30 26 C 39.880895 33.174899 63.066616 0
M  V30 27 C 39.156301 29.029723 58.073667 0
M  V30 28 H 40.605619 28.086179 61.736540 0
M  V30 29 H 41.715754 34.750790 63.989613 0
M  V30 30 H 41.611879 35.968073 62.732751 0
M  V30 31 H 40.688008 36.145897 64.243071 0
M  V30 32 H 37.449007 23.688367 57.988762 0
M  V30 33 H 37.676705 24.156089 56.308338 0
M  V30 34 H 39.068872 23.933574 57.367752 0
M  V30 35 H 38.060558 34.694073 61.747471 0
M  V30 36 H 39.388958 27.579551 59.670415 0
M  V30 37 H 37.929803 28.537760 59.778015 0
M  V30 38 H 41.200753 33.129254 61.360819 0
M  V30 39 H 41.881905 32.409697 62.782517 0
M  V30 40 H 37.074915 38.813975 61.669750 0
M  V30 41 H 37.278648 28.275098 57.367761 0
M  V30 42 H 40.625552 26.567498 57.818781 0
M  V30 43 H 40.445135 25.494635 56.437694 0
M  V30 44 H 40.765772 27.190302 56.179208 0
M  V30 45 H 40.601534 30.904622 54.662056 0
M  V30 46 H 37.708391 28.478266 54.926023 0
M  V30 47 H 39.174355 31.567128 59.908600 0
M  V30 48 H 38.331866 25.889990 58.747875 0
M  V30 49 H 36.900647 26.057034 57.767829 0
M  V30 50 H 38.354678 26.493488 55.776104 0
M  V30 51 H 40.013006 32.925754 64.120226 0
M  V30 52 H 38.899128 32.790427 62.785340 0
M  V30 53 H 38.851403 30.074734 58.028177 0
M  V30 54 H 40.212375 29.027504 57.802885 0
M  V30 END ATOM
M  V30 BEGIN BOND
M  V30 1 1 3 2
M  V30 2 1 5 1
M  V30 3 1 7 6
M  V30 4 1 10 1
M  V30 5 2 10 6
M  V30 6 1 11 2
M  V30 7 1 13 3
M  V30 8 1 14 5
M  V30 9 1 17 4
M  V30 10 2 17 8
M  V30 11 2 18 1
M  V30 12 1 19 4
M  V30 13 1 19 15
M  V30 14 2 20 2
M  V30 15 1 21 8
M  V30 16 1 21 19
M  V30 17 1 22 9
M  V30 18 1 23 15
M  V30 19 1 23 16
M  V30 20 1 23 22
M  V30 21 1 24 12
M  V30 22 2 24 13
M  V30 23 1 24 20
M  V30 24 1 25 8
M  V30 25 1 26 6
M  V30 26 1 26 12
M  V30 27 1 27 11
M  V30 28 1 27 15
M  V30 29 1 28 3
M  V30 30 1 29 7
M  V30 31 1 30 7
M  V30 32 1 31 7
M  V30 33 1 32 9
M  V30 34 1 33 9
M  V30 35 1 34 9
M  V30 36 1 35 10
M  V30 37 1 36 11
M  V30 38 1 37 11
M  V30 39 1 38 12
M  V30 40 1 39 12
M  V30 41 1 40 14
M  V30 42 1 15 41 CFG=1
M  V30 43 1 42 16
M  V30 44 1 43 16
M  V30 45 1 44 16
M  V30 46 1 45 17
M  V30 47 1 19 46 CFG=3
M  V30 48 1 47 20
M  V30 49 1 48 22
M  V30 50 1 49 22
M  V30 51 1 23 50 CFG=3
M  V30 52 1 51 26
M  V30 53 1 52 26
M  V30 54 1 53 27
M  V30 55 1 54 27
M  V30 END BOND
M  V30 END CTAB
M  END
>  <i_epik_Tot_Q>  (1) 
0

>  <i_epik_Tot_abs_Q>  (1) 
0

>  <i_i_glide_confnum>  (1) 
1614

>  <i_i_glide_lignum>  (1) 
191

>  <i_i_glide_posenum>  (1) 
306

>  <i_i_glide_rotatable_bonds>  (1) 
12

>  <i_lp_mmshare_version>  (1) 
72125

>  <i_m_source_file_index>  (1) 
84

>  <i_f3d_flags>  (1) 
0

>  <num_sample>  (1) 
100

>  <b_lp_Chiralities_Consistent>  (1) 
1

>  <r_epik_Charging_Adjusted_Penalty>  (1) 
0.41067983895260396

>  <r_epik_Ionization_Penalty>  (1) 
0.00076996626271645392

>  <r_epik_Ionization_Penalty_Charging>  (1) 
0

>  <r_epik_Ionization_Penalty_Neutral>  (1) 
0.00076996626271645392

>  <r_epik_State_Penalty>  (1) 
0.41067983895260396

>  <r_glide_ring_energy>  (1) 
0

>  <r_i_docking_score>  (1) 
-5.2245424001112699

>  <r_i_glide_ecoul>  (1) 
-1.5346003995633901

>  <r_i_glide_eff_state_penalty>  (1) 
0.41067983895260396

>  <r_i_glide_einternal>  (1) 
9.8233570695215544

>  <r_i_glide_emodel>  (1) 
-52.048527435025434

>  <r_i_glide_emodel_strain>  (1) 
0.45208901520630462

>  <r_i_glide_energy>  (1) 
-41.527912836750062

>  <r_i_glide_erotb>  (1) 
1.1080255732668134

>  <r_i_glide_esite>  (1) 
0

>  <r_i_glide_evdw>  (1) 
-39.993312437186674

>  <r_i_glide_gscore>  (1) 
-5.6352222390638742

>  <r_i_glide_gscore_strain>  (1) 
0

>  <r_i_glide_hbond>  (1) 
-0.29607190593015575

>  <r_i_glide_ligand_efficiency>  (1) 
-0.19350157037449148

>  <r_i_glide_ligand_efficiency_ln>  (1) 
-1.2161873374327536

>  <r_i_glide_ligand_efficiency_sa>  (1) 
-0.58050471112347457

>  <r_i_glide_lipo>  (1) 
-2.8392792849457589

>  <r_i_glide_metal>  (1) 
-0

>  <r_i_glide_rewards>  (1) 
-1.3780409396609306

>  <r_lp_Energy>  (1) 
13.026332

>  <r_lp_tautomer_probability>  (1) 
0.5

>  <s_epik_Chemistry_Notes>  (1) 
This compound contains an acetal/aminal-like group ( X-CH(R)-Y where X, Y are N, S, or O) that may be acid/base labile, releasing an aldehyde.

>  <s_epik_cmdline>  (1) 
J2VwaWtfcHl0aG9uJywgJy1waHQnLCAnMS4wJywgJy1waCcsICc3LjQnLCAnLXRuJywgJzgnLCAnLW1hJywgJzUwMCcsICctaW1hZScsICc8aW5maWxlLm1hZT4nLCAnLW9tYWUnLCAnPG91dGZpbGUubWFlPic=

>  <s_epik_input>  (1) 
W09IXU9DKD1PKS9bQ0hdPUMoXFtDSDNdKVtDSDJdW0NIMl1jKFtjSF0xKW5bbkhdYzFbQ0gyXVtDSDJdW0NASF0oW0NAQEhdKFtDSDNdKVtDSDJdW0NIM10pW0NAQEhdKE8yKU9bQ0hdPUMyQ2w=

>  <s_glide_docking_method>  (1) 
confgen

>  <s_i_glide_gridfile>  (1) 
gpcr_5ht2c_6bqh_protein_autoprepared_prepared

>  <s_lp_Force_Field>  (1) 
S-OPLS

>  <s_lp_Variant>  (1) 
DiffSBDD_83-2

>  <s_m_source_file>  (1) 
generated_GPCR_5HT2C_ligand_DiffSBDD_2026-06-23_prepared.sdf

>  <GenAI_Model>  (1) 
DiffSBDD

>  <Protein>  (1) 
GPCR_5HT2C

$$$$
DiffSBDD_83
     RDKit          3D

  0  0  0  0  0  0  0  0  0  0999 V3000
M  V30 BEGIN CTAB
M  V30 COUNTS 54 55 0 0 1
M  V30 BEGIN ATOM
M  V30 1 C 39.253750 28.353443 51.810317 0
M  V30 2 C 38.845146 32.271389 57.021325 0
M  V30 3 N 38.915258 32.687684 55.756227 0
M  V30 4 O 36.087046 32.423015 61.370169 0
M  V30 5 O 39.666590 28.023737 50.576980 0
M  V30 6 C 38.300042 27.230185 53.844008 0
M  V30 7 C 37.922762 25.990151 54.637301 0
M  V30 8 C 34.739544 33.522109 59.987916 0
M  V30 9 C 40.602730 35.439383 61.422242 0
M  V30 10 C 38.858607 27.144132 52.599581 0
M  V30 11 C 38.725128 33.278370 58.120448 0
M  V30 12 C 39.230771 29.077005 55.272227 0
M  V30 13 N 39.050990 31.548599 55.064701 0
M  V30 14 O 40.045091 29.185092 49.768085 0
M  V30 15 C 37.952960 33.738400 60.528163 0 CFG=1
M  V30 16 C 40.082487 32.423570 61.410862 0
M  V30 17 C 34.992078 32.423476 60.614543 0
M  V30 18 O 39.223195 29.510178 52.229089 0
M  V30 19 C 36.528328 33.783845 61.120377 0 CFG=1
M  V30 20 C 38.918790 30.844023 57.126941 0
M  V30 21 O 35.645398 34.479263 60.199856 0
M  V30 22 C 39.543887 34.737580 62.291446 0
M  V30 23 C 38.953863 33.433823 61.698897 0 CFG=1
M  V30 24 C 39.064062 30.431162 55.842663 0
M  V30 25 Cl 33.368490 33.737649 58.967844 0
M  V30 26 C 38.001809 28.547282 54.549626 0
M  V30 27 C 37.948783 32.756537 59.321856 0
M  V30 28 H 39.139595 31.550448 54.057151 0
M  V30 29 H 36.845174 25.957568 54.793993 0
M  V30 30 H 38.222049 25.060517 54.167761 0
M  V30 31 H 38.400203 26.019916 55.616904 0
M  V30 32 H 40.869883 36.408614 61.845381 0
M  V30 33 H 41.519024 34.852773 61.366915 0
M  V30 34 H 40.251654 35.612202 60.405743 0
M  V30 35 H 39.032241 26.177327 52.152912 0
M  V30 36 H 39.709703 33.618000 58.432048 0
M  V30 37 H 38.186468 34.137742 57.732003 0
M  V30 38 H 39.538032 28.380620 56.053050 0
M  V30 39 H 40.045312 29.123142 54.567395 0
M  V30 40 H 39.199605 29.443144 49.419192 0
M  V30 41 H 38.143289 34.742172 60.147568 0
M  V30 42 H 40.696510 32.724766 60.567940 0
M  V30 43 H 40.739673 32.328601 62.275057 0
M  V30 44 H 39.695692 31.424133 61.212738 0
M  V30 45 H 34.445141 31.501224 60.609866 0
M  V30 46 H 36.490641 34.344492 62.055410 0
M  V30 47 H 38.890131 30.228866 58.013623 0
M  V30 48 H 38.734044 35.437639 62.497799 0
M  V30 49 H 39.992560 34.520000 63.262070 0
M  V30 50 H 38.385726 32.962394 62.502871 0
M  V30 51 H 37.548604 29.279263 53.882571 0
M  V30 52 H 37.245165 28.368627 55.303940 0
M  V30 53 H 36.950236 32.587356 58.928567 0
M  V30 54 H 38.279990 31.767992 59.624895 0
M  V30 END ATOM
M  V30 BEGIN BOND
M  V30 1 2 3 2
M  V30 2 1 5 1
M  V30 3 1 7 6
M  V30 4 1 10 1
M  V30 5 2 10 6
M  V30 6 1 11 2
M  V30 7 1 13 3
M  V30 8 1 14 5
M  V30 9 1 17 4
M  V30 10 2 17 8
M  V30 11 2 18 1
M  V30 12 1 19 4
M  V30 13 1 19 15
M  V30 14 1 20 2
M  V30 15 1 21 8
M  V30 16 1 21 19
M  V30 17 1 22 9
M  V30 18 1 23 15
M  V30 19 1 23 16
M  V30 20 1 23 22
M  V30 21 1 24 12
M  V30 22 1 24 13
M  V30 23 2 24 20
M  V30 24 1 25 8
M  V30 25 1 26 6
M  V30 26 1 26 12
M  V30 27 1 27 11
M  V30 28 1 27 15
M  V30 29 1 28 13
M  V30 30 1 29 7
M  V30 31 1 30 7
M  V30 32 1 31 7
M  V30 33 1 32 9
M  V30 34 1 33 9
M  V30 35 1 34 9
M  V30 36 1 35 10
M  V30 37 1 36 11
M  V30 38 1 37 11
M  V30 39 1 38 12
M  V30 40 1 39 12
M  V30 41 1 40 14
M  V30 42 1 15 41 CFG=3
M  V30 43 1 42 16
M  V30 44 1 43 16
M  V30 45 1 44 16
M  V30 46 1 45 17
M  V30 47 1 19 46 CFG=1
M  V30 48 1 47 20
M  V30 49 1 48 22
M  V30 50 1 49 22
M  V30 51 1 23 50 CFG=1
M  V30 52 1 51 26
M  V30 53 1 52 26
M  V30 54 1 53 27
M  V30 55 1 54 27
M  V30 END BOND
M  V30 END CTAB
M  END
>  <i_epik_Tot_Q>  (1) 
0

>  <i_epik_Tot_abs_Q>  (1) 
0

>  <i_i_glide_confnum>  (1) 
1530

>  <i_i_glide_lignum>  (1) 
194

>  <i_i_glide_posenum>  (1) 
308

>  <i_i_glide_rotatable_bonds>  (1) 
12

>  <i_lp_mmshare_version>  (1) 
72125

>  <i_m_source_file_index>  (1) 
84

>  <i_f3d_flags>  (1) 
0

>  <num_sample>  (1) 
100

>  <b_lp_Chiralities_Consistent>  (1) 
1

>  <r_epik_Charging_Adjusted_Penalty>  (1) 
0.41067983895260396

>  <r_epik_Ionization_Penalty>  (1) 
0.00090540554532319911

>  <r_epik_Ionization_Penalty_Charging>  (1) 
0

>  <r_epik_Ionization_Penalty_Neutral>  (1) 
0.00090540554532319911

>  <r_epik_State_Penalty>  (1) 
0.41067983895260396

>  <r_glide_ring_energy>  (1) 
0

>  <r_i_docking_score>  (1) 
-5.2145821935167396

>  <r_i_glide_ecoul>  (1) 
-2.3700656030099854

>  <r_i_glide_eff_state_penalty>  (1) 
0.41067983895260396

>  <r_i_glide_einternal>  (1) 
9.9326626485995142

>  <r_i_glide_emodel>  (1) 
-49.817575533329936

>  <r_i_glide_emodel_strain>  (1) 
0.93729827563869605

>  <r_i_glide_energy>  (1) 
-42.832592817895005

>  <r_i_glide_erotb>  (1) 
1.1080255732668134

>  <r_i_glide_esite>  (1) 
0

>  <r_i_glide_evdw>  (1) 
-40.462527214885021

>  <r_i_glide_gscore>  (1) 
-5.6252620324693439

>  <r_i_glide_gscore_strain>  (1) 
0

>  <r_i_glide_hbond>  (1) 
-0.3410420252317598

>  <r_i_glide_ligand_efficiency>  (1) 
-0.19313267383395333

>  <r_i_glide_ligand_efficiency_ln>  (1) 
-1.2138687655443861

>  <r_i_glide_ligand_efficiency_sa>  (1) 
-0.57939802150186004

>  <r_i_glide_lipo>  (1) 
-2.5087983682381232

>  <r_i_glide_metal>  (1) 
-0

>  <r_i_glide_rewards>  (1) 
-1.5048110110705253

>  <r_lp_Energy>  (1) 
15.108011999999999

>  <r_lp_tautomer_probability>  (1) 
0.5

>  <s_epik_Chemistry_Notes>  (1) 
This compound contains an acetal/aminal-like group ( X-CH(R)-Y where X, Y are N, S, or O) that may be acid/base labile, releasing an aldehyde.

>  <s_epik_cmdline>  (1) 
J2VwaWtfcHl0aG9uJywgJy1waHQnLCAnMS4wJywgJy1waCcsICc3LjQnLCAnLXRuJywgJzgnLCAnLW1hJywgJzUwMCcsICctaW1hZScsICc8aW5maWxlLm1hZT4nLCAnLW9tYWUnLCAnPG91dGZpbGUubWFlPic=

>  <s_epik_input>  (1) 
W09IXU9DKD1PKVxbQ0hdPUMoXFtDSDNdKVtDSDJdW0NIMl1jKFtjSF0xKW5bbkhdYzFbQ0gyXVtDSDJdW0NASF0oW0NAQEhdKFtDSDNdKVtDSDJdW0NIM10pW0NAQEhdKE8yKU9bQ0hdPUMyQ2w=

>  <s_glide_docking_method>  (1) 
confgen

>  <s_i_glide_gridfile>  (1) 
gpcr_5ht2c_6bqh_protein_autoprepared_prepared

>  <s_lp_Force_Field>  (1) 
S-OPLS

>  <s_lp_Variant>  (1) 
DiffSBDD_83-5

>  <s_m_source_file>  (1) 
generated_GPCR_5HT2C_ligand_DiffSBDD_2026-06-23_prepared.sdf

>  <GenAI_Model>  (1) 
DiffSBDD

>  <Protein>  (1) 
GPCR_5HT2C

$$$$
DiffSBDD_18
     RDKit          3D

  0  0  0  0  0  0  0  0  0  0999 V3000
M  V30 BEGIN CTAB
M  V30 COUNTS 77 79 0 0 1
M  V30 BEGIN ATOM
M  V30 1 C 39.966488 26.068054 58.189010 0
M  V30 2 C 40.613247 33.119486 62.272803 0 CFG=2
M  V30 3 C 38.096641 27.337020 52.967718 0
M  V30 4 C 38.826693 28.506332 53.286952 0
M  V30 5 C 37.903022 26.832774 55.342805 0
M  V30 6 O 41.400710 34.419359 66.731275 0
M  V30 7 C 36.485605 29.319561 57.863214 0
M  V30 8 C 39.517775 36.538904 62.270724 0
M  V30 9 C 37.361318 33.029635 58.826299 0
M  V30 10 C 39.595114 29.016151 50.962680 0
M  V30 11 C 42.052669 34.221849 65.681449 0
M  V30 12 C 37.645127 26.502034 54.001927 0
M  V30 13 C 38.339685 30.513320 59.107436 0
M  V30 14 C 39.564562 35.320199 61.824946 0
M  V30 15 C 40.308629 36.972337 63.466038 0
M  V30 16 C 35.645110 29.609339 59.073187 0
M  V30 17 C 38.828921 27.006152 58.571906 0
M  V30 18 C 38.328496 32.874077 59.965495 0 CFG=2
M  V30 19 C 40.656548 33.397990 63.794203 0
M  V30 20 C 41.992251 32.809892 61.695968 0
M  V30 21 C 40.561900 35.955892 64.608213 0
M  V30 22 C 40.063467 30.034290 49.973991 0
M  V30 23 C 39.832481 34.116344 61.411450 0
M  V30 24 C 40.613174 29.076052 57.558993 0
M  V30 25 C 41.403523 34.658867 64.350803 0 CFG=1
M  V30 26 N 39.483855 27.738328 50.567813 0 CHG=1
M  V30 27 C 39.062497 28.851206 54.628323 0
M  V30 28 P 38.923579 28.457541 57.425673 0 CFG=1 CHG=1
M  V30 29 N 39.500311 33.676684 60.159754 0
M  V30 30 O 43.177501 33.686893 65.613426 0 CHG=-1
M  V30 31 C 38.449024 31.973958 58.778675 0 CFG=2
M  V30 32 C 38.604827 28.013649 55.667598 0
M  V30 33 N 37.881240 29.760204 57.912406 0 CFG=1 CHG=1
M  V30 34 N 39.333464 29.420517 52.244513 0
M  V30 35 H 40.045110 25.337749 58.967740 0
M  V30 36 H 39.797426 25.564050 57.237310 0
M  V30 37 H 40.940036 26.553983 58.148008 0
M  V30 38 H 40.054513 32.184903 62.196668 0
M  V30 39 H 37.857382 27.078875 51.957526 0
M  V30 40 H 37.548843 26.182721 56.129490 0
M  V30 41 H 36.045173 29.737759 56.962176 0
M  V30 42 H 36.445157 28.236288 57.767788 0
M  V30 43 H 39.017095 37.317117 61.714521 0
M  V30 44 H 36.337428 32.702202 58.985988 0
M  V30 45 H 37.474373 33.901568 58.183447 0
M  V30 46 H 37.090970 25.605272 53.766040 0
M  V30 47 H 39.327860 30.188579 59.426144 0
M  V30 48 H 37.774233 30.390435 60.021974 0
M  V30 49 H 41.249636 37.312787 63.039835 0
M  V30 50 H 39.808233 37.844455 63.886781 0
M  V30 51 H 34.803620 28.937658 58.967787 0
M  V30 52 H 36.086220 29.337722 60.022262 0
M  V30 53 H 35.292078 30.639423 59.104164 0
M  V30 54 H 38.939716 27.337763 59.604515 0
M  V30 55 H 37.877664 26.481249 58.497403 0
M  V30 56 H 37.929607 32.489186 60.903244 0
M  V30 57 H 39.645218 33.337756 64.167523 0
M  V30 58 H 41.112265 32.500451 64.219611 0
M  V30 59 H 41.924318 32.137916 60.841369 0
M  V30 60 H 42.445113 33.737706 61.367740 0
M  V30 61 H 42.648731 32.344840 62.431859 0
M  V30 62 H 39.636562 35.737795 65.114289 0
M  V30 63 H 41.089438 36.537747 65.364956 0
M  V30 64 H 41.084973 30.343737 50.198763 0
M  V30 65 H 40.045467 29.626359 48.965110 0
M  V30 66 H 39.420856 30.914962 49.992974 0
M  V30 67 H 41.260225 28.619875 56.809749 0
M  V30 68 H 40.445132 30.134388 57.367422 0
M  V30 69 H 41.057890 28.946242 58.546060 0
M  V30 70 H 42.229361 34.914393 63.685056 0
M  V30 71 H 39.684328 27.485073 49.610144 0
M  V30 72 H 39.605678 29.755527 54.864437 0
M  V30 73 H 40.268934 33.139623 59.789877 0
M  V30 74 H 39.227744 32.197693 58.052428 0
M  V30 75 H 39.637594 30.353030 52.494248 0
M  V30 76 H 39.200420 27.026196 51.223603 0
M  V30 77 H 37.932504 30.445280 57.170101 0
M  V30 END ATOM
M  V30 BEGIN BOND
M  V30 1 1 4 3
M  V30 2 2 11 6
M  V30 3 2 12 3
M  V30 4 1 12 5
M  V30 5 2 14 8
M  V30 6 1 15 8
M  V30 7 1 16 7
M  V30 8 1 17 1
M  V30 9 1 18 9
M  V30 10 1 19 2
M  V30 11 1 20 2
M  V30 12 1 21 15
M  V30 13 1 22 10
M  V30 14 1 23 2
M  V30 15 2 23 14
M  V30 16 1 25 11
M  V30 17 1 25 19
M  V30 18 1 25 21
M  V30 19 2 26 10
M  V30 20 2 27 4
M  V30 21 1 28 17 CFG=1
M  V30 22 1 28 24
M  V30 23 1 29 18
M  V30 24 1 29 23
M  V30 25 1 30 11
M  V30 26 1 31 9
M  V30 27 1 31 13
M  V30 28 1 31 18
M  V30 29 2 32 5
M  V30 30 1 32 27
M  V30 31 1 32 28
M  V30 32 1 33 7
M  V30 33 1 33 13
M  V30 34 1 33 28
M  V30 35 1 34 4
M  V30 36 1 34 10
M  V30 37 1 35 1
M  V30 38 1 36 1
M  V30 39 1 37 1
M  V30 40 1 2 38 CFG=1
M  V30 41 1 39 3
M  V30 42 1 40 5
M  V30 43 1 41 7
M  V30 44 1 42 7
M  V30 45 1 43 8
M  V30 46 1 44 9
M  V30 47 1 45 9
M  V30 48 1 46 12
M  V30 49 1 47 13
M  V30 50 1 48 13
M  V30 51 1 49 15
M  V30 52 1 50 15
M  V30 53 1 51 16
M  V30 54 1 52 16
M  V30 55 1 53 16
M  V30 56 1 54 17
M  V30 57 1 55 17
M  V30 58 1 18 56 CFG=1
M  V30 59 1 57 19
M  V30 60 1 58 19
M  V30 61 1 59 20
M  V30 62 1 60 20
M  V30 63 1 61 20
M  V30 64 1 62 21
M  V30 65 1 63 21
M  V30 66 1 64 22
M  V30 67 1 65 22
M  V30 68 1 66 22
M  V30 69 1 67 24
M  V30 70 1 68 24
M  V30 71 1 69 24
M  V30 72 1 25 70 CFG=3
M  V30 73 1 71 26
M  V30 74 1 72 27
M  V30 75 1 73 29
M  V30 76 1 31 74 CFG=3
M  V30 77 1 75 34
M  V30 78 1 76 26
M  V30 79 1 33 77 CFG=3
M  V30 END BOND
M  V30 END CTAB
M  END
>  <i_epik_Tot_Q>  (1) 
2

>  <i_epik_Tot_abs_Q>  (1) 
4

>  <i_i_glide_confnum>  (1) 
893

>  <i_i_glide_lignum>  (1) 
44

>  <i_i_glide_posenum>  (1) 
237

>  <i_i_glide_rotatable_bonds>  (1) 
11

>  <i_lp_mmshare_version>  (1) 
72125

>  <i_m_source_file_index>  (1) 
19

>  <i_f3d_flags>  (1) 
0

>  <num_sample>  (1) 
100

>  <b_lp_Chiralities_Consistent>  (1) 
1

>  <r_epik_Charging_Adjusted_Penalty>  (1) 
0.035732071636325656

>  <r_epik_Ionization_Penalty>  (1) 
0.019213783482484162

>  <r_epik_Ionization_Penalty_Charging>  (1) 
0.019186760244236628

>  <r_epik_Ionization_Penalty_Neutral>  (1) 
2.7023238247534635e-05

>  <r_epik_State_Penalty>  (1) 
0.016545311392089028

>  <r_glide_ring_energy>  (1) 
0

>  <r_i_docking_score>  (1) 
-5.2094233614301002

>  <r_i_glide_ecoul>  (1) 
-2.6762672804711407

>  <r_i_glide_eff_state_penalty>  (1) 
0.016545311392089028

>  <r_i_glide_einternal>  (1) 
6.3723878287532685

>  <r_i_glide_emodel>  (1) 
-41.710560404504619

>  <r_i_glide_emodel_strain>  (1) 
6.2427735330518885

>  <r_i_glide_energy>  (1) 
-32.439341210897958

>  <r_i_glide_erotb>  (1) 
0.68654883804919686

>  <r_i_glide_esite>  (1) 
-0.044971787243327746

>  <r_i_glide_evdw>  (1) 
-29.763073930426817

>  <r_i_glide_gscore>  (1) 
-5.225968672822189

>  <r_i_glide_gscore_strain>  (1) 
0.56069338326297213

>  <r_i_glide_hbond>  (1) 
0

>  <r_i_glide_ligand_efficiency>  (1) 
-0.15321833415970884

>  <r_i_glide_ligand_efficiency_ln>  (1) 
-1.1509077399158041

>  <r_i_glide_ligand_efficiency_sa>  (1) 
-0.49636792351586972

>  <r_i_glide_lipo>  (1) 
-3.4447798008883375

>  <r_i_glide_metal>  (1) 
-0

>  <r_i_glide_rewards>  (1) 
-1.0938655174106806

>  <r_lp_Energy>  (1) 
34.808309999999999

>  <s_epik_Chemistry_Notes>  (1) 
This compound has an imine and may undergo hydrolysis.

>  <s_epik_cmdline>  (1) 
J2VwaWtfcHl0aG9uJywgJy1waHQnLCAnMS4wJywgJy1waCcsICc3LjQnLCAnLXRuJywgJzgnLCAnLW1hJywgJzUwMCcsICctaW1hZScsICc8aW5maWxlLm1hZT4nLCAnLW9tYWUnLCAnPG91dGZpbGUubWFlPic=

>  <s_epik_input>  (1) 
W0hdL049QyhcW0NIM10pW05IXWMxW2NIXVtjSF1bY0hdYyhbY0hdMSlbUEBAK10oW0NIM10pKFtDSDJdW0NIM10pTihbQ0gyXVtDSDNdKVtDSDJdW0NASF0yW0NIMl1bQ0BASF0yW05IXUMzPUM9W0NIXVtDSDJdW0NIMl1bQ0BASF0oQyg9TylbT0hdKVtDSDJdW0NAQEhdM1tDSDNd

>  <s_glide_docking_method>  (1) 
confgen

>  <s_i_glide_gridfile>  (1) 
gpcr_5ht2c_6bqh_protein_autoprepared_prepared

>  <s_lp_Force_Field>  (1) 
S-OPLS

>  <s_lp_Variant>  (1) 
DiffSBDD_18-3

>  <s_m_source_file>  (1) 
generated_GPCR_5HT2C_ligand_DiffSBDD_2026-06-23_prepared.sdf

>  <GenAI_Model>  (1) 
DiffSBDD

>  <Protein>  (1) 
GPCR_5HT2C

$$$$
DiffSBDD_54
     RDKit          3D

  0  0  0  0  0  0  0  0  0  0999 V3000
M  V30 BEGIN CTAB
M  V30 COUNTS 42 43 0 0 1
M  V30 BEGIN ATOM
M  V30 1 C 38.350748 31.955597 55.407064 0
M  V30 2 C 39.182716 27.323076 56.982816 0
M  V30 3 C 40.143542 28.632804 58.879063 0
M  V30 4 C 40.383821 29.896438 50.760041 0
M  V30 5 C 39.630528 30.228899 53.192223 0
M  V30 6 S 38.397887 29.957200 57.118418 0 CHG=1
M  V30 7 C 38.325798 32.321198 57.895280 0
M  V30 8 N 37.920236 26.947920 57.047802 0
M  V30 9 C 37.391042 29.327040 54.108335 0
M  V30 10 C 38.059900 25.659043 56.556906 0
M  V30 11 N 39.312225 25.295305 56.216517 0
M  V30 12 N 39.999115 26.404550 56.520445 0
M  V30 13 N 38.964487 30.613728 55.604227 0 CFG=1 CHG=1
M  V30 14 C 38.852766 29.690059 54.427359 0 CFG=2
M  V30 15 C 38.776284 32.887287 56.543346 0
M  V30 16 C 39.628134 29.302212 51.957375 0
M  V30 17 O 38.845136 31.011492 58.082810 0
M  V30 18 C 39.688528 28.671972 57.408194 0 CFG=2
M  V30 19 H 37.262117 31.878854 55.367552 0
M  V30 20 H 38.662768 32.417438 54.473997 0
M  V30 21 H 40.910981 27.871840 59.029230 0
M  V30 22 H 39.312454 28.397835 59.545656 0
M  V30 23 H 40.572096 29.582303 59.199405 0
M  V30 24 H 40.305363 29.239357 49.893865 0
M  V30 25 H 41.443851 30.037637 50.967645 0
M  V30 26 H 39.969756 30.863059 50.471065 0
M  V30 27 H 40.660588 30.426365 53.486080 0
M  V30 28 H 39.245125 31.191930 52.867268 0
M  V30 29 H 38.694291 32.958774 58.699701 0
M  V30 30 H 37.245134 32.317783 57.982407 0
M  V30 31 H 37.316484 28.559526 53.338754 0
M  V30 32 H 36.845137 30.198080 53.772413 0
M  V30 33 H 36.856781 28.936057 54.967761 0
M  V30 34 H 37.224659 24.982777 56.446671 0
M  V30 35 H 41.002925 26.474657 56.407674 0
M  V30 36 H 39.352948 28.760653 54.693794 0
M  V30 37 H 39.860957 32.999224 56.534800 0
M  V30 38 H 38.351343 33.881081 56.392897 0
M  V30 39 H 40.045100 28.325834 52.204331 0
M  V30 40 H 38.605262 29.115394 51.631389 0
M  V30 41 H 40.559678 28.921667 56.801914 0
M  V30 42 H 39.951966 30.805217 55.685747 0
M  V30 END ATOM
M  V30 BEGIN BOND
M  V30 1 2 8 2
M  V30 2 1 10 8
M  V30 3 2 11 10
M  V30 4 1 12 2
M  V30 5 1 12 11
M  V30 6 1 13 1
M  V30 7 1 13 6
M  V30 8 1 14 5
M  V30 9 1 14 9
M  V30 10 1 14 13
M  V30 11 1 15 1
M  V30 12 1 15 7
M  V30 13 1 16 4
M  V30 14 1 16 5
M  V30 15 1 6 17 CFG=1
M  V30 16 1 17 7
M  V30 17 1 18 2
M  V30 18 1 18 3
M  V30 19 1 18 6
M  V30 20 1 19 1
M  V30 21 1 20 1
M  V30 22 1 21 3
M  V30 23 1 22 3
M  V30 24 1 23 3
M  V30 25 1 24 4
M  V30 26 1 25 4
M  V30 27 1 26 4
M  V30 28 1 27 5
M  V30 29 1 28 5
M  V30 30 1 29 7
M  V30 31 1 30 7
M  V30 32 1 31 9
M  V30 33 1 32 9
M  V30 34 1 33 9
M  V30 35 1 34 10
M  V30 36 1 35 12
M  V30 37 1 14 36 CFG=1
M  V30 38 1 37 15
M  V30 39 1 38 15
M  V30 40 1 39 16
M  V30 41 1 40 16
M  V30 42 1 18 41 CFG=3
M  V30 43 1 13 42 CFG=1
M  V30 END BOND
M  V30 END CTAB
M  END
>  <i_epik_Tot_Q>  (1) 
2

>  <i_epik_Tot_abs_Q>  (1) 
2

>  <i_i_glide_confnum>  (1) 
30

>  <i_i_glide_lignum>  (1) 
115

>  <i_i_glide_posenum>  (1) 
309

>  <i_i_glide_rotatable_bonds>  (1) 
5

>  <i_lp_mmshare_version>  (1) 
72125

>  <i_m_source_file_index>  (1) 
55

>  <i_f3d_flags>  (1) 
0

>  <num_sample>  (1) 
100

>  <b_lp_Chiralities_Consistent>  (1) 
1

>  <r_epik_Charging_Adjusted_Penalty>  (1) 
0.22285261290592212

>  <r_epik_Ionization_Penalty>  (1) 
0.11376846567106323

>  <r_epik_Ionization_Penalty_Charging>  (1) 
0.11142630645296109

>  <r_epik_Ionization_Penalty_Neutral>  (1) 
0.0023421592181021404

>  <r_epik_State_Penalty>  (1) 
0.11142630645296105

>  <r_glide_ring_energy>  (1) 
0

>  <r_i_docking_score>  (1) 
-5.2010032322529751

>  <r_i_glide_ecoul>  (1) 
-3.1086840348564211

>  <r_i_glide_eff_state_penalty>  (1) 
0.11142630645296105

>  <r_i_glide_einternal>  (1) 
1.9357552422803579

>  <r_i_glide_emodel>  (1) 
-47.627052571175199

>  <r_i_glide_emodel_strain>  (1) 
0.021001985817107993

>  <r_i_glide_energy>  (1) 
-30.57077248684709

>  <r_i_glide_erotb>  (1) 
0.96597774364564237

>  <r_i_glide_esite>  (1) 
-0.037203718634559367

>  <r_i_glide_evdw>  (1) 
-27.46208845199067

>  <r_i_glide_gscore>  (1) 
-5.3124295387059366

>  <r_i_glide_gscore_strain>  (1) 
0

>  <r_i_glide_hbond>  (1) 
0

>  <r_i_glide_ligand_efficiency>  (1) 
-0.28894462401405419

>  <r_i_glide_ligand_efficiency_ln>  (1) 
-1.3368910623249985

>  <r_i_glide_ligand_efficiency_sa>  (1) 
-0.75724913678775785

>  <r_i_glide_lipo>  (1) 
-1.725332222675015

>  <r_i_glide_metal>  (1) 
-0

>  <r_i_glide_rewards>  (1) 
-2.6764643132140069

>  <r_lp_Energy>  (1) 
23.784423

>  <r_lp_tautomer_probability>  (1) 
0.94828448534560383

>  <s_epik_cmdline>  (1) 
J2VwaWtfcHl0aG9uJywgJy1waHQnLCAnMS4wJywgJy1waCcsICc3LjQnLCAnLXRuJywgJzgnLCAnLW1hJywgJzUwMCcsICctaW1hZScsICc8aW5maWxlLm1hZT4nLCAnLW9tYWUnLCAnPG91dGZpbGUubWFlPic=

>  <s_epik_input>  (1) 
W0NIM11bQ0gyXVtDSDJdW0NASF0oW0NIM10pTihbQ0gyXVtDSDJdW0NIMl1PMSlbUytdMVtDQEBIXShbQ0gzXSljMm5bY0hdbltuSF0y

>  <s_glide_docking_method>  (1) 
confgen

>  <s_i_glide_gridfile>  (1) 
gpcr_5ht2c_6bqh_protein_autoprepared_prepared

>  <s_lp_Force_Field>  (1) 
S-OPLS

>  <s_lp_Variant>  (1) 
DiffSBDD_54-1

>  <s_m_source_file>  (1) 
generated_GPCR_5HT2C_ligand_DiffSBDD_2026-06-23_prepared.sdf

>  <GenAI_Model>  (1) 
DiffSBDD

>  <Protein>  (1) 
GPCR_5HT2C

$$$$
DiffSBDD_62
     RDKit          3D

  0  0  0  0  0  0  0  0  0  0999 V3000
M  V30 BEGIN CTAB
M  V30 COUNTS 79 83 0 0 1
M  V30 BEGIN ATOM
M  V30 1 C 40.389325 30.331693 65.791704 0
M  V30 2 C 39.897188 30.097926 51.376498 0
M  V30 3 C 40.819482 28.601551 57.848502 0
M  V30 4 C 40.277645 32.049789 63.885691 0
M  V30 5 C 44.845588 27.033042 65.852713 0
M  V30 6 C 39.437555 27.584212 50.764094 0
M  V30 7 C 39.314605 28.394499 58.101628 0 CFG=2
M  V30 8 C 39.115224 28.652630 52.998528 0
M  V30 9 C 38.436612 27.655160 55.026190 0
M  V30 10 O 42.041725 27.904482 66.131012 0
M  V30 11 C 44.326792 28.440883 65.675560 0
M  V30 12 C 39.167864 31.273280 55.607491 0
M  V30 13 C 40.495867 30.599363 64.299867 0
M  V30 14 C 42.958171 28.728176 66.191482 0
M  V30 15 C 39.002747 29.960504 54.965627 0
M  V30 16 N 39.245124 29.816939 53.623136 0
M  V30 17 C 41.710380 27.577103 58.580042 0
M  V30 18 O 37.762455 30.537757 60.102919 0
M  V30 19 C 44.448330 27.519351 64.478815 0
M  V30 20 N 41.836048 30.104958 67.760666 0
M  V30 21 N 39.750856 30.890741 52.766947 0
M  V30 22 N 40.740775 29.667255 63.463916 0
M  V30 23 C 40.651117 29.884516 62.037639 0
M  V30 24 C 39.445268 28.712236 51.772332 0
M  V30 25 C 38.620752 28.971593 55.682590 0
M  V30 26 C 38.610244 30.787016 57.036095 0
M  V30 27 N 42.808670 29.972126 66.695919 0
M  V30 28 C 39.029452 29.931916 60.235925 0 CFG=2
M  V30 29 C 41.613201 30.808512 66.573021 0 CFG=1
M  V30 30 C 43.948256 26.249829 58.567734 0
M  V30 31 C 43.059573 27.337747 57.908526 0
M  V30 32 C 38.368048 29.185042 57.135093 0 CFG=2
M  V30 33 C 43.791065 28.604565 57.490800 0
M  V30 34 C 38.997069 28.520324 59.616453 0
M  V30 35 N 39.245207 29.877612 61.668685 0
M  V30 36 N 38.662222 27.507528 53.751690 0
M  V30 37 H 39.527184 30.877181 66.171719 0
M  V30 38 H 40.135536 29.287813 65.970028 0
M  V30 39 H 40.934942 30.100194 51.040845 0
M  V30 40 H 39.254690 30.530233 50.607721 0
M  V30 41 H 41.012719 28.537774 56.778129 0
M  V30 42 H 41.104978 29.600252 58.167768 0
M  V30 43 H 40.092366 32.680756 64.754370 0
M  V30 44 H 41.156454 32.439839 63.370038 0
M  V30 45 H 39.415839 32.136565 63.224756 0
M  V30 46 H 45.904993 26.938875 66.086449 0
M  V30 47 H 44.200414 26.296996 66.329095 0
M  V30 48 H 38.845147 27.879106 49.901519 0
M  V30 49 H 40.445201 27.391654 50.402902 0
M  V30 50 H 39.028361 26.662115 51.174424 0
M  V30 51 H 39.121702 27.346731 57.867028 0
M  V30 52 H 38.103877 26.834689 55.667015 0
M  V30 53 H 45.057004 29.244899 65.752503 0
M  V30 54 H 40.216784 31.567915 55.634738 0
M  V30 55 H 38.555936 32.050681 55.148507 0
M  V30 56 H 41.857271 27.857870 59.621738 0
M  V30 57 H 41.187160 26.620748 58.567721 0
M  V30 58 H 43.536557 27.107980 64.045608 0
M  V30 59 H 45.238817 27.738617 63.762663 0
M  V30 60 H 41.274409 29.277450 67.924752 0
M  V30 61 H 39.037487 31.614288 52.693942 0
M  V30 62 H 41.169526 29.073530 61.525921 0
M  V30 63 H 41.131106 30.812974 61.725014 0
M  V30 64 H 37.647052 31.277765 57.191073 0
M  V30 65 H 39.245159 31.172747 57.823912 0
M  V30 66 H 39.795509 30.562719 59.793170 0
M  V30 67 H 41.773790 31.885652 66.587304 0
M  V30 68 H 44.599935 26.570587 59.367686 0
M  V30 69 H 43.343154 25.437122 58.967755 0
M  V30 70 H 44.613039 25.818229 57.818381 0
M  V30 71 H 42.752579 26.937753 56.967176 0
M  V30 72 H 37.322200 28.967195 57.358448 0
M  V30 73 H 43.648283 29.437640 58.167745 0
M  V30 74 H 44.845132 28.405921 57.367691 0
M  V30 75 H 43.411786 28.937879 56.534933 0
M  V30 76 H 39.683677 27.878745 60.166256 0
M  V30 77 H 38.045131 28.061277 59.821138 0
M  V30 78 H 38.793070 29.070481 62.075749 0
M  V30 79 H 37.619700 30.758095 59.193318 0
M  V30 END ATOM
M  V30 BEGIN BOND
M  V30 1 1 7 3
M  V30 2 1 11 5
M  V30 3 1 13 1
M  V30 4 1 13 4
M  V30 5 2 14 10
M  V30 6 1 14 11
M  V30 7 1 15 12
M  V30 8 1 16 8
M  V30 9 1 16 15
M  V30 10 1 17 3
M  V30 11 1 19 5
M  V30 12 1 19 11
M  V30 13 1 21 2
M  V30 14 1 21 16
M  V30 15 2 22 13
M  V30 16 1 23 22
M  V30 17 1 24 2
M  V30 18 1 24 6
M  V30 19 2 24 8
M  V30 20 1 25 9
M  V30 21 2 25 15
M  V30 22 1 26 12
M  V30 23 1 27 14
M  V30 24 1 27 20
M  V30 25 1 28 18
M  V30 26 1 29 1
M  V30 27 1 29 20
M  V30 28 1 29 27
M  V30 29 1 31 17
M  V30 30 1 31 30
M  V30 31 1 32 7
M  V30 32 1 32 25
M  V30 33 1 32 26
M  V30 34 1 33 31
M  V30 35 1 34 7
M  V30 36 1 34 28
M  V30 37 1 35 23
M  V30 38 1 35 28
M  V30 39 1 36 8
M  V30 40 2 36 9
M  V30 41 1 37 1
M  V30 42 1 38 1
M  V30 43 1 39 2
M  V30 44 1 40 2
M  V30 45 1 41 3
M  V30 46 1 42 3
M  V30 47 1 43 4
M  V30 48 1 44 4
M  V30 49 1 45 4
M  V30 50 1 46 5
M  V30 51 1 47 5
M  V30 52 1 48 6
M  V30 53 1 49 6
M  V30 54 1 50 6
M  V30 55 1 7 51 CFG=3
M  V30 56 1 52 9
M  V30 57 1 53 11
M  V30 58 1 54 12
M  V30 59 1 55 12
M  V30 60 1 56 17
M  V30 61 1 57 17
M  V30 62 1 58 19
M  V30 63 1 59 19
M  V30 64 1 60 20
M  V30 65 1 61 21
M  V30 66 1 62 23
M  V30 67 1 63 23
M  V30 68 1 64 26
M  V30 69 1 65 26
M  V30 70 1 28 66 CFG=3
M  V30 71 1 29 67 CFG=1
M  V30 72 1 68 30
M  V30 73 1 69 30
M  V30 74 1 70 30
M  V30 75 1 71 31
M  V30 76 1 32 72 CFG=1
M  V30 77 1 73 33
M  V30 78 1 74 33
M  V30 79 1 75 33
M  V30 80 1 76 34
M  V30 81 1 77 34
M  V30 82 1 78 35
M  V30 83 1 79 18
M  V30 END BOND
M  V30 END CTAB
M  END
>  <i_epik_Tot_Q>  (1) 
0

>  <i_epik_Tot_abs_Q>  (1) 
0

>  <i_i_glide_confnum>  (1) 
121

>  <i_i_glide_lignum>  (1) 
136

>  <i_i_glide_posenum>  (1) 
271

>  <i_i_glide_rotatable_bonds>  (1) 
14

>  <i_lp_mmshare_version>  (1) 
72125

>  <i_m_source_file_index>  (1) 
63

>  <i_f3d_flags>  (1) 
0

>  <num_sample>  (1) 
100

>  <b_lp_Chiralities_Consistent>  (1) 
1

>  <r_epik_Charging_Adjusted_Penalty>  (1) 
0.66759273229091232

>  <r_epik_Ionization_Penalty>  (1) 
2.307606927441598

>  <r_epik_Ionization_Penalty_Charging>  (1) 
0

>  <r_epik_Ionization_Penalty_Neutral>  (1) 
2.307606927441598

>  <r_epik_State_Penalty>  (1) 
0.66759273229091232

>  <r_glide_ring_energy>  (1) 
0

>  <r_i_docking_score>  (1) 
-5.1987407640164651

>  <r_i_glide_ecoul>  (1) 
-0.12274499632128499

>  <r_i_glide_eff_state_penalty>  (1) 
0.66759273229091232

>  <r_i_glide_einternal>  (1) 
6.3141413247228115

>  <r_i_glide_emodel>  (1) 
-58.796248194474572

>  <r_i_glide_emodel_strain>  (1) 
2.6407848783435099

>  <r_i_glide_energy>  (1) 
-47.00480675704307

>  <r_i_glide_erotb>  (1) 
0.98835574197518972

>  <r_i_glide_esite>  (1) 
-0.040880390620357254

>  <r_i_glide_evdw>  (1) 
-46.882061760721783

>  <r_i_glide_gscore>  (1) 
-5.8663334963073774

>  <r_i_glide_gscore_strain>  (1) 
0

>  <r_i_glide_hbond>  (1) 
0

>  <r_i_glide_ligand_efficiency>  (1) 
-0.14440946566712404

>  <r_i_glide_ligand_efficiency_ln>  (1) 
-1.1342247809643793

>  <r_i_glide_ligand_efficiency_sa>  (1) 
-0.47682954968459001

>  <r_i_glide_lipo>  (1) 
-2.9989241442221215

>  <r_i_glide_metal>  (1) 
-0

>  <r_i_glide_rewards>  (1) 
-1.4523698659558064

>  <r_lp_Energy>  (1) 
35.107028999999997

>  <r_lp_tautomer_probability>  (1) 
0.49999399997599986

>  <s_epik_Chemistry_Notes>  (1) 
This compound has an imine and may undergo hydrolysis. This compound contains an acetal/aminal-like group ( X-CH(R)-Y where X, Y are N, S, or O) that may be acid/base labile, releasing an aldehyde.

>  <s_epik_cmdline>  (1) 
J2VwaWtfcHl0aG9uJywgJy1waHQnLCAnMS4wJywgJy1waCcsICc3LjQnLCAnLXRuJywgJzgnLCAnLW1hJywgJzUwMCcsICctaW1hZScsICc8aW5maWxlLm1hZT4nLCAnLW9tYWUnLCAnPG91dGZpbGUubWFlPic=

>  <s_epik_input>  (1) 
W0NIMl0xW0NIMl1bQ0hdMUMoPU8pTjJbTkhdW0NAQEhdMltDSDJdL0MoW0NIM10pPU4vW0NIMl1bTkhdW0NASF0oW09IXSlbQ0gyXVtDQEhdKFtDSDJdW0NIMl1bQ0hdKFtDSDNdKVtDSDNdKVtDQEBIXShbQ0gyXVtDSDJdMylDKFtDSF09TjQpPUMzTihDND01KVtOSF1bQ0gyXUM1W0NIM10=

>  <s_glide_docking_method>  (1) 
confgen

>  <s_i_glide_gridfile>  (1) 
gpcr_5ht2c_6bqh_protein_autoprepared_prepared

>  <s_lp_Force_Field>  (1) 
S-OPLS

>  <s_lp_Variant>  (1) 
DiffSBDD_62-2

>  <s_m_source_file>  (1) 
generated_GPCR_5HT2C_ligand_DiffSBDD_2026-06-23_prepared.sdf

>  <GenAI_Model>  (1) 
DiffSBDD

>  <Protein>  (1) 
GPCR_5HT2C

$$$$
DiffSBDD_23
     RDKit          3D

  0  0  0  0  0  0  0  0  0  0999 V3000
M  V30 BEGIN CTAB
M  V30 COUNTS 68 70 0 0 1
M  V30 BEGIN ATOM
M  V30 1 C 40.977781 29.097567 64.928880 0
M  V30 2 C 40.843842 28.720896 66.288299 0
M  V30 3 C 37.930709 27.791422 52.488258 0
M  V30 4 O 36.899304 29.337755 58.637552 0 CHG=-1
M  V30 5 C 40.124470 29.625643 67.273194 0
M  V30 6 N 40.444718 30.313563 64.472402 0
M  V30 7 C 41.292650 31.165894 63.650049 0 CFG=1
M  V30 8 C 38.191196 30.980334 60.410160 0 CFG=2
M  V30 9 C 41.658744 28.230210 64.044096 0
M  V30 10 C 39.004533 30.270430 56.771912 0
M  V30 11 C 39.736474 27.859208 56.426542 0
M  V30 12 C 40.473578 32.321992 63.033265 0
M  V30 13 C 42.445129 31.667917 64.531293 0
M  V30 14 C 39.802970 26.691964 55.643528 0
M  V30 15 C 36.844531 34.111577 60.990823 0
M  V30 16 C 42.058633 26.672606 65.785876 0
M  V30 17 C 38.491145 28.981626 54.649928 0
M  V30 18 O 43.459920 30.937754 64.568738 0
M  V30 19 P 38.229913 29.484967 59.262762 0
M  V30 20 N 42.168096 27.067589 64.500255 0 CHG=1
M  V30 21 C 39.318959 35.468132 60.978302 0
M  V30 22 C 36.983288 35.343182 61.665092 0
M  V30 23 O 38.845278 28.335287 59.964711 0
M  V30 24 C 38.218407 36.018915 61.658591 0
M  V30 25 C 41.389873 27.490642 66.719061 0
M  V30 26 C 39.216692 26.667991 54.364227 0
M  V30 27 C 39.077973 29.006659 55.930734 0
M  V30 28 C 38.560543 27.813956 53.865074 0
M  V30 29 C 39.187538 34.241959 60.301746 0
M  V30 30 C 37.828734 32.230714 59.567706 0
M  V30 31 C 39.515484 31.085900 61.197069 0
M  V30 32 O 42.275621 32.712264 65.198033 0 CHG=-1
M  V30 33 C 37.953870 33.558270 60.303829 0
M  V30 34 O 39.346883 30.063658 58.126521 0
M  V30 35 C 35.508296 33.387516 61.009694 0
M  V30 36 O 39.300493 31.878591 62.358723 0
M  V30 37 H 36.845397 27.737755 52.576152 0
M  V30 38 H 38.184692 28.696917 51.936679 0
M  V30 39 H 38.272445 26.937765 51.903979 0
M  V30 40 H 40.343634 29.337755 68.301392 0
M  V30 41 H 40.437559 30.663495 67.154051 0
M  V30 42 H 39.047140 29.565010 67.120409 0
M  V30 43 H 39.923650 30.837539 65.159152 0
M  V30 44 H 41.725803 30.591661 62.833621 0
M  V30 45 H 37.398843 30.806430 61.136496 0
M  V30 46 H 41.810602 28.432458 62.993823 0
M  V30 47 H 38.024048 30.734158 56.679937 0
M  V30 48 H 39.714737 30.987589 56.359381 0
M  V30 49 H 40.189249 27.874578 57.407858 0
M  V30 50 H 41.092473 32.909280 62.352782 0
M  V30 51 H 40.135179 33.008331 63.810195 0
M  V30 52 H 40.305827 25.814737 56.024278 0
M  V30 53 H 42.507303 25.719921 66.028874 0
M  V30 54 H 37.987825 29.859257 54.270235 0
M  V30 55 H 40.266325 35.987232 60.974891 0
M  V30 56 H 36.143358 35.765838 62.194185 0
M  V30 57 H 38.321703 36.959434 62.179098 0
M  V30 58 H 41.297328 27.182177 67.750943 0
M  V30 59 H 39.271322 25.772863 53.767769 0
M  V30 60 H 40.034400 33.823210 59.780862 0
M  V30 61 H 36.836660 32.117957 59.128643 0
M  V30 62 H 38.496873 32.297373 58.710509 0
M  V30 63 H 39.852371 30.100355 61.516512 0
M  V30 64 H 40.299338 31.506948 60.567801 0
M  V30 65 H 34.845123 33.818718 61.758574 0
M  V30 66 H 35.019828 33.462321 60.037762 0
M  V30 67 H 35.631137 32.334727 61.258836 0
M  V30 68 H 42.658581 26.460491 63.842244 0
M  V30 END ATOM
M  V30 BEGIN BOND
M  V30 1 2 2 1
M  V30 2 1 5 2
M  V30 3 1 6 1
M  V30 4 1 7 6
M  V30 5 1 9 1
M  V30 6 1 12 7
M  V30 7 1 13 7
M  V30 8 1 14 11
M  V30 9 2 18 13
M  V30 10 1 19 4
M  V30 11 1 19 8
M  V30 12 2 20 9
M  V30 13 1 20 16
M  V30 14 2 22 15
M  V30 15 2 23 19
M  V30 16 2 24 21
M  V30 17 1 24 22
M  V30 18 1 25 2
M  V30 19 2 25 16
M  V30 20 2 26 14
M  V30 21 1 27 10
M  V30 22 2 27 11
M  V30 23 1 27 17
M  V30 24 1 28 3
M  V30 25 2 28 17
M  V30 26 1 28 26
M  V30 27 1 29 21
M  V30 28 1 30 8
M  V30 29 1 31 8
M  V30 30 1 32 13
M  V30 31 1 33 15
M  V30 32 2 33 29
M  V30 33 1 33 30
M  V30 34 1 34 10
M  V30 35 1 34 19
M  V30 36 1 35 15
M  V30 37 1 36 12
M  V30 38 1 36 31
M  V30 39 1 37 3
M  V30 40 1 38 3
M  V30 41 1 39 3
M  V30 42 1 40 5
M  V30 43 1 41 5
M  V30 44 1 42 5
M  V30 45 1 43 6
M  V30 46 1 7 44 CFG=3
M  V30 47 1 8 45 CFG=1
M  V30 48 1 46 9
M  V30 49 1 47 10
M  V30 50 1 48 10
M  V30 51 1 49 11
M  V30 52 1 50 12
M  V30 53 1 51 12
M  V30 54 1 52 14
M  V30 55 1 53 16
M  V30 56 1 54 17
M  V30 57 1 55 21
M  V30 58 1 56 22
M  V30 59 1 57 24
M  V30 60 1 58 25
M  V30 61 1 59 26
M  V30 62 1 60 29
M  V30 63 1 61 30
M  V30 64 1 62 30
M  V30 65 1 63 31
M  V30 66 1 64 31
M  V30 67 1 65 35
M  V30 68 1 66 35
M  V30 69 1 67 35
M  V30 70 1 68 20
M  V30 END BOND
M  V30 END CTAB
M  END
>  <i_epik_Tot_Q>  (1) 
-1

>  <i_epik_Tot_abs_Q>  (1) 
3

>  <i_i_glide_confnum>  (1) 
2499

>  <i_i_glide_lignum>  (1) 
58

>  <i_i_glide_posenum>  (1) 
286

>  <i_i_glide_rotatable_bonds>  (1) 
13

>  <i_lp_mmshare_version>  (1) 
72125

>  <i_m_source_file_index>  (1) 
24

>  <i_f3d_flags>  (1) 
0

>  <num_sample>  (1) 
100

>  <b_lp_Chiralities_Consistent>  (1) 
1

>  <r_epik_Charging_Adjusted_Penalty>  (1) 
1.2797278025130083

>  <r_epik_Ionization_Penalty>  (1) 
0.64011743969219936

>  <r_epik_Ionization_Penalty_Charging>  (1) 
0.64011720958933516

>  <r_epik_Ionization_Penalty_Neutral>  (1) 
2.3010286421690967e-07

>  <r_epik_State_Penalty>  (1) 
0.63961059292367306

>  <r_glide_ring_energy>  (1) 
0

>  <r_i_docking_score>  (1) 
-5.1935898868013677

>  <r_i_glide_ecoul>  (1) 
-1.0713485356083829

>  <r_i_glide_eff_state_penalty>  (1) 
0.63961059292367306

>  <r_i_glide_einternal>  (1) 
7.1650245916822737

>  <r_i_glide_emodel>  (1) 
-63.264731952496874

>  <r_i_glide_emodel_strain>  (1) 
0.45417005296908641

>  <r_i_glide_energy>  (1) 
-45.74342167664733

>  <r_i_glide_erotb>  (1) 
0.93981710635313198

>  <r_i_glide_esite>  (1) 
-0.022802668118982305

>  <r_i_glide_evdw>  (1) 
-44.67207314103895

>  <r_i_glide_gscore>  (1) 
-5.8332004797250407

>  <r_i_glide_gscore_strain>  (1) 
0

>  <r_i_glide_hbond>  (1) 
0

>  <r_i_glide_ligand_efficiency>  (1) 
-0.14426638574448244

>  <r_i_glide_ligand_efficiency_ln>  (1) 
-1.1331009987166654

>  <r_i_glide_ligand_efficiency_sa>  (1) 
-0.47635711018924998

>  <r_i_glide_lipo>  (1) 
-3.5802407564764644

>  <r_i_glide_metal>  (1) 
-0

>  <r_i_glide_rewards>  (1) 
-0.77566822408952074

>  <r_lp_Energy>  (1) 
41.185898999999999

>  <r_lp_tautomer_probability>  (1) 
0.99984579293731657

>  <s_epik_cmdline>  (1) 
J2VwaWtfcHl0aG9uJywgJy1waHQnLCAnMS4wJywgJy1waCcsICc3LjQnLCAnLXRuJywgJzgnLCAnLW1hJywgJzUwMCcsICctaW1hZScsICc8aW5maWxlLm1hZT4nLCAnLW9tYWUnLCAnPG91dGZpbGUubWFlPic=

>  <s_epik_input>  (1) 
W2NIXTFuW2NIXVtjSF1jKFtDSDNdKWMxW05IXVtDQEhdKEMoPU8pW09IXSlbQ0gyXU9bQ0gyXVtDQEBIXShbQ0gyXWMyW2NIXVtjSF1bY0hdW2NIXWMyW0NIM10pW1BAQF0oPU8pKFtPSF0pT1tDSDJdYzNbY0hdW2NIXVtjSF1jKFtDSDNdKVtjSF0z

>  <s_glide_docking_method>  (1) 
confgen

>  <s_i_glide_gridfile>  (1) 
gpcr_5ht2c_6bqh_protein_autoprepared_prepared

>  <s_lp_Force_Field>  (1) 
S-OPLS

>  <s_lp_Variant>  (1) 
DiffSBDD_23-2

>  <s_m_source_file>  (1) 
generated_GPCR_5HT2C_ligand_DiffSBDD_2026-06-23_prepared.sdf

>  <GenAI_Model>  (1) 
DiffSBDD

>  <Protein>  (1) 
GPCR_5HT2C

$$$$
DiffSBDD_57
     RDKit          3D

  0  0  0  0  0  0  0  0  0  0999 V3000
M  V30 BEGIN CTAB
M  V30 COUNTS 64 66 0 0 1
M  V30 BEGIN ATOM
M  V30 1 O 39.057121 31.360253 62.162253 0
M  V30 2 C 36.033678 34.119158 58.939544 0
M  V30 3 C 41.560353 34.451832 64.064214 0
M  V30 4 C 36.891144 32.187100 60.271504 0 CFG=2
M  V30 5 C 38.799412 29.369441 55.091953 0
M  V30 6 S 37.645137 33.737753 58.214547 0
M  V30 7 O 39.822217 29.985093 54.787134 0
M  V30 8 C 35.618473 32.917044 59.783566 0
M  V30 9 N 40.267612 27.902882 57.693577 0
M  V30 10 C 41.179495 31.902268 63.751753 0 CFG=2
M  V30 11 N 38.015791 29.705582 56.130501 0
M  V30 12 C 38.796207 32.561503 62.119197 0
M  V30 13 O 41.921032 31.631594 64.953863 0
M  V30 14 C 37.515081 33.039604 61.410661 0
M  V30 15 C 37.551247 31.041337 58.053148 0
M  V30 16 C 39.823503 26.408139 55.763981 0 CFG=2
M  V30 17 O 40.445163 29.854832 64.674515 0
M  V30 18 C 38.335410 30.734572 57.010811 0
M  V30 19 C 39.383088 26.869802 57.150768 0 CFG=1
M  V30 20 C 37.846101 32.147806 59.043414 0 CFG=2
M  V30 21 C 36.458353 30.809018 60.802063 0
M  V30 22 C 39.333285 26.963224 54.428535 0 CFG=2
M  V30 23 C 40.754917 33.334392 63.491230 0
M  V30 24 C 38.365045 28.135436 54.290245 0 CFG=2
M  V30 25 C 38.841756 25.625170 54.935095 0
M  V30 26 N 40.489152 31.279999 64.875083 0
M  V30 27 N 42.589542 34.184438 64.939169 0
M  V30 28 C 39.237261 25.701171 58.135945 0
M  V30 29 O 38.143546 24.883520 57.767761 0
M  V30 30 O 41.625951 27.390777 57.764612 0
M  V30 31 C 41.300646 35.737754 63.741760 0
M  V30 32 C 39.645148 33.617468 62.733044 0
M  V30 33 Cl 38.176568 28.537756 52.565925 0
M  V30 34 H 35.296953 34.338841 58.167760 0
M  V30 35 H 36.135680 35.010049 59.559516 0
M  V30 36 H 35.019786 32.253225 59.159724 0
M  V30 37 H 34.968464 33.217825 60.606597 0
M  V30 38 H 40.072406 28.180460 58.646056 0
M  V30 39 H 41.481762 31.320680 62.882027 0
M  V30 40 H 37.177835 29.176997 56.318711 0
M  V30 41 H 36.757367 33.188633 62.176147 0
M  V30 42 H 37.728443 34.037361 61.028570 0
M  V30 43 H 36.645089 30.479639 58.210251 0
M  V30 44 H 40.839296 26.017083 55.743273 0
M  V30 45 H 39.689945 29.749689 64.110292 0
M  V30 46 H 39.256613 31.253256 56.782259 0
M  V30 47 H 38.395407 27.320805 57.065085 0
M  V30 48 H 38.887141 32.038173 59.345101 0
M  V30 49 H 35.761360 30.300555 60.137536 0
M  V30 50 H 37.304197 30.137761 60.945459 0
M  V30 51 H 35.931793 30.937763 61.744217 0
M  V30 52 H 40.045465 26.908236 53.610393 0
M  V30 53 H 37.378846 27.817883 54.629548 0
M  V30 54 H 37.800211 25.579705 55.247062 0
M  V30 55 H 39.248126 24.688954 54.567767 0
M  V30 56 H 42.759145 33.244666 65.279936 0
M  V30 57 H 40.143851 25.096631 58.167745 0
M  V30 58 H 39.052252 26.080412 59.137650 0
M  V30 59 H 38.306263 24.539210 56.902428 0
M  V30 60 H 41.535893 26.583268 58.247047 0
M  V30 61 H 41.891450 36.532498 64.163956 0
M  V30 62 H 40.518541 36.019764 63.067068 0
M  V30 63 H 39.342106 34.629131 62.558535 0
M  V30 64 H 43.090751 34.924509 65.407885 0
M  V30 END ATOM
M  V30 BEGIN BOND
M  V30 1 1 6 2
M  V30 2 2 7 5
M  V30 3 1 8 2
M  V30 4 1 8 4
M  V30 5 1 11 5
M  V30 6 2 12 1
M  V30 7 1 13 10
M  V30 8 1 4 14 CFG=1
M  V30 9 1 14 12
M  V30 10 1 18 11
M  V30 11 2 18 15
M  V30 12 1 19 9
M  V30 13 1 19 16
M  V30 14 1 20 4
M  V30 15 1 20 6
M  V30 16 1 20 15
M  V30 17 1 21 4
M  V30 18 1 22 16
M  V30 19 1 23 3
M  V30 20 1 23 10
M  V30 21 1 24 5
M  V30 22 1 24 22
M  V30 23 1 25 16
M  V30 24 1 25 22
M  V30 25 1 26 10
M  V30 26 1 26 13
M  V30 27 1 26 17
M  V30 28 1 27 3
M  V30 29 1 28 19
M  V30 30 1 29 28
M  V30 31 1 30 9
M  V30 32 2 31 3
M  V30 33 1 32 12
M  V30 34 2 32 23
M  V30 35 1 33 24
M  V30 36 1 34 2
M  V30 37 1 35 2
M  V30 38 1 36 8
M  V30 39 1 37 8
M  V30 40 1 38 9
M  V30 41 1 10 39 CFG=3
M  V30 42 1 40 11
M  V30 43 1 41 14
M  V30 44 1 42 14
M  V30 45 1 43 15
M  V30 46 1 16 44 CFG=1
M  V30 47 1 45 17
M  V30 48 1 46 18
M  V30 49 1 19 47 CFG=3
M  V30 50 1 20 48 CFG=1
M  V30 51 1 49 21
M  V30 52 1 50 21
M  V30 53 1 51 21
M  V30 54 1 22 52 CFG=3
M  V30 55 1 24 53 CFG=1
M  V30 56 1 54 25
M  V30 57 1 55 25
M  V30 58 1 56 27
M  V30 59 1 57 28
M  V30 60 1 58 28
M  V30 61 1 59 29
M  V30 62 1 60 30
M  V30 63 1 61 31
M  V30 64 1 62 31
M  V30 65 1 63 32
M  V30 66 1 64 27
M  V30 END BOND
M  V30 END CTAB
M  END
>  <i_epik_Tot_Q>  (1) 
0

>  <i_epik_Tot_abs_Q>  (1) 
0

>  <i_i_glide_confnum>  (1) 
3917

>  <i_i_glide_lignum>  (1) 
126

>  <i_i_glide_posenum>  (1) 
190

>  <i_i_glide_rotatable_bonds>  (1) 
16

>  <i_lp_mmshare_version>  (1) 
72125

>  <i_m_source_file_index>  (1) 
58

>  <i_f3d_flags>  (1) 
0

>  <num_sample>  (1) 
100

>  <b_lp_Chiralities_Consistent>  (1) 
1

>  <r_epik_Charging_Adjusted_Penalty>  (1) 
0.024416195549470061

>  <r_epik_Ionization_Penalty>  (1) 
0.014246986074461085

>  <r_epik_Ionization_Penalty_Charging>  (1) 
6.6592516266621022e-05

>  <r_epik_Ionization_Penalty_Neutral>  (1) 
0.014180393558194464

>  <r_epik_State_Penalty>  (1) 
0.024349603033203441

>  <r_glide_ring_energy>  (1) 
0.20502008593199658

>  <r_i_docking_score>  (1) 
-5.1889803689375134

>  <r_i_glide_ecoul>  (1) 
-1.014489213960762

>  <r_i_glide_eff_state_penalty>  (1) 
0.024349603033203441

>  <r_i_glide_einternal>  (1) 
11.83920499046031

>  <r_i_glide_emodel>  (1) 
-51.951687940142477

>  <r_i_glide_emodel_strain>  (1) 
2.3353964049907034

>  <r_i_glide_energy>  (1) 
-45.679667192940038

>  <r_i_glide_erotb>  (1) 
1.0500022235395752

>  <r_i_glide_esite>  (1) 
-0.076130843617756863

>  <r_i_glide_evdw>  (1) 
-44.665177978979273

>  <r_i_glide_gscore>  (1) 
-5.2133299719707171

>  <r_i_glide_gscore_strain>  (1) 
0

>  <r_i_glide_hbond>  (1) 
-0.12591707533499913

>  <r_i_glide_ligand_efficiency>  (1) 
-0.15724182936174283

>  <r_i_glide_ligand_efficiency_ln>  (1) 
-1.154002366949249

>  <r_i_glide_ligand_efficiency_sa>  (1) 
-0.50435856578913585

>  <r_i_glide_lipo>  (1) 
-2.6738493425051

>  <r_i_glide_metal>  (1) 
-0

>  <r_i_glide_rewards>  (1) 
-1.0020026530093589

>  <r_lp_Energy>  (1) 
12.674657999999999

>  <s_epik_Chemistry_Notes>  (1) 
This compound has an imine and may undergo hydrolysis. This compound contains an acetal/aminal-like group ( X-CH(R)-Y where X, Y are N, S, or O) that may be acid/base labile, releasing an aldehyde. This compound has a N-S or N-O group and may undergo hydrolysis at high or low pH.

>  <s_epik_cmdline>  (1) 
J2VwaWtfcHl0aG9uJywgJy1waHQnLCAnMS4wJywgJy1waCcsICc3LjQnLCAnLXRuJywgJzgnLCAnLW1hJywgJzUwMCcsICctaW1hZScsICc8aW5maWxlLm1hZT4nLCAnLW9tYWUnLCAnPG91dGZpbGUubWFlPic=

>  <s_epik_input>  (1) 
W09IXU4xT1tDQEBIXTFDKC9DKD1OL1tIXSlbQ0gzXSk9W0NIXVxDKD1PKVtDSDJdW0NAQF0yKFtDSDNdKVtDSDJdW0NIMl1TW0NAQEhdMi9bQ0hdPVtDSF0vW05IXUMoPU8pW0NAQEhdKENsKVtDQEhdKFtDSDJdMylbQ0BIXTNbQ0BIXShbTkhdW09IXSlbQ0gyXVtPSF0=

>  <s_glide_docking_method>  (1) 
confgen

>  <s_i_glide_gridfile>  (1) 
gpcr_5ht2c_6bqh_protein_autoprepared_prepared

>  <s_lp_Force_Field>  (1) 
S-OPLS

>  <s_lp_Variant>  (1) 
DiffSBDD_57-2

>  <s_m_source_file>  (1) 
generated_GPCR_5HT2C_ligand_DiffSBDD_2026-06-23_prepared.sdf

>  <GenAI_Model>  (1) 
DiffSBDD

>  <Protein>  (1) 
GPCR_5HT2C

$$$$
DiffSBDD_85
     RDKit          3D

  0  0  0  0  0  0  0  0  0  0999 V3000
M  V30 BEGIN CTAB
M  V30 COUNTS 62 65 0 0 1
M  V30 BEGIN ATOM
M  V30 1 C 40.523629 30.172785 62.741125 0
M  V30 2 C 40.809794 28.617226 58.949843 0
M  V30 3 N 38.202292 24.956768 57.067367 0
M  V30 4 C 38.721647 32.373271 60.095094 0
M  V30 5 C 44.564928 28.754253 65.313085 0
M  V30 6 C 37.960318 26.153845 57.842002 0 CFG=2
M  V30 7 O 41.244790 29.712411 61.858269 0
M  V30 8 F 45.243685 30.994106 65.811516 0
M  V30 9 C 43.581614 27.860723 64.844131 0
M  V30 10 O 40.839849 30.221530 64.054451 0
M  V30 11 O 38.845158 27.148922 51.071492 0
M  V30 12 C 37.524059 26.077567 56.414262 0 CFG=1
M  V30 13 C 39.069860 33.001585 61.334632 0
M  V30 14 C 40.312369 25.851635 57.495590 0
M  V30 15 C 38.039735 26.950166 54.211030 0
M  V30 16 C 39.304032 26.643721 58.314851 0 CFG=1
M  V30 17 C 39.631659 27.312479 52.228662 0
M  V30 18 N 38.222783 26.941968 55.528129 0
M  V30 19 O 39.607559 24.937750 56.670475 0
M  V30 20 C 39.485788 28.185440 58.275809 0 CFG=1
M  V30 21 O 41.942531 28.300703 58.167878 0
M  V30 22 C 39.149359 30.766781 62.430164 0 CFG=1
M  V30 23 C 38.180129 30.259839 58.774268 0
M  V30 24 C 38.879467 27.949145 53.413015 0 CFG=1
M  V30 25 N 38.335539 28.811795 58.940938 0
M  V30 26 Cl 38.519748 33.336462 58.675747 0
M  V30 27 C 42.328750 28.349358 64.422841 0
M  V30 28 C 38.550811 31.032995 60.033336 0
M  V30 29 C 42.059926 29.736901 64.466856 0
M  V30 30 C 39.265895 32.275543 62.429055 0
M  V30 31 C 38.032638 29.138713 52.967493 0
M  V30 32 C 44.297116 30.136259 65.360976 0
M  V30 33 O 38.702756 30.224822 61.158660 0
M  V30 34 O 37.245509 26.209445 53.645719 0
M  V30 35 C 43.045662 30.627180 64.939530 0
M  V30 36 H 40.835773 29.692518 59.114242 0
M  V30 37 H 40.911182 28.143501 59.925981 0
M  V30 38 H 45.525198 28.379930 65.637171 0
M  V30 39 H 37.171497 26.135399 58.567644 0
M  V30 40 H 43.788937 26.801030 64.807139 0
M  V30 41 H 38.304039 27.915406 50.961917 0
M  V30 42 H 36.447557 25.968824 56.253131 0
M  V30 43 H 39.171133 34.076311 61.379629 0
M  V30 44 H 40.992786 25.337248 58.167640 0
M  V30 45 H 40.900152 26.475986 56.824774 0
M  V30 46 H 39.402623 26.323785 59.351214 0
M  V30 47 H 40.045151 26.345747 52.515040 0
M  V30 48 H 40.449460 27.966505 51.941944 0
M  V30 49 H 38.893948 27.577031 55.930439 0
M  V30 50 H 39.505626 28.521169 57.238726 0
M  V30 51 H 42.196547 27.406111 58.341891 0
M  V30 52 H 38.446938 30.464437 63.206128 0
M  V30 53 H 38.752864 30.621867 57.919020 0
M  V30 54 H 37.134976 30.488283 58.559118 0
M  V30 55 H 39.645132 28.331351 54.090251 0
M  V30 56 H 38.344301 28.605691 59.936405 0
M  V30 57 H 41.575679 27.663730 64.062978 0
M  V30 58 H 39.526713 32.754475 63.361790 0
M  V30 59 H 37.740765 29.768479 53.808951 0
M  V30 60 H 38.618222 29.737760 52.276975 0
M  V30 61 H 37.124163 28.817403 52.456087 0
M  V30 62 H 42.842728 31.686991 64.976092 0
M  V30 END ATOM
M  V30 BEGIN BOND
M  V30 1 1 6 3
M  V30 2 2 7 1
M  V30 3 2 9 5
M  V30 4 1 10 1
M  V30 5 1 12 3
M  V30 6 1 12 6
M  V30 7 1 13 4
M  V30 8 1 16 6
M  V30 9 1 16 14
M  V30 10 1 17 11
M  V30 11 1 18 12
M  V30 12 1 18 15
M  V30 13 1 19 3
M  V30 14 1 19 14
M  V30 15 1 20 2
M  V30 16 1 20 16
M  V30 17 1 21 2
M  V30 18 1 22 1
M  V30 19 1 24 15
M  V30 20 1 24 17
M  V30 21 1 25 20
M  V30 22 1 25 23
M  V30 23 1 26 4
M  V30 24 1 27 9
M  V30 25 2 28 4
M  V30 26 1 28 23
M  V30 27 1 29 10
M  V30 28 2 29 27
M  V30 29 2 30 13
M  V30 30 1 30 22
M  V30 31 1 31 24
M  V30 32 1 32 5
M  V30 33 1 32 8
M  V30 34 1 33 22
M  V30 35 1 33 28
M  V30 36 2 34 15
M  V30 37 1 35 29
M  V30 38 2 35 32
M  V30 39 1 36 2
M  V30 40 1 37 2
M  V30 41 1 38 5
M  V30 42 1 6 39 CFG=1
M  V30 43 1 40 9
M  V30 44 1 41 11
M  V30 45 1 12 42 CFG=1
M  V30 46 1 43 13
M  V30 47 1 44 14
M  V30 48 1 45 14
M  V30 49 1 16 46 CFG=1
M  V30 50 1 47 17
M  V30 51 1 48 17
M  V30 52 1 49 18
M  V30 53 1 20 50 CFG=3
M  V30 54 1 51 21
M  V30 55 1 22 52 CFG=1
M  V30 56 1 53 23
M  V30 57 1 54 23
M  V30 58 1 24 55 CFG=1
M  V30 59 1 56 25
M  V30 60 1 57 27
M  V30 61 1 58 30
M  V30 62 1 59 31
M  V30 63 1 60 31
M  V30 64 1 61 31
M  V30 65 1 62 35
M  V30 END BOND
M  V30 END CTAB
M  END
>  <i_epik_Tot_Q>  (1) 
0

>  <i_epik_Tot_abs_Q>  (1) 
0

>  <i_i_glide_confnum>  (1) 
2488

>  <i_i_glide_lignum>  (1) 
203

>  <i_i_glide_posenum>  (1) 
345

>  <i_i_glide_rotatable_bonds>  (1) 
14

>  <i_lp_mmshare_version>  (1) 
72125

>  <i_m_source_file_index>  (1) 
86

>  <i_f3d_flags>  (1) 
0

>  <num_sample>  (1) 
100

>  <b_lp_Chiralities_Consistent>  (1) 
1

>  <r_epik_Charging_Adjusted_Penalty>  (1) 
0

>  <r_epik_Ionization_Penalty>  (1) 
0.002846787164494627

>  <r_epik_Ionization_Penalty_Charging>  (1) 
0

>  <r_epik_Ionization_Penalty_Neutral>  (1) 
0.002846787164494627

>  <r_epik_State_Penalty>  (1) 
-0

>  <r_glide_ring_energy>  (1) 
0

>  <r_i_docking_score>  (1) 
-5.1886644442285066

>  <r_i_glide_ecoul>  (1) 
-2.1717426314705102

>  <r_i_glide_eff_state_penalty>  (1) 
-0

>  <r_i_glide_einternal>  (1) 
9.260353146793836

>  <r_i_glide_emodel>  (1) 
-58.668846090529463

>  <r_i_glide_emodel_strain>  (1) 
0.40974319592679365

>  <r_i_glide_energy>  (1) 
-47.91159141061047

>  <r_i_glide_erotb>  (1) 
0.93847147272533338

>  <r_i_glide_esite>  (1) 
-0.028446354210987887

>  <r_i_glide_evdw>  (1) 
-45.739848779139962

>  <r_i_glide_gscore>  (1) 
-5.1886644442285066

>  <r_i_glide_gscore_strain>  (1) 
0

>  <r_i_glide_hbond>  (1) 
-0.32000000000000001

>  <r_i_glide_ligand_efficiency>  (1) 
-0.1482475555493859

>  <r_i_glide_ligand_efficiency_ln>  (1) 
-1.1390270017110449

>  <r_i_glide_ligand_efficiency_sa>  (1) 
-0.4849275845254078

>  <r_i_glide_lipo>  (1) 
-3.1006092022547116

>  <r_i_glide_metal>  (1) 
-0

>  <r_i_glide_rewards>  (1) 
-0.065326526810565166

>  <r_lp_Energy>  (1) 
30.891655999999998

>  <r_lp_tautomer_probability>  (1) 
1

>  <s_epik_Chemistry_Notes>  (1) 
This compound contains an acetal/aminal-like group ( X-CH(R)-Y where X, Y are N, S, or O) that may be acid/base labile, releasing an aldehyde. This compound has a N-S or N-O group and may undergo hydrolysis at high or low pH.

>  <s_epik_cmdline>  (1) 
J2VwaWtfcHl0aG9uJywgJy1waHQnLCAnMS4wJywgJy1waCcsICc3LjQnLCAnLXRuJywgJzgnLCAnLW1hJywgJzUwMCcsICctaW1hZScsICc8aW5maWxlLm1hZT4nLCAnLW9tYWUnLCAnPG91dGZpbGUubWFlPic=

>  <s_epik_input>  (1) 
RmMoW2NIXTEpW2NIXVtjSF1bY0hdYzFPQyg9TylbQ0BASF0oW0NIXT1bQ0hdMilPQyg9QzJDbClbQ0gyXVtOSF1bQ0BASF0oW0NIMl1bT0hdKVtDQEBIXShbQ0gyXU8zKVtDSF0oW05AQF0zNClbQ0BIXTRbTkhdQyg9TylbQ0BIXShbQ0gzXSlbQ0gyXVtPSF0=

>  <s_glide_docking_method>  (1) 
confgen

>  <s_i_glide_gridfile>  (1) 
gpcr_5ht2c_6bqh_protein_autoprepared_prepared

>  <s_lp_Force_Field>  (1) 
S-OPLS

>  <s_lp_Variant>  (1) 
DiffSBDD_85-2

>  <s_m_source_file>  (1) 
generated_GPCR_5HT2C_ligand_DiffSBDD_2026-06-23_prepared.sdf

>  <GenAI_Model>  (1) 
DiffSBDD

>  <Protein>  (1) 
GPCR_5HT2C

$$$$
DiffSBDD_53
     RDKit          3D

  0  0  0  0  0  0  0  0  0  0999 V3000
M  V30 BEGIN CTAB
M  V30 COUNTS 81 85 0 0 1
M  V30 BEGIN ATOM
M  V30 1 C 41.824507 28.285712 63.570856 0
M  V30 2 C 36.899484 33.168376 60.957247 0
M  V30 3 C 38.741588 29.532329 56.807123 0
M  V30 4 C 41.715063 29.792000 63.275831 0
M  V30 5 C 38.378833 32.327081 58.185242 0
M  V30 6 C 44.310461 29.926940 68.098271 0
M  V30 7 C 43.145029 25.893006 66.798535 0
M  V30 8 N 43.108922 27.934916 64.215083 0 CHG=1
M  V30 9 N 39.645123 30.537758 53.344622 0
M  V30 10 C 38.412462 35.711565 61.242591 0
M  V30 11 C 43.252873 28.319391 65.640477 0 CFG=1
M  V30 12 N 40.801800 30.011942 62.165847 0
M  V30 13 C 38.283744 31.093994 58.716569 0
M  V30 14 C 38.648371 33.505665 59.096500 0
M  V30 15 C 42.617427 27.286968 66.566913 0 CFG=1
M  V30 16 C 39.069127 31.862811 60.862093 0 CFG=1
M  V30 17 C 44.743662 28.492923 65.980334 0 CFG=2
M  V30 18 C 39.759357 29.784681 54.581838 0
M  V30 19 O 41.207242 27.332424 66.592612 0
M  V30 20 C 39.431547 30.267002 62.540963 0
M  V30 21 C 36.191069 34.520522 60.767810 0
M  V30 22 C 36.894765 35.678206 61.499858 0
M  V30 23 C 38.403871 33.232852 60.593704 0
M  V30 24 O 38.991724 31.555569 62.226198 0
M  V30 25 C 39.074823 34.334103 61.452533 0
M  V30 26 C 44.974150 28.669674 67.500371 0 CFG=2
M  V30 27 O 45.245134 29.610637 65.275685 0
M  V30 28 C 38.462442 31.730895 55.699817 0
M  V30 29 N 44.551545 27.457993 68.255852 0 CFG=2 CHG=1
M  V30 30 O 38.458692 30.883914 60.067152 0
M  V30 31 C 45.613708 26.430683 68.390097 0
M  V30 32 C 43.194801 26.916870 67.926714 0 CFG=2
M  V30 33 C 38.214739 32.582818 56.743301 0
M  V30 34 C 37.913694 29.862707 57.986925 0
M  V30 35 C 38.964254 30.337834 55.757593 0
M  V30 36 H 41.811545 27.737767 62.629042 0
M  V30 37 H 40.964483 27.929821 64.137392 0
M  V30 38 H 36.385051 32.410611 60.365316 0
M  V30 39 H 36.789277 32.860672 61.997588 0
M  V30 40 H 39.138793 28.528027 56.783257 0
M  V30 41 H 41.422788 30.362635 64.158794 0
M  V30 42 H 42.688345 30.176493 62.967957 0
M  V30 43 H 44.632954 30.831084 67.580280 0
M  V30 44 H 43.222532 29.888038 68.045998 0
M  V30 45 H 44.581007 30.049732 69.147612 0
M  V30 46 H 42.416949 25.088879 66.887481 0
M  V30 47 H 44.045128 25.623526 66.256094 0
M  V30 48 H 43.841841 28.403845 63.697701 0
M  V30 49 H 40.049284 31.457599 53.458620 0
M  V30 50 H 40.171344 30.086055 52.610574 0
M  V30 51 H 38.878114 36.446466 61.899804 0
M  V30 52 H 38.598729 36.061981 60.227429 0
M  V30 53 H 42.752826 29.275343 65.806013 0
M  V30 54 H 40.845414 29.251669 61.499556 0
M  V30 55 H 39.688945 33.782626 58.939315 0
M  V30 56 H 38.045137 34.342230 58.749811 0
M  V30 57 H 40.122996 31.908960 60.581609 0
M  V30 58 H 45.307903 27.622911 65.639657 0
M  V30 59 H 40.806298 29.751764 54.884164 0
M  V30 60 H 39.442664 28.758548 54.390116 0
M  V30 61 H 40.888722 27.337864 67.487254 0
M  V30 62 H 38.784903 29.537833 62.053478 0
M  V30 63 H 39.289718 30.137775 63.615179 0
M  V30 64 H 35.173417 34.423684 61.134929 0
M  V30 65 H 36.101186 34.754654 59.707215 0
M  V30 66 H 36.701677 35.607933 62.567745 0
M  V30 67 H 36.451139 36.625594 61.190889 0
M  V30 68 H 39.011639 34.073944 62.509796 0
M  V30 69 H 40.139412 34.400759 61.224543 0
M  V30 70 H 46.045119 28.796972 67.663947 0
M  V30 71 H 46.156950 29.737697 65.520829 0
M  V30 72 H 38.332165 32.152250 54.714954 0
M  V30 73 H 45.951891 26.065818 67.420730 0
M  V30 74 H 46.482999 26.842985 68.904454 0
M  V30 75 H 45.259708 25.581185 68.975837 0
M  V30 76 H 42.548742 26.773238 68.791449 0
M  V30 77 H 37.915400 33.584849 56.471348 0
M  V30 78 H 37.948785 29.017359 58.675324 0
M  V30 79 H 36.873698 29.950018 57.667351 0
M  V30 80 H 44.447731 27.797023 69.202485 0
M  V30 81 H 43.251680 26.939041 64.130609 0
M  V30 END ATOM
M  V30 BEGIN BOND
M  V30 1 1 4 1
M  V30 2 1 8 1
M  V30 3 1 11 8
M  V30 4 1 12 4
M  V30 5 2 13 5
M  V30 6 1 14 5
M  V30 7 1 15 7
M  V30 8 1 15 11
M  V30 9 1 17 11
M  V30 10 1 18 9
M  V30 11 1 15 19 CFG=1
M  V30 12 1 20 12
M  V30 13 1 21 2
M  V30 14 1 22 10
M  V30 15 1 22 21
M  V30 16 1 23 2
M  V30 17 1 23 14
M  V30 18 1 23 16
M  V30 19 1 24 16
M  V30 20 1 24 20
M  V30 21 1 25 10
M  V30 22 1 25 23
M  V30 23 1 26 6
M  V30 24 1 26 17
M  V30 25 1 27 17
M  V30 26 1 29 26
M  V30 27 1 30 13
M  V30 28 1 30 16
M  V30 29 1 31 29
M  V30 30 1 32 7
M  V30 31 1 32 15
M  V30 32 1 32 29
M  V30 33 1 33 5
M  V30 34 2 33 28
M  V30 35 1 34 3
M  V30 36 1 34 13
M  V30 37 2 35 3
M  V30 38 1 35 18
M  V30 39 1 35 28
M  V30 40 1 36 1
M  V30 41 1 37 1
M  V30 42 1 38 2
M  V30 43 1 39 2
M  V30 44 1 40 3
M  V30 45 1 41 4
M  V30 46 1 42 4
M  V30 47 1 43 6
M  V30 48 1 44 6
M  V30 49 1 45 6
M  V30 50 1 46 7
M  V30 51 1 47 7
M  V30 52 1 48 8
M  V30 53 1 49 9
M  V30 54 1 50 9
M  V30 55 1 51 10
M  V30 56 1 52 10
M  V30 57 1 11 53 CFG=3
M  V30 58 1 54 12
M  V30 59 1 55 14
M  V30 60 1 56 14
M  V30 61 1 16 57 CFG=3
M  V30 62 1 17 58 CFG=3
M  V30 63 1 59 18
M  V30 64 1 60 18
M  V30 65 1 61 19
M  V30 66 1 62 20
M  V30 67 1 63 20
M  V30 68 1 64 21
M  V30 69 1 65 21
M  V30 70 1 66 22
M  V30 71 1 67 22
M  V30 72 1 68 25
M  V30 73 1 69 25
M  V30 74 1 26 70 CFG=3
M  V30 75 1 71 27
M  V30 76 1 72 28
M  V30 77 1 73 31
M  V30 78 1 74 31
M  V30 79 1 75 31
M  V30 80 1 32 76 CFG=1
M  V30 81 1 77 33
M  V30 82 1 78 34
M  V30 83 1 79 34
M  V30 84 1 29 80 CFG=1
M  V30 85 1 81 8
M  V30 END BOND
M  V30 END CTAB
M  END
>  <i_epik_Tot_Q>  (1) 
2

>  <i_epik_Tot_abs_Q>  (1) 
2

>  <i_i_glide_confnum>  (1) 
548

>  <i_i_glide_lignum>  (1) 
111

>  <i_i_glide_posenum>  (1) 
66

>  <i_i_glide_rotatable_bonds>  (1) 
10

>  <i_lp_mmshare_version>  (1) 
72125

>  <i_m_source_file_index>  (1) 
54

>  <i_f3d_flags>  (1) 
0

>  <num_sample>  (1) 
100

>  <b_lp_Chiralities_Consistent>  (1) 
1

>  <r_epik_Charging_Adjusted_Penalty>  (1) 
1.1947924258661535

>  <r_epik_Ionization_Penalty>  (1) 
1.111601378610803

>  <r_epik_Ionization_Penalty_Charging>  (1) 
0.15856543202638063

>  <r_epik_Ionization_Penalty_Neutral>  (1) 
0.95303594658442226

>  <r_epik_State_Penalty>  (1) 
1.036226993839773

>  <r_glide_ring_energy>  (1) 
0.00054242717464313866

>  <r_i_docking_score>  (1) 
-5.1878690269093486

>  <r_i_glide_ecoul>  (1) 
-10.325007529495341

>  <r_i_glide_eff_state_penalty>  (1) 
1.036226993839773

>  <r_i_glide_einternal>  (1) 
5.2924544734933825

>  <r_i_glide_emodel>  (1) 
-63.067349891441602

>  <r_i_glide_emodel_strain>  (1) 
0.40683035970386072

>  <r_i_glide_energy>  (1) 
-49.336551051154871

>  <r_i_glide_erotb>  (1) 
0.59168961163588141

>  <r_i_glide_esite>  (1) 
-0.017752613243479261

>  <r_i_glide_evdw>  (1) 
-39.011543521659526

>  <r_i_glide_gscore>  (1) 
-6.2240960207491218

>  <r_i_glide_gscore_strain>  (1) 
0

>  <r_i_glide_hbond>  (1) 
-0.59461887794651824

>  <r_i_glide_ligand_efficiency>  (1) 
-0.14822482934026709

>  <r_i_glide_ligand_efficiency_ln>  (1) 
-1.1388523899561533

>  <r_i_glide_ligand_efficiency_sa>  (1) 
-0.48485324558840098

>  <r_i_glide_lipo>  (1) 
-1.7933947531287338

>  <r_i_glide_metal>  (1) 
-0

>  <r_i_glide_rewards>  (1) 
-0.91069108255899411

>  <r_lp_Energy>  (1) 
67.197417000000002

>  <s_epik_Chemistry_Notes>  (1) 
This compound contains an acetal/aminal-like group ( X-CH(R)-Y where X, Y are N, S, or O) that may be acid/base labile, releasing an aldehyde.

>  <s_epik_cmdline>  (1) 
J2VwaWtfcHl0aG9uJywgJy1waHQnLCAnMS4wJywgJy1waCcsICc3LjQnLCAnLXRuJywgJzgnLCAnLW1hJywgJzUwMCcsICctaW1hZScsICc8aW5maWxlLm1hZT4nLCAnLW9tYWUnLCAnPG91dGZpbGUubWFlPic=

>  <s_epik_input>  (1) 
W09IXVtDQEBdMTJbQ0BASF0oW0NIMl0xKU4oW0NIM10pW0NASF0oW0NIM10pW0NASF0oW09IXSlbQ0BIXTJbTkhdW0NIMl1bQ0gyXVtOSF1bQ0gyXU9bQ0BIXTNPQyhbQ0gyXVtDSF09QyhbQ0gyXVtOSDJdKVtDSF09W0NIXTQpPUM0W0NIMl1DMzVbQ0gyXVtDSDJdW0NIMl1bQ0gyXVtDSDJdNQ==

>  <s_glide_docking_method>  (1) 
confgen

>  <s_i_glide_gridfile>  (1) 
gpcr_5ht2c_6bqh_protein_autoprepared_prepared

>  <s_lp_Force_Field>  (1) 
S-OPLS

>  <s_lp_Variant>  (1) 
DiffSBDD_53-3

>  <s_m_source_file>  (1) 
generated_GPCR_5HT2C_ligand_DiffSBDD_2026-06-23_prepared.sdf

>  <GenAI_Model>  (1) 
DiffSBDD

>  <Protein>  (1) 
GPCR_5HT2C

$$$$
DiffSBDD_54
     RDKit          3D

  0  0  0  0  0  0  0  0  0  0999 V3000
M  V30 BEGIN CTAB
M  V30 COUNTS 42 43 0 0 1
M  V30 BEGIN ATOM
M  V30 1 C 38.170953 32.320697 57.900052 0
M  V30 2 C 39.142396 27.844809 57.455912 0
M  V30 3 C 39.235542 28.368850 59.879593 0
M  V30 4 C 37.389837 28.143452 53.101422 0
M  V30 5 C 37.486080 29.798675 55.048924 0
M  V30 6 S 37.375466 29.737752 58.268915 0 CHG=1
M  V30 7 C 37.689245 31.389080 60.149320 0
M  V30 8 N 38.198050 26.951220 57.221813 0
M  V30 9 C 38.566392 32.087853 55.051089 0
M  V30 10 C 38.845575 26.215852 56.240124 0
M  V30 11 N 40.077587 26.646623 55.903693 0
M  V30 12 N 40.224242 27.694019 56.727985 0
M  V30 13 N 37.645137 31.111429 57.211227 0 CFG=2 CHG=1
M  V30 14 C 38.304569 30.812055 55.890073 0 CFG=1
M  V30 15 C 37.474822 32.583418 59.231029 0
M  V30 16 C 38.211303 29.226822 53.814518 0
M  V30 17 O 37.008711 30.251265 59.632361 0
M  V30 18 C 39.026818 28.951073 58.468183 0 CFG=2
M  V30 19 H 38.001668 33.205533 57.286524 0
M  V30 20 H 39.245137 32.229106 58.046442 0
M  V30 21 H 40.185295 27.836320 59.944114 0
M  V30 22 H 38.445137 27.662197 60.129639 0
M  V30 23 H 39.247707 29.126507 60.659415 0
M  V30 24 H 37.934171 27.740015 52.246953 0
M  V30 25 H 36.445230 28.537755 52.726857 0
M  V30 26 H 37.163480 27.311293 53.768684 0
M  V30 27 H 36.534043 30.243478 54.753138 0
M  V30 28 H 37.245137 28.937756 55.659006 0
M  V30 29 H 38.754484 31.210418 60.292220 0
M  V30 30 H 37.278065 31.607514 61.135488 0
M  V30 31 H 39.010469 31.859494 54.084081 0
M  V30 32 H 39.273875 32.764337 55.529942 0
M  V30 33 H 37.645125 32.640054 54.860828 0
M  V30 34 H 38.397626 25.355636 55.763984 0
M  V30 35 H 41.065343 28.254846 56.755026 0
M  V30 36 H 39.281305 30.376005 56.096037 0
M  V30 37 H 37.886209 33.483829 59.689346 0
M  V30 38 H 36.409309 32.766855 59.080937 0
M  V30 39 H 38.445131 30.009282 53.095193 0
M  V30 40 H 39.167999 28.800707 54.117758 0
M  V30 41 H 39.799345 29.698799 58.288049 0
M  V30 42 H 36.684277 31.422113 56.967759 0
M  V30 END ATOM
M  V30 BEGIN BOND
M  V30 1 2 8 2
M  V30 2 1 10 8
M  V30 3 2 11 10
M  V30 4 1 12 2
M  V30 5 1 12 11
M  V30 6 1 13 1
M  V30 7 1 13 6
M  V30 8 1 14 5
M  V30 9 1 14 9
M  V30 10 1 14 13
M  V30 11 1 15 1
M  V30 12 1 15 7
M  V30 13 1 16 4
M  V30 14 1 16 5
M  V30 15 1 6 17 CFG=1
M  V30 16 1 17 7
M  V30 17 1 18 2
M  V30 18 1 18 3
M  V30 19 1 18 6
M  V30 20 1 19 1
M  V30 21 1 20 1
M  V30 22 1 21 3
M  V30 23 1 22 3
M  V30 24 1 23 3
M  V30 25 1 24 4
M  V30 26 1 25 4
M  V30 27 1 26 4
M  V30 28 1 27 5
M  V30 29 1 28 5
M  V30 30 1 29 7
M  V30 31 1 30 7
M  V30 32 1 31 9
M  V30 33 1 32 9
M  V30 34 1 33 9
M  V30 35 1 34 10
M  V30 36 1 35 12
M  V30 37 1 14 36 CFG=1
M  V30 38 1 37 15
M  V30 39 1 38 15
M  V30 40 1 39 16
M  V30 41 1 40 16
M  V30 42 1 18 41 CFG=3
M  V30 43 1 13 42 CFG=3
M  V30 END BOND
M  V30 END CTAB
M  END
>  <i_epik_Tot_Q>  (1) 
2

>  <i_epik_Tot_abs_Q>  (1) 
2

>  <i_i_glide_confnum>  (1) 
48

>  <i_i_glide_lignum>  (1) 
118

>  <i_i_glide_posenum>  (1) 
27

>  <i_i_glide_rotatable_bonds>  (1) 
5

>  <i_lp_mmshare_version>  (1) 
72125

>  <i_m_source_file_index>  (1) 
55

>  <i_f3d_flags>  (1) 
0

>  <num_sample>  (1) 
100

>  <b_lp_Chiralities_Consistent>  (1) 
1

>  <r_epik_Charging_Adjusted_Penalty>  (1) 
0.22285261290592212

>  <r_epik_Ionization_Penalty>  (1) 
0.11376846567106323

>  <r_epik_Ionization_Penalty_Charging>  (1) 
0.11142630645296109

>  <r_epik_Ionization_Penalty_Neutral>  (1) 
0.0023421592181021404

>  <r_epik_State_Penalty>  (1) 
0.11142630645296105

>  <r_glide_ring_energy>  (1) 
0

>  <r_i_docking_score>  (1) 
-5.172782732548459

>  <r_i_glide_ecoul>  (1) 
-7.7032097838186129

>  <r_i_glide_eff_state_penalty>  (1) 
0.11142630645296105

>  <r_i_glide_einternal>  (1) 
1.3952269446856744

>  <r_i_glide_emodel>  (1) 
-50.369326803686697

>  <r_i_glide_emodel_strain>  (1) 
0.016147013213959838

>  <r_i_glide_energy>  (1) 
-33.730429824242584

>  <r_i_glide_erotb>  (1) 
0.96597774364564237

>  <r_i_glide_esite>  (1) 
-0.15632111007955929

>  <r_i_glide_evdw>  (1) 
-26.027220040423973

>  <r_i_glide_gscore>  (1) 
-5.2842090390014205

>  <r_i_glide_gscore_strain>  (1) 
0

>  <r_i_glide_hbond>  (1) 
-0.13671264609503114

>  <r_i_glide_ligand_efficiency>  (1) 
-0.28737681847491436

>  <r_i_glide_ligand_efficiency_ln>  (1) 
-1.329637128392531

>  <r_i_glide_ligand_efficiency_sa>  (1) 
-0.75314032391326413

>  <r_i_glide_lipo>  (1) 
-1.0645544650257281

>  <r_i_glide_metal>  (1) 
-0

>  <r_i_glide_rewards>  (1) 
-2.4357560918527543

>  <r_lp_Energy>  (1) 
19.301023999999998

>  <r_lp_tautomer_probability>  (1) 
0.94828448534560383

>  <s_epik_cmdline>  (1) 
J2VwaWtfcHl0aG9uJywgJy1waHQnLCAnMS4wJywgJy1waCcsICc3LjQnLCAnLXRuJywgJzgnLCAnLW1hJywgJzUwMCcsICctaW1hZScsICc8aW5maWxlLm1hZT4nLCAnLW9tYWUnLCAnPG91dGZpbGUubWFlPic=

>  <s_epik_input>  (1) 
W0NIM11bQ0gyXVtDSDJdW0NASF0oW0NIM10pTihbQ0gyXVtDSDJdW0NIMl1PMSlbUytdMVtDQEBIXShbQ0gzXSljMm5bY0hdbltuSF0y

>  <s_glide_docking_method>  (1) 
confgen

>  <s_i_glide_gridfile>  (1) 
gpcr_5ht2c_6bqh_protein_autoprepared_prepared

>  <s_lp_Force_Field>  (1) 
S-OPLS

>  <s_lp_Variant>  (1) 
DiffSBDD_54-4

>  <s_m_source_file>  (1) 
generated_GPCR_5HT2C_ligand_DiffSBDD_2026-06-23_prepared.sdf

>  <GenAI_Model>  (1) 
DiffSBDD

>  <Protein>  (1) 
GPCR_5HT2C

$$$$
DiffSBDD_21
     RDKit          3D

  0  0  0  0  0  0  0  0  0  0999 V3000
M  V30 BEGIN CTAB
M  V30 COUNTS 55 56 0 0 1
M  V30 BEGIN ATOM
M  V30 1 C 38.136030 33.370242 48.814769 0
M  V30 2 C 38.845146 32.137786 48.729453 0
M  V30 3 C 38.235957 33.281121 56.259718 0
M  V30 4 O 36.845140 30.949733 54.567761 0
M  V30 5 O 37.846487 25.636706 55.725899 0
M  V30 6 O 40.442275 27.778191 59.632200 0
M  V30 7 C 37.681446 26.632809 54.736687 0
M  V30 8 N 37.604802 34.396654 48.850828 0
M  V30 9 C 40.173705 29.444712 50.995883 0
M  V30 10 C 40.298119 30.323817 49.744805 0
M  V30 11 O 38.252148 31.932056 56.701118 0
M  V30 12 C 38.937517 28.538757 50.966600 0
M  V30 13 C 38.975906 31.083860 55.828914 0 CFG=2
M  V30 14 C 39.229256 27.191941 59.166849 0
M  V30 15 C 40.992844 28.503683 57.420512 0
M  V30 16 C 38.222710 30.673486 54.593845 0 CFG=1
M  V30 17 C 38.922039 27.492588 52.075343 0
M  V30 18 C 38.981266 27.437783 54.493525 0 CFG=1
M  V30 19 N 39.809444 27.878178 56.850697 0
M  V30 20 O 38.844274 28.193114 53.300258 0
M  V30 21 C 39.397354 28.481836 55.573279 0 CFG=2
M  V30 22 C 38.765041 27.867345 57.877502 0
M  V30 23 C 41.479364 27.746086 58.657726 0
M  V30 24 C 39.500140 31.618576 49.785333 0
M  V30 25 C 38.440642 29.668272 55.703953 0 CFG=1
M  V30 26 H 38.845137 31.631676 47.777531 0
M  V30 27 H 37.764756 33.911418 57.013519 0
M  V30 28 H 39.245120 33.650880 56.085672 0
M  V30 29 H 37.672319 33.395241 55.333372 0
M  V30 30 H 36.591461 31.330407 55.409081 0
M  V30 31 H 38.657629 25.180888 55.559608 0
M  V30 32 H 37.388017 26.091928 53.838850 0
M  V30 33 H 36.849165 27.290555 54.967745 0
M  V30 34 H 40.191605 30.057379 51.897031 0
M  V30 35 H 41.057833 28.811821 51.056749 0
M  V30 36 H 41.343214 30.617255 49.636939 0
M  V30 37 H 40.048919 29.737752 48.859656 0
M  V30 38 H 38.872488 28.031638 50.005212 0
M  V30 39 H 38.045144 29.147103 51.060188 0
M  V30 40 H 40.045135 31.276499 55.768207 0
M  V30 41 H 38.465216 27.337756 59.930709 0
M  V30 42 H 39.364118 26.122597 58.998222 0
M  V30 43 H 41.794965 28.537755 56.682460 0
M  V30 44 H 40.760371 29.524583 57.724113 0
M  V30 45 H 38.725348 30.598063 53.634231 0
M  V30 46 H 39.807207 26.859264 52.031642 0
M  V30 47 H 38.045144 26.867749 51.936427 0
M  V30 48 H 39.812332 26.741678 54.363415 0
M  V30 49 H 40.295795 28.918294 55.138028 0
M  V30 50 H 38.487653 28.888457 58.141438 0
M  V30 51 H 37.859968 27.384572 57.514109 0
M  V30 52 H 42.374887 28.219408 59.053421 0
M  V30 53 H 41.743842 26.719052 58.404365 0
M  V30 54 H 39.480634 32.137749 50.728587 0
M  V30 55 H 37.533448 29.434957 56.259131 0
M  V30 END ATOM
M  V30 BEGIN BOND
M  V30 1 1 2 1
M  V30 2 1 7 5
M  V30 3 3 8 1
M  V30 4 1 10 9
M  V30 5 1 11 3
M  V30 6 1 12 9
M  V30 7 1 13 11
M  V30 8 1 14 6
M  V30 9 1 16 4
M  V30 10 1 16 13
M  V30 11 1 17 12
M  V30 12 1 18 7
M  V30 13 1 19 15
M  V30 14 1 20 17
M  V30 15 1 20 18
M  V30 16 1 21 18
M  V30 17 1 21 19
M  V30 18 1 22 14
M  V30 19 1 22 19
M  V30 20 1 23 6
M  V30 21 1 23 15
M  V30 22 2 24 2
M  V30 23 1 24 10
M  V30 24 1 25 13
M  V30 25 1 25 16
M  V30 26 1 25 21
M  V30 27 1 26 2
M  V30 28 1 27 3
M  V30 29 1 28 3
M  V30 30 1 29 3
M  V30 31 1 30 4
M  V30 32 1 31 5
M  V30 33 1 32 7
M  V30 34 1 33 7
M  V30 35 1 34 9
M  V30 36 1 35 9
M  V30 37 1 36 10
M  V30 38 1 37 10
M  V30 39 1 38 12
M  V30 40 1 39 12
M  V30 41 1 13 40 CFG=3
M  V30 42 1 41 14
M  V30 43 1 42 14
M  V30 44 1 43 15
M  V30 45 1 44 15
M  V30 46 1 16 45 CFG=3
M  V30 47 1 46 17
M  V30 48 1 47 17
M  V30 49 1 18 48 CFG=3
M  V30 50 1 21 49 CFG=3
M  V30 51 1 50 22
M  V30 52 1 51 22
M  V30 53 1 52 23
M  V30 54 1 53 23
M  V30 55 1 54 24
M  V30 56 1 25 55 CFG=1
M  V30 END BOND
M  V30 END CTAB
M  END
>  <i_epik_Tot_Q>  (1) 
0

>  <i_epik_Tot_abs_Q>  (1) 
0

>  <i_i_glide_confnum>  (1) 
3636

>  <i_i_glide_lignum>  (1) 
52

>  <i_i_glide_posenum>  (1) 
115

>  <i_i_glide_rotatable_bonds>  (1) 
13

>  <i_lp_mmshare_version>  (1) 
72125

>  <i_m_source_file_index>  (1) 
22

>  <i_f3d_flags>  (1) 
0

>  <num_sample>  (1) 
100

>  <b_lp_Chiralities_Consistent>  (1) 
1

>  <r_epik_Charging_Adjusted_Penalty>  (1) 
0.033214284747091018

>  <r_epik_Ionization_Penalty>  (1) 
0.033214513384273246

>  <r_epik_Ionization_Penalty_Charging>  (1) 
0

>  <r_epik_Ionization_Penalty_Neutral>  (1) 
0.033214513384273246

>  <r_epik_State_Penalty>  (1) 
0.033214284747091018

>  <r_glide_ring_energy>  (1) 
0

>  <r_i_docking_score>  (1) 
-5.1715643600573351

>  <r_i_glide_ecoul>  (1) 
-1.6642838635661095

>  <r_i_glide_eff_state_penalty>  (1) 
0.033214284747091018

>  <r_i_glide_einternal>  (1) 
10.259537138812483

>  <r_i_glide_emodel>  (1) 
-40.933278137717608

>  <r_i_glide_emodel_strain>  (1) 
0.85519158304732912

>  <r_i_glide_energy>  (1) 
-35.172961078086196

>  <r_i_glide_erotb>  (1) 
1.5209836995870194

>  <r_i_glide_esite>  (1) 
0

>  <r_i_glide_evdw>  (1) 
-33.508677214520084

>  <r_i_glide_gscore>  (1) 
-5.204778644804426

>  <r_i_glide_gscore_strain>  (1) 
0

>  <r_i_glide_hbond>  (1) 
-0.16

>  <r_i_glide_ligand_efficiency>  (1) 
-0.20686257440229341

>  <r_i_glide_ligand_efficiency_ln>  (1) 
-1.2258157326113992

>  <r_i_glide_ligand_efficiency_sa>  (1) 
-0.60486983692468477

>  <r_i_glide_lipo>  (1) 
-2.9708847683080362

>  <r_i_glide_metal>  (1) 
-0

>  <r_i_glide_rewards>  (1) 
-1.6698011358224893

>  <r_lp_Energy>  (1) 
16.758039999999998

>  <s_epik_cmdline>  (1) 
J2VwaWtfcHl0aG9uJywgJy1waHQnLCAnMS4wJywgJy1waCcsICc3LjQnLCAnLXRuJywgJzgnLCAnLW1hJywgJzUwMCcsICctaW1hZScsICc8aW5maWxlLm1hZT4nLCAnLW9tYWUnLCAnPG91dGZpbGUubWFlPic=

>  <s_epik_input>  (1) 
TiNDL1tDSF09W0NIXS9bQ0gyXVtDSDJdW0NIMl1bQ0gyXU9bQ0BIXShbQ0gyXVtPSF0pW0NAQEhdKFtDQEBIXTFbQ0BASF0oW09IXSlbQ0BIXTFPW0NIM10pTjJbQ0gyXVtDSDJdT1tDSDJdW0NIMl0y

>  <s_glide_docking_method>  (1) 
confgen

>  <s_i_glide_gridfile>  (1) 
gpcr_5ht2c_6bqh_protein_autoprepared_prepared

>  <s_lp_Force_Field>  (1) 
S-OPLS

>  <s_lp_Variant>  (1) 
DiffSBDD_21-2

>  <s_m_source_file>  (1) 
generated_GPCR_5HT2C_ligand_DiffSBDD_2026-06-23_prepared.sdf

>  <GenAI_Model>  (1) 
DiffSBDD

>  <Protein>  (1) 
GPCR_5HT2C

$$$$
DiffSBDD_36
     RDKit          3D

  0  0  0  0  0  0  0  0  0  0999 V3000
M  V30 BEGIN CTAB
M  V30 COUNTS 49 49 0 0 1
M  V30 BEGIN ATOM
M  V30 1 C 39.577762 29.657389 55.391153 0
M  V30 2 C 38.581730 26.792556 57.670199 0
M  V30 3 C 39.770648 27.061901 55.536106 0
M  V30 4 C 37.770445 29.218800 57.942705 0
M  V30 5 C 40.840059 30.348354 62.204523 0
M  V30 6 C 38.910488 28.282119 57.468662 0 CFG=1
M  V30 7 C 39.399556 26.031071 56.613715 0
M  V30 8 C 39.902007 30.366372 50.892281 0
M  V30 9 C 39.529227 30.053513 54.105079 0
M  V30 10 C 38.903793 29.251607 52.978932 0
M  V30 11 O 40.845143 31.245765 61.367762 0
M  V30 12 C 40.536226 28.896431 59.373702 0
M  V30 13 C 39.481503 29.000325 60.458076 0
M  V30 14 C 40.296148 28.584293 58.082940 0
M  V30 15 C 39.004574 28.341867 55.922498 0 CFG=1
M  V30 16 C 41.029127 30.361562 49.855887 0
M  V30 17 S 41.606133 30.346160 63.767746 0 CHG=-1
M  V30 18 C 40.083603 29.061668 61.871906 0
M  V30 19 C 39.444911 27.842217 50.975004 0
M  V30 20 C 39.842062 29.094804 51.767543 0 CFG=1
M  V30 21 H 40.045153 30.303204 56.117606 0
M  V30 22 H 38.789953 26.442454 58.681834 0
M  V30 23 H 37.518741 26.623768 57.488181 0
M  V30 24 H 40.845129 27.237083 55.554179 0
M  V30 25 H 39.523012 26.699128 54.539058 0
M  V30 26 H 36.919304 29.202178 57.263274 0
M  V30 27 H 37.365019 28.937753 58.911903 0
M  V30 28 H 38.102297 30.256330 57.994810 0
M  V30 29 H 40.304887 25.612095 57.055293 0
M  V30 30 H 38.824371 25.202031 56.200203 0
M  V30 31 H 38.958096 30.513089 50.371344 0
M  V30 32 H 40.042212 31.241158 51.527605 0
M  V30 33 H 39.958596 31.006482 53.832377 0
M  V30 34 H 38.592802 28.273313 53.332026 0
M  V30 35 H 37.983377 29.737726 52.682178 0
M  V30 36 H 41.552796 29.090852 59.681270 0
M  V30 37 H 38.875280 29.891609 60.297495 0
M  V30 38 H 38.826316 28.132527 60.400792 0
M  V30 39 H 41.133761 28.537685 57.403411 0
M  V30 40 H 37.996156 28.243769 55.517025 0
M  V30 41 H 41.103681 31.333470 49.367759 0
M  V30 42 H 41.992948 30.153791 50.320769 0
M  V30 43 H 40.845105 29.618054 49.080519 0
M  V30 44 H 39.252963 28.971194 62.567761 0
M  V30 45 H 40.724184 28.191771 62.032608 0
M  V30 46 H 38.445204 27.950393 50.559696 0
M  V30 47 H 40.142637 27.642797 50.167772 0
M  V30 48 H 39.441330 26.954469 51.608898 0
M  V30 49 H 40.845125 28.932923 52.146615 0
M  V30 END ATOM
M  V30 BEGIN BOND
M  V30 1 1 6 2
M  V30 2 1 6 4 CFG=1
M  V30 3 1 7 2
M  V30 4 1 7 3
M  V30 5 2 9 1
M  V30 6 1 10 9
M  V30 7 2 11 5
M  V30 8 1 13 12
M  V30 9 1 14 6
M  V30 10 2 14 12
M  V30 11 1 15 1
M  V30 12 1 15 3
M  V30 13 1 15 6
M  V30 14 1 16 8
M  V30 15 1 17 5
M  V30 16 1 18 5
M  V30 17 1 18 13
M  V30 18 1 20 8
M  V30 19 1 20 10
M  V30 20 1 20 19
M  V30 21 1 21 1
M  V30 22 1 22 2
M  V30 23 1 23 2
M  V30 24 1 24 3
M  V30 25 1 25 3
M  V30 26 1 26 4
M  V30 27 1 27 4
M  V30 28 1 28 4
M  V30 29 1 29 7
M  V30 30 1 30 7
M  V30 31 1 31 8
M  V30 32 1 32 8
M  V30 33 1 33 9
M  V30 34 1 34 10
M  V30 35 1 35 10
M  V30 36 1 36 12
M  V30 37 1 37 13
M  V30 38 1 38 13
M  V30 39 1 39 14
M  V30 40 1 15 40 CFG=3
M  V30 41 1 41 16
M  V30 42 1 42 16
M  V30 43 1 43 16
M  V30 44 1 44 18
M  V30 45 1 45 18
M  V30 46 1 46 19
M  V30 47 1 47 19
M  V30 48 1 48 19
M  V30 49 1 20 49 CFG=1
M  V30 END BOND
M  V30 END CTAB
M  END
>  <i_epik_Tot_Q>  (1) 
-1

>  <i_epik_Tot_abs_Q>  (1) 
1

>  <i_i_glide_confnum>  (1) 
497

>  <i_i_glide_lignum>  (1) 
83

>  <i_i_glide_posenum>  (1) 
182

>  <i_i_glide_rotatable_bonds>  (1) 
8

>  <i_lp_mmshare_version>  (1) 
72125

>  <i_m_source_file_index>  (1) 
37

>  <i_f3d_flags>  (1) 
0

>  <num_sample>  (1) 
100

>  <b_lp_Chiralities_Consistent>  (1) 
1

>  <r_epik_Charging_Adjusted_Penalty>  (1) 
9.4165288777969193e-05

>  <r_epik_Ionization_Penalty>  (1) 
9.4165288777969193e-05

>  <r_epik_Ionization_Penalty_Charging>  (1) 
9.4165288777969193e-05

>  <r_epik_Ionization_Penalty_Neutral>  (1) 
0

>  <r_epik_State_Penalty>  (1) 
-0

>  <r_glide_ring_energy>  (1) 
0

>  <r_i_docking_score>  (1) 
-5.1688262287922591

>  <r_i_glide_ecoul>  (1) 
-1.7596026674246712

>  <r_i_glide_eff_state_penalty>  (1) 
-0

>  <r_i_glide_einternal>  (1) 
7.0177315621239149

>  <r_i_glide_emodel>  (1) 
-36.912606319973946

>  <r_i_glide_emodel_strain>  (1) 
0.10997581676593882

>  <r_i_glide_energy>  (1) 
-29.817356139093874

>  <r_i_glide_erotb>  (1) 
2.5456975872200465

>  <r_i_glide_esite>  (1) 
-0.038611699701614995

>  <r_i_glide_evdw>  (1) 
-28.057753471669205

>  <r_i_glide_gscore>  (1) 
-5.1688262287922591

>  <r_i_glide_gscore_strain>  (1) 
0

>  <r_i_glide_hbond>  (1) 
-0.13569947668515461

>  <r_i_glide_ligand_efficiency>  (1) 
-0.25844131143961296

>  <r_i_glide_ligand_efficiency_ln>  (1) 
-1.2935867257680065

>  <r_i_glide_ligand_efficiency_sa>  (1) 
-0.70151764862757615

>  <r_i_glide_lipo>  (1) 
-3.7030847396228301

>  <r_i_glide_metal>  (1) 
-0

>  <r_i_glide_rewards>  (1) 
-2.1702998263055453

>  <r_lp_Energy>  (1) 
18.646117

>  <r_lp_tautomer_probability>  (1) 
1

>  <s_epik_cmdline>  (1) 
J2VwaWtfcHl0aG9uJywgJy1waHQnLCAnMS4wJywgJy1waCcsICc3LjQnLCAnLXRuJywgJzgnLCAnLW1hJywgJzUwMCcsICctaW1hZScsICc8aW5maWxlLm1hZT4nLCAnLW9tYWUnLCAnPG91dGZpbGUubWFlPic=

>  <s_epik_input>  (1) 
W0NIM11bQ0gyXVtDQEhdKFtDSDNdKVtDSDJdL1tDSF09W0NIXVxbQ0BIXTFbQ0gyXVtDSDJdW0NIMl1bQ0BAXTEoW0NIM10pL1tDSF09W0NIXVxbQ0gyXVtDSDJdQyg9TylbU0hd

>  <s_glide_docking_method>  (1) 
confgen

>  <s_i_glide_gridfile>  (1) 
gpcr_5ht2c_6bqh_protein_autoprepared_prepared

>  <s_lp_Force_Field>  (1) 
S-OPLS

>  <s_lp_Variant>  (1) 
DiffSBDD_36-4

>  <s_m_source_file>  (1) 
generated_GPCR_5HT2C_ligand_DiffSBDD_2026-06-23_prepared.sdf

>  <GenAI_Model>  (1) 
DiffSBDD

>  <Protein>  (1) 
GPCR_5HT2C

$$$$
DiffSBDD_93
     RDKit          3D

  0  0  0  0  0  0  0  0  0  0999 V3000
M  V30 BEGIN CTAB
M  V30 COUNTS 84 85 0 0 1
M  V30 BEGIN ATOM
M  V30 1 C 40.684829 30.570410 64.118005 0
M  V30 2 O 40.445143 29.513751 65.021530 0
M  V30 3 C 39.776688 37.356544 63.234074 0
M  V30 4 C 38.617378 31.024245 55.315266 0
M  V30 5 O 41.156069 28.480007 62.343008 0
M  V30 6 C 40.336463 26.935773 57.865999 0
M  V30 7 N 39.489831 26.180873 58.567158 0
M  V30 8 O 41.519205 27.059351 58.167750 0
M  V30 9 O 42.044416 33.334306 63.710818 0
M  V30 10 C 37.416518 30.650466 54.481399 0
M  V30 11 C 39.140897 35.980781 63.413940 0
M  V30 12 C 39.478652 29.087393 60.739379 0
M  V30 13 C 39.061415 31.466254 62.396516 0
M  V30 14 C 39.801256 29.221504 56.876212 0 CFG=2
M  V30 15 C 39.774103 27.666745 56.645125 0 CFG=2
M  V30 16 C 38.724569 36.563590 61.156585 0 CFG=1
M  V30 17 C 38.661085 34.004519 61.746152 0 CFG=1
M  V30 18 C 38.708554 33.683726 60.221688 0
M  V30 19 C 39.997732 29.834233 59.489115 0
M  V30 20 S 41.372599 33.125358 62.167419 0 CHG=1
M  V30 21 O 36.845165 29.737749 57.348887 0
M  V30 22 N 40.027502 30.402960 62.804255 0
M  V30 23 O 41.556429 34.710033 61.580391 0
M  V30 24 O 39.279730 39.001971 61.367762 0
M  V30 25 F 36.608324 36.847910 62.249522 0
M  V30 26 C 38.424316 31.638303 53.951086 0
M  V30 27 C 37.674089 29.458620 58.438466 0
M  V30 28 C 39.134906 29.857003 58.171703 0 CFG=2
M  V30 29 C 40.302479 29.303415 62.029255 0
M  V30 30 C 38.480732 27.000916 56.063086 0
M  V30 31 C 36.445275 36.201505 59.984482 0
M  V30 32 C 39.561061 32.956805 62.521827 0 CFG=2
M  V30 33 O 37.245563 27.174726 54.039463 0
M  V30 34 C 39.752106 30.036790 55.532191 0
M  V30 35 C 37.222451 36.944790 61.072456 0 CFG=2
M  V30 36 C 38.379973 27.000389 54.531895 0
M  V30 37 C 39.619086 37.674376 61.753128 0 CFG=1
M  V30 38 O 39.436316 26.814281 53.888148 0 CHG=-1
M  V30 39 N 39.064603 35.430445 62.040435 0 CFG=2 CHG=1
M  V30 40 H 41.763914 30.651520 63.982948 0
M  V30 41 H 40.353992 31.473122 64.626695 0
M  V30 42 H 39.771590 28.939792 64.668304 0
M  V30 43 H 39.380270 38.102029 63.918283 0
M  V30 44 H 40.845111 37.273631 63.409098 0
M  V30 45 H 38.462911 31.741571 56.116953 0
M  V30 46 H 38.526204 26.105325 58.277232 0
M  V30 47 H 39.818614 25.683191 59.379413 0
M  V30 48 H 41.746063 34.170515 64.034609 0
M  V30 49 H 37.399069 29.669633 54.018019 0
M  V30 50 H 36.446621 31.024517 54.802322 0
M  V30 51 H 38.158263 36.137721 63.859539 0
M  V30 52 H 39.753418 35.377743 64.080956 0
M  V30 53 H 39.491631 28.018779 60.532553 0
M  V30 54 H 38.445176 29.308530 60.962222 0
M  V30 55 H 38.148092 31.329620 62.967696 0
M  V30 56 H 38.710988 31.330433 61.388941 0
M  V30 57 H 40.845116 29.337636 57.131274 0
M  V30 58 H 40.568966 27.483066 55.919329 0
M  V30 59 H 39.076922 36.312194 60.167786 0
M  V30 60 H 37.624741 33.891178 62.063297 0
M  V30 61 H 38.199719 32.754895 59.974452 0
M  V30 62 H 38.207833 34.408336 59.596531 0
M  V30 63 H 39.724363 33.609135 59.837803 0
M  V30 64 H 40.045136 30.865040 59.818904 0
M  V30 65 H 41.029981 29.544744 59.288878 0
M  V30 66 H 36.500711 30.632821 57.367724 0
M  V30 67 H 42.275108 34.683225 60.963073 0
M  V30 68 H 39.494165 39.128227 60.454035 0
M  V30 69 H 38.089693 32.671968 53.891464 0
M  V30 70 H 39.094482 31.311004 53.157383 0
M  V30 71 H 37.621787 28.394639 58.654056 0
M  V30 72 H 37.259542 29.998326 59.288909 0
M  V30 73 H 39.094259 30.922918 57.961454 0
M  V30 74 H 37.594468 27.463942 56.480312 0
M  V30 75 H 38.413064 25.943920 56.319763 0
M  V30 76 H 36.988564 36.177667 59.039593 0
M  V30 77 H 36.184743 35.184807 60.278854 0
M  V30 78 H 35.527868 36.729487 59.767656 0
M  V30 79 H 39.471576 33.204652 63.573777 0
M  V30 80 H 40.672393 30.596592 55.367831 0
M  V30 81 H 39.753628 29.350388 54.688846 0
M  V30 82 H 37.129044 37.997838 60.806853 0
M  V30 83 H 40.625085 37.515179 61.367749 0
M  V30 84 H 40.058013 35.359316 61.825534 0
M  V30 END ATOM
M  V30 BEGIN BOND
M  V30 1 1 2 1
M  V30 2 1 7 6
M  V30 3 2 8 6
M  V30 4 1 10 4
M  V30 5 1 11 3
M  V30 6 1 15 6
M  V30 7 1 15 14
M  V30 8 1 18 17
M  V30 9 1 19 12
M  V30 10 1 20 9
M  V30 11 1 22 1
M  V30 12 1 22 13
M  V30 13 1 23 20
M  V30 14 1 26 4
M  V30 15 1 26 10
M  V30 16 1 27 21
M  V30 17 1 28 14
M  V30 18 1 28 19
M  V30 19 1 28 27
M  V30 20 2 29 5
M  V30 21 1 29 12
M  V30 22 1 29 22
M  V30 23 1 30 15
M  V30 24 1 32 13
M  V30 25 1 32 17
M  V30 26 1 32 20
M  V30 27 1 34 4
M  V30 28 1 34 14
M  V30 29 1 35 16
M  V30 30 1 35 25
M  V30 31 1 35 31
M  V30 32 1 36 30
M  V30 33 2 36 33
M  V30 34 1 37 3
M  V30 35 1 37 16
M  V30 36 1 37 24
M  V30 37 1 38 36
M  V30 38 1 39 11
M  V30 39 1 39 16
M  V30 40 1 39 17
M  V30 41 1 40 1
M  V30 42 1 41 1
M  V30 43 1 42 2
M  V30 44 1 43 3
M  V30 45 1 44 3
M  V30 46 1 45 4
M  V30 47 1 46 7
M  V30 48 1 47 7
M  V30 49 1 48 9
M  V30 50 1 49 10
M  V30 51 1 50 10
M  V30 52 1 51 11
M  V30 53 1 52 11
M  V30 54 1 53 12
M  V30 55 1 54 12
M  V30 56 1 55 13
M  V30 57 1 56 13
M  V30 58 1 14 57 CFG=1
M  V30 59 1 15 58 CFG=3
M  V30 60 1 16 59 CFG=3
M  V30 61 1 17 60 CFG=1
M  V30 62 1 61 18
M  V30 63 1 62 18
M  V30 64 1 63 18
M  V30 65 1 64 19
M  V30 66 1 65 19
M  V30 67 1 66 21
M  V30 68 1 67 23
M  V30 69 1 68 24
M  V30 70 1 69 26
M  V30 71 1 70 26
M  V30 72 1 71 27
M  V30 73 1 72 27
M  V30 74 1 28 73 CFG=3
M  V30 75 1 74 30
M  V30 76 1 75 30
M  V30 77 1 76 31
M  V30 78 1 77 31
M  V30 79 1 78 31
M  V30 80 1 32 79 CFG=1
M  V30 81 1 80 34
M  V30 82 1 81 34
M  V30 83 1 35 82 CFG=3
M  V30 84 1 37 83 CFG=3
M  V30 85 1 39 84 CFG=3
M  V30 END BOND
M  V30 END CTAB
M  END
>  <i_epik_Tot_Q>  (1) 
1

>  <i_epik_Tot_abs_Q>  (1) 
3

>  <i_i_glide_confnum>  (1) 
8382

>  <i_i_glide_lignum>  (1) 
219

>  <i_i_glide_posenum>  (1) 
41

>  <i_i_glide_rotatable_bonds>  (1) 
24

>  <i_lp_mmshare_version>  (1) 
72125

>  <i_m_source_file_index>  (1) 
94

>  <i_f3d_flags>  (1) 
0

>  <num_sample>  (1) 
100

>  <b_lp_Chiralities_Consistent>  (1) 
1

>  <r_epik_Charging_Adjusted_Penalty>  (1) 
0.90916677635763199

>  <r_epik_Ionization_Penalty>  (1) 
0.45507897092921873

>  <r_epik_Ionization_Penalty_Charging>  (1) 
0.45507471778648678

>  <r_epik_Ionization_Penalty_Neutral>  (1) 
4.2531427319391784e-06

>  <r_epik_State_Penalty>  (1) 
0.45409205857114521

>  <r_glide_ring_energy>  (1) 
0

>  <r_i_docking_score>  (1) 
-5.1605444297507548

>  <r_i_glide_ecoul>  (1) 
-5.5852237380309733

>  <r_i_glide_eff_state_penalty>  (1) 
0.45409205857114521

>  <r_i_glide_einternal>  (1) 
44.86385538121619

>  <r_i_glide_emodel>  (1) 
-21.610762126402673

>  <r_i_glide_emodel_strain>  (1) 
8.7589972064247092

>  <r_i_glide_energy>  (1) 
-33.382422187606231

>  <r_i_glide_erotb>  (1) 
0.82188833391367333

>  <r_i_glide_esite>  (1) 
-0.035116556717671825

>  <r_i_glide_evdw>  (1) 
-27.797198449575259

>  <r_i_glide_gscore>  (1) 
-5.6146364883219002

>  <r_i_glide_gscore_strain>  (1) 
1.1897493016061773

>  <r_i_glide_hbond>  (1) 
-0.56680286988883022

>  <r_i_glide_ligand_efficiency>  (1) 
-0.13232165204489116

>  <r_i_glide_ligand_efficiency_ln>  (1) 
-1.1065672165036269

>  <r_i_glide_ligand_efficiency_sa>  (1) 
-0.44873070057317382

>  <r_i_glide_lipo>  (1) 
-2.769925370691948

>  <r_i_glide_metal>  (1) 
-0

>  <r_i_glide_rewards>  (1) 
-2.026785843359892

>  <r_lp_Energy>  (1) 
13.939579

>  <s_epik_Chemistry_Notes>  (1) 
This compound contains an acetal/aminal-like group ( X-CH(R)-Y where X, Y are N, S, or O) that may be acid/base labile, releasing an aldehyde.

>  <s_epik_cmdline>  (1) 
J2VwaWtfcHl0aG9uJywgJy1waHQnLCAnMS4wJywgJy1waCcsICc3LjQnLCAnLXRuJywgJzgnLCAnLW1hJywgJzUwMCcsICctaW1hZScsICc8aW5maWxlLm1hZT4nLCAnLW9tYWUnLCAnPG91dGZpbGUubWFlPic=

>  <s_epik_input>  (1) 
W0NIMl0xW0NIMl1bQ0hdMVtDSDJdW0NAQEhdKFtDQEBIXShDKD1PKVtOSDJdKVtDSDJdQyg9TylbT0hdKVtDQEBIXShbQ0gyXVtPSF0pW0NIMl1bQ0gyXUMoPU8pTihbQ0gyXVtPSF0pW0NIMl1bQ0BASF0oW1MrXShbT0hdKVtPSF0pW0NASF0oW0NIM10pTjJbQ0gyXVtDSDJdW0NASF0oW09IXSlbQ0BASF0yW0NASF0oRilbQ0gzXQ==

>  <s_glide_docking_method>  (1) 
confgen

>  <s_i_glide_gridfile>  (1) 
gpcr_5ht2c_6bqh_protein_autoprepared_prepared

>  <s_lp_Force_Field>  (1) 
S-OPLS

>  <s_lp_Variant>  (1) 
DiffSBDD_93-7

>  <s_m_source_file>  (1) 
generated_GPCR_5HT2C_ligand_DiffSBDD_2026-06-23_prepared.sdf

>  <GenAI_Model>  (1) 
DiffSBDD

>  <Protein>  (1) 
GPCR_5HT2C

$$$$
DiffSBDD_73
     RDKit          3D

  0  0  0  0  0  0  0  0  0  0999 V3000
M  V30 BEGIN CTAB
M  V30 COUNTS 65 66 0 0 1
M  V30 BEGIN ATOM
M  V30 1 C 38.550957 28.684552 55.024697 0 CFG=1
M  V30 2 C 38.562919 33.585292 55.665079 0
M  V30 3 N 37.933952 35.452083 60.872409 0
M  V30 4 C 38.204078 26.108039 57.855530 0
M  V30 5 C 38.590706 27.131840 57.042512 0
M  V30 6 C 37.447928 29.691003 55.354386 0
M  V30 7 C 37.296741 36.421216 61.768560 0 CFG=2
M  V30 8 N 37.591103 33.337759 57.935214 0 CHG=1
M  V30 9 O 36.045134 34.823916 59.767757 0
M  V30 10 C 39.058484 29.705339 52.595349 0
M  V30 11 C 38.021248 33.540852 59.344345 0 CFG=1
M  V30 12 C 36.590841 24.846048 56.221642 0
M  V30 13 C 37.326769 24.918052 57.520999 0 CFG=1
M  V30 14 C 37.242511 34.684883 60.006856 0
M  V30 15 O 37.888609 31.009563 55.637807 0
M  V30 16 C 35.945122 38.620546 61.901469 0
M  V30 17 C 38.298824 27.334674 55.596271 0
M  V30 18 C 37.582162 24.936750 55.116802 0
M  V30 19 C 38.629977 32.836705 57.004935 0 CFG=1
M  V30 20 C 39.302855 28.717943 53.702913 0 CFG=1
M  V30 21 O 38.045137 23.737756 57.767760 0
M  V30 22 C 36.817610 37.695121 61.031935 0
M  V30 23 C 38.445135 31.317072 56.832982 0
M  V30 24 O 38.768873 30.494764 57.688022 0
M  V30 25 C 37.851984 32.265335 60.191202 0
M  V30 26 C 37.842682 26.360695 54.763913 0
M  V30 27 C 38.297028 36.755869 62.889760 0
M  V30 28 C 39.992138 29.157868 54.967764 0
M  V30 29 H 39.273026 33.153864 54.967762 0
M  V30 30 H 37.585091 33.519363 55.196383 0
M  V30 31 H 38.795734 34.640104 55.767758 0
M  V30 32 H 38.928637 35.309547 60.969106 0
M  V30 33 H 38.525828 26.146186 58.886140 0
M  V30 34 H 39.182480 27.902706 57.513595 0
M  V30 35 H 36.752690 29.732409 54.516838 0
M  V30 36 H 36.876535 29.337762 56.213429 0
M  V30 37 H 36.442331 35.926355 62.230632 0
M  V30 38 H 37.311080 34.250417 57.600945 0
M  V30 39 H 38.845135 30.696263 52.994546 0
M  V30 40 H 39.946642 29.782600 51.967512 0
M  V30 41 H 38.235375 29.337754 51.979668 0
M  V30 42 H 39.073641 33.830827 59.354117 0
M  V30 43 H 36.042258 23.906240 56.154595 0
M  V30 44 H 35.865375 25.652975 56.167763 0
M  V30 45 H 36.543765 24.937754 58.274500 0
M  V30 46 H 35.678825 39.531692 61.367759 0
M  V30 47 H 35.015132 38.137755 62.196250 0
M  V30 48 H 36.445135 38.928664 62.815816 0
M  V30 49 H 37.148817 24.475114 54.229709 0
M  V30 50 H 38.516336 24.408198 55.310418 0
M  V30 51 H 39.617751 33.012793 57.429281 0
M  V30 52 H 39.644987 27.760488 53.312221 0
M  V30 53 H 37.443455 23.043157 57.994353 0
M  V30 54 H 37.678878 38.250809 60.659436 0
M  V30 55 H 36.235662 37.421999 60.152015 0
M  V30 56 H 37.966955 32.473352 61.256255 0
M  V30 57 H 36.866377 31.819610 60.050094 0
M  V30 58 H 38.601937 31.515788 59.946987 0
M  V30 59 H 37.668348 26.611972 53.726864 0
M  V30 60 H 37.828354 37.331378 63.687363 0
M  V30 61 H 38.702721 35.853321 63.347747 0
M  V30 62 H 39.139872 37.336232 62.512825 0
M  V30 63 H 40.238600 30.214923 55.026494 0
M  V30 64 H 40.720921 28.497516 55.432633 0
M  V30 65 H 36.761991 32.747648 57.870087 0
M  V30 END ATOM
M  V30 BEGIN BOND
M  V30 1 2 5 4
M  V30 2 1 1 6 CFG=3
M  V30 3 1 7 3
M  V30 4 1 11 8
M  V30 5 1 13 4
M  V30 6 1 13 12
M  V30 7 1 14 3
M  V30 8 2 14 9
M  V30 9 1 14 11
M  V30 10 1 15 6
M  V30 11 1 17 1
M  V30 12 1 17 5
M  V30 13 1 18 12
M  V30 14 1 19 2
M  V30 15 1 19 8
M  V30 16 1 20 1
M  V30 17 1 20 10
M  V30 18 1 21 13
M  V30 19 1 22 7
M  V30 20 1 22 16
M  V30 21 1 23 15
M  V30 22 1 23 19
M  V30 23 2 24 23
M  V30 24 1 25 11
M  V30 25 2 26 17
M  V30 26 1 26 18
M  V30 27 1 27 7
M  V30 28 1 28 1
M  V30 29 1 28 20
M  V30 30 1 29 2
M  V30 31 1 30 2
M  V30 32 1 31 2
M  V30 33 1 32 3
M  V30 34 1 33 4
M  V30 35 1 34 5
M  V30 36 1 35 6
M  V30 37 1 36 6
M  V30 38 1 7 37 CFG=1
M  V30 39 1 38 8
M  V30 40 1 39 10
M  V30 41 1 40 10
M  V30 42 1 41 10
M  V30 43 1 11 42 CFG=3
M  V30 44 1 43 12
M  V30 45 1 44 12
M  V30 46 1 13 45 CFG=1
M  V30 47 1 46 16
M  V30 48 1 47 16
M  V30 49 1 48 16
M  V30 50 1 49 18
M  V30 51 1 50 18
M  V30 52 1 19 51 CFG=1
M  V30 53 1 20 52 CFG=3
M  V30 54 1 53 21
M  V30 55 1 54 22
M  V30 56 1 55 22
M  V30 57 1 56 25
M  V30 58 1 57 25
M  V30 59 1 58 25
M  V30 60 1 59 26
M  V30 61 1 60 27
M  V30 62 1 61 27
M  V30 63 1 62 27
M  V30 64 1 63 28
M  V30 65 1 64 28
M  V30 66 1 65 8
M  V30 END BOND
M  V30 END CTAB
M  END
>  <i_epik_Tot_Q>  (1) 
1

>  <i_epik_Tot_abs_Q>  (1) 
1

>  <i_i_glide_confnum>  (1) 
700

>  <i_i_glide_lignum>  (1) 
160

>  <i_i_glide_posenum>  (1) 
396

>  <i_i_glide_rotatable_bonds>  (1) 
12

>  <i_lp_mmshare_version>  (1) 
72125

>  <i_m_source_file_index>  (1) 
74

>  <i_f3d_flags>  (1) 
0

>  <num_sample>  (1) 
100

>  <b_lp_Chiralities_Consistent>  (1) 
1

>  <r_epik_Charging_Adjusted_Penalty>  (1) 
2.336176939713237

>  <r_epik_Ionization_Penalty>  (1) 
1.168091143672223

>  <r_epik_Ionization_Penalty_Charging>  (1) 
1.1680884698566185

>  <r_epik_Ionization_Penalty_Neutral>  (1) 
2.673815604532901e-06

>  <r_epik_State_Penalty>  (1) 
1.1680884698566185

>  <r_glide_ring_energy>  (1) 
0

>  <r_i_docking_score>  (1) 
-5.1588475697740419

>  <r_i_glide_ecoul>  (1) 
-3.583122814687175

>  <r_i_glide_eff_state_penalty>  (1) 
1.1680884698566185

>  <r_i_glide_einternal>  (1) 
4.657370866438125

>  <r_i_glide_emodel>  (1) 
-57.068425707479605

>  <r_i_glide_emodel_strain>  (1) 
0.78441763353310989

>  <r_i_glide_energy>  (1) 
-40.315543765485629

>  <r_i_glide_erotb>  (1) 
1.2613414017289797

>  <r_i_glide_esite>  (1) 
-0.16813277846759958

>  <r_i_glide_evdw>  (1) 
-36.732420950798456

>  <r_i_glide_gscore>  (1) 
-6.3269360396306604

>  <r_i_glide_gscore_strain>  (1) 
0

>  <r_i_glide_hbond>  (1) 
-0.20240261353324224

>  <r_i_glide_ligand_efficiency>  (1) 
-0.18424455606335863

>  <r_i_glide_ligand_efficiency_ln>  (1) 
-1.1908134894502953

>  <r_i_glide_ligand_efficiency_sa>  (1) 
-0.55947498707012211

>  <r_i_glide_lipo>  (1) 
-3.3108037149680021

>  <r_i_glide_metal>  (1) 
-0

>  <r_i_glide_rewards>  (1) 
-1.5328488646477965

>  <r_lp_Energy>  (1) 
24.831178999999999

>  <s_epik_Chemistry_Notes>  (1) 
This compound has an ester and may undergo hydrolysis at high or low pH.

>  <s_epik_cmdline>  (1) 
J2VwaWtfcHl0aG9uJywgJy1waHQnLCAnMS4wJywgJy1waCcsICc3LjQnLCAnLXRuJywgJzgnLCAnLW1hJywgJzUwMCcsICctaW1hZScsICc8aW5maWxlLm1hZT4nLCAnLW9tYWUnLCAnPG91dGZpbGUubWFlPic=

>  <s_epik_input>  (1) 
W09IXVtDQEhdMVtDSF09W0NIXUMoPVtDSF1bQ0gyXVtDSDJdMSlbQ0BAXTIoW0NAQEhdKFtDSDNdKVtDSDJdMilbQ0gyXU9DKD1PKVtDQEBIXShbQ0gzXSlbTkhdW0NASF0oW0NIM10pQyg9TylbTkhdW0NAQEhdKFtDSDNdKVtDSDJdW0NIM10=

>  <s_glide_docking_method>  (1) 
confgen

>  <s_i_glide_gridfile>  (1) 
gpcr_5ht2c_6bqh_protein_autoprepared_prepared

>  <s_lp_Force_Field>  (1) 
S-OPLS

>  <s_lp_Variant>  (1) 
DiffSBDD_73-3

>  <s_m_source_file>  (1) 
generated_GPCR_5HT2C_ligand_DiffSBDD_2026-06-23_prepared.sdf

>  <GenAI_Model>  (1) 
DiffSBDD

>  <Protein>  (1) 
GPCR_5HT2C

$$$$
DiffSBDD_16
     RDKit          3D

  0  0  0  0  0  0  0  0  0  0999 V3000
M  V30 BEGIN CTAB
M  V30 COUNTS 70 74 0 0 1
M  V30 BEGIN ATOM
M  V30 1 C 38.178755 29.636553 59.332027 0
M  V30 2 C 42.084463 32.552364 65.734936 0
M  V30 3 C 39.644525 33.857741 61.056072 0 CFG=1
M  V30 4 C 39.609306 32.883877 62.238902 0
M  V30 5 C 38.894802 27.817253 57.850814 0
M  V30 6 C 40.237427 28.172084 58.056151 0
M  V30 7 C 35.207747 33.587142 60.707329 0
M  V30 8 C 34.867757 33.768432 59.237111 0
M  V30 9 C 38.284205 33.995756 60.435523 0
M  V30 10 C 40.554378 29.253425 58.895254 0
M  V30 11 O 35.140210 31.456320 61.737829 0
M  V30 12 C 41.835337 34.642827 64.436923 0
M  V30 13 C 41.460102 34.196121 63.220586 0
M  V30 14 C 41.430171 35.137421 62.031839 0
M  V30 15 C 41.916131 33.859220 65.668066 0
M  V30 16 C 37.871611 28.542181 58.491497 0
M  V30 17 N 42.139645 32.029922 67.010917 0
M  V30 18 C 40.810504 34.236824 69.516801 0
M  V30 19 N 40.071973 35.191123 61.512272 0 CHG=1
M  V30 20 C 40.444560 35.367546 68.597124 0
M  V30 21 C 38.544655 26.652638 56.945130 0
M  V30 22 C 36.075120 34.137662 58.371190 0
M  V30 23 C 38.199449 33.470525 57.113346 0
M  V30 24 C 37.245965 33.146402 58.273937 0 CFG=1
M  V30 25 C 37.072252 30.357846 60.024710 0
M  V30 26 C 37.885715 32.766562 59.603357 0 CFG=2
M  V30 27 C 35.743060 32.176316 60.957172 0
M  V30 28 C 41.877556 34.496063 66.956330 0 CFG=2
M  V30 29 C 36.952086 31.701439 60.213636 0
M  V30 30 C 41.858323 33.115688 67.657825 0
M  V30 31 N 40.790720 35.398588 67.355111 0
M  V30 32 C 39.529961 29.990005 59.526141 0
M  V30 33 C 40.964449 32.778588 62.933734 0
M  V30 34 C 41.462636 33.148957 69.050698 0
M  V30 35 H 42.200607 31.882415 64.904646 0
M  V30 36 H 40.351505 33.498832 60.309604 0
M  V30 37 H 39.277484 31.892567 61.938504 0
M  V30 38 H 38.866709 33.225003 62.963021 0
M  V30 39 H 41.026071 27.612784 57.573470 0
M  V30 40 H 34.262472 33.618996 61.247653 0
M  V30 41 H 35.750272 34.424085 61.126162 0
M  V30 42 H 34.392438 32.863235 58.860267 0
M  V30 43 H 34.105572 34.537474 59.134862 0
M  V30 44 H 37.623579 34.224988 61.257759 0
M  V30 45 H 38.295001 34.873726 59.787512 0
M  V30 46 H 41.588030 29.520779 59.059012 0
M  V30 47 H 42.091230 35.691840 64.513623 0
M  V30 48 H 41.773835 36.139911 62.294194 0
M  V30 49 H 42.045133 34.763639 61.225068 0
M  V30 50 H 36.841049 28.267873 58.328930 0
M  V30 51 H 40.487136 34.322178 70.540339 0
M  V30 52 H 40.039954 35.840916 60.739835 0
M  V30 53 H 39.848516 36.163576 69.048730 0
M  V30 54 H 37.714436 26.921173 56.289642 0
M  V30 55 H 39.387151 26.364322 56.317145 0
M  V30 56 H 38.247783 25.787145 57.538557 0
M  V30 57 H 35.689231 34.137790 57.367857 0
M  V30 58 H 36.413049 35.149317 58.592502 0
M  V30 59 H 38.286173 34.537621 56.964904 0
M  V30 60 H 39.196600 33.041656 57.238149 0
M  V30 61 H 37.787856 33.081761 56.178948 0
M  V30 62 H 36.845142 32.200434 57.965302 0
M  V30 63 H 36.288010 29.737689 60.395595 0
M  V30 64 H 38.806254 32.308482 59.285457 0
M  V30 65 H 42.845757 34.963649 66.967859 0
M  V30 66 H 39.790907 30.800442 60.181565 0
M  V30 67 H 41.689034 32.229332 62.332118 0
M  V30 68 H 40.671308 32.179907 63.783285 0
M  V30 69 H 41.694507 32.288604 69.659389 0
M  V30 70 H 39.454190 35.513254 62.245666 0
M  V30 END ATOM
M  V30 BEGIN BOND
M  V30 1 1 4 3
M  V30 2 1 6 5
M  V30 3 1 8 7
M  V30 4 1 9 3
M  V30 5 2 10 6
M  V30 6 2 13 12
M  V30 7 1 14 13
M  V30 8 2 15 2
M  V30 9 1 15 12
M  V30 10 1 16 1
M  V30 11 2 16 5
M  V30 12 1 17 2
M  V30 13 1 19 3
M  V30 14 1 19 14
M  V30 15 1 20 18
M  V30 16 1 21 5
M  V30 17 1 22 8
M  V30 18 1 24 22
M  V30 19 1 24 23
M  V30 20 1 25 1
M  V30 21 1 26 9
M  V30 22 1 26 24
M  V30 23 1 27 7
M  V30 24 2 27 11
M  V30 25 1 28 15
M  V30 26 2 29 25
M  V30 27 1 29 26
M  V30 28 1 29 27
M  V30 29 2 30 17
M  V30 30 1 30 28
M  V30 31 2 31 20
M  V30 32 1 31 28
M  V30 33 2 32 1
M  V30 34 1 32 10
M  V30 35 1 33 4
M  V30 36 1 33 13
M  V30 37 2 34 18
M  V30 38 1 34 30
M  V30 39 1 35 2
M  V30 40 1 3 36 CFG=3
M  V30 41 1 37 4
M  V30 42 1 38 4
M  V30 43 1 39 6
M  V30 44 1 40 7
M  V30 45 1 41 7
M  V30 46 1 42 8
M  V30 47 1 43 8
M  V30 48 1 44 9
M  V30 49 1 45 9
M  V30 50 1 46 10
M  V30 51 1 47 12
M  V30 52 1 48 14
M  V30 53 1 49 14
M  V30 54 1 50 16
M  V30 55 1 51 18
M  V30 56 1 52 19
M  V30 57 1 53 20
M  V30 58 1 54 21
M  V30 59 1 55 21
M  V30 60 1 56 21
M  V30 61 1 57 22
M  V30 62 1 58 22
M  V30 63 1 59 23
M  V30 64 1 60 23
M  V30 65 1 61 23
M  V30 66 1 24 62 CFG=3
M  V30 67 1 63 25
M  V30 68 1 26 64 CFG=3
M  V30 69 1 28 65 CFG=1
M  V30 70 1 66 32
M  V30 71 1 67 33
M  V30 72 1 68 33
M  V30 73 1 69 34
M  V30 74 1 70 19
M  V30 END BOND
M  V30 END CTAB
M  END
>  <i_epik_Tot_Q>  (1) 
1

>  <i_epik_Tot_abs_Q>  (1) 
1

>  <i_i_glide_confnum>  (1) 
9

>  <i_i_glide_lignum>  (1) 
36

>  <i_i_glide_posenum>  (1) 
261

>  <i_i_glide_rotatable_bonds>  (1) 
4

>  <i_lp_mmshare_version>  (1) 
72125

>  <i_m_source_file_index>  (1) 
17

>  <i_f3d_flags>  (1) 
0

>  <num_sample>  (1) 
100

>  <b_lp_Chiralities_Consistent>  (1) 
1

>  <r_epik_Charging_Adjusted_Penalty>  (1) 
0.57808156404405586

>  <r_epik_Ionization_Penalty>  (1) 
0.28904078202202793

>  <r_epik_Ionization_Penalty_Charging>  (1) 
0.28904078202202793

>  <r_epik_Ionization_Penalty_Neutral>  (1) 
0

>  <r_epik_State_Penalty>  (1) 
0.28904078202202793

>  <r_glide_ring_energy>  (1) 
0

>  <r_i_docking_score>  (1) 
-5.1523046112068602

>  <r_i_glide_ecoul>  (1) 
-1.8105801130635024

>  <r_i_glide_eff_state_penalty>  (1) 
0.28904078202202793

>  <r_i_glide_einternal>  (1) 
9.8162155132891229

>  <r_i_glide_emodel>  (1) 
-12.170067491050457

>  <r_i_glide_emodel_strain>  (1) 
4.6032678009396761

>  <r_i_glide_energy>  (1) 
-17.389043259867467

>  <r_i_glide_erotb>  (1) 
0.29147875755417113

>  <r_i_glide_esite>  (1) 
-0.048340006606585217

>  <r_i_glide_evdw>  (1) 
-15.578463146803966

>  <r_i_glide_gscore>  (1) 
-5.4413453932288878

>  <r_i_glide_gscore_strain>  (1) 
0.15081695023491903

>  <r_i_glide_hbond>  (1) 
-0.20297397924384514

>  <r_i_glide_ligand_efficiency>  (1) 
-0.15153837091784883

>  <r_i_glide_ligand_efficiency_ln>  (1) 
-1.1382886058648143

>  <r_i_glide_ligand_efficiency_sa>  (1) 
-0.49092549477182773

>  <r_i_glide_lipo>  (1) 
-3.2205932069440339

>  <r_i_glide_metal>  (1) 
-0

>  <r_i_glide_rewards>  (1) 
-1.3612237339237898

>  <r_lp_Energy>  (1) 
58.700623999999998

>  <s_epik_Chemistry_Notes>  (1) 
This compound has an imine and may undergo hydrolysis.

>  <s_epik_cmdline>  (1) 
J2VwaWtfcHl0aG9uJywgJy1waHQnLCAnMS4wJywgJy1waCcsICc3LjQnLCAnLXRuJywgJzgnLCAnLW1hJywgJzUwMCcsICctaW1hZScsICc8aW5maWxlLm1hZT4nLCAnLW9tYWUnLCAnPG91dGZpbGUubWFlPic=

>  <s_epik_input>  (1) 
W2NIXTFbY0hdW2NIXWMoW0NIM10pW2NIXWMxL1tDSF09QyhDKD1PKVtDSDJdW0NIMl1bQ0gyXVtDQEhdMltDSDNdKVxbQ0BASF0yW0NIMl1bQ0BASF0zW0NIMl1bQ0gyXUMoL1tDSDJdW05IXTMpPVtDSF1cQzQ9W0NIXU49QyhbQ0BASF00NSlbQ0hdPVtDSF1bQ0hdPU41

>  <s_glide_docking_method>  (1) 
confgen

>  <s_i_glide_gridfile>  (1) 
gpcr_5ht2c_6bqh_protein_autoprepared_prepared

>  <s_lp_Force_Field>  (1) 
S-OPLS

>  <s_lp_Variant>  (1) 
DiffSBDD_16-4

>  <s_m_source_file>  (1) 
generated_GPCR_5HT2C_ligand_DiffSBDD_2026-06-23_prepared.sdf

>  <GenAI_Model>  (1) 
DiffSBDD

>  <Protein>  (1) 
GPCR_5HT2C

$$$$
DiffSBDD_54
     RDKit          3D

  0  0  0  0  0  0  0  0  0  0999 V3000
M  V30 BEGIN CTAB
M  V30 COUNTS 42 43 0 0 1
M  V30 BEGIN ATOM
M  V30 1 C 37.893617 31.981486 58.494705 0
M  V30 2 C 39.010431 27.283461 57.444640 0
M  V30 3 C 39.629479 28.738772 59.384000 0
M  V30 4 C 39.294741 29.408076 52.797923 0
M  V30 5 C 38.378897 30.440053 54.949613 0
M  V30 6 S 37.401177 29.458866 57.691014 0 CHG=1
M  V30 7 C 36.865363 30.310643 60.021624 0
M  V30 8 N 38.064256 26.420334 57.766157 0
M  V30 9 C 38.591872 32.864215 55.704467 0
M  V30 10 C 38.516883 25.333366 57.032886 0
M  V30 11 N 39.647092 25.533410 56.327241 0
M  V30 12 N 39.924617 26.807629 56.632016 0
M  V30 13 N 37.645150 31.137977 57.293936 0 CFG=2 CHG=1
M  V30 14 C 38.610570 31.391869 56.164721 0 CFG=1
M  V30 15 C 36.819650 31.756912 59.548600 0
M  V30 16 C 39.354569 30.599457 53.767300 0
M  V30 17 O 36.636338 29.368014 58.975197 0
M  V30 18 C 39.074569 28.699200 57.950478 0 CFG=2
M  V30 19 H 37.858485 33.038482 58.250358 0
M  V30 20 H 38.883418 31.801002 58.913399 0
M  V30 21 H 40.607650 28.256420 59.438551 0
M  V30 22 H 38.975650 28.220512 60.087677 0
M  V30 23 H 39.773955 29.760601 59.730263 0
M  V30 24 H 39.923081 29.584496 51.925483 0
M  V30 25 H 38.277989 29.230109 52.443936 0
M  V30 26 H 39.642728 28.489031 53.273950 0
M  V30 27 H 37.352923 30.556033 54.594619 0
M  V30 28 H 38.474016 29.400061 55.251278 0
M  V30 29 H 37.779556 30.122298 60.578328 0
M  V30 30 H 36.056716 30.161260 60.728537 0
M  V30 31 H 39.365911 33.033067 54.967315 0
M  V30 32 H 38.810184 33.582606 56.492202 0
M  V30 33 H 37.645484 33.131668 55.241630 0
M  V30 34 H 38.005267 24.382703 57.022681 0
M  V30 35 H 40.736443 27.290362 56.271557 0
M  V30 36 H 39.621815 31.221242 56.535858 0
M  V30 37 H 36.967647 32.433871 60.391174 0
M  V30 38 H 35.836642 31.986741 59.137170 0
M  V30 39 H 39.127549 31.516074 53.221751 0
M  V30 40 H 40.379913 30.702545 54.128719 0
M  V30 41 H 39.795598 29.209247 57.314973 0
M  V30 42 H 36.713299 31.467970 56.971995 0
M  V30 END ATOM
M  V30 BEGIN BOND
M  V30 1 2 8 2
M  V30 2 1 10 8
M  V30 3 2 11 10
M  V30 4 1 12 2
M  V30 5 1 12 11
M  V30 6 1 13 1
M  V30 7 1 13 6
M  V30 8 1 14 5
M  V30 9 1 14 9
M  V30 10 1 14 13
M  V30 11 1 15 1
M  V30 12 1 15 7
M  V30 13 1 16 4
M  V30 14 1 16 5
M  V30 15 1 6 17 CFG=1
M  V30 16 1 17 7
M  V30 17 1 18 2
M  V30 18 1 18 3
M  V30 19 1 18 6
M  V30 20 1 19 1
M  V30 21 1 20 1
M  V30 22 1 21 3
M  V30 23 1 22 3
M  V30 24 1 23 3
M  V30 25 1 24 4
M  V30 26 1 25 4
M  V30 27 1 26 4
M  V30 28 1 27 5
M  V30 29 1 28 5
M  V30 30 1 29 7
M  V30 31 1 30 7
M  V30 32 1 31 9
M  V30 33 1 32 9
M  V30 34 1 33 9
M  V30 35 1 34 10
M  V30 36 1 35 12
M  V30 37 1 14 36 CFG=1
M  V30 38 1 37 15
M  V30 39 1 38 15
M  V30 40 1 39 16
M  V30 41 1 40 16
M  V30 42 1 18 41 CFG=3
M  V30 43 1 13 42 CFG=3
M  V30 END BOND
M  V30 END CTAB
M  END
>  <i_epik_Tot_Q>  (1) 
2

>  <i_epik_Tot_abs_Q>  (1) 
2

>  <i_i_glide_confnum>  (1) 
48

>  <i_i_glide_lignum>  (1) 
118

>  <i_i_glide_posenum>  (1) 
201

>  <i_i_glide_rotatable_bonds>  (1) 
5

>  <i_lp_mmshare_version>  (1) 
72125

>  <i_m_source_file_index>  (1) 
55

>  <i_f3d_flags>  (1) 
0

>  <num_sample>  (1) 
100

>  <b_lp_Chiralities_Consistent>  (1) 
1

>  <r_epik_Charging_Adjusted_Penalty>  (1) 
0.22285261290592212

>  <r_epik_Ionization_Penalty>  (1) 
0.11376846567106323

>  <r_epik_Ionization_Penalty_Charging>  (1) 
0.11142630645296109

>  <r_epik_Ionization_Penalty_Neutral>  (1) 
0.0023421592181021404

>  <r_epik_State_Penalty>  (1) 
0.11142630645296105

>  <r_glide_ring_energy>  (1) 
0

>  <r_i_docking_score>  (1) 
-5.1515573349304447

>  <r_i_glide_ecoul>  (1) 
-7.4239632436238292

>  <r_i_glide_eff_state_penalty>  (1) 
0.11142630645296105

>  <r_i_glide_einternal>  (1) 
4.2225704383978959

>  <r_i_glide_emodel>  (1) 
-46.860821129530578

>  <r_i_glide_emodel_strain>  (1) 
0

>  <r_i_glide_energy>  (1) 
-31.689150337949172

>  <r_i_glide_erotb>  (1) 
0.96597774364564237

>  <r_i_glide_esite>  (1) 
-0.15997298364829471

>  <r_i_glide_evdw>  (1) 
-24.265187094325345

>  <r_i_glide_gscore>  (1) 
-5.2629836413834061

>  <r_i_glide_gscore_strain>  (1) 
0

>  <r_i_glide_hbond>  (1) 
-0.1444917451566104

>  <r_i_glide_ligand_efficiency>  (1) 
-0.28619762971835805

>  <r_i_glide_ligand_efficiency_ln>  (1) 
-1.3241812493817569

>  <r_i_glide_ligand_efficiency_sa>  (1) 
-0.75004997512737126

>  <r_i_glide_lipo>  (1) 
-1.0013861518498659

>  <r_i_glide_metal>  (1) 
-0

>  <r_i_glide_rewards>  (1) 
-2.5962566631144366

>  <r_lp_Energy>  (1) 
19.301023999999998

>  <r_lp_tautomer_probability>  (1) 
0.94828448534560383

>  <s_epik_cmdline>  (1) 
J2VwaWtfcHl0aG9uJywgJy1waHQnLCAnMS4wJywgJy1waCcsICc3LjQnLCAnLXRuJywgJzgnLCAnLW1hJywgJzUwMCcsICctaW1hZScsICc8aW5maWxlLm1hZT4nLCAnLW9tYWUnLCAnPG91dGZpbGUubWFlPic=

>  <s_epik_input>  (1) 
W0NIM11bQ0gyXVtDSDJdW0NASF0oW0NIM10pTihbQ0gyXVtDSDJdW0NIMl1PMSlbUytdMVtDQEBIXShbQ0gzXSljMm5bY0hdbltuSF0y

>  <s_glide_docking_method>  (1) 
confgen

>  <s_i_glide_gridfile>  (1) 
gpcr_5ht2c_6bqh_protein_autoprepared_prepared

>  <s_lp_Force_Field>  (1) 
S-OPLS

>  <s_lp_Variant>  (1) 
DiffSBDD_54-4

>  <s_m_source_file>  (1) 
generated_GPCR_5HT2C_ligand_DiffSBDD_2026-06-23_prepared.sdf

>  <GenAI_Model>  (1) 
DiffSBDD

>  <Protein>  (1) 
GPCR_5HT2C

$$$$
DiffSBDD_54
     RDKit          3D

  0  0  0  0  0  0  0  0  0  0999 V3000
M  V30 BEGIN CTAB
M  V30 COUNTS 41 42 0 0 1
M  V30 BEGIN ATOM
M  V30 1 C 39.467604 29.809989 55.964853 0
M  V30 2 C 36.677343 31.692227 60.148867 0
M  V30 3 C 39.126373 31.153216 60.107917 0
M  V30 4 C 37.577452 24.871911 57.336489 0
M  V30 5 C 38.484392 27.262954 57.231364 0
M  V30 6 S 37.647280 30.537754 57.783675 0 CHG=1
M  V30 7 C 38.189193 32.030981 55.921589 0
M  V30 8 N 36.565929 32.020171 61.421175 0
M  V30 9 C 40.848811 28.021621 57.945880 0
M  V30 10 C 35.503727 32.907694 61.319133 0
M  V30 11 N 34.984022 33.058965 60.089317 0
M  V30 12 N 35.783279 32.263310 59.367760 0
M  V30 13 N 39.111432 29.699297 57.387084 0
M  V30 14 C 39.340315 28.349371 57.928465 0 CFG=1
M  V30 15 C 39.467658 31.283473 55.504836 0
M  V30 16 C 38.591130 25.878409 57.893668 0
M  V30 17 O 38.045137 31.906226 57.329602 0
M  V30 18 C 37.728850 30.731991 59.612150 0 CFG=2
M  V30 19 H 38.742146 29.256781 55.367832 0
M  V30 20 H 40.444972 29.380389 55.753566 0
M  V30 21 H 39.162488 31.166684 61.197575 0
M  V30 22 H 39.376889 32.157920 59.767754 0
M  V30 23 H 39.907163 30.467853 59.785014 0
M  V30 24 H 37.677774 23.904705 57.830454 0
M  V30 25 H 37.724791 24.714489 56.267571 0
M  V30 26 H 36.554129 25.217077 57.487821 0
M  V30 27 H 38.762774 27.164922 56.181712 0
M  V30 28 H 37.438625 27.569931 57.245450 0
M  V30 29 H 38.278638 33.088789 55.671896 0
M  V30 30 H 37.309105 31.660301 55.389751 0
M  V30 31 H 41.052935 27.151145 58.567793 0
M  V30 32 H 41.431098 28.847106 58.357280 0
M  V30 33 H 41.240446 27.792697 56.954878 0
M  V30 34 H 35.104256 33.441546 62.167759 0
M  V30 35 H 35.665011 32.137756 58.348762 0
M  V30 36 H 39.032463 28.378621 58.973044 0
M  V30 37 H 40.328233 31.803957 55.920728 0
M  V30 38 H 39.586703 31.331952 54.421780 0
M  V30 39 H 39.595932 25.476890 57.757354 0
M  V30 40 H 38.445138 25.974570 58.967768 0
M  V30 41 H 37.502600 29.752363 60.032547 0
M  V30 END ATOM
M  V30 BEGIN BOND
M  V30 1 2 8 2
M  V30 2 1 10 8
M  V30 3 2 11 10
M  V30 4 1 12 2
M  V30 5 1 12 11
M  V30 6 1 13 1
M  V30 7 1 13 6
M  V30 8 1 14 5
M  V30 9 1 14 9
M  V30 10 1 14 13
M  V30 11 1 15 1
M  V30 12 1 15 7
M  V30 13 1 16 4
M  V30 14 1 16 5
M  V30 15 1 6 17 CFG=3
M  V30 16 1 17 7
M  V30 17 1 18 2
M  V30 18 1 18 3
M  V30 19 1 18 6
M  V30 20 1 19 1
M  V30 21 1 20 1
M  V30 22 1 21 3
M  V30 23 1 22 3
M  V30 24 1 23 3
M  V30 25 1 24 4
M  V30 26 1 25 4
M  V30 27 1 26 4
M  V30 28 1 27 5
M  V30 29 1 28 5
M  V30 30 1 29 7
M  V30 31 1 30 7
M  V30 32 1 31 9
M  V30 33 1 32 9
M  V30 34 1 33 9
M  V30 35 1 34 10
M  V30 36 1 35 12
M  V30 37 1 14 36 CFG=1
M  V30 38 1 37 15
M  V30 39 1 38 15
M  V30 40 1 39 16
M  V30 41 1 40 16
M  V30 42 1 18 41 CFG=1
M  V30 END BOND
M  V30 END CTAB
M  END
>  <i_epik_Tot_Q>  (1) 
1

>  <i_epik_Tot_abs_Q>  (1) 
1

>  <i_i_glide_confnum>  (1) 
12

>  <i_i_glide_lignum>  (1) 
120

>  <i_i_glide_posenum>  (1) 
166

>  <i_i_glide_rotatable_bonds>  (1) 
5

>  <i_lp_mmshare_version>  (1) 
72125

>  <i_m_source_file_index>  (1) 
55

>  <i_f3d_flags>  (1) 
0

>  <num_sample>  (1) 
100

>  <b_lp_Chiralities_Consistent>  (1) 
1

>  <r_epik_Charging_Adjusted_Penalty>  (1) 
1.0448623015598277

>  <r_epik_Ionization_Penalty>  (1) 
1.0474264341019792

>  <r_epik_Ionization_Penalty_Charging>  (1) 
0

>  <r_epik_Ionization_Penalty_Neutral>  (1) 
1.0474264341019792

>  <r_epik_State_Penalty>  (1) 
1.0448623015598277

>  <r_glide_ring_energy>  (1) 
0

>  <r_i_docking_score>  (1) 
-5.148713308692761

>  <r_i_glide_ecoul>  (1) 
-9.0250019917618118

>  <r_i_glide_eff_state_penalty>  (1) 
1.0448623015598277

>  <r_i_glide_einternal>  (1) 
7.5276141957919798

>  <r_i_glide_emodel>  (1) 
-45.476748249532449

>  <r_i_glide_emodel_strain>  (1) 
1.3474662111261964

>  <r_i_glide_energy>  (1) 
-32.014447628424151

>  <r_i_glide_erotb>  (1) 
0.97219657743730314

>  <r_i_glide_esite>  (1) 
-0.26198861351547703

>  <r_i_glide_evdw>  (1) 
-22.989445636662339

>  <r_i_glide_gscore>  (1) 
-6.193575610252589

>  <r_i_glide_gscore_strain>  (1) 
0

>  <r_i_glide_hbond>  (1) 
-0.37222616903707667

>  <r_i_glide_ligand_efficiency>  (1) 
-0.28603962826070894

>  <r_i_glide_ligand_efficiency_ln>  (1) 
-1.3234502071023369

>  <r_i_glide_ligand_efficiency_sa>  (1) 
-0.74963589416696486

>  <r_i_glide_lipo>  (1) 
-1.5757505942313896

>  <r_i_glide_metal>  (1) 
-0

>  <r_i_glide_rewards>  (1) 
-2.4525842303085592

>  <r_lp_Energy>  (1) 
5.0378150000000002

>  <r_lp_tautomer_probability>  (1) 
0.94828448534560383

>  <s_epik_cmdline>  (1) 
J2VwaWtfcHl0aG9uJywgJy1waHQnLCAnMS4wJywgJy1waCcsICc3LjQnLCAnLXRuJywgJzgnLCAnLW1hJywgJzUwMCcsICctaW1hZScsICc8aW5maWxlLm1hZT4nLCAnLW9tYWUnLCAnPG91dGZpbGUubWFlPic=

>  <s_epik_input>  (1) 
W0NIM11bQ0gyXVtDSDJdW0NASF0oW0NIM10pTihbQ0gyXVtDSDJdW0NIMl1PMSlbUytdMVtDQEBIXShbQ0gzXSljMm5bY0hdbltuSF0y

>  <s_glide_docking_method>  (1) 
confgen

>  <s_i_glide_gridfile>  (1) 
gpcr_5ht2c_6bqh_protein_autoprepared_prepared

>  <s_lp_Force_Field>  (1) 
S-OPLS

>  <s_lp_Variant>  (1) 
DiffSBDD_54-6

>  <s_m_source_file>  (1) 
generated_GPCR_5HT2C_ligand_DiffSBDD_2026-06-23_prepared.sdf

>  <GenAI_Model>  (1) 
DiffSBDD

>  <Protein>  (1) 
GPCR_5HT2C

$$$$
DiffSBDD_54
     RDKit          3D

  0  0  0  0  0  0  0  0  0  0999 V3000
M  V30 BEGIN CTAB
M  V30 COUNTS 42 43 0 0 1
M  V30 BEGIN ATOM
M  V30 1 C 38.187940 32.251635 57.934030 0
M  V30 2 C 39.104201 27.753186 57.390894 0
M  V30 3 C 39.212314 28.289289 59.803141 0
M  V30 4 C 38.923202 29.215623 53.240019 0
M  V30 5 C 37.186271 30.241359 54.874659 0
M  V30 6 S 37.343484 29.668532 58.182422 0 CHG=1
M  V30 7 C 37.595678 31.266233 60.127666 0
M  V30 8 N 38.154201 26.865450 57.159138 0
M  V30 9 C 38.950334 32.019115 55.205792 0
M  V30 10 C 38.809072 26.104995 56.201026 0
M  V30 11 N 40.045148 26.525274 55.865124 0
M  V30 12 N 40.191712 27.583631 56.675146 0
M  V30 13 N 37.645141 31.083037 57.196703 0 CFG=2 CHG=1
M  V30 14 C 38.249480 30.800826 55.853628 0 CFG=1
M  V30 15 C 37.434978 32.491170 59.237081 0
M  V30 16 C 37.639134 29.018360 54.052988 0
M  V30 17 O 36.941686 30.137557 59.552960 0
M  V30 18 C 38.991706 28.869877 58.392506 0 CFG=2
M  V30 19 H 38.089417 33.157989 57.336478 0
M  V30 20 H 39.245133 32.106759 58.133422 0
M  V30 21 H 40.174873 27.779550 59.863507 0
M  V30 22 H 38.445155 27.557085 60.048321 0
M  V30 23 H 39.208408 29.039090 60.589386 0
M  V30 24 H 39.135415 28.334162 52.634036 0
M  V30 25 H 39.781837 29.379119 53.888379 0
M  V30 26 H 38.845324 30.067883 52.567750 0
M  V30 27 H 36.857686 31.031484 54.198022 0
M  V30 28 H 36.280699 29.961918 55.411646 0
M  V30 29 H 38.652621 31.085526 60.317680 0
M  V30 30 H 37.139009 31.458869 61.099003 0
M  V30 31 H 39.356174 31.766043 54.226989 0
M  V30 32 H 39.793111 32.376314 55.797854 0
M  V30 33 H 38.258623 32.849615 55.053664 0
M  V30 34 H 38.361263 25.237782 55.737580 0
M  V30 35 H 41.037564 28.137089 56.703852 0
M  V30 36 H 39.031131 30.059396 55.991094 0
M  V30 37 H 37.837320 33.372283 59.738682 0
M  V30 38 H 36.379825 32.693866 59.044101 0
M  V30 39 H 37.762945 28.163510 54.712917 0
M  V30 40 H 36.844150 28.738838 53.363609 0
M  V30 41 H 39.767221 29.612277 58.202939 0
M  V30 42 H 36.692034 31.427667 56.967760 0
M  V30 END ATOM
M  V30 BEGIN BOND
M  V30 1 2 8 2
M  V30 2 1 10 8
M  V30 3 2 11 10
M  V30 4 1 12 2
M  V30 5 1 12 11
M  V30 6 1 13 1
M  V30 7 1 13 6
M  V30 8 1 14 5
M  V30 9 1 14 9
M  V30 10 1 14 13
M  V30 11 1 15 1
M  V30 12 1 15 7
M  V30 13 1 16 4
M  V30 14 1 16 5
M  V30 15 1 6 17 CFG=1
M  V30 16 1 17 7
M  V30 17 1 18 2
M  V30 18 1 18 3
M  V30 19 1 18 6
M  V30 20 1 19 1
M  V30 21 1 20 1
M  V30 22 1 21 3
M  V30 23 1 22 3
M  V30 24 1 23 3
M  V30 25 1 24 4
M  V30 26 1 25 4
M  V30 27 1 26 4
M  V30 28 1 27 5
M  V30 29 1 28 5
M  V30 30 1 29 7
M  V30 31 1 30 7
M  V30 32 1 31 9
M  V30 33 1 32 9
M  V30 34 1 33 9
M  V30 35 1 34 10
M  V30 36 1 35 12
M  V30 37 1 14 36 CFG=1
M  V30 38 1 37 15
M  V30 39 1 38 15
M  V30 40 1 39 16
M  V30 41 1 40 16
M  V30 42 1 18 41 CFG=3
M  V30 43 1 13 42 CFG=3
M  V30 END BOND
M  V30 END CTAB
M  END
>  <i_epik_Tot_Q>  (1) 
2

>  <i_epik_Tot_abs_Q>  (1) 
2

>  <i_i_glide_confnum>  (1) 
48

>  <i_i_glide_lignum>  (1) 
118

>  <i_i_glide_posenum>  (1) 
27

>  <i_i_glide_rotatable_bonds>  (1) 
5

>  <i_lp_mmshare_version>  (1) 
72125

>  <i_m_source_file_index>  (1) 
55

>  <i_f3d_flags>  (1) 
0

>  <num_sample>  (1) 
100

>  <b_lp_Chiralities_Consistent>  (1) 
1

>  <r_epik_Charging_Adjusted_Penalty>  (1) 
0.22285261290592212

>  <r_epik_Ionization_Penalty>  (1) 
0.11376846567106323

>  <r_epik_Ionization_Penalty_Charging>  (1) 
0.11142630645296109

>  <r_epik_Ionization_Penalty_Neutral>  (1) 
0.0023421592181021404

>  <r_epik_State_Penalty>  (1) 
0.11142630645296105

>  <r_glide_ring_energy>  (1) 
0

>  <r_i_docking_score>  (1) 
-5.1412792610806708

>  <r_i_glide_ecoul>  (1) 
-7.5958402351954319

>  <r_i_glide_eff_state_penalty>  (1) 
0.11142630645296105

>  <r_i_glide_einternal>  (1) 
6.5047262419813245

>  <r_i_glide_emodel>  (1) 
-46.694317681443621

>  <r_i_glide_emodel_strain>  (1) 
0.23346081416449849

>  <r_i_glide_energy>  (1) 
-32.930937467941746

>  <r_i_glide_erotb>  (1) 
0.96597774364564237

>  <r_i_glide_esite>  (1) 
-0.15768342459660348

>  <r_i_glide_evdw>  (1) 
-25.335097232746318

>  <r_i_glide_gscore>  (1) 
-5.2527055675336323

>  <r_i_glide_gscore_strain>  (1) 
0

>  <r_i_glide_hbond>  (1) 
-0.13961867881028006

>  <r_i_glide_ligand_efficiency>  (1) 
-0.28562662561559282

>  <r_i_glide_ligand_efficiency_ln>  (1) 
-1.3215393234966759

>  <r_i_glide_ligand_efficiency_sa>  (1) 
-0.74855352103899131

>  <r_i_glide_lipo>  (1) 
-1.0344138396016032

>  <r_i_glide_metal>  (1) 
-0

>  <r_i_glide_rewards>  (1) 
-2.4808364712541575

>  <r_lp_Energy>  (1) 
19.301023999999998

>  <r_lp_tautomer_probability>  (1) 
0.94828448534560383

>  <s_epik_cmdline>  (1) 
J2VwaWtfcHl0aG9uJywgJy1waHQnLCAnMS4wJywgJy1waCcsICc3LjQnLCAnLXRuJywgJzgnLCAnLW1hJywgJzUwMCcsICctaW1hZScsICc8aW5maWxlLm1hZT4nLCAnLW9tYWUnLCAnPG91dGZpbGUubWFlPic=

>  <s_epik_input>  (1) 
W0NIM11bQ0gyXVtDSDJdW0NASF0oW0NIM10pTihbQ0gyXVtDSDJdW0NIMl1PMSlbUytdMVtDQEBIXShbQ0gzXSljMm5bY0hdbltuSF0y

>  <s_glide_docking_method>  (1) 
confgen

>  <s_i_glide_gridfile>  (1) 
gpcr_5ht2c_6bqh_protein_autoprepared_prepared

>  <s_lp_Force_Field>  (1) 
S-OPLS

>  <s_lp_Variant>  (1) 
DiffSBDD_54-4

>  <s_m_source_file>  (1) 
generated_GPCR_5HT2C_ligand_DiffSBDD_2026-06-23_prepared.sdf

>  <GenAI_Model>  (1) 
DiffSBDD

>  <Protein>  (1) 
GPCR_5HT2C

$$$$
DiffSBDD_83
     RDKit          3D

  0  0  0  0  0  0  0  0  0  0999 V3000
M  V30 BEGIN CTAB
M  V30 COUNTS 54 55 0 0 1
M  V30 BEGIN ATOM
M  V30 1 C 39.645134 28.835971 51.237247 0
M  V30 2 C 38.184290 32.032521 58.791025 0
M  V30 3 N 38.445322 32.947312 57.855668 0
M  V30 4 O 41.383752 31.403494 62.728401 0
M  V30 5 O 40.359103 29.488320 50.290251 0
M  V30 6 C 38.450627 29.312798 53.388632 0
M  V30 7 C 37.891909 27.895763 53.489381 0
M  V30 8 C 41.747242 32.331396 64.713593 0
M  V30 9 C 39.486658 36.240970 63.247135 0
M  V30 10 C 39.245139 29.737588 52.367442 0
M  V30 11 C 37.943081 32.471119 60.208294 0
M  V30 12 C 38.736041 29.880795 55.849009 0
M  V30 13 N 38.649177 32.215468 56.751628 0
M  V30 14 O 39.874782 30.827068 49.964494 0
M  V30 15 C 39.510896 32.964839 62.294431 0 CFG=1
M  V30 16 C 40.043959 34.913882 60.639923 0
M  V30 17 C 42.236589 31.684703 63.711496 0
M  V30 18 O 39.377926 27.638774 51.168390 0
M  V30 19 C 40.181082 31.981896 63.307477 0 CFG=2
M  V30 20 C 38.217090 30.697209 58.265694 0
M  V30 21 O 40.445142 32.609751 64.589384 0
M  V30 22 C 40.647189 35.252642 63.038777 0
M  V30 23 C 40.452485 34.175612 61.932058 0 CFG=1
M  V30 24 C 38.525895 30.871318 56.949446 0
M  V30 25 Cl 42.682226 32.799818 66.085005 0
M  V30 26 C 38.053445 30.246357 54.521416 0
M  V30 27 C 39.152553 32.069441 61.075690 0
M  V30 28 H 38.869504 32.649218 55.867083 0
M  V30 29 H 37.225281 27.800910 54.346254 0
M  V30 30 H 37.303114 27.638526 52.608081 0
M  V30 31 H 38.691632 27.165591 53.618557 0
M  V30 32 H 39.659314 36.846823 64.137533 0
M  V30 33 H 39.392300 36.930485 62.408462 0
M  V30 34 H 38.530883 35.737759 63.367763 0
M  V30 35 H 39.605619 30.756344 52.355761 0
M  V30 36 H 37.762196 33.543849 60.243405 0
M  V30 37 H 37.034355 32.012437 60.598501 0
M  V30 38 H 38.391502 28.901186 56.181174 0
M  V30 39 H 39.808936 29.777400 55.682052 0
M  V30 40 H 39.165258 30.617649 49.367783 0
M  V30 41 H 38.588856 33.326935 62.740446 0
M  V30 42 H 39.045612 35.343125 60.715337 0
M  V30 43 H 40.731436 35.734573 60.440900 0
M  V30 44 H 40.045138 34.268736 59.764188 0
M  V30 45 H 43.245137 31.337765 63.556333 0
M  V30 46 H 39.512774 31.147747 63.532773 0
M  V30 47 H 38.054139 29.764308 58.783529 0
M  V30 48 H 40.894419 34.807744 63.996243 0
M  V30 49 H 41.530788 35.841871 62.787760 0
M  V30 50 H 41.439621 33.756423 61.735511 0
M  V30 51 H 38.323348 31.263904 54.236419 0
M  V30 52 H 36.968513 30.244572 54.638146 0
M  V30 53 H 38.977984 31.035277 61.375405 0
M  V30 54 H 40.045204 32.015436 60.454500 0
M  V30 END ATOM
M  V30 BEGIN BOND
M  V30 1 2 3 2
M  V30 2 1 5 1
M  V30 3 1 7 6
M  V30 4 1 10 1
M  V30 5 2 10 6
M  V30 6 1 11 2
M  V30 7 1 13 3
M  V30 8 1 14 5
M  V30 9 1 17 4
M  V30 10 2 17 8
M  V30 11 2 18 1
M  V30 12 1 19 4
M  V30 13 1 19 15
M  V30 14 1 20 2
M  V30 15 1 21 8
M  V30 16 1 21 19
M  V30 17 1 22 9
M  V30 18 1 23 15
M  V30 19 1 23 16
M  V30 20 1 23 22
M  V30 21 1 24 12
M  V30 22 1 24 13
M  V30 23 2 24 20
M  V30 24 1 25 8
M  V30 25 1 26 6
M  V30 26 1 26 12
M  V30 27 1 27 11
M  V30 28 1 27 15
M  V30 29 1 28 13
M  V30 30 1 29 7
M  V30 31 1 30 7
M  V30 32 1 31 7
M  V30 33 1 32 9
M  V30 34 1 33 9
M  V30 35 1 34 9
M  V30 36 1 35 10
M  V30 37 1 36 11
M  V30 38 1 37 11
M  V30 39 1 38 12
M  V30 40 1 39 12
M  V30 41 1 40 14
M  V30 42 1 15 41 CFG=1
M  V30 43 1 42 16
M  V30 44 1 43 16
M  V30 45 1 44 16
M  V30 46 1 45 17
M  V30 47 1 19 46 CFG=1
M  V30 48 1 47 20
M  V30 49 1 48 22
M  V30 50 1 49 22
M  V30 51 1 23 50 CFG=3
M  V30 52 1 51 26
M  V30 53 1 52 26
M  V30 54 1 53 27
M  V30 55 1 54 27
M  V30 END BOND
M  V30 END CTAB
M  END
>  <i_epik_Tot_Q>  (1) 
0

>  <i_epik_Tot_abs_Q>  (1) 
0

>  <i_i_glide_confnum>  (1) 
1826

>  <i_i_glide_lignum>  (1) 
197

>  <i_i_glide_posenum>  (1) 
328

>  <i_i_glide_rotatable_bonds>  (1) 
12

>  <i_lp_mmshare_version>  (1) 
72125

>  <i_m_source_file_index>  (1) 
84

>  <i_f3d_flags>  (1) 
0

>  <num_sample>  (1) 
100

>  <b_lp_Chiralities_Consistent>  (1) 
1

>  <r_epik_Charging_Adjusted_Penalty>  (1) 
0.41067983895260396

>  <r_epik_Ionization_Penalty>  (1) 
0.00090540554532319911

>  <r_epik_Ionization_Penalty_Charging>  (1) 
0

>  <r_epik_Ionization_Penalty_Neutral>  (1) 
0.00090540554532319911

>  <r_epik_State_Penalty>  (1) 
0.41067983895260396

>  <r_glide_ring_energy>  (1) 
0

>  <r_i_docking_score>  (1) 
-5.1283914382015618

>  <r_i_glide_ecoul>  (1) 
-1.1260236596559898

>  <r_i_glide_eff_state_penalty>  (1) 
0.41067983895260396

>  <r_i_glide_einternal>  (1) 
11.601849817958508

>  <r_i_glide_emodel>  (1) 
-49.234443196986334

>  <r_i_glide_emodel_strain>  (1) 
1.0136498206681921

>  <r_i_glide_energy>  (1) 
-42.444233403746964

>  <r_i_glide_erotb>  (1) 
1.1080255732668134

>  <r_i_glide_esite>  (1) 
-0.064248593516147146

>  <r_i_glide_evdw>  (1) 
-41.318209744090971

>  <r_i_glide_gscore>  (1) 
-5.5390712771541661

>  <r_i_glide_gscore_strain>  (1) 
0

>  <r_i_glide_hbond>  (1) 
-0.32000000000000001

>  <r_i_glide_ligand_efficiency>  (1) 
-0.18994042363709487

>  <r_i_glide_ligand_efficiency_ln>  (1) 
-1.1938049786726685

>  <r_i_glide_ligand_efficiency_sa>  (1) 
-0.56982127091128476

>  <r_i_glide_lipo>  (1) 
-2.448283979929827

>  <r_i_glide_metal>  (1) 
-0

>  <r_i_glide_rewards>  (1) 
-1.5797502408220589

>  <r_lp_Energy>  (1) 
14.495433999999999

>  <r_lp_tautomer_probability>  (1) 
0.5

>  <s_epik_Chemistry_Notes>  (1) 
This compound contains an acetal/aminal-like group ( X-CH(R)-Y where X, Y are N, S, or O) that may be acid/base labile, releasing an aldehyde.

>  <s_epik_cmdline>  (1) 
J2VwaWtfcHl0aG9uJywgJy1waHQnLCAnMS4wJywgJy1waCcsICc3LjQnLCAnLXRuJywgJzgnLCAnLW1hJywgJzUwMCcsICctaW1hZScsICc8aW5maWxlLm1hZT4nLCAnLW9tYWUnLCAnPG91dGZpbGUubWFlPic=

>  <s_epik_input>  (1) 
W09IXU9DKD1PKS9bQ0hdPUMoXFtDSDNdKVtDSDJdW0NIMl1jKFtjSF0xKW5bbkhdYzFbQ0gyXVtDSDJdW0NASF0oW0NAQEhdKFtDSDNdKVtDSDJdW0NIM10pW0NAQEhdKE8yKU9bQ0hdPUMyQ2w=

>  <s_glide_docking_method>  (1) 
confgen

>  <s_i_glide_gridfile>  (1) 
gpcr_5ht2c_6bqh_protein_autoprepared_prepared

>  <s_lp_Force_Field>  (1) 
S-OPLS

>  <s_lp_Variant>  (1) 
DiffSBDD_83-8

>  <s_m_source_file>  (1) 
generated_GPCR_5HT2C_ligand_DiffSBDD_2026-06-23_prepared.sdf

>  <GenAI_Model>  (1) 
DiffSBDD

>  <Protein>  (1) 
GPCR_5HT2C

$$$$
DiffSBDD_54
     RDKit          3D

  0  0  0  0  0  0  0  0  0  0999 V3000
M  V30 BEGIN CTAB
M  V30 COUNTS 42 43 0 0 1
M  V30 BEGIN ATOM
M  V30 1 C 38.601012 29.714009 57.628345 0
M  V30 2 C 37.110812 34.396264 59.649944 0
M  V30 3 C 35.643640 32.377963 59.485614 0
M  V30 4 C 39.764629 30.757971 53.247590 0
M  V30 5 C 39.375007 31.934141 55.552396 0
M  V30 6 S 38.339244 32.148972 58.717325 0 CHG=1
M  V30 7 C 38.984422 30.156601 60.065199 0
M  V30 8 N 37.711228 34.398449 60.825797 0
M  V30 9 C 37.153291 30.702138 55.070855 0
M  V30 10 C 37.694094 35.764996 61.065020 0
M  V30 11 N 37.139593 36.523180 60.096521 0
M  V30 12 N 36.773478 35.585242 59.210918 0
M  V30 13 N 37.894744 31.012550 57.465431 0 CFG=1 CHG=1
M  V30 14 C 37.959620 31.556434 56.070534 0 CFG=1
M  V30 15 C 38.445481 29.152941 59.044338 0
M  V30 16 C 40.173591 30.890704 54.727627 0
M  V30 17 O 38.216189 31.344737 59.976745 0
M  V30 18 C 36.814431 33.157349 58.851533 0 CFG=2
M  V30 19 H 39.662004 29.847254 57.418297 0
M  V30 20 H 38.223640 28.980561 56.917758 0
M  V30 21 H 34.720627 32.954837 59.434196 0
M  V30 22 H 35.832504 32.158159 60.536681 0
M  V30 23 H 35.466701 31.427405 58.983048 0
M  V30 24 H 40.509941 30.203643 52.681946 0
M  V30 25 H 39.649924 31.731174 52.769502 0
M  V30 26 H 38.839468 30.206085 53.109881 0
M  V30 27 H 39.997667 32.275769 56.377611 0
M  V30 28 H 39.247312 32.820082 54.930202 0
M  V30 29 H 38.877794 29.749561 61.071297 0
M  V30 30 H 40.045175 30.358051 59.920995 0
M  V30 31 H 37.100269 31.228095 54.123138 0
M  V30 32 H 36.120412 30.537755 55.367417 0
M  V30 33 H 37.591551 29.720518 54.897906 0
M  V30 34 H 38.098933 36.204570 61.965161 0
M  V30 35 H 36.312224 35.806539 58.332195 0
M  V30 36 H 37.426996 32.504818 56.111070 0
M  V30 37 H 37.397159 28.939046 59.253929 0
M  V30 38 H 38.984522 28.208384 59.132697 0
M  V30 39 H 41.217177 31.207436 54.726894 0
M  V30 40 H 40.170246 29.910465 55.203175 0
M  V30 41 H 36.536043 33.488414 57.853574 0
M  V30 42 H 36.901198 30.828453 57.561916 0
M  V30 END ATOM
M  V30 BEGIN BOND
M  V30 1 2 8 2
M  V30 2 1 10 8
M  V30 3 2 11 10
M  V30 4 1 12 2
M  V30 5 1 12 11
M  V30 6 1 13 1
M  V30 7 1 13 6
M  V30 8 1 14 5
M  V30 9 1 14 9
M  V30 10 1 14 13
M  V30 11 1 15 1
M  V30 12 1 15 7
M  V30 13 1 16 4
M  V30 14 1 16 5
M  V30 15 1 6 17 CFG=1
M  V30 16 1 17 7
M  V30 17 1 18 2
M  V30 18 1 18 3
M  V30 19 1 18 6
M  V30 20 1 19 1
M  V30 21 1 20 1
M  V30 22 1 21 3
M  V30 23 1 22 3
M  V30 24 1 23 3
M  V30 25 1 24 4
M  V30 26 1 25 4
M  V30 27 1 26 4
M  V30 28 1 27 5
M  V30 29 1 28 5
M  V30 30 1 29 7
M  V30 31 1 30 7
M  V30 32 1 31 9
M  V30 33 1 32 9
M  V30 34 1 33 9
M  V30 35 1 34 10
M  V30 36 1 35 12
M  V30 37 1 14 36 CFG=1
M  V30 38 1 37 15
M  V30 39 1 38 15
M  V30 40 1 39 16
M  V30 41 1 40 16
M  V30 42 1 18 41 CFG=3
M  V30 43 1 13 42 CFG=1
M  V30 END BOND
M  V30 END CTAB
M  END
>  <i_epik_Tot_Q>  (1) 
2

>  <i_epik_Tot_abs_Q>  (1) 
2

>  <i_i_glide_confnum>  (1) 
21

>  <i_i_glide_lignum>  (1) 
117

>  <i_i_glide_posenum>  (1) 
148

>  <i_i_glide_rotatable_bonds>  (1) 
5

>  <i_lp_mmshare_version>  (1) 
72125

>  <i_m_source_file_index>  (1) 
55

>  <i_f3d_flags>  (1) 
0

>  <num_sample>  (1) 
100

>  <b_lp_Chiralities_Consistent>  (1) 
1

>  <r_epik_Charging_Adjusted_Penalty>  (1) 
0.22285261290592212

>  <r_epik_Ionization_Penalty>  (1) 
0.11376846567106323

>  <r_epik_Ionization_Penalty_Charging>  (1) 
0.11142630645296109

>  <r_epik_Ionization_Penalty_Neutral>  (1) 
0.0023421592181021404

>  <r_epik_State_Penalty>  (1) 
0.11142630645296105

>  <r_glide_ring_energy>  (1) 
0

>  <r_i_docking_score>  (1) 
-5.1186657966411806

>  <r_i_glide_ecoul>  (1) 
-9.0424619352282836

>  <r_i_glide_eff_state_penalty>  (1) 
0.11142630645296105

>  <r_i_glide_einternal>  (1) 
4.191423328822224

>  <r_i_glide_emodel>  (1) 
-46.313120088301247

>  <r_i_glide_emodel_strain>  (1) 
0.12776631421573725

>  <r_i_glide_energy>  (1) 
-31.744398983515062

>  <r_i_glide_erotb>  (1) 
0.96597774364564237

>  <r_i_glide_esite>  (1) 
-0.16198152986909609

>  <r_i_glide_evdw>  (1) 
-22.701937048286776

>  <r_i_glide_gscore>  (1) 
-5.2300921030941421

>  <r_i_glide_gscore_strain>  (1) 
0

>  <r_i_glide_hbond>  (1) 
-0.44455013487550177

>  <r_i_glide_ligand_efficiency>  (1) 
-0.28437032203562113

>  <r_i_glide_ligand_efficiency_ln>  (1) 
-1.3157266490668884

>  <r_i_glide_ligand_efficiency_sa>  (1) 
-0.74526107424326671

>  <r_i_glide_lipo>  (1) 
-0.86505544550395752

>  <r_i_glide_metal>  (1) 
-0

>  <r_i_glide_rewards>  (1) 
-2.2330165937926476

>  <r_lp_Energy>  (1) 
23.329950999999998

>  <r_lp_tautomer_probability>  (1) 
0.94828448534560383

>  <s_epik_cmdline>  (1) 
J2VwaWtfcHl0aG9uJywgJy1waHQnLCAnMS4wJywgJy1waCcsICc3LjQnLCAnLXRuJywgJzgnLCAnLW1hJywgJzUwMCcsICctaW1hZScsICc8aW5maWxlLm1hZT4nLCAnLW9tYWUnLCAnPG91dGZpbGUubWFlPic=

>  <s_epik_input>  (1) 
W0NIM11bQ0gyXVtDSDJdW0NASF0oW0NIM10pTihbQ0gyXVtDSDJdW0NIMl1PMSlbUytdMVtDQEBIXShbQ0gzXSljMm5bY0hdbltuSF0y

>  <s_glide_docking_method>  (1) 
confgen

>  <s_i_glide_gridfile>  (1) 
gpcr_5ht2c_6bqh_protein_autoprepared_prepared

>  <s_lp_Force_Field>  (1) 
S-OPLS

>  <s_lp_Variant>  (1) 
DiffSBDD_54-3

>  <s_m_source_file>  (1) 
generated_GPCR_5HT2C_ligand_DiffSBDD_2026-06-23_prepared.sdf

>  <GenAI_Model>  (1) 
DiffSBDD

>  <Protein>  (1) 
GPCR_5HT2C

$$$$
DiffSBDD_83
     RDKit          3D

  0  0  0  0  0  0  0  0  0  0999 V3000
M  V30 BEGIN CTAB
M  V30 COUNTS 54 55 0 0 1
M  V30 BEGIN ATOM
M  V30 1 C 40.814598 31.624037 62.612942 0
M  V30 2 C 38.398982 30.690011 57.482089 0
M  V30 3 N 37.673518 30.083033 58.468079 0
M  V30 4 O 40.445141 26.137368 56.367660 0
M  V30 5 O 41.007429 30.357943 63.022902 0
M  V30 6 C 38.961091 33.045282 61.730353 0
M  V30 7 C 39.843247 34.285732 61.617377 0
M  V30 8 C 38.616055 25.075371 57.040074 0
M  V30 9 C 39.496174 28.521786 51.763598 0
M  V30 10 C 39.407553 31.842086 62.182568 0
M  V30 11 C 38.966427 29.933452 56.319042 0
M  V30 12 C 37.321970 33.354858 59.779197 0
M  V30 13 N 37.227608 30.924129 59.412484 0
M  V30 14 O 42.367610 30.085786 63.470173 0
M  V30 15 C 39.095862 27.665492 55.014508 0 CFG=1
M  V30 16 C 37.245199 28.937827 53.662210 0
M  V30 17 C 39.833300 25.407412 57.298850 0
M  V30 18 O 41.699112 32.482805 62.601561 0
M  V30 19 C 39.384067 26.186535 55.385190 0 CFG=2
M  V30 20 C 38.445140 32.016052 57.791890 0
M  V30 21 O 38.176022 25.527550 55.863601 0
M  V30 22 C 38.788300 27.343787 52.451775 0
M  V30 23 C 38.099067 27.669305 53.806190 0 CFG=1
M  V30 24 C 37.677456 32.115278 59.001300 0
M  V30 25 Cl 37.645109 24.137799 58.106876 0
M  V30 26 C 37.516363 33.237877 61.300954 0
M  V30 27 C 38.650319 28.422948 56.298860 0
M  V30 28 H 37.461062 29.096992 58.500845 0
M  V30 29 H 39.287989 35.122668 61.193120 0
M  V30 30 H 40.196862 34.601980 62.599577 0
M  V30 31 H 40.698838 34.109849 60.967822 0
M  V30 32 H 40.171734 28.168687 50.983964 0
M  V30 33 H 38.777198 29.187500 51.285746 0
M  V30 34 H 40.068951 29.117244 52.471359 0
M  V30 35 H 38.730135 31.001664 62.238630 0
M  V30 36 H 38.613246 30.412649 55.409370 0
M  V30 37 H 40.045141 30.068336 56.308431 0
M  V30 38 H 36.278288 33.600512 59.579615 0
M  V30 39 H 37.894587 34.200770 59.399168 0
M  V30 40 H 42.313105 30.348182 64.376915 0
M  V30 41 H 40.044972 28.093559 54.708242 0
M  V30 42 H 37.840922 29.809085 53.395557 0
M  V30 43 H 36.501472 28.788149 52.880884 0
M  V30 44 H 36.709803 29.182137 54.576033 0
M  V30 45 H 40.430463 25.178180 58.167837 0
M  V30 46 H 39.743360 25.615939 54.529419 0
M  V30 47 H 38.924095 32.804255 57.230356 0
M  V30 48 H 39.508613 26.537736 52.573966 0
M  V30 49 H 38.045086 26.951415 51.757055 0
M  V30 50 H 37.374869 26.873289 53.984258 0
M  V30 51 H 36.904262 32.422374 61.687499 0
M  V30 52 H 37.133521 34.144225 61.767761 0
M  V30 53 H 39.145542 28.012580 57.176914 0
M  V30 54 H 37.594501 28.243284 56.466560 0
M  V30 END ATOM
M  V30 BEGIN BOND
M  V30 1 1 3 2
M  V30 2 1 5 1
M  V30 3 1 7 6
M  V30 4 1 10 1
M  V30 5 2 10 6
M  V30 6 1 11 2
M  V30 7 1 13 3
M  V30 8 1 14 5
M  V30 9 1 17 4
M  V30 10 2 17 8
M  V30 11 2 18 1
M  V30 12 1 19 4
M  V30 13 1 19 15
M  V30 14 2 20 2
M  V30 15 1 21 8
M  V30 16 1 21 19
M  V30 17 1 22 9
M  V30 18 1 23 15
M  V30 19 1 23 16
M  V30 20 1 23 22
M  V30 21 1 24 12
M  V30 22 2 24 13
M  V30 23 1 24 20
M  V30 24 1 25 8
M  V30 25 1 26 6
M  V30 26 1 26 12
M  V30 27 1 27 11
M  V30 28 1 27 15
M  V30 29 1 28 3
M  V30 30 1 29 7
M  V30 31 1 30 7
M  V30 32 1 31 7
M  V30 33 1 32 9
M  V30 34 1 33 9
M  V30 35 1 34 9
M  V30 36 1 35 10
M  V30 37 1 36 11
M  V30 38 1 37 11
M  V30 39 1 38 12
M  V30 40 1 39 12
M  V30 41 1 40 14
M  V30 42 1 15 41 CFG=3
M  V30 43 1 42 16
M  V30 44 1 43 16
M  V30 45 1 44 16
M  V30 46 1 45 17
M  V30 47 1 19 46 CFG=3
M  V30 48 1 47 20
M  V30 49 1 48 22
M  V30 50 1 49 22
M  V30 51 1 23 50 CFG=1
M  V30 52 1 51 26
M  V30 53 1 52 26
M  V30 54 1 53 27
M  V30 55 1 54 27
M  V30 END BOND
M  V30 END CTAB
M  END
>  <i_epik_Tot_Q>  (1) 
0

>  <i_epik_Tot_abs_Q>  (1) 
0

>  <i_i_glide_confnum>  (1) 
1591

>  <i_i_glide_lignum>  (1) 
193

>  <i_i_glide_posenum>  (1) 
378

>  <i_i_glide_rotatable_bonds>  (1) 
12

>  <i_lp_mmshare_version>  (1) 
72125

>  <i_m_source_file_index>  (1) 
84

>  <i_f3d_flags>  (1) 
0

>  <num_sample>  (1) 
100

>  <b_lp_Chiralities_Consistent>  (1) 
1

>  <r_epik_Charging_Adjusted_Penalty>  (1) 
0.41067983895260396

>  <r_epik_Ionization_Penalty>  (1) 
0.00076996626271645392

>  <r_epik_Ionization_Penalty_Charging>  (1) 
0

>  <r_epik_Ionization_Penalty_Neutral>  (1) 
0.00076996626271645392

>  <r_epik_State_Penalty>  (1) 
0.41067983895260396

>  <r_glide_ring_energy>  (1) 
0

>  <r_i_docking_score>  (1) 
-5.1183841475825371

>  <r_i_glide_ecoul>  (1) 
0.62017150217171602

>  <r_i_glide_eff_state_penalty>  (1) 
0.41067983895260396

>  <r_i_glide_einternal>  (1) 
5.2721072688280852

>  <r_i_glide_emodel>  (1) 
-49.348094421394727

>  <r_i_glide_emodel_strain>  (1) 
0.70616538809661478

>  <r_i_glide_energy>  (1) 
-38.072280310932264

>  <r_i_glide_erotb>  (1) 
1.1080255732668134

>  <r_i_glide_esite>  (1) 
-0.07333340794015776

>  <r_i_glide_evdw>  (1) 
-38.692451813103979

>  <r_i_glide_gscore>  (1) 
-5.5290639865351414

>  <r_i_glide_gscore_strain>  (1) 
0

>  <r_i_glide_hbond>  (1) 
0

>  <r_i_glide_ligand_efficiency>  (1) 
-0.18956978324379767

>  <r_i_glide_ligand_efficiency_ln>  (1) 
-1.1914754463996398

>  <r_i_glide_ligand_efficiency_sa>  (1) 
-0.56870934973139309

>  <r_i_glide_lipo>  (1) 
-3.1470435792871356

>  <r_i_glide_metal>  (1) 
-0

>  <r_i_glide_rewards>  (1) 
-1.5751157072452204

>  <r_lp_Energy>  (1) 
16.144891999999999

>  <r_lp_tautomer_probability>  (1) 
0.5

>  <s_epik_Chemistry_Notes>  (1) 
This compound contains an acetal/aminal-like group ( X-CH(R)-Y where X, Y are N, S, or O) that may be acid/base labile, releasing an aldehyde.

>  <s_epik_cmdline>  (1) 
J2VwaWtfcHl0aG9uJywgJy1waHQnLCAnMS4wJywgJy1waCcsICc3LjQnLCAnLXRuJywgJzgnLCAnLW1hJywgJzUwMCcsICctaW1hZScsICc8aW5maWxlLm1hZT4nLCAnLW9tYWUnLCAnPG91dGZpbGUubWFlPic=

>  <s_epik_input>  (1) 
W09IXU9DKD1PKS9bQ0hdPUMoXFtDSDNdKVtDSDJdW0NIMl1jKFtjSF0xKW5bbkhdYzFbQ0gyXVtDSDJdW0NASF0oW0NAQEhdKFtDSDNdKVtDSDJdW0NIM10pW0NAQEhdKE8yKU9bQ0hdPUMyQ2w=

>  <s_glide_docking_method>  (1) 
confgen

>  <s_i_glide_gridfile>  (1) 
gpcr_5ht2c_6bqh_protein_autoprepared_prepared

>  <s_lp_Force_Field>  (1) 
S-OPLS

>  <s_lp_Variant>  (1) 
DiffSBDD_83-4

>  <s_m_source_file>  (1) 
generated_GPCR_5HT2C_ligand_DiffSBDD_2026-06-23_prepared.sdf

>  <GenAI_Model>  (1) 
DiffSBDD

>  <Protein>  (1) 
GPCR_5HT2C

$$$$
DiffSBDD_8
     RDKit          3D

  0  0  0  0  0  0  0  0  0  0999 V3000
M  V30 BEGIN CTAB
M  V30 COUNTS 46 50 0 0 1
M  V30 BEGIN ATOM
M  V30 1 C 39.224565 30.308792 55.211772 0
M  V30 2 O 36.434330 31.275146 61.367760 0
M  V30 3 C 39.615294 31.130484 54.239462 0
M  V30 4 C 38.616311 28.148001 59.202212 0
M  V30 5 N 38.541082 29.472618 58.576520 0
M  V30 6 C 37.608945 31.727241 59.248175 0
M  V30 7 C 38.245082 26.959118 58.270500 0
M  V30 8 C 39.314615 25.451787 55.319852 0
M  V30 9 N 38.830602 29.018630 55.042953 0
M  V30 10 C 35.070107 32.343704 59.616763 0
M  V30 11 C 38.310537 28.393342 56.311793 0 CFG=2
M  V30 12 N 40.445137 25.940961 55.642492 0
M  V30 13 C 35.696551 32.438916 60.980260 0 CFG=1
M  V30 14 C 36.285967 31.502584 59.961938 0 CFG=1
M  V30 15 C 39.161680 30.641530 56.539647 0
M  V30 16 N 40.226166 26.801932 56.664282 0
M  V30 17 C 38.697958 29.604375 57.201076 0
M  V30 18 C 38.107936 25.946772 55.978703 0
M  V30 19 C 36.328315 33.741545 61.426666 0
M  V30 20 C 38.645861 30.605026 59.494780 0
M  V30 21 C 41.346156 27.690597 56.967760 0
M  V30 22 C 38.778131 27.042495 56.824965 0 CFG=1
M  V30 23 H 39.644014 30.805836 53.209998 0
M  V30 24 H 39.910193 32.137679 54.460263 0
M  V30 25 H 38.044977 28.126649 60.126063 0
M  V30 26 H 39.650909 28.013762 59.518720 0
M  V30 27 H 38.038661 32.662605 59.599512 0
M  V30 28 H 37.408930 31.874674 58.186502 0
M  V30 29 H 37.161132 26.923056 58.167708 0
M  V30 30 H 38.536289 26.016226 58.734666 0
M  V30 31 H 39.232289 24.671674 54.567759 0
M  V30 32 H 38.579512 28.640547 54.141410 0
M  V30 33 H 35.191182 33.198600 58.958547 0
M  V30 34 H 34.122582 31.820621 59.528011 0
M  V30 35 H 39.483012 31.578044 56.971336 0
M  V30 36 H 37.384397 26.324899 55.256983 0
M  V30 37 H 37.645696 25.154238 56.566398 0
M  V30 38 H 35.576351 34.385618 61.883444 0
M  V30 39 H 37.111727 33.543587 62.159622 0
M  V30 40 H 36.761955 34.277398 60.582122 0
M  V30 41 H 38.577081 30.260373 60.528053 0
M  V30 42 H 39.645108 31.005816 59.404621 0
M  V30 43 H 41.182287 28.211988 57.908996 0
M  V30 44 H 42.271508 27.117300 57.042859 0
M  V30 45 H 41.450936 28.427511 56.173883 0
M  V30 46 H 37.245140 28.416926 56.257486 0
M  V30 END ATOM
M  V30 BEGIN BOND
M  V30 1 2 3 1
M  V30 2 1 5 4
M  V30 3 1 7 4
M  V30 4 1 9 1
M  V30 5 1 11 9
M  V30 6 2 12 8
M  V30 7 1 13 2
M  V30 8 1 13 10
M  V30 9 1 14 2
M  V30 10 1 14 6 CFG=1
M  V30 11 1 14 10
M  V30 12 1 14 13
M  V30 13 1 15 1
M  V30 14 1 16 12
M  V30 15 1 17 5
M  V30 16 1 17 11
M  V30 17 2 17 15
M  V30 18 1 18 8
M  V30 19 1 13 19 CFG=3
M  V30 20 1 20 5
M  V30 21 1 20 6
M  V30 22 1 21 16
M  V30 23 1 22 7
M  V30 24 1 22 11
M  V30 25 1 22 16 CFG=1
M  V30 26 1 22 18
M  V30 27 1 23 3
M  V30 28 1 24 3
M  V30 29 1 25 4
M  V30 30 1 26 4
M  V30 31 1 27 6
M  V30 32 1 28 6
M  V30 33 1 29 7
M  V30 34 1 30 7
M  V30 35 1 31 8
M  V30 36 1 32 9
M  V30 37 1 33 10
M  V30 38 1 34 10
M  V30 39 1 35 15
M  V30 40 1 36 18
M  V30 41 1 37 18
M  V30 42 1 38 19
M  V30 43 1 39 19
M  V30 44 1 40 19
M  V30 45 1 41 20
M  V30 46 1 42 20
M  V30 47 1 43 21
M  V30 48 1 44 21
M  V30 49 1 45 21
M  V30 50 1 11 46 CFG=3
M  V30 END BOND
M  V30 END CTAB
M  END
>  <i_epik_Tot_Q>  (1) 
0

>  <i_epik_Tot_abs_Q>  (1) 
0

>  <i_i_glide_confnum>  (1) 
17

>  <i_i_glide_lignum>  (1) 
12

>  <i_i_glide_posenum>  (1) 
214

>  <i_i_glide_rotatable_bonds>  (1) 
3

>  <i_lp_mmshare_version>  (1) 
72125

>  <i_m_source_file_index>  (1) 
9

>  <i_f3d_flags>  (1) 
0

>  <num_sample>  (1) 
100

>  <b_lp_Chiralities_Consistent>  (1) 
1

>  <r_epik_Charging_Adjusted_Penalty>  (1) 
0.0013502642422006258

>  <r_epik_Ionization_Penalty>  (1) 
0.0017789760984620326

>  <r_epik_Ionization_Penalty_Charging>  (1) 
0.0013502642422006258

>  <r_epik_Ionization_Penalty_Neutral>  (1) 
0.00042871185626140696

>  <r_epik_State_Penalty>  (1) 
-0

>  <r_glide_ring_energy>  (1) 
0

>  <r_i_docking_score>  (1) 
-5.1179024522690364

>  <r_i_glide_ecoul>  (1) 
-1.8548928338023138

>  <r_i_glide_eff_state_penalty>  (1) 
-0

>  <r_i_glide_einternal>  (1) 
2.7695289675870445

>  <r_i_glide_emodel>  (1) 
-33.27193723395078

>  <r_i_glide_emodel_strain>  (1) 
1.0208627914000203

>  <r_i_glide_energy>  (1) 
-26.709839056852825

>  <r_i_glide_erotb>  (1) 
0.61104831889555555

>  <r_i_glide_esite>  (1) 
0

>  <r_i_glide_evdw>  (1) 
-24.854946223050511

>  <r_i_glide_gscore>  (1) 
-5.1179024522690364

>  <r_i_glide_gscore_strain>  (1) 
0

>  <r_i_glide_hbond>  (1) 
-0.32000000000000001

>  <r_i_glide_ligand_efficiency>  (1) 
-0.23263192964859256

>  <r_i_glide_ligand_efficiency_ln>  (1) 
-1.2510020393623087

>  <r_i_glide_ligand_efficiency_sa>  (1) 
-0.65184381644161349

>  <r_i_glide_lipo>  (1) 
-1.7102551861648119

>  <r_i_glide_metal>  (1) 
-0

>  <r_i_glide_rewards>  (1) 
-2.1777143487769068

>  <r_lp_Energy>  (1) 
31.245733999999999

>  <r_lp_tautomer_probability>  (1) 
1

>  <s_epik_Chemistry_Notes>  (1) 
This compound has an imine and may undergo hydrolysis.

>  <s_epik_cmdline>  (1) 
J2VwaWtfcHl0aG9uJywgJy1waHQnLCAnMS4wJywgJy1waCcsICc3LjQnLCAnLXRuJywgJzgnLCAnLW1hJywgJzUwMCcsICctaW1hZScsICc8aW5maWxlLm1hZT4nLCAnLW9tYWUnLCAnPG91dGZpbGUubWFlPic=

>  <s_epik_input>  (1) 
W0NIM11bQ0BAXTEyW0NAQF0oTzEpKFtDSDJdMilbQ0gyXVtDSDJdTihbQ0gyXVtDSDJdMyljKFtjSF1jKFtDSDNdKVtuSF00KWM0W0NAQF0zNU4oW0NIM10pTj1bQ0hdW0NIMl01

>  <s_glide_docking_method>  (1) 
confgen

>  <s_i_glide_gridfile>  (1) 
gpcr_5ht2c_6bqh_protein_autoprepared_prepared

>  <s_lp_Force_Field>  (1) 
S-OPLS

>  <s_lp_Variant>  (1) 
DiffSBDD_8-2

>  <s_m_source_file>  (1) 
generated_GPCR_5HT2C_ligand_DiffSBDD_2026-06-23_prepared.sdf

>  <GenAI_Model>  (1) 
DiffSBDD

>  <Protein>  (1) 
GPCR_5HT2C

$$$$
DiffSBDD_86
     RDKit          3D

  0  0  0  0  0  0  0  0  0  0999 V3000
M  V30 BEGIN CTAB
M  V30 COUNTS 77 79 0 0 1
M  V30 BEGIN ATOM
M  V30 1 C 42.535178 30.031892 64.246775 0
M  V30 2 C 40.195078 29.518965 50.617376 0
M  V30 3 C 38.979948 30.459038 60.706797 0 CFG=2
M  V30 4 C 41.211861 30.470283 49.982271 0
M  V30 5 N 39.045157 31.879496 61.138137 0
M  V30 6 C 37.544890 24.992727 55.525456 0
M  V30 7 N 42.469986 31.159764 63.422186 0
M  V30 8 C 37.761842 29.099670 57.139184 0
M  V30 9 O 38.845103 32.004000 57.937607 0
M  V30 10 O 41.156965 27.678661 56.567800 0
M  V30 11 C 38.961606 26.827401 56.728622 0 CFG=2
M  V30 12 C 38.544907 29.188006 58.459223 0
M  V30 13 C 37.925214 32.545432 61.511600 0
M  V30 14 N 38.025348 27.904189 56.276489 0 CFG=2 CHG=1
M  V30 15 C 40.303305 26.938709 56.029431 0
M  V30 16 C 43.672595 29.236648 64.569712 0
M  V30 17 C 42.298736 27.774434 65.972627 0
M  V30 18 O 36.838338 31.924165 61.587038 0
M  V30 19 C 40.359186 32.561209 61.114357 0
M  V30 20 C 41.165902 28.545189 65.672124 0
M  V30 21 C 40.316233 29.670037 60.681612 0
M  V30 22 S 40.045138 30.786784 64.288217 0
M  V30 23 O 40.445103 26.297984 54.963959 0 CHG=-1
M  V30 24 C 37.878385 28.152664 54.802157 0
M  V30 25 C 38.092692 30.303935 59.413225 0 CFG=2
M  V30 26 C 39.245543 24.342270 57.367758 0
M  V30 27 O 37.744890 31.522386 58.749924 0
M  V30 28 N 39.933002 29.862049 52.028967 0 CHG=1
M  V30 29 C 40.908896 32.878622 62.527433 0
M  V30 30 C 41.283800 29.656355 64.823103 0
M  V30 31 O 44.897216 29.553816 64.053356 0 CHG=-1
M  V30 32 C 38.817902 29.209447 54.176467 0
M  V30 33 C 41.241416 31.674799 63.349615 0
M  V30 34 C 38.005418 24.789579 58.079566 0
M  V30 35 C 38.362741 25.404370 56.743291 0
M  V30 36 O 38.003092 33.765598 61.767761 0 CHG=-1
M  V30 37 C 43.548773 28.118619 65.423823 0
M  V30 38 C 38.992865 28.926640 52.675938 0
M  V30 39 H 40.558903 28.493126 50.567779 0
M  V30 40 H 39.259430 29.547576 50.056713 0
M  V30 41 H 38.445062 29.953593 61.511968 0
M  V30 42 H 41.489891 30.136038 48.983334 0
M  V30 43 H 40.789973 31.467626 49.882795 0
M  V30 44 H 42.129037 30.537555 50.568893 0
M  V30 45 H 37.192047 23.966711 55.637340 0
M  V30 46 H 36.664364 25.623429 55.414312 0
M  V30 47 H 38.144978 25.025844 54.617282 0
M  V30 48 H 36.697582 29.130330 57.368465 0
M  V30 49 H 37.949908 30.002414 56.564304 0
M  V30 50 H 38.502171 31.854801 57.070970 0
M  V30 51 H 39.239207 26.960836 57.764496 0
M  V30 52 H 39.600770 29.296703 58.212815 0
M  V30 53 H 38.415334 28.278523 59.043519 0
M  V30 54 H 42.213250 26.917887 66.625185 0
M  V30 55 H 41.123217 32.022580 60.567919 0
M  V30 56 H 40.243361 33.497972 60.567948 0
M  V30 57 H 40.205607 28.284647 66.091398 0
M  V30 58 H 40.135937 28.601426 60.567507 0
M  V30 59 H 40.980520 29.966048 59.871819 0
M  V30 60 H 40.856189 29.761075 61.618478 0
M  V30 61 H 38.004257 27.215041 54.269132 0
M  V30 62 H 36.852897 28.448228 54.572163 0
M  V30 63 H 37.116059 29.985203 59.781269 0
M  V30 64 H 39.246036 23.338514 56.967666 0
M  V30 65 H 40.200557 24.668481 57.768282 0
M  V30 66 H 39.574999 30.805672 52.083340 0
M  V30 67 H 41.816861 33.473882 62.425465 0
M  V30 68 H 40.211134 33.497543 63.091580 0
M  V30 69 H 38.413525 30.211439 54.324242 0
M  V30 70 H 39.792905 29.210353 54.660716 0
M  V30 71 H 38.139744 25.396825 58.967797 0
M  V30 72 H 37.182346 24.082275 58.118318 0
M  V30 73 H 44.420919 27.525264 65.658042 0
M  V30 74 H 39.377976 27.912343 52.544250 0
M  V30 75 H 38.028234 28.964559 52.166714 0
M  V30 76 H 40.807287 29.822476 52.533785 0
M  V30 77 H 37.174699 27.393757 56.459027 0
M  V30 END ATOM
M  V30 BEGIN BOND
M  V30 1 1 4 2
M  V30 2 1 5 3
M  V30 3 1 7 1
M  V30 4 1 12 8
M  V30 5 1 13 5
M  V30 6 1 14 8
M  V30 7 1 14 11
M  V30 8 2 15 10
M  V30 9 1 15 11
M  V30 10 2 16 1
M  V30 11 2 18 13
M  V30 12 1 19 5
M  V30 13 1 20 17
M  V30 14 1 21 3
M  V30 15 1 23 15
M  V30 16 1 24 14
M  V30 17 1 25 3
M  V30 18 1 25 12
M  V30 19 1 27 9
M  V30 20 1 27 25
M  V30 21 1 28 2
M  V30 22 1 29 19
M  V30 23 1 30 1
M  V30 24 2 30 20
M  V30 25 1 30 22
M  V30 26 1 31 16
M  V30 27 1 32 24
M  V30 28 2 33 7
M  V30 29 1 33 22
M  V30 30 1 33 29
M  V30 31 1 34 26
M  V30 32 1 35 6
M  V30 33 1 35 11
M  V30 34 1 35 26
M  V30 35 1 35 34
M  V30 36 1 36 13
M  V30 37 1 37 16
M  V30 38 2 37 17
M  V30 39 1 38 28
M  V30 40 1 38 32
M  V30 41 1 39 2
M  V30 42 1 40 2
M  V30 43 1 3 41 CFG=1
M  V30 44 1 42 4
M  V30 45 1 43 4
M  V30 46 1 44 4
M  V30 47 1 45 6
M  V30 48 1 46 6
M  V30 49 1 47 6
M  V30 50 1 48 8
M  V30 51 1 49 8
M  V30 52 1 50 9
M  V30 53 1 11 51 CFG=1
M  V30 54 1 52 12
M  V30 55 1 53 12
M  V30 56 1 54 17
M  V30 57 1 55 19
M  V30 58 1 56 19
M  V30 59 1 57 20
M  V30 60 1 58 21
M  V30 61 1 59 21
M  V30 62 1 60 21
M  V30 63 1 61 24
M  V30 64 1 62 24
M  V30 65 1 25 63 CFG=1
M  V30 66 1 64 26
M  V30 67 1 65 26
M  V30 68 1 66 28
M  V30 69 1 67 29
M  V30 70 1 68 29
M  V30 71 1 69 32
M  V30 72 1 70 32
M  V30 73 1 71 34
M  V30 74 1 72 34
M  V30 75 1 73 37
M  V30 76 1 74 38
M  V30 77 1 75 38
M  V30 78 1 76 28
M  V30 79 1 14 77 CFG=1
M  V30 END BOND
M  V30 END CTAB
M  END
>  <i_epik_Tot_Q>  (1) 
-1

>  <i_epik_Tot_abs_Q>  (1) 
5

>  <i_i_glide_confnum>  (1) 
8831

>  <i_i_glide_lignum>  (1) 
206

>  <i_i_glide_posenum>  (1) 
250

>  <i_i_glide_rotatable_bonds>  (1) 
19

>  <i_lp_mmshare_version>  (1) 
72125

>  <i_m_source_file_index>  (1) 
87

>  <i_f3d_flags>  (1) 
0

>  <num_sample>  (1) 
100

>  <b_lp_Chiralities_Consistent>  (1) 
1

>  <r_epik_Charging_Adjusted_Penalty>  (1) 
1.7068457012274814

>  <r_epik_Ionization_Penalty>  (1) 
0.85572285372979207

>  <r_epik_Ionization_Penalty_Charging>  (1) 
0.8536556191236474

>  <r_epik_Ionization_Penalty_Neutral>  (1) 
0.0020672346061446629

>  <r_epik_State_Penalty>  (1) 
0.85319008210383396

>  <r_glide_ring_energy>  (1) 
0

>  <r_i_docking_score>  (1) 
-5.1165879722250249

>  <r_i_glide_ecoul>  (1) 
-1.425732858956696

>  <r_i_glide_eff_state_penalty>  (1) 
0.85319008210383396

>  <r_i_glide_einternal>  (1) 
13.936087885800598

>  <r_i_glide_emodel>  (1) 
-53.134084047766322

>  <r_i_glide_emodel_strain>  (1) 
5.3751112302321147

>  <r_i_glide_energy>  (1) 
-44.187013930651005

>  <r_i_glide_erotb>  (1) 
0.88358493265308913

>  <r_i_glide_esite>  (1) 
-0.11997829763462553

>  <r_i_glide_evdw>  (1) 
-42.761281071694306

>  <r_i_glide_gscore>  (1) 
-5.9697780543288586

>  <r_i_glide_gscore_strain>  (1) 
0.34377780755802867

>  <r_i_glide_hbond>  (1) 
-0.16

>  <r_i_glide_ligand_efficiency>  (1) 
-0.13464705190065854

>  <r_i_glide_ligand_efficiency_ln>  (1) 
-1.1032868815804169

>  <r_i_glide_ligand_efficiency_sa>  (1) 
-0.45268007708799773

>  <r_i_glide_lipo>  (1) 
-3.7263878670555517

>  <r_i_glide_metal>  (1) 
-0

>  <r_i_glide_rewards>  (1) 
-0.83885064742157878

>  <r_lp_Energy>  (1) 
38.436468999999995

>  <s_epik_cmdline>  (1) 
J2VwaWtfcHl0aG9uJywgJy1waHQnLCAnMS4wJywgJy1waCcsICc3LjQnLCAnLXRuJywgJzgnLCAnLW1hJywgJzUwMCcsICctaW1hZScsICc8aW5maWxlLm1hZT4nLCAnLW9tYWUnLCAnPG91dGZpbGUubWFlPic=

>  <s_epik_input>  (1) 
W09IXWMxW2NIXVtjSF1bY0hdYyhjMTIpc2MobjIpW0NIMl1bQ0gyXU4oQyg9TylbT0hdKVtDQEhdKFtDSDNdKVtDQEBIXShPW09IXSlbQ0gyXVtDSDJdTihbQ0BIXShDKD1PKVtPSF0pQzMoW0NIM10pW0NIMl1bQ0gyXTMpW0NIMl1bQ0gyXVtDSDJdW05IXVtDSDJdW0NIM10=

>  <s_glide_docking_method>  (1) 
confgen

>  <s_i_glide_gridfile>  (1) 
gpcr_5ht2c_6bqh_protein_autoprepared_prepared

>  <s_lp_Force_Field>  (1) 
S-OPLS

>  <s_lp_Variant>  (1) 
DiffSBDD_86-3

>  <s_m_source_file>  (1) 
generated_GPCR_5HT2C_ligand_DiffSBDD_2026-06-23_prepared.sdf

>  <GenAI_Model>  (1) 
DiffSBDD

>  <Protein>  (1) 
GPCR_5HT2C

$$$$
DiffSBDD_85
     RDKit          3D

  0  0  0  0  0  0  0  0  0  0999 V3000
M  V30 BEGIN CTAB
M  V30 COUNTS 62 65 0 0 1
M  V30 BEGIN ATOM
M  V30 1 C 38.688376 27.149844 55.236989 0
M  V30 2 C 38.045190 32.614347 56.323944 0
M  V30 3 N 37.819375 33.107363 61.182934 0
M  V30 4 C 39.475168 27.518450 58.986516 0
M  V30 5 C 39.645153 28.893382 50.695830 0
M  V30 6 C 38.772245 33.093887 60.082994 0 CFG=2
M  V30 7 O 39.642076 26.462743 54.852846 0
M  V30 8 F 40.445109 31.009598 51.444497 0
M  V30 9 C 38.966622 27.693441 50.967742 0
M  V30 10 O 38.122486 28.163444 54.529493 0
M  V30 11 O 40.794598 36.537740 62.967739 0
M  V30 12 C 38.726416 34.242694 61.060561 0 CFG=1
M  V30 13 C 39.484376 26.184655 58.464342 0
M  V30 14 C 36.488161 32.912669 59.315273 0
M  V30 15 C 38.054237 36.600995 61.324057 0
M  V30 16 C 37.931323 33.061097 58.834689 0 CFG=2
M  V30 17 C 39.626258 37.297332 63.211509 0
M  V30 18 N 38.246561 35.503550 60.567777 0
M  V30 19 O 36.512048 33.457070 60.624921 0
M  V30 20 C 38.425989 32.098773 57.721818 0 CFG=1
M  V30 21 O 39.160177 33.261817 55.767756 0
M  V30 22 C 38.017996 26.920725 56.598909 0 CFG=1
M  V30 23 C 38.635403 29.912907 58.869243 0
M  V30 24 C 38.359055 36.502925 62.834253 0 CFG=1
M  V30 25 N 37.968644 30.719820 57.864088 0
M  V30 26 Cl 40.427809 27.905176 60.375478 0
M  V30 27 C 38.445165 27.455681 52.249952 0
M  V30 28 C 38.722362 28.470923 58.402337 0
M  V30 29 C 38.607064 28.412801 53.269547 0
M  V30 30 C 38.803813 25.883510 57.368876 0
M  V30 31 C 37.124411 36.979178 63.623972 0
M  V30 32 C 39.797400 29.857274 51.707241 0
M  V30 33 O 37.943733 28.198587 57.279149 0
M  V30 34 O 37.645212 37.659488 60.848202 0
M  V30 35 C 39.275410 29.620430 52.995086 0
M  V30 36 H 37.723112 31.819801 55.649168 0
M  V30 37 H 37.245144 33.343092 56.380614 0
M  V30 38 H 40.045225 29.076833 49.709534 0
M  V30 39 H 39.600219 32.392299 60.152889 0
M  V30 40 H 38.845282 26.952726 50.190003 0
M  V30 41 H 41.506009 36.965776 63.431026 0
M  V30 42 H 39.593465 34.269775 61.718043 0
M  V30 43 H 40.045148 25.417901 58.967701 0
M  V30 44 H 36.177965 31.869021 59.375324 0
M  V30 45 H 35.778392 33.439326 58.677770 0
M  V30 46 H 38.019605 34.063044 58.415876 0
M  V30 47 H 39.616474 37.554600 64.271596 0
M  V30 48 H 39.694745 38.233400 62.657265 0
M  V30 49 H 38.036481 35.561631 59.583003 0
M  V30 50 H 39.512088 32.093412 57.745857 0
M  V30 51 H 39.855809 32.628128 55.682401 0
M  V30 52 H 37.009663 26.537721 56.441488 0
M  V30 53 H 39.645141 30.271615 59.044215 0
M  V30 54 H 38.106957 29.968127 59.822005 0
M  V30 55 H 38.530546 35.484951 63.152944 0
M  V30 56 H 38.005815 30.244144 56.967499 0
M  V30 57 H 37.925568 26.537759 52.457318 0
M  V30 58 H 38.811418 24.874954 56.980612 0
M  V30 59 H 36.259411 36.348392 63.414356 0
M  V30 60 H 37.299720 36.937783 64.698792 0
M  V30 61 H 36.845095 38.001825 63.367616 0
M  V30 62 H 39.398228 30.360635 53.771981 0
M  V30 END ATOM
M  V30 BEGIN BOND
M  V30 1 1 6 3
M  V30 2 2 7 1
M  V30 3 2 9 5
M  V30 4 1 10 1
M  V30 5 1 12 3
M  V30 6 1 12 6
M  V30 7 1 13 4
M  V30 8 1 16 6
M  V30 9 1 16 14
M  V30 10 1 17 11
M  V30 11 1 18 12
M  V30 12 1 18 15
M  V30 13 1 19 3
M  V30 14 1 19 14
M  V30 15 1 20 2
M  V30 16 1 20 16
M  V30 17 1 21 2
M  V30 18 1 22 1
M  V30 19 1 24 15
M  V30 20 1 24 17
M  V30 21 1 25 20
M  V30 22 1 25 23
M  V30 23 1 26 4
M  V30 24 1 27 9
M  V30 25 2 28 4
M  V30 26 1 28 23
M  V30 27 1 29 10
M  V30 28 2 29 27
M  V30 29 2 30 13
M  V30 30 1 30 22
M  V30 31 1 31 24
M  V30 32 1 32 5
M  V30 33 1 32 8
M  V30 34 1 33 22
M  V30 35 1 33 28
M  V30 36 2 34 15
M  V30 37 1 35 29
M  V30 38 2 35 32
M  V30 39 1 36 2
M  V30 40 1 37 2
M  V30 41 1 38 5
M  V30 42 1 6 39 CFG=1
M  V30 43 1 40 9
M  V30 44 1 41 11
M  V30 45 1 12 42 CFG=1
M  V30 46 1 43 13
M  V30 47 1 44 14
M  V30 48 1 45 14
M  V30 49 1 16 46 CFG=3
M  V30 50 1 47 17
M  V30 51 1 48 17
M  V30 52 1 49 18
M  V30 53 1 20 50 CFG=3
M  V30 54 1 51 21
M  V30 55 1 22 52 CFG=3
M  V30 56 1 53 23
M  V30 57 1 54 23
M  V30 58 1 24 55 CFG=1
M  V30 59 1 56 25
M  V30 60 1 57 27
M  V30 61 1 58 30
M  V30 62 1 59 31
M  V30 63 1 60 31
M  V30 64 1 61 31
M  V30 65 1 62 35
M  V30 END BOND
M  V30 END CTAB
M  END
>  <i_epik_Tot_Q>  (1) 
0

>  <i_epik_Tot_abs_Q>  (1) 
0

>  <i_i_glide_confnum>  (1) 
2746

>  <i_i_glide_lignum>  (1) 
202

>  <i_i_glide_posenum>  (1) 
198

>  <i_i_glide_rotatable_bonds>  (1) 
14

>  <i_lp_mmshare_version>  (1) 
72125

>  <i_m_source_file_index>  (1) 
86

>  <i_f3d_flags>  (1) 
0

>  <num_sample>  (1) 
100

>  <b_lp_Chiralities_Consistent>  (1) 
1

>  <r_epik_Charging_Adjusted_Penalty>  (1) 
0

>  <r_epik_Ionization_Penalty>  (1) 
0.002846787164494627

>  <r_epik_Ionization_Penalty_Charging>  (1) 
0

>  <r_epik_Ionization_Penalty_Neutral>  (1) 
0.002846787164494627

>  <r_epik_State_Penalty>  (1) 
-0

>  <r_glide_ring_energy>  (1) 
0

>  <r_i_docking_score>  (1) 
-5.1116705247428369

>  <r_i_glide_ecoul>  (1) 
-2.9881037360732172

>  <r_i_glide_eff_state_penalty>  (1) 
-0

>  <r_i_glide_einternal>  (1) 
13.94906739557954

>  <r_i_glide_emodel>  (1) 
-61.381862875969425

>  <r_i_glide_emodel_strain>  (1) 
2.7520568376081584

>  <r_i_glide_energy>  (1) 
-53.953322359207931

>  <r_i_glide_erotb>  (1) 
0.93847147272533338

>  <r_i_glide_esite>  (1) 
0

>  <r_i_glide_evdw>  (1) 
-50.965218623134717

>  <r_i_glide_gscore>  (1) 
-5.1116705247428369

>  <r_i_glide_gscore_strain>  (1) 
0

>  <r_i_glide_hbond>  (1) 
-0.289377623438141

>  <r_i_glide_ligand_efficiency>  (1) 
-0.14604772927836676

>  <r_i_glide_ligand_efficiency_ln>  (1) 
-1.1221251275959645

>  <r_i_glide_ligand_efficiency_sa>  (1) 
-0.47773180692200934

>  <r_i_glide_lipo>  (1) 
-3.9219959318079392

>  <r_i_glide_metal>  (1) 
-0

>  <r_i_glide_rewards>  (1) 
1.1577080493456282

>  <r_lp_Energy>  (1) 
32.790191999999998

>  <r_lp_tautomer_probability>  (1) 
1

>  <s_epik_Chemistry_Notes>  (1) 
This compound contains an acetal/aminal-like group ( X-CH(R)-Y where X, Y are N, S, or O) that may be acid/base labile, releasing an aldehyde. This compound has a N-S or N-O group and may undergo hydrolysis at high or low pH.

>  <s_epik_cmdline>  (1) 
J2VwaWtfcHl0aG9uJywgJy1waHQnLCAnMS4wJywgJy1waCcsICc3LjQnLCAnLXRuJywgJzgnLCAnLW1hJywgJzUwMCcsICctaW1hZScsICc8aW5maWxlLm1hZT4nLCAnLW9tYWUnLCAnPG91dGZpbGUubWFlPic=

>  <s_epik_input>  (1) 
RmMoW2NIXTEpW2NIXVtjSF1bY0hdYzFPQyg9TylbQ0BASF0oW0NIXT1bQ0hdMilPQyg9QzJDbClbQ0gyXVtOSF1bQ0BASF0oW0NIMl1bT0hdKVtDQEBIXShbQ0gyXU8zKVtDSF0oW05AQF0zNClbQ0BIXTRbTkhdQyg9TylbQ0BIXShbQ0gzXSlbQ0gyXVtPSF0=

>  <s_glide_docking_method>  (1) 
confgen

>  <s_i_glide_gridfile>  (1) 
gpcr_5ht2c_6bqh_protein_autoprepared_prepared

>  <s_lp_Force_Field>  (1) 
S-OPLS

>  <s_lp_Variant>  (1) 
DiffSBDD_85-1

>  <s_m_source_file>  (1) 
generated_GPCR_5HT2C_ligand_DiffSBDD_2026-06-23_prepared.sdf

>  <GenAI_Model>  (1) 
DiffSBDD

>  <Protein>  (1) 
GPCR_5HT2C

$$$$
DiffSBDD_69
     RDKit          3D

  0  0  0  0  0  0  0  0  0  0999 V3000
M  V30 BEGIN CTAB
M  V30 COUNTS 57 57 0 0 1
M  V30 BEGIN ATOM
M  V30 1 C 38.445383 32.717056 58.026267 0
M  V30 2 N 37.617836 27.245986 53.499488 0 CHG=1
M  V30 3 C 38.344501 32.311917 55.586257 0
M  V30 4 C 38.855778 28.760951 51.945264 0 CFG=1
M  V30 5 C 39.051387 32.692227 56.862276 0
M  V30 6 C 38.771966 28.159368 53.379917 0 CFG=1
M  V30 7 C 37.858586 32.578214 59.190566 0
M  V30 8 C 40.096958 30.487051 50.419928 0
M  V30 9 C 37.564402 30.134968 54.645916 0
M  V30 10 C 38.770204 29.168584 54.563695 0
M  V30 11 C 38.052714 33.763705 61.410742 0
M  V30 12 C 39.920962 30.909636 61.906333 0 CFG=1
M  V30 13 C 38.620825 31.270944 61.161947 0
M  V30 14 C 39.828901 31.015663 63.428666 0
M  V30 15 N 37.645135 31.030226 55.812383 0 CHG=1
M  V30 16 C 41.083965 28.914185 63.225940 0
M  V30 17 C 40.079861 29.690438 51.736111 0
M  V30 18 C 38.886405 27.640298 50.884939 0
M  V30 19 S 40.445057 29.207864 61.555035 0
M  V30 20 C 41.030801 30.246011 63.979798 0
M  V30 21 C 38.618993 32.668546 60.498601 0 CFG=1
M  V30 22 H 36.755149 27.763239 53.422764 0
M  V30 23 H 37.648194 26.565102 52.750885 0
M  V30 24 H 37.645169 33.090208 55.275171 0
M  V30 25 H 39.097480 32.203222 54.804601 0
M  V30 26 H 37.951039 29.337591 51.776804 0
M  V30 27 H 40.094064 32.937972 56.773827 0
M  V30 28 H 39.645130 27.521589 53.510975 0
M  V30 29 H 36.797999 32.379292 59.259216 0
M  V30 30 H 40.995003 31.103406 50.362606 0
M  V30 31 H 40.104509 29.845160 49.539801 0
M  V30 32 H 39.245164 31.158873 50.338024 0
M  V30 33 H 36.635731 29.574856 54.730349 0
M  V30 34 H 37.486214 30.759690 53.767757 0
M  V30 35 H 39.695502 29.743352 54.560904 0
M  V30 36 H 38.813205 28.596049 55.492128 0
M  V30 37 H 38.028202 34.727592 60.900532 0
M  V30 38 H 37.036769 33.532020 61.733647 0
M  V30 39 H 38.672813 33.881535 62.299420 0
M  V30 40 H 40.740836 31.542881 61.566530 0
M  V30 41 H 37.748257 31.147394 61.804130 0
M  V30 42 H 38.484863 30.522702 60.379525 0
M  V30 43 H 39.817999 32.052616 63.766133 0
M  V30 44 H 38.910531 30.537783 63.773944 0
M  V30 45 H 38.099196 30.544548 56.571585 0
M  V30 46 H 40.445192 28.179095 63.714987 0
M  V30 47 H 42.092874 28.501394 63.192137 0
M  V30 48 H 40.153043 30.417039 52.543388 0
M  V30 49 H 40.989415 29.091319 51.767740 0
M  V30 50 H 39.793776 27.042385 50.956586 0
M  V30 51 H 38.045374 26.955589 50.968146 0
M  V30 52 H 38.845388 28.052787 49.878536 0
M  V30 53 H 40.963478 30.097901 65.057595 0
M  V30 54 H 41.942668 30.811756 63.784401 0
M  V30 55 H 39.646122 32.944737 60.251765 0
M  V30 56 H 37.648000 26.760894 54.384532 0
M  V30 57 H 36.702912 31.286277 56.137901 0
M  V30 END ATOM
M  V30 BEGIN BOND
M  V30 1 2 5 1
M  V30 2 1 5 3
M  V30 3 1 6 2
M  V30 4 1 6 4
M  V30 5 2 7 1
M  V30 6 1 10 6
M  V30 7 1 10 9
M  V30 8 1 13 12
M  V30 9 1 14 12
M  V30 10 1 15 3
M  V30 11 1 15 9
M  V30 12 1 17 4
M  V30 13 1 17 8
M  V30 14 1 18 4
M  V30 15 1 19 12
M  V30 16 1 19 16
M  V30 17 1 20 14
M  V30 18 1 20 16
M  V30 19 1 21 7
M  V30 20 1 21 11
M  V30 21 1 21 13
M  V30 22 1 22 2
M  V30 23 1 23 2
M  V30 24 1 24 3
M  V30 25 1 25 3
M  V30 26 1 4 26 CFG=3
M  V30 27 1 27 5
M  V30 28 1 6 28 CFG=1
M  V30 29 1 29 7
M  V30 30 1 30 8
M  V30 31 1 31 8
M  V30 32 1 32 8
M  V30 33 1 33 9
M  V30 34 1 34 9
M  V30 35 1 35 10
M  V30 36 1 36 10
M  V30 37 1 37 11
M  V30 38 1 38 11
M  V30 39 1 39 11
M  V30 40 1 12 40 CFG=3
M  V30 41 1 41 13
M  V30 42 1 42 13
M  V30 43 1 43 14
M  V30 44 1 44 14
M  V30 45 1 45 15
M  V30 46 1 46 16
M  V30 47 1 47 16
M  V30 48 1 48 17
M  V30 49 1 49 17
M  V30 50 1 50 18
M  V30 51 1 51 18
M  V30 52 1 52 18
M  V30 53 1 53 20
M  V30 54 1 54 20
M  V30 55 1 21 55 CFG=3
M  V30 56 1 56 2
M  V30 57 1 57 15
M  V30 END BOND
M  V30 END CTAB
M  END
>  <i_epik_Tot_Q>  (1) 
2

>  <i_epik_Tot_abs_Q>  (1) 
2

>  <i_i_glide_confnum>  (1) 
199

>  <i_i_glide_lignum>  (1) 
153

>  <i_i_glide_posenum>  (1) 
384

>  <i_i_glide_rotatable_bonds>  (1) 
10

>  <i_lp_mmshare_version>  (1) 
72125

>  <i_m_source_file_index>  (1) 
70

>  <i_f3d_flags>  (1) 
0

>  <num_sample>  (1) 
100

>  <b_lp_Chiralities_Consistent>  (1) 
1

>  <r_epik_Charging_Adjusted_Penalty>  (1) 
0.029112061252425856

>  <r_epik_Ionization_Penalty>  (1) 
0.014593894863530521

>  <r_epik_Ionization_Penalty_Charging>  (1) 
0.014593894863530521

>  <r_epik_Ionization_Penalty_Neutral>  (1) 
0

>  <r_epik_State_Penalty>  (1) 
0.014518166388895335

>  <r_glide_ring_energy>  (1) 
0

>  <r_i_docking_score>  (1) 
-5.1018673908193088

>  <r_i_glide_ecoul>  (1) 
-5.6449044583779227

>  <r_i_glide_eff_state_penalty>  (1) 
0.014518166388895335

>  <r_i_glide_einternal>  (1) 
7.2159345538677311

>  <r_i_glide_emodel>  (1) 
-48.869956752211756

>  <r_i_glide_emodel_strain>  (1) 
1.5250306412779153

>  <r_i_glide_energy>  (1) 
-37.288324631556677

>  <r_i_glide_erotb>  (1) 
1.5199289784806138

>  <r_i_glide_esite>  (1) 
-0.10000000000000001

>  <r_i_glide_evdw>  (1) 
-31.643420173178754

>  <r_i_glide_gscore>  (1) 
-5.1163855572082042

>  <r_i_glide_gscore_strain>  (1) 
0

>  <r_i_glide_hbond>  (1) 
-0.20000000000000001

>  <r_i_glide_ligand_efficiency>  (1) 
-0.24294606622949089

>  <r_i_glide_ligand_efficiency_ln>  (1) 
-1.2614264030863045

>  <r_i_glide_ligand_efficiency_sa>  (1) 
-0.67026977567723145

>  <r_i_glide_lipo>  (1) 
-2.2061392518695189

>  <r_i_glide_metal>  (1) 
-0

>  <r_i_glide_rewards>  (1) 
-1.7012686064036724

>  <r_lp_Energy>  (1) 
-1.0378579999999999

>  <s_epik_cmdline>  (1) 
J2VwaWtfcHl0aG9uJywgJy1waHQnLCAnMS4wJywgJy1waCcsICc3LjQnLCAnLXRuJywgJzgnLCAnLW1hJywgJzUwMCcsICctaW1hZScsICc8aW5maWxlLm1hZT4nLCAnLW9tYWUnLCAnPG91dGZpbGUubWFlPic=

>  <s_epik_input>  (1) 
UzFbQ0gyXVtDSDJdW0NIMl1bQ0BASF0xW0NIMl1bQ0BIXShbQ0gzXSlbQ0hdPUM9W0NIXVtDSDJdW05IXVtDSDJdW0NIMl1bQ0BASF0oW05IMl0pW0NASF0oW0NIM10pW0NIMl1bQ0gzXQ==

>  <s_glide_docking_method>  (1) 
confgen

>  <s_i_glide_gridfile>  (1) 
gpcr_5ht2c_6bqh_protein_autoprepared_prepared

>  <s_lp_Force_Field>  (1) 
S-OPLS

>  <s_lp_Variant>  (1) 
DiffSBDD_69-1

>  <s_m_source_file>  (1) 
generated_GPCR_5HT2C_ligand_DiffSBDD_2026-06-23_prepared.sdf

>  <GenAI_Model>  (1) 
DiffSBDD

>  <Protein>  (1) 
GPCR_5HT2C

$$$$
DiffSBDD_83
     RDKit          3D

  0  0  0  0  0  0  0  0  0  0999 V3000
M  V30 BEGIN CTAB
M  V30 COUNTS 54 55 0 0 1
M  V30 BEGIN ATOM
M  V30 1 C 41.629552 34.856860 64.747661 0
M  V30 2 C 37.345357 31.816671 59.999214 0
M  V30 3 N 36.426247 32.059945 60.932543 0
M  V30 4 O 41.141995 28.108935 58.648769 0
M  V30 5 O 40.735737 35.623341 64.134096 0
M  V30 6 C 41.652922 33.419049 62.640802 0
M  V30 7 C 42.157835 32.204422 61.900485 0
M  V30 8 C 39.978971 26.304905 58.064083 0
M  V30 9 C 39.930220 31.039626 54.887795 0
M  V30 10 C 42.078568 33.684421 63.920310 0
M  V30 11 C 37.000753 30.921541 58.849728 0
M  V30 12 C 39.202263 34.059830 62.270780 0
M  V30 13 N 37.049705 32.892938 61.767800 0
M  V30 14 O 40.044875 36.538192 65.023246 0
M  V30 15 C 39.081893 29.433663 58.382969 0 CFG=1
M  V30 16 C 38.239760 28.583641 56.043536 0
M  V30 17 C 41.121168 26.908196 58.070422 0
M  V30 18 O 42.043544 35.076093 65.886341 0
M  V30 19 C 39.744047 28.189367 59.029468 0 CFG=1
M  V30 20 C 38.584421 32.492949 60.269102 0
M  V30 21 O 39.004307 26.998172 58.651917 0
M  V30 22 C 39.213593 30.889977 56.234404 0
M  V30 23 C 39.250543 29.456835 56.818308 0 CFG=1
M  V30 24 C 38.339773 33.166216 61.427593 0
M  V30 25 Cl 39.723551 24.755644 57.351469 0
M  V30 26 C 40.661836 34.278495 61.842161 0
M  V30 27 C 37.640970 29.532786 58.934117 0
M  V30 28 H 36.581446 33.266345 62.581039 0
M  V30 29 H 42.777155 32.518848 61.059722 0
M  V30 30 H 42.752778 31.569770 62.559466 0
M  V30 31 H 41.322015 31.613883 61.522854 0
M  V30 32 H 39.797681 32.057366 54.525638 0
M  V30 33 H 41.000296 30.850376 54.967091 0
M  V30 34 H 39.522320 30.368523 54.133275 0
M  V30 35 H 42.783950 33.012831 64.384926 0
M  V30 36 H 35.921815 30.772824 58.839348 0
M  V30 37 H 37.245087 31.426016 57.923926 0
M  V30 38 H 39.227656 33.647935 63.278997 0
M  V30 39 H 38.714972 35.031793 62.349695 0
M  V30 40 H 40.666068 37.261452 65.028290 0
M  V30 41 H 39.645342 30.266905 58.794055 0
M  V30 42 H 37.245138 29.030123 56.048427 0
M  V30 43 H 38.537776 28.472450 55.001447 0
M  V30 44 H 38.156457 27.576258 56.442185 0
M  V30 45 H 42.063500 26.579968 57.665112 0
M  V30 46 H 39.720087 28.258646 60.118868 0
M  V30 47 H 39.498533 32.479814 59.697814 0
M  V30 48 H 38.183722 31.207918 56.075806 0
M  V30 49 H 39.645009 31.600742 56.937874 0
M  V30 50 H 40.246228 29.077072 56.592261 0
M  V30 51 H 40.949778 35.328539 61.851997 0
M  V30 52 H 40.751256 34.038255 60.790004 0
M  V30 53 H 37.613060 29.217441 59.977299 0
M  V30 54 H 37.011635 28.819301 58.403024 0
M  V30 END ATOM
M  V30 BEGIN BOND
M  V30 1 2 3 2
M  V30 2 1 5 1
M  V30 3 1 7 6
M  V30 4 1 10 1
M  V30 5 2 10 6
M  V30 6 1 11 2
M  V30 7 1 13 3
M  V30 8 1 14 5
M  V30 9 1 17 4
M  V30 10 2 17 8
M  V30 11 2 18 1
M  V30 12 1 19 4
M  V30 13 1 19 15
M  V30 14 1 20 2
M  V30 15 1 21 8
M  V30 16 1 21 19
M  V30 17 1 22 9
M  V30 18 1 23 15
M  V30 19 1 23 16
M  V30 20 1 23 22
M  V30 21 1 24 12
M  V30 22 1 24 13
M  V30 23 2 24 20
M  V30 24 1 25 8
M  V30 25 1 26 6
M  V30 26 1 26 12
M  V30 27 1 27 11
M  V30 28 1 27 15
M  V30 29 1 28 13
M  V30 30 1 29 7
M  V30 31 1 30 7
M  V30 32 1 31 7
M  V30 33 1 32 9
M  V30 34 1 33 9
M  V30 35 1 34 9
M  V30 36 1 35 10
M  V30 37 1 36 11
M  V30 38 1 37 11
M  V30 39 1 38 12
M  V30 40 1 39 12
M  V30 41 1 40 14
M  V30 42 1 15 41 CFG=1
M  V30 43 1 42 16
M  V30 44 1 43 16
M  V30 45 1 44 16
M  V30 46 1 45 17
M  V30 47 1 19 46 CFG=1
M  V30 48 1 47 20
M  V30 49 1 48 22
M  V30 50 1 49 22
M  V30 51 1 23 50 CFG=1
M  V30 52 1 51 26
M  V30 53 1 52 26
M  V30 54 1 53 27
M  V30 55 1 54 27
M  V30 END BOND
M  V30 END CTAB
M  END
>  <i_epik_Tot_Q>  (1) 
0

>  <i_epik_Tot_abs_Q>  (1) 
0

>  <i_i_glide_confnum>  (1) 
2055

>  <i_i_glide_lignum>  (1) 
194

>  <i_i_glide_posenum>  (1) 
384

>  <i_i_glide_rotatable_bonds>  (1) 
12

>  <i_lp_mmshare_version>  (1) 
72125

>  <i_m_source_file_index>  (1) 
84

>  <i_f3d_flags>  (1) 
0

>  <num_sample>  (1) 
100

>  <b_lp_Chiralities_Consistent>  (1) 
1

>  <r_epik_Charging_Adjusted_Penalty>  (1) 
0.41067983895260396

>  <r_epik_Ionization_Penalty>  (1) 
0.00090540554532319911

>  <r_epik_Ionization_Penalty_Charging>  (1) 
0

>  <r_epik_Ionization_Penalty_Neutral>  (1) 
0.00090540554532319911

>  <r_epik_State_Penalty>  (1) 
0.41067983895260396

>  <r_glide_ring_energy>  (1) 
0

>  <r_i_docking_score>  (1) 
-5.0934804606945789

>  <r_i_glide_ecoul>  (1) 
-6.1454249880374059

>  <r_i_glide_eff_state_penalty>  (1) 
0.41067983895260396

>  <r_i_glide_einternal>  (1) 
8.2614397487852678

>  <r_i_glide_emodel>  (1) 
-47.290422854489854

>  <r_i_glide_emodel_strain>  (1) 
1.228726039262483

>  <r_i_glide_energy>  (1) 
-40.038725000202

>  <r_i_glide_erotb>  (1) 
1.1080255732668134

>  <r_i_glide_esite>  (1) 
-0.034612512458189394

>  <r_i_glide_evdw>  (1) 
-33.893300012164595

>  <r_i_glide_gscore>  (1) 
-5.5041602996471832

>  <r_i_glide_gscore_strain>  (1) 
0

>  <r_i_glide_hbond>  (1) 
-0.32000000000000001

>  <r_i_glide_ligand_efficiency>  (1) 
-0.18864742447016958

>  <r_i_glide_ligand_efficiency_ln>  (1) 
-1.185678278661489

>  <r_i_glide_ligand_efficiency_sa>  (1) 
-0.56594227341050884

>  <r_i_glide_lipo>  (1) 
-2.0918138945687681

>  <r_i_glide_metal>  (1) 
-0

>  <r_i_glide_rewards>  (1) 
-1.5492807170731995

>  <r_lp_Energy>  (1) 
15.108011999999999

>  <r_lp_tautomer_probability>  (1) 
0.5

>  <s_epik_Chemistry_Notes>  (1) 
This compound contains an acetal/aminal-like group ( X-CH(R)-Y where X, Y are N, S, or O) that may be acid/base labile, releasing an aldehyde.

>  <s_epik_cmdline>  (1) 
J2VwaWtfcHl0aG9uJywgJy1waHQnLCAnMS4wJywgJy1waCcsICc3LjQnLCAnLXRuJywgJzgnLCAnLW1hJywgJzUwMCcsICctaW1hZScsICc8aW5maWxlLm1hZT4nLCAnLW9tYWUnLCAnPG91dGZpbGUubWFlPic=

>  <s_epik_input>  (1) 
W09IXU9DKD1PKVxbQ0hdPUMoXFtDSDNdKVtDSDJdW0NIMl1jKFtjSF0xKW5bbkhdYzFbQ0gyXVtDSDJdW0NASF0oW0NAQEhdKFtDSDNdKVtDSDJdW0NIM10pW0NAQEhdKE8yKU9bQ0hdPUMyQ2w=

>  <s_glide_docking_method>  (1) 
confgen

>  <s_i_glide_gridfile>  (1) 
gpcr_5ht2c_6bqh_protein_autoprepared_prepared

>  <s_lp_Force_Field>  (1) 
S-OPLS

>  <s_lp_Variant>  (1) 
DiffSBDD_83-5

>  <s_m_source_file>  (1) 
generated_GPCR_5HT2C_ligand_DiffSBDD_2026-06-23_prepared.sdf

>  <GenAI_Model>  (1) 
DiffSBDD

>  <Protein>  (1) 
GPCR_5HT2C

$$$$
DiffSBDD_9
     RDKit          3D

  0  0  0  0  0  0  0  0  0  0999 V3000
M  V30 BEGIN CTAB
M  V30 COUNTS 67 68 0 0 1
M  V30 BEGIN ATOM
M  V30 1 C 37.553757 34.305750 59.328586 0 CFG=1
M  V30 2 C 36.649593 29.188679 58.225243 0
M  V30 3 C 34.166074 32.682183 59.367764 0
M  V30 4 C 38.883699 27.507250 51.571948 0
M  V30 5 O 34.913079 32.531220 60.481872 0
M  V30 6 O 36.941268 27.737761 52.967761 0
M  V30 7 C 37.504982 33.496492 60.613318 0 CFG=1
M  V30 8 C 38.751502 34.278117 60.280883 0
M  V30 9 N 37.592654 33.467303 58.089707 0 CHG=1
M  V30 10 C 39.118585 30.753308 56.099252 0
M  V30 11 C 39.173340 28.297806 56.684541 0 CFG=2
M  V30 12 C 38.449488 27.719702 55.461276 0
M  V30 13 C 39.026867 28.108130 54.092719 0 CFG=1
M  V30 14 C 38.789167 32.207400 56.353726 0
M  V30 15 C 38.291192 27.335858 52.981821 0 CFG=2
M  V30 16 C 37.987344 29.933465 58.280472 0
M  V30 17 C 39.843521 30.488747 54.781136 0
M  V30 18 C 41.094628 26.921139 56.998681 0
M  V30 19 C 36.583704 33.777569 61.767739 0
M  V30 20 C 36.759788 35.585692 59.150024 0
M  V30 21 O 38.537864 32.990217 55.439119 0
M  V30 22 C 38.852978 32.758883 57.778922 0
M  V30 23 O 33.670353 33.738371 58.987826 0
M  V30 24 C 35.114295 33.618373 61.372788 0
M  V30 25 C 38.788425 29.743636 56.977362 0
M  V30 26 C 39.027384 29.632559 53.810058 0
M  V30 27 O 37.766954 32.123431 60.536460 0
M  V30 28 O 40.588291 28.182962 56.612373 0
M  V30 29 C 38.810642 29.521681 59.522935 0
M  V30 30 H 36.045288 29.590606 57.411547 0
M  V30 31 H 36.759356 28.117095 58.079448 0
M  V30 32 H 36.079915 29.337787 59.142919 0
M  V30 33 H 34.066668 31.722134 58.863975 0
M  V30 34 H 39.959550 27.337860 51.576988 0
M  V30 35 H 38.445112 26.799489 50.869162 0
M  V30 36 H 38.706628 28.504667 51.169078 0
M  V30 37 H 36.497945 27.161748 52.354059 0
M  V30 38 H 38.937529 35.176161 60.866900 0
M  V30 39 H 39.649630 33.719342 60.031255 0
M  V30 40 H 36.827489 32.799836 58.090729 0
M  V30 41 H 38.843048 27.690476 57.524694 0
M  V30 42 H 38.462450 26.632459 55.545421 0
M  V30 43 H 37.401454 28.002364 55.500534 0
M  V30 44 H 40.042181 27.722474 54.111695 0
M  V30 45 H 38.313457 26.274025 53.228979 0
M  V30 46 H 37.571437 30.911524 58.404851 0
M  V30 47 H 40.081151 31.427456 54.280878 0
M  V30 48 H 40.815873 30.035600 54.967761 0
M  V30 49 H 42.183060 26.938540 56.967764 0
M  V30 50 H 40.801197 26.660757 58.016900 0
M  V30 51 H 40.752394 26.137837 56.321749 0
M  V30 52 H 36.845126 33.069516 62.557992 0
M  V30 53 H 36.749547 34.787277 62.145676 0
M  V30 54 H 36.686848 36.130036 60.091578 0
M  V30 55 H 37.245147 36.241728 58.429323 0
M  V30 56 H 35.749289 35.370951 58.804178 0
M  V30 57 H 39.645157 33.500904 57.767722 0
M  V30 58 H 39.189123 32.047867 58.523806 0
M  V30 59 H 34.466711 33.519049 62.243751 0
M  V30 60 H 34.845143 34.537752 60.871594 0
M  V30 61 H 39.451076 29.807250 52.822382 0
M  V30 62 H 38.006521 30.015476 53.766251 0
M  V30 63 H 36.936228 31.668279 60.521485 0
M  V30 64 H 39.702434 30.137743 59.631198 0
M  V30 65 H 38.228061 29.624026 60.437214 0
M  V30 66 H 39.139487 28.483951 59.495326 0
M  V30 67 H 37.421114 34.078767 57.302749 0
M  V30 END ATOM
M  V30 BEGIN BOND
M  V30 1 1 5 3
M  V30 2 1 7 1
M  V30 3 1 8 1
M  V30 4 1 8 7
M  V30 5 1 9 1
M  V30 6 1 12 11
M  V30 7 1 13 12
M  V30 8 1 14 10
M  V30 9 1 15 4
M  V30 10 1 15 6
M  V30 11 1 15 13
M  V30 12 1 16 2
M  V30 13 1 17 10
M  V30 14 1 19 7
M  V30 15 1 1 20 CFG=3
M  V30 16 2 21 14
M  V30 17 1 22 9
M  V30 18 1 22 14
M  V30 19 2 23 3
M  V30 20 1 24 5
M  V30 21 1 24 19
M  V30 22 2 25 10
M  V30 23 1 25 11
M  V30 24 1 25 16
M  V30 25 1 26 13
M  V30 26 1 26 17
M  V30 27 1 7 27 CFG=3
M  V30 28 1 28 11
M  V30 29 1 28 18
M  V30 30 1 29 16
M  V30 31 1 30 2
M  V30 32 1 31 2
M  V30 33 1 32 2
M  V30 34 1 33 3
M  V30 35 1 34 4
M  V30 36 1 35 4
M  V30 37 1 36 4
M  V30 38 1 37 6
M  V30 39 1 38 8
M  V30 40 1 39 8
M  V30 41 1 40 9
M  V30 42 1 11 41 CFG=1
M  V30 43 1 42 12
M  V30 44 1 43 12
M  V30 45 1 13 44 CFG=1
M  V30 46 1 15 45 CFG=1
M  V30 47 1 46 16
M  V30 48 1 47 17
M  V30 49 1 48 17
M  V30 50 1 49 18
M  V30 51 1 50 18
M  V30 52 1 51 18
M  V30 53 1 52 19
M  V30 54 1 53 19
M  V30 55 1 54 20
M  V30 56 1 55 20
M  V30 57 1 56 20
M  V30 58 1 57 22
M  V30 59 1 58 22
M  V30 60 1 59 24
M  V30 61 1 60 24
M  V30 62 1 61 26
M  V30 63 1 62 26
M  V30 64 1 63 27
M  V30 65 1 64 29
M  V30 66 1 65 29
M  V30 67 1 66 29
M  V30 68 1 67 9
M  V30 END BOND
M  V30 END CTAB
M  END
>  <i_epik_Tot_Q>  (1) 
1

>  <i_epik_Tot_abs_Q>  (1) 
1

>  <i_i_glide_confnum>  (1) 
1914

>  <i_i_glide_lignum>  (1) 
14

>  <i_i_glide_posenum>  (1) 
128

>  <i_i_glide_rotatable_bonds>  (1) 
13

>  <i_lp_mmshare_version>  (1) 
72125

>  <i_m_source_file_index>  (1) 
10

>  <i_f3d_flags>  (1) 
0

>  <num_sample>  (1) 
100

>  <b_lp_Chiralities_Consistent>  (1) 
1

>  <r_epik_Charging_Adjusted_Penalty>  (1) 
0.43257487955488089

>  <r_epik_Ionization_Penalty>  (1) 
0.21628819114950359

>  <r_epik_Ionization_Penalty_Charging>  (1) 
0.21628743977744047

>  <r_epik_Ionization_Penalty_Neutral>  (1) 
7.5137206312442099e-07

>  <r_epik_State_Penalty>  (1) 
0.21628743977744042

>  <r_glide_ring_energy>  (1) 
0

>  <r_i_docking_score>  (1) 
-5.0885536279749717

>  <r_i_glide_ecoul>  (1) 
-6.0034756867351993

>  <r_i_glide_eff_state_penalty>  (1) 
0.21628743977744042

>  <r_i_glide_einternal>  (1) 
11.594799766054734

>  <r_i_glide_emodel>  (1) 
-42.520062000096395

>  <r_i_glide_emodel_strain>  (1) 
1.8641359622993576

>  <r_i_glide_energy>  (1) 
-34.293846605960283

>  <r_i_glide_erotb>  (1) 
0.92691700141960698

>  <r_i_glide_esite>  (1) 
-0.13474364567952479

>  <r_i_glide_evdw>  (1) 
-28.290370919225083

>  <r_i_glide_gscore>  (1) 
-5.3048410677524123

>  <r_i_glide_gscore_strain>  (1) 
0

>  <r_i_glide_hbond>  (1) 
-0.46263625841210054

>  <r_i_glide_ligand_efficiency>  (1) 
-0.17546736648189556

>  <r_i_glide_ligand_efficiency_ln>  (1) 
-1.1651497462196718

>  <r_i_glide_ligand_efficiency_sa>  (1) 
-0.53909134240111278

>  <r_i_glide_lipo>  (1) 
-2.1806610247078524

>  <r_i_glide_metal>  (1) 
-0

>  <r_i_glide_rewards>  (1) 
-1.138677241401008

>  <r_lp_Energy>  (1) 
42.298378999999997

>  <s_epik_Chemistry_Notes>  (1) 
This compound has an ester and may undergo hydrolysis at high or low pH.

>  <s_epik_cmdline>  (1) 
J2VwaWtfcHl0aG9uJywgJy1waHQnLCAnMS4wJywgJy1waCcsICc3LjQnLCAnLXRuJywgJzgnLCAnLW1hJywgJzUwMCcsICctaW1hZScsICc8aW5maWxlLm1hZT4nLCAnLW9tYWUnLCAnPG91dGZpbGUubWFlPic=

>  <s_epik_input>  (1) 
Tz1bQ0hdT1tDSDJdW0NIMl1bQ0BAXShbQ0gyXTEpKFtPSF0pW0NAXTEoW0NIM10pW05IXVtDSDJdQyg9TylDMj1DKFtDSF0oW0NIM10pW0NIM10pW0NASF0oT1tDSDNdKVtDSDJdW0NAQEhdKFtDQEBIXShbQ0gzXSlbT0hdKVtDSDJdW0NIMl0y

>  <s_glide_docking_method>  (1) 
confgen

>  <s_i_glide_gridfile>  (1) 
gpcr_5ht2c_6bqh_protein_autoprepared_prepared

>  <s_lp_Force_Field>  (1) 
S-OPLS

>  <s_lp_Variant>  (1) 
DiffSBDD_9-2

>  <s_m_source_file>  (1) 
generated_GPCR_5HT2C_ligand_DiffSBDD_2026-06-23_prepared.sdf

>  <GenAI_Model>  (1) 
DiffSBDD

>  <Protein>  (1) 
GPCR_5HT2C

$$$$
DiffSBDD_43
     RDKit          3D

  0  0  0  0  0  0  0  0  0  0999 V3000
M  V30 BEGIN CTAB
M  V30 COUNTS 83 85 0 0 1
M  V30 BEGIN ATOM
M  V30 1 C 39.513921 27.285688 54.237408 0
M  V30 2 C 41.588924 28.763349 63.866107 0
M  V30 3 C 41.422485 33.913347 63.319571 0
M  V30 4 C 36.485424 32.554482 59.970678 0 CFG=2
M  V30 5 C 38.913770 31.528889 60.464066 0 CFG=2
M  V30 6 O 40.031649 37.737760 62.578048 0
M  V30 7 O 41.033669 29.701754 61.733317 0
M  V30 8 N 37.644300 28.215158 52.167706 0 CHG=1
M  V30 9 C 40.996227 35.215853 62.997125 0
M  V30 10 C 41.105469 28.004889 65.107624 0
M  V30 11 C 35.856259 33.764805 59.240440 0
M  V30 12 C 38.234766 30.801348 55.494856 0
M  V30 13 N 38.077378 37.059973 61.462137 0
M  V30 14 C 39.788891 35.408798 62.277657 0
M  V30 15 C 40.463588 29.047071 62.862211 0
M  V30 16 N 39.340488 36.702762 61.954539 0
M  V30 17 C 37.912129 32.207949 59.471373 0 CFG=1
M  V30 18 O 40.508324 28.137735 60.091266 0
M  V30 19 C 38.628376 27.187666 51.781544 0 CFG=1
M  V30 20 C 38.977253 29.984302 60.443944 0
M  V30 21 C 37.449467 28.463210 53.612999 0
M  V30 22 C 39.006004 31.841995 56.307180 0 CFG=1
M  V30 23 C 40.653365 32.803600 62.927059 0
M  V30 24 O 37.767759 31.450537 58.277986 0
M  V30 25 C 38.366238 33.232538 56.255380 0
M  V30 26 C 38.808220 28.642943 54.294193 0 CFG=1
M  V30 27 O 35.645926 31.434891 59.768219 0
M  V30 28 C 40.438386 29.483214 60.489237 0 CFG=1
M  V30 29 C 39.029864 34.291774 61.883423 0
M  V30 30 N 38.132233 28.631397 56.727413 0 CHG=1
M  V30 31 C 39.986983 27.799518 51.597498 0
M  V30 32 C 38.812039 29.374034 55.647471 0 CFG=2
M  V30 33 O 39.099960 31.352689 57.625953 0
M  V30 34 C 39.722264 26.862680 52.782040 0 CFG=1
M  V30 35 O 38.711753 31.912256 61.820239 0
M  V30 36 O 36.550537 34.971237 59.482058 0
M  V30 37 C 39.458351 32.992953 62.206080 0
M  V30 38 H 40.445125 27.290991 54.794616 0
M  V30 39 H 38.903749 26.523580 54.723438 0
M  V30 40 H 42.362840 28.176444 63.369914 0
M  V30 41 H 42.059934 29.699593 64.170043 0
M  V30 42 H 42.340512 33.766290 63.869333 0
M  V30 43 H 36.496265 32.770202 61.037525 0
M  V30 44 H 39.899147 31.885931 60.167797 0
M  V30 45 H 39.819799 37.684491 63.498880 0
M  V30 46 H 37.923727 29.075344 51.718950 0
M  V30 47 H 41.593174 36.063631 63.303566 0
M  V30 48 H 41.934771 27.785371 65.780233 0
M  V30 49 H 40.371963 28.588384 65.664369 0
M  V30 50 H 40.639290 27.057685 64.835120 0
M  V30 51 H 35.859362 33.617851 58.167716 0
M  V30 52 H 34.815944 33.896479 59.538129 0
M  V30 53 H 37.178007 30.813566 55.761681 0
M  V30 54 H 38.277243 31.127551 54.454756 0
M  V30 55 H 37.833330 36.445493 60.685560 0
M  V30 56 H 37.383941 36.934926 62.196650 0
M  V30 57 H 39.702336 29.691427 63.305597 0
M  V30 58 H 39.987040 28.106257 62.583858 0
M  V30 59 H 38.380365 33.153964 59.198708 0
M  V30 60 H 41.413189 27.866489 60.165515 0
M  V30 61 H 38.315696 26.537803 50.970179 0
M  V30 62 H 38.445103 29.559286 61.285424 0
M  V30 63 H 38.516683 29.575273 59.547486 0
M  V30 64 H 36.889615 27.639001 54.057095 0
M  V30 65 H 36.843201 29.354882 53.735908 0
M  V30 66 H 40.024952 31.917611 55.923997 0
M  V30 67 H 40.981382 31.807220 63.176799 0
M  V30 68 H 38.459495 33.683887 55.268261 0
M  V30 69 H 37.305214 33.201552 56.496015 0
M  V30 70 H 38.843773 33.882165 56.980878 0
M  V30 71 H 39.391844 29.329330 53.685099 0
M  V30 72 H 35.519690 31.353701 58.824237 0
M  V30 73 H 41.046238 30.025524 59.767703 0
M  V30 74 H 38.113655 34.432025 61.338874 0
M  V30 75 H 37.156028 28.497456 56.510476 0
M  V30 76 H 38.579965 27.737904 56.876876 0
M  V30 77 H 40.125621 28.862864 51.773233 0
M  V30 78 H 40.445098 27.454285 50.672350 0
M  V30 79 H 39.858399 29.455395 55.948630 0
M  V30 80 H 40.216534 25.898760 52.698768 0
M  V30 81 H 36.315136 35.579817 58.793064 0
M  V30 82 H 38.195897 29.179881 57.575810 0
M  V30 83 H 36.764313 27.921060 51.767521 0
M  V30 END ATOM
M  V30 BEGIN BOND
M  V30 1 1 9 3
M  V30 2 1 10 2
M  V30 3 1 11 4
M  V30 4 2 14 9
M  V30 5 1 15 2
M  V30 6 1 15 7
M  V30 7 1 16 6
M  V30 8 1 16 13
M  V30 9 1 16 14
M  V30 10 1 17 4
M  V30 11 1 17 5
M  V30 12 1 19 8
M  V30 13 1 20 5
M  V30 14 1 21 8
M  V30 15 1 22 12
M  V30 16 2 23 3
M  V30 17 1 24 17
M  V30 18 1 25 22
M  V30 19 1 26 1
M  V30 20 1 26 21
M  V30 21 1 27 4
M  V30 22 1 28 7
M  V30 23 1 28 18
M  V30 24 1 28 20
M  V30 25 1 29 14
M  V30 26 1 31 19
M  V30 27 1 32 12
M  V30 28 1 32 26
M  V30 29 1 32 30
M  V30 30 1 33 22
M  V30 31 1 33 24
M  V30 32 1 34 1
M  V30 33 1 34 19
M  V30 34 1 34 31
M  V30 35 1 35 5
M  V30 36 1 36 11
M  V30 37 1 37 23
M  V30 38 2 37 29
M  V30 39 1 37 35
M  V30 40 1 38 1
M  V30 41 1 39 1
M  V30 42 1 40 2
M  V30 43 1 41 2
M  V30 44 1 42 3
M  V30 45 1 4 43 CFG=1
M  V30 46 1 5 44 CFG=3
M  V30 47 1 45 6
M  V30 48 1 46 8
M  V30 49 1 47 9
M  V30 50 1 48 10
M  V30 51 1 49 10
M  V30 52 1 50 10
M  V30 53 1 51 11
M  V30 54 1 52 11
M  V30 55 1 53 12
M  V30 56 1 54 12
M  V30 57 1 55 13
M  V30 58 1 56 13
M  V30 59 1 57 15
M  V30 60 1 58 15
M  V30 61 1 17 59 CFG=3
M  V30 62 1 60 18
M  V30 63 1 19 61 CFG=3
M  V30 64 1 62 20
M  V30 65 1 63 20
M  V30 66 1 64 21
M  V30 67 1 65 21
M  V30 68 1 22 66 CFG=3
M  V30 69 1 67 23
M  V30 70 1 68 25
M  V30 71 1 69 25
M  V30 72 1 70 25
M  V30 73 1 26 71 CFG=3
M  V30 74 1 72 27
M  V30 75 1 28 73 CFG=3
M  V30 76 1 74 29
M  V30 77 1 75 30
M  V30 78 1 76 30
M  V30 79 1 77 31
M  V30 80 1 78 31
M  V30 81 1 32 79 CFG=1
M  V30 82 1 34 80 CFG=1
M  V30 83 1 81 36
M  V30 84 1 82 30
M  V30 85 1 83 8
M  V30 END BOND
M  V30 END CTAB
M  END
>  <i_epik_Tot_Q>  (1) 
2

>  <i_epik_Tot_abs_Q>  (1) 
2

>  <i_i_glide_confnum>  (1) 
8752

>  <i_i_glide_lignum>  (1) 
95

>  <i_i_glide_posenum>  (1) 
285

>  <i_i_glide_rotatable_bonds>  (1) 
21

>  <i_lp_mmshare_version>  (1) 
72125

>  <i_m_source_file_index>  (1) 
44

>  <i_f3d_flags>  (1) 
0

>  <num_sample>  (1) 
100

>  <b_lp_Chiralities_Consistent>  (1) 
1

>  <r_epik_Charging_Adjusted_Penalty>  (1) 
0.054628322637716921

>  <r_epik_Ionization_Penalty>  (1) 
0.057286365922034427

>  <r_epik_Ionization_Penalty_Charging>  (1) 
0.054628322637716921

>  <r_epik_Ionization_Penalty_Neutral>  (1) 
0.0026580432843175059

>  <r_epik_State_Penalty>  (1) 
-0

>  <r_glide_ring_energy>  (1) 
0

>  <r_i_docking_score>  (1) 
-5.0827519811771928

>  <r_i_glide_ecoul>  (1) 
-10.761317332271759

>  <r_i_glide_eff_state_penalty>  (1) 
-0

>  <r_i_glide_einternal>  (1) 
21.235887309644447

>  <r_i_glide_emodel>  (1) 
-57.846666510255403

>  <r_i_glide_emodel_strain>  (1) 
4.7683658574611911

>  <r_i_glide_energy>  (1) 
-51.29656208407976

>  <r_i_glide_erotb>  (1) 
1.0980815572756908

>  <r_i_glide_esite>  (1) 
-0.12932851778381868

>  <r_i_glide_evdw>  (1) 
-40.535244751808001

>  <r_i_glide_gscore>  (1) 
-5.0827519811771928

>  <r_i_glide_gscore_strain>  (1) 
0.19209146436529778

>  <r_i_glide_hbond>  (1) 
-0.50650638329435493

>  <r_i_glide_ligand_efficiency>  (1) 
-0.13737167516695115

>  <r_i_glide_ligand_efficiency_ln>  (1) 
-1.102329748104838

>  <r_i_glide_ligand_efficiency_sa>  (1) 
-0.45775289778852446

>  <r_i_glide_lipo>  (1) 
-3.128785265334622

>  <r_i_glide_metal>  (1) 
-0

>  <r_i_glide_rewards>  (1) 
1.0326550010257782

>  <r_lp_Energy>  (1) 
48.925089999999997

>  <r_lp_tautomer_probability>  (1) 
1

>  <s_epik_Chemistry_Notes>  (1) 
This compound contains an acetal/aminal-like group ( X-CH(R)-Y where X, Y are N, S, or O) that may be acid/base labile, releasing an aldehyde. This compound has a N-S or N-O group and may undergo hydrolysis at high or low pH.

>  <s_epik_cmdline>  (1) 
J2VwaWtfcHl0aG9uJywgJy1waHQnLCAnMS4wJywgJy1waCcsICc3LjQnLCAnLXRuJywgJzgnLCAnLW1hJywgJzUwMCcsICctaW1hZScsICc8aW5maWxlLm1hZT4nLCAnLW9tYWUnLCAnPG91dGZpbGUubWFlPic=

>  <s_epik_input>  (1) 
W0NASF0xMltDQEBIXShbQ0gyXTIpW0NIMl1bQ0BASF0oW0NIMl1bTkhdMSlbQ0BIXShbTkgyXSlbQ0gyXVtDQEBIXShbQ0gzXSlPT1tDQEBIXShbQ0BIXShbT0hdKVtDSDJdW09IXSlbQ0BIXShbQ0gyXVtDQEhdKFtPSF0pT1tDSDJdW0NIMl1bQ0gzXSlPYyhbY0hdMylbY0hdW2NIXVtjSF1jM04oW09IXSlbTkgyXQ==

>  <s_glide_docking_method>  (1) 
confgen

>  <s_i_glide_gridfile>  (1) 
gpcr_5ht2c_6bqh_protein_autoprepared_prepared

>  <s_lp_Force_Field>  (1) 
S-OPLS

>  <s_lp_Variant>  (1) 
DiffSBDD_43-1

>  <s_m_source_file>  (1) 
generated_GPCR_5HT2C_ligand_DiffSBDD_2026-06-23_prepared.sdf

>  <GenAI_Model>  (1) 
DiffSBDD

>  <Protein>  (1) 
GPCR_5HT2C

$$$$
DiffSBDD_9
     RDKit          3D

  0  0  0  0  0  0  0  0  0  0999 V3000
M  V30 BEGIN CTAB
M  V30 COUNTS 67 68 0 0 1
M  V30 BEGIN ATOM
M  V30 1 C 38.704809 32.695342 60.589198 0 CFG=1
M  V30 2 C 38.898037 25.962243 58.564314 0
M  V30 3 C 41.390362 35.337781 64.445719 0
M  V30 4 C 38.507809 27.191308 52.400074 0
M  V30 5 O 41.564137 34.797390 63.222709 0
M  V30 6 O 39.245142 29.378589 51.996087 0
M  V30 7 C 38.478407 34.041999 61.247820 0 CFG=1
M  V30 8 C 37.459193 32.939459 61.427680 0
M  V30 9 N 38.462395 32.732492 59.121211 0 CHG=1
M  V30 10 C 38.729595 29.675559 57.573070 0
M  V30 11 C 39.998785 27.749011 56.518279 0 CFG=2
M  V30 12 C 39.205379 27.623065 55.205674 0
M  V30 13 C 39.049504 28.903669 54.350991 0 CFG=1
M  V30 14 C 37.945472 30.327165 58.718912 0
M  V30 15 C 38.479030 28.635995 52.921798 0 CFG=2
M  V30 16 C 39.008555 27.467479 58.898664 0
M  V30 17 C 38.972642 30.546744 56.331561 0
M  V30 18 C 42.226100 28.137776 57.315128 0
M  V30 19 C 39.245130 34.564764 62.447767 0
M  V30 20 C 39.890267 31.844652 61.023201 0
M  V30 21 O 37.680086 29.754220 59.767756 0
M  V30 22 C 37.469964 31.780262 58.559192 0
M  V30 23 O 40.445142 36.058272 64.768075 0
M  V30 24 C 40.665773 35.075830 62.150097 0
M  V30 25 C 39.203870 28.381915 57.665413 0
M  V30 26 C 38.256939 30.012747 55.075614 0
M  V30 27 O 38.021161 35.042361 60.358514 0
M  V30 28 O 41.245132 28.379269 56.309226 0
M  V30 29 C 40.121739 27.748132 59.926568 0
M  V30 30 H 38.268398 25.794247 57.689813 0
M  V30 31 H 39.869943 25.498658 58.389169 0
M  V30 32 H 38.445138 25.396292 59.367760 0
M  V30 33 H 42.208906 35.036950 65.099580 0
M  V30 34 H 37.898483 26.537777 53.023127 0
M  V30 35 H 38.097243 27.133180 51.390165 0
M  V30 36 H 39.520747 26.788474 52.359802 0
M  V30 37 H 38.914571 29.215026 51.125394 0
M  V30 38 H 37.414374 32.443240 62.396222 0
M  V30 39 H 36.495786 33.064352 60.937447 0
M  V30 40 H 38.103839 33.668732 58.962434 0
M  V30 41 H 40.274755 26.724232 56.736665 0
M  V30 42 H 39.751126 26.881808 54.622315 0
M  V30 43 H 38.228388 27.182301 55.407031 0
M  V30 44 H 40.045131 29.319627 54.218221 0
M  V30 45 H 37.442388 28.970218 52.872207 0
M  V30 46 H 38.045141 27.624188 59.346103 0
M  V30 47 H 38.771993 31.605737 56.440031 0
M  V30 48 H 40.045104 30.560792 56.148203 0
M  V30 49 H 43.204646 28.467037 56.967754 0
M  V30 50 H 42.013094 28.727507 58.204312 0
M  V30 51 H 42.313537 27.083830 57.581094 0
M  V30 52 H 38.669392 35.353516 62.930743 0
M  V30 53 H 39.314629 33.750676 63.167907 0
M  V30 54 H 40.015880 31.875747 62.105250 0
M  V30 55 H 39.754925 30.802894 60.757869 0
M  V30 56 H 40.810683 32.206690 60.567929 0
M  V30 57 H 36.521569 31.885041 59.085098 0
M  V30 58 H 37.245138 32.043399 57.533219 0
M  V30 59 H 41.059128 34.570540 61.268865 0
M  V30 60 H 40.657658 36.143040 61.922807 0
M  V30 61 H 38.137463 30.846614 54.382544 0
M  V30 62 H 37.244950 29.682343 55.316847 0
M  V30 63 H 37.470942 35.645532 60.839005 0
M  V30 64 H 40.276378 28.814514 60.063753 0
M  V30 65 H 39.936641 27.337813 60.913672 0
M  V30 66 H 41.066966 27.337773 59.589616 0
M  V30 67 H 39.336012 32.645685 58.626199 0
M  V30 END ATOM
M  V30 BEGIN BOND
M  V30 1 1 5 3
M  V30 2 1 7 1
M  V30 3 1 8 1
M  V30 4 1 8 7
M  V30 5 1 9 1
M  V30 6 1 12 11
M  V30 7 1 13 12
M  V30 8 1 14 10
M  V30 9 1 15 4
M  V30 10 1 15 6
M  V30 11 1 15 13
M  V30 12 1 16 2
M  V30 13 1 17 10
M  V30 14 1 19 7
M  V30 15 1 1 20 CFG=1
M  V30 16 2 21 14
M  V30 17 1 22 9
M  V30 18 1 22 14
M  V30 19 2 23 3
M  V30 20 1 24 5
M  V30 21 1 24 19
M  V30 22 2 25 10
M  V30 23 1 25 11
M  V30 24 1 25 16
M  V30 25 1 26 13
M  V30 26 1 26 17
M  V30 27 1 7 27 CFG=3
M  V30 28 1 28 11
M  V30 29 1 28 18
M  V30 30 1 29 16
M  V30 31 1 30 2
M  V30 32 1 31 2
M  V30 33 1 32 2
M  V30 34 1 33 3
M  V30 35 1 34 4
M  V30 36 1 35 4
M  V30 37 1 36 4
M  V30 38 1 37 6
M  V30 39 1 38 8
M  V30 40 1 39 8
M  V30 41 1 40 9
M  V30 42 1 11 41 CFG=1
M  V30 43 1 42 12
M  V30 44 1 43 12
M  V30 45 1 13 44 CFG=3
M  V30 46 1 15 45 CFG=1
M  V30 47 1 46 16
M  V30 48 1 47 17
M  V30 49 1 48 17
M  V30 50 1 49 18
M  V30 51 1 50 18
M  V30 52 1 51 18
M  V30 53 1 52 19
M  V30 54 1 53 19
M  V30 55 1 54 20
M  V30 56 1 55 20
M  V30 57 1 56 20
M  V30 58 1 57 22
M  V30 59 1 58 22
M  V30 60 1 59 24
M  V30 61 1 60 24
M  V30 62 1 61 26
M  V30 63 1 62 26
M  V30 64 1 63 27
M  V30 65 1 64 29
M  V30 66 1 65 29
M  V30 67 1 66 29
M  V30 68 1 67 9
M  V30 END BOND
M  V30 END CTAB
M  END
>  <i_epik_Tot_Q>  (1) 
1

>  <i_epik_Tot_abs_Q>  (1) 
1

>  <i_i_glide_confnum>  (1) 
1056

>  <i_i_glide_lignum>  (1) 
14

>  <i_i_glide_posenum>  (1) 
201

>  <i_i_glide_rotatable_bonds>  (1) 
13

>  <i_lp_mmshare_version>  (1) 
72125

>  <i_m_source_file_index>  (1) 
10

>  <i_f3d_flags>  (1) 
0

>  <num_sample>  (1) 
100

>  <b_lp_Chiralities_Consistent>  (1) 
1

>  <r_epik_Charging_Adjusted_Penalty>  (1) 
0.43257487955488089

>  <r_epik_Ionization_Penalty>  (1) 
0.21628819114950359

>  <r_epik_Ionization_Penalty_Charging>  (1) 
0.21628743977744047

>  <r_epik_Ionization_Penalty_Neutral>  (1) 
7.5137206312442099e-07

>  <r_epik_State_Penalty>  (1) 
0.21628743977744042

>  <r_glide_ring_energy>  (1) 
0

>  <r_i_docking_score>  (1) 
-5.0785726527447785

>  <r_i_glide_ecoul>  (1) 
-2.4038546613211578

>  <r_i_glide_eff_state_penalty>  (1) 
0.21628743977744042

>  <r_i_glide_einternal>  (1) 
11.237954963532317

>  <r_i_glide_emodel>  (1) 
-40.47929772089865

>  <r_i_glide_emodel_strain>  (1) 
3.4150664601353213

>  <r_i_glide_energy>  (1) 
-33.655482977998076

>  <r_i_glide_erotb>  (1) 
0.92691700141960698

>  <r_i_glide_esite>  (1) 
-0.069933868864328314

>  <r_i_glide_evdw>  (1) 
-31.251628316676921

>  <r_i_glide_gscore>  (1) 
-5.2948600925222191

>  <r_i_glide_gscore_strain>  (1) 
0

>  <r_i_glide_hbond>  (1) 
0

>  <r_i_glide_ligand_efficiency>  (1) 
-0.17512319492223374

>  <r_i_glide_ligand_efficiency_ln>  (1) 
-1.1628643559876517

>  <r_i_glide_ligand_efficiency_sa>  (1) 
-0.53803393832744117

>  <r_i_glide_lipo>  (1) 
-3.0704708086281376

>  <r_i_glide_metal>  (1) 
-0

>  <r_i_glide_rewards>  (1) 
-1.1582128014173403

>  <r_lp_Energy>  (1) 
42.298378999999997

>  <s_epik_Chemistry_Notes>  (1) 
This compound has an ester and may undergo hydrolysis at high or low pH.

>  <s_epik_cmdline>  (1) 
J2VwaWtfcHl0aG9uJywgJy1waHQnLCAnMS4wJywgJy1waCcsICc3LjQnLCAnLXRuJywgJzgnLCAnLW1hJywgJzUwMCcsICctaW1hZScsICc8aW5maWxlLm1hZT4nLCAnLW9tYWUnLCAnPG91dGZpbGUubWFlPic=

>  <s_epik_input>  (1) 
Tz1bQ0hdT1tDSDJdW0NIMl1bQ0BAXShbQ0gyXTEpKFtPSF0pW0NAXTEoW0NIM10pW05IXVtDSDJdQyg9TylDMj1DKFtDSF0oW0NIM10pW0NIM10pW0NASF0oT1tDSDNdKVtDSDJdW0NAQEhdKFtDQEBIXShbQ0gzXSlbT0hdKVtDSDJdW0NIMl0y

>  <s_glide_docking_method>  (1) 
confgen

>  <s_i_glide_gridfile>  (1) 
gpcr_5ht2c_6bqh_protein_autoprepared_prepared

>  <s_lp_Force_Field>  (1) 
S-OPLS

>  <s_lp_Variant>  (1) 
DiffSBDD_9-2

>  <s_m_source_file>  (1) 
generated_GPCR_5HT2C_ligand_DiffSBDD_2026-06-23_prepared.sdf

>  <GenAI_Model>  (1) 
DiffSBDD

>  <Protein>  (1) 
GPCR_5HT2C

$$$$
DiffSBDD_93
     RDKit          3D

  0  0  0  0  0  0  0  0  0  0999 V3000
M  V30 BEGIN CTAB
M  V30 COUNTS 84 85 0 0 1
M  V30 BEGIN ATOM
M  V30 1 C 39.385636 28.166095 59.200900 0
M  V30 2 O 40.363769 28.274113 60.213618 0
M  V30 3 C 40.367941 30.748029 52.329204 0
M  V30 4 C 41.341003 34.489694 62.205609 0
M  V30 5 O 37.929889 30.216964 60.338137 0
M  V30 6 C 36.845232 35.903622 60.099940 0
M  V30 7 N 37.245103 36.937715 59.367681 0
M  V30 8 O 35.930899 35.167305 59.752406 0
M  V30 9 O 36.845149 29.737866 54.215849 0
M  V30 10 C 41.942416 33.965070 63.497860 0
M  V30 11 C 40.205270 30.320810 53.777242 0
M  V30 12 C 38.348400 31.836071 58.618690 0
M  V30 13 C 39.643741 29.645773 57.203269 0
M  V30 14 C 38.949441 34.863881 61.169208 0 CFG=2
M  V30 15 C 37.597214 35.647447 61.422273 0 CFG=1
M  V30 16 C 39.631915 28.422266 52.410597 0 CFG=1
M  V30 17 C 39.184461 28.279389 54.959220 0 CFG=1
M  V30 18 C 40.302137 27.274202 55.337984 0
M  V30 19 C 37.992279 33.036155 59.510977 0
M  V30 20 S 37.245142 30.137753 55.796999 0 CHG=1
M  V30 21 O 36.962710 32.176580 61.977982 0
M  V30 22 N 39.132982 29.471576 58.577344 0
M  V30 23 O 37.922805 31.666846 55.531541 0
M  V30 24 O 39.820273 29.764975 50.267876 0
M  V30 25 F 37.800640 26.996844 52.665104 0
M  V30 26 C 41.747896 33.032374 62.337081 0
M  V30 27 C 38.336313 32.483412 62.025766 0
M  V30 28 C 38.797251 33.334668 60.813042 0 CFG=2
M  V30 29 C 38.449705 30.434030 59.253067 0
M  V30 30 C 37.740204 36.944789 62.292554 0
M  V30 31 C 38.845105 26.843700 50.616612 0
M  V30 32 C 38.629967 29.031390 56.196701 0 CFG=2
M  V30 33 O 36.265741 38.731748 61.767600 0
M  V30 34 C 39.957247 35.093864 62.334771 0
M  V30 35 C 38.402944 27.760459 51.760710 0 CFG=2
M  V30 36 C 36.444989 37.737737 62.502301 0
M  V30 37 C 40.378686 29.457664 51.527186 0 CFG=1
M  V30 38 O 35.669802 37.338071 63.395989 0 CHG=-1
M  V30 39 N 39.339586 29.115892 53.705686 0 CFG=1 CHG=1
M  V30 40 H 38.468867 27.755910 59.628340 0
M  V30 41 H 39.737222 27.433845 58.472733 0
M  V30 42 H 39.975685 28.047618 61.046630 0
M  V30 43 H 39.526887 31.381157 52.053647 0
M  V30 44 H 41.245089 31.337781 52.130577 0
M  V30 45 H 41.971830 35.067536 61.531245 0
M  V30 46 H 37.989307 37.532435 59.697508 0
M  V30 47 H 36.794905 37.122850 58.484630 0
M  V30 48 H 35.903861 29.836115 54.176032 0
M  V30 49 H 42.943769 34.268157 63.767939 0
M  V30 50 H 41.280157 33.813943 64.348647 0
M  V30 51 H 39.792711 31.151685 54.321970 0
M  V30 52 H 41.153089 30.137769 54.272948 0
M  V30 53 H 39.245155 32.129218 58.089111 0
M  V30 54 H 37.528668 31.799160 57.917189 0
M  V30 55 H 40.585166 29.105432 57.189848 0
M  V30 56 H 39.935298 30.647291 56.905320 0
M  V30 57 H 39.421426 35.326421 60.301216 0
M  V30 58 H 36.948997 34.990063 61.999165 0
M  V30 59 H 40.328644 27.602848 52.567707 0
M  V30 60 H 38.355587 27.618594 54.724915 0
M  V30 61 H 39.960991 26.631613 56.151433 0
M  V30 62 H 40.553474 26.593412 54.525707 0
M  V30 63 H 41.214402 27.745400 55.696626 0
M  V30 64 H 38.113869 33.891578 58.846176 0
M  V30 65 H 36.923343 32.984625 59.702793 0
M  V30 66 H 36.831649 31.667620 61.187816 0
M  V30 67 H 37.279005 32.278390 55.877945 0
M  V30 68 H 39.854874 29.009100 49.700265 0
M  V30 69 H 40.995717 32.263101 62.464976 0
M  V30 70 H 42.635352 32.722090 61.787368 0
M  V30 71 H 38.892791 31.550859 62.075777 0
M  V30 72 H 38.545986 32.960476 62.967828 0
M  V30 73 H 39.805351 33.007124 60.570364 0
M  V30 74 H 38.084955 36.683206 63.293720 0
M  V30 75 H 38.490792 37.614944 61.869334 0
M  V30 76 H 39.214754 27.410448 49.769926 0
M  V30 77 H 39.645125 26.195391 50.967626 0
M  V30 78 H 38.060517 26.176123 50.241531 0
M  V30 79 H 38.125683 28.232134 56.743654 0
M  V30 80 H 40.152821 36.160094 62.444045 0
M  V30 81 H 39.521274 34.798933 63.285120 0
M  V30 82 H 37.664607 28.487544 51.424863 0
M  V30 83 H 41.403708 29.119981 51.367897 0
M  V30 84 H 38.405672 29.495364 53.564009 0
M  V30 END ATOM
M  V30 BEGIN BOND
M  V30 1 1 2 1
M  V30 2 1 7 6
M  V30 3 2 8 6
M  V30 4 1 10 4
M  V30 5 1 11 3
M  V30 6 1 15 6
M  V30 7 1 15 14
M  V30 8 1 18 17
M  V30 9 1 19 12
M  V30 10 1 20 9
M  V30 11 1 22 1
M  V30 12 1 22 13
M  V30 13 1 23 20
M  V30 14 1 26 4
M  V30 15 1 26 10
M  V30 16 1 27 21
M  V30 17 1 28 14
M  V30 18 1 28 19
M  V30 19 1 28 27
M  V30 20 2 29 5
M  V30 21 1 29 12
M  V30 22 1 29 22
M  V30 23 1 30 15
M  V30 24 1 32 13
M  V30 25 1 32 17
M  V30 26 1 32 20
M  V30 27 1 34 4
M  V30 28 1 34 14
M  V30 29 1 35 16
M  V30 30 1 35 25
M  V30 31 1 35 31
M  V30 32 1 36 30
M  V30 33 2 36 33
M  V30 34 1 37 3
M  V30 35 1 37 16
M  V30 36 1 37 24
M  V30 37 1 38 36
M  V30 38 1 39 11
M  V30 39 1 39 16
M  V30 40 1 39 17
M  V30 41 1 40 1
M  V30 42 1 41 1
M  V30 43 1 42 2
M  V30 44 1 43 3
M  V30 45 1 44 3
M  V30 46 1 45 4
M  V30 47 1 46 7
M  V30 48 1 47 7
M  V30 49 1 48 9
M  V30 50 1 49 10
M  V30 51 1 50 10
M  V30 52 1 51 11
M  V30 53 1 52 11
M  V30 54 1 53 12
M  V30 55 1 54 12
M  V30 56 1 55 13
M  V30 57 1 56 13
M  V30 58 1 14 57 CFG=3
M  V30 59 1 15 58 CFG=1
M  V30 60 1 16 59 CFG=1
M  V30 61 1 17 60 CFG=3
M  V30 62 1 61 18
M  V30 63 1 62 18
M  V30 64 1 63 18
M  V30 65 1 64 19
M  V30 66 1 65 19
M  V30 67 1 66 21
M  V30 68 1 67 23
M  V30 69 1 68 24
M  V30 70 1 69 26
M  V30 71 1 70 26
M  V30 72 1 71 27
M  V30 73 1 72 27
M  V30 74 1 28 73 CFG=3
M  V30 75 1 74 30
M  V30 76 1 75 30
M  V30 77 1 76 31
M  V30 78 1 77 31
M  V30 79 1 78 31
M  V30 80 1 32 79 CFG=1
M  V30 81 1 80 34
M  V30 82 1 81 34
M  V30 83 1 35 82 CFG=3
M  V30 84 1 37 83 CFG=3
M  V30 85 1 39 84 CFG=3
M  V30 END BOND
M  V30 END CTAB
M  END
>  <i_epik_Tot_Q>  (1) 
1

>  <i_epik_Tot_abs_Q>  (1) 
3

>  <i_i_glide_confnum>  (1) 
10749

>  <i_i_glide_lignum>  (1) 
224

>  <i_i_glide_posenum>  (1) 
27

>  <i_i_glide_rotatable_bonds>  (1) 
24

>  <i_lp_mmshare_version>  (1) 
72125

>  <i_m_source_file_index>  (1) 
94

>  <i_f3d_flags>  (1) 
0

>  <num_sample>  (1) 
100

>  <b_lp_Chiralities_Consistent>  (1) 
1

>  <r_epik_Charging_Adjusted_Penalty>  (1) 
0.90916677635763199

>  <r_epik_Ionization_Penalty>  (1) 
0.45507897092921873

>  <r_epik_Ionization_Penalty_Charging>  (1) 
0.45507471778648678

>  <r_epik_Ionization_Penalty_Neutral>  (1) 
4.2531427319391784e-06

>  <r_epik_State_Penalty>  (1) 
0.45409205857114521

>  <r_glide_ring_energy>  (1) 
0

>  <r_i_docking_score>  (1) 
-5.0752786229364846

>  <r_i_glide_ecoul>  (1) 
-1.5658146384586527

>  <r_i_glide_eff_state_penalty>  (1) 
0.45409205857114521

>  <r_i_glide_einternal>  (1) 
25.698102246577356

>  <r_i_glide_emodel>  (1) 
-35.862262080632817

>  <r_i_glide_emodel_strain>  (1) 
6.5969744692718137

>  <r_i_glide_energy>  (1) 
-30.418503688760595

>  <r_i_glide_erotb>  (1) 
0.82188833391367333

>  <r_i_glide_esite>  (1) 
-0.12028834618158216

>  <r_i_glide_evdw>  (1) 
-28.85268905030194

>  <r_i_glide_gscore>  (1) 
-5.52937068150763

>  <r_i_glide_gscore_strain>  (1) 
0.64924361731795344

>  <r_i_glide_hbond>  (1) 
-0.3908623834821458

>  <r_i_glide_ligand_efficiency>  (1) 
-0.13013534930606371

>  <r_i_glide_ligand_efficiency_ln>  (1) 
-1.0882838071087853

>  <r_i_glide_ligand_efficiency_sa>  (1) 
-0.44131648570736898

>  <r_i_glide_lipo>  (1) 
-3.3424964717629964

>  <r_i_glide_metal>  (1) 
-0

>  <r_i_glide_rewards>  (1) 
-1.4693487830286376

>  <r_lp_Energy>  (1) 
27.571353999999999

>  <s_epik_Chemistry_Notes>  (1) 
This compound contains an acetal/aminal-like group ( X-CH(R)-Y where X, Y are N, S, or O) that may be acid/base labile, releasing an aldehyde.

>  <s_epik_cmdline>  (1) 
J2VwaWtfcHl0aG9uJywgJy1waHQnLCAnMS4wJywgJy1waCcsICc3LjQnLCAnLXRuJywgJzgnLCAnLW1hJywgJzUwMCcsICctaW1hZScsICc8aW5maWxlLm1hZT4nLCAnLW9tYWUnLCAnPG91dGZpbGUubWFlPic=

>  <s_epik_input>  (1) 
W0NIMl0xW0NIMl1bQ0hdMVtDSDJdW0NAQEhdKFtDQEBIXShDKD1PKVtOSDJdKVtDSDJdQyg9TylbT0hdKVtDQEBIXShbQ0gyXVtPSF0pW0NIMl1bQ0gyXUMoPU8pTihbQ0gyXVtPSF0pW0NIMl1bQ0BASF0oW1MrXShbT0hdKVtPSF0pW0NASF0oW0NIM10pTjJbQ0gyXVtDSDJdW0NASF0oW09IXSlbQ0BASF0yW0NASF0oRilbQ0gzXQ==

>  <s_glide_docking_method>  (1) 
confgen

>  <s_i_glide_gridfile>  (1) 
gpcr_5ht2c_6bqh_protein_autoprepared_prepared

>  <s_lp_Force_Field>  (1) 
S-OPLS

>  <s_lp_Variant>  (1) 
DiffSBDD_93-12

>  <s_m_source_file>  (1) 
generated_GPCR_5HT2C_ligand_DiffSBDD_2026-06-23_prepared.sdf

>  <GenAI_Model>  (1) 
DiffSBDD

>  <Protein>  (1) 
GPCR_5HT2C

$$$$
DiffSBDD_36
     RDKit          3D

  0  0  0  0  0  0  0  0  0  0999 V3000
M  V30 BEGIN CTAB
M  V30 COUNTS 49 49 0 0 1
M  V30 BEGIN ATOM
M  V30 1 C 39.665508 29.595369 55.225296 0
M  V30 2 C 39.144664 26.450871 57.324034 0
M  V30 3 C 40.864475 28.137750 56.925377 0
M  V30 4 C 37.645181 26.906711 55.371069 0
M  V30 5 C 37.151067 31.788418 60.896336 0
M  V30 6 C 38.559617 27.561601 56.421183 0 CFG=1
M  V30 7 C 40.500471 26.952255 57.823745 0
M  V30 8 C 39.805096 30.299097 50.863256 0
M  V30 9 C 39.299809 29.902482 53.961132 0
M  V30 10 C 38.981061 28.888298 52.870316 0
M  V30 11 O 36.045241 31.543727 61.367760 0
M  V30 12 C 37.720692 28.776136 58.506388 0
M  V30 13 C 36.949654 29.865006 59.219119 0
M  V30 14 C 37.776881 28.651742 57.168861 0
M  V30 15 C 39.831056 28.174045 55.780404 0 CFG=1
M  V30 16 C 40.930183 30.489994 49.840936 0
M  V30 17 S 38.033342 33.289221 60.967763 0 CHG=-1
M  V30 18 C 37.870305 30.667229 60.154011 0
M  V30 19 C 39.651667 27.764734 50.729353 0
M  V30 20 C 39.904896 28.972032 51.639987 0 CFG=1
M  V30 21 H 39.861536 30.400316 55.919057 0
M  V30 22 H 39.329650 25.556404 56.726246 0
M  V30 23 H 38.478819 26.133875 58.127158 0
M  V30 24 H 41.891543 28.079914 56.567753 0
M  V30 25 H 40.790609 29.040948 57.531064 0
M  V30 26 H 38.189460 26.197107 54.747126 0
M  V30 27 H 36.844706 26.349188 55.853388 0
M  V30 28 H 37.197821 27.645956 54.707669 0
M  V30 29 H 41.245136 26.159908 57.769471 0
M  V30 30 H 40.445428 27.270414 58.865336 0
M  V30 31 H 38.846005 30.357942 50.353478 0
M  V30 32 H 39.842637 31.145066 51.548829 0
M  V30 33 H 39.216597 30.942353 53.681520 0
M  V30 34 H 39.021625 27.876055 53.258544 0
M  V30 35 H 37.946520 29.039604 52.561672 0
M  V30 36 H 38.247417 28.077179 59.134407 0
M  V30 37 H 36.491501 30.537634 58.493262 0
M  V30 38 H 36.130748 29.403637 59.767790 0
M  V30 39 H 37.242517 29.361726 56.553064 0
M  V30 40 H 40.194847 27.498949 55.006766 0
M  V30 41 H 40.840006 31.463920 49.367768 0
M  V30 42 H 41.911132 30.446218 50.314454 0
M  V30 43 H 40.894774 29.737751 49.053133 0
M  V30 44 H 38.309987 30.005038 60.900256 0
M  V30 45 H 38.706060 31.043178 59.559442 0
M  V30 46 H 38.712817 27.870577 50.193179 0
M  V30 47 H 40.445108 27.668145 49.997430 0
M  V30 48 H 39.621604 26.827703 51.285566 0
M  V30 49 H 40.927034 28.902147 51.986885 0
M  V30 END ATOM
M  V30 BEGIN BOND
M  V30 1 1 6 2
M  V30 2 1 6 4 CFG=3
M  V30 3 1 7 2
M  V30 4 1 7 3
M  V30 5 2 9 1
M  V30 6 1 10 9
M  V30 7 2 11 5
M  V30 8 1 13 12
M  V30 9 1 14 6
M  V30 10 2 14 12
M  V30 11 1 15 1
M  V30 12 1 15 3
M  V30 13 1 15 6
M  V30 14 1 16 8
M  V30 15 1 17 5
M  V30 16 1 18 5
M  V30 17 1 18 13
M  V30 18 1 20 8
M  V30 19 1 20 10
M  V30 20 1 20 19
M  V30 21 1 21 1
M  V30 22 1 22 2
M  V30 23 1 23 2
M  V30 24 1 24 3
M  V30 25 1 25 3
M  V30 26 1 26 4
M  V30 27 1 27 4
M  V30 28 1 28 4
M  V30 29 1 29 7
M  V30 30 1 30 7
M  V30 31 1 31 8
M  V30 32 1 32 8
M  V30 33 1 33 9
M  V30 34 1 34 10
M  V30 35 1 35 10
M  V30 36 1 36 12
M  V30 37 1 37 13
M  V30 38 1 38 13
M  V30 39 1 39 14
M  V30 40 1 15 40 CFG=3
M  V30 41 1 41 16
M  V30 42 1 42 16
M  V30 43 1 43 16
M  V30 44 1 44 18
M  V30 45 1 45 18
M  V30 46 1 46 19
M  V30 47 1 47 19
M  V30 48 1 48 19
M  V30 49 1 20 49 CFG=1
M  V30 END BOND
M  V30 END CTAB
M  END
>  <i_epik_Tot_Q>  (1) 
-1

>  <i_epik_Tot_abs_Q>  (1) 
1

>  <i_i_glide_confnum>  (1) 
119

>  <i_i_glide_lignum>  (1) 
81

>  <i_i_glide_posenum>  (1) 
273

>  <i_i_glide_rotatable_bonds>  (1) 
8

>  <i_lp_mmshare_version>  (1) 
72125

>  <i_m_source_file_index>  (1) 
37

>  <i_f3d_flags>  (1) 
0

>  <num_sample>  (1) 
100

>  <b_lp_Chiralities_Consistent>  (1) 
1

>  <r_epik_Charging_Adjusted_Penalty>  (1) 
9.4165288777969193e-05

>  <r_epik_Ionization_Penalty>  (1) 
9.4165288777969193e-05

>  <r_epik_Ionization_Penalty_Charging>  (1) 
9.4165288777969193e-05

>  <r_epik_Ionization_Penalty_Neutral>  (1) 
0

>  <r_epik_State_Penalty>  (1) 
-0

>  <r_glide_ring_energy>  (1) 
0

>  <r_i_docking_score>  (1) 
-5.074468402235027

>  <r_i_glide_ecoul>  (1) 
-3.4953218015297147

>  <r_i_glide_eff_state_penalty>  (1) 
-0

>  <r_i_glide_einternal>  (1) 
3.0568590520326193

>  <r_i_glide_emodel>  (1) 
-35.588948592410205

>  <r_i_glide_emodel_strain>  (1) 
0.31504873297882341

>  <r_i_glide_energy>  (1) 
-30.232718902235099

>  <r_i_glide_erotb>  (1) 
2.5456975872200465

>  <r_i_glide_esite>  (1) 
-0.013359737765639321

>  <r_i_glide_evdw>  (1) 
-26.737397100705383

>  <r_i_glide_gscore>  (1) 
-5.074468402235027

>  <r_i_glide_gscore_strain>  (1) 
0

>  <r_i_glide_hbond>  (1) 
-0.32000000000000001

>  <r_i_glide_ligand_efficiency>  (1) 
-0.25372342011175136

>  <r_i_glide_ligand_efficiency_ln>  (1) 
-1.2699720739101366

>  <r_i_glide_ligand_efficiency_sa>  (1) 
-0.68871132129404833

>  <r_i_glide_lipo>  (1) 
-3.3143294955453451

>  <r_i_glide_metal>  (1) 
-0

>  <r_i_glide_rewards>  (1) 
-2.1113086308793623

>  <r_lp_Energy>  (1) 
16.069313999999999

>  <r_lp_tautomer_probability>  (1) 
1

>  <s_epik_cmdline>  (1) 
J2VwaWtfcHl0aG9uJywgJy1waHQnLCAnMS4wJywgJy1waCcsICc3LjQnLCAnLXRuJywgJzgnLCAnLW1hJywgJzUwMCcsICctaW1hZScsICc8aW5maWxlLm1hZT4nLCAnLW9tYWUnLCAnPG91dGZpbGUubWFlPic=

>  <s_epik_input>  (1) 
W0NIM11bQ0gyXVtDQEhdKFtDSDNdKVtDSDJdL1tDSF09W0NIXVxbQ0BIXTFbQ0gyXVtDSDJdW0NIMl1bQ0BAXTEoW0NIM10pXFtDSF09W0NIXVxbQ0gyXVtDSDJdQyg9TylbU0hd

>  <s_glide_docking_method>  (1) 
confgen

>  <s_i_glide_gridfile>  (1) 
gpcr_5ht2c_6bqh_protein_autoprepared_prepared

>  <s_lp_Force_Field>  (1) 
S-OPLS

>  <s_lp_Variant>  (1) 
DiffSBDD_36-2

>  <s_m_source_file>  (1) 
generated_GPCR_5HT2C_ligand_DiffSBDD_2026-06-23_prepared.sdf

>  <GenAI_Model>  (1) 
DiffSBDD

>  <Protein>  (1) 
GPCR_5HT2C

$$$$
DiffSBDD_33
     RDKit          3D

  0  0  0  0  0  0  0  0  0  0999 V3000
M  V30 BEGIN CTAB
M  V30 COUNTS 36 39 0 0 1
M  V30 BEGIN ATOM
M  V30 1 O 37.655998 28.376557 52.459293 0
M  V30 2 C 39.079715 28.318621 55.794403 0
M  V30 3 C 36.037637 32.941451 59.767651 0
M  V30 4 C 37.287451 30.843160 58.951199 0
M  V30 5 C 39.000291 28.346519 52.894364 0 CFG=2
M  V30 6 O 38.451138 32.777960 59.545484 0
M  V30 7 C 38.733527 31.161643 54.125301 0 CFG=2
M  V30 8 C 39.244679 27.062095 53.749979 0
M  V30 9 N 38.810857 30.627200 55.474103 0
M  V30 10 C 38.628487 32.660213 58.140789 0
M  V30 11 C 38.292787 31.193781 57.852102 0 CFG=2
M  V30 12 F 37.319090 31.611168 61.164208 0
M  V30 13 C 39.096255 29.459996 55.119905 0
M  V30 14 C 39.329253 29.606077 53.732603 0 CFG=1
M  V30 15 C 39.849259 30.892555 53.134524 0
M  V30 16 C 37.283044 32.047327 59.903028 0 CFG=1
M  V30 17 C 37.761338 30.963706 56.424127 0
M  V30 18 C 39.270283 27.077527 55.105734 0
M  V30 19 H 37.466801 27.579843 51.982181 0
M  V30 20 H 38.868512 28.318762 56.853760 0
M  V30 21 H 35.925008 33.337852 58.758494 0
M  V30 22 H 35.129090 32.386084 60.001516 0
M  V30 23 H 36.092224 33.790021 60.449514 0
M  V30 24 H 36.289625 30.629717 58.567779 0
M  V30 25 H 37.619183 29.942314 59.468930 0
M  V30 26 H 39.657778 28.322954 52.024700 0
M  V30 27 H 37.716915 31.355831 53.786484 0
M  V30 28 H 39.376680 26.137759 53.216733 0
M  V30 29 H 39.637896 32.937757 57.835212 0
M  V30 30 H 37.939006 33.336487 57.633448 0
M  V30 31 H 39.182499 30.585657 58.021616 0
M  V30 32 H 39.645134 31.086106 52.084207 0
M  V30 33 H 40.845122 31.195473 53.444169 0
M  V30 34 H 37.245137 31.853795 56.065588 0
M  V30 35 H 37.023384 30.158647 56.421691 0
M  V30 36 H 39.410681 26.161159 55.659993 0
M  V30 END ATOM
M  V30 BEGIN BOND
M  V30 1 1 5 1
M  V30 2 1 8 5
M  V30 3 1 9 7
M  V30 4 1 10 6
M  V30 5 1 11 4
M  V30 6 1 11 10
M  V30 7 2 13 2
M  V30 8 1 13 9
M  V30 9 1 14 5
M  V30 10 1 14 7
M  V30 11 1 14 13
M  V30 12 1 15 7
M  V30 13 1 14 15 CFG=1
M  V30 14 1 16 3
M  V30 15 1 16 4
M  V30 16 1 16 6
M  V30 17 1 16 12 CFG=1
M  V30 18 1 17 9
M  V30 19 1 17 11
M  V30 20 1 18 2
M  V30 21 2 18 8
M  V30 22 1 19 1
M  V30 23 1 20 2
M  V30 24 1 21 3
M  V30 25 1 22 3
M  V30 26 1 23 3
M  V30 27 1 24 4
M  V30 28 1 25 4
M  V30 29 1 5 26 CFG=3
M  V30 30 1 7 27 CFG=3
M  V30 31 1 28 8
M  V30 32 1 29 10
M  V30 33 1 30 10
M  V30 34 1 11 31 CFG=1
M  V30 35 1 32 15
M  V30 36 1 33 15
M  V30 37 1 34 17
M  V30 38 1 35 17
M  V30 39 1 36 18
M  V30 END BOND
M  V30 END CTAB
M  END
>  <i_epik_Tot_Q>  (1) 
0

>  <i_epik_Tot_abs_Q>  (1) 
0

>  <i_i_glide_confnum>  (1) 
24

>  <i_i_glide_lignum>  (1) 
77

>  <i_i_glide_posenum>  (1) 
209

>  <i_i_glide_rotatable_bonds>  (1) 
3

>  <i_lp_mmshare_version>  (1) 
72125

>  <i_m_source_file_index>  (1) 
34

>  <i_f3d_flags>  (1) 
0

>  <num_sample>  (1) 
100

>  <b_lp_Chiralities_Consistent>  (1) 
1

>  <r_epik_Charging_Adjusted_Penalty>  (1) 
0

>  <r_epik_Ionization_Penalty>  (1) 
1.6271736615724652e-05

>  <r_epik_Ionization_Penalty_Charging>  (1) 
0

>  <r_epik_Ionization_Penalty_Neutral>  (1) 
1.6271736615724652e-05

>  <r_epik_State_Penalty>  (1) 
-0

>  <r_glide_ring_energy>  (1) 
1.0861002676852174

>  <r_i_docking_score>  (1) 
-5.0692367721619842

>  <r_i_glide_ecoul>  (1) 
-4.5241729513157729

>  <r_i_glide_eff_state_penalty>  (1) 
-0

>  <r_i_glide_einternal>  (1) 
2.2104053208584591

>  <r_i_glide_emodel>  (1) 
-35.091332393182228

>  <r_i_glide_emodel_strain>  (1) 
0.70017726090830479

>  <r_i_glide_energy>  (1) 
-28.599732220490992

>  <r_i_glide_erotb>  (1) 
0.55502837294367569

>  <r_i_glide_esite>  (1) 
-0.0099112331440597001

>  <r_i_glide_evdw>  (1) 
-24.075559269175219

>  <r_i_glide_gscore>  (1) 
-5.0692367721619842

>  <r_i_glide_gscore_strain>  (1) 
0

>  <r_i_glide_hbond>  (1) 
-0.082679792773738894

>  <r_i_glide_ligand_efficiency>  (1) 
-0.28162426512011024

>  <r_i_glide_ligand_efficiency_ln>  (1) 
-1.3030211732010224

>  <r_i_glide_ligand_efficiency_sa>  (1) 
-0.7380643692139337

>  <r_i_glide_lipo>  (1) 
-1.6197606752309228

>  <r_i_glide_metal>  (1) 
-0

>  <r_i_glide_rewards>  (1) 
-2.0295095378008119

>  <r_lp_Energy>  (1) 
31.382234999999998

>  <r_lp_tautomer_probability>  (1) 
1

>  <s_epik_cmdline>  (1) 
J2VwaWtfcHl0aG9uJywgJy1waHQnLCAnMS4wJywgJy1waCcsICc3LjQnLCAnLXRuJywgJzgnLCAnLW1hJywgJzUwMCcsICctaW1hZScsICc8aW5maWxlLm1hZT4nLCAnLW9tYWUnLCAnPG91dGZpbGUubWFlPic=

>  <s_epik_input>  (1) 
W09IXVtDQEBIXTFbQ0hdPVtDSF1bQ0hdPUMyTihbQ0hdKEMxMjMpW0NIMl0zKVtDSDJdW0NAQEhdKFtDSDJdTzQpW0NIMl1bQ0BdNChGKVtDSDNd

>  <s_glide_docking_method>  (1) 
confgen

>  <s_i_glide_gridfile>  (1) 
gpcr_5ht2c_6bqh_protein_autoprepared_prepared

>  <s_lp_Force_Field>  (1) 
S-OPLS

>  <s_lp_Variant>  (1) 
DiffSBDD_33-1

>  <s_m_source_file>  (1) 
generated_GPCR_5HT2C_ligand_DiffSBDD_2026-06-23_prepared.sdf

>  <GenAI_Model>  (1) 
DiffSBDD

>  <Protein>  (1) 
GPCR_5HT2C

$$$$
DiffSBDD_54
     RDKit          3D

  0  0  0  0  0  0  0  0  0  0999 V3000
M  V30 BEGIN CTAB
M  V30 COUNTS 42 43 0 0 1
M  V30 BEGIN ATOM
M  V30 1 C 38.196983 32.257195 57.744618 0
M  V30 2 C 39.278149 27.794423 57.783040 0
M  V30 3 C 39.181002 28.554599 60.137459 0
M  V30 4 C 37.368376 27.796123 53.178955 0
M  V30 5 C 37.517351 29.432207 55.139989 0
M  V30 6 S 37.370093 29.707169 58.281738 0 CHG=1
M  V30 7 C 37.535813 31.531831 60.025891 0
M  V30 8 N 40.332192 27.660655 57.004027 0
M  V30 9 C 39.653544 30.825658 55.596094 0
M  V30 10 C 40.045137 26.410465 56.475546 0
M  V30 11 N 38.900690 25.840394 56.906207 0
M  V30 12 N 38.448681 26.772724 57.754606 0
M  V30 13 N 37.645138 31.016459 57.151132 0 CFG=2 CHG=1
M  V30 14 C 38.124541 30.720023 55.757723 0 CFG=2
M  V30 15 C 37.428527 32.657166 58.999239 0
M  V30 16 C 38.090264 29.008747 53.775093 0
M  V30 17 O 36.903489 30.336188 59.564495 0
M  V30 18 C 39.024274 28.988640 58.664308 0 CFG=2
M  V30 19 H 38.139518 33.066999 57.015184 0
M  V30 20 H 39.245133 32.123792 57.996784 0
M  V30 21 H 40.166942 28.117885 60.304053 0
M  V30 22 H 38.445161 27.798024 60.409730 0
M  V30 23 H 39.080352 29.371622 60.846685 0
M  V30 24 H 37.831495 27.490695 52.240001 0
M  V30 25 H 36.325017 28.020822 52.967770 0
M  V30 26 H 37.399947 26.941144 53.855362 0
M  V30 27 H 36.445143 29.592682 55.029753 0
M  V30 28 H 37.645132 28.577160 55.796392 0
M  V30 29 H 38.582351 31.374293 60.282552 0
M  V30 30 H 37.039628 31.835793 60.948118 0
M  V30 31 H 39.954141 30.752570 54.551241 0
M  V30 32 H 40.167806 30.040447 56.134854 0
M  V30 33 H 40.045119 31.785083 55.929944 0
M  V30 34 H 40.690653 25.915415 55.764460 0
M  V30 35 H 37.595330 26.660188 58.284415 0
M  V30 36 H 37.726088 31.540904 55.157796 0
M  V30 37 H 37.850287 33.575089 59.410785 0
M  V30 38 H 36.385431 32.875115 58.768818 0
M  V30 39 H 38.045229 29.836350 53.071019 0
M  V30 40 H 39.143463 28.747076 53.880946 0
M  V30 41 H 39.781789 29.743617 58.458914 0
M  V30 42 H 36.675305 31.337752 56.967761 0
M  V30 END ATOM
M  V30 BEGIN BOND
M  V30 1 2 8 2
M  V30 2 1 10 8
M  V30 3 2 11 10
M  V30 4 1 12 2
M  V30 5 1 12 11
M  V30 6 1 13 1
M  V30 7 1 13 6
M  V30 8 1 14 5
M  V30 9 1 14 9
M  V30 10 1 14 13
M  V30 11 1 15 1
M  V30 12 1 15 7
M  V30 13 1 16 4
M  V30 14 1 16 5
M  V30 15 1 6 17 CFG=1
M  V30 16 1 17 7
M  V30 17 1 18 2
M  V30 18 1 18 3
M  V30 19 1 18 6
M  V30 20 1 19 1
M  V30 21 1 20 1
M  V30 22 1 21 3
M  V30 23 1 22 3
M  V30 24 1 23 3
M  V30 25 1 24 4
M  V30 26 1 25 4
M  V30 27 1 26 4
M  V30 28 1 27 5
M  V30 29 1 28 5
M  V30 30 1 29 7
M  V30 31 1 30 7
M  V30 32 1 31 9
M  V30 33 1 32 9
M  V30 34 1 33 9
M  V30 35 1 34 10
M  V30 36 1 35 12
M  V30 37 1 14 36 CFG=3
M  V30 38 1 37 15
M  V30 39 1 38 15
M  V30 40 1 39 16
M  V30 41 1 40 16
M  V30 42 1 18 41 CFG=3
M  V30 43 1 13 42 CFG=3
M  V30 END BOND
M  V30 END CTAB
M  END
>  <i_epik_Tot_Q>  (1) 
2

>  <i_epik_Tot_abs_Q>  (1) 
2

>  <i_i_glide_confnum>  (1) 
34

>  <i_i_glide_lignum>  (1) 
116

>  <i_i_glide_posenum>  (1) 
102

>  <i_i_glide_rotatable_bonds>  (1) 
5

>  <i_lp_mmshare_version>  (1) 
72125

>  <i_m_source_file_index>  (1) 
55

>  <i_f3d_flags>  (1) 
0

>  <num_sample>  (1) 
100

>  <b_lp_Chiralities_Consistent>  (1) 
1

>  <r_epik_Charging_Adjusted_Penalty>  (1) 
0.22285261290592212

>  <r_epik_Ionization_Penalty>  (1) 
0.11376846567106323

>  <r_epik_Ionization_Penalty_Charging>  (1) 
0.11142630645296109

>  <r_epik_Ionization_Penalty_Neutral>  (1) 
0.0023421592181021404

>  <r_epik_State_Penalty>  (1) 
0.11142630645296105

>  <r_glide_ring_energy>  (1) 
0

>  <r_i_docking_score>  (1) 
-5.0600549260140362

>  <r_i_glide_ecoul>  (1) 
-7.7529112710509214

>  <r_i_glide_eff_state_penalty>  (1) 
0.11142630645296105

>  <r_i_glide_einternal>  (1) 
3.8721540000317631

>  <r_i_glide_emodel>  (1) 
-46.562093563358566

>  <r_i_glide_emodel_strain>  (1) 
0.51014275701580658

>  <r_i_glide_energy>  (1) 
-32.925783752847089

>  <r_i_glide_erotb>  (1) 
0.96597774364564237

>  <r_i_glide_esite>  (1) 
-0.15409440506360092

>  <r_i_glide_evdw>  (1) 
-25.172872481796169

>  <r_i_glide_gscore>  (1) 
-5.1714812324669976

>  <r_i_glide_gscore_strain>  (1) 
0

>  <r_i_glide_hbond>  (1) 
-0.14585470781336313

>  <r_i_glide_ligand_efficiency>  (1) 
-0.28111416255633537

>  <r_i_glide_ligand_efficiency_ln>  (1) 
-1.3006610269940919

>  <r_i_glide_ligand_efficiency_sa>  (1) 
-0.73672752230975669

>  <r_i_glide_lipo>  (1) 
-1.1304570047367941

>  <r_i_glide_metal>  (1) 
-0

>  <r_i_glide_rewards>  (1) 
-2.2854725437514354

>  <r_lp_Energy>  (1) 
20.164648

>  <r_lp_tautomer_probability>  (1) 
0.94828448534560383

>  <s_epik_cmdline>  (1) 
J2VwaWtfcHl0aG9uJywgJy1waHQnLCAnMS4wJywgJy1waCcsICc3LjQnLCAnLXRuJywgJzgnLCAnLW1hJywgJzUwMCcsICctaW1hZScsICc8aW5maWxlLm1hZT4nLCAnLW9tYWUnLCAnPG91dGZpbGUubWFlPic=

>  <s_epik_input>  (1) 
W0NIM11bQ0gyXVtDSDJdW0NASF0oW0NIM10pTihbQ0gyXVtDSDJdW0NIMl1PMSlbUytdMVtDQEBIXShbQ0gzXSljMm5bY0hdbltuSF0y

>  <s_glide_docking_method>  (1) 
confgen

>  <s_i_glide_gridfile>  (1) 
gpcr_5ht2c_6bqh_protein_autoprepared_prepared

>  <s_lp_Force_Field>  (1) 
S-OPLS

>  <s_lp_Variant>  (1) 
DiffSBDD_54-2

>  <s_m_source_file>  (1) 
generated_GPCR_5HT2C_ligand_DiffSBDD_2026-06-23_prepared.sdf

>  <GenAI_Model>  (1) 
DiffSBDD

>  <Protein>  (1) 
GPCR_5HT2C

$$$$
DiffSBDD_9
     RDKit          3D

  0  0  0  0  0  0  0  0  0  0999 V3000
M  V30 BEGIN CTAB
M  V30 COUNTS 66 67 0 0 1
M  V30 BEGIN ATOM
M  V30 1 C 36.886987 33.108363 60.609590 0 CFG=1
M  V30 2 C 38.931729 25.928817 58.565644 0
M  V30 3 C 36.845196 38.838835 61.367757 0
M  V30 4 C 39.367909 27.926511 51.979464 0
M  V30 5 O 36.445681 37.650928 60.897870 0
M  V30 6 O 37.201761 28.166310 52.967576 0
M  V30 7 C 36.569795 34.520025 60.170956 0 CFG=1
M  V30 8 C 35.752885 33.875706 61.267588 0
M  V30 9 N 36.566689 32.046361 59.655672 0
M  V30 10 C 38.813234 29.660811 57.609629 0
M  V30 11 C 39.973770 27.707296 56.470632 0 CFG=2
M  V30 12 C 39.157280 27.640393 55.164053 0
M  V30 13 C 39.043072 28.956449 54.363352 0 CFG=1
M  V30 14 C 38.132048 30.310780 58.809487 0
M  V30 15 C 38.485657 28.751716 52.932827 0 CFG=1
M  V30 16 C 39.052534 27.434637 58.887406 0
M  V30 17 C 39.015004 30.551378 56.375033 0
M  V30 18 C 42.189071 28.137801 57.286316 0
M  V30 19 C 37.607531 35.615915 60.334229 0
M  V30 20 C 38.107743 32.760317 61.454376 0
M  V30 21 O 37.983990 29.748155 59.889576 0
M  V30 22 C 37.623168 31.744817 58.671969 0
M  V30 23 O 37.832515 39.461263 60.967710 0
M  V30 24 C 37.160651 37.002970 59.858048 0
M  V30 25 C 39.241584 28.352763 57.658232 0
M  V30 26 C 38.263297 30.046183 55.132413 0
M  V30 27 O 35.825544 34.555955 58.967750 0
M  V30 28 O 41.234123 28.310216 56.243067 0
M  V30 29 C 40.155643 27.737869 59.929196 0
M  V30 30 H 38.313931 25.760529 57.681738 0
M  V30 31 H 39.903384 25.458644 58.408290 0
M  V30 32 H 38.445120 25.385047 59.367590 0
M  V30 33 H 36.166951 39.168755 62.154431 0
M  V30 34 H 40.355116 28.375299 51.862327 0
M  V30 35 H 39.498615 26.897298 52.312734 0
M  V30 36 H 38.919444 27.880922 50.985986 0
M  V30 37 H 37.286030 27.250541 53.186577 0
M  V30 38 H 35.895710 34.264222 62.271546 0
M  V30 39 H 34.732069 33.572625 61.038763 0
M  V30 40 H 35.730787 32.307472 59.132134 0
M  V30 41 H 40.227727 26.673106 56.671265 0
M  V30 42 H 39.644769 26.896200 54.536760 0
M  V30 43 H 38.165226 27.241951 55.379260 0
M  V30 44 H 40.045043 29.353589 54.219912 0
M  V30 45 H 38.390558 29.737247 52.484427 0
M  V30 46 H 38.061164 27.603713 59.290746 0
M  V30 47 H 38.811399 31.608324 56.517224 0
M  V30 48 H 40.074713 30.568841 56.151847 0
M  V30 49 H 43.168735 28.487975 56.966577 0
M  V30 50 H 41.925846 28.745749 58.151610 0
M  V30 51 H 42.293906 27.092209 57.579746 0
M  V30 52 H 37.936939 35.668442 61.372078 0
M  V30 53 H 38.479992 35.307096 59.767605 0
M  V30 54 H 38.297416 33.530606 62.197750 0
M  V30 55 H 37.947992 31.816674 61.976239 0
M  V30 56 H 39.007694 32.673106 60.845615 0
M  V30 57 H 37.245121 31.906417 57.671118 0
M  V30 58 H 38.466274 32.427397 58.772639 0
M  V30 59 H 38.042997 37.568878 59.560935 0
M  V30 60 H 36.536486 36.936408 58.967263 0
M  V30 61 H 38.109816 30.899684 54.470353 0
M  V30 62 H 37.263966 29.701609 55.402932 0
M  V30 63 H 36.386003 34.316476 58.243832 0
M  V30 64 H 40.312431 28.807220 60.065411 0
M  V30 65 H 39.961174 27.338386 60.918205 0
M  V30 66 H 41.109085 27.337918 59.605354 0
M  V30 END ATOM
M  V30 BEGIN BOND
M  V30 1 1 5 3
M  V30 2 1 7 1
M  V30 3 1 8 1
M  V30 4 1 8 7
M  V30 5 1 1 9 CFG=3
M  V30 6 1 12 11
M  V30 7 1 13 12
M  V30 8 1 14 10
M  V30 9 1 15 4
M  V30 10 1 15 6
M  V30 11 1 15 13
M  V30 12 1 16 2
M  V30 13 1 17 10
M  V30 14 1 19 7
M  V30 15 1 20 1
M  V30 16 2 21 14
M  V30 17 1 22 9
M  V30 18 1 22 14
M  V30 19 2 23 3
M  V30 20 1 24 5
M  V30 21 1 24 19
M  V30 22 2 25 10
M  V30 23 1 25 11
M  V30 24 1 25 16
M  V30 25 1 26 13
M  V30 26 1 26 17
M  V30 27 1 7 27 CFG=3
M  V30 28 1 28 11
M  V30 29 1 28 18
M  V30 30 1 29 16
M  V30 31 1 30 2
M  V30 32 1 31 2
M  V30 33 1 32 2
M  V30 34 1 33 3
M  V30 35 1 34 4
M  V30 36 1 35 4
M  V30 37 1 36 4
M  V30 38 1 37 6
M  V30 39 1 38 8
M  V30 40 1 39 8
M  V30 41 1 40 9
M  V30 42 1 11 41 CFG=1
M  V30 43 1 42 12
M  V30 44 1 43 12
M  V30 45 1 13 44 CFG=3
M  V30 46 1 15 45 CFG=3
M  V30 47 1 46 16
M  V30 48 1 47 17
M  V30 49 1 48 17
M  V30 50 1 49 18
M  V30 51 1 50 18
M  V30 52 1 51 18
M  V30 53 1 52 19
M  V30 54 1 53 19
M  V30 55 1 54 20
M  V30 56 1 55 20
M  V30 57 1 56 20
M  V30 58 1 57 22
M  V30 59 1 58 22
M  V30 60 1 59 24
M  V30 61 1 60 24
M  V30 62 1 61 26
M  V30 63 1 62 26
M  V30 64 1 63 27
M  V30 65 1 64 29
M  V30 66 1 65 29
M  V30 67 1 66 29
M  V30 END BOND
M  V30 END CTAB
M  END
>  <i_epik_Tot_Q>  (1) 
0

>  <i_epik_Tot_abs_Q>  (1) 
0

>  <i_i_glide_confnum>  (1) 
538

>  <i_i_glide_lignum>  (1) 
15

>  <i_i_glide_posenum>  (1) 
291

>  <i_i_glide_rotatable_bonds>  (1) 
13

>  <i_lp_mmshare_version>  (1) 
72125

>  <i_m_source_file_index>  (1) 
10

>  <i_f3d_flags>  (1) 
0

>  <num_sample>  (1) 
100

>  <b_lp_Chiralities_Consistent>  (1) 
1

>  <r_epik_Charging_Adjusted_Penalty>  (1) 
0.70191645640278022

>  <r_epik_Ionization_Penalty>  (1) 
0.70191663338499877

>  <r_epik_Ionization_Penalty_Charging>  (1) 
0

>  <r_epik_Ionization_Penalty_Neutral>  (1) 
0.70191663338499877

>  <r_epik_State_Penalty>  (1) 
0.70191645640278022

>  <r_glide_ring_energy>  (1) 
0

>  <r_i_docking_score>  (1) 
-5.0547263315774931

>  <r_i_glide_ecoul>  (1) 
-4.9276570821954175

>  <r_i_glide_eff_state_penalty>  (1) 
0.70191645640278022

>  <r_i_glide_einternal>  (1) 
27.363571126009717

>  <r_i_glide_emodel>  (1) 
-33.677917950411732

>  <r_i_glide_emodel_strain>  (1) 
0.84276832305317839

>  <r_i_glide_energy>  (1) 
-36.485197659868703

>  <r_i_glide_erotb>  (1) 
0.93101816362055201

>  <r_i_glide_esite>  (1) 
-0.034628819000756726

>  <r_i_glide_evdw>  (1) 
-31.557540577673286

>  <r_i_glide_gscore>  (1) 
-5.7566427879802733

>  <r_i_glide_gscore_strain>  (1) 
0

>  <r_i_glide_hbond>  (1) 
-0.04076212097779653

>  <r_i_glide_ligand_efficiency>  (1) 
-0.1743009079854308

>  <r_i_glide_ligand_efficiency_ln>  (1) 
-1.1574041531308741

>  <r_i_glide_ligand_efficiency_sa>  (1) 
-0.53550761233595978

>  <r_i_glide_lipo>  (1) 
-3.161963085524389

>  <r_i_glide_metal>  (1) 
-0

>  <r_i_glide_rewards>  (1) 
-1.1332813348849056

>  <r_lp_Energy>  (1) 
40.571261999999997

>  <s_epik_Chemistry_Notes>  (1) 
This compound has an ester and may undergo hydrolysis at high or low pH.

>  <s_epik_cmdline>  (1) 
J2VwaWtfcHl0aG9uJywgJy1waHQnLCAnMS4wJywgJy1waCcsICc3LjQnLCAnLXRuJywgJzgnLCAnLW1hJywgJzUwMCcsICctaW1hZScsICc8aW5maWxlLm1hZT4nLCAnLW9tYWUnLCAnPG91dGZpbGUubWFlPic=

>  <s_epik_input>  (1) 
Tz1bQ0hdT1tDSDJdW0NIMl1bQ0BAXShbQ0gyXTEpKFtPSF0pW0NAXTEoW0NIM10pW05IXVtDSDJdQyg9TylDMj1DKFtDSF0oW0NIM10pW0NIM10pW0NASF0oT1tDSDNdKVtDSDJdW0NAQEhdKFtDQEBIXShbQ0gzXSlbT0hdKVtDSDJdW0NIMl0y

>  <s_glide_docking_method>  (1) 
confgen

>  <s_i_glide_gridfile>  (1) 
gpcr_5ht2c_6bqh_protein_autoprepared_prepared

>  <s_lp_Force_Field>  (1) 
S-OPLS

>  <s_lp_Variant>  (1) 
DiffSBDD_9-3

>  <s_m_source_file>  (1) 
generated_GPCR_5HT2C_ligand_DiffSBDD_2026-06-23_prepared.sdf

>  <GenAI_Model>  (1) 
DiffSBDD

>  <Protein>  (1) 
GPCR_5HT2C

$$$$
DiffSBDD_9
     RDKit          3D

  0  0  0  0  0  0  0  0  0  0999 V3000
M  V30 BEGIN CTAB
M  V30 COUNTS 66 67 0 0 1
M  V30 BEGIN ATOM
M  V30 1 C 37.779179 33.545038 60.149169 0 CFG=1
M  V30 2 C 37.644938 26.199762 57.815524 0
M  V30 3 C 36.445149 37.353336 63.062574 0
M  V30 4 C 39.459479 27.853638 51.523972 0
M  V30 5 O 37.178751 36.918549 62.034109 0
M  V30 6 O 37.245086 28.137763 52.419056 0
M  V30 7 C 36.898766 34.783280 60.030382 0 CFG=1
M  V30 8 C 37.048418 34.071539 61.357953 0
M  V30 9 N 37.292166 32.253720 59.667762 0
M  V30 10 C 38.412959 29.665638 57.039117 0
M  V30 11 C 39.627803 27.725585 55.992937 0 CFG=2
M  V30 12 C 38.947597 27.666519 54.633283 0
M  V30 13 C 38.987517 28.978735 53.823834 0 CFG=1
M  V30 14 C 37.624965 30.303090 58.156489 0
M  V30 15 C 38.522186 28.729301 52.373484 0 CFG=1
M  V30 16 C 38.502757 27.400531 58.265372 0
M  V30 17 C 38.776027 30.588378 55.861053 0
M  V30 18 C 41.833304 28.137749 56.870100 0
M  V30 19 C 37.422568 36.190676 59.767822 0
M  V30 20 C 39.298953 33.612705 60.158766 0
M  V30 21 O 36.888858 29.673723 58.915664 0
M  V30 22 C 37.760532 31.819660 58.350069 0
M  V30 23 O 35.500613 38.137809 62.970849 0
M  V30 24 C 36.845053 37.264554 60.698021 0
M  V30 25 C 38.796265 28.347572 57.094971 0
M  V30 26 C 38.193983 30.111498 54.510606 0
M  V30 27 O 35.656385 34.509921 59.410468 0
M  V30 28 O 40.845160 28.409818 55.878041 0
M  V30 29 C 39.825724 26.959611 58.880618 0
M  V30 30 H 36.613077 26.505837 57.651062 0
M  V30 31 H 37.997103 25.730729 56.897808 0
M  V30 32 H 37.645110 25.414505 58.567727 0
M  V30 33 H 36.815947 36.913668 63.988239 0
M  V30 34 H 40.472943 28.254010 51.528462 0
M  V30 35 H 39.505753 26.821830 51.869704 0
M  V30 36 H 39.131276 27.828829 50.484601 0
M  V30 37 H 37.129592 27.567370 51.669182 0
M  V30 38 H 37.682863 34.511935 62.122664 0
M  V30 39 H 36.191173 33.514310 61.734031 0
M  V30 40 H 36.274852 32.271701 59.643536 0
M  V30 41 H 39.859391 26.687498 56.224033 0
M  V30 42 H 39.457371 26.886358 54.070417 0
M  V30 43 H 37.922137 27.317384 54.762015 0
M  V30 44 H 40.013284 29.337836 53.746107 0
M  V30 45 H 38.452880 29.683757 51.862480 0
M  V30 46 H 38.045151 27.826343 59.137575 0
M  V30 47 H 38.409462 31.602924 55.989971 0
M  V30 48 H 39.858036 30.697524 55.797131 0
M  V30 49 H 42.797276 28.537732 56.567823 0
M  V30 50 H 41.608216 28.650584 57.798779 0
M  V30 51 H 41.989935 27.072191 57.028007 0
M  V30 52 H 38.498797 36.197190 59.909572 0
M  V30 53 H 37.245231 36.452572 58.724586 0
M  V30 54 H 39.652076 34.426871 60.791603 0
M  V30 55 H 39.721195 32.683906 60.545642 0
M  V30 56 H 39.673909 33.780218 59.150345 0
M  V30 57 H 37.245196 32.371699 57.568225 0
M  V30 58 H 38.820099 32.033856 58.228527 0
M  V30 59 H 37.271858 38.240320 60.462072 0
M  V30 60 H 35.768074 37.338690 60.552067 0
M  V30 61 H 38.184836 30.970913 53.839157 0
M  V30 62 H 37.148005 29.828375 54.635153 0
M  V30 63 H 35.804734 34.369608 58.485389 0
M  V30 64 H 40.411220 27.806924 59.226058 0
M  V30 65 H 39.645137 26.422012 59.767752 0
M  V30 66 H 40.414431 26.290950 58.258357 0
M  V30 END ATOM
M  V30 BEGIN BOND
M  V30 1 1 5 3
M  V30 2 1 7 1
M  V30 3 1 8 1
M  V30 4 1 8 7
M  V30 5 1 1 9 CFG=3
M  V30 6 1 12 11
M  V30 7 1 13 12
M  V30 8 1 14 10
M  V30 9 1 15 4
M  V30 10 1 15 6
M  V30 11 1 15 13
M  V30 12 1 16 2
M  V30 13 1 17 10
M  V30 14 1 19 7
M  V30 15 1 20 1
M  V30 16 2 21 14
M  V30 17 1 22 9
M  V30 18 1 22 14
M  V30 19 2 23 3
M  V30 20 1 24 5
M  V30 21 1 24 19
M  V30 22 2 25 10
M  V30 23 1 25 11
M  V30 24 1 25 16
M  V30 25 1 26 13
M  V30 26 1 26 17
M  V30 27 1 7 27 CFG=3
M  V30 28 1 28 11
M  V30 29 1 28 18
M  V30 30 1 29 16
M  V30 31 1 30 2
M  V30 32 1 31 2
M  V30 33 1 32 2
M  V30 34 1 33 3
M  V30 35 1 34 4
M  V30 36 1 35 4
M  V30 37 1 36 4
M  V30 38 1 37 6
M  V30 39 1 38 8
M  V30 40 1 39 8
M  V30 41 1 40 9
M  V30 42 1 11 41 CFG=1
M  V30 43 1 42 12
M  V30 44 1 43 12
M  V30 45 1 13 44 CFG=3
M  V30 46 1 15 45 CFG=3
M  V30 47 1 46 16
M  V30 48 1 47 17
M  V30 49 1 48 17
M  V30 50 1 49 18
M  V30 51 1 50 18
M  V30 52 1 51 18
M  V30 53 1 52 19
M  V30 54 1 53 19
M  V30 55 1 54 20
M  V30 56 1 55 20
M  V30 57 1 56 20
M  V30 58 1 57 22
M  V30 59 1 58 22
M  V30 60 1 59 24
M  V30 61 1 60 24
M  V30 62 1 61 26
M  V30 63 1 62 26
M  V30 64 1 63 27
M  V30 65 1 64 29
M  V30 66 1 65 29
M  V30 67 1 66 29
M  V30 END BOND
M  V30 END CTAB
M  END
>  <i_epik_Tot_Q>  (1) 
0

>  <i_epik_Tot_abs_Q>  (1) 
0

>  <i_i_glide_confnum>  (1) 
1202

>  <i_i_glide_lignum>  (1) 
15

>  <i_i_glide_posenum>  (1) 
282

>  <i_i_glide_rotatable_bonds>  (1) 
13

>  <i_lp_mmshare_version>  (1) 
72125

>  <i_m_source_file_index>  (1) 
10

>  <i_f3d_flags>  (1) 
0

>  <num_sample>  (1) 
100

>  <b_lp_Chiralities_Consistent>  (1) 
1

>  <r_epik_Charging_Adjusted_Penalty>  (1) 
0.70191645640278022

>  <r_epik_Ionization_Penalty>  (1) 
0.70191663338499877

>  <r_epik_Ionization_Penalty_Charging>  (1) 
0

>  <r_epik_Ionization_Penalty_Neutral>  (1) 
0.70191663338499877

>  <r_epik_State_Penalty>  (1) 
0.70191645640278022

>  <r_glide_ring_energy>  (1) 
0

>  <r_i_docking_score>  (1) 
-5.0511422594438029

>  <r_i_glide_ecoul>  (1) 
-4.8944506807918398

>  <r_i_glide_eff_state_penalty>  (1) 
0.70191645640278022

>  <r_i_glide_einternal>  (1) 
18.402299715604883

>  <r_i_glide_emodel>  (1) 
-33.895473858351394

>  <r_i_glide_emodel_strain>  (1) 
2.2197247165925376

>  <r_i_glide_energy>  (1) 
-33.606369403231184

>  <r_i_glide_erotb>  (1) 
0.93101816362055201

>  <r_i_glide_esite>  (1) 
-0.075998980780610376

>  <r_i_glide_evdw>  (1) 
-28.711918722439346

>  <r_i_glide_gscore>  (1) 
-5.7530587158465831

>  <r_i_glide_gscore_strain>  (1) 
0

>  <r_i_glide_hbond>  (1) 
-0.22450237749188673

>  <r_i_glide_ligand_efficiency>  (1) 
-0.17417731929116562

>  <r_i_glide_ligand_efficiency_ln>  (1) 
-1.1565834914964865

>  <r_i_glide_ligand_efficiency_sa>  (1) 
-0.53512790871110427

>  <r_i_glide_lipo>  (1) 
-2.950261600773834

>  <r_i_glide_metal>  (1) 
-0

>  <r_i_glide_rewards>  (1) 
-1.2635503821800607

>  <r_lp_Energy>  (1) 
40.571261999999997

>  <s_epik_Chemistry_Notes>  (1) 
This compound has an ester and may undergo hydrolysis at high or low pH.

>  <s_epik_cmdline>  (1) 
J2VwaWtfcHl0aG9uJywgJy1waHQnLCAnMS4wJywgJy1waCcsICc3LjQnLCAnLXRuJywgJzgnLCAnLW1hJywgJzUwMCcsICctaW1hZScsICc8aW5maWxlLm1hZT4nLCAnLW9tYWUnLCAnPG91dGZpbGUubWFlPic=

>  <s_epik_input>  (1) 
Tz1bQ0hdT1tDSDJdW0NIMl1bQ0BAXShbQ0gyXTEpKFtPSF0pW0NAXTEoW0NIM10pW05IXVtDSDJdQyg9TylDMj1DKFtDSF0oW0NIM10pW0NIM10pW0NASF0oT1tDSDNdKVtDSDJdW0NAQEhdKFtDQEBIXShbQ0gzXSlbT0hdKVtDSDJdW0NIMl0y

>  <s_glide_docking_method>  (1) 
confgen

>  <s_i_glide_gridfile>  (1) 
gpcr_5ht2c_6bqh_protein_autoprepared_prepared

>  <s_lp_Force_Field>  (1) 
S-OPLS

>  <s_lp_Variant>  (1) 
DiffSBDD_9-3

>  <s_m_source_file>  (1) 
generated_GPCR_5HT2C_ligand_DiffSBDD_2026-06-23_prepared.sdf

>  <GenAI_Model>  (1) 
DiffSBDD

>  <Protein>  (1) 
GPCR_5HT2C

$$$$
DiffSBDD_0
     RDKit          3D

  0  0  0  0  0  0  0  0  0  0999 V3000
M  V30 BEGIN CTAB
M  V30 COUNTS 61 60 0 0 1
M  V30 BEGIN ATOM
M  V30 1 C 39.296820 30.129324 61.853728 0
M  V30 2 C 36.488832 33.445068 59.078815 0
M  V30 3 C 37.822567 24.625215 56.649862 0 CFG=1
M  V30 4 C 39.009799 32.408481 56.988579 0
M  V30 5 C 37.466345 32.255887 59.032616 0 CFG=1
M  V30 6 C 39.444378 29.352834 56.307938 0
M  V30 7 C 38.922633 25.582814 56.150100 0
M  V30 8 C 38.894931 30.429724 55.337343 0 CFG=2
M  V30 9 C 39.957209 28.743756 61.793830 0
M  V30 10 C 38.722452 32.698847 58.279708 0
M  V30 11 C 38.132008 31.586454 56.046693 0 CFG=2
M  V30 12 C 37.822420 31.766970 60.459864 0 CFG=1
M  V30 13 O 36.629861 31.448008 61.155189 0
M  V30 14 C 39.729819 26.305143 57.253643 0
M  V30 15 C 39.013289 27.455332 58.002707 0
M  V30 16 O 37.645139 32.452137 55.038086 0
M  V30 17 C 38.727771 30.513956 60.470305 0
M  V30 18 O 36.844649 25.337767 57.367696 0
M  V30 19 C 38.396678 28.558059 57.115126 0
M  V30 20 C 40.291513 31.168654 62.398966 0
M  V30 21 C 37.093384 23.917604 55.498548 0
M  V30 22 O 37.955742 29.804781 54.486605 0
M  V30 23 C 40.022642 30.936540 54.409910 0
M  V30 24 H 38.468379 30.059619 62.559983 0
M  V30 25 H 36.314843 33.838140 58.077896 0
M  V30 26 H 35.514627 33.159500 59.475621 0
M  V30 27 H 36.878776 34.261227 59.687783 0
M  V30 28 H 38.259851 23.881149 57.317670 0
M  V30 29 H 39.930720 32.781734 56.566462 0
M  V30 30 H 36.966421 31.428244 58.538726 0
M  V30 31 H 40.121407 29.821986 57.018112 0
M  V30 32 H 40.049368 28.652562 55.732105 0
M  V30 33 H 39.631082 24.991190 55.567705 0
M  V30 34 H 38.511736 26.303553 55.443352 0
M  V30 35 H 40.797926 28.726838 61.099985 0
M  V30 36 H 40.326975 28.440773 62.774017 0
M  V30 37 H 39.243673 27.987202 61.470310 0
M  V30 38 H 39.423427 33.295368 58.845611 0
M  V30 39 H 37.269277 31.153366 56.538216 0
M  V30 40 H 38.307235 32.586284 60.990162 0
M  V30 41 H 35.999493 32.127570 60.963923 0
M  V30 42 H 40.075423 25.569142 57.980812 0
M  V30 43 H 40.638459 26.703920 56.802644 0
M  V30 44 H 38.234976 27.042657 58.642862 0
M  V30 45 H 39.724808 27.914780 58.689670 0
M  V30 46 H 36.772924 32.770619 55.304638 0
M  V30 47 H 38.155548 29.674872 60.072000 0
M  V30 48 H 39.563611 30.644906 59.783570 0
M  V30 49 H 36.532141 26.046413 56.825798 0
M  V30 50 H 37.646078 28.123409 56.456112 0
M  V30 51 H 37.845962 29.246547 57.754175 0
M  V30 52 H 41.106998 31.346877 61.697748 0
M  V30 53 H 39.807652 32.123613 62.600436 0
M  V30 54 H 40.728117 30.832760 63.340308 0
M  V30 55 H 37.779588 23.337758 54.885053 0
M  V30 56 H 36.335789 23.230140 55.876524 0
M  V30 57 H 36.594737 24.630824 54.841513 0
M  V30 58 H 37.439542 30.510811 54.122280 0
M  V30 59 H 40.844579 31.379740 54.967777 0
M  V30 60 H 40.445181 30.127025 53.819381 0
M  V30 61 H 39.663540 31.680597 53.698188 0
M  V30 END ATOM
M  V30 BEGIN BOND
M  V30 1 1 5 2
M  V30 2 1 7 3
M  V30 3 1 8 6
M  V30 4 1 9 1
M  V30 5 2 10 4
M  V30 6 1 10 5
M  V30 7 1 11 4
M  V30 8 1 11 8
M  V30 9 1 12 5
M  V30 10 1 13 12
M  V30 11 1 14 7
M  V30 12 1 15 14
M  V30 13 1 16 11
M  V30 14 1 17 1
M  V30 15 1 17 12
M  V30 16 1 18 3
M  V30 17 1 19 6
M  V30 18 1 19 15
M  V30 19 1 20 1
M  V30 20 1 21 3
M  V30 21 1 8 22 CFG=3
M  V30 22 1 23 8
M  V30 23 1 24 1
M  V30 24 1 25 2
M  V30 25 1 26 2
M  V30 26 1 27 2
M  V30 27 1 3 28 CFG=1
M  V30 28 1 29 4
M  V30 29 1 5 30 CFG=3
M  V30 30 1 31 6
M  V30 31 1 32 6
M  V30 32 1 33 7
M  V30 33 1 34 7
M  V30 34 1 35 9
M  V30 35 1 36 9
M  V30 36 1 37 9
M  V30 37 1 38 10
M  V30 38 1 11 39 CFG=1
M  V30 39 1 12 40 CFG=1
M  V30 40 1 41 13
M  V30 41 1 42 14
M  V30 42 1 43 14
M  V30 43 1 44 15
M  V30 44 1 45 15
M  V30 45 1 46 16
M  V30 46 1 47 17
M  V30 47 1 48 17
M  V30 48 1 49 18
M  V30 49 1 50 19
M  V30 50 1 51 19
M  V30 51 1 52 20
M  V30 52 1 53 20
M  V30 53 1 54 20
M  V30 54 1 55 21
M  V30 55 1 56 21
M  V30 56 1 57 21
M  V30 57 1 58 22
M  V30 58 1 59 23
M  V30 59 1 60 23
M  V30 60 1 61 23
M  V30 END BOND
M  V30 END CTAB
M  END
>  <i_epik_Tot_Q>  (1) 
0

>  <i_epik_Tot_abs_Q>  (1) 
0

>  <i_i_glide_confnum>  (1) 
3510

>  <i_i_glide_lignum>  (1) 
2

>  <i_i_glide_posenum>  (1) 
71

>  <i_i_glide_rotatable_bonds>  (1) 
16

>  <i_lp_mmshare_version>  (1) 
72125

>  <i_m_source_file_index>  (1) 
1

>  <i_f3d_flags>  (1) 
0

>  <num_sample>  (1) 
100

>  <b_lp_Chiralities_Consistent>  (1) 
1

>  <r_epik_Charging_Adjusted_Penalty>  (1) 
0

>  <r_epik_Ionization_Penalty>  (1) 
5.9169763795933225e-07

>  <r_epik_Ionization_Penalty_Charging>  (1) 
0

>  <r_epik_Ionization_Penalty_Neutral>  (1) 
5.9169763795933225e-07

>  <r_epik_State_Penalty>  (1) 
-0

>  <r_glide_ring_energy>  (1) 
0

>  <r_i_docking_score>  (1) 
-5.0482425059433416

>  <r_i_glide_ecoul>  (1) 
-6.8150407823006036

>  <r_i_glide_eff_state_penalty>  (1) 
-0

>  <r_i_glide_einternal>  (1) 
6.2803601323583145

>  <r_i_glide_emodel>  (1) 
-46.47908121137263

>  <r_i_glide_emodel_strain>  (1) 
0.56392768486751166

>  <r_i_glide_energy>  (1) 
-38.950995696036038

>  <r_i_glide_erotb>  (1) 
1.894024340436764

>  <r_i_glide_esite>  (1) 
0

>  <r_i_glide_evdw>  (1) 
-32.135954913735432

>  <r_i_glide_gscore>  (1) 
-5.0482425059433416

>  <r_i_glide_gscore_strain>  (1) 
0

>  <r_i_glide_hbond>  (1) 
-0.48162647763414451

>  <r_i_glide_ligand_efficiency>  (1) 
-0.21948880460623224

>  <r_i_glide_ligand_efficiency_ln>  (1) 
-1.2207108128693438

>  <r_i_glide_ligand_efficiency_sa>  (1) 
-0.62419696386675605

>  <r_i_glide_lipo>  (1) 
-2.4733335550686224

>  <r_i_glide_metal>  (1) 
-0

>  <r_i_glide_rewards>  (1) 
-1.3582529506454775

>  <r_lp_Energy>  (1) 
14.425478999999999

>  <r_lp_tautomer_probability>  (1) 
1

>  <s_epik_cmdline>  (1) 
J2VwaWtfcHl0aG9uJywgJy1waHQnLCAnMS4wJywgJy1waCcsICc3LjQnLCAnLXRuJywgJzgnLCAnLW1hJywgJzUwMCcsICctaW1hZScsICc8aW5maWxlLm1hZT4nLCAnLW9tYWUnLCAnPG91dGZpbGUubWFlPic=

>  <s_epik_input>  (1) 
W0NIM11bQ0hdKFtDSDNdKVtDSDJdW0NASF0oW09IXSlbQ0BASF0oW0NIM10pL1tDSF09W0NIXVxbQ0BASF0oW09IXSlbQ0BAXShbT0hdKShbQ0gzXSlbQ0gyXVtDSDJdW0NIMl1bQ0gyXVtDSDJdW0NAQEhdKFtPSF0pW0NIM10=

>  <s_glide_docking_method>  (1) 
confgen

>  <s_i_glide_gridfile>  (1) 
gpcr_5ht2c_6bqh_protein_autoprepared_prepared

>  <s_lp_Force_Field>  (1) 
S-OPLS

>  <s_lp_Variant>  (1) 
DiffSBDD_0-2

>  <s_m_source_file>  (1) 
generated_GPCR_5HT2C_ligand_DiffSBDD_2026-06-23_prepared.sdf

>  <GenAI_Model>  (1) 
DiffSBDD

>  <Protein>  (1) 
GPCR_5HT2C

$$$$
DiffSBDD_0
     RDKit          3D

  0  0  0  0  0  0  0  0  0  0999 V3000
M  V30 BEGIN CTAB
M  V30 COUNTS 61 60 0 0 1
M  V30 BEGIN ATOM
M  V30 1 C 37.750345 31.702673 61.055829 0
M  V30 2 C 38.894831 32.276366 56.905456 0
M  V30 3 C 40.308183 30.615660 51.545433 0 CFG=1
M  V30 4 C 38.708633 28.823847 56.129027 0
M  V30 5 C 38.083778 31.007702 57.215785 0 CFG=1
M  V30 6 C 38.102439 26.692258 53.956433 0
M  V30 7 C 40.626511 29.196001 51.049751 0
M  V30 8 C 38.708301 26.370135 55.350828 0 CFG=2
M  V30 9 C 38.265699 33.147588 60.977800 0
M  V30 10 C 38.903264 29.739712 57.089864 0
M  V30 11 C 39.513063 27.541251 55.989206 0 CFG=2
M  V30 12 C 37.346111 31.090965 58.567776 0 CFG=1
M  V30 13 O 36.303009 30.137754 58.567771 0
M  V30 14 C 39.486367 28.258016 50.591418 0
M  V30 15 C 38.477436 27.756453 51.637140 0
M  V30 16 O 40.053853 27.120539 57.226170 0
M  V30 17 C 38.202395 30.870843 59.835674 0
M  V30 18 O 39.645134 31.315480 50.521354 0
M  V30 19 C 39.114226 27.235194 52.929244 0
M  V30 20 C 36.228483 31.667084 61.274931 0
M  V30 21 C 39.619940 30.706259 52.916629 0
M  V30 22 O 39.645077 25.337754 55.157173 0
M  V30 23 C 37.620284 25.799995 56.284243 0
M  V30 24 H 38.215414 31.254056 61.935070 0
M  V30 25 H 39.447743 32.170659 55.971631 0
M  V30 26 H 38.232831 33.135489 56.794225 0
M  V30 27 H 39.601233 32.525179 57.692713 0
M  V30 28 H 41.245144 31.153593 51.653082 0
M  V30 29 H 37.934516 28.989006 55.396645 0
M  V30 30 H 37.324119 30.958134 56.433084 0
M  V30 31 H 37.287253 27.405954 54.066745 0
M  V30 32 H 37.628081 25.798193 53.549351 0
M  V30 33 H 41.245123 29.350968 50.174391 0
M  V30 34 H 41.254002 28.677709 51.767653 0
M  V30 35 H 37.834441 33.681582 60.130836 0
M  V30 36 H 38.016820 33.701570 61.882032 0
M  V30 37 H 39.350459 33.173757 60.871320 0
M  V30 38 H 39.678276 29.587047 57.826708 0
M  V30 39 H 40.378091 27.776316 55.369893 0
M  V30 40 H 36.881484 32.075867 58.602405 0
M  V30 41 H 35.676524 30.472804 57.924517 0
M  V30 42 H 38.942330 28.713485 49.768232 0
M  V30 43 H 39.959308 27.371681 50.167759 0
M  V30 44 H 37.736125 28.526370 51.850884 0
M  V30 45 H 37.932400 26.937766 51.177687 0
M  V30 46 H 40.440686 26.270009 57.067514 0
M  V30 47 H 38.201685 29.810285 60.094580 0
M  V30 48 H 39.245105 31.109149 59.632000 0
M  V30 49 H 40.278068 31.559443 49.862475 0
M  V30 50 H 39.860262 26.476471 52.693882 0
M  V30 51 H 39.645017 28.063823 53.374660 0
M  V30 52 H 35.676953 32.135866 60.460213 0
M  V30 53 H 35.864083 30.646051 61.367688 0
M  V30 54 H 35.959417 32.214621 62.167755 0
M  V30 55 H 40.265634 30.306747 53.698666 0
M  V30 56 H 39.408075 31.737771 53.179811 0
M  V30 57 H 38.676628 30.168937 52.967811 0
M  V30 58 H 39.205482 24.605339 54.752574 0
M  V30 59 H 36.853222 26.537778 56.506432 0
M  V30 60 H 37.116673 24.944349 55.832748 0
M  V30 61 H 38.031173 25.467785 57.238287 0
M  V30 END ATOM
M  V30 BEGIN BOND
M  V30 1 1 5 2
M  V30 2 1 7 3
M  V30 3 1 8 6
M  V30 4 1 9 1
M  V30 5 2 10 4
M  V30 6 1 10 5
M  V30 7 1 11 4
M  V30 8 1 11 8
M  V30 9 1 12 5
M  V30 10 1 13 12
M  V30 11 1 14 7
M  V30 12 1 15 14
M  V30 13 1 16 11
M  V30 14 1 17 1
M  V30 15 1 17 12
M  V30 16 1 18 3
M  V30 17 1 19 6
M  V30 18 1 19 15
M  V30 19 1 20 1
M  V30 20 1 21 3
M  V30 21 1 8 22 CFG=3
M  V30 22 1 23 8
M  V30 23 1 24 1
M  V30 24 1 25 2
M  V30 25 1 26 2
M  V30 26 1 27 2
M  V30 27 1 3 28 CFG=1
M  V30 28 1 29 4
M  V30 29 1 5 30 CFG=3
M  V30 30 1 31 6
M  V30 31 1 32 6
M  V30 32 1 33 7
M  V30 33 1 34 7
M  V30 34 1 35 9
M  V30 35 1 36 9
M  V30 36 1 37 9
M  V30 37 1 38 10
M  V30 38 1 11 39 CFG=3
M  V30 39 1 12 40 CFG=1
M  V30 40 1 41 13
M  V30 41 1 42 14
M  V30 42 1 43 14
M  V30 43 1 44 15
M  V30 44 1 45 15
M  V30 45 1 46 16
M  V30 46 1 47 17
M  V30 47 1 48 17
M  V30 48 1 49 18
M  V30 49 1 50 19
M  V30 50 1 51 19
M  V30 51 1 52 20
M  V30 52 1 53 20
M  V30 53 1 54 20
M  V30 54 1 55 21
M  V30 55 1 56 21
M  V30 56 1 57 21
M  V30 57 1 58 22
M  V30 58 1 59 23
M  V30 59 1 60 23
M  V30 60 1 61 23
M  V30 END BOND
M  V30 END CTAB
M  END
>  <i_epik_Tot_Q>  (1) 
0

>  <i_epik_Tot_abs_Q>  (1) 
0

>  <i_i_glide_confnum>  (1) 
7

>  <i_i_glide_lignum>  (1) 
1

>  <i_i_glide_posenum>  (1) 
107

>  <i_i_glide_rotatable_bonds>  (1) 
16

>  <i_lp_mmshare_version>  (1) 
72125

>  <i_m_source_file_index>  (1) 
1

>  <i_f3d_flags>  (1) 
0

>  <num_sample>  (1) 
100

>  <b_lp_Chiralities_Consistent>  (1) 
1

>  <r_epik_Charging_Adjusted_Penalty>  (1) 
0

>  <r_epik_Ionization_Penalty>  (1) 
5.9169763795933225e-07

>  <r_epik_Ionization_Penalty_Charging>  (1) 
0

>  <r_epik_Ionization_Penalty_Neutral>  (1) 
5.9169763795933225e-07

>  <r_epik_State_Penalty>  (1) 
-0

>  <r_glide_ring_energy>  (1) 
0

>  <r_i_docking_score>  (1) 
-5.0457418825650029

>  <r_i_glide_ecoul>  (1) 
-5.3716725140451231

>  <r_i_glide_eff_state_penalty>  (1) 
-0

>  <r_i_glide_einternal>  (1) 
13.410276325722883

>  <r_i_glide_emodel>  (1) 
-36.047823506126434

>  <r_i_glide_emodel_strain>  (1) 
0.92239801587856007

>  <r_i_glide_energy>  (1) 
-33.481651966078147

>  <r_i_glide_erotb>  (1) 
1.894024340436764

>  <r_i_glide_esite>  (1) 
0

>  <r_i_glide_evdw>  (1) 
-28.10997945203302

>  <r_i_glide_gscore>  (1) 
-5.0457418825650029

>  <r_i_glide_gscore_strain>  (1) 
0

>  <r_i_glide_hbond>  (1) 
-0.14222939077483726

>  <r_i_glide_ligand_efficiency>  (1) 
-0.2193800818506523

>  <r_i_glide_ligand_efficiency_ln>  (1) 
-1.2201061394620623

>  <r_i_glide_ligand_efficiency_sa>  (1) 
-0.62388777081220381

>  <r_i_glide_lipo>  (1) 
-3.1678075129851382

>  <r_i_glide_metal>  (1) 
-0

>  <r_i_glide_rewards>  (1) 
-1.4184794695333729

>  <r_lp_Energy>  (1) 
8.761194999999999

>  <r_lp_tautomer_probability>  (1) 
1

>  <s_epik_cmdline>  (1) 
J2VwaWtfcHl0aG9uJywgJy1waHQnLCAnMS4wJywgJy1waCcsICc3LjQnLCAnLXRuJywgJzgnLCAnLW1hJywgJzUwMCcsICctaW1hZScsICc8aW5maWxlLm1hZT4nLCAnLW9tYWUnLCAnPG91dGZpbGUubWFlPic=

>  <s_epik_input>  (1) 
W0NIM11bQ0hdKFtDSDNdKVtDSDJdW0NASF0oW09IXSlbQ0BASF0oW0NIM10pXFtDSF09W0NIXVxbQ0BASF0oW09IXSlbQ0BAXShbT0hdKShbQ0gzXSlbQ0gyXVtDSDJdW0NIMl1bQ0gyXVtDSDJdW0NAQEhdKFtPSF0pW0NIM10=

>  <s_glide_docking_method>  (1) 
confgen

>  <s_i_glide_gridfile>  (1) 
gpcr_5ht2c_6bqh_protein_autoprepared_prepared

>  <s_lp_Force_Field>  (1) 
S-OPLS

>  <s_lp_Variant>  (1) 
DiffSBDD_0-1

>  <s_m_source_file>  (1) 
generated_GPCR_5HT2C_ligand_DiffSBDD_2026-06-23_prepared.sdf

>  <GenAI_Model>  (1) 
DiffSBDD

>  <Protein>  (1) 
GPCR_5HT2C

$$$$
DiffSBDD_57
     RDKit          3D

  0  0  0  0  0  0  0  0  0  0999 V3000
M  V30 BEGIN CTAB
M  V30 COUNTS 64 66 0 0 1
M  V30 BEGIN ATOM
M  V30 1 O 40.171619 30.556554 63.058828 0
M  V30 2 C 36.384895 33.374861 61.244298 0
M  V30 3 C 41.428970 34.450256 65.624977 0
M  V30 4 C 38.387322 31.840407 60.973013 0 CFG=2
M  V30 5 C 38.912648 29.524447 55.954878 0
M  V30 6 S 37.385463 34.162848 59.963724 0
M  V30 7 O 40.050474 29.247248 56.315014 0
M  V30 8 C 36.947388 31.971264 61.511441 0
M  V30 9 N 38.715348 26.928201 58.132963 0
M  V30 10 C 40.415777 34.868077 63.274882 0 CFG=2
M  V30 11 N 38.142528 30.424123 56.596449 0
M  V30 12 C 40.120502 31.780327 63.099723 0
M  V30 13 O 41.322579 35.960502 63.008427 0
M  V30 14 C 39.424362 32.533037 61.937261 0
M  V30 15 C 37.866920 31.943352 58.438985 0
M  V30 16 C 38.671621 26.336859 55.689146 0 CFG=2
M  V30 17 O 40.470521 35.338209 60.967755 0
M  V30 18 C 38.617530 31.104874 57.713136 0
M  V30 19 C 37.897238 26.530076 56.986122 0 CFG=1
M  V30 20 C 38.381152 32.682456 59.657879 0 CFG=2
M  V30 21 C 38.667064 30.332415 60.716463 0
M  V30 22 C 38.840265 27.400846 54.610101 0 CFG=2
M  V30 23 C 40.845140 33.909565 64.369101 0
M  V30 24 C 38.317557 28.831838 54.740398 0 CFG=2
M  V30 25 C 37.885530 26.260908 54.413779 0
M  V30 26 N 41.245134 34.853255 62.072036 0
M  V30 27 N 41.968319 33.597375 66.572690 0
M  V30 28 C 36.957246 25.349364 57.297453 0
M  V30 29 O 37.659382 24.137757 57.456768 0
M  V30 30 O 39.898384 26.094642 58.167815 0
M  V30 31 C 41.437607 35.776325 65.858702 0
M  V30 32 C 40.719125 32.537378 64.267440 0
M  V30 33 Cl 38.845136 29.737722 53.309059 0
M  V30 34 H 35.341158 33.326816 60.929731 0
M  V30 35 H 36.421244 33.990676 62.141394 0
M  V30 36 H 36.298812 31.251654 61.009077 0
M  V30 37 H 36.914326 31.737779 62.567758 0
M  V30 38 H 38.293837 26.756389 59.034931 0
M  V30 39 H 39.365103 35.154421 63.257457 0
M  V30 40 H 37.197287 30.619326 56.285026 0
M  V30 41 H 38.902085 33.399883 62.320208 0
M  V30 42 H 40.251564 32.839776 61.305547 0
M  V30 43 H 36.845141 32.118419 58.167765 0
M  V30 44 H 39.467590 25.597378 55.753953 0
M  V30 45 H 40.688042 36.258753 60.980059 0
M  V30 46 H 39.645137 30.891724 57.946779 0
M  V30 47 H 37.245141 27.385487 56.839101 0
M  V30 48 H 39.388168 33.009024 59.396358 0
M  V30 49 H 37.987889 29.889873 59.988626 0
M  V30 50 H 39.687775 30.158123 60.373824 0
M  V30 51 H 38.497797 29.737729 61.611288 0
M  V30 52 H 39.781171 27.331044 54.070734 0
M  V30 53 H 37.229179 28.848684 54.772216 0
M  V30 54 H 36.845136 26.521481 54.445018 0
M  V30 55 H 38.127361 25.432353 53.767764 0
M  V30 56 H 42.004071 32.598493 66.433816 0
M  V30 57 H 36.346353 25.551095 58.167758 0
M  V30 58 H 36.249923 25.216259 56.478522 0
M  V30 59 H 37.058496 23.466861 57.745026 0
M  V30 60 H 40.590464 26.727571 58.031153 0
M  V30 61 H 41.864005 36.173917 66.765877 0
M  V30 62 H 41.021003 36.480178 65.161568 0
M  V30 63 H 41.065953 31.925155 65.082918 0
M  V30 64 H 42.381046 33.943667 67.426803 0
M  V30 END ATOM
M  V30 BEGIN BOND
M  V30 1 1 6 2
M  V30 2 2 7 5
M  V30 3 1 8 2
M  V30 4 1 8 4
M  V30 5 1 11 5
M  V30 6 2 12 1
M  V30 7 1 13 10
M  V30 8 1 4 14 CFG=1
M  V30 9 1 14 12
M  V30 10 1 18 11
M  V30 11 2 18 15
M  V30 12 1 19 9
M  V30 13 1 19 16
M  V30 14 1 20 4
M  V30 15 1 20 6
M  V30 16 1 20 15
M  V30 17 1 21 4
M  V30 18 1 22 16
M  V30 19 1 23 3
M  V30 20 1 23 10
M  V30 21 1 24 5
M  V30 22 1 24 22
M  V30 23 1 25 16
M  V30 24 1 25 22
M  V30 25 1 26 10
M  V30 26 1 26 13
M  V30 27 1 26 17
M  V30 28 1 27 3
M  V30 29 1 28 19
M  V30 30 1 29 28
M  V30 31 1 30 9
M  V30 32 2 31 3
M  V30 33 1 32 12
M  V30 34 2 32 23
M  V30 35 1 33 24
M  V30 36 1 34 2
M  V30 37 1 35 2
M  V30 38 1 36 8
M  V30 39 1 37 8
M  V30 40 1 38 9
M  V30 41 1 10 39 CFG=3
M  V30 42 1 40 11
M  V30 43 1 41 14
M  V30 44 1 42 14
M  V30 45 1 43 15
M  V30 46 1 16 44 CFG=1
M  V30 47 1 45 17
M  V30 48 1 46 18
M  V30 49 1 19 47 CFG=3
M  V30 50 1 20 48 CFG=3
M  V30 51 1 49 21
M  V30 52 1 50 21
M  V30 53 1 51 21
M  V30 54 1 22 52 CFG=3
M  V30 55 1 24 53 CFG=1
M  V30 56 1 54 25
M  V30 57 1 55 25
M  V30 58 1 56 27
M  V30 59 1 57 28
M  V30 60 1 58 28
M  V30 61 1 59 29
M  V30 62 1 60 30
M  V30 63 1 61 31
M  V30 64 1 62 31
M  V30 65 1 63 32
M  V30 66 1 64 27
M  V30 END BOND
M  V30 END CTAB
M  END
>  <i_epik_Tot_Q>  (1) 
0

>  <i_epik_Tot_abs_Q>  (1) 
0

>  <i_i_glide_confnum>  (1) 
5783

>  <i_i_glide_lignum>  (1) 
126

>  <i_i_glide_posenum>  (1) 
118

>  <i_i_glide_rotatable_bonds>  (1) 
16

>  <i_lp_mmshare_version>  (1) 
72125

>  <i_m_source_file_index>  (1) 
58

>  <i_f3d_flags>  (1) 
0

>  <num_sample>  (1) 
100

>  <b_lp_Chiralities_Consistent>  (1) 
1

>  <r_epik_Charging_Adjusted_Penalty>  (1) 
0.024416195549470061

>  <r_epik_Ionization_Penalty>  (1) 
0.014246986074461085

>  <r_epik_Ionization_Penalty_Charging>  (1) 
6.6592516266621022e-05

>  <r_epik_Ionization_Penalty_Neutral>  (1) 
0.014180393558194464

>  <r_epik_State_Penalty>  (1) 
0.024349603033203441

>  <r_glide_ring_energy>  (1) 
0.20502008593199658

>  <r_i_docking_score>  (1) 
-5.0375578663538541

>  <r_i_glide_ecoul>  (1) 
-1.1306268809740661

>  <r_i_glide_eff_state_penalty>  (1) 
0.024349603033203441

>  <r_i_glide_einternal>  (1) 
19.180974338210319

>  <r_i_glide_emodel>  (1) 
-44.850892810903346

>  <r_i_glide_emodel_strain>  (1) 
5.6503584808735638

>  <r_i_glide_energy>  (1) 
-45.986659815068407

>  <r_i_glide_erotb>  (1) 
1.0500022235395752

>  <r_i_glide_esite>  (1) 
-0.076648496329212293

>  <r_i_glide_evdw>  (1) 
-44.856032934094344

>  <r_i_glide_gscore>  (1) 
-5.0619074693870578

>  <r_i_glide_gscore_strain>  (1) 
0.41258962021839096

>  <r_i_glide_hbond>  (1) 
-0.047281883960150387

>  <r_i_glide_ligand_efficiency>  (1) 
-0.15265326867738951

>  <r_i_glide_ligand_efficiency_ln>  (1) 
-1.1203267863984014

>  <r_i_glide_ligand_efficiency_sa>  (1) 
-0.48964059986880348

>  <r_i_glide_lipo>  (1) 
-2.887754150754076

>  <r_i_glide_metal>  (1) 
-0

>  <r_i_glide_rewards>  (1) 
-1.1004191032507571

>  <r_lp_Energy>  (1) 
12.674657999999999

>  <s_epik_Chemistry_Notes>  (1) 
This compound has an imine and may undergo hydrolysis. This compound contains an acetal/aminal-like group ( X-CH(R)-Y where X, Y are N, S, or O) that may be acid/base labile, releasing an aldehyde. This compound has a N-S or N-O group and may undergo hydrolysis at high or low pH.

>  <s_epik_cmdline>  (1) 
J2VwaWtfcHl0aG9uJywgJy1waHQnLCAnMS4wJywgJy1waCcsICc3LjQnLCAnLXRuJywgJzgnLCAnLW1hJywgJzUwMCcsICctaW1hZScsICc8aW5maWxlLm1hZT4nLCAnLW9tYWUnLCAnPG91dGZpbGUubWFlPic=

>  <s_epik_input>  (1) 
W09IXU4xT1tDQEBIXTFDKC9DKD1OL1tIXSlbQ0gzXSk9W0NIXVxDKD1PKVtDSDJdW0NAQF0yKFtDSDNdKVtDSDJdW0NIMl1TW0NAQEhdMi9bQ0hdPVtDSF0vW05IXUMoPU8pW0NAQEhdKENsKVtDQEhdKFtDSDJdMylbQ0BIXTNbQ0BIXShbTkhdW09IXSlbQ0gyXVtPSF0=

>  <s_glide_docking_method>  (1) 
confgen

>  <s_i_glide_gridfile>  (1) 
gpcr_5ht2c_6bqh_protein_autoprepared_prepared

>  <s_lp_Force_Field>  (1) 
S-OPLS

>  <s_lp_Variant>  (1) 
DiffSBDD_57-2

>  <s_m_source_file>  (1) 
generated_GPCR_5HT2C_ligand_DiffSBDD_2026-06-23_prepared.sdf

>  <GenAI_Model>  (1) 
DiffSBDD

>  <Protein>  (1) 
GPCR_5HT2C

$$$$
DiffSBDD_22
     RDKit          3D

  0  0  0  0  0  0  0  0  0  0999 V3000
M  V30 BEGIN CTAB
M  V30 COUNTS 48 51 0 0 1
M  V30 BEGIN ATOM
M  V30 1 C 39.668070 29.692754 51.517074 0
M  V30 2 C 40.266899 30.495238 61.804246 0
M  V30 3 C 39.054760 27.279622 54.274616 0
M  V30 4 F 40.598414 31.718158 61.362428 0
M  V30 5 N 38.867913 28.496660 53.451619 0 CFG=1 CHG=1
M  V30 6 C 39.596722 29.686874 53.957192 0 CFG=1
M  V30 7 C 39.912626 30.531165 52.753859 0 CFG=2
M  V30 8 O 38.482775 28.401001 56.363160 0
M  V30 9 O 37.046842 25.337757 56.555048 0
M  V30 10 N 38.429379 28.597830 58.761525 0 CHG=1
M  V30 11 O 39.238078 24.137755 57.367760 0
M  V30 12 C 38.815983 26.503840 57.665479 0 CFG=1
M  V30 13 C 38.134196 27.311985 55.495044 0 CFG=2
M  V30 14 C 38.166722 30.540467 60.319429 0
M  V30 15 N 41.140691 29.781005 62.365065 0
M  V30 16 C 39.221331 28.320654 52.025300 0
M  V30 17 C 38.760776 30.016929 58.994807 0
M  V30 18 C 38.856524 30.969692 53.767727 0
M  V30 19 C 39.492793 25.426622 56.864438 0 CFG=2
M  V30 20 C 39.164029 27.962042 57.502894 0 CFG=1
M  V30 21 C 38.845140 30.008674 61.605075 0
M  V30 22 C 38.232367 26.077366 56.353812 0 CFG=2
M  V30 23 H 40.587036 29.611665 50.934712 0
M  V30 24 H 38.915233 30.137755 50.870958 0
M  V30 25 H 40.095001 27.156898 54.567771 0
M  V30 26 H 38.791822 26.404949 53.677125 0
M  V30 27 H 40.324402 29.565464 54.758161 0
M  V30 28 H 40.828205 31.118666 52.749107 0
M  V30 29 H 37.324527 24.503765 56.916740 0
M  V30 30 H 38.694503 28.087164 59.591083 0
M  V30 31 H 40.028354 23.798603 57.767991 0
M  V30 32 H 38.315216 26.192191 58.582586 0
M  V30 33 H 37.126671 27.410880 55.108007 0
M  V30 34 H 37.101210 30.307536 60.349950 0
M  V30 35 H 38.217591 31.630582 60.319394 0
M  V30 36 H 40.788434 28.889004 62.683836 0
M  V30 37 H 40.045135 27.613621 51.930582 0
M  V30 38 H 38.379715 27.922467 51.455345 0
M  V30 39 H 38.369757 30.600779 58.159777 0
M  V30 40 H 39.842507 30.137751 58.986582 0
M  V30 41 H 39.117742 31.797857 54.423536 0
M  V30 42 H 37.796975 30.876837 53.558839 0
M  V30 43 H 40.445132 25.584031 56.363437 0
M  V30 44 H 40.237342 28.159569 57.474691 0
M  V30 45 H 37.885553 28.731474 53.470907 0
M  V30 46 H 38.845137 28.918452 61.611638 0
M  V30 47 H 38.266248 30.320307 62.475505 0
M  V30 48 H 37.428201 28.519926 58.646281 0
M  V30 END ATOM
M  V30 BEGIN BOND
M  V30 1 1 4 2
M  V30 2 1 5 3
M  V30 3 1 6 5
M  V30 4 1 7 1
M  V30 5 1 7 6
M  V30 6 1 13 3
M  V30 7 1 13 8
M  V30 8 2 15 2
M  V30 9 1 16 1
M  V30 10 1 16 5
M  V30 11 1 17 10
M  V30 12 1 17 14
M  V30 13 1 18 6
M  V30 14 1 18 7
M  V30 15 1 19 11
M  V30 16 1 19 12
M  V30 17 1 20 8
M  V30 18 1 20 10
M  V30 19 1 20 12
M  V30 20 1 21 2
M  V30 21 1 21 14
M  V30 22 1 22 9 CFG=1
M  V30 23 1 22 12
M  V30 24 1 22 13
M  V30 25 1 22 19
M  V30 26 1 23 1
M  V30 27 1 24 1
M  V30 28 1 25 3
M  V30 29 1 26 3
M  V30 30 1 6 27 CFG=1
M  V30 31 1 7 28 CFG=1
M  V30 32 1 29 9
M  V30 33 1 30 10
M  V30 34 1 31 11
M  V30 35 1 12 32 CFG=1
M  V30 36 1 13 33 CFG=3
M  V30 37 1 34 14
M  V30 38 1 35 14
M  V30 39 1 36 15
M  V30 40 1 37 16
M  V30 41 1 38 16
M  V30 42 1 39 17
M  V30 43 1 40 17
M  V30 44 1 41 18
M  V30 45 1 42 18
M  V30 46 1 19 43 CFG=3
M  V30 47 1 20 44 CFG=3
M  V30 48 1 5 45 CFG=3
M  V30 49 1 46 21
M  V30 50 1 47 21
M  V30 51 1 48 10
M  V30 END BOND
M  V30 END CTAB
M  END
>  <i_epik_Tot_Q>  (1) 
2

>  <i_epik_Tot_abs_Q>  (1) 
2

>  <i_i_glide_confnum>  (1) 
20

>  <i_i_glide_lignum>  (1) 
56

>  <i_i_glide_posenum>  (1) 
320

>  <i_i_glide_rotatable_bonds>  (1) 
9

>  <i_lp_mmshare_version>  (1) 
72125

>  <i_m_source_file_index>  (1) 
23

>  <i_f3d_flags>  (1) 
0

>  <num_sample>  (1) 
100

>  <b_lp_Chiralities_Consistent>  (1) 
1

>  <r_epik_Charging_Adjusted_Penalty>  (1) 
1.666199543100769

>  <r_epik_Ionization_Penalty>  (1) 
0.63246952638049103

>  <r_epik_Ionization_Penalty_Charging>  (1) 
0.62883544751823761

>  <r_epik_Ionization_Penalty_Neutral>  (1) 
0.0036340788622534364

>  <r_epik_State_Penalty>  (1) 
1.0373640955825314

>  <r_glide_ring_energy>  (1) 
1.6455033096424427

>  <r_i_docking_score>  (1) 
-5.0359653719954345

>  <r_i_glide_ecoul>  (1) 
-4.2715535119463244

>  <r_i_glide_eff_state_penalty>  (1) 
1.0373640955825314

>  <r_i_glide_einternal>  (1) 
3.8839520591934358

>  <r_i_glide_emodel>  (1) 
-44.88066326173918

>  <r_i_glide_emodel_strain>  (1) 
2.2106009526517028

>  <r_i_glide_energy>  (1) 
-28.173999967919954

>  <r_i_glide_erotb>  (1) 
1.309053311580165

>  <r_i_glide_esite>  (1) 
0

>  <r_i_glide_evdw>  (1) 
-23.902446455973632

>  <r_i_glide_gscore>  (1) 
-6.0733294675779659

>  <r_i_glide_gscore_strain>  (1) 
0

>  <r_i_glide_hbond>  (1) 
-0.60799999999999998

>  <r_i_glide_ligand_efficiency>  (1) 
-0.22890751690888339

>  <r_i_glide_ligand_efficiency_ln>  (1) 
-1.2309736282158197

>  <r_i_glide_ligand_efficiency_sa>  (1) 
-0.64140786546135442

>  <r_i_glide_lipo>  (1) 
-2.8248928200333756

>  <r_i_glide_metal>  (1) 
-0

>  <r_i_glide_rewards>  (1) 
-2.1136346095341256

>  <r_lp_Energy>  (1) 
20.772855

>  <r_lp_tautomer_probability>  (1) 
0.49999300000000002

>  <s_epik_Chemistry_Notes>  (1) 
This compound has an imine and may undergo hydrolysis. This compound contains an acetal/aminal-like group ( X-CH(R)-Y where X, Y are N, S, or O) that may be acid/base labile, releasing an aldehyde.

>  <s_epik_cmdline>  (1) 
J2VwaWtfcHl0aG9uJywgJy1waHQnLCAnMS4wJywgJy1waCcsICc3LjQnLCAnLXRuJywgJzgnLCAnLW1hJywgJzUwMCcsICctaW1hZScsICc8aW5maWxlLm1hZT4nLCAnLW9tYWUnLCAnPG91dGZpbGUubWFlPic=

>  <s_epik_input>  (1) 
W0NAQEhdMTJbQ0BIXShbQ0gyXTIpW0NIMl1bQ0gyXU4xW0NIMl1bQ0BASF0zT1tDQEhdKFtDSF0oW0NASF00W09IXSlbQ0BAXTM0W09IXSlbTkhdW0NIMl1bQ0gyXVxbQ0hdPUMoXEYpW05IMl0=

>  <s_glide_docking_method>  (1) 
confgen

>  <s_i_glide_gridfile>  (1) 
gpcr_5ht2c_6bqh_protein_autoprepared_prepared

>  <s_lp_Force_Field>  (1) 
S-OPLS

>  <s_lp_Variant>  (1) 
DiffSBDD_22-4

>  <s_m_source_file>  (1) 
generated_GPCR_5HT2C_ligand_DiffSBDD_2026-06-23_prepared.sdf

>  <GenAI_Model>  (1) 
DiffSBDD

>  <Protein>  (1) 
GPCR_5HT2C

$$$$
DiffSBDD_4
     RDKit          3D

  0  0  0  0  0  0  0  0  0  0999 V3000
M  V30 BEGIN CTAB
M  V30 COUNTS 72 75 0 0 1
M  V30 BEGIN ATOM
M  V30 1 C 40.897122 33.429953 61.599161 0
M  V30 2 C 37.051266 24.037381 55.558436 0
M  V30 3 C 38.232598 29.078403 55.144761 0
M  V30 4 N 40.392520 32.184340 62.170766 0
M  V30 5 C 38.530973 30.661414 61.368889 0
M  V30 6 O 37.480007 31.255003 54.565397 0
M  V30 7 C 42.321276 34.411159 64.567022 0
M  V30 8 C 41.038446 30.364480 65.550891 0
M  V30 9 C 38.004697 30.562261 55.426340 0
M  V30 10 O 40.444485 32.858966 64.436237 0
M  V30 11 C 40.854793 34.210205 64.223808 0 CFG=2
M  V30 12 C 41.294649 29.381918 63.416119 0
M  V30 13 C 37.703786 28.061042 57.948347 0
M  V30 14 O 40.335581 29.721516 60.053006 0
M  V30 15 O 42.848377 33.754450 65.459269 0
M  V30 16 C 38.278984 32.520658 56.898166 0
M  V30 17 C 38.129277 26.268339 56.180672 0 CFG=1
M  V30 18 C 40.892014 31.909411 63.510460 0 CFG=1
M  V30 19 C 38.946791 32.036841 61.948061 0
M  V30 20 C 40.552088 30.527055 64.109765 0 CFG=2
M  V30 21 O 38.498694 30.586198 58.944311 0
M  V30 22 N 38.405393 31.078745 56.628794 0
M  V30 23 C 37.702668 26.561255 57.638911 0
M  V30 24 N 41.086108 28.905608 65.766619 0 CHG=1
M  V30 25 C 39.019808 30.232911 57.671966 0 CFG=2
M  V30 26 C 41.281666 28.255455 64.456546 0
M  V30 27 C 39.230603 30.267281 60.059330 0
M  V30 28 C 39.008881 28.695358 57.471960 0 CFG=2
M  V30 29 O 39.316953 26.979696 55.818745 0
M  V30 30 C 38.358412 24.777212 55.872188 0 CFG=1
M  V30 31 S 40.401424 34.860414 62.599043 0
M  V30 32 C 39.191592 33.332574 55.965988 0
M  V30 33 C 39.278749 28.394707 56.015194 0 CFG=1
M  V30 34 O 38.982537 24.138099 56.970403 0
M  V30 35 H 41.983818 33.389874 61.518470 0
M  V30 36 H 40.480450 33.556745 60.601088 0
M  V30 37 H 36.511943 24.504310 54.731529 0
M  V30 38 H 37.245807 23.005936 55.268887 0
M  V30 39 H 36.397683 24.023732 56.428529 0
M  V30 40 H 38.528025 28.971439 54.100342 0
M  V30 41 H 37.246471 28.630307 55.205397 0
M  V30 42 H 37.455308 30.657751 61.187092 0
M  V30 43 H 38.706108 29.876173 62.101410 0
M  V30 44 H 42.844382 35.161060 63.979745 0
M  V30 45 H 42.047571 30.766368 65.660870 0
M  V30 46 H 40.389526 30.853889 66.278624 0
M  V30 47 H 40.376119 34.848330 64.961709 0
M  V30 48 H 40.834041 29.070811 62.482585 0
M  V30 49 H 42.324826 29.669702 63.196057 0
M  V30 50 H 37.645489 28.202520 59.020225 0
M  V30 51 H 36.848163 28.571325 57.515727 0
M  V30 52 H 37.246050 32.828558 56.737577 0
M  V30 53 H 38.509531 32.780601 57.930898 0
M  V30 54 H 37.328138 26.586830 55.516609 0
M  V30 55 H 41.977489 31.990650 63.471941 0
M  V30 56 H 38.579849 32.796172 61.255078 0
M  V30 57 H 38.425776 32.226587 62.886941 0
M  V30 58 H 39.473223 30.378215 64.093684 0
M  V30 59 H 36.717364 26.131281 57.821501 0
M  V30 60 H 38.383870 26.089704 58.348113 0
M  V30 61 H 40.196123 28.598265 66.135762 0
M  V30 62 H 40.046443 30.538007 57.608758 0
M  V30 63 H 40.451948 27.569458 64.283354 0
M  V30 64 H 42.205449 27.676863 64.436195 0
M  V30 65 H 39.828619 28.264192 58.050395 0
M  V30 66 H 39.008917 24.689692 54.999820 0
M  V30 67 H 38.839942 34.358521 55.871876 0
M  V30 68 H 40.216706 33.326416 56.329142 0
M  V30 69 H 39.220436 32.941994 54.955027 0
M  V30 70 H 40.260216 28.782649 55.740550 0
M  V30 71 H 39.907172 24.020003 56.758090 0
M  V30 72 H 41.820754 28.648646 66.409963 0
M  V30 END ATOM
M  V30 BEGIN BOND
M  V30 1 1 4 1
M  V30 2 1 9 3
M  V30 3 2 9 6
M  V30 4 1 11 7
M  V30 5 1 11 10
M  V30 6 2 15 7
M  V30 7 1 18 4
M  V30 8 1 18 10
M  V30 9 1 19 4
M  V30 10 1 19 5
M  V30 11 1 20 8
M  V30 12 1 20 12
M  V30 13 1 20 18
M  V30 14 1 22 9
M  V30 15 1 22 16
M  V30 16 1 23 13
M  V30 17 1 23 17
M  V30 18 1 24 8
M  V30 19 1 25 21
M  V30 20 1 25 22
M  V30 21 1 26 12
M  V30 22 1 26 24
M  V30 23 1 27 5
M  V30 24 2 27 14
M  V30 25 1 27 21
M  V30 26 1 28 13
M  V30 27 1 28 25
M  V30 28 1 29 17
M  V30 29 1 30 2
M  V30 30 1 30 17
M  V30 31 1 31 1
M  V30 32 1 31 11
M  V30 33 1 32 16
M  V30 34 1 33 3
M  V30 35 1 33 28
M  V30 36 1 33 29
M  V30 37 1 34 30
M  V30 38 1 35 1
M  V30 39 1 36 1
M  V30 40 1 37 2
M  V30 41 1 38 2
M  V30 42 1 39 2
M  V30 43 1 40 3
M  V30 44 1 41 3
M  V30 45 1 42 5
M  V30 46 1 43 5
M  V30 47 1 44 7
M  V30 48 1 45 8
M  V30 49 1 46 8
M  V30 50 1 11 47 CFG=1
M  V30 51 1 48 12
M  V30 52 1 49 12
M  V30 53 1 50 13
M  V30 54 1 51 13
M  V30 55 1 52 16
M  V30 56 1 53 16
M  V30 57 1 17 54 CFG=3
M  V30 58 1 18 55 CFG=3
M  V30 59 1 56 19
M  V30 60 1 57 19
M  V30 61 1 20 58 CFG=1
M  V30 62 1 59 23
M  V30 63 1 60 23
M  V30 64 1 61 24
M  V30 65 1 25 62 CFG=1
M  V30 66 1 63 26
M  V30 67 1 64 26
M  V30 68 1 28 65 CFG=1
M  V30 69 1 30 66 CFG=3
M  V30 70 1 67 32
M  V30 71 1 68 32
M  V30 72 1 69 32
M  V30 73 1 33 70 CFG=3
M  V30 74 1 71 34
M  V30 75 1 72 24
M  V30 END BOND
M  V30 END CTAB
M  END
>  <i_epik_Tot_Q>  (1) 
1

>  <i_epik_Tot_abs_Q>  (1) 
1

>  <i_i_glide_confnum>  (1) 
550

>  <i_i_glide_lignum>  (1) 
7

>  <i_i_glide_posenum>  (1) 
222

>  <i_i_glide_rotatable_bonds>  (1) 
10

>  <i_lp_mmshare_version>  (1) 
72125

>  <i_m_source_file_index>  (1) 
5

>  <i_f3d_flags>  (1) 
0

>  <num_sample>  (1) 
100

>  <b_lp_Chiralities_Consistent>  (1) 
1

>  <r_epik_Charging_Adjusted_Penalty>  (1) 
0.68239231030887826

>  <r_epik_Ionization_Penalty>  (1) 
0.68239482879591951

>  <r_epik_Ionization_Penalty_Charging>  (1) 
0.00029009099004162725

>  <r_epik_Ionization_Penalty_Neutral>  (1) 
0.68210473780587788

>  <r_epik_State_Penalty>  (1) 
0.68210221931883663

>  <r_glide_ring_energy>  (1) 
0.17891050555161442

>  <r_i_docking_score>  (1) 
-5.033781082056457

>  <r_i_glide_ecoul>  (1) 
-3.3654144278512108

>  <r_i_glide_eff_state_penalty>  (1) 
0.68210221931883663

>  <r_i_glide_einternal>  (1) 
7.2123983399927667

>  <r_i_glide_emodel>  (1) 
-56.715032229221265

>  <r_i_glide_emodel_strain>  (1) 
0.94942475234709889

>  <r_i_glide_energy>  (1) 
-43.218002834410832

>  <r_i_glide_erotb>  (1) 
0.570329169500843

>  <r_i_glide_esite>  (1) 
-0.16265154051835068

>  <r_i_glide_evdw>  (1) 
-39.852588406559619

>  <r_i_glide_gscore>  (1) 
-5.7158833013752934

>  <r_i_glide_gscore_strain>  (1) 
0

>  <r_i_glide_hbond>  (1) 
0

>  <r_i_glide_ligand_efficiency>  (1) 
-0.1480523847663664

>  <r_i_glide_ligand_efficiency_ln>  (1) 
-1.1121034338031051

>  <r_i_glide_ligand_efficiency_sa>  (1) 
-0.47963225289639527

>  <r_i_glide_lipo>  (1) 
-2.6525971749667221

>  <r_i_glide_metal>  (1) 
-0

>  <r_i_glide_rewards>  (1) 
-0.97352217088540083

>  <r_lp_Energy>  (1) 
42.884645999999996

>  <r_lp_tautomer_probability>  (1) 
0.99990000499974985

>  <s_epik_Chemistry_Notes>  (1) 
This compound has an ester and may undergo hydrolysis at high or low pH. This compound contains an acetal/aminal-like group ( X-CH(R)-Y where X, Y are N, S, or O) that may be acid/base labile, releasing an aldehyde.

>  <s_epik_cmdline>  (1) 
J2VwaWtfcHl0aG9uJywgJy1waHQnLCAnMS4wJywgJy1waCcsICc3LjQnLCAnLXRuJywgJzgnLCAnLW1hJywgJzUwMCcsICctaW1hZScsICc8aW5maWxlLm1hZT4nLCAnLW9tYWUnLCAnPG91dGZpbGUubWFlPic=

>  <s_epik_input>  (1) 
W0NIMl0xW0NIMl1bTkhdW0NIMl1bQ0BIXTFbQ0BASF0yT1tDQEBIXShbQ0hdPU8pU1tDSDJdTjJbQ0gyXVtDSDJdQyg9TylPW0NAQEhdM04oW0NIMl1bQ0gzXSlDKD1PKVtDSDJdW0NAQEhdKFtDQEBIXTM0KU9bQ0BIXShbQ0gyXVtDSDJdNClbQ0BIXShbQ0gzXSlbT0hd

>  <s_glide_docking_method>  (1) 
confgen

>  <s_i_glide_gridfile>  (1) 
gpcr_5ht2c_6bqh_protein_autoprepared_prepared

>  <s_lp_Force_Field>  (1) 
S-OPLS

>  <s_lp_Variant>  (1) 
DiffSBDD_4-2

>  <s_m_source_file>  (1) 
generated_GPCR_5HT2C_ligand_DiffSBDD_2026-06-23_prepared.sdf

>  <GenAI_Model>  (1) 
DiffSBDD

>  <Protein>  (1) 
GPCR_5HT2C

$$$$
DiffSBDD_60
     RDKit          3D

  0  0  0  0  0  0  0  0  0  0999 V3000
M  V30 BEGIN CTAB
M  V30 COUNTS 34 34 0 0 1
M  V30 BEGIN ATOM
M  V30 1 C 35.997312 32.502169 60.253521 0 CFG=2
M  V30 2 C 39.069478 31.337724 54.099971 0
M  V30 3 C 36.851807 31.709880 59.278455 0
M  V30 4 C 38.211546 30.378371 56.775631 0 CFG=2
M  V30 5 S 38.845137 28.859280 52.942498 0
M  V30 6 C 38.982099 31.698688 56.580624 0
M  V30 7 C 37.509920 30.573747 59.588569 0
M  V30 8 C 38.339642 29.993079 54.264633 0 CFG=1
M  V30 9 S 38.507202 29.664223 58.423954 0
M  V30 10 O 35.632675 31.724572 61.367761 0
M  V30 11 C 38.602949 29.389927 55.661358 0
M  V30 12 C 34.711669 33.027805 59.601303 0
M  V30 13 C 38.683459 32.317816 55.214469 0
M  V30 14 C 37.478174 27.676531 52.967760 0
M  V30 15 H 36.590404 33.347805 60.603341 0
M  V30 16 H 38.845134 31.777284 53.128967 0
M  V30 17 H 40.148299 31.175841 54.116587 0
M  V30 18 H 36.914992 32.108060 58.282761 0
M  V30 19 H 37.140604 30.537758 56.685535 0
M  V30 20 H 38.778972 32.423980 57.365465 0
M  V30 21 H 40.045137 31.491606 56.635382 0
M  V30 22 H 37.458028 30.160982 60.584031 0
M  V30 23 H 37.268701 30.173101 54.159068 0
M  V30 24 H 34.971975 31.113263 61.077482 0
M  V30 25 H 39.657363 29.125764 55.755130 0
M  V30 26 H 38.040924 28.464578 55.784793 0
M  V30 27 H 34.942040 33.692046 58.767291 0
M  V30 28 H 34.095876 32.214962 59.213761 0
M  V30 29 H 34.109597 33.595527 60.310969 0
M  V30 30 H 37.625725 32.571617 55.143389 0
M  V30 31 H 39.232877 33.251590 55.108719 0
M  V30 32 H 37.645138 26.937756 52.186433 0
M  V30 33 H 37.418235 27.159462 53.924824 0
M  V30 34 H 36.528840 28.175575 52.774065 0
M  V30 END ATOM
M  V30 BEGIN BOND
M  V30 1 1 3 1
M  V30 2 1 6 4
M  V30 3 2 7 3
M  V30 4 1 8 2
M  V30 5 1 8 5
M  V30 6 1 9 4
M  V30 7 1 9 7
M  V30 8 1 10 1
M  V30 9 1 11 4
M  V30 10 1 11 8
M  V30 11 1 12 1
M  V30 12 1 13 2
M  V30 13 1 13 6
M  V30 14 1 14 5
M  V30 15 1 1 15 CFG=1
M  V30 16 1 16 2
M  V30 17 1 17 2
M  V30 18 1 18 3
M  V30 19 1 4 19 CFG=1
M  V30 20 1 20 6
M  V30 21 1 21 6
M  V30 22 1 22 7
M  V30 23 1 8 23 CFG=3
M  V30 24 1 24 10
M  V30 25 1 25 11
M  V30 26 1 26 11
M  V30 27 1 27 12
M  V30 28 1 28 12
M  V30 29 1 29 12
M  V30 30 1 30 13
M  V30 31 1 31 13
M  V30 32 1 32 14
M  V30 33 1 33 14
M  V30 34 1 34 14
M  V30 END BOND
M  V30 END CTAB
M  END
>  <i_epik_Tot_Q>  (1) 
0

>  <i_epik_Tot_abs_Q>  (1) 
0

>  <i_i_glide_confnum>  (1) 
14

>  <i_i_glide_lignum>  (1) 
132

>  <i_i_glide_posenum>  (1) 
156

>  <i_i_glide_rotatable_bonds>  (1) 
5

>  <i_lp_mmshare_version>  (1) 
72125

>  <i_m_source_file_index>  (1) 
61

>  <i_f3d_flags>  (1) 
0

>  <num_sample>  (1) 
100

>  <b_lp_Chiralities_Consistent>  (1) 
1

>  <r_epik_Charging_Adjusted_Penalty>  (1) 
0

>  <r_epik_Ionization_Penalty>  (1) 
3.7959940703639166e-07

>  <r_epik_Ionization_Penalty_Charging>  (1) 
0

>  <r_epik_Ionization_Penalty_Neutral>  (1) 
3.7959940703639166e-07

>  <r_epik_State_Penalty>  (1) 
-0

>  <r_glide_ring_energy>  (1) 
0

>  <r_i_docking_score>  (1) 
-5.0256271552922342

>  <r_i_glide_ecoul>  (1) 
-3.9376017292435312

>  <r_i_glide_eff_state_penalty>  (1) 
-0

>  <r_i_glide_einternal>  (1) 
2.2458391867527907

>  <r_i_glide_emodel>  (1) 
-36.099032271897443

>  <r_i_glide_emodel_strain>  (1) 
0.025497515771006007

>  <r_i_glide_energy>  (1) 
-28.377954869724814

>  <r_i_glide_erotb>  (1) 
0.95139353164667573

>  <r_i_glide_esite>  (1) 
0

>  <r_i_glide_evdw>  (1) 
-24.440353140481282

>  <r_i_glide_gscore>  (1) 
-5.0256271552922342

>  <r_i_glide_gscore_strain>  (1) 
0

>  <r_i_glide_hbond>  (1) 
-0.32000000000000001

>  <r_i_glide_ligand_efficiency>  (1) 
-0.35897336823515957

>  <r_i_glide_ligand_efficiency_ln>  (1) 
-1.3810244522373523

>  <r_i_glide_ligand_efficiency_sa>  (1) 
-0.86517688649689617

>  <r_i_glide_lipo>  (1) 
-1.0237566058337157

>  <r_i_glide_metal>  (1) 
-0

>  <r_i_glide_rewards>  (1) 
-2.8206061646946003

>  <r_lp_Energy>  (1) 
4.4605119999999996

>  <r_lp_tautomer_probability>  (1) 
1

>  <s_epik_cmdline>  (1) 
J2VwaWtfcHl0aG9uJywgJy1waHQnLCAnMS4wJywgJy1waCcsICc3LjQnLCAnLXRuJywgJzgnLCAnLW1hJywgJzUwMCcsICctaW1hZScsICc8aW5maWxlLm1hZT4nLCAnLW9tYWUnLCAnPG91dGZpbGUubWFlPic=

>  <s_epik_input>  (1) 
W09IXVtDQEhdKFtDSDNdKS9bQ0hdPVtDSF0vU1tDQEhdMVtDSDJdW0NIMl1bQ0gyXVtDQEhdKFtDSDJdMSlTW0NIM10=

>  <s_glide_docking_method>  (1) 
confgen

>  <s_i_glide_gridfile>  (1) 
gpcr_5ht2c_6bqh_protein_autoprepared_prepared

>  <s_lp_Force_Field>  (1) 
S-OPLS

>  <s_lp_Variant>  (1) 
DiffSBDD_60-1

>  <s_m_source_file>  (1) 
generated_GPCR_5HT2C_ligand_DiffSBDD_2026-06-23_prepared.sdf

>  <GenAI_Model>  (1) 
DiffSBDD

>  <Protein>  (1) 
GPCR_5HT2C

$$$$
DiffSBDD_8
     RDKit          3D

  0  0  0  0  0  0  0  0  0  0999 V3000
M  V30 BEGIN CTAB
M  V30 COUNTS 46 50 0 0 1
M  V30 BEGIN ATOM
M  V30 1 C 39.276080 26.614699 56.087761 0
M  V30 2 O 37.920443 31.935601 61.124369 0
M  V30 3 C 39.459626 25.323948 56.391544 0
M  V30 4 C 37.581507 30.854090 55.665678 0
M  V30 5 N 37.909963 29.813507 56.643105 0
M  V30 6 C 37.839553 31.025348 58.825691 0
M  V30 7 C 38.406450 30.847664 54.367059 0
M  V30 8 C 39.352846 28.819123 51.654487 0
M  V30 9 N 39.772101 27.254043 54.989497 0
M  V30 10 C 35.653688 31.449196 60.273829 0
M  V30 11 C 39.507431 28.751902 54.974945 0 CFG=2
M  V30 12 N 38.290213 28.166570 51.894126 0
M  V30 13 C 36.648033 32.480707 60.747768 0 CFG=1
M  V30 14 C 37.146430 31.184258 60.174257 0 CFG=1
M  V30 15 C 38.547862 27.487205 56.832440 0
M  V30 16 N 37.815821 28.633182 53.083525 0
M  V30 17 C 38.597044 28.671180 56.257864 0
M  V30 18 C 39.804445 29.816401 52.628219 0
M  V30 19 C 36.712220 33.839172 60.074135 0
M  V30 20 C 37.224851 29.927790 57.936920 0
M  V30 21 C 36.845138 27.741773 53.681273 0
M  V30 22 C 38.835325 29.471206 53.777684 0 CFG=1
M  V30 23 H 40.045133 24.680504 55.754296 0
M  V30 24 H 39.025754 24.893646 57.282427 0
M  V30 25 H 37.635444 31.842834 56.121481 0
M  V30 26 H 36.543039 30.697606 55.367760 0
M  V30 27 H 38.885437 30.782977 59.012916 0
M  V30 28 H 37.839542 31.977389 58.301018 0
M  V30 29 H 39.319676 31.400087 54.595979 0
M  V30 30 H 37.894221 31.462438 53.634099 0
M  V30 31 H 39.926539 28.653423 50.742594 0
M  V30 32 H 40.462636 26.842129 54.380482 0
M  V30 33 H 35.094039 31.667504 59.367728 0
M  V30 34 H 35.098879 30.937732 61.055068 0
M  V30 35 H 37.976832 27.231877 57.710941 0
M  V30 36 H 40.845135 29.737755 52.879218 0
M  V30 37 H 39.645253 30.811209 52.209603 0
M  V30 38 H 35.796495 34.393559 60.280356 0
M  V30 39 H 37.554468 34.413349 60.460831 0
M  V30 40 H 36.810491 33.754349 58.992807 0
M  V30 41 H 36.170635 30.137681 57.767739 0
M  V30 42 H 37.242006 28.993164 58.491893 0
M  V30 43 H 36.445136 28.214551 54.567754 0
M  V30 44 H 36.045132 27.560798 52.969551 0
M  V30 45 H 37.306026 26.791232 53.948812 0
M  V30 46 H 40.422797 29.271760 55.261587 0
M  V30 END ATOM
M  V30 BEGIN BOND
M  V30 1 2 3 1
M  V30 2 1 5 4
M  V30 3 1 7 4
M  V30 4 1 9 1
M  V30 5 1 11 9
M  V30 6 2 12 8
M  V30 7 1 13 2
M  V30 8 1 13 10
M  V30 9 1 14 2
M  V30 10 1 14 6 CFG=1
M  V30 11 1 14 10
M  V30 12 1 14 13
M  V30 13 1 15 1
M  V30 14 1 16 12
M  V30 15 1 17 5
M  V30 16 1 17 11
M  V30 17 2 17 15
M  V30 18 1 18 8
M  V30 19 1 13 19 CFG=3
M  V30 20 1 20 5
M  V30 21 1 20 6
M  V30 22 1 21 16
M  V30 23 1 22 7
M  V30 24 1 22 11
M  V30 25 1 22 16 CFG=3
M  V30 26 1 22 18
M  V30 27 1 23 3
M  V30 28 1 24 3
M  V30 29 1 25 4
M  V30 30 1 26 4
M  V30 31 1 27 6
M  V30 32 1 28 6
M  V30 33 1 29 7
M  V30 34 1 30 7
M  V30 35 1 31 8
M  V30 36 1 32 9
M  V30 37 1 33 10
M  V30 38 1 34 10
M  V30 39 1 35 15
M  V30 40 1 36 18
M  V30 41 1 37 18
M  V30 42 1 38 19
M  V30 43 1 39 19
M  V30 44 1 40 19
M  V30 45 1 41 20
M  V30 46 1 42 20
M  V30 47 1 43 21
M  V30 48 1 44 21
M  V30 49 1 45 21
M  V30 50 1 11 46 CFG=1
M  V30 END BOND
M  V30 END CTAB
M  END
>  <i_epik_Tot_Q>  (1) 
0

>  <i_epik_Tot_abs_Q>  (1) 
0

>  <i_i_glide_confnum>  (1) 
10

>  <i_i_glide_lignum>  (1) 
12

>  <i_i_glide_posenum>  (1) 
184

>  <i_i_glide_rotatable_bonds>  (1) 
3

>  <i_lp_mmshare_version>  (1) 
72125

>  <i_m_source_file_index>  (1) 
9

>  <i_f3d_flags>  (1) 
0

>  <num_sample>  (1) 
100

>  <b_lp_Chiralities_Consistent>  (1) 
1

>  <r_epik_Charging_Adjusted_Penalty>  (1) 
0.0013502642422006258

>  <r_epik_Ionization_Penalty>  (1) 
0.0017789760984620326

>  <r_epik_Ionization_Penalty_Charging>  (1) 
0.0013502642422006258

>  <r_epik_Ionization_Penalty_Neutral>  (1) 
0.00042871185626140696

>  <r_epik_State_Penalty>  (1) 
-0

>  <r_glide_ring_energy>  (1) 
0

>  <r_i_docking_score>  (1) 
-5.0202809397957742

>  <r_i_glide_ecoul>  (1) 
-0.48585203081777406

>  <r_i_glide_eff_state_penalty>  (1) 
-0

>  <r_i_glide_einternal>  (1) 
4.5079249053890385

>  <r_i_glide_emodel>  (1) 
-36.257868229539895

>  <r_i_glide_emodel_strain>  (1) 
0.33049171527181898

>  <r_i_glide_energy>  (1) 
-30.045651968295434

>  <r_i_glide_erotb>  (1) 
0.61104831889555555

>  <r_i_glide_esite>  (1) 
-0.059764112003000969

>  <r_i_glide_evdw>  (1) 
-29.55979993747766

>  <r_i_glide_gscore>  (1) 
-5.0202809397957742

>  <r_i_glide_gscore_strain>  (1) 
0

>  <r_i_glide_hbond>  (1) 
0

>  <r_i_glide_ligand_efficiency>  (1) 
-0.22819458817253518

>  <r_i_glide_ligand_efficiency_ln>  (1) 
-1.2271397808826576

>  <r_i_glide_ligand_efficiency_sa>  (1) 
-0.63941021110215224

>  <r_i_glide_lipo>  (1) 
-1.64546602804774

>  <r_i_glide_metal>  (1) 
-0

>  <r_i_glide_rewards>  (1) 
-2.3752313171440398

>  <r_lp_Energy>  (1) 
31.245733999999999

>  <r_lp_tautomer_probability>  (1) 
1

>  <s_epik_Chemistry_Notes>  (1) 
This compound has an imine and may undergo hydrolysis.

>  <s_epik_cmdline>  (1) 
J2VwaWtfcHl0aG9uJywgJy1waHQnLCAnMS4wJywgJy1waCcsICc3LjQnLCAnLXRuJywgJzgnLCAnLW1hJywgJzUwMCcsICctaW1hZScsICc8aW5maWxlLm1hZT4nLCAnLW9tYWUnLCAnPG91dGZpbGUubWFlPic=

>  <s_epik_input>  (1) 
W0NIM11bQ0BAXTEyW0NAQF0oTzEpKFtDSDJdMilbQ0gyXVtDSDJdTihbQ0gyXVtDSDJdMyljKFtjSF1jKFtDSDNdKVtuSF00KWM0W0NAQF0zNU4oW0NIM10pTj1bQ0hdW0NIMl01

>  <s_glide_docking_method>  (1) 
confgen

>  <s_i_glide_gridfile>  (1) 
gpcr_5ht2c_6bqh_protein_autoprepared_prepared

>  <s_lp_Force_Field>  (1) 
S-OPLS

>  <s_lp_Variant>  (1) 
DiffSBDD_8-2

>  <s_m_source_file>  (1) 
generated_GPCR_5HT2C_ligand_DiffSBDD_2026-06-23_prepared.sdf

>  <GenAI_Model>  (1) 
DiffSBDD

>  <Protein>  (1) 
GPCR_5HT2C

$$$$
DiffSBDD_41
     RDKit          3D

  0  0  0  0  0  0  0  0  0  0999 V3000
M  V30 BEGIN CTAB
M  V30 COUNTS 51 52 0 0 1
M  V30 BEGIN ATOM
M  V30 1 C 39.046673 34.581533 60.713845 0
M  V30 2 C 37.399235 30.999231 59.628734 0 CFG=1
M  V30 3 C 39.066797 27.381577 53.213130 0
M  V30 4 C 38.410896 29.904358 56.018807 0
M  V30 5 C 39.108937 31.125640 54.017172 0
M  V30 6 C 39.245136 29.918107 53.315289 0
M  V30 7 C 38.694271 31.125086 55.356242 0
M  V30 8 O 37.376793 37.692823 61.767762 0 CHG=-1
M  V30 9 C 37.809636 30.996664 58.174281 0
M  V30 10 S 38.681079 31.847308 60.615704 0
M  V30 11 N 38.045137 27.337754 52.167760 0 CHG=1
M  V30 12 C 39.449843 36.715377 62.507329 0
M  V30 13 C 40.399410 35.678749 62.422451 0
M  V30 14 C 39.712371 29.940853 51.864599 0
M  V30 15 C 36.017545 31.663410 59.775386 0
M  V30 16 C 38.297482 36.686466 61.693400 0
M  V30 17 C 37.993183 29.887481 57.437313 0
M  V30 18 C 40.199329 34.611956 61.525845 0
M  V30 19 C 34.845135 33.223904 61.380741 0
M  V30 20 C 38.535610 28.691412 55.311387 0
M  V30 21 C 35.528976 31.864790 61.220004 0
M  V30 22 F 39.645140 37.737747 63.368547 0
M  V30 23 C 38.096562 35.620483 60.800298 0
M  V30 24 C 38.947078 28.692338 53.962021 0
M  V30 25 C 38.828698 33.441744 59.743892 0
M  V30 26 H 37.335335 29.972621 59.990768 0
M  V30 27 H 40.045138 27.267496 52.757593 0
M  V30 28 H 38.929027 26.536020 53.888599 0
M  V30 29 H 39.323884 32.060790 53.526344 0
M  V30 30 H 38.601463 32.063602 55.873852 0
M  V30 31 H 37.956542 31.962149 57.729806 0
M  V30 32 H 38.105418 26.477285 51.643094 0
M  V30 33 H 37.128990 27.391374 52.588084 0
M  V30 34 H 41.281144 35.703679 63.045179 0
M  V30 35 H 38.894348 29.733296 51.175852 0
M  V30 36 H 40.104956 30.925874 51.607301 0
M  V30 37 H 40.517828 29.227870 51.689024 0
M  V30 38 H 36.024573 32.622949 59.258813 0
M  V30 39 H 35.276372 31.073020 59.235083 0
M  V30 40 H 37.834976 28.918440 57.887801 0
M  V30 41 H 40.928332 33.818187 61.460439 0
M  V30 42 H 34.410252 33.337753 62.371805 0
M  V30 43 H 35.551559 34.041571 61.234122 0
M  V30 44 H 34.044676 33.340023 60.650422 0
M  V30 45 H 38.316114 27.756742 55.806937 0
M  V30 46 H 34.845142 31.060081 61.488719 0
M  V30 47 H 36.345823 31.812285 61.936149 0
M  V30 48 H 37.214268 35.600688 60.177287 0
M  V30 49 H 39.645142 33.394691 59.025909 0
M  V30 50 H 37.930955 33.657447 59.169181 0
M  V30 51 H 38.167988 28.118168 51.540935 0
M  V30 END ATOM
M  V30 BEGIN BOND
M  V30 1 1 6 5
M  V30 2 1 7 4
M  V30 3 2 7 5
M  V30 4 1 9 2
M  V30 5 1 10 2
M  V30 6 1 11 3
M  V30 7 1 13 12
M  V30 8 1 14 6
M  V30 9 1 15 2
M  V30 10 1 16 8
M  V30 11 2 16 12
M  V30 12 1 17 4
M  V30 13 2 17 9
M  V30 14 1 18 1
M  V30 15 2 18 13
M  V30 16 2 20 4
M  V30 17 1 21 15
M  V30 18 1 21 19
M  V30 19 1 22 12
M  V30 20 2 23 1
M  V30 21 1 23 16
M  V30 22 1 24 3
M  V30 23 2 24 6
M  V30 24 1 24 20
M  V30 25 1 25 1
M  V30 26 1 25 10
M  V30 27 1 2 26 CFG=1
M  V30 28 1 27 3
M  V30 29 1 28 3
M  V30 30 1 29 5
M  V30 31 1 30 7
M  V30 32 1 31 9
M  V30 33 1 32 11
M  V30 34 1 33 11
M  V30 35 1 34 13
M  V30 36 1 35 14
M  V30 37 1 36 14
M  V30 38 1 37 14
M  V30 39 1 38 15
M  V30 40 1 39 15
M  V30 41 1 40 17
M  V30 42 1 41 18
M  V30 43 1 42 19
M  V30 44 1 43 19
M  V30 45 1 44 19
M  V30 46 1 45 20
M  V30 47 1 46 21
M  V30 48 1 47 21
M  V30 49 1 48 23
M  V30 50 1 49 25
M  V30 51 1 50 25
M  V30 52 1 51 11
M  V30 END BOND
M  V30 END CTAB
M  END
>  <i_epik_Tot_Q>  (1) 
0

>  <i_epik_Tot_abs_Q>  (1) 
2

>  <i_i_glide_confnum>  (1) 
45

>  <i_i_glide_lignum>  (1) 
90

>  <i_i_glide_posenum>  (1) 
399

>  <i_i_glide_rotatable_bonds>  (1) 
8

>  <i_lp_mmshare_version>  (1) 
72125

>  <i_m_source_file_index>  (1) 
42

>  <i_f3d_flags>  (1) 
0

>  <num_sample>  (1) 
100

>  <b_lp_Chiralities_Consistent>  (1) 
1

>  <r_epik_Charging_Adjusted_Penalty>  (1) 
2.7167828853708742

>  <r_epik_Ionization_Penalty>  (1) 
1.3565026725465308

>  <r_epik_Ionization_Penalty_Charging>  (1) 
1.3565026725465308

>  <r_epik_Ionization_Penalty_Neutral>  (1) 
0

>  <r_epik_State_Penalty>  (1) 
1.3602802128243434

>  <r_glide_ring_energy>  (1) 
0

>  <r_i_docking_score>  (1) 
-5.0187119121176691

>  <r_i_glide_ecoul>  (1) 
-1.765812717041519

>  <r_i_glide_eff_state_penalty>  (1) 
1.3602802128243434

>  <r_i_glide_einternal>  (1) 
7.8584775526128485

>  <r_i_glide_emodel>  (1) 
-50.668879045391357

>  <r_i_glide_emodel_strain>  (1) 
1.2915650525800135

>  <r_i_glide_energy>  (1) 
-38.322022420249958

>  <r_i_glide_erotb>  (1) 
0.74153290357203427

>  <r_i_glide_esite>  (1) 
0

>  <r_i_glide_evdw>  (1) 
-36.556209703208438

>  <r_i_glide_gscore>  (1) 
-6.3789921249420125

>  <r_i_glide_gscore_strain>  (1) 
0

>  <r_i_glide_hbond>  (1) 
0

>  <r_i_glide_ligand_efficiency>  (1) 
-0.20074847648470676

>  <r_i_glide_ligand_efficiency_ln>  (1) 
-1.1895851218314668

>  <r_i_glide_ligand_efficiency_sa>  (1) 
-0.58699210616049102

>  <r_i_glide_lipo>  (1) 
-3.2086148427934718

>  <r_i_glide_metal>  (1) 
-0

>  <r_i_glide_rewards>  (1) 
-1.8192277930039253

>  <r_lp_Energy>  (1) 
26.063465999999998

>  <s_epik_cmdline>  (1) 
J2VwaWtfcHl0aG9uJywgJy1waHQnLCAnMS4wJywgJy1waCcsICc3LjQnLCAnLXRuJywgJzgnLCAnLW1hJywgJzUwMCcsICctaW1hZScsICc8aW5maWxlLm1hZT4nLCAnLW9tYWUnLCAnPG91dGZpbGUubWFlPic=

>  <s_epik_input>  (1) 
W09IXWMoW2NIXTEpYyhGKVtjSF1bY0hdYzFbQ0gyXVNbQ0BASF0oW0NIMl1bQ0gyXVtDSDNdKS9bQ0hdPVtDSF0vYzJbY0hdW2NIXWMoW0NIM10pYyhbY0hdMilbQ0gyXVtOSDJd

>  <s_glide_docking_method>  (1) 
confgen

>  <s_i_glide_gridfile>  (1) 
gpcr_5ht2c_6bqh_protein_autoprepared_prepared

>  <s_lp_Force_Field>  (1) 
S-OPLS

>  <s_lp_Variant>  (1) 
DiffSBDD_41-3

>  <s_m_source_file>  (1) 
generated_GPCR_5HT2C_ligand_DiffSBDD_2026-06-23_prepared.sdf

>  <GenAI_Model>  (1) 
DiffSBDD

>  <Protein>  (1) 
GPCR_5HT2C

$$$$
DiffSBDD_10
     RDKit          3D

  0  0  0  0  0  0  0  0  0  0999 V3000
M  V30 BEGIN CTAB
M  V30 COUNTS 84 88 0 0 1
M  V30 BEGIN ATOM
M  V30 1 C 36.401069 37.038721 60.444848 0
M  V30 2 C 39.830306 26.844768 53.331999 0
M  V30 3 C 37.592721 27.795231 53.428249 0
M  V30 4 C 41.882620 28.949207 64.101542 0
M  V30 5 C 41.727113 29.995988 65.024540 0
M  V30 6 O 36.844514 28.532287 52.753687 0 CHG=-1
M  V30 7 C 38.211350 29.313603 59.527784 0
M  V30 8 C 39.387545 31.590831 60.754654 0 CFG=1
M  V30 9 O 40.418711 28.138510 50.992695 0
M  V30 10 C 39.297656 29.071381 60.584793 0 CFG=1
M  V30 11 C 39.165895 28.840400 55.022009 0 CFG=2
M  V30 12 C 39.703894 36.742468 62.171152 0 CFG=1
M  V30 13 O 37.245192 26.756067 54.033756 0
M  V30 14 O 40.090625 30.268514 50.699713 0 CHG=-1
M  V30 15 F 42.517521 27.812308 64.475173 0
M  V30 16 C 41.069722 31.181704 64.653449 0
M  V30 17 C 38.579113 32.433484 59.797520 0
M  V30 18 C 41.383927 29.072741 62.792779 0
M  V30 19 F 42.215646 29.862660 66.280691 0
M  V30 20 C 39.172198 30.403635 55.074444 0
M  V30 21 C 39.964480 29.230102 51.381636 0
M  V30 22 C 39.030091 36.744490 64.629163 0
M  V30 23 C 38.839672 34.763534 60.637859 0
M  V30 24 C 37.802183 31.044844 54.806245 0
M  V30 25 C 38.436220 32.711846 62.281872 0 CFG=1
M  V30 26 C 41.082004 36.430653 61.617554 0
M  V30 27 C 38.508513 36.057922 61.443050 0 CFG=2
M  V30 28 C 38.824062 29.439841 58.141648 0
M  V30 29 O 40.041340 27.933308 60.171583 0
M  V30 30 S 40.443747 28.187941 56.167762 0
M  V30 31 N 41.017872 35.610343 63.776647 0
M  V30 32 C 39.998141 36.295899 63.547792 0
M  V30 33 C 40.714084 30.248473 62.380576 0
M  V30 34 O 38.436590 31.451594 61.778667 0
M  V30 35 C 40.550565 31.343701 63.351199 0
M  V30 36 C 37.902881 37.107304 60.474310 0
M  V30 37 C 40.159663 30.317010 60.901312 0 CFG=2
M  V30 38 C 39.703498 28.209287 57.834855 0 CFG=1
M  V30 39 O 41.644986 35.463488 62.515866 0
M  V30 40 O 40.696944 28.222619 58.849745 0
M  V30 41 C 39.074834 28.202793 53.545534 0 CFG=1
M  V30 42 C 39.835679 32.705618 63.008928 0
M  V30 43 N 39.316143 29.317221 52.563936 0
M  V30 44 C 38.142401 33.438882 60.913277 0 CFG=2
M  V30 45 H 35.980199 37.711792 59.703967 0
M  V30 46 H 36.045157 36.031073 60.225535 0
M  V30 47 H 36.045981 37.349618 61.423584 0
M  V30 48 H 39.827925 26.219191 54.224065 0
M  V30 49 H 39.358772 26.258852 52.542152 0
M  V30 50 H 40.845787 26.937752 52.981158 0
M  V30 51 H 37.499155 28.537670 59.485547 0
M  V30 52 H 37.525276 30.099215 59.802125 0
M  V30 53 H 40.258972 32.246162 60.800027 0
M  V30 54 H 38.845215 28.780396 61.526509 0
M  V30 55 H 38.277857 28.530589 55.573493 0
M  V30 56 H 39.569811 37.822076 62.225175 0
M  V30 57 H 40.963167 31.978446 65.374742 0
M  V30 58 H 39.188460 32.859258 58.999167 0
M  V30 59 H 37.696627 32.009142 59.330479 0
M  V30 60 H 41.515089 28.257293 62.098655 0
M  V30 61 H 39.499376 30.754444 56.045741 0
M  V30 62 H 39.933512 30.827416 54.420513 0
M  V30 63 H 37.997934 36.694350 64.285411 0
M  V30 64 H 39.130741 36.138373 65.528587 0
M  V30 65 H 39.251209 37.767369 64.924105 0
M  V30 66 H 39.895615 34.540957 60.564618 0
M  V30 67 H 38.510241 34.936156 59.621695 0
M  V30 68 H 37.824819 32.114461 55.012918 0
M  V30 69 H 37.499556 30.918110 53.769543 0
M  V30 70 H 37.023588 30.608276 55.433270 0
M  V30 71 H 37.592982 32.722002 62.959010 0
M  V30 72 H 41.136222 36.142922 60.572911 0
M  V30 73 H 41.645868 37.336379 61.659078 0
M  V30 74 H 37.748614 35.814958 62.186519 0
M  V30 75 H 39.433275 30.340000 58.109714 0
M  V30 76 H 38.005464 29.554422 57.436060 0
M  V30 77 H 38.155153 38.131011 60.748019 0
M  V30 78 H 38.267640 36.985069 59.457150 0
M  V30 79 H 41.008699 30.342411 60.220878 0
M  V30 80 H 39.114634 27.293953 57.917960 0
M  V30 81 H 39.694076 33.234346 63.944169 0
M  V30 82 H 40.561174 33.322057 62.487590 0
M  V30 83 H 38.952415 30.218654 52.822327 0
M  V30 84 H 37.064738 33.590015 60.825583 0
M  V30 END ATOM
M  V30 BEGIN BOND
M  V30 1 1 5 4
M  V30 2 1 6 3
M  V30 3 1 10 7
M  V30 4 2 13 3
M  V30 5 1 15 4
M  V30 6 2 16 5
M  V30 7 1 17 8
M  V30 8 2 18 4
M  V30 9 1 19 5
M  V30 10 1 20 11
M  V30 11 2 21 9
M  V30 12 1 21 14
M  V30 13 1 24 20
M  V30 14 1 26 12
M  V30 15 1 27 12
M  V30 16 1 27 23
M  V30 17 1 28 7
M  V30 18 1 29 10
M  V30 19 1 30 11
M  V30 20 1 32 12
M  V30 21 1 32 22
M  V30 22 2 32 31
M  V30 23 1 33 18
M  V30 24 1 34 8
M  V30 25 1 34 25
M  V30 26 1 35 16
M  V30 27 2 35 33
M  V30 28 1 36 1
M  V30 29 1 36 27
M  V30 30 1 37 8
M  V30 31 1 37 10
M  V30 32 1 37 33
M  V30 33 1 38 28
M  V30 34 1 38 30
M  V30 35 1 39 26
M  V30 36 1 39 31
M  V30 37 1 40 29
M  V30 38 1 40 38
M  V30 39 1 41 2
M  V30 40 1 41 3
M  V30 41 1 41 11
M  V30 42 1 42 25
M  V30 43 1 42 35
M  V30 44 1 43 21
M  V30 45 1 41 43 CFG=3
M  V30 46 1 44 17
M  V30 47 1 44 23
M  V30 48 1 44 25
M  V30 49 1 45 1
M  V30 50 1 46 1
M  V30 51 1 47 1
M  V30 52 1 48 2
M  V30 53 1 49 2
M  V30 54 1 50 2
M  V30 55 1 51 7
M  V30 56 1 52 7
M  V30 57 1 8 53 CFG=1
M  V30 58 1 10 54 CFG=1
M  V30 59 1 11 55 CFG=1
M  V30 60 1 12 56 CFG=1
M  V30 61 1 57 16
M  V30 62 1 58 17
M  V30 63 1 59 17
M  V30 64 1 60 18
M  V30 65 1 61 20
M  V30 66 1 62 20
M  V30 67 1 63 22
M  V30 68 1 64 22
M  V30 69 1 65 22
M  V30 70 1 66 23
M  V30 71 1 67 23
M  V30 72 1 68 24
M  V30 73 1 69 24
M  V30 74 1 70 24
M  V30 75 1 25 71 CFG=1
M  V30 76 1 72 26
M  V30 77 1 73 26
M  V30 78 1 27 74 CFG=1
M  V30 79 1 75 28
M  V30 80 1 76 28
M  V30 81 1 77 36
M  V30 82 1 78 36
M  V30 83 1 37 79 CFG=3
M  V30 84 1 38 80 CFG=1
M  V30 85 1 81 42
M  V30 86 1 82 42
M  V30 87 1 83 43
M  V30 88 1 44 84 CFG=3
M  V30 END BOND
M  V30 END CTAB
M  END
>  <i_epik_Tot_Q>  (1) 
-2

>  <i_epik_Tot_abs_Q>  (1) 
2

>  <i_i_glide_confnum>  (1) 
1178

>  <i_i_glide_lignum>  (1) 
17

>  <i_i_glide_posenum>  (1) 
216

>  <i_i_glide_rotatable_bonds>  (1) 
12

>  <i_lp_mmshare_version>  (1) 
72125

>  <i_m_source_file_index>  (1) 
11

>  <i_f3d_flags>  (1) 
0

>  <num_sample>  (1) 
100

>  <b_lp_Chiralities_Consistent>  (1) 
1

>  <r_epik_Charging_Adjusted_Penalty>  (1) 
0.0066641346833683675

>  <r_epik_Ionization_Penalty>  (1) 
0.0034118145539950863

>  <r_epik_Ionization_Penalty_Charging>  (1) 
0.0034117433904366969

>  <r_epik_Ionization_Penalty_Neutral>  (1) 
7.1163558389510919e-08

>  <r_epik_State_Penalty>  (1) 
0.0032523912929316705

>  <r_glide_ring_energy>  (1) 
1.0808791285296326

>  <r_i_docking_score>  (1) 
-5.0137984901664225

>  <r_i_glide_ecoul>  (1) 
0.33149808079325471

>  <r_i_glide_eff_state_penalty>  (1) 
0.0032523912929316705

>  <r_i_glide_einternal>  (1) 
18.994283423498253

>  <r_i_glide_emodel>  (1) 
-27.662963229809023

>  <r_i_glide_emodel_strain>  (1) 
11.575069026347421

>  <r_i_glide_energy>  (1) 
-38.459327328887191

>  <r_i_glide_erotb>  (1) 
0.27131343112086626

>  <r_i_glide_esite>  (1) 
0

>  <r_i_glide_evdw>  (1) 
-38.790825409680444

>  <r_i_glide_gscore>  (1) 
-5.0170508814593546

>  <r_i_glide_gscore_strain>  (1) 
1.8937672565868553

>  <r_i_glide_hbond>  (1) 
0

>  <r_i_glide_ligand_efficiency>  (1) 
-0.11394996568560051

>  <r_i_glide_ligand_efficiency_ln>  (1) 
-1.0479932598449513

>  <r_i_glide_ligand_efficiency_sa>  (1) 
-0.40228307166862187

>  <r_i_glide_lipo>  (1) 
-3.5118061846465758

>  <r_i_glide_metal>  (1) 
-0

>  <r_i_glide_rewards>  (1) 
-1.7805088261554665

>  <r_lp_Energy>  (1) 
101.860817

>  <s_epik_Chemistry_Notes>  (1) 
This compound has an imine and may undergo hydrolysis. This compound contains an acetal/aminal-like group ( X-CH(R)-Y where X, Y are N, S, or O) that may be acid/base labile, releasing an aldehyde.

>  <s_epik_cmdline>  (1) 
J2VwaWtfcHl0aG9uJywgJy1waHQnLCAnMS4wJywgJy1waCcsICc3LjQnLCAnLXRuJywgJzgnLCAnLW1hJywgJzUwMCcsICctaW1hZScsICc8aW5maWxlLm1hZT4nLCAnLW9tYWUnLCAnPG91dGZpbGUubWFlPic=

>  <s_epik_input>  (1) 
W0NIM11DMT1OT1tDSDJdW0NASF0xW0NAQEhdKFtDSDJdW0NIM10pW0NIMl1bQ0BASF0oW0NIMl1bQ0BASF0yMylbQ0BASF0oTzIpW0NIMl1jNGMoW2NIXWMoRiljKEYpW2NIXTQpW0NASF0zW0NASF01W0NIMl1bQ0gyXVtDQEhdKE9PNSlTW0NAQEhdKFtDSDJdW0NIM10pW0NAQF0oW0NIM10pKEMoPU8pW09IXSlbTkhdQyg9TylbT0hd

>  <s_glide_docking_method>  (1) 
confgen

>  <s_i_glide_gridfile>  (1) 
gpcr_5ht2c_6bqh_protein_autoprepared_prepared

>  <s_lp_Force_Field>  (1) 
S-OPLS

>  <s_lp_Variant>  (1) 
DiffSBDD_10-1

>  <s_m_source_file>  (1) 
generated_GPCR_5HT2C_ligand_DiffSBDD_2026-06-23_prepared.sdf

>  <GenAI_Model>  (1) 
DiffSBDD

>  <Protein>  (1) 
GPCR_5HT2C

$$$$
DiffSBDD_0
     RDKit          3D

  0  0  0  0  0  0  0  0  0  0999 V3000
M  V30 BEGIN CTAB
M  V30 COUNTS 61 60 0 0 1
M  V30 BEGIN ATOM
M  V30 1 C 39.287852 30.067522 61.822324 0
M  V30 2 C 36.472789 33.453492 59.152324 0
M  V30 3 C 37.893381 25.513101 55.598697 0 CFG=1
M  V30 4 C 38.990170 32.473012 57.010642 0
M  V30 5 C 37.454536 32.270217 59.058287 0 CFG=1
M  V30 6 C 39.402655 29.416551 56.358715 0
M  V30 7 C 38.802505 25.180898 56.799507 0
M  V30 8 C 38.876958 30.487093 55.366278 0 CFG=2
M  V30 9 C 39.905349 28.662102 61.754755 0
M  V30 10 C 38.704461 32.738161 58.308451 0
M  V30 11 C 38.117665 31.657582 56.057131 0 CFG=2
M  V30 12 C 37.808272 31.727227 60.467183 0 CFG=1
M  V30 13 O 36.612719 31.341444 61.123596 0
M  V30 14 C 39.644725 26.344265 57.371079 0
M  V30 15 C 38.868112 27.502320 58.038052 0
M  V30 16 O 37.645132 32.522992 55.041060 0
M  V30 17 C 38.733869 30.489759 60.442240 0
M  V30 18 O 38.647403 26.141325 54.581665 0
M  V30 19 C 38.322575 28.603875 57.102855 0
M  V30 20 C 40.311096 31.071748 62.380378 0
M  V30 21 C 37.231629 24.267676 54.996043 0
M  V30 22 O 37.939595 29.874070 54.503943 0
M  V30 23 C 40.019445 30.964190 54.443382 0
M  V30 24 H 38.458057 30.016456 62.528779 0
M  V30 25 H 36.254395 33.859956 58.166233 0
M  V30 26 H 35.518005 33.157299 59.587099 0
M  V30 27 H 36.879565 34.263853 59.757578 0
M  V30 28 H 37.096475 26.179538 55.920804 0
M  V30 29 H 39.905923 32.862860 56.591348 0
M  V30 30 H 36.952935 31.460190 58.539907 0
M  V30 31 H 40.045722 29.892272 57.096654 0
M  V30 32 H 40.038646 28.728601 55.803326 0
M  V30 33 H 38.196937 24.752151 57.598660 0
M  V30 34 H 39.494737 24.393464 56.501506 0
M  V30 35 H 40.748419 28.625301 61.063832 0
M  V30 36 H 40.260954 28.341304 62.734702 0
M  V30 37 H 39.170689 27.928586 61.424400 0
M  V30 38 H 39.401896 33.330974 58.882050 0
M  V30 39 H 37.245271 31.232849 56.536492 0
M  V30 40 H 38.269586 32.527798 61.045317 0
M  V30 41 H 36.080464 30.872739 60.497111 0
M  V30 42 H 40.288265 25.910428 58.137816 0
M  V30 43 H 40.336116 26.713900 56.615591 0
M  V30 44 H 38.045138 27.085287 58.617987 0
M  V30 45 H 39.526747 27.977771 58.765095 0
M  V30 46 H 36.764261 32.834246 55.291715 0
M  V30 47 H 38.177922 29.657305 60.010373 0
M  V30 48 H 39.576141 30.656164 59.771363 0
M  V30 49 H 38.053195 26.567488 53.981718 0
M  V30 50 H 37.645308 28.169226 56.378722 0
M  V30 51 H 37.711176 29.282656 57.695752 0
M  V30 52 H 41.145248 31.215151 61.693513 0
M  V30 53 H 39.861780 32.046129 62.568806 0
M  V30 54 H 40.718810 30.723754 63.330209 0
M  V30 55 H 36.664389 23.719618 55.748807 0
M  V30 56 H 36.542105 24.537707 54.195579 0
M  V30 57 H 37.972315 23.590510 54.571709 0
M  V30 58 H 37.442592 30.589395 54.130182 0
M  V30 59 H 40.834947 31.421504 54.999077 0
M  V30 60 H 40.444665 30.137231 53.878056 0
M  V30 61 H 39.670545 31.690777 53.709247 0
M  V30 END ATOM
M  V30 BEGIN BOND
M  V30 1 1 5 2
M  V30 2 1 7 3
M  V30 3 1 8 6
M  V30 4 1 9 1
M  V30 5 2 10 4
M  V30 6 1 10 5
M  V30 7 1 11 4
M  V30 8 1 11 8
M  V30 9 1 12 5
M  V30 10 1 13 12
M  V30 11 1 14 7
M  V30 12 1 15 14
M  V30 13 1 16 11
M  V30 14 1 17 1
M  V30 15 1 17 12
M  V30 16 1 18 3
M  V30 17 1 19 6
M  V30 18 1 19 15
M  V30 19 1 20 1
M  V30 20 1 21 3
M  V30 21 1 8 22 CFG=3
M  V30 22 1 23 8
M  V30 23 1 24 1
M  V30 24 1 25 2
M  V30 25 1 26 2
M  V30 26 1 27 2
M  V30 27 1 3 28 CFG=1
M  V30 28 1 29 4
M  V30 29 1 5 30 CFG=3
M  V30 30 1 31 6
M  V30 31 1 32 6
M  V30 32 1 33 7
M  V30 33 1 34 7
M  V30 34 1 35 9
M  V30 35 1 36 9
M  V30 36 1 37 9
M  V30 37 1 38 10
M  V30 38 1 11 39 CFG=1
M  V30 39 1 12 40 CFG=1
M  V30 40 1 41 13
M  V30 41 1 42 14
M  V30 42 1 43 14
M  V30 43 1 44 15
M  V30 44 1 45 15
M  V30 45 1 46 16
M  V30 46 1 47 17
M  V30 47 1 48 17
M  V30 48 1 49 18
M  V30 49 1 50 19
M  V30 50 1 51 19
M  V30 51 1 52 20
M  V30 52 1 53 20
M  V30 53 1 54 20
M  V30 54 1 55 21
M  V30 55 1 56 21
M  V30 56 1 57 21
M  V30 57 1 58 22
M  V30 58 1 59 23
M  V30 59 1 60 23
M  V30 60 1 61 23
M  V30 END BOND
M  V30 END CTAB
M  END
>  <i_epik_Tot_Q>  (1) 
0

>  <i_epik_Tot_abs_Q>  (1) 
0

>  <i_i_glide_confnum>  (1) 
3510

>  <i_i_glide_lignum>  (1) 
2

>  <i_i_glide_posenum>  (1) 
71

>  <i_i_glide_rotatable_bonds>  (1) 
16

>  <i_lp_mmshare_version>  (1) 
72125

>  <i_m_source_file_index>  (1) 
1

>  <i_f3d_flags>  (1) 
0

>  <num_sample>  (1) 
100

>  <b_lp_Chiralities_Consistent>  (1) 
1

>  <r_epik_Charging_Adjusted_Penalty>  (1) 
0

>  <r_epik_Ionization_Penalty>  (1) 
5.9169763795933225e-07

>  <r_epik_Ionization_Penalty_Charging>  (1) 
0

>  <r_epik_Ionization_Penalty_Neutral>  (1) 
5.9169763795933225e-07

>  <r_epik_State_Penalty>  (1) 
-0

>  <r_glide_ring_energy>  (1) 
0

>  <r_i_docking_score>  (1) 
-5.0126288831410521

>  <r_i_glide_ecoul>  (1) 
-6.7586643049916288

>  <r_i_glide_eff_state_penalty>  (1) 
-0

>  <r_i_glide_einternal>  (1) 
5.9655822682589523

>  <r_i_glide_emodel>  (1) 
-45.830416129547729

>  <r_i_glide_emodel_strain>  (1) 
0.43219358476710212

>  <r_i_glide_energy>  (1) 
-38.092446860633821

>  <r_i_glide_erotb>  (1) 
1.894024340436764

>  <r_i_glide_esite>  (1) 
0

>  <r_i_glide_evdw>  (1) 
-31.333782555642195

>  <r_i_glide_gscore>  (1) 
-5.0126288831410521

>  <r_i_glide_gscore_strain>  (1) 
0

>  <r_i_glide_hbond>  (1) 
-0.47535998901112181

>  <r_i_glide_ligand_efficiency>  (1) 
-0.21794038622352402

>  <r_i_glide_ligand_efficiency_ln>  (1) 
-1.2120991159492724

>  <r_i_glide_ligand_efficiency_sa>  (1) 
-0.61979346795717694

>  <r_i_glide_lipo>  (1) 
-2.4729609167649942

>  <r_i_glide_metal>  (1) 
-0

>  <r_i_glide_rewards>  (1) 
-1.3778435442708457

>  <r_lp_Energy>  (1) 
14.425478999999999

>  <r_lp_tautomer_probability>  (1) 
1

>  <s_epik_cmdline>  (1) 
J2VwaWtfcHl0aG9uJywgJy1waHQnLCAnMS4wJywgJy1waCcsICc3LjQnLCAnLXRuJywgJzgnLCAnLW1hJywgJzUwMCcsICctaW1hZScsICc8aW5maWxlLm1hZT4nLCAnLW9tYWUnLCAnPG91dGZpbGUubWFlPic=

>  <s_epik_input>  (1) 
W0NIM11bQ0hdKFtDSDNdKVtDSDJdW0NASF0oW09IXSlbQ0BASF0oW0NIM10pL1tDSF09W0NIXVxbQ0BASF0oW09IXSlbQ0BAXShbT0hdKShbQ0gzXSlbQ0gyXVtDSDJdW0NIMl1bQ0gyXVtDSDJdW0NAQEhdKFtPSF0pW0NIM10=

>  <s_glide_docking_method>  (1) 
confgen

>  <s_i_glide_gridfile>  (1) 
gpcr_5ht2c_6bqh_protein_autoprepared_prepared

>  <s_lp_Force_Field>  (1) 
S-OPLS

>  <s_lp_Variant>  (1) 
DiffSBDD_0-2

>  <s_m_source_file>  (1) 
generated_GPCR_5HT2C_ligand_DiffSBDD_2026-06-23_prepared.sdf

>  <GenAI_Model>  (1) 
DiffSBDD

>  <Protein>  (1) 
GPCR_5HT2C

$$$$
DiffSBDD_69
     RDKit          3D

  0  0  0  0  0  0  0  0  0  0999 V3000
M  V30 BEGIN CTAB
M  V30 COUNTS 57 57 0 0 1
M  V30 BEGIN ATOM
M  V30 1 C 39.681446 28.018237 59.911542 0
M  V30 2 N 44.530260 28.320805 63.767817 0 CHG=1
M  V30 3 C 39.679850 29.787215 61.657023 0
M  V30 4 C 43.948596 28.342175 66.180978 0 CFG=1
M  V30 5 C 39.358200 28.404269 61.123750 0
M  V30 6 C 43.416472 28.207094 64.730536 0 CFG=1
M  V30 7 C 40.034532 27.592895 58.720683 0
M  V30 8 C 45.117050 26.991381 68.052536 0
M  V30 9 C 41.451363 28.851207 63.155903 0
M  V30 10 C 42.272126 29.203602 64.411552 0
M  V30 11 C 42.237642 27.871848 57.582553 0
M  V30 12 C 38.815365 29.386237 56.345599 0 CFG=1
M  V30 13 C 40.128054 28.574486 56.373802 0
M  V30 14 C 38.996767 30.847979 56.807528 0
M  V30 15 N 40.265437 29.730224 63.014976 0 CHG=1
M  V30 16 C 38.407089 31.194174 54.455025 0
M  V30 17 C 44.885746 27.168003 66.545665 0
M  V30 18 C 44.610384 29.709394 66.456929 0
M  V30 19 S 38.142506 29.420108 54.656394 0
M  V30 20 C 38.291481 31.800362 55.844355 0
M  V30 21 C 40.823480 28.448343 57.748059 0 CFG=1
M  V30 22 H 44.933532 29.244687 63.818996 0
M  V30 23 H 45.247075 27.647585 64.000845 0
M  V30 24 H 40.351717 30.320105 60.981796 0
M  V30 25 H 38.754964 30.362852 61.707255 0
M  V30 26 H 43.081985 28.266870 66.839498 0
M  V30 27 H 38.842349 27.737878 61.796694 0
M  V30 28 H 43.008198 27.199761 64.626409 0
M  V30 29 H 39.774325 26.599361 58.386180 0
M  V30 30 H 45.771680 26.140186 68.243213 0
M  V30 31 H 45.590311 27.866758 68.495257 0
M  V30 32 H 44.178754 26.811696 68.579407 0
M  V30 33 H 41.114720 27.813962 63.202021 0
M  V30 34 H 42.072259 28.935544 62.265692 0
M  V30 35 H 42.663597 30.218025 64.317334 0
M  V30 36 H 41.588275 29.228087 65.261976 0
M  V30 37 H 42.713288 27.683649 58.545968 0
M  V30 38 H 42.212276 26.937988 57.026980 0
M  V30 39 H 42.886469 28.541490 57.022761 0
M  V30 40 H 38.070016 28.897759 56.973746 0
M  V30 41 H 40.823219 29.042008 55.677498 0
M  V30 42 H 39.941252 27.577141 55.971721 0
M  V30 43 H 38.656254 30.994180 57.832951 0
M  V30 44 H 40.046071 31.106047 56.788129 0
M  V30 45 H 40.510820 30.670843 63.289275 0
M  V30 46 H 39.407953 31.357772 54.056070 0
M  V30 47 H 37.686394 31.631848 53.767742 0
M  V30 48 H 44.458033 26.239258 66.165393 0
M  V30 49 H 45.852574 27.289925 66.054977 0
M  V30 50 H 45.528357 29.840832 65.884839 0
M  V30 51 H 43.946984 30.542103 66.224001 0
M  V30 52 H 44.876654 29.813997 67.508080 0
M  V30 53 H 38.697811 32.811101 55.888310 0
M  V30 54 H 37.245071 31.872992 56.113496 0
M  V30 55 H 40.932327 29.439343 58.185900 0
M  V30 56 H 44.215191 28.137403 62.819208 0
M  V30 57 H 39.547090 29.387364 63.648739 0
M  V30 END ATOM
M  V30 BEGIN BOND
M  V30 1 2 5 1
M  V30 2 1 5 3
M  V30 3 1 6 2
M  V30 4 1 6 4
M  V30 5 2 7 1
M  V30 6 1 10 6
M  V30 7 1 10 9
M  V30 8 1 13 12
M  V30 9 1 14 12
M  V30 10 1 15 3
M  V30 11 1 15 9
M  V30 12 1 17 4
M  V30 13 1 17 8
M  V30 14 1 18 4
M  V30 15 1 19 12
M  V30 16 1 19 16
M  V30 17 1 20 14
M  V30 18 1 20 16
M  V30 19 1 21 7
M  V30 20 1 21 11
M  V30 21 1 21 13
M  V30 22 1 22 2
M  V30 23 1 23 2
M  V30 24 1 24 3
M  V30 25 1 25 3
M  V30 26 1 4 26 CFG=1
M  V30 27 1 27 5
M  V30 28 1 6 28 CFG=1
M  V30 29 1 29 7
M  V30 30 1 30 8
M  V30 31 1 31 8
M  V30 32 1 32 8
M  V30 33 1 33 9
M  V30 34 1 34 9
M  V30 35 1 35 10
M  V30 36 1 36 10
M  V30 37 1 37 11
M  V30 38 1 38 11
M  V30 39 1 39 11
M  V30 40 1 12 40 CFG=1
M  V30 41 1 41 13
M  V30 42 1 42 13
M  V30 43 1 43 14
M  V30 44 1 44 14
M  V30 45 1 45 15
M  V30 46 1 46 16
M  V30 47 1 47 16
M  V30 48 1 48 17
M  V30 49 1 49 17
M  V30 50 1 50 18
M  V30 51 1 51 18
M  V30 52 1 52 18
M  V30 53 1 53 20
M  V30 54 1 54 20
M  V30 55 1 21 55 CFG=1
M  V30 56 1 56 2
M  V30 57 1 57 15
M  V30 END BOND
M  V30 END CTAB
M  END
>  <i_epik_Tot_Q>  (1) 
2

>  <i_epik_Tot_abs_Q>  (1) 
2

>  <i_i_glide_confnum>  (1) 
404

>  <i_i_glide_lignum>  (1) 
153

>  <i_i_glide_posenum>  (1) 
205

>  <i_i_glide_rotatable_bonds>  (1) 
10

>  <i_lp_mmshare_version>  (1) 
72125

>  <i_m_source_file_index>  (1) 
70

>  <i_f3d_flags>  (1) 
0

>  <num_sample>  (1) 
100

>  <b_lp_Chiralities_Consistent>  (1) 
1

>  <r_epik_Charging_Adjusted_Penalty>  (1) 
0.029112061252425856

>  <r_epik_Ionization_Penalty>  (1) 
0.014593894863530521

>  <r_epik_Ionization_Penalty_Charging>  (1) 
0.014593894863530521

>  <r_epik_Ionization_Penalty_Neutral>  (1) 
0

>  <r_epik_State_Penalty>  (1) 
0.014518166388895335

>  <r_glide_ring_energy>  (1) 
0

>  <r_i_docking_score>  (1) 
-5.0037701071978491

>  <r_i_glide_ecoul>  (1) 
-7.9701684020526509

>  <r_i_glide_eff_state_penalty>  (1) 
0.014518166388895335

>  <r_i_glide_einternal>  (1) 
8.2188721678414574

>  <r_i_glide_emodel>  (1) 
-45.342227675766161

>  <r_i_glide_emodel_strain>  (1) 
0.48413346254336886

>  <r_i_glide_energy>  (1) 
-33.541639474831044

>  <r_i_glide_erotb>  (1) 
1.5199289784806138

>  <r_i_glide_esite>  (1) 
-0.040671838400419415

>  <r_i_glide_evdw>  (1) 
-25.57147107277839

>  <r_i_glide_gscore>  (1) 
-5.0182882735867445

>  <r_i_glide_gscore_strain>  (1) 
0

>  <r_i_glide_hbond>  (1) 
0

>  <r_i_glide_ligand_efficiency>  (1) 
-0.23827476700942138

>  <r_i_glide_ligand_efficiency_ln>  (1) 
-1.2371720479351247

>  <r_i_glide_ligand_efficiency_sa>  (1) 
-0.65738201532387142

>  <r_i_glide_lipo>  (1) 
-2.2522064058167426

>  <r_i_glide_metal>  (1) 
-0

>  <r_i_glide_rewards>  (1) 
-1.7712401939033793

>  <r_lp_Energy>  (1) 
-1.0378579999999999

>  <s_epik_cmdline>  (1) 
J2VwaWtfcHl0aG9uJywgJy1waHQnLCAnMS4wJywgJy1waCcsICc3LjQnLCAnLXRuJywgJzgnLCAnLW1hJywgJzUwMCcsICctaW1hZScsICc8aW5maWxlLm1hZT4nLCAnLW9tYWUnLCAnPG91dGZpbGUubWFlPic=

>  <s_epik_input>  (1) 
UzFbQ0gyXVtDSDJdW0NIMl1bQ0BASF0xW0NIMl1bQ0BIXShbQ0gzXSlbQ0hdPUM9W0NIXVtDSDJdW05IXVtDSDJdW0NIMl1bQ0BASF0oW05IMl0pW0NASF0oW0NIM10pW0NIMl1bQ0gzXQ==

>  <s_glide_docking_method>  (1) 
confgen

>  <s_i_glide_gridfile>  (1) 
gpcr_5ht2c_6bqh_protein_autoprepared_prepared

>  <s_lp_Force_Field>  (1) 
S-OPLS

>  <s_lp_Variant>  (1) 
DiffSBDD_69-1

>  <s_m_source_file>  (1) 
generated_GPCR_5HT2C_ligand_DiffSBDD_2026-06-23_prepared.sdf

>  <GenAI_Model>  (1) 
DiffSBDD

>  <Protein>  (1) 
GPCR_5HT2C

$$$$
DiffSBDD_78
     RDKit          3D

  0  0  0  0  0  0  0  0  0  0999 V3000
M  V30 BEGIN CTAB
M  V30 COUNTS 105 110 0 0 1
M  V30 BEGIN ATOM
M  V30 1 O 38.534474 27.852079 52.750969 0
M  V30 2 C 42.671667 28.637253 66.691816 0
M  V30 3 C 38.945005 32.716069 62.838973 0 CFG=1
M  V30 4 C 37.213488 29.040579 57.728007 0
M  V30 5 O 38.844089 33.181183 55.765937 0
M  V30 6 C 41.969723 30.622937 64.985378 0 CFG=2
M  V30 7 C 37.512732 27.517671 53.684608 0
M  V30 8 O 38.311065 28.972291 55.470553 0
M  V30 9 C 42.817286 30.048320 66.118543 0 CFG=1
M  V30 10 O 42.278423 26.937722 58.567737 0
M  V30 11 C 41.734418 33.981859 67.414384 0
M  V30 12 N 40.045198 32.101833 63.574683 0
M  V30 13 N 41.692886 30.964732 66.370982 0 CFG=2 CHG=1
M  V30 14 C 39.785162 34.436564 68.718902 0
M  V30 15 C 41.471627 28.323914 67.584653 0
M  V30 16 C 39.248618 34.057888 62.195908 0 CFG=1
M  V30 17 N 40.143922 30.742312 63.220828 0
M  V30 18 C 38.577215 29.227622 52.409908 0
M  V30 19 C 40.864984 29.905682 64.174883 0 CFG=1
M  V30 20 C 40.143690 35.468723 67.693912 0
M  V30 21 C 40.228415 28.023889 62.566672 0
M  V30 22 C 37.438360 29.699517 56.343116 0 CFG=2
M  V30 23 C 40.550321 30.747764 60.792386 0
M  V30 24 C 41.866864 36.054910 65.932478 0
M  V30 25 C 38.225951 31.974851 55.361462 0
M  V30 26 C 38.037200 27.609286 55.131715 0 CFG=2
M  V30 27 C 40.030184 32.166234 60.554963 0
M  V30 28 C 40.003961 29.768315 52.485992 0
M  V30 29 O 43.504425 27.767145 66.453135 0
M  V30 30 C 41.249132 29.103519 62.914115 0
M  V30 31 C 41.200579 35.206410 67.003081 0
M  V30 32 C 42.596592 28.412352 63.125280 0
M  V30 33 C 39.935656 26.746612 56.686777 0
M  V30 34 C 40.486075 30.516077 67.105843 0
M  V30 35 C 42.018220 35.482016 64.502485 0
M  V30 36 C 40.673844 35.446380 63.776380 0
M  V30 37 O 40.914617 33.482377 68.440660 0
M  V30 38 N 41.245129 28.636401 59.795621 0
M  V30 39 S 40.566875 28.373299 57.183806 0
M  V30 40 C 40.580365 29.863317 59.767667 0
M  V30 41 C 38.116578 31.065007 56.583961 0
M  V30 42 C 41.498881 27.868078 58.637256 0
M  V30 43 C 40.900428 29.579197 68.222021 0
M  V30 44 C 40.624369 34.703375 62.428386 0
M  V30 45 O 42.742191 33.435518 66.968393 0
M  V30 46 C 41.150444 30.487873 62.192648 0 CFG=2
M  V30 47 C 38.983047 32.805625 61.371574 0 CFG=1
M  V30 48 C 39.324524 26.770660 55.281286 0
M  V30 49 H 37.918752 32.392600 62.967779 0
M  V30 50 H 36.478751 29.615763 58.293349 0
M  V30 51 H 38.120928 29.024834 58.326101 0
M  V30 52 H 36.845530 28.018237 57.691216 0
M  V30 53 H 39.660141 32.968787 56.192486 0
M  V30 54 H 42.415956 31.489471 64.500999 0
M  V30 55 H 37.231968 26.483935 53.482414 0
M  V30 56 H 36.605292 28.102046 53.531856 0
M  V30 57 H 43.744588 30.566835 66.355682 0
M  V30 58 H 39.887436 32.203823 64.574296 0
M  V30 59 H 38.801434 33.993926 68.567476 0
M  V30 60 H 41.772728 27.616472 68.357547 0
M  V30 61 H 40.710669 27.826302 66.982172 0
M  V30 62 H 38.440764 34.786687 62.172872 0
M  V30 63 H 38.189181 29.334365 51.396523 0
M  V30 64 H 37.950109 29.821805 53.071889 0
M  V30 65 H 40.179661 29.306086 64.765642 0
M  V30 66 H 39.554072 36.366460 67.580480 0
M  V30 67 H 40.556091 27.337971 61.794696 0
M  V30 68 H 39.277421 28.438039 62.225303 0
M  V30 69 H 40.045154 27.429759 63.459427 0
M  V30 70 H 36.481484 29.835849 55.840756 0
M  V30 71 H 42.845050 36.364273 66.290573 0
M  V30 72 H 41.240460 36.937747 65.915474 0
M  V30 73 H 37.245237 32.180917 54.934190 0
M  V30 74 H 38.834943 31.510411 54.587178 0
M  V30 75 H 37.283466 27.172527 55.783264 0
M  V30 76 H 40.899872 32.809091 60.568155 0
M  V30 77 H 39.645045 32.243517 59.540279 0
M  V30 78 H 40.047175 30.808152 52.163593 0
M  V30 79 H 40.679081 29.193742 51.851673 0
M  V30 80 H 40.365277 29.738639 53.513876 0
M  V30 81 H 39.859025 34.839342 69.729676 0
M  V30 82 H 42.747048 27.501072 62.567736 0
M  V30 83 H 42.669307 28.036613 64.135151 0
M  V30 84 H 43.443581 29.078734 62.968743 0
M  V30 85 H 40.756181 26.031692 56.695681 0
M  V30 86 H 39.204866 26.406596 57.421043 0
M  V30 87 H 40.045146 31.401008 67.543157 0
M  V30 88 H 39.685787 30.086084 66.508929 0
M  V30 89 H 42.700476 36.119605 63.936914 0
M  V30 90 H 42.476012 34.492261 64.534305 0
M  V30 91 H 40.045132 34.932149 64.475891 0
M  V30 92 H 40.260686 36.450504 63.672922 0
M  V30 93 H 41.728444 28.365578 60.640770 0
M  V30 94 H 40.176722 30.118677 58.809770 0
M  V30 95 H 37.593002 31.606159 57.371803 0
M  V30 96 H 39.118960 30.896557 56.971572 0
M  V30 97 H 40.045253 29.337749 68.844701 0
M  V30 98 H 41.631687 30.052967 68.880161 0
M  V30 99 H 41.407481 33.945566 62.406974 0
M  V30 100 H 40.849860 35.389294 61.611976 0
M  V30 101 H 42.037066 31.108322 62.342949 0
M  V30 102 H 38.006344 32.759886 60.890051 0
M  V30 103 H 39.102789 25.742630 54.992134 0
M  V30 104 H 40.076257 27.117573 54.575513 0
M  V30 105 H 42.040662 31.883089 66.630617 0
M  V30 END ATOM
M  V30 BEGIN BOND
M  V30 1 1 7 1
M  V30 2 1 9 2
M  V30 3 1 9 6
M  V30 4 1 12 3
M  V30 5 1 13 6
M  V30 6 1 13 9
M  V30 7 1 15 2
M  V30 8 1 16 3
M  V30 9 1 17 12
M  V30 10 1 18 1
M  V30 11 1 19 6
M  V30 12 1 19 17
M  V30 13 1 20 14
M  V30 14 1 22 4
M  V30 15 1 22 8
M  V30 16 1 25 5
M  V30 17 1 26 7
M  V30 18 1 26 8
M  V30 19 1 27 23
M  V30 20 1 28 18
M  V30 21 2 29 2
M  V30 22 1 30 19
M  V30 23 1 30 21
M  V30 24 1 31 11
M  V30 25 2 31 20
M  V30 26 1 31 24
M  V30 27 1 32 30
M  V30 28 1 34 13
M  V30 29 1 35 24
M  V30 30 1 36 35
M  V30 31 1 37 11
M  V30 32 1 37 14
M  V30 33 1 39 33
M  V30 34 2 40 23
M  V30 35 1 40 38
M  V30 36 1 41 22
M  V30 37 1 41 25
M  V30 38 2 42 10
M  V30 39 1 42 38
M  V30 40 1 42 39
M  V30 41 1 43 15
M  V30 42 1 43 34
M  V30 43 1 44 16
M  V30 44 1 44 36
M  V30 45 2 45 11
M  V30 46 1 46 17
M  V30 47 1 46 23
M  V30 48 1 46 30
M  V30 49 1 47 3
M  V30 50 1 47 16
M  V30 51 1 47 27
M  V30 52 1 48 26
M  V30 53 1 48 33
M  V30 54 1 3 49 CFG=3
M  V30 55 1 50 4
M  V30 56 1 51 4
M  V30 57 1 52 4
M  V30 58 1 53 5
M  V30 59 1 6 54 CFG=3
M  V30 60 1 55 7
M  V30 61 1 56 7
M  V30 62 1 9 57 CFG=3
M  V30 63 1 58 12
M  V30 64 1 59 14
M  V30 65 1 60 15
M  V30 66 1 61 15
M  V30 67 1 16 62 CFG=3
M  V30 68 1 63 18
M  V30 69 1 64 18
M  V30 70 1 19 65 CFG=1
M  V30 71 1 66 20
M  V30 72 1 67 21
M  V30 73 1 68 21
M  V30 74 1 69 21
M  V30 75 1 22 70 CFG=3
M  V30 76 1 71 24
M  V30 77 1 72 24
M  V30 78 1 73 25
M  V30 79 1 74 25
M  V30 80 1 26 75 CFG=1
M  V30 81 1 76 27
M  V30 82 1 77 27
M  V30 83 1 78 28
M  V30 84 1 79 28
M  V30 85 1 80 28
M  V30 86 1 81 14
M  V30 87 1 82 32
M  V30 88 1 83 32
M  V30 89 1 84 32
M  V30 90 1 85 33
M  V30 91 1 86 33
M  V30 92 1 87 34
M  V30 93 1 88 34
M  V30 94 1 89 35
M  V30 95 1 90 35
M  V30 96 1 91 36
M  V30 97 1 92 36
M  V30 98 1 93 38
M  V30 99 1 94 40
M  V30 100 1 95 41
M  V30 101 1 96 41
M  V30 102 1 97 43
M  V30 103 1 98 43
M  V30 104 1 99 44
M  V30 105 1 100 44
M  V30 106 1 46 101 CFG=1
M  V30 107 1 47 102 CFG=3
M  V30 108 1 103 48
M  V30 109 1 104 48
M  V30 110 1 13 105 CFG=3
M  V30 END BOND
M  V30 END CTAB
M  END
>  <i_epik_Tot_Q>  (1) 
1

>  <i_epik_Tot_abs_Q>  (1) 
1

>  <i_i_glide_confnum>  (1) 
767

>  <i_i_glide_lignum>  (1) 
181

>  <i_i_glide_posenum>  (1) 
73

>  <i_i_glide_rotatable_bonds>  (1) 
20

>  <i_lp_mmshare_version>  (1) 
72125

>  <i_m_source_file_index>  (1) 
79

>  <i_f3d_flags>  (1) 
0

>  <num_sample>  (1) 
100

>  <b_lp_Chiralities_Consistent>  (1) 
1

>  <r_epik_Charging_Adjusted_Penalty>  (1) 
0.27991857207723647

>  <r_epik_Ionization_Penalty>  (1) 
0.14008487576319317

>  <r_epik_Ionization_Penalty_Charging>  (1) 
0.13995928603861824

>  <r_epik_Ionization_Penalty_Neutral>  (1) 
0.0001255897245749389

>  <r_epik_State_Penalty>  (1) 
0.13995928603861821

>  <r_glide_ring_energy>  (1) 
0

>  <r_i_docking_score>  (1) 
-5.001185394264394

>  <r_i_glide_ecoul>  (1) 
-0.60384868319477203

>  <r_i_glide_eff_state_penalty>  (1) 
0.13995928603861821

>  <r_i_glide_einternal>  (1) 
17.825735217804247

>  <r_i_glide_emodel>  (1) 
-25.157951076484963

>  <r_i_glide_emodel_strain>  (1) 
5.3678002037387671

>  <r_i_glide_energy>  (1) 
-33.142875563741157

>  <r_i_glide_erotb>  (1) 
0.59343049219720367

>  <r_i_glide_esite>  (1) 
-0.0016243938597759848

>  <r_i_glide_evdw>  (1) 
-32.539026880546388

>  <r_i_glide_gscore>  (1) 
-5.1411446803030119

>  <r_i_glide_gscore_strain>  (1) 
0.34195005093469177

>  <r_i_glide_hbond>  (1) 
-0.062550972605145749

>  <r_i_glide_ligand_efficiency>  (1) 
-0.1041913623805082

>  <r_i_glide_ligand_efficiency_ln>  (1) 
-1.0266842577560307

>  <r_i_glide_ligand_efficiency_sa>  (1) 
-0.37865654035371477

>  <r_i_glide_lipo>  (1) 
-3.581307910286601

>  <r_i_glide_metal>  (1) 
-0

>  <r_i_glide_rewards>  (1) 
-0.713513300176849

>  <r_lp_Energy>  (1) 
49.471941999999999

>  <r_lp_tautomer_probability>  (1) 
0.99979120136373534

>  <s_epik_Chemistry_Notes>  (1) 
This compound has an ester and may undergo hydrolysis at high or low pH.

>  <s_epik_cmdline>  (1) 
J2VwaWtfcHl0aG9uJywgJy1waHQnLCAnMS4wJywgJy1waCcsICc3LjQnLCAnLXRuJywgJzgnLCAnLW1hJywgJzUwMCcsICctaW1hZScsICc8aW5maWxlLm1hZT4nLCAnLW9tYWUnLCAnPG91dGZpbGUubWFlPic=

>  <s_epik_input>  (1) 
W09IXVtDSDJdW0NIMl1bQ0BIXShbQ0gzXSlPW0NAQEhdKFtDSDJdT1tDSDJdW0NIM10pW0NIMl1bQ0gyXVNDKD1PKVtOSF1cW0NIXT1DKFtDQEhdMU4oW05IXTIpW0NAQEhdKEMxKFtDSDNdKVtDSDNdKVtDQEhdM04oW0NASF0zNClbQ0gyXVtDSDJdW0NIMl1DND1PKVxbQ0gyXVtDQEBIXShbQ0BASF0yNSlbQ0BASF01W0NIMl1bQ0gyXVtDSDJdW0NIMl1bQ0BASF0oQzY9TylbQ0hdPVtDSF1PNg==

>  <s_glide_docking_method>  (1) 
confgen

>  <s_i_glide_gridfile>  (1) 
gpcr_5ht2c_6bqh_protein_autoprepared_prepared

>  <s_lp_Force_Field>  (1) 
S-OPLS

>  <s_lp_Variant>  (1) 
DiffSBDD_78-3

>  <s_m_source_file>  (1) 
generated_GPCR_5HT2C_ligand_DiffSBDD_2026-06-23_prepared.sdf

>  <GenAI_Model>  (1) 
DiffSBDD

>  <Protein>  (1) 
GPCR_5HT2C

$$$$
DiffSBDD_86
     RDKit          3D

  0  0  0  0  0  0  0  0  0  0999 V3000
M  V30 BEGIN CTAB
M  V30 COUNTS 77 79 0 0 1
M  V30 BEGIN ATOM
M  V30 1 C 40.152566 36.076275 65.221661 0
M  V30 2 C 39.470581 29.358874 52.152979 0
M  V30 3 C 37.882451 33.649397 60.565509 0 CFG=2
M  V30 4 C 38.810236 28.138165 52.814131 0
M  V30 5 N 39.193070 33.471037 61.248223 0
M  V30 6 C 40.792096 29.041373 59.783234 0
M  V30 7 N 39.901281 36.485411 63.905547 0
M  V30 8 C 38.091334 30.292724 58.490028 0
M  V30 9 O 35.004310 32.287058 60.327136 0
M  V30 10 O 38.044986 27.074533 56.650851 0
M  V30 11 C 39.724658 28.558646 57.476187 0 CFG=2
M  V30 12 C 38.204280 31.814606 58.764926 0
M  V30 13 C 39.412698 32.472344 62.154403 0
M  V30 14 N 39.007354 29.884088 57.376169 0 CFG=1 CHG=1
M  V30 15 C 38.781258 27.342287 57.624245 0
M  V30 16 C 39.470874 36.453319 66.404776 0
M  V30 17 C 40.845185 34.940541 67.742289 0
M  V30 18 O 40.555630 32.326019 62.637797 0
M  V30 19 C 40.273125 34.399152 60.849336 0
M  V30 20 C 41.547577 34.558725 66.588795 0
M  V30 21 C 36.877233 34.382521 61.463643 0
M  V30 22 S 41.883852 34.808267 63.768763 0
M  V30 23 O 38.827345 26.708364 58.695900 0 CHG=-1
M  V30 24 C 38.379416 30.095060 56.037776 0
M  V30 25 C 37.306743 32.349146 59.907290 0 CFG=2
M  V30 26 C 41.879062 27.277496 58.279214 0
M  V30 27 O 36.033482 32.655232 59.367775 0
M  V30 28 N 39.822959 30.430953 53.117161 0 CHG=1
M  V30 29 C 40.338736 35.777048 61.557042 0
M  V30 30 C 41.203655 35.116772 65.349148 0
M  V30 31 O 38.454978 37.337756 66.335640 0 CHG=-1
M  V30 32 C 38.951620 31.301750 55.280036 0
M  V30 33 C 40.601098 35.759402 63.029817 0
M  V30 34 C 42.364183 28.537717 57.680181 0
M  V30 35 C 40.995558 28.516566 58.366838 0
M  V30 36 O 38.471341 31.717742 62.477106 0 CHG=-1
M  V30 37 C 39.816635 35.891453 67.651336 0
M  V30 38 C 38.706306 31.153917 53.770787 0
M  V30 39 H 38.845147 29.737684 51.346161 0
M  V30 40 H 40.397963 29.033720 51.678765 0
M  V30 41 H 38.041786 34.338010 59.735433 0
M  V30 42 H 38.672853 27.337303 52.086719 0
M  V30 43 H 39.418483 27.735424 53.624719 0
M  V30 44 H 37.824825 28.369485 53.218344 0
M  V30 45 H 41.645086 28.798275 60.410573 0
M  V30 46 H 40.653646 30.122046 59.799109 0
M  V30 47 H 39.935425 28.560997 60.255886 0
M  V30 48 H 38.322712 29.755706 59.404858 0
M  V30 49 H 37.058776 30.017852 58.267685 0
M  V30 50 H 34.919781 33.093425 60.813431 0
M  V30 51 H 40.148542 28.400615 56.483409 0
M  V30 52 H 37.984469 32.382780 57.861670 0
M  V30 53 H 39.245100 32.028521 59.005300 0
M  V30 54 H 41.100703 34.509488 68.699530 0
M  V30 55 H 41.242843 33.920783 60.967783 0
M  V30 56 H 40.169441 34.580777 59.780490 0
M  V30 57 H 42.341046 33.829677 66.652426 0
M  V30 58 H 36.066091 34.812546 60.874876 0
M  V30 59 H 36.434003 33.687526 62.167765 0
M  V30 60 H 37.341245 35.202260 62.014191 0
M  V30 61 H 38.527497 29.222440 55.406338 0
M  V30 62 H 37.293537 30.183299 56.109759 0
M  V30 63 H 37.167720 31.533525 60.609377 0
M  V30 64 H 42.445212 26.939885 59.142746 0
M  V30 65 H 41.557651 26.504138 57.594258 0
M  V30 66 H 40.384408 31.119412 52.633389 0
M  V30 67 H 41.131167 36.367644 61.096189 0
M  V30 68 H 39.414736 36.325234 61.373253 0
M  V30 69 H 38.454077 32.204749 55.635447 0
M  V30 70 H 40.015742 31.438633 55.481844 0
M  V30 71 H 42.416120 28.537743 56.593638 0
M  V30 72 H 43.188549 29.048534 58.167906 0
M  V30 73 H 39.277869 36.186488 68.539704 0
M  V30 74 H 37.754011 30.647543 53.619519 0
M  V30 75 H 38.612676 32.137595 53.312188 0
M  V30 76 H 40.395445 30.015763 53.837880 0
M  V30 77 H 39.765622 30.546672 57.421758 0
M  V30 END ATOM
M  V30 BEGIN BOND
M  V30 1 1 4 2
M  V30 2 1 5 3
M  V30 3 1 7 1
M  V30 4 1 12 8
M  V30 5 1 13 5
M  V30 6 1 14 8
M  V30 7 1 14 11
M  V30 8 2 15 10
M  V30 9 1 15 11
M  V30 10 2 16 1
M  V30 11 2 18 13
M  V30 12 1 19 5
M  V30 13 1 20 17
M  V30 14 1 21 3
M  V30 15 1 23 15
M  V30 16 1 24 14
M  V30 17 1 25 3
M  V30 18 1 25 12
M  V30 19 1 27 9
M  V30 20 1 27 25
M  V30 21 1 28 2
M  V30 22 1 29 19
M  V30 23 1 30 1
M  V30 24 2 30 20
M  V30 25 1 30 22
M  V30 26 1 31 16
M  V30 27 1 32 24
M  V30 28 2 33 7
M  V30 29 1 33 22
M  V30 30 1 33 29
M  V30 31 1 34 26
M  V30 32 1 35 6
M  V30 33 1 35 11
M  V30 34 1 35 26
M  V30 35 1 35 34
M  V30 36 1 36 13
M  V30 37 1 37 16
M  V30 38 2 37 17
M  V30 39 1 38 28
M  V30 40 1 38 32
M  V30 41 1 39 2
M  V30 42 1 40 2
M  V30 43 1 3 41 CFG=3
M  V30 44 1 42 4
M  V30 45 1 43 4
M  V30 46 1 44 4
M  V30 47 1 45 6
M  V30 48 1 46 6
M  V30 49 1 47 6
M  V30 50 1 48 8
M  V30 51 1 49 8
M  V30 52 1 50 9
M  V30 53 1 11 51 CFG=3
M  V30 54 1 52 12
M  V30 55 1 53 12
M  V30 56 1 54 17
M  V30 57 1 55 19
M  V30 58 1 56 19
M  V30 59 1 57 20
M  V30 60 1 58 21
M  V30 61 1 59 21
M  V30 62 1 60 21
M  V30 63 1 61 24
M  V30 64 1 62 24
M  V30 65 1 25 63 CFG=1
M  V30 66 1 64 26
M  V30 67 1 65 26
M  V30 68 1 66 28
M  V30 69 1 67 29
M  V30 70 1 68 29
M  V30 71 1 69 32
M  V30 72 1 70 32
M  V30 73 1 71 34
M  V30 74 1 72 34
M  V30 75 1 73 37
M  V30 76 1 74 38
M  V30 77 1 75 38
M  V30 78 1 76 28
M  V30 79 1 14 77 CFG=3
M  V30 END BOND
M  V30 END CTAB
M  END
>  <i_epik_Tot_Q>  (1) 
-1

>  <i_epik_Tot_abs_Q>  (1) 
5

>  <i_i_glide_confnum>  (1) 
7771

>  <i_i_glide_lignum>  (1) 
207

>  <i_i_glide_posenum>  (1) 
114

>  <i_i_glide_rotatable_bonds>  (1) 
19

>  <i_lp_mmshare_version>  (1) 
72125

>  <i_m_source_file_index>  (1) 
87

>  <i_f3d_flags>  (1) 
0

>  <num_sample>  (1) 
100

>  <b_lp_Chiralities_Consistent>  (1) 
1

>  <r_epik_Charging_Adjusted_Penalty>  (1) 
1.7068457012274814

>  <r_epik_Ionization_Penalty>  (1) 
0.85572285372979207

>  <r_epik_Ionization_Penalty_Charging>  (1) 
0.8536556191236474

>  <r_epik_Ionization_Penalty_Neutral>  (1) 
0.0020672346061446629

>  <r_epik_State_Penalty>  (1) 
0.85319008210383396

>  <r_glide_ring_energy>  (1) 
0

>  <r_i_docking_score>  (1) 
-4.999708764353417

>  <r_i_glide_ecoul>  (1) 
0.70612998873448396

>  <r_i_glide_eff_state_penalty>  (1) 
0.85319008210383396

>  <r_i_glide_einternal>  (1) 
11.676988098655112

>  <r_i_glide_emodel>  (1) 
-52.01702757980059

>  <r_i_glide_emodel_strain>  (1) 
2.3289498513804574

>  <r_i_glide_energy>  (1) 
-37.392605192886556

>  <r_i_glide_erotb>  (1) 
0.88358493265308913

>  <r_i_glide_esite>  (1) 
-0.15016278674237868

>  <r_i_glide_evdw>  (1) 
-38.098735181621038

>  <r_i_glide_gscore>  (1) 
-5.8528988464572507

>  <r_i_glide_gscore_strain>  (1) 
0

>  <r_i_glide_hbond>  (1) 
0

>  <r_i_glide_ligand_efficiency>  (1) 
-0.13157128327245834

>  <r_i_glide_ligand_efficiency_ln>  (1) 
-1.0780842861253486

>  <r_i_glide_ligand_efficiency_sa>  (1) 
-0.44233941860298487

>  <r_i_glide_lipo>  (1) 
-3.7509849927347032

>  <r_i_glide_metal>  (1) 
-0

>  <r_i_glide_rewards>  (1) 
-1.0363187388623782

>  <r_lp_Energy>  (1) 
30.418627999999998

>  <s_epik_cmdline>  (1) 
J2VwaWtfcHl0aG9uJywgJy1waHQnLCAnMS4wJywgJy1waCcsICc3LjQnLCAnLXRuJywgJzgnLCAnLW1hJywgJzUwMCcsICctaW1hZScsICc8aW5maWxlLm1hZT4nLCAnLW9tYWUnLCAnPG91dGZpbGUubWFlPic=

>  <s_epik_input>  (1) 
W09IXWMxW2NIXVtjSF1bY0hdYyhjMTIpc2MobjIpW0NIMl1bQ0gyXU4oQyg9TylbT0hdKVtDQEhdKFtDSDNdKVtDQEBIXShPW09IXSlbQ0gyXVtDSDJdTihbQ0BIXShDKD1PKVtPSF0pQzMoW0NIM10pW0NIMl1bQ0gyXTMpW0NIMl1bQ0gyXVtDSDJdW05IXVtDSDJdW0NIM10=

>  <s_glide_docking_method>  (1) 
confgen

>  <s_i_glide_gridfile>  (1) 
gpcr_5ht2c_6bqh_protein_autoprepared_prepared

>  <s_lp_Force_Field>  (1) 
S-OPLS

>  <s_lp_Variant>  (1) 
DiffSBDD_86-4

>  <s_m_source_file>  (1) 
generated_GPCR_5HT2C_ligand_DiffSBDD_2026-06-23_prepared.sdf

>  <GenAI_Model>  (1) 
DiffSBDD

>  <Protein>  (1) 
GPCR_5HT2C

$$$$
DiffSBDD_36
     RDKit          3D

  0  0  0  0  0  0  0  0  0  0999 V3000
M  V30 BEGIN CTAB
M  V30 COUNTS 49 49 0 0 1
M  V30 BEGIN ATOM
M  V30 1 C 39.169698 28.029727 54.878060 0
M  V30 2 C 40.117608 26.628836 58.287578 0
M  V30 3 C 40.905508 28.332939 56.717347 0
M  V30 4 C 38.391465 25.500652 56.809782 0
M  V30 5 C 37.577478 31.199463 60.734665 0
M  V30 6 C 39.080017 26.832242 57.165549 0 CFG=1
M  V30 7 C 41.187633 27.712117 58.090345 0
M  V30 8 C 40.045143 28.563524 50.607650 0
M  V30 9 C 39.154009 27.609246 53.602862 0
M  V30 10 C 38.344255 28.283864 52.508440 0
M  V30 11 O 36.537397 31.340459 61.367768 0
M  V30 12 C 37.954474 28.643883 58.578518 0
M  V30 13 C 36.879150 29.683805 58.825124 0
M  V30 14 C 38.004384 27.879050 57.474168 0
M  V30 15 C 39.958765 27.359758 56.001231 0 CFG=1
M  V30 16 C 40.464698 29.502576 49.463896 0
M  V30 17 S 39.208647 31.150600 61.352901 0 CHG=-1
M  V30 18 C 37.463716 31.048797 59.226216 0
M  V30 19 C 39.796150 30.401005 52.416018 0
M  V30 20 C 39.132618 29.262970 51.615480 0 CFG=1
M  V30 21 H 38.588873 28.898519 55.151043 0
M  V30 22 H 39.686533 26.621052 59.288334 0
M  V30 23 H 40.599828 25.657962 58.167382 0
M  V30 24 H 40.407778 29.293340 56.860549 0
M  V30 25 H 41.820600 28.534547 56.167770 0
M  V30 26 H 39.117294 24.732770 56.538800 0
M  V30 27 H 37.810139 25.122011 57.651698 0
M  V30 28 H 37.711328 25.618724 55.965049 0
M  V30 29 H 41.140917 28.470388 58.872791 0
M  V30 30 H 42.184960 27.271557 58.121371 0
M  V30 31 H 40.907672 28.145874 51.119218 0
M  V30 32 H 39.508514 27.720354 50.170464 0
M  V30 33 H 39.735980 26.745933 53.314478 0
M  V30 34 H 37.867574 27.511178 51.904315 0
M  V30 35 H 37.525940 28.828123 52.982288 0
M  V30 36 H 38.705625 28.540417 59.344843 0
M  V30 37 H 36.297650 29.799454 57.909596 0
M  V30 38 H 36.176405 29.337755 59.581211 0
M  V30 39 H 37.245138 27.998453 56.729026 0
M  V30 40 H 40.546774 26.536899 55.590667 0
M  V30 41 H 40.845110 28.942940 48.611740 0
M  V30 42 H 39.645125 30.107453 49.088284 0
M  V30 43 H 41.247233 30.188960 49.788234 0
M  V30 44 H 38.393605 31.251961 58.691267 0
M  V30 45 H 36.775783 31.828541 58.897893 0
M  V30 46 H 40.519098 30.031913 53.134394 0
M  V30 47 H 40.300640 31.117272 51.767698 0
M  V30 48 H 39.055068 30.956912 52.989473 0
M  V30 49 H 38.411918 29.737755 50.967793 0
M  V30 END ATOM
M  V30 BEGIN BOND
M  V30 1 1 6 2
M  V30 2 1 6 4 CFG=3
M  V30 3 1 7 2
M  V30 4 1 7 3
M  V30 5 2 9 1
M  V30 6 1 10 9
M  V30 7 2 11 5
M  V30 8 1 13 12
M  V30 9 1 14 6
M  V30 10 2 14 12
M  V30 11 1 15 1
M  V30 12 1 15 3
M  V30 13 1 15 6
M  V30 14 1 16 8
M  V30 15 1 17 5
M  V30 16 1 18 5
M  V30 17 1 18 13
M  V30 18 1 20 8
M  V30 19 1 20 10
M  V30 20 1 20 19
M  V30 21 1 21 1
M  V30 22 1 22 2
M  V30 23 1 23 2
M  V30 24 1 24 3
M  V30 25 1 25 3
M  V30 26 1 26 4
M  V30 27 1 27 4
M  V30 28 1 28 4
M  V30 29 1 29 7
M  V30 30 1 30 7
M  V30 31 1 31 8
M  V30 32 1 32 8
M  V30 33 1 33 9
M  V30 34 1 34 10
M  V30 35 1 35 10
M  V30 36 1 36 12
M  V30 37 1 37 13
M  V30 38 1 38 13
M  V30 39 1 39 14
M  V30 40 1 15 40 CFG=3
M  V30 41 1 41 16
M  V30 42 1 42 16
M  V30 43 1 43 16
M  V30 44 1 44 18
M  V30 45 1 45 18
M  V30 46 1 46 19
M  V30 47 1 47 19
M  V30 48 1 48 19
M  V30 49 1 20 49 CFG=3
M  V30 END BOND
M  V30 END CTAB
M  END
>  <i_epik_Tot_Q>  (1) 
-1

>  <i_epik_Tot_abs_Q>  (1) 
1

>  <i_i_glide_confnum>  (1) 
407

>  <i_i_glide_lignum>  (1) 
80

>  <i_i_glide_posenum>  (1) 
153

>  <i_i_glide_rotatable_bonds>  (1) 
8

>  <i_lp_mmshare_version>  (1) 
72125

>  <i_m_source_file_index>  (1) 
37

>  <i_f3d_flags>  (1) 
0

>  <num_sample>  (1) 
100

>  <b_lp_Chiralities_Consistent>  (1) 
1

>  <r_epik_Charging_Adjusted_Penalty>  (1) 
9.4165288777969193e-05

>  <r_epik_Ionization_Penalty>  (1) 
9.4165288777969193e-05

>  <r_epik_Ionization_Penalty_Charging>  (1) 
9.4165288777969193e-05

>  <r_epik_Ionization_Penalty_Neutral>  (1) 
0

>  <r_epik_State_Penalty>  (1) 
-0

>  <r_glide_ring_energy>  (1) 
0

>  <r_i_docking_score>  (1) 
-4.9906325574148642

>  <r_i_glide_ecoul>  (1) 
-3.9265452660283633

>  <r_i_glide_eff_state_penalty>  (1) 
-0

>  <r_i_glide_einternal>  (1) 
4.8104056063506402

>  <r_i_glide_emodel>  (1) 
-33.67437575090797

>  <r_i_glide_emodel_strain>  (1) 
1.8195377036055689

>  <r_i_glide_energy>  (1) 
-29.712330499224542

>  <r_i_glide_erotb>  (1) 
2.5456975872200465

>  <r_i_glide_esite>  (1) 
0

>  <r_i_glide_evdw>  (1) 
-25.785785233196179

>  <r_i_glide_gscore>  (1) 
-4.9906325574148642

>  <r_i_glide_gscore_strain>  (1) 
0

>  <r_i_glide_hbond>  (1) 
-0.32000000000000001

>  <r_i_glide_ligand_efficiency>  (1) 
-0.24953162787074321

>  <r_i_glide_ligand_efficiency_ln>  (1) 
-1.2489907270428713

>  <r_i_glide_ligand_efficiency_sa>  (1) 
-0.67733304658994997

>  <r_i_glide_lipo>  (1) 
-3.2822242586703738

>  <r_i_glide_metal>  (1) 
-0

>  <r_i_glide_rewards>  (1) 
-2.0558348344004731

>  <r_lp_Energy>  (1) 
14.488792999999999

>  <r_lp_tautomer_probability>  (1) 
1

>  <s_epik_cmdline>  (1) 
J2VwaWtfcHl0aG9uJywgJy1waHQnLCAnMS4wJywgJy1waCcsICc3LjQnLCAnLXRuJywgJzgnLCAnLW1hJywgJzUwMCcsICctaW1hZScsICc8aW5maWxlLm1hZT4nLCAnLW9tYWUnLCAnPG91dGZpbGUubWFlPic=

>  <s_epik_input>  (1) 
W0NIM11bQ0gyXVtDQEhdKFtDSDNdKVtDSDJdXFtDSF09W0NIXVxbQ0BIXTFbQ0gyXVtDSDJdW0NIMl1bQ0BAXTEoW0NIM10pXFtDSF09W0NIXVxbQ0gyXVtDSDJdQyg9TylbU0hd

>  <s_glide_docking_method>  (1) 
confgen

>  <s_i_glide_gridfile>  (1) 
gpcr_5ht2c_6bqh_protein_autoprepared_prepared

>  <s_lp_Force_Field>  (1) 
S-OPLS

>  <s_lp_Variant>  (1) 
DiffSBDD_36-1

>  <s_m_source_file>  (1) 
generated_GPCR_5HT2C_ligand_DiffSBDD_2026-06-23_prepared.sdf

>  <GenAI_Model>  (1) 
DiffSBDD

>  <Protein>  (1) 
GPCR_5HT2C

$$$$
DiffSBDD_62
     RDKit          3D

  0  0  0  0  0  0  0  0  0  0999 V3000
M  V30 BEGIN CTAB
M  V30 COUNTS 80 84 0 0 1
M  V30 BEGIN ATOM
M  V30 1 C 42.751169 32.621018 66.931660 0
M  V30 2 C 38.174454 26.653169 54.139689 0
M  V30 3 C 37.378205 30.454059 59.933587 0
M  V30 4 C 41.893823 33.454206 64.657844 0
M  V30 5 C 44.973425 27.566539 66.346482 0
M  V30 6 C 38.308813 28.947514 52.861307 0
M  V30 7 C 38.895273 30.336317 60.223695 0 CFG=2
M  V30 8 C 38.648700 28.585497 55.306098 0
M  V30 9 C 39.232352 30.166601 56.952593 0
M  V30 10 O 43.480629 29.845021 67.514994 0
M  V30 11 C 44.882659 28.970390 65.784650 0
M  V30 12 C 39.041894 26.775774 58.509061 0
M  V30 13 C 41.851952 32.369415 65.729162 0
M  V30 14 C 44.373695 30.044394 66.688608 0
M  V30 15 C 38.997059 27.877651 57.533726 0
M  V30 16 N 38.662725 27.628922 56.226368 0
M  V30 17 C 36.696056 31.627915 60.673307 0
M  V30 18 O 41.244925 31.477510 61.806963 0
M  V30 19 C 43.904716 27.902163 65.337028 0
M  V30 20 N 45.049810 32.114991 67.646930 0
M  V30 21 N 38.398546 26.289328 55.688740 0
M  V30 22 N 41.124031 31.320554 65.636768 0
M  V30 23 C 40.269865 31.050219 64.492346 0
M  V30 24 C 38.393294 28.146884 54.143624 0
M  V30 25 C 39.272864 29.060396 57.935444 0
M  V30 26 C 39.333561 27.737817 59.767770 0
M  V30 27 N 44.946428 31.252096 66.490441 0
M  V30 28 C 40.682351 30.223299 62.126260 0 CFG=2
M  V30 29 C 44.244286 32.536159 66.584627 0 CFG=1
M  V30 30 C 36.804696 33.372060 58.819084 0
M  V30 31 C 35.893625 32.579813 59.774011 0
M  V30 32 C 39.633585 29.268037 59.360765 0 CFG=2
M  V30 33 C 35.061354 33.548238 60.621489 0
M  V30 34 C 39.194169 30.137297 61.746688 0
M  V30 35 N 40.976261 30.125683 63.578625 0 CHG=1
M  V30 36 N 38.927152 29.941986 55.709215 0
M  V30 37 H 42.556155 33.631703 67.292250 0
M  V30 38 H 42.466955 31.981755 67.765818 0
M  V30 39 H 37.164293 26.393077 53.823105 0
M  V30 40 H 38.906736 26.142630 53.514830 0
M  V30 41 H 37.215048 30.573971 58.864063 0
M  V30 42 H 36.866165 29.523710 60.167731 0
M  V30 43 H 42.580782 34.253917 64.937355 0
M  V30 44 H 42.239102 33.045109 63.709272 0
M  V30 45 H 40.912661 33.909249 64.520374 0
M  V30 46 H 45.819440 26.961943 66.026525 0
M  V30 47 H 44.653388 27.398572 67.372970 0
M  V30 48 H 39.040996 28.583568 52.140252 0
M  V30 49 H 37.315965 28.850653 52.422371 0
M  V30 50 H 38.506522 30.004112 53.040442 0
M  V30 51 H 39.307940 31.301810 59.932461 0
M  V30 52 H 39.474532 31.162453 57.331400 0
M  V30 53 H 45.644876 29.261989 65.065450 0
M  V30 54 H 38.098758 26.232733 58.577493 0
M  V30 55 H 39.870492 26.097091 58.302793 0
M  V30 56 H 36.027808 31.208200 61.423297 0
M  V30 57 H 37.421300 32.232435 61.216287 0
M  V30 58 H 42.879439 27.951693 65.699531 0
M  V30 59 H 44.018912 27.516327 64.325705 0
M  V30 60 H 44.587084 31.768784 68.477481 0
M  V30 61 H 39.243242 25.730860 55.795673 0
M  V30 62 H 39.941201 31.955426 63.982573 0
M  V30 63 H 39.362413 30.544824 64.828241 0
M  V30 64 H 40.141286 27.339106 60.380352 0
M  V30 65 H 38.445159 27.730103 60.396246 0
M  V30 66 H 41.245150 29.435922 61.626154 0
M  V30 67 H 44.628216 33.337755 65.958492 0
M  V30 68 H 37.531618 33.973899 59.364432 0
M  V30 69 H 37.354185 32.715797 58.145358 0
M  V30 70 H 36.218352 34.045671 58.193138 0
M  V30 71 H 35.195983 31.978042 59.191409 0
M  V30 72 H 40.709455 29.440622 59.387340 0
M  V30 73 H 35.695258 34.241254 61.175059 0
M  V30 74 H 34.398706 34.137249 59.987430 0
M  V30 75 H 34.445153 33.015872 61.344283 0
M  V30 76 H 38.845141 29.162123 62.078410 0
M  V30 77 H 38.633580 30.853327 62.342655 0
M  V30 78 H 40.763628 29.187620 63.889171 0
M  V30 79 H 41.965902 30.281869 63.699255 0
M  V30 80 H 40.576884 32.025414 61.418549 0
M  V30 END ATOM
M  V30 BEGIN BOND
M  V30 1 1 7 3
M  V30 2 1 11 5
M  V30 3 1 13 1
M  V30 4 1 13 4
M  V30 5 2 14 10
M  V30 6 1 14 11
M  V30 7 1 15 12
M  V30 8 1 16 8
M  V30 9 1 16 15
M  V30 10 1 17 3
M  V30 11 1 19 5
M  V30 12 1 19 11
M  V30 13 1 21 2
M  V30 14 1 21 16
M  V30 15 2 22 13
M  V30 16 1 23 22
M  V30 17 1 24 2
M  V30 18 1 24 6
M  V30 19 2 24 8
M  V30 20 1 25 9
M  V30 21 2 25 15
M  V30 22 1 26 12
M  V30 23 1 27 14
M  V30 24 1 27 20
M  V30 25 1 28 18
M  V30 26 1 29 1
M  V30 27 1 29 20
M  V30 28 1 29 27
M  V30 29 1 31 17
M  V30 30 1 31 30
M  V30 31 1 32 7
M  V30 32 1 32 25
M  V30 33 1 32 26
M  V30 34 1 33 31
M  V30 35 1 34 7
M  V30 36 1 34 28
M  V30 37 1 35 23
M  V30 38 1 35 28
M  V30 39 1 36 8
M  V30 40 2 36 9
M  V30 41 1 37 1
M  V30 42 1 38 1
M  V30 43 1 39 2
M  V30 44 1 40 2
M  V30 45 1 41 3
M  V30 46 1 42 3
M  V30 47 1 43 4
M  V30 48 1 44 4
M  V30 49 1 45 4
M  V30 50 1 46 5
M  V30 51 1 47 5
M  V30 52 1 48 6
M  V30 53 1 49 6
M  V30 54 1 50 6
M  V30 55 1 7 51 CFG=3
M  V30 56 1 52 9
M  V30 57 1 53 11
M  V30 58 1 54 12
M  V30 59 1 55 12
M  V30 60 1 56 17
M  V30 61 1 57 17
M  V30 62 1 58 19
M  V30 63 1 59 19
M  V30 64 1 60 20
M  V30 65 1 61 21
M  V30 66 1 62 23
M  V30 67 1 63 23
M  V30 68 1 64 26
M  V30 69 1 65 26
M  V30 70 1 28 66 CFG=3
M  V30 71 1 29 67 CFG=3
M  V30 72 1 68 30
M  V30 73 1 69 30
M  V30 74 1 70 30
M  V30 75 1 71 31
M  V30 76 1 32 72 CFG=3
M  V30 77 1 73 33
M  V30 78 1 74 33
M  V30 79 1 75 33
M  V30 80 1 76 34
M  V30 81 1 77 34
M  V30 82 1 78 35
M  V30 83 1 79 35
M  V30 84 1 80 18
M  V30 END BOND
M  V30 END CTAB
M  END
>  <i_epik_Tot_Q>  (1) 
1

>  <i_epik_Tot_abs_Q>  (1) 
1

>  <i_i_glide_confnum>  (1) 
3333

>  <i_i_glide_lignum>  (1) 
138

>  <i_i_glide_posenum>  (1) 
67

>  <i_i_glide_rotatable_bonds>  (1) 
14

>  <i_lp_mmshare_version>  (1) 
72125

>  <i_m_source_file_index>  (1) 
63

>  <i_f3d_flags>  (1) 
0

>  <num_sample>  (1) 
100

>  <b_lp_Chiralities_Consistent>  (1) 
1

>  <r_epik_Charging_Adjusted_Penalty>  (1) 
1.9108014557952604

>  <r_epik_Ionization_Penalty>  (1) 
0.8812751426241725

>  <r_epik_Ionization_Penalty_Charging>  (1) 
0.72483633588800112

>  <r_epik_Ionization_Penalty_Neutral>  (1) 
0.15643880673617139

>  <r_epik_State_Penalty>  (1) 
1.1859651199072592

>  <r_glide_ring_energy>  (1) 
0

>  <r_i_docking_score>  (1) 
-4.977604414761597

>  <r_i_glide_ecoul>  (1) 
-0.90845120460337803

>  <r_i_glide_eff_state_penalty>  (1) 
1.1859651199072592

>  <r_i_glide_einternal>  (1) 
12.918354020782211

>  <r_i_glide_emodel>  (1) 
-66.63775259177541

>  <r_i_glide_emodel_strain>  (1) 
0.63552823966881533

>  <r_i_glide_energy>  (1) 
-50.910225164389935

>  <r_i_glide_erotb>  (1) 
0.98469743448682379

>  <r_i_glide_esite>  (1) 
-0.058830122451704159

>  <r_i_glide_evdw>  (1) 
-50.001773959786554

>  <r_i_glide_gscore>  (1) 
-6.1635695346688566

>  <r_i_glide_gscore_strain>  (1) 
0

>  <r_i_glide_hbond>  (1) 
-0.15356724233924218

>  <r_i_glide_ligand_efficiency>  (1) 
-0.13826678929893324

>  <r_i_glide_ligand_efficiency_ln>  (1) 
-1.0859788039706952

>  <r_i_glide_ligand_efficiency_sa>  (1) 
-0.45654687920331977

>  <r_i_glide_lipo>  (1) 
-2.8818526797774764

>  <r_i_glide_metal>  (1) 
-0

>  <r_i_glide_rewards>  (1) 
-1.4176605459074232

>  <r_lp_Energy>  (1) 
41.955964999999999

>  <r_lp_tautomer_probability>  (1) 
0.49999399997599986

>  <s_epik_Chemistry_Notes>  (1) 
This compound has an imine and may undergo hydrolysis. This compound contains an acetal/aminal-like group ( X-CH(R)-Y where X, Y are N, S, or O) that may be acid/base labile, releasing an aldehyde.

>  <s_epik_cmdline>  (1) 
J2VwaWtfcHl0aG9uJywgJy1waHQnLCAnMS4wJywgJy1waCcsICc3LjQnLCAnLXRuJywgJzgnLCAnLW1hJywgJzUwMCcsICctaW1hZScsICc8aW5maWxlLm1hZT4nLCAnLW9tYWUnLCAnPG91dGZpbGUubWFlPic=

>  <s_epik_input>  (1) 
W0NIMl0xW0NIMl1bQ0hdMUMoPU8pTjJbTkhdW0NAQEhdMltDSDJdL0MoW0NIM10pPU4vW0NIMl1bTkhdW0NASF0oW09IXSlbQ0gyXVtDQEhdKFtDSDJdW0NIMl1bQ0hdKFtDSDNdKVtDSDNdKVtDQEBIXShbQ0gyXVtDSDJdMylDKFtDSF09TjQpPUMzTihDND01KVtOSF1bQ0gyXUM1W0NIM10=

>  <s_glide_docking_method>  (1) 
confgen

>  <s_i_glide_gridfile>  (1) 
gpcr_5ht2c_6bqh_protein_autoprepared_prepared

>  <s_lp_Force_Field>  (1) 
S-OPLS

>  <s_lp_Variant>  (1) 
DiffSBDD_62-4

>  <s_m_source_file>  (1) 
generated_GPCR_5HT2C_ligand_DiffSBDD_2026-06-23_prepared.sdf

>  <GenAI_Model>  (1) 
DiffSBDD

>  <Protein>  (1) 
GPCR_5HT2C

$$$$
DiffSBDD_43
     RDKit          3D

  0  0  0  0  0  0  0  0  0  0999 V3000
M  V30 BEGIN CTAB
M  V30 COUNTS 83 85 0 0 1
M  V30 BEGIN ATOM
M  V30 1 C 40.875568 34.058346 67.348814 0
M  V30 2 C 36.281648 37.248384 62.915411 0
M  V30 3 C 39.078887 32.055110 56.291713 0
M  V30 4 C 39.118223 30.598266 61.374557 0 CFG=2
M  V30 5 C 37.951711 32.747899 60.583040 0 CFG=1
M  V30 6 O 39.638339 27.981764 55.723077 0
M  V30 7 O 36.844968 36.352327 60.666304 0
M  V30 8 N 43.542856 32.745103 67.458597 0 CHG=1
M  V30 9 C 39.182091 30.674093 56.042340 0
M  V30 10 C 35.437203 38.478978 62.564920 0
M  V30 11 C 40.382490 29.726008 61.418308 0
M  V30 12 C 41.279729 34.228774 64.012137 0
M  V30 13 N 38.402856 27.325355 57.617545 0
M  V30 14 C 38.639940 29.743811 56.963510 0
M  V30 15 C 37.359536 36.942931 61.864306 0
M  V30 16 N 38.733556 28.353966 56.726516 0
M  V30 17 C 39.307357 32.083214 60.978974 0 CFG=1
M  V30 18 O 35.672214 34.580915 59.738770 0
M  V30 19 C 42.501500 32.238202 68.377609 0 CFG=1
M  V30 20 C 37.984990 34.277204 60.345234 0
M  V30 21 C 43.013724 33.297893 66.195666 0
M  V30 22 C 40.605241 34.803706 62.759146 0 CFG=1
M  V30 23 C 38.443580 32.519234 57.459439 0
M  V30 24 O 39.923891 32.657808 62.125602 0
M  V30 25 C 41.167140 36.140033 62.251402 0
M  V30 26 C 42.055372 34.487302 66.446866 0 CFG=1
M  V30 27 O 38.445217 30.537387 62.606383 0
M  V30 28 C 36.647725 34.965726 60.679770 0 CFG=1
M  V30 29 C 37.995148 30.214065 58.129300 0
M  V30 30 N 40.467740 36.137552 65.434141 0 CHG=1
M  V30 31 C 42.261149 33.212694 69.505527 0
M  V30 32 C 41.592435 35.213379 65.154082 0 CFG=2
M  V30 33 O 40.748316 33.841251 61.731394 0
M  V30 34 C 41.213077 33.038541 68.426704 0 CFG=1
M  V30 35 O 37.256790 32.040547 59.533187 0
M  V30 36 O 41.246787 30.152123 62.445962 0
M  V30 37 C 37.904079 31.599420 58.387895 0
M  V30 38 H 40.424612 34.923483 67.836605 0
M  V30 39 H 40.097263 33.624692 66.723032 0
M  V30 40 H 35.645558 36.378094 63.071158 0
M  V30 41 H 36.766023 37.423516 63.875320 0
M  V30 42 H 39.486635 32.761544 55.583794 0
M  V30 43 H 38.450401 30.114513 60.674353 0
M  V30 44 H 37.313007 32.610606 61.455970 0
M  V30 45 H 40.492691 28.003061 56.128054 0
M  V30 46 H 44.065027 33.464735 67.937508 0
M  V30 47 H 39.669965 30.331218 55.142869 0
M  V30 48 H 34.569244 38.537781 63.219755 0
M  V30 49 H 36.011515 39.398332 62.680879 0
M  V30 50 H 35.078494 38.444384 61.536264 0
M  V30 51 H 40.115812 28.684277 61.601928 0
M  V30 52 H 40.897309 29.753643 60.457616 0
M  V30 53 H 40.664242 33.412226 64.393461 0
M  V30 54 H 42.216703 33.772162 63.688849 0
M  V30 55 H 37.417981 27.094409 57.497818 0
M  V30 56 H 38.954922 26.500587 57.391516 0
M  V30 57 H 38.114251 36.320808 62.330721 0
M  V30 58 H 37.869363 37.867051 61.590433 0
M  V30 59 H 40.020645 32.149179 60.167525 0
M  V30 60 H 36.012954 34.741307 58.870200 0
M  V30 61 H 42.505061 31.165544 68.563614 0
M  V30 62 H 38.728539 34.738594 60.969182 0
M  V30 63 H 38.272559 34.542545 59.344655 0
M  V30 64 H 42.519859 32.490362 65.652326 0
M  V30 65 H 43.853698 33.627798 65.589399 0
M  V30 66 H 39.549566 34.921612 62.986956 0
M  V30 67 H 38.360062 33.574335 57.628306 0
M  V30 68 H 40.869288 36.975128 62.883450 0
M  V30 69 H 42.251789 36.136219 62.219531 0
M  V30 70 H 40.799821 36.357193 61.247601 0
M  V30 71 H 42.629050 35.238774 66.967368 0
M  V30 72 H 38.439300 29.639139 62.918817 0
M  V30 73 H 36.268261 34.662044 61.656278 0
M  V30 74 H 37.567714 29.510557 58.826163 0
M  V30 75 H 39.668146 35.635575 65.791800 0
M  V30 76 H 40.769052 36.828318 66.107658 0
M  V30 77 H 42.852349 34.122631 69.524812 0
M  V30 78 H 42.041342 32.792430 70.485653 0
M  V30 79 H 42.417247 35.840860 64.811818 0
M  V30 80 H 40.322027 32.535041 68.788090 0
M  V30 81 H 40.728467 30.234932 63.234747 0
M  V30 82 H 40.216354 36.630927 64.588612 0
M  V30 83 H 44.175609 31.985747 67.245076 0
M  V30 END ATOM
M  V30 BEGIN BOND
M  V30 1 1 9 3
M  V30 2 1 10 2
M  V30 3 1 11 4
M  V30 4 2 14 9
M  V30 5 1 15 2
M  V30 6 1 15 7
M  V30 7 1 16 6
M  V30 8 1 16 13
M  V30 9 1 16 14
M  V30 10 1 17 4
M  V30 11 1 17 5
M  V30 12 1 19 8
M  V30 13 1 20 5
M  V30 14 1 21 8
M  V30 15 1 22 12
M  V30 16 2 23 3
M  V30 17 1 24 17
M  V30 18 1 25 22
M  V30 19 1 26 1
M  V30 20 1 26 21
M  V30 21 1 27 4
M  V30 22 1 28 7
M  V30 23 1 28 18
M  V30 24 1 28 20
M  V30 25 1 29 14
M  V30 26 1 31 19
M  V30 27 1 32 12
M  V30 28 1 32 26
M  V30 29 1 32 30
M  V30 30 1 33 22
M  V30 31 1 33 24
M  V30 32 1 34 1
M  V30 33 1 34 19
M  V30 34 1 34 31
M  V30 35 1 35 5
M  V30 36 1 36 11
M  V30 37 1 37 23
M  V30 38 2 37 29
M  V30 39 1 37 35
M  V30 40 1 38 1
M  V30 41 1 39 1
M  V30 42 1 40 2
M  V30 43 1 41 2
M  V30 44 1 42 3
M  V30 45 1 4 43 CFG=3
M  V30 46 1 5 44 CFG=1
M  V30 47 1 45 6
M  V30 48 1 46 8
M  V30 49 1 47 9
M  V30 50 1 48 10
M  V30 51 1 49 10
M  V30 52 1 50 10
M  V30 53 1 51 11
M  V30 54 1 52 11
M  V30 55 1 53 12
M  V30 56 1 54 12
M  V30 57 1 55 13
M  V30 58 1 56 13
M  V30 59 1 57 15
M  V30 60 1 58 15
M  V30 61 1 17 59 CFG=3
M  V30 62 1 60 18
M  V30 63 1 19 61 CFG=1
M  V30 64 1 62 20
M  V30 65 1 63 20
M  V30 66 1 64 21
M  V30 67 1 65 21
M  V30 68 1 22 66 CFG=1
M  V30 69 1 67 23
M  V30 70 1 68 25
M  V30 71 1 69 25
M  V30 72 1 70 25
M  V30 73 1 26 71 CFG=1
M  V30 74 1 72 27
M  V30 75 1 28 73 CFG=1
M  V30 76 1 74 29
M  V30 77 1 75 30
M  V30 78 1 76 30
M  V30 79 1 77 31
M  V30 80 1 78 31
M  V30 81 1 32 79 CFG=3
M  V30 82 1 34 80 CFG=1
M  V30 83 1 81 36
M  V30 84 1 82 30
M  V30 85 1 83 8
M  V30 END BOND
M  V30 END CTAB
M  END
>  <i_epik_Tot_Q>  (1) 
2

>  <i_epik_Tot_abs_Q>  (1) 
2

>  <i_i_glide_confnum>  (1) 
772

>  <i_i_glide_lignum>  (1) 
96

>  <i_i_glide_posenum>  (1) 
87

>  <i_i_glide_rotatable_bonds>  (1) 
21

>  <i_lp_mmshare_version>  (1) 
72125

>  <i_m_source_file_index>  (1) 
44

>  <i_f3d_flags>  (1) 
0

>  <num_sample>  (1) 
100

>  <b_lp_Chiralities_Consistent>  (1) 
1

>  <r_epik_Charging_Adjusted_Penalty>  (1) 
0.054628322637716921

>  <r_epik_Ionization_Penalty>  (1) 
0.057286365922034427

>  <r_epik_Ionization_Penalty_Charging>  (1) 
0.054628322637716921

>  <r_epik_Ionization_Penalty_Neutral>  (1) 
0.0026580432843175059

>  <r_epik_State_Penalty>  (1) 
-0

>  <r_glide_ring_energy>  (1) 
0

>  <r_i_docking_score>  (1) 
-4.9632437201312891

>  <r_i_glide_ecoul>  (1) 
-9.2646727349501461

>  <r_i_glide_eff_state_penalty>  (1) 
-0

>  <r_i_glide_einternal>  (1) 
37.551088562397858

>  <r_i_glide_emodel>  (1) 
-48.111552178128022

>  <r_i_glide_emodel_strain>  (1) 
4.9067252367570262

>  <r_i_glide_energy>  (1) 
-51.279090224287977

>  <r_i_glide_erotb>  (1) 
1.0980815572756908

>  <r_i_glide_esite>  (1) 
-0.042421527177297497

>  <r_i_glide_evdw>  (1) 
-42.014417489337831

>  <r_i_glide_gscore>  (1) 
-4.9632437201312891

>  <r_i_glide_gscore_strain>  (1) 
0.22668130918925655

>  <r_i_glide_hbond>  (1) 
-0.63245274125845519

>  <r_i_glide_ligand_efficiency>  (1) 
-0.13414172216571052

>  <r_i_glide_ligand_efficiency_ln>  (1) 
-1.0764112079551242

>  <r_i_glide_ligand_efficiency_sa>  (1) 
-0.44698997781800098

>  <r_i_glide_lipo>  (1) 
-3.0413470349444447

>  <r_i_glide_metal>  (1) 
-0

>  <r_i_glide_rewards>  (1) 
0.91863650149337417

>  <r_lp_Energy>  (1) 
40.181405999999996

>  <r_lp_tautomer_probability>  (1) 
1

>  <s_epik_Chemistry_Notes>  (1) 
This compound contains an acetal/aminal-like group ( X-CH(R)-Y where X, Y are N, S, or O) that may be acid/base labile, releasing an aldehyde. This compound has a N-S or N-O group and may undergo hydrolysis at high or low pH.

>  <s_epik_cmdline>  (1) 
J2VwaWtfcHl0aG9uJywgJy1waHQnLCAnMS4wJywgJy1waCcsICc3LjQnLCAnLXRuJywgJzgnLCAnLW1hJywgJzUwMCcsICctaW1hZScsICc8aW5maWxlLm1hZT4nLCAnLW9tYWUnLCAnPG91dGZpbGUubWFlPic=

>  <s_epik_input>  (1) 
W0NASF0xMltDQEBIXShbQ0gyXTIpW0NIMl1bQ0BASF0oW0NIMl1bTkhdMSlbQ0BIXShbTkgyXSlbQ0gyXVtDQEBIXShbQ0gzXSlPT1tDQEBIXShbQ0BIXShbT0hdKVtDSDJdW09IXSlbQ0BASF0oW0NIMl1bQ0BIXShbT0hdKU9bQ0gyXVtDSDJdW0NIM10pT2MoW2NIXTMpW2NIXVtjSF1bY0hdYzNOKFtPSF0pW05IMl0=

>  <s_glide_docking_method>  (1) 
confgen

>  <s_i_glide_gridfile>  (1) 
gpcr_5ht2c_6bqh_protein_autoprepared_prepared

>  <s_lp_Force_Field>  (1) 
S-OPLS

>  <s_lp_Variant>  (1) 
DiffSBDD_43-2

>  <s_m_source_file>  (1) 
generated_GPCR_5HT2C_ligand_DiffSBDD_2026-06-23_prepared.sdf

>  <GenAI_Model>  (1) 
DiffSBDD

>  <Protein>  (1) 
GPCR_5HT2C

$$$$
DiffSBDD_11
     RDKit          3D

  0  0  0  0  0  0  0  0  0  0999 V3000
M  V30 BEGIN CTAB
M  V30 COUNTS 43 45 0 0 1
M  V30 BEGIN ATOM
M  V30 1 C 38.716252 30.259376 57.280326 0
M  V30 2 C 37.747744 25.802553 57.000339 0
M  V30 3 N 38.378721 29.028212 56.598812 0
M  V30 4 C 38.302532 28.927511 55.156775 0 CFG=1
M  V30 5 N 35.766491 31.617571 59.767760 0
M  V30 6 C 38.735812 26.729174 56.268177 0 CFG=2
M  V30 7 C 38.589860 32.003731 60.086599 0
M  V30 8 C 39.519882 29.527723 54.405967 0
M  V30 9 C 38.043398 30.593621 59.802018 0 CFG=2
M  V30 10 C 39.363643 31.014244 54.060177 0
M  V30 11 C 38.946562 29.879499 58.761922 0 CFG=1
M  V30 12 O 36.045149 29.526956 58.967773 0
M  V30 13 S 38.955280 28.050585 58.858876 0
M  V30 14 C 36.525122 30.537689 59.472542 0
M  V30 15 C 39.194576 27.957692 57.069270 0 CFG=2
M  V30 16 C 36.282013 32.867052 60.334184 0
M  V30 17 C 38.122047 27.384888 54.994515 0 CFG=2
M  V30 18 F 37.540490 32.128978 62.167760 0
M  V30 19 C 37.649654 32.765520 61.003082 0 CFG=1
M  V30 20 O 38.647193 26.829960 53.802943 0
M  V30 21 H 37.931636 31.004278 57.140579 0
M  V30 22 H 39.641733 30.675965 56.884927 0
M  V30 23 H 36.863257 26.348117 57.331722 0
M  V30 24 H 37.417113 24.993770 56.348189 0
M  V30 25 H 38.208160 25.348139 57.877829 0
M  V30 26 H 37.400641 29.427506 54.800222 0
M  V30 27 H 34.782889 31.582739 59.545854 0
M  V30 28 H 39.619707 26.146336 56.004617 0
M  V30 29 H 39.574800 31.938277 60.550386 0
M  V30 30 H 38.720712 32.553283 59.152941 0
M  V30 31 H 40.443720 29.370585 54.967176 0
M  V30 32 H 39.645131 29.026705 53.448383 0
M  V30 33 H 38.143468 30.038016 60.734572 0
M  V30 34 H 40.195690 31.337765 53.435820 0
M  V30 35 H 38.445095 31.196707 53.503559 0
M  V30 36 H 39.344158 31.652710 54.941722 0
M  V30 37 H 39.976690 30.137661 59.000997 0
M  V30 38 H 40.243173 28.166292 56.851916 0
M  V30 39 H 36.334003 33.586833 59.516007 0
M  V30 40 H 35.549155 33.261487 61.039033 0
M  V30 41 H 37.054231 27.169933 54.967753 0
M  V30 42 H 38.041408 33.757921 61.228841 0
M  V30 43 H 38.129658 27.136193 53.072890 0
M  V30 END ATOM
M  V30 BEGIN BOND
M  V30 1 1 3 1
M  V30 2 1 4 3
M  V30 3 1 6 2
M  V30 4 1 8 4
M  V30 5 1 9 7
M  V30 6 1 10 8
M  V30 7 1 11 1
M  V30 8 1 11 9
M  V30 9 1 13 11
M  V30 10 1 14 5
M  V30 11 1 14 9
M  V30 12 2 14 12
M  V30 13 1 15 3
M  V30 14 1 15 6
M  V30 15 1 15 13
M  V30 16 1 16 5
M  V30 17 1 17 4
M  V30 18 1 17 6
M  V30 19 1 19 7
M  V30 20 1 19 16
M  V30 21 1 19 18
M  V30 22 1 20 17
M  V30 23 1 21 1
M  V30 24 1 22 1
M  V30 25 1 23 2
M  V30 26 1 24 2
M  V30 27 1 25 2
M  V30 28 1 4 26 CFG=3
M  V30 29 1 27 5
M  V30 30 1 6 28 CFG=3
M  V30 31 1 29 7
M  V30 32 1 30 7
M  V30 33 1 31 8
M  V30 34 1 32 8
M  V30 35 1 9 33 CFG=1
M  V30 36 1 34 10
M  V30 37 1 35 10
M  V30 38 1 36 10
M  V30 39 1 11 37 CFG=1
M  V30 40 1 15 38 CFG=1
M  V30 41 1 39 16
M  V30 42 1 40 16
M  V30 43 1 17 41 CFG=3
M  V30 44 1 19 42 CFG=1
M  V30 45 1 43 20
M  V30 END BOND
M  V30 END CTAB
M  END
>  <i_epik_Tot_Q>  (1) 
0

>  <i_epik_Tot_abs_Q>  (1) 
0

>  <i_i_glide_confnum>  (1) 
3

>  <i_i_glide_lignum>  (1) 
18

>  <i_i_glide_posenum>  (1) 
340

>  <i_i_glide_rotatable_bonds>  (1) 
3

>  <i_lp_mmshare_version>  (1) 
72125

>  <i_m_source_file_index>  (1) 
12

>  <i_f3d_flags>  (1) 
0

>  <num_sample>  (1) 
100

>  <b_lp_Chiralities_Consistent>  (1) 
1

>  <r_epik_Charging_Adjusted_Penalty>  (1) 
0

>  <r_epik_Ionization_Penalty>  (1) 
0.0013281564367089848

>  <r_epik_Ionization_Penalty_Charging>  (1) 
0

>  <r_epik_Ionization_Penalty_Neutral>  (1) 
0.0013281564367089848

>  <r_epik_State_Penalty>  (1) 
-0

>  <r_glide_ring_energy>  (1) 
0

>  <r_i_docking_score>  (1) 
-4.9575272487586215

>  <r_i_glide_ecoul>  (1) 
-1.2389073475546646

>  <r_i_glide_eff_state_penalty>  (1) 
-0

>  <r_i_glide_einternal>  (1) 
2.3618211478663387

>  <r_i_glide_emodel>  (1) 
-36.351005090092549

>  <r_i_glide_emodel_strain>  (1) 
0.041812938335098693

>  <r_i_glide_energy>  (1) 
-28.425485202544312

>  <r_i_glide_erotb>  (1) 
0.20132193000906404

>  <r_i_glide_esite>  (1) 
-0.18286725226176309

>  <r_i_glide_evdw>  (1) 
-27.186577854989647

>  <r_i_glide_gscore>  (1) 
-4.9575272487586215

>  <r_i_glide_gscore_strain>  (1) 
0

>  <r_i_glide_hbond>  (1) 
0

>  <r_i_glide_ligand_efficiency>  (1) 
-0.24787636243793107

>  <r_i_glide_ligand_efficiency_ln>  (1) 
-1.24070556017237

>  <r_i_glide_ligand_efficiency_sa>  (1) 
-0.67283996493898413

>  <r_i_glide_lipo>  (1) 
-1.8447685028364289

>  <r_i_glide_metal>  (1) 
-0

>  <r_i_glide_rewards>  (1) 
-1.5860484287868102

>  <r_lp_Energy>  (1) 
13.978804

>  <r_lp_tautomer_probability>  (1) 
1

>  <s_epik_Chemistry_Notes>  (1) 
This compound contains an acetal/aminal-like group ( X-CH(R)-Y where X, Y are N, S, or O) that may be acid/base labile, releasing an aldehyde.

>  <s_epik_cmdline>  (1) 
J2VwaWtfcHl0aG9uJywgJy1waHQnLCAnMS4wJywgJy1waCcsICc3LjQnLCAnLXRuJywgJzgnLCAnLW1hJywgJzUwMCcsICctaW1hZScsICc8aW5maWxlLm1hZT4nLCAnLW9tYWUnLCAnPG91dGZpbGUubWFlPic=

>  <s_epik_input>  (1) 
Tz1DMVtOSF1bQ0gyXVtDQEBIXShGKVtDSDJdW0NAQEhdMVtDQEhdKFtDSDJdMilTW0NASF0oTjIzKVtDQEBIXShbQ0gzXSlbQ0BIXShbT0hdKVtDQEBIXTNbQ0gyXVtDSDNd

>  <s_glide_docking_method>  (1) 
confgen

>  <s_i_glide_gridfile>  (1) 
gpcr_5ht2c_6bqh_protein_autoprepared_prepared

>  <s_lp_Force_Field>  (1) 
S-OPLS

>  <s_lp_Variant>  (1) 
DiffSBDD_11-1

>  <s_m_source_file>  (1) 
generated_GPCR_5HT2C_ligand_DiffSBDD_2026-06-23_prepared.sdf

>  <GenAI_Model>  (1) 
DiffSBDD

>  <Protein>  (1) 
GPCR_5HT2C

$$$$
DiffSBDD_41
     RDKit          3D

  0  0  0  0  0  0  0  0  0  0999 V3000
M  V30 BEGIN CTAB
M  V30 COUNTS 51 52 0 0 1
M  V30 BEGIN ATOM
M  V30 1 C 37.510773 32.166658 60.412514 0
M  V30 2 C 38.850566 30.146687 58.125705 0 CFG=1
M  V30 3 C 40.111686 30.895347 51.392010 0
M  V30 4 C 38.868377 28.857734 54.427541 0
M  V30 5 C 38.701211 27.471738 52.428589 0
M  V30 6 C 39.225535 28.507009 51.644320 0
M  V30 7 C 38.523884 27.642838 53.807730 0
M  V30 8 O 40.163338 34.357700 61.739140 0 CHG=-1
M  V30 9 C 38.995006 30.080036 56.613065 0
M  V30 10 S 37.114699 30.074726 58.640316 0
M  V30 11 N 41.279492 30.537746 50.567761 0 CHG=1
M  V30 12 C 38.137852 34.911612 60.557873 0
M  V30 13 C 36.955552 34.492051 59.916390 0
M  V30 14 C 39.428630 28.280969 50.167743 0
M  V30 15 C 39.644521 29.002548 58.802395 0
M  V30 16 C 39.012020 33.956493 61.122295 0
M  V30 17 C 38.703191 28.982557 55.890035 0
M  V30 18 C 36.641869 33.120744 59.842701 0
M  V30 19 C 41.812989 27.664730 58.904207 0
M  V30 20 C 39.385618 29.919874 53.636530 0
M  V30 21 C 41.102127 28.868563 58.326143 0
M  V30 22 F 38.435718 36.231674 60.627808 0
M  V30 23 C 38.697145 32.586871 61.050511 0
M  V30 24 C 39.566792 29.743563 52.242081 0
M  V30 25 C 37.166685 30.692692 60.348340 0
M  V30 26 H 39.245165 31.109676 58.443126 0
M  V30 27 H 39.336504 31.266742 50.721035 0
M  V30 28 H 40.388367 31.727535 52.038167 0
M  V30 29 H 38.438257 26.537753 51.969044 0
M  V30 30 H 38.128005 26.831008 54.400297 0
M  V30 31 H 39.363805 30.968822 56.128978 0
M  V30 32 H 41.649602 31.382516 50.149367 0
M  V30 33 H 41.985637 30.104158 51.144005 0
M  V30 34 H 36.289882 35.223024 59.480537 0
M  V30 35 H 40.445139 27.961549 50.015862 0
M  V30 36 H 38.845146 27.442936 49.808746 0
M  V30 37 H 39.245147 29.150613 49.543544 0
M  V30 38 H 39.642101 29.137933 59.883201 0
M  V30 39 H 39.128110 28.058484 58.622572 0
M  V30 40 H 38.327158 28.109501 56.402165 0
M  V30 41 H 35.734614 32.800217 59.349843 0
M  V30 42 H 42.850193 27.633945 58.572235 0
M  V30 43 H 41.802606 27.731377 59.992338 0
M  V30 44 H 41.333610 26.744514 58.567761 0
M  V30 45 H 39.651377 30.859685 54.092726 0
M  V30 46 H 41.160148 28.785980 57.242533 0
M  V30 47 H 41.671792 29.737747 58.626673 0
M  V30 48 H 39.365052 31.858766 61.487026 0
M  V30 49 H 36.187524 30.543883 60.801439 0
M  V30 50 H 37.882572 30.124306 60.937029 0
M  V30 51 H 40.995799 29.896121 49.843677 0
M  V30 END ATOM
M  V30 BEGIN BOND
M  V30 1 1 6 5
M  V30 2 1 7 4
M  V30 3 2 7 5
M  V30 4 1 9 2
M  V30 5 1 10 2
M  V30 6 1 11 3
M  V30 7 1 13 12
M  V30 8 1 14 6
M  V30 9 1 15 2
M  V30 10 1 16 8
M  V30 11 2 16 12
M  V30 12 1 17 4
M  V30 13 2 17 9
M  V30 14 1 18 1
M  V30 15 2 18 13
M  V30 16 2 20 4
M  V30 17 1 21 15
M  V30 18 1 21 19
M  V30 19 1 22 12
M  V30 20 2 23 1
M  V30 21 1 23 16
M  V30 22 1 24 3
M  V30 23 2 24 6
M  V30 24 1 24 20
M  V30 25 1 25 1
M  V30 26 1 25 10
M  V30 27 1 2 26 CFG=1
M  V30 28 1 27 3
M  V30 29 1 28 3
M  V30 30 1 29 5
M  V30 31 1 30 7
M  V30 32 1 31 9
M  V30 33 1 32 11
M  V30 34 1 33 11
M  V30 35 1 34 13
M  V30 36 1 35 14
M  V30 37 1 36 14
M  V30 38 1 37 14
M  V30 39 1 38 15
M  V30 40 1 39 15
M  V30 41 1 40 17
M  V30 42 1 41 18
M  V30 43 1 42 19
M  V30 44 1 43 19
M  V30 45 1 44 19
M  V30 46 1 45 20
M  V30 47 1 46 21
M  V30 48 1 47 21
M  V30 49 1 48 23
M  V30 50 1 49 25
M  V30 51 1 50 25
M  V30 52 1 51 11
M  V30 END BOND
M  V30 END CTAB
M  END
>  <i_epik_Tot_Q>  (1) 
0

>  <i_epik_Tot_abs_Q>  (1) 
2

>  <i_i_glide_confnum>  (1) 
128

>  <i_i_glide_lignum>  (1) 
90

>  <i_i_glide_posenum>  (1) 
265

>  <i_i_glide_rotatable_bonds>  (1) 
8

>  <i_lp_mmshare_version>  (1) 
72125

>  <i_m_source_file_index>  (1) 
42

>  <i_f3d_flags>  (1) 
0

>  <num_sample>  (1) 
100

>  <b_lp_Chiralities_Consistent>  (1) 
1

>  <r_epik_Charging_Adjusted_Penalty>  (1) 
2.7167828853708742

>  <r_epik_Ionization_Penalty>  (1) 
1.3565026725465308

>  <r_epik_Ionization_Penalty_Charging>  (1) 
1.3565026725465308

>  <r_epik_Ionization_Penalty_Neutral>  (1) 
0

>  <r_epik_State_Penalty>  (1) 
1.3602802128243434

>  <r_glide_ring_energy>  (1) 
0

>  <r_i_docking_score>  (1) 
-4.9500795968574822

>  <r_i_glide_ecoul>  (1) 
-1.2911914261127309

>  <r_i_glide_eff_state_penalty>  (1) 
1.3602802128243434

>  <r_i_glide_einternal>  (1) 
5.0715818128384553

>  <r_i_glide_emodel>  (1) 
-48.297269675878347

>  <r_i_glide_emodel_strain>  (1) 
0.86955509861469871

>  <r_i_glide_energy>  (1) 
-34.323967720872382

>  <r_i_glide_erotb>  (1) 
0.74153290357203427

>  <r_i_glide_esite>  (1) 
0

>  <r_i_glide_evdw>  (1) 
-33.03277629475965

>  <r_i_glide_gscore>  (1) 
-6.3103598096818256

>  <r_i_glide_gscore_strain>  (1) 
0

>  <r_i_glide_hbond>  (1) 
0

>  <r_i_glide_ligand_efficiency>  (1) 
-0.1980031838742993

>  <r_i_glide_ligand_efficiency_ln>  (1) 
-1.1733172063702832

>  <r_i_glide_ligand_efficiency_sa>  (1) 
-0.5789648218710749

>  <r_i_glide_lipo>  (1) 
-3.0906834078779171

>  <r_i_glide_metal>  (1) 
-0

>  <r_i_glide_rewards>  (1) 
-2.1158917767210506

>  <r_lp_Energy>  (1) 
26.063465999999998

>  <s_epik_cmdline>  (1) 
J2VwaWtfcHl0aG9uJywgJy1waHQnLCAnMS4wJywgJy1waCcsICc3LjQnLCAnLXRuJywgJzgnLCAnLW1hJywgJzUwMCcsICctaW1hZScsICc8aW5maWxlLm1hZT4nLCAnLW9tYWUnLCAnPG91dGZpbGUubWFlPic=

>  <s_epik_input>  (1) 
W09IXWMoW2NIXTEpYyhGKVtjSF1bY0hdYzFbQ0gyXVNbQ0BASF0oW0NIMl1bQ0gyXVtDSDNdKS9bQ0hdPVtDSF0vYzJbY0hdW2NIXWMoW0NIM10pYyhbY0hdMilbQ0gyXVtOSDJd

>  <s_glide_docking_method>  (1) 
confgen

>  <s_i_glide_gridfile>  (1) 
gpcr_5ht2c_6bqh_protein_autoprepared_prepared

>  <s_lp_Force_Field>  (1) 
S-OPLS

>  <s_lp_Variant>  (1) 
DiffSBDD_41-3

>  <s_m_source_file>  (1) 
generated_GPCR_5HT2C_ligand_DiffSBDD_2026-06-23_prepared.sdf

>  <GenAI_Model>  (1) 
DiffSBDD

>  <Protein>  (1) 
GPCR_5HT2C

$$$$
DiffSBDD_11
     RDKit          3D

  0  0  0  0  0  0  0  0  0  0999 V3000
M  V30 BEGIN CTAB
M  V30 COUNTS 43 45 0 0 1
M  V30 BEGIN ATOM
M  V30 1 C 38.405676 31.400127 56.970626 0
M  V30 2 C 39.066575 29.820686 61.108435 0
M  V30 3 N 38.445134 31.510827 58.419479 0
M  V30 4 C 38.236110 32.754704 59.144092 0 CFG=1
M  V30 5 N 38.845158 29.282011 53.186429 0
M  V30 6 C 37.938349 30.710474 60.543858 0 CFG=2
M  V30 7 C 39.320542 27.756346 55.545492 0
M  V30 8 C 36.914262 33.500528 58.796306 0
M  V30 9 C 39.321517 29.299670 55.642486 0 CFG=2
M  V30 10 C 36.785657 34.924735 59.367781 0
M  V30 11 C 38.252181 29.889558 56.616124 0 CFG=1
M  V30 12 O 39.542241 31.192222 54.163913 0
M  V30 13 S 38.147665 29.007306 58.216570 0
M  V30 14 C 39.245126 30.006687 54.259082 0
M  V30 15 C 37.643577 30.520097 59.048336 0 CFG=2
M  V30 16 C 38.503314 27.854137 53.223803 0
M  V30 17 C 38.317539 32.218007 60.607236 0 CFG=2
M  V30 18 F 38.183065 25.960095 54.567766 0
M  V30 19 C 38.219645 27.291159 54.612544 0 CFG=1
M  V30 20 O 37.517380 32.889216 61.557445 0
M  V30 21 H 39.320067 31.829824 56.563129 0
M  V30 22 H 37.580268 31.962001 56.541982 0
M  V30 23 H 40.005268 29.995785 60.581693 0
M  V30 24 H 39.233574 30.032314 62.164939 0
M  V30 25 H 38.845133 28.757592 61.022907 0
M  V30 26 H 39.069892 33.428965 58.944706 0
M  V30 27 H 38.796668 29.744070 52.290675 0
M  V30 28 H 37.020570 30.528954 61.102445 0
M  V30 29 H 40.282823 27.412736 55.164480 0
M  V30 30 H 39.222796 27.271124 56.514231 0
M  V30 31 H 36.845138 33.609236 57.715243 0
M  V30 32 H 36.044337 32.910801 59.085200 0
M  V30 33 H 40.291588 29.566565 56.060757 0
M  V30 34 H 35.898152 35.415497 58.967778 0
M  V30 35 H 36.689375 34.948137 60.450813 0
M  V30 36 H 37.645119 35.537080 59.103570 0
M  V30 37 H 37.267268 29.772489 56.161035 0
M  V30 38 H 36.588842 30.702448 58.833272 0
M  V30 39 H 37.645533 27.679833 52.572795 0
M  V30 40 H 39.337309 27.311053 52.776598 0
M  V30 41 H 39.351329 32.315660 60.942601 0
M  V30 42 H 37.245139 27.618919 54.967776 0
M  V30 43 H 36.664641 33.027739 61.172795 0
M  V30 END ATOM
M  V30 BEGIN BOND
M  V30 1 1 3 1
M  V30 2 1 4 3
M  V30 3 1 6 2
M  V30 4 1 8 4
M  V30 5 1 9 7
M  V30 6 1 10 8
M  V30 7 1 11 1
M  V30 8 1 11 9
M  V30 9 1 13 11
M  V30 10 1 14 5
M  V30 11 1 14 9
M  V30 12 2 14 12
M  V30 13 1 15 3
M  V30 14 1 15 6
M  V30 15 1 15 13
M  V30 16 1 16 5
M  V30 17 1 17 4
M  V30 18 1 17 6
M  V30 19 1 19 7
M  V30 20 1 19 16
M  V30 21 1 19 18
M  V30 22 1 20 17
M  V30 23 1 21 1
M  V30 24 1 22 1
M  V30 25 1 23 2
M  V30 26 1 24 2
M  V30 27 1 25 2
M  V30 28 1 4 26 CFG=1
M  V30 29 1 27 5
M  V30 30 1 6 28 CFG=1
M  V30 31 1 29 7
M  V30 32 1 30 7
M  V30 33 1 31 8
M  V30 34 1 32 8
M  V30 35 1 9 33 CFG=1
M  V30 36 1 34 10
M  V30 37 1 35 10
M  V30 38 1 36 10
M  V30 39 1 11 37 CFG=3
M  V30 40 1 15 38 CFG=1
M  V30 41 1 39 16
M  V30 42 1 40 16
M  V30 43 1 17 41 CFG=1
M  V30 44 1 19 42 CFG=1
M  V30 45 1 43 20
M  V30 END BOND
M  V30 END CTAB
M  END
>  <i_epik_Tot_Q>  (1) 
0

>  <i_epik_Tot_abs_Q>  (1) 
0

>  <i_i_glide_confnum>  (1) 
6

>  <i_i_glide_lignum>  (1) 
18

>  <i_i_glide_posenum>  (1) 
276

>  <i_i_glide_rotatable_bonds>  (1) 
3

>  <i_lp_mmshare_version>  (1) 
72125

>  <i_m_source_file_index>  (1) 
12

>  <i_f3d_flags>  (1) 
0

>  <num_sample>  (1) 
100

>  <b_lp_Chiralities_Consistent>  (1) 
1

>  <r_epik_Charging_Adjusted_Penalty>  (1) 
0

>  <r_epik_Ionization_Penalty>  (1) 
0.0013281564367089848

>  <r_epik_Ionization_Penalty_Charging>  (1) 
0

>  <r_epik_Ionization_Penalty_Neutral>  (1) 
0.0013281564367089848

>  <r_epik_State_Penalty>  (1) 
-0

>  <r_glide_ring_energy>  (1) 
0.24905523044904038

>  <r_i_docking_score>  (1) 
-4.9467741913805714

>  <r_i_glide_ecoul>  (1) 
-0.79765645572569444

>  <r_i_glide_eff_state_penalty>  (1) 
-0

>  <r_i_glide_einternal>  (1) 
0.25323762053053045

>  <r_i_glide_emodel>  (1) 
-38.314620944308324

>  <r_i_glide_emodel_strain>  (1) 
0.07353679878472974

>  <r_i_glide_energy>  (1) 
-29.386376027065349

>  <r_i_glide_erotb>  (1) 
0.20132193000906404

>  <r_i_glide_esite>  (1) 
0

>  <r_i_glide_evdw>  (1) 
-28.588719571339656

>  <r_i_glide_gscore>  (1) 
-4.9467741913805714

>  <r_i_glide_gscore_strain>  (1) 
0

>  <r_i_glide_hbond>  (1) 
0

>  <r_i_glide_ligand_efficiency>  (1) 
-0.24733870956902856

>  <r_i_glide_ligand_efficiency_ln>  (1) 
-1.2380144245702127

>  <r_i_glide_ligand_efficiency_sa>  (1) 
-0.67138055052002243

>  <r_i_glide_lipo>  (1) 
-1.2584873377802124

>  <r_i_glide_metal>  (1) 
-0

>  <r_i_glide_rewards>  (1) 
-2.3405243366835857

>  <r_lp_Energy>  (1) 
13.978804

>  <r_lp_tautomer_probability>  (1) 
1

>  <s_epik_Chemistry_Notes>  (1) 
This compound contains an acetal/aminal-like group ( X-CH(R)-Y where X, Y are N, S, or O) that may be acid/base labile, releasing an aldehyde.

>  <s_epik_cmdline>  (1) 
J2VwaWtfcHl0aG9uJywgJy1waHQnLCAnMS4wJywgJy1waCcsICc3LjQnLCAnLXRuJywgJzgnLCAnLW1hJywgJzUwMCcsICctaW1hZScsICc8aW5maWxlLm1hZT4nLCAnLW9tYWUnLCAnPG91dGZpbGUubWFlPic=

>  <s_epik_input>  (1) 
Tz1DMVtOSF1bQ0gyXVtDQEBIXShGKVtDSDJdW0NAQEhdMVtDQEhdKFtDSDJdMilTW0NASF0oTjIzKVtDQEBIXShbQ0gzXSlbQ0BIXShbT0hdKVtDQEBIXTNbQ0gyXVtDSDNd

>  <s_glide_docking_method>  (1) 
confgen

>  <s_i_glide_gridfile>  (1) 
gpcr_5ht2c_6bqh_protein_autoprepared_prepared

>  <s_lp_Force_Field>  (1) 
S-OPLS

>  <s_lp_Variant>  (1) 
DiffSBDD_11-1

>  <s_m_source_file>  (1) 
generated_GPCR_5HT2C_ligand_DiffSBDD_2026-06-23_prepared.sdf

>  <GenAI_Model>  (1) 
DiffSBDD

>  <Protein>  (1) 
GPCR_5HT2C

$$$$
DiffSBDD_39
     RDKit          3D

  0  0  0  0  0  0  0  0  0  0999 V3000
M  V30 BEGIN CTAB
M  V30 COUNTS 44 46 0 0 1
M  V30 BEGIN ATOM
M  V30 1 C 39.245137 29.576548 53.330467 0
M  V30 2 C 41.655790 32.542921 63.148119 0
M  V30 3 C 41.002797 28.581118 62.547079 0
M  V30 4 O 41.737147 32.537781 61.770459 0
M  V30 5 O 39.645136 29.823981 52.194685 0
M  V30 6 C 39.572553 31.932348 61.233757 0 CFG=2
M  V30 7 C 39.913619 28.406135 59.762257 0
M  V30 8 C 39.820029 29.983346 55.751572 0
M  V30 9 O 38.278855 31.708356 61.767853 0
M  V30 10 C 39.320876 30.625808 54.449592 0 CFG=2
M  V30 11 N 40.496252 30.756126 61.367663 0
M  V30 12 O 37.245138 28.255396 53.607240 0
M  V30 13 C 39.968575 29.522283 61.914215 0 CFG=1
M  V30 14 C 39.000723 28.756297 56.181953 0 CFG=1
M  V30 15 C 39.082749 27.686904 55.079221 0
M  V30 16 O 39.245135 28.802305 60.959409 0
M  V30 17 C 40.579935 31.832502 62.311030 0 CFG=2
M  V30 18 O 39.555645 28.221017 57.377148 0
M  V30 19 C 37.998534 31.390196 54.643888 0
M  V30 20 C 38.651851 28.202231 53.686663 0 CFG=2
M  V30 21 C 39.054739 28.824991 58.564044 0
M  V30 22 H 41.409797 33.502886 63.597068 0
M  V30 23 H 42.393379 31.931662 63.663869 0
M  V30 24 H 41.560387 29.108154 63.320972 0
M  V30 25 H 40.489998 27.737748 63.007018 0
M  V30 26 H 41.701429 28.207275 61.800843 0
M  V30 27 H 39.670155 32.670774 60.439873 0
M  V30 28 H 40.030458 27.323848 59.780002 0
M  V30 29 H 40.914851 28.827677 59.661381 0
M  V30 30 H 40.845139 29.656433 55.584885 0
M  V30 31 H 39.851951 30.733952 56.540771 0
M  V30 32 H 38.046045 32.455876 62.297151 0
M  V30 33 H 40.070891 31.355117 54.143201 0
M  V30 34 H 36.927061 28.830377 54.286864 0
M  V30 35 H 39.245296 29.747318 62.699628 0
M  V30 36 H 37.954102 29.024059 56.340207 0
M  V30 37 H 38.483822 26.819616 55.359941 0
M  V30 38 H 40.108489 27.323298 55.014227 0
M  V30 39 H 37.757216 31.987087 53.767762 0
M  V30 40 H 37.153860 30.731650 54.844246 0
M  V30 41 H 38.068544 32.084328 55.482242 0
M  V30 42 H 38.983252 27.489217 52.930693 0
M  V30 43 H 39.049690 29.913061 58.491999 0
M  V30 44 H 38.021809 28.507538 58.711724 0
M  V30 END ATOM
M  V30 BEGIN BOND
M  V30 1 1 4 2
M  V30 2 2 5 1
M  V30 3 1 9 6
M  V30 4 1 10 1
M  V30 5 1 10 8
M  V30 6 1 11 6
M  V30 7 1 13 3
M  V30 8 1 13 11
M  V30 9 1 14 8
M  V30 10 1 15 14
M  V30 11 1 16 7
M  V30 12 1 16 13
M  V30 13 1 17 2
M  V30 14 1 17 4 CFG=3
M  V30 15 1 17 6
M  V30 16 1 17 11
M  V30 17 1 18 14
M  V30 18 1 19 10
M  V30 19 1 20 1
M  V30 20 1 20 12
M  V30 21 1 20 15
M  V30 22 1 21 7
M  V30 23 1 21 18
M  V30 24 1 22 2
M  V30 25 1 23 2
M  V30 26 1 24 3
M  V30 27 1 25 3
M  V30 28 1 26 3
M  V30 29 1 6 27 CFG=3
M  V30 30 1 28 7
M  V30 31 1 29 7
M  V30 32 1 30 8
M  V30 33 1 31 8
M  V30 34 1 32 9
M  V30 35 1 10 33 CFG=3
M  V30 36 1 34 12
M  V30 37 1 13 35 CFG=1
M  V30 38 1 14 36 CFG=1
M  V30 39 1 37 15
M  V30 40 1 38 15
M  V30 41 1 39 19
M  V30 42 1 40 19
M  V30 43 1 41 19
M  V30 44 1 20 42 CFG=3
M  V30 45 1 43 21
M  V30 46 1 44 21
M  V30 END BOND
M  V30 END CTAB
M  END
>  <i_epik_Tot_Q>  (1) 
0

>  <i_epik_Tot_abs_Q>  (1) 
0

>  <i_i_glide_confnum>  (1) 
335

>  <i_i_glide_lignum>  (1) 
86

>  <i_i_glide_posenum>  (1) 
220

>  <i_i_glide_rotatable_bonds>  (1) 
8

>  <i_lp_mmshare_version>  (1) 
72125

>  <i_m_source_file_index>  (1) 
40

>  <i_f3d_flags>  (1) 
0

>  <num_sample>  (1) 
100

>  <b_lp_Chiralities_Consistent>  (1) 
1

>  <r_epik_Charging_Adjusted_Penalty>  (1) 
0

>  <r_epik_Ionization_Penalty>  (1) 
7.7229051731594394e-07

>  <r_epik_Ionization_Penalty_Charging>  (1) 
0

>  <r_epik_Ionization_Penalty_Neutral>  (1) 
7.7229051731594394e-07

>  <r_epik_State_Penalty>  (1) 
-0

>  <r_glide_ring_energy>  (1) 
0

>  <r_i_docking_score>  (1) 
-4.9410933874506453

>  <r_i_glide_ecoul>  (1) 
-2.5964027987787821

>  <r_i_glide_eff_state_penalty>  (1) 
-0

>  <r_i_glide_einternal>  (1) 
5.4148943423522855

>  <r_i_glide_emodel>  (1) 
-40.927400617620833

>  <r_i_glide_emodel_strain>  (1) 
0.033551224571780836

>  <r_i_glide_energy>  (1) 
-31.800744442086806

>  <r_i_glide_erotb>  (1) 
1.2154630782883253

>  <r_i_glide_esite>  (1) 
0

>  <r_i_glide_evdw>  (1) 
-29.204341643308023

>  <r_i_glide_gscore>  (1) 
-4.9410933874506453

>  <r_i_glide_gscore_strain>  (1) 
0

>  <r_i_glide_hbond>  (1) 
-0.097122451155734701

>  <r_i_glide_ligand_efficiency>  (1) 
-0.23529016130717359

>  <r_i_glide_ligand_efficiency_ln>  (1) 
-1.2216753556278659

>  <r_i_glide_ligand_efficiency_sa>  (1) 
-0.64914771449497499

>  <r_i_glide_lipo>  (1) 
-1.6408125304498189

>  <r_i_glide_metal>  (1) 
-0

>  <r_i_glide_rewards>  (1) 
-2.5689439821511981

>  <r_lp_Energy>  (1) 
10.886961999999999

>  <r_lp_tautomer_probability>  (1) 
1

>  <s_epik_Chemistry_Notes>  (1) 
This compound contains an acetal/aminal-like group ( X-CH(R)-Y where X, Y are N, S, or O) that may be acid/base labile, releasing an aldehyde.

>  <s_epik_cmdline>  (1) 
J2VwaWtfcHl0aG9uJywgJy1waHQnLCAnMS4wJywgJy1waCcsICc3LjQnLCAnLXRuJywgJzgnLCAnLW1hJywgJzUwMCcsICctaW1hZScsICc8aW5maWxlLm1hZT4nLCAnLW9tYWUnLCAnPG91dGZpbGUubWFlPic=

>  <s_epik_input>  (1) 
Tz1DMVtDQEBIXShbQ0gzXSlbQ0gyXVtDQEBIXShbQ0gyXVtDQEhdMVtPSF0pT1tDSDJdW0NIMl1PW0NAQEhdKFtDSDNdKU4yW0NAQEhdKFtPSF0pQzIzW0NIMl1PMw==

>  <s_glide_docking_method>  (1) 
confgen

>  <s_i_glide_gridfile>  (1) 
gpcr_5ht2c_6bqh_protein_autoprepared_prepared

>  <s_lp_Force_Field>  (1) 
S-OPLS

>  <s_lp_Variant>  (1) 
DiffSBDD_39-1

>  <s_m_source_file>  (1) 
generated_GPCR_5HT2C_ligand_DiffSBDD_2026-06-23_prepared.sdf

>  <GenAI_Model>  (1) 
DiffSBDD

>  <Protein>  (1) 
GPCR_5HT2C

$$$$
DiffSBDD_39
     RDKit          3D

  0  0  0  0  0  0  0  0  0  0999 V3000
M  V30 BEGIN CTAB
M  V30 COUNTS 44 46 0 0 1
M  V30 BEGIN ATOM
M  V30 1 C 38.820327 28.666064 53.431625 0
M  V30 2 C 35.869297 32.959461 60.734283 0
M  V30 3 C 38.845880 30.204609 61.996791 0
M  V30 4 O 37.052353 33.633819 60.502835 0
M  V30 5 O 38.911997 28.937109 52.235881 0
M  V30 6 C 37.934805 32.284933 58.839516 0 CFG=2
M  V30 7 C 39.408847 28.671837 59.249943 0
M  V30 8 C 39.803266 29.327496 55.688777 0
M  V30 9 O 37.645148 31.180659 58.009985 0
M  V30 10 C 38.907633 29.758355 54.506876 0 CFG=2
M  V30 11 N 38.393450 31.893191 60.216744 0
M  V30 12 O 37.245472 27.017039 54.209212 0
M  V30 13 C 38.557176 30.486395 60.517783 0 CFG=1
M  V30 14 C 39.447018 27.929726 56.251901 0 CFG=1
M  V30 15 C 39.481036 26.872785 55.131694 0
M  V30 16 O 39.636683 29.957753 59.813466 0
M  V30 17 C 37.022762 32.268595 59.992284 0 CFG=2
M  V30 18 O 40.343796 27.466641 57.265087 0
M  V30 19 C 37.513655 30.233753 54.962315 0
M  V30 20 C 38.609070 27.224310 53.908724 0 CFG=2
M  V30 21 C 40.624626 28.318815 58.376287 0
M  V30 22 H 35.014693 33.297426 60.151391 0
M  V30 23 H 35.682105 32.681028 61.767906 0
M  V30 24 H 38.045137 30.594680 62.621181 0
M  V30 25 H 38.936806 29.132322 62.167586 0
M  V30 26 H 39.779316 30.685533 62.290447 0
M  V30 27 H 38.208434 33.223090 58.360053 0
M  V30 28 H 38.497421 28.708210 58.657706 0
M  V30 29 H 39.254608 27.919015 60.023717 0
M  V30 30 H 40.844691 29.337662 55.367756 0
M  V30 31 H 39.723652 30.084662 56.469026 0
M  V30 32 H 36.780529 31.337809 57.611504 0
M  V30 33 H 39.386516 30.610905 54.023521 0
M  V30 34 H 37.013193 27.563705 54.943675 0
M  V30 35 H 37.645043 29.956170 60.233695 0
M  V30 36 H 38.435963 27.947617 56.655556 0
M  V30 37 H 39.179968 25.903557 55.530829 0
M  V30 38 H 40.509910 26.738983 54.800739 0
M  V30 39 H 36.773258 30.201123 54.167787 0
M  V30 40 H 37.121706 29.636325 55.783660 0
M  V30 41 H 37.558873 31.267569 55.305941 0
M  V30 42 H 38.862881 26.553935 53.086686 0
M  V30 43 H 41.376508 27.830895 58.997284 0
M  V30 44 H 41.103551 29.229160 58.023270 0
M  V30 END ATOM
M  V30 BEGIN BOND
M  V30 1 1 4 2
M  V30 2 2 5 1
M  V30 3 1 9 6
M  V30 4 1 10 1
M  V30 5 1 10 8
M  V30 6 1 11 6
M  V30 7 1 13 3
M  V30 8 1 13 11
M  V30 9 1 14 8
M  V30 10 1 15 14
M  V30 11 1 16 7
M  V30 12 1 16 13
M  V30 13 1 17 2
M  V30 14 1 17 4 CFG=1
M  V30 15 1 17 6
M  V30 16 1 17 11
M  V30 17 1 18 14
M  V30 18 1 19 10
M  V30 19 1 20 1
M  V30 20 1 20 12
M  V30 21 1 20 15
M  V30 22 1 21 7
M  V30 23 1 21 18
M  V30 24 1 22 2
M  V30 25 1 23 2
M  V30 26 1 24 3
M  V30 27 1 25 3
M  V30 28 1 26 3
M  V30 29 1 6 27 CFG=3
M  V30 30 1 28 7
M  V30 31 1 29 7
M  V30 32 1 30 8
M  V30 33 1 31 8
M  V30 34 1 32 9
M  V30 35 1 10 33 CFG=3
M  V30 36 1 34 12
M  V30 37 1 13 35 CFG=3
M  V30 38 1 14 36 CFG=1
M  V30 39 1 37 15
M  V30 40 1 38 15
M  V30 41 1 39 19
M  V30 42 1 40 19
M  V30 43 1 41 19
M  V30 44 1 20 42 CFG=3
M  V30 45 1 43 21
M  V30 46 1 44 21
M  V30 END BOND
M  V30 END CTAB
M  END
>  <i_epik_Tot_Q>  (1) 
0

>  <i_epik_Tot_abs_Q>  (1) 
0

>  <i_i_glide_confnum>  (1) 
174

>  <i_i_glide_lignum>  (1) 
86

>  <i_i_glide_posenum>  (1) 
231

>  <i_i_glide_rotatable_bonds>  (1) 
8

>  <i_lp_mmshare_version>  (1) 
72125

>  <i_m_source_file_index>  (1) 
40

>  <i_f3d_flags>  (1) 
0

>  <num_sample>  (1) 
100

>  <b_lp_Chiralities_Consistent>  (1) 
1

>  <r_epik_Charging_Adjusted_Penalty>  (1) 
0

>  <r_epik_Ionization_Penalty>  (1) 
7.7229051731594394e-07

>  <r_epik_Ionization_Penalty_Charging>  (1) 
0

>  <r_epik_Ionization_Penalty_Neutral>  (1) 
7.7229051731594394e-07

>  <r_epik_State_Penalty>  (1) 
-0

>  <r_glide_ring_energy>  (1) 
0

>  <r_i_docking_score>  (1) 
-4.9334212308388015

>  <r_i_glide_ecoul>  (1) 
-4.7590827869077534

>  <r_i_glide_eff_state_penalty>  (1) 
-0

>  <r_i_glide_einternal>  (1) 
6.3758807436833358

>  <r_i_glide_emodel>  (1) 
-40.642539695764562

>  <r_i_glide_emodel_strain>  (1) 
0.4686778058644876

>  <r_i_glide_energy>  (1) 
-32.449930499844534

>  <r_i_glide_erotb>  (1) 
1.2154630782883253

>  <r_i_glide_esite>  (1) 
-0.11298659556292279

>  <r_i_glide_evdw>  (1) 
-27.690847712936783

>  <r_i_glide_gscore>  (1) 
-4.9334212308388015

>  <r_i_glide_gscore_strain>  (1) 
0

>  <r_i_glide_hbond>  (1) 
-0.16

>  <r_i_glide_ligand_efficiency>  (1) 
-0.23492482051613339

>  <r_i_glide_ligand_efficiency_ln>  (1) 
-1.2197784304086396

>  <r_i_glide_ligand_efficiency_sa>  (1) 
-0.64813976695395603

>  <r_i_glide_lipo>  (1) 
-1.7419568311932803

>  <r_i_glide_metal>  (1) 
-0

>  <r_i_glide_rewards>  (1) 
-2.0355360786879215

>  <r_lp_Energy>  (1) 
10.886961999999999

>  <r_lp_tautomer_probability>  (1) 
1

>  <s_epik_Chemistry_Notes>  (1) 
This compound contains an acetal/aminal-like group ( X-CH(R)-Y where X, Y are N, S, or O) that may be acid/base labile, releasing an aldehyde.

>  <s_epik_cmdline>  (1) 
J2VwaWtfcHl0aG9uJywgJy1waHQnLCAnMS4wJywgJy1waCcsICc3LjQnLCAnLXRuJywgJzgnLCAnLW1hJywgJzUwMCcsICctaW1hZScsICc8aW5maWxlLm1hZT4nLCAnLW9tYWUnLCAnPG91dGZpbGUubWFlPic=

>  <s_epik_input>  (1) 
Tz1DMVtDQEBIXShbQ0gzXSlbQ0gyXVtDQEBIXShbQ0gyXVtDQEhdMVtPSF0pT1tDSDJdW0NIMl1PW0NAQEhdKFtDSDNdKU4yW0NAQEhdKFtPSF0pQzIzW0NIMl1PMw==

>  <s_glide_docking_method>  (1) 
confgen

>  <s_i_glide_gridfile>  (1) 
gpcr_5ht2c_6bqh_protein_autoprepared_prepared

>  <s_lp_Force_Field>  (1) 
S-OPLS

>  <s_lp_Variant>  (1) 
DiffSBDD_39-1

>  <s_m_source_file>  (1) 
generated_GPCR_5HT2C_ligand_DiffSBDD_2026-06-23_prepared.sdf

>  <GenAI_Model>  (1) 
DiffSBDD

>  <Protein>  (1) 
GPCR_5HT2C

$$$$
DiffSBDD_67
     RDKit          3D

  0  0  0  0  0  0  0  0  0  0999 V3000
M  V30 BEGIN CTAB
M  V30 COUNTS 76 77 0 0 1
M  V30 BEGIN ATOM
M  V30 1 C 37.968810 29.995072 59.262174 0
M  V30 2 O 41.245088 35.409343 61.311834 0
M  V30 3 O 40.444767 31.517759 64.210941 0 CHG=-1
M  V30 4 C 38.652218 28.711749 58.728173 0 CFG=1
M  V30 5 O 41.067094 28.448283 58.577347 0
M  V30 6 C 41.001458 35.243911 62.503498 0
M  V30 7 C 38.470119 28.489923 57.173869 0 CFG=1
M  V30 8 C 36.560448 30.095564 59.271549 0
M  V30 9 C 40.208030 28.368791 60.818302 0
M  V30 10 C 39.279459 29.461878 56.274293 0
M  V30 11 N 39.588230 30.141686 52.523488 0
M  V30 12 C 38.954226 33.390656 60.758505 0
M  V30 13 C 40.127917 29.863471 50.309750 0
M  V30 14 C 37.060585 24.974254 56.325924 0
M  V30 15 C 35.936270 31.261000 59.767740 0
M  V30 16 C 39.987309 26.465901 56.403783 0
M  V30 17 C 37.614845 25.995640 57.334589 0
M  V30 18 C 38.115125 32.236725 60.239694 0
M  V30 19 C 39.510178 33.119330 62.169274 0 CFG=2
M  V30 20 C 39.835022 31.422244 51.883607 0
M  V30 21 C 40.194204 29.146197 51.639800 0
M  V30 22 C 39.673399 31.270683 50.373853 0
M  V30 23 C 38.305834 25.248393 58.469886 0
M  V30 24 O 42.045146 30.706537 62.967760 0
M  V30 25 O 40.445139 29.337524 49.258416 0
M  V30 26 C 39.022335 29.302296 54.759193 0
M  V30 27 C 39.883681 30.254074 53.949655 0
M  V30 28 C 41.062372 31.457034 63.126441 0
M  V30 29 C 41.865317 35.872367 63.583708 0
M  V30 30 C 39.819345 34.404859 62.967717 0
M  V30 31 C 38.554581 27.013844 56.644072 0 CFG=1
M  V30 32 C 38.742112 31.072149 59.754373 0
M  V30 33 N 40.663093 32.217790 62.098020 0
M  V30 34 C 40.078094 28.499906 59.303506 0
M  V30 35 C 36.711732 32.328419 60.247546 0
M  V30 36 H 38.062172 27.934774 59.203780 0
M  V30 37 H 37.431469 28.762070 56.989542 0
M  V30 38 H 35.958085 29.281253 58.899639 0
M  V30 39 H 39.464164 28.966972 61.342716 0
M  V30 40 H 40.087204 27.337853 61.126586 0
M  V30 41 H 41.194774 28.702165 61.139665 0
M  V30 42 H 39.051614 30.486941 56.570135 0
M  V30 43 H 40.346878 29.337940 56.433436 0
M  V30 44 H 39.757580 33.594129 60.049119 0
M  V30 45 H 38.337492 34.289594 60.769214 0
M  V30 46 H 37.861630 24.434055 55.820902 0
M  V30 47 H 36.445434 24.226899 56.820950 0
M  V30 48 H 36.445131 25.456696 55.568878 0
M  V30 49 H 34.859473 31.337871 59.771281 0
M  V30 50 H 40.537762 26.316286 57.330284 0
M  V30 51 H 39.959930 25.503316 55.893550 0
M  V30 52 H 40.591227 27.122878 55.782512 0
M  V30 53 H 36.762512 26.531879 57.749158 0
M  V30 54 H 38.714661 32.615505 62.721880 0
M  V30 55 H 39.143170 32.137749 52.299585 0
M  V30 56 H 40.845154 31.737693 52.116748 0
M  V30 57 H 41.245198 28.959917 51.837191 0
M  V30 58 H 39.641316 28.207623 51.638725 0
M  V30 59 H 40.322875 31.905528 49.777496 0
M  V30 60 H 38.652661 31.371988 50.021260 0
M  V30 61 H 39.131695 24.663149 58.073674 0
M  V30 62 H 38.707667 25.923538 59.217122 0
M  V30 63 H 37.645089 24.537757 58.966649 0
M  V30 64 H 39.260589 28.302946 54.401589 0
M  V30 65 H 37.966278 29.474145 54.544793 0
M  V30 66 H 39.631575 31.258291 54.298646 0
M  V30 67 H 40.937942 30.137864 54.167567 0
M  V30 68 H 41.251916 36.137512 64.444677 0
M  V30 69 H 42.636768 35.177498 63.912380 0
M  V30 70 H 42.335321 36.778711 63.211025 0
M  V30 71 H 38.939301 35.046107 62.993073 0
M  V30 72 H 40.045135 34.119761 63.994462 0
M  V30 73 H 38.114706 27.074316 55.651310 0
M  V30 74 H 39.810706 31.004366 59.767789 0
M  V30 75 H 41.169684 32.168242 61.229726 0
M  V30 76 H 36.228498 33.219801 60.621742 0
M  V30 END ATOM
M  V30 BEGIN BOND
M  V30 1 1 4 1
M  V30 2 2 6 2
M  V30 3 1 7 4
M  V30 4 2 8 1
M  V30 5 1 10 7
M  V30 6 1 15 8
M  V30 7 1 17 14
M  V30 8 1 18 12
M  V30 9 1 19 12
M  V30 10 1 20 11
M  V30 11 1 21 11
M  V30 12 1 21 13
M  V30 13 1 22 13
M  V30 14 1 22 20
M  V30 15 1 23 17
M  V30 16 2 25 13
M  V30 17 1 26 10
M  V30 18 1 27 11
M  V30 19 1 27 26
M  V30 20 1 28 3
M  V30 21 2 28 24
M  V30 22 1 29 6
M  V30 23 1 30 6
M  V30 24 1 30 19
M  V30 25 1 31 7
M  V30 26 1 31 16
M  V30 27 1 31 17
M  V30 28 1 32 1
M  V30 29 2 32 18
M  V30 30 1 33 19
M  V30 31 1 33 28
M  V30 32 1 34 4
M  V30 33 2 34 5
M  V30 34 1 34 9
M  V30 35 2 35 15
M  V30 36 1 35 18
M  V30 37 1 4 36 CFG=1
M  V30 38 1 7 37 CFG=3
M  V30 39 1 38 8
M  V30 40 1 39 9
M  V30 41 1 40 9
M  V30 42 1 41 9
M  V30 43 1 42 10
M  V30 44 1 43 10
M  V30 45 1 44 12
M  V30 46 1 45 12
M  V30 47 1 46 14
M  V30 48 1 47 14
M  V30 49 1 48 14
M  V30 50 1 49 15
M  V30 51 1 50 16
M  V30 52 1 51 16
M  V30 53 1 52 16
M  V30 54 1 53 17
M  V30 55 1 19 54 CFG=1
M  V30 56 1 55 20
M  V30 57 1 56 20
M  V30 58 1 57 21
M  V30 59 1 58 21
M  V30 60 1 59 22
M  V30 61 1 60 22
M  V30 62 1 61 23
M  V30 63 1 62 23
M  V30 64 1 63 23
M  V30 65 1 64 26
M  V30 66 1 65 26
M  V30 67 1 66 27
M  V30 68 1 67 27
M  V30 69 1 68 29
M  V30 70 1 69 29
M  V30 71 1 70 29
M  V30 72 1 71 30
M  V30 73 1 72 30
M  V30 74 1 31 73 CFG=3
M  V30 75 1 74 32
M  V30 76 1 75 33
M  V30 77 1 76 35
M  V30 END BOND
M  V30 END CTAB
M  END
>  <i_epik_Tot_Q>  (1) 
-1

>  <i_epik_Tot_abs_Q>  (1) 
1

>  <i_i_glide_confnum>  (1) 
261

>  <i_i_glide_lignum>  (1) 
151

>  <i_i_glide_posenum>  (1) 
196

>  <i_i_glide_rotatable_bonds>  (1) 
15

>  <i_lp_mmshare_version>  (1) 
72125

>  <i_m_source_file_index>  (1) 
68

>  <i_f3d_flags>  (1) 
0

>  <num_sample>  (1) 
100

>  <b_lp_Chiralities_Consistent>  (1) 
1

>  <r_epik_Charging_Adjusted_Penalty>  (1) 
0.60629678857330549

>  <r_epik_Ionization_Penalty>  (1) 
0.60629682340024582

>  <r_epik_Ionization_Penalty_Charging>  (1) 
0.00088625580114290448

>  <r_epik_Ionization_Penalty_Neutral>  (1) 
0.60541056759910294

>  <r_epik_State_Penalty>  (1) 
0.60541053277216261

>  <r_glide_ring_energy>  (1) 
0

>  <r_i_docking_score>  (1) 
-4.9302812190035992

>  <r_i_glide_ecoul>  (1) 
-1.3447413192787023

>  <r_i_glide_eff_state_penalty>  (1) 
0.60541053277216261

>  <r_i_glide_einternal>  (1) 
6.0992575871369805

>  <r_i_glide_emodel>  (1) 
-53.070574498302641

>  <r_i_glide_emodel_strain>  (1) 
0.12406836872077776

>  <r_i_glide_energy>  (1) 
-38.719411637428365

>  <r_i_glide_erotb>  (1) 
0.86140140191631331

>  <r_i_glide_esite>  (1) 
0

>  <r_i_glide_evdw>  (1) 
-37.374670318149661

>  <r_i_glide_gscore>  (1) 
-5.5356917517757616

>  <r_i_glide_gscore_strain>  (1) 
0

>  <r_i_glide_hbond>  (1) 
-0.098036894029404187

>  <r_i_glide_ligand_efficiency>  (1) 
-0.14086517768581711

>  <r_i_glide_ligand_efficiency_ln>  (1) 
-1.0823061492674608

>  <r_i_glide_ligand_efficiency_sa>  (1) 
-0.46077933700680596

>  <r_i_glide_lipo>  (1) 
-3.2454121263792031

>  <r_i_glide_metal>  (1) 
-0

>  <r_i_glide_rewards>  (1) 
-0.98319941948417933

>  <r_lp_Energy>  (1) 
18.776150999999999

>  <r_lp_tautomer_probability>  (1) 
0.99999992000000393

>  <s_epik_cmdline>  (1) 
J2VwaWtfcHl0aG9uJywgJy1waHQnLCAnMS4wJywgJy1waCcsICc3LjQnLCAnLXRuJywgJzgnLCAnLW1hJywgJzUwMCcsICctaW1hZScsICc8aW5maWxlLm1hZT4nLCAnLW9tYWUnLCAnPG91dGZpbGUubWFlPic=

>  <s_epik_input>  (1) 
Tz1DKFtDSDNdKVtDSDJdW0NASF0oW05IXUMoPU8pW09IXSlbQ0gyXWMoW2NIXTEpW2NIXVtjSF1bY0hdYzFbQ0BIXShDKD1PKVtDSDNdKVtDQEhdKFtDQEBIXShbQ0gzXSlbQ0hdKFtDSDNdKVtDSDNdKVtDSDJdW0NIMl1bQ0gyXU4yW0NIMl1bQ0gyXUMoPU8pW0NIMl0y

>  <s_glide_docking_method>  (1) 
confgen

>  <s_i_glide_gridfile>  (1) 
gpcr_5ht2c_6bqh_protein_autoprepared_prepared

>  <s_lp_Force_Field>  (1) 
S-OPLS

>  <s_lp_Variant>  (1) 
DiffSBDD_67-3

>  <s_m_source_file>  (1) 
generated_GPCR_5HT2C_ligand_DiffSBDD_2026-06-23_prepared.sdf

>  <GenAI_Model>  (1) 
DiffSBDD

>  <Protein>  (1) 
GPCR_5HT2C

$$$$
DiffSBDD_60
     RDKit          3D

  0  0  0  0  0  0  0  0  0  0999 V3000
M  V30 BEGIN CTAB
M  V30 COUNTS 34 34 0 0 1
M  V30 BEGIN ATOM
M  V30 1 C 36.890630 32.060093 60.794926 0 CFG=2
M  V30 2 C 38.933985 30.218466 54.351866 0
M  V30 3 C 37.292796 30.976739 59.818663 0
M  V30 4 C 38.291925 29.510647 57.173494 0 CFG=2
M  V30 5 S 38.749681 27.566378 53.517403 0
M  V30 6 C 38.960381 30.848273 56.799429 0
M  V30 7 C 38.376079 30.197069 59.971666 0
M  V30 8 C 38.266503 28.871203 54.689294 0 CFG=1
M  V30 9 S 38.835928 28.935273 58.815192 0
M  V30 10 O 35.645137 31.737755 61.367759 0
M  V30 11 C 38.624164 28.435588 56.121828 0
M  V30 12 C 36.779487 33.425237 60.105800 0
M  V30 13 C 38.572911 31.295647 55.384248 0
M  V30 14 C 37.957013 28.137668 51.993530 0
M  V30 15 H 37.626895 32.116967 61.598062 0
M  V30 16 H 38.625322 30.562542 53.367759 0
M  V30 17 H 40.017623 30.098262 54.312973 0
M  V30 18 H 36.654188 30.846189 58.957101 0
M  V30 19 H 37.209556 29.642541 57.192858 0
M  V30 20 H 38.686677 31.630410 57.506857 0
M  V30 21 H 40.043040 30.741267 56.858059 0
M  V30 22 H 39.022740 30.312404 60.829108 0
M  V30 23 H 37.184067 28.987920 54.623411 0
M  V30 24 H 34.988345 31.792994 60.688452 0
M  V30 25 H 39.689145 28.202439 56.169591 0
M  V30 26 H 38.097934 27.511723 56.365297 0
M  V30 27 H 37.735218 33.722042 59.672580 0
M  V30 28 H 36.045137 33.408307 59.298469 0
M  V30 29 H 36.482529 34.200995 60.812403 0
M  V30 30 H 37.502000 31.504767 55.346128 0
M  V30 31 H 39.077930 32.230362 55.138584 0
M  V30 32 H 38.045139 27.371193 51.223642 0
M  V30 33 H 36.898984 28.333996 52.167760 0
M  V30 34 H 38.432112 29.044710 51.622086 0
M  V30 END ATOM
M  V30 BEGIN BOND
M  V30 1 1 3 1
M  V30 2 1 6 4
M  V30 3 2 7 3
M  V30 4 1 8 2
M  V30 5 1 8 5
M  V30 6 1 9 4
M  V30 7 1 9 7
M  V30 8 1 10 1
M  V30 9 1 11 4
M  V30 10 1 11 8
M  V30 11 1 12 1
M  V30 12 1 13 2
M  V30 13 1 13 6
M  V30 14 1 14 5
M  V30 15 1 1 15 CFG=1
M  V30 16 1 16 2
M  V30 17 1 17 2
M  V30 18 1 18 3
M  V30 19 1 4 19 CFG=1
M  V30 20 1 20 6
M  V30 21 1 21 6
M  V30 22 1 22 7
M  V30 23 1 8 23 CFG=1
M  V30 24 1 24 10
M  V30 25 1 25 11
M  V30 26 1 26 11
M  V30 27 1 27 12
M  V30 28 1 28 12
M  V30 29 1 29 12
M  V30 30 1 30 13
M  V30 31 1 31 13
M  V30 32 1 32 14
M  V30 33 1 33 14
M  V30 34 1 34 14
M  V30 END BOND
M  V30 END CTAB
M  END
>  <i_epik_Tot_Q>  (1) 
0

>  <i_epik_Tot_abs_Q>  (1) 
0

>  <i_i_glide_confnum>  (1) 
14

>  <i_i_glide_lignum>  (1) 
132

>  <i_i_glide_posenum>  (1) 
156

>  <i_i_glide_rotatable_bonds>  (1) 
5

>  <i_lp_mmshare_version>  (1) 
72125

>  <i_m_source_file_index>  (1) 
61

>  <i_f3d_flags>  (1) 
0

>  <num_sample>  (1) 
100

>  <b_lp_Chiralities_Consistent>  (1) 
1

>  <r_epik_Charging_Adjusted_Penalty>  (1) 
0

>  <r_epik_Ionization_Penalty>  (1) 
3.7959940703639166e-07

>  <r_epik_Ionization_Penalty_Charging>  (1) 
0

>  <r_epik_Ionization_Penalty_Neutral>  (1) 
3.7959940703639166e-07

>  <r_epik_State_Penalty>  (1) 
-0

>  <r_glide_ring_energy>  (1) 
0

>  <r_i_docking_score>  (1) 
-4.9278792545500965

>  <r_i_glide_ecoul>  (1) 
-3.9410331706831059

>  <r_i_glide_eff_state_penalty>  (1) 
-0

>  <r_i_glide_einternal>  (1) 
2.0495355980391654

>  <r_i_glide_emodel>  (1) 
-35.983674420121588

>  <r_i_glide_emodel_strain>  (1) 
0

>  <r_i_glide_energy>  (1) 
-28.311458409935696

>  <r_i_glide_erotb>  (1) 
0.95139353164667573

>  <r_i_glide_esite>  (1) 
0

>  <r_i_glide_evdw>  (1) 
-24.37042523925259

>  <r_i_glide_gscore>  (1) 
-4.9278792545500965

>  <r_i_glide_gscore_strain>  (1) 
0

>  <r_i_glide_hbond>  (1) 
-0.32000000000000001

>  <r_i_glide_ligand_efficiency>  (1) 
-0.35199137532500691

>  <r_i_glide_ligand_efficiency_ln>  (1) 
-1.3541636770726828

>  <r_i_glide_ligand_efficiency_sa>  (1) 
-0.8483492902959654

>  <r_i_glide_lipo>  (1) 
-1.3683578855285514

>  <r_i_glide_metal>  (1) 
-0

>  <r_i_glide_rewards>  (1) 
-2.3812386631031259

>  <r_lp_Energy>  (1) 
4.4605119999999996

>  <r_lp_tautomer_probability>  (1) 
1

>  <s_epik_cmdline>  (1) 
J2VwaWtfcHl0aG9uJywgJy1waHQnLCAnMS4wJywgJy1waCcsICc3LjQnLCAnLXRuJywgJzgnLCAnLW1hJywgJzUwMCcsICctaW1hZScsICc8aW5maWxlLm1hZT4nLCAnLW9tYWUnLCAnPG91dGZpbGUubWFlPic=

>  <s_epik_input>  (1) 
W09IXVtDQEhdKFtDSDNdKS9bQ0hdPVtDSF0vU1tDQEhdMVtDSDJdW0NIMl1bQ0gyXVtDQEhdKFtDSDJdMSlTW0NIM10=

>  <s_glide_docking_method>  (1) 
confgen

>  <s_i_glide_gridfile>  (1) 
gpcr_5ht2c_6bqh_protein_autoprepared_prepared

>  <s_lp_Force_Field>  (1) 
S-OPLS

>  <s_lp_Variant>  (1) 
DiffSBDD_60-1

>  <s_m_source_file>  (1) 
generated_GPCR_5HT2C_ligand_DiffSBDD_2026-06-23_prepared.sdf

>  <GenAI_Model>  (1) 
DiffSBDD

>  <Protein>  (1) 
GPCR_5HT2C

$$$$
DiffSBDD_3
     RDKit          3D

  0  0  0  0  0  0  0  0  0  0999 V3000
M  V30 BEGIN CTAB
M  V30 COUNTS 72 76 0 0 1
M  V30 BEGIN ATOM
M  V30 1 C 44.122135 28.416935 65.245542 0
M  V30 2 C 40.211380 34.380427 62.106797 0
M  V30 3 N 39.645137 37.770476 62.167759 0
M  V30 4 C 41.148691 31.653994 63.254447 0
M  V30 5 N 41.283840 30.269077 63.359205 0
M  V30 6 C 40.201430 30.766538 61.453014 0
M  V30 7 C 38.303045 25.112980 56.442007 0 CFG=2
M  V30 8 C 41.917274 29.507007 64.457719 0 CFG=1
M  V30 9 C 40.217053 37.061941 62.880731 0
M  V30 10 C 41.583362 32.515215 64.200279 0
M  V30 11 O 37.828078 28.728961 54.600913 0
M  V30 12 C 38.441697 32.930639 56.260653 0
M  V30 13 C 40.658626 29.764639 62.219113 0
M  V30 14 C 37.878055 31.462925 58.208487 0
M  V30 15 C 39.405273 28.670414 56.421673 0 CFG=1
M  V30 16 C 40.949752 28.547476 65.180516 0
M  V30 17 C 40.199094 27.512829 55.848821 0
M  V30 18 C 43.293247 28.923335 64.056902 0
M  V30 19 O 36.213391 30.138091 59.348221 0
M  V30 20 O 37.752237 24.652628 55.199770 0
M  V30 21 N 37.981189 26.517954 56.537895 0
M  V30 22 C 38.486764 29.667590 60.011646 0
M  V30 23 C 37.140793 24.182028 56.413442 0 CFG=1
M  V30 24 C 40.859079 34.795286 63.341410 0
M  V30 25 O 37.646512 32.482404 58.864051 0
M  V30 26 N 40.506038 31.950150 62.076820 0
M  V30 27 C 38.614891 31.513782 56.842645 0 CFG=1
M  V30 28 N 38.045103 30.593698 55.855368 0
M  V30 29 C 38.361106 29.321769 55.539067 0
M  V30 30 C 41.458568 33.966018 64.229320 0
M  V30 31 C 37.537917 30.094667 58.848744 0 CFG=2
M  V30 32 C 38.041736 24.215210 57.629558 0
M  V30 33 C 40.574846 28.276967 61.959926 0
M  V30 34 N 39.528783 30.636580 60.254453 0
M  V30 35 N 40.845397 36.137777 63.631659 0
M  V30 36 C 40.081668 33.162564 61.600479 0
M  V30 37 C 39.177300 27.244280 56.921954 0 CFG=2
M  V30 38 H 45.120286 28.119645 64.922548 0
M  V30 39 H 44.239647 29.187821 66.007371 0
M  V30 40 H 43.658867 27.548309 65.712805 0
M  V30 41 H 39.772522 35.166018 61.512968 0
M  V30 42 H 42.164242 30.195047 65.255094 0
M  V30 43 H 42.067041 32.088651 65.055895 0
M  V30 44 H 38.845368 33.696552 56.920661 0
M  V30 45 H 38.949093 33.028247 55.301357 0
M  V30 46 H 37.389910 33.171700 56.105918 0
M  V30 47 H 39.958425 29.297447 57.112524 0
M  V30 48 H 41.392705 28.160198 66.097583 0
M  V30 49 H 40.045290 29.079930 65.470803 0
M  V30 50 H 40.647523 27.685664 64.590233 0
M  V30 51 H 39.975922 27.173535 54.839614 0
M  V30 52 H 41.245055 27.442680 56.137957 0
M  V30 53 H 43.200692 28.115443 63.336540 0
M  V30 54 H 43.867858 29.701951 63.552357 0
M  V30 55 H 35.675479 30.570682 58.692237 0
M  V30 56 H 37.666767 26.854415 55.634208 0
M  V30 57 H 37.926128 29.737706 60.941586 0
M  V30 58 H 38.866249 28.655149 59.882445 0
M  V30 59 H 36.144417 24.591595 56.563430 0
M  V30 60 H 39.679304 31.353669 56.974423 0
M  V30 61 H 37.291576 30.996862 55.314985 0
M  V30 62 H 41.887909 34.445143 65.098144 0
M  V30 63 H 37.543743 29.321271 58.086736 0
M  V30 64 H 38.720130 23.375826 57.767760 0
M  V30 65 H 37.645944 24.655913 58.541807 0
M  V30 66 H 39.567883 27.913764 62.169439 0
M  V30 67 H 40.818587 28.058203 60.920353 0
M  V30 68 H 41.284023 27.737610 62.563558 0
M  V30 69 H 39.355725 31.510609 59.777067 0
M  V30 70 H 41.308924 36.437777 64.480753 0
M  V30 71 H 39.560606 33.060949 60.662471 0
M  V30 72 H 39.582758 27.047401 57.912948 0
M  V30 END ATOM
M  V30 BEGIN BOND
M  V30 1 1 5 4
M  V30 2 1 8 5
M  V30 3 3 9 3
M  V30 4 2 10 4
M  V30 5 1 13 5
M  V30 6 2 13 6
M  V30 7 1 16 8
M  V30 8 1 17 15
M  V30 9 1 18 1
M  V30 10 1 18 8
M  V30 11 1 20 7
M  V30 12 1 7 21 CFG=3
M  V30 13 1 23 7
M  V30 14 1 23 20
M  V30 15 1 24 2
M  V30 16 2 25 14
M  V30 17 1 26 4
M  V30 18 1 26 6
M  V30 19 1 27 12
M  V30 20 1 27 14
M  V30 21 1 28 27
M  V30 22 2 29 11
M  V30 23 1 29 15
M  V30 24 1 29 28
M  V30 25 1 30 10
M  V30 26 2 30 24
M  V30 27 1 31 14
M  V30 28 1 31 19
M  V30 29 1 31 22
M  V30 30 1 32 7
M  V30 31 1 32 23
M  V30 32 1 33 13
M  V30 33 1 34 6
M  V30 34 1 34 22
M  V30 35 1 35 9
M  V30 36 1 35 24
M  V30 37 2 36 2
M  V30 38 1 36 26
M  V30 39 1 37 15
M  V30 40 1 37 17
M  V30 41 1 37 21
M  V30 42 1 38 1
M  V30 43 1 39 1
M  V30 44 1 40 1
M  V30 45 1 41 2
M  V30 46 1 8 42 CFG=1
M  V30 47 1 43 10
M  V30 48 1 44 12
M  V30 49 1 45 12
M  V30 50 1 46 12
M  V30 51 1 15 47 CFG=1
M  V30 52 1 48 16
M  V30 53 1 49 16
M  V30 54 1 50 16
M  V30 55 1 51 17
M  V30 56 1 52 17
M  V30 57 1 53 18
M  V30 58 1 54 18
M  V30 59 1 55 19
M  V30 60 1 56 21
M  V30 61 1 57 22
M  V30 62 1 58 22
M  V30 63 1 23 59 CFG=3
M  V30 64 1 27 60 CFG=1
M  V30 65 1 61 28
M  V30 66 1 62 30
M  V30 67 1 31 63 CFG=3
M  V30 68 1 64 32
M  V30 69 1 65 32
M  V30 70 1 66 33
M  V30 71 1 67 33
M  V30 72 1 68 33
M  V30 73 1 69 34
M  V30 74 1 70 35
M  V30 75 1 71 36
M  V30 76 1 37 72 CFG=1
M  V30 END BOND
M  V30 END CTAB
M  END
>  <i_epik_Tot_Q>  (1) 
0

>  <i_epik_Tot_abs_Q>  (1) 
0

>  <i_i_glide_confnum>  (1) 
489

>  <i_i_glide_lignum>  (1) 
5

>  <i_i_glide_posenum>  (1) 
369

>  <i_i_glide_rotatable_bonds>  (1) 
14

>  <i_lp_mmshare_version>  (1) 
72125

>  <i_m_source_file_index>  (1) 
4

>  <i_f3d_flags>  (1) 
0

>  <num_sample>  (1) 
100

>  <b_lp_Chiralities_Consistent>  (1) 
1

>  <r_epik_Charging_Adjusted_Penalty>  (1) 
1.1379790187908705e-13

>  <r_epik_Ionization_Penalty>  (1) 
1.2816857149940913e-05

>  <r_epik_Ionization_Penalty_Charging>  (1) 
1.1379790187908705e-13

>  <r_epik_Ionization_Penalty_Neutral>  (1) 
1.2816857036143011e-05

>  <r_epik_State_Penalty>  (1) 
-0

>  <r_glide_ring_energy>  (1) 
0

>  <r_i_docking_score>  (1) 
-4.9272602507457357

>  <r_i_glide_ecoul>  (1) 
-7.5268832530891618

>  <r_i_glide_eff_state_penalty>  (1) 
-0

>  <r_i_glide_einternal>  (1) 
13.359211546069966

>  <r_i_glide_emodel>  (1) 
-61.944089482449996

>  <r_i_glide_emodel_strain>  (1) 
6.2897889193251899

>  <r_i_glide_energy>  (1) 
-58.40857557415778

>  <r_i_glide_erotb>  (1) 
0.94635060674965676

>  <r_i_glide_esite>  (1) 
-0.22066291781838956

>  <r_i_glide_evdw>  (1) 
-50.88169232106862

>  <r_i_glide_gscore>  (1) 
-4.9272602507457357

>  <r_i_glide_gscore_strain>  (1) 
0.57244722983129748

>  <r_i_glide_hbond>  (1) 
-0.22628980541697727

>  <r_i_glide_ligand_efficiency>  (1) 
-0.13316919596610097

>  <r_i_glide_ligand_efficiency_ln>  (1) 
-1.068607237017607

>  <r_i_glide_ligand_efficiency_sa>  (1) 
-0.44374930476436381

>  <r_i_glide_lipo>  (1) 
-2.9833463074706903

>  <r_i_glide_metal>  (1) 
-0

>  <r_i_glide_rewards>  (1) 
0.65735804739617221

>  <r_lp_Energy>  (1) 
56.905592999999996

>  <r_lp_tautomer_probability>  (1) 
1

>  <s_epik_Chemistry_Notes>  (1) 
This compound has an imine and may undergo hydrolysis.

>  <s_epik_cmdline>  (1) 
J2VwaWtfcHl0aG9uJywgJy1waHQnLCAnMS4wJywgJy1waCcsICc3LjQnLCAnLXRuJywgJzgnLCAnLW1hJywgJzUwMCcsICctaW1hZScsICc8aW5maWxlLm1hZT4nLCAnLW9tYWUnLCAnPG91dGZpbGUubWFlPic=

>  <s_epik_input>  (1) 
TiNDW05IXUMoPVtDSF1bQ0hdMSlbQ0hdPVtDSF1OKEM9MTIpQyg9QyhbQ0gzXSlOMltDQEBIXShbQ0gzXSlbQ0gyXVtDSDNdKVtOSF1bQ0gyXVtDQEBIXShbT0hdKUMoPU8pW0NASF0oW0NIM10pW05IXUMoPU8pW0NAQEhdM1tDSDJdW0NAQEhdM1tOSF1DNDVbQ0hdKE80KVtDSDJdNQ==

>  <s_glide_docking_method>  (1) 
confgen

>  <s_i_glide_gridfile>  (1) 
gpcr_5ht2c_6bqh_protein_autoprepared_prepared

>  <s_lp_Force_Field>  (1) 
S-OPLS

>  <s_lp_Variant>  (1) 
DiffSBDD_3-1

>  <s_m_source_file>  (1) 
generated_GPCR_5HT2C_ligand_DiffSBDD_2026-06-23_prepared.sdf

>  <GenAI_Model>  (1) 
DiffSBDD

>  <Protein>  (1) 
GPCR_5HT2C

$$$$
DiffSBDD_1
     RDKit          3D

  0  0  0  0  0  0  0  0  0  0999 V3000
M  V30 BEGIN CTAB
M  V30 COUNTS 52 53 0 0 1
M  V30 BEGIN ATOM
M  V30 1 C 38.963428 30.618686 56.780965 0
M  V30 2 C 37.839288 32.177505 61.800355 0
M  V30 3 C 40.045149 30.528425 52.232112 0
M  V30 4 C 39.521680 27.196229 53.119875 0
M  V30 5 C 40.045058 29.055240 50.321846 0
M  V30 6 C 39.625895 30.176662 55.459053 0
M  V30 7 C 37.281794 32.617496 60.421916 0 CFG=2
M  V30 8 C 40.431030 32.411830 61.602616 0
M  V30 9 C 39.132877 32.878427 62.273446 0
M  V30 10 C 38.767809 28.359168 52.450780 0 CFG=1
M  V30 11 C 40.524643 30.137940 50.936868 0
M  V30 12 C 38.951287 28.182534 50.915107 0
M  V30 13 C 37.307884 28.294140 52.914033 0
M  V30 14 C 39.231503 29.737934 52.950500 0
M  V30 15 C 38.650681 30.172126 54.271233 0 CFG=1
M  V30 16 C 35.756032 32.404238 60.372858 0
M  V30 17 N 37.645182 32.446586 57.932108 0 CHG=1
M  V30 18 C 37.966277 31.870685 59.258126 0
M  V30 19 S 37.245139 29.088396 54.542316 0
M  V30 20 C 38.598504 32.119160 56.846655 0
M  V30 21 H 39.645179 30.381366 57.596823 0
M  V30 22 H 38.077858 30.013885 56.969511 0
M  V30 23 H 37.956233 31.093758 61.840186 0
M  V30 24 H 37.090559 32.410431 62.556217 0
M  V30 25 H 40.333913 31.488098 52.630400 0
M  V30 26 H 38.953140 26.269648 53.056457 0
M  V30 27 H 39.727787 27.363293 54.176229 0
M  V30 28 H 40.445142 27.006355 52.582928 0
M  V30 29 H 40.410690 28.786290 49.345536 0
M  V30 30 H 40.463041 30.836590 55.235873 0
M  V30 31 H 40.047472 29.179471 55.587387 0
M  V30 32 H 37.466526 33.687414 60.314394 0
M  V30 33 H 41.298151 32.755715 62.166671 0
M  V30 34 H 40.532757 32.822616 60.600547 0
M  V30 35 H 40.485901 31.323799 61.548937 0
M  V30 36 H 39.033429 33.960089 62.176922 0
M  V30 37 H 39.245426 32.692983 63.342517 0
M  V30 38 H 41.278264 30.737945 50.446095 0
M  V30 39 H 38.045134 28.519801 50.436945 0
M  V30 40 H 39.091570 27.139461 50.624892 0
M  V30 41 H 36.665178 28.845917 52.235665 0
M  V30 42 H 36.910528 27.280191 52.967875 0
M  V30 43 H 38.253806 31.174233 54.112587 0
M  V30 44 H 35.497089 31.351933 60.494026 0
M  V30 45 H 35.331310 32.739871 59.425846 0
M  V30 46 H 35.251721 32.962146 61.163133 0
M  V30 47 H 36.708842 32.137694 57.629827 0
M  V30 48 H 37.688688 30.815529 59.272771 0
M  V30 49 H 39.043388 31.906010 59.380046 0
M  V30 50 H 39.505415 32.712850 56.970097 0
M  V30 51 H 38.135633 32.454709 55.919618 0
M  V30 52 H 37.602737 33.451920 58.011727 0
M  V30 END ATOM
M  V30 BEGIN BOND
M  V30 1 1 6 1
M  V30 2 1 7 2
M  V30 3 1 9 2
M  V30 4 1 9 8
M  V30 5 1 10 4 CFG=1
M  V30 6 1 11 3
M  V30 7 2 11 5
M  V30 8 1 12 5
M  V30 9 1 12 10
M  V30 10 1 13 10
M  V30 11 2 14 3
M  V30 12 1 14 10
M  V30 13 1 15 6
M  V30 14 1 15 14
M  V30 15 1 16 7
M  V30 16 1 18 7
M  V30 17 1 18 17
M  V30 18 1 19 13
M  V30 19 1 19 15
M  V30 20 1 20 1
M  V30 21 1 20 17
M  V30 22 1 21 1
M  V30 23 1 22 1
M  V30 24 1 23 2
M  V30 25 1 24 2
M  V30 26 1 25 3
M  V30 27 1 26 4
M  V30 28 1 27 4
M  V30 29 1 28 4
M  V30 30 1 29 5
M  V30 31 1 30 6
M  V30 32 1 31 6
M  V30 33 1 7 32 CFG=3
M  V30 34 1 33 8
M  V30 35 1 34 8
M  V30 36 1 35 8
M  V30 37 1 36 9
M  V30 38 1 37 9
M  V30 39 1 38 11
M  V30 40 1 39 12
M  V30 41 1 40 12
M  V30 42 1 41 13
M  V30 43 1 42 13
M  V30 44 1 15 43 CFG=3
M  V30 45 1 44 16
M  V30 46 1 45 16
M  V30 47 1 46 16
M  V30 48 1 47 17
M  V30 49 1 48 18
M  V30 50 1 49 18
M  V30 51 1 50 20
M  V30 52 1 51 20
M  V30 53 1 52 17
M  V30 END BOND
M  V30 END CTAB
M  END
>  <i_epik_Tot_Q>  (1) 
1

>  <i_epik_Tot_abs_Q>  (1) 
1

>  <i_i_glide_confnum>  (1) 
56

>  <i_i_glide_lignum>  (1) 
3

>  <i_i_glide_posenum>  (1) 
248

>  <i_i_glide_rotatable_bonds>  (1) 
8

>  <i_lp_mmshare_version>  (1) 
72125

>  <i_m_source_file_index>  (1) 
2

>  <i_f3d_flags>  (1) 
0

>  <num_sample>  (1) 
100

>  <b_lp_Chiralities_Consistent>  (1) 
1

>  <r_epik_Charging_Adjusted_Penalty>  (1) 
0.00045066838380530003

>  <r_epik_Ionization_Penalty>  (1) 
0.00045066838380530003

>  <r_epik_Ionization_Penalty_Charging>  (1) 
0.00045066838380530003

>  <r_epik_Ionization_Penalty_Neutral>  (1) 
0

>  <r_epik_State_Penalty>  (1) 
-0

>  <r_glide_ring_energy>  (1) 
0

>  <r_i_docking_score>  (1) 
-4.9247055455631488

>  <r_i_glide_ecoul>  (1) 
-5.3154482161512338

>  <r_i_glide_eff_state_penalty>  (1) 
-0

>  <r_i_glide_einternal>  (1) 
3.7351447828030109

>  <r_i_glide_emodel>  (1) 
-41.975238870757956

>  <r_i_glide_emodel_strain>  (1) 
0.66975979036001831

>  <r_i_glide_energy>  (1) 
-31.574436240504411

>  <r_i_glide_erotb>  (1) 
2.9518461501230213

>  <r_i_glide_esite>  (1) 
-0.10000000000000001

>  <r_i_glide_evdw>  (1) 
-26.258988024353179

>  <r_i_glide_gscore>  (1) 
-4.9247055455631488

>  <r_i_glide_gscore_strain>  (1) 
0

>  <r_i_glide_hbond>  (1) 
-0.20000000000000001

>  <r_i_glide_ligand_efficiency>  (1) 
-0.24623527727815744

>  <r_i_glide_ligand_efficiency_ln>  (1) 
-1.2324913703947651

>  <r_i_glide_ligand_efficiency_sa>  (1) 
-0.66838537447096213

>  <r_i_glide_lipo>  (1) 
-3.3383337081282352

>  <r_i_glide_metal>  (1) 
-0

>  <r_i_glide_rewards>  (1) 
-2.1279513539175907

>  <r_lp_Energy>  (1) 
21.853418999999999

>  <r_lp_tautomer_probability>  (1) 
1

>  <s_epik_cmdline>  (1) 
J2VwaWtfcHl0aG9uJywgJy1waHQnLCAnMS4wJywgJy1waCcsICc3LjQnLCAnLXRuJywgJzgnLCAnLW1hJywgJzUwMCcsICctaW1hZScsICc8aW5maWxlLm1hZT4nLCAnLW9tYWUnLCAnPG91dGZpbGUubWFlPic=

>  <s_epik_input>  (1) 
W0NIMl0xW0NIXT1bQ0hdW0NIXT1DKFtDQF0xMltDSDNdKVtDQEBIXShTW0NIMl0yKVtDSDJdW0NIMl1bQ0gyXVtOSF1bQ0gyXVtDQEBIXShbQ0gzXSlbQ0gyXVtDSDJdW0NIM10=

>  <s_glide_docking_method>  (1) 
confgen

>  <s_i_glide_gridfile>  (1) 
gpcr_5ht2c_6bqh_protein_autoprepared_prepared

>  <s_lp_Force_Field>  (1) 
S-OPLS

>  <s_lp_Variant>  (1) 
DiffSBDD_1-1

>  <s_m_source_file>  (1) 
generated_GPCR_5HT2C_ligand_DiffSBDD_2026-06-23_prepared.sdf

>  <GenAI_Model>  (1) 
DiffSBDD

>  <Protein>  (1) 
GPCR_5HT2C

$$$$
DiffSBDD_1
     RDKit          3D

  0  0  0  0  0  0  0  0  0  0999 V3000
M  V30 BEGIN CTAB
M  V30 COUNTS 52 53 0 0 1
M  V30 BEGIN ATOM
M  V30 1 C 38.679911 31.341812 56.036962 0
M  V30 2 C 36.900403 35.012302 60.793748 0
M  V30 3 C 39.532285 28.271068 55.953181 0
M  V30 4 C 37.020322 28.196936 53.637589 0
M  V30 5 C 38.647040 26.038296 55.664453 0
M  V30 6 C 38.848414 31.204214 54.520053 0
M  V30 7 C 36.659801 33.864710 59.786169 0 CFG=2
M  V30 8 C 37.029653 37.517910 61.267423 0
M  V30 9 C 36.844704 36.431719 60.199293 0
M  V30 10 C 38.481030 27.733898 53.727104 0 CFG=1
M  V30 11 C 39.145869 26.981963 56.468421 0
M  V30 12 C 38.487366 26.233768 54.168346 0
M  V30 13 C 39.157924 27.981097 52.368864 0
M  V30 14 C 39.243681 28.642715 54.688571 0
M  V30 15 C 39.678901 29.973928 54.099528 0 CFG=1
M  V30 16 C 36.641670 32.519124 60.539973 0
M  V30 17 N 37.645134 32.668913 57.805023 0 CHG=1
M  V30 18 C 37.693407 33.885133 58.637063 0
M  V30 19 S 39.645121 29.737302 52.295850 0
M  V30 20 C 38.314068 32.750925 56.498016 0
M  V30 21 H 39.607101 31.071727 56.542279 0
M  V30 22 H 37.919886 30.628156 56.362132 0
M  V30 23 H 37.865022 34.868613 61.282397 0
M  V30 24 H 36.154645 34.938631 61.587141 0
M  V30 25 H 40.071174 28.949605 56.594202 0
M  V30 26 H 36.474036 27.682779 52.851055 0
M  V30 27 H 36.932530 29.261435 53.441603 0
M  V30 28 H 36.508444 27.990274 54.567730 0
M  V30 29 H 38.369938 25.074866 56.067051 0
M  V30 30 H 37.862588 31.190547 54.056757 0
M  V30 31 H 39.340048 32.095893 54.133457 0
M  V30 32 H 35.670109 34.002207 59.346457 0
M  V30 33 H 36.965529 38.513189 60.827369 0
M  V30 34 H 38.003380 37.431555 61.750390 0
M  V30 35 H 36.267437 37.451452 62.044139 0
M  V30 36 H 37.620942 36.557536 59.444609 0
M  V30 37 H 35.892831 36.581706 59.689751 0
M  V30 38 H 39.268649 26.771495 57.521111 0
M  V30 39 H 39.368468 25.737754 53.767766 0
M  V30 40 H 37.611245 25.697871 53.800306 0
M  V30 41 H 40.059965 27.379892 52.284968 0
M  V30 42 H 38.520826 27.714993 51.523960 0
M  V30 43 H 40.713876 30.140801 54.398388 0
M  V30 44 H 37.620820 32.280082 60.956076 0
M  V30 45 H 36.338535 31.694305 59.894039 0
M  V30 46 H 35.929456 32.542840 61.365355 0
M  V30 47 H 38.030390 31.903305 58.335714 0
M  V30 48 H 38.702914 33.983309 59.037740 0
M  V30 49 H 37.510187 34.748512 57.999085 0
M  V30 50 H 39.228842 33.338048 56.563361 0
M  V30 51 H 37.645688 33.247418 55.791439 0
M  V30 52 H 36.669333 32.432664 57.583290 0
M  V30 END ATOM
M  V30 BEGIN BOND
M  V30 1 1 6 1
M  V30 2 1 7 2
M  V30 3 1 9 2
M  V30 4 1 9 8
M  V30 5 1 10 4 CFG=3
M  V30 6 1 11 3
M  V30 7 2 11 5
M  V30 8 1 12 5
M  V30 9 1 12 10
M  V30 10 1 13 10
M  V30 11 2 14 3
M  V30 12 1 14 10
M  V30 13 1 15 6
M  V30 14 1 15 14
M  V30 15 1 16 7
M  V30 16 1 18 7
M  V30 17 1 18 17
M  V30 18 1 19 13
M  V30 19 1 19 15
M  V30 20 1 20 1
M  V30 21 1 20 17
M  V30 22 1 21 1
M  V30 23 1 22 1
M  V30 24 1 23 2
M  V30 25 1 24 2
M  V30 26 1 25 3
M  V30 27 1 26 4
M  V30 28 1 27 4
M  V30 29 1 28 4
M  V30 30 1 29 5
M  V30 31 1 30 6
M  V30 32 1 31 6
M  V30 33 1 7 32 CFG=3
M  V30 34 1 33 8
M  V30 35 1 34 8
M  V30 36 1 35 8
M  V30 37 1 36 9
M  V30 38 1 37 9
M  V30 39 1 38 11
M  V30 40 1 39 12
M  V30 41 1 40 12
M  V30 42 1 41 13
M  V30 43 1 42 13
M  V30 44 1 15 43 CFG=1
M  V30 45 1 44 16
M  V30 46 1 45 16
M  V30 47 1 46 16
M  V30 48 1 47 17
M  V30 49 1 48 18
M  V30 50 1 49 18
M  V30 51 1 50 20
M  V30 52 1 51 20
M  V30 53 1 52 17
M  V30 END BOND
M  V30 END CTAB
M  END
>  <i_epik_Tot_Q>  (1) 
1

>  <i_epik_Tot_abs_Q>  (1) 
1

>  <i_i_glide_confnum>  (1) 
123

>  <i_i_glide_lignum>  (1) 
3

>  <i_i_glide_posenum>  (1) 
120

>  <i_i_glide_rotatable_bonds>  (1) 
8

>  <i_lp_mmshare_version>  (1) 
72125

>  <i_m_source_file_index>  (1) 
2

>  <i_f3d_flags>  (1) 
0

>  <num_sample>  (1) 
100

>  <b_lp_Chiralities_Consistent>  (1) 
1

>  <r_epik_Charging_Adjusted_Penalty>  (1) 
0.00045066838380530003

>  <r_epik_Ionization_Penalty>  (1) 
0.00045066838380530003

>  <r_epik_Ionization_Penalty_Charging>  (1) 
0.00045066838380530003

>  <r_epik_Ionization_Penalty_Neutral>  (1) 
0

>  <r_epik_State_Penalty>  (1) 
-0

>  <r_glide_ring_energy>  (1) 
0

>  <r_i_docking_score>  (1) 
-4.9128810868077917

>  <r_i_glide_ecoul>  (1) 
-4.7762746867050563

>  <r_i_glide_eff_state_penalty>  (1) 
-0

>  <r_i_glide_einternal>  (1) 
6.0189705148713744

>  <r_i_glide_emodel>  (1) 
-42.649410169111448

>  <r_i_glide_emodel_strain>  (1) 
0.33071946943728747

>  <r_i_glide_energy>  (1) 
-33.082545178123816

>  <r_i_glide_erotb>  (1) 
2.9518461501230213

>  <r_i_glide_esite>  (1) 
-0.10000000000000001

>  <r_i_glide_evdw>  (1) 
-28.306270491418758

>  <r_i_glide_gscore>  (1) 
-4.9128810868077917

>  <r_i_glide_gscore_strain>  (1) 
0

>  <r_i_glide_hbond>  (1) 
-0.20000000000000001

>  <r_i_glide_ligand_efficiency>  (1) 
-0.24564405434038958

>  <r_i_glide_ligand_efficiency_ln>  (1) 
-1.2295320983650504

>  <r_i_glide_ligand_efficiency_sa>  (1) 
-0.66678054851335

>  <r_i_glide_lipo>  (1) 
-3.1700781051435274

>  <r_i_glide_metal>  (1) 
-0

>  <r_i_glide_rewards>  (1) 
-2.2628944042105892

>  <r_lp_Energy>  (1) 
21.853418999999999

>  <r_lp_tautomer_probability>  (1) 
1

>  <s_epik_cmdline>  (1) 
J2VwaWtfcHl0aG9uJywgJy1waHQnLCAnMS4wJywgJy1waCcsICc3LjQnLCAnLXRuJywgJzgnLCAnLW1hJywgJzUwMCcsICctaW1hZScsICc8aW5maWxlLm1hZT4nLCAnLW9tYWUnLCAnPG91dGZpbGUubWFlPic=

>  <s_epik_input>  (1) 
W0NIMl0xW0NIXT1bQ0hdW0NIXT1DKFtDQF0xMltDSDNdKVtDQEBIXShTW0NIMl0yKVtDSDJdW0NIMl1bQ0gyXVtOSF1bQ0gyXVtDQEBIXShbQ0gzXSlbQ0gyXVtDSDJdW0NIM10=

>  <s_glide_docking_method>  (1) 
confgen

>  <s_i_glide_gridfile>  (1) 
gpcr_5ht2c_6bqh_protein_autoprepared_prepared

>  <s_lp_Force_Field>  (1) 
S-OPLS

>  <s_lp_Variant>  (1) 
DiffSBDD_1-1

>  <s_m_source_file>  (1) 
generated_GPCR_5HT2C_ligand_DiffSBDD_2026-06-23_prepared.sdf

>  <GenAI_Model>  (1) 
DiffSBDD

>  <Protein>  (1) 
GPCR_5HT2C

$$$$
DiffSBDD_54
     RDKit          3D

  0  0  0  0  0  0  0  0  0  0999 V3000
M  V30 BEGIN CTAB
M  V30 COUNTS 42 43 0 0 1
M  V30 BEGIN ATOM
M  V30 1 C 39.370210 25.976035 57.550287 0
M  V30 2 C 38.466585 29.538222 54.419970 0
M  V30 3 C 37.816787 27.737984 52.829621 0
M  V30 4 C 40.233978 29.286367 60.730815 0
M  V30 5 C 40.732569 28.604394 58.274635 0
M  V30 6 S 38.045137 27.065189 55.516037 0 CHG=1
M  V30 7 C 38.065996 24.633873 55.850029 0
M  V30 8 N 37.397512 30.077693 54.967757 0
M  V30 9 C 38.157129 28.854116 58.138985 0
M  V30 10 C 37.842022 31.389749 55.037879 0
M  V30 11 N 39.084845 31.611548 54.567753 0
M  V30 12 N 39.437240 30.384732 54.170122 0
M  V30 13 N 39.377587 27.164939 56.648747 0 CFG=1 CHG=1
M  V30 14 C 39.455958 28.464342 57.399625 0 CFG=2
M  V30 15 C 39.285536 24.655858 56.775005 0
M  V30 16 C 40.654672 28.173257 59.758360 0
M  V30 17 O 38.219764 25.700165 54.935624 0
M  V30 18 C 38.603844 28.084729 54.102789 0 CFG=2
M  V30 19 H 38.534818 26.036757 58.249176 0
M  V30 20 H 40.284236 25.948165 58.142226 0
M  V30 21 H 38.162383 28.324891 51.977743 0
M  V30 22 H 36.751572 27.936942 52.955761 0
M  V30 23 H 37.928473 26.686595 52.567762 0
M  V30 24 H 40.343848 28.951262 61.762929 0
M  V30 25 H 39.192820 29.576605 60.602588 0
M  V30 26 H 40.845144 30.180088 60.608303 0
M  V30 27 H 41.032415 29.650015 58.266184 0
M  V30 28 H 41.558283 28.079737 57.791115 0
M  V30 29 H 38.040578 23.708602 55.278250 0
M  V30 30 H 37.124826 24.694264 56.401695 0
M  V30 31 H 38.239653 29.862559 58.544978 0
M  V30 32 H 37.950629 28.181642 58.967763 0
M  V30 33 H 37.277553 28.866567 57.496707 0
M  V30 34 H 37.245138 32.187441 55.451097 0
M  V30 35 H 40.334482 30.183103 53.750155 0
M  V30 36 H 39.606216 29.224853 56.641410 0
M  V30 37 H 40.190117 24.537846 56.180449 0
M  V30 38 H 39.245873 23.809737 57.461418 0
M  V30 39 H 39.997931 27.319280 59.894869 0
M  V30 40 H 41.645140 27.835117 60.063620 0
M  V30 41 H 39.645136 27.845820 53.923864 0
M  V30 42 H 40.248534 27.094678 56.142755 0
M  V30 END ATOM
M  V30 BEGIN BOND
M  V30 1 2 8 2
M  V30 2 1 10 8
M  V30 3 2 11 10
M  V30 4 1 12 2
M  V30 5 1 12 11
M  V30 6 1 13 1
M  V30 7 1 13 6
M  V30 8 1 14 5
M  V30 9 1 14 9
M  V30 10 1 14 13
M  V30 11 1 15 1
M  V30 12 1 15 7
M  V30 13 1 16 4
M  V30 14 1 16 5
M  V30 15 1 6 17 CFG=3
M  V30 16 1 17 7
M  V30 17 1 18 2
M  V30 18 1 18 3
M  V30 19 1 18 6
M  V30 20 1 19 1
M  V30 21 1 20 1
M  V30 22 1 21 3
M  V30 23 1 22 3
M  V30 24 1 23 3
M  V30 25 1 24 4
M  V30 26 1 25 4
M  V30 27 1 26 4
M  V30 28 1 27 5
M  V30 29 1 28 5
M  V30 30 1 29 7
M  V30 31 1 30 7
M  V30 32 1 31 9
M  V30 33 1 32 9
M  V30 34 1 33 9
M  V30 35 1 34 10
M  V30 36 1 35 12
M  V30 37 1 14 36 CFG=3
M  V30 38 1 37 15
M  V30 39 1 38 15
M  V30 40 1 39 16
M  V30 41 1 40 16
M  V30 42 1 18 41 CFG=3
M  V30 43 1 13 42 CFG=3
M  V30 END BOND
M  V30 END CTAB
M  END
>  <i_epik_Tot_Q>  (1) 
2

>  <i_epik_Tot_abs_Q>  (1) 
2

>  <i_i_glide_confnum>  (1) 
25

>  <i_i_glide_lignum>  (1) 
115

>  <i_i_glide_posenum>  (1) 
375

>  <i_i_glide_rotatable_bonds>  (1) 
5

>  <i_lp_mmshare_version>  (1) 
72125

>  <i_m_source_file_index>  (1) 
55

>  <i_f3d_flags>  (1) 
0

>  <num_sample>  (1) 
100

>  <b_lp_Chiralities_Consistent>  (1) 
1

>  <r_epik_Charging_Adjusted_Penalty>  (1) 
0.22285261290592212

>  <r_epik_Ionization_Penalty>  (1) 
0.11376846567106323

>  <r_epik_Ionization_Penalty_Charging>  (1) 
0.11142630645296109

>  <r_epik_Ionization_Penalty_Neutral>  (1) 
0.0023421592181021404

>  <r_epik_State_Penalty>  (1) 
0.11142630645296105

>  <r_glide_ring_energy>  (1) 
0

>  <r_i_docking_score>  (1) 
-4.9090184991746977

>  <r_i_glide_ecoul>  (1) 
-0.39196646606973617

>  <r_i_glide_eff_state_penalty>  (1) 
0.11142630645296105

>  <r_i_glide_einternal>  (1) 
3.270097280467906

>  <r_i_glide_emodel>  (1) 
-44.189617565887588

>  <r_i_glide_emodel_strain>  (1) 
0.077799785013716871

>  <r_i_glide_energy>  (1) 
-28.849114491831706

>  <r_i_glide_erotb>  (1) 
0.96597774364564237

>  <r_i_glide_esite>  (1) 
-0.071855907216490975

>  <r_i_glide_evdw>  (1) 
-28.45714802576197

>  <r_i_glide_gscore>  (1) 
-5.0204448056276592

>  <r_i_glide_gscore_strain>  (1) 
0

>  <r_i_glide_hbond>  (1) 
0

>  <r_i_glide_ligand_efficiency>  (1) 
-0.27272324995414987

>  <r_i_glide_ligand_efficiency_ln>  (1) 
-1.2618378922813784

>  <r_i_glide_ligand_efficiency_sa>  (1) 
-0.71473711031802012

>  <r_i_glide_lipo>  (1) 
-2.2707936386740895

>  <r_i_glide_metal>  (1) 
-0

>  <r_i_glide_rewards>  (1) 
-2.1621206321841622

>  <r_lp_Energy>  (1) 
23.784423

>  <r_lp_tautomer_probability>  (1) 
0.94828448534560383

>  <s_epik_cmdline>  (1) 
J2VwaWtfcHl0aG9uJywgJy1waHQnLCAnMS4wJywgJy1waCcsICc3LjQnLCAnLXRuJywgJzgnLCAnLW1hJywgJzUwMCcsICctaW1hZScsICc8aW5maWxlLm1hZT4nLCAnLW9tYWUnLCAnPG91dGZpbGUubWFlPic=

>  <s_epik_input>  (1) 
W0NIM11bQ0gyXVtDSDJdW0NASF0oW0NIM10pTihbQ0gyXVtDSDJdW0NIMl1PMSlbUytdMVtDQEBIXShbQ0gzXSljMm5bY0hdbltuSF0y

>  <s_glide_docking_method>  (1) 
confgen

>  <s_i_glide_gridfile>  (1) 
gpcr_5ht2c_6bqh_protein_autoprepared_prepared

>  <s_lp_Force_Field>  (1) 
S-OPLS

>  <s_lp_Variant>  (1) 
DiffSBDD_54-1

>  <s_m_source_file>  (1) 
generated_GPCR_5HT2C_ligand_DiffSBDD_2026-06-23_prepared.sdf

>  <GenAI_Model>  (1) 
DiffSBDD

>  <Protein>  (1) 
GPCR_5HT2C

$$$$
DiffSBDD_83
     RDKit          3D

  0  0  0  0  0  0  0  0  0  0999 V3000
M  V30 BEGIN CTAB
M  V30 COUNTS 54 55 0 0 1
M  V30 BEGIN ATOM
M  V30 1 C 39.262569 26.633416 55.165350 0
M  V30 2 C 38.445145 32.227527 57.457460 0
M  V30 3 N 38.445141 31.007798 58.006110 0
M  V30 4 O 36.045154 34.858780 60.147327 0
M  V30 5 O 39.645105 25.371624 55.424710 0
M  V30 6 C 38.953546 28.127040 53.171290 0
M  V30 7 C 39.038142 28.381753 51.678520 0
M  V30 8 C 35.794083 32.872057 61.107877 0
M  V30 9 C 41.431992 35.855217 62.993175 0
M  V30 10 C 39.318321 26.924750 53.702478 0
M  V30 11 C 38.012447 33.407032 58.281823 0
M  V30 12 C 39.553104 30.169339 54.616041 0
M  V30 13 N 38.845038 30.217069 57.004369 0
M  V30 14 O 39.645136 25.040693 56.845022 0
M  V30 15 C 38.492893 34.668243 60.614014 0 CFG=1
M  V30 16 C 39.887449 33.277035 62.344126 0
M  V30 17 C 35.350659 33.722713 60.248302 0
M  V30 18 O 38.921815 27.435727 56.035478 0
M  V30 19 C 37.044652 34.588316 61.167934 0 CFG=2
M  V30 20 C 38.861926 32.201247 56.084642 0
M  V30 21 O 36.864949 33.287067 61.767758 0
M  V30 22 C 40.698339 35.574457 61.670214 0
M  V30 23 C 39.453170 34.682963 61.859971 0 CFG=1
M  V30 24 C 39.104326 30.881572 55.844385 0
M  V30 25 Cl 35.093183 31.337742 61.367746 0
M  V30 26 C 38.435459 29.306971 53.997259 0
M  V30 27 C 38.813301 33.515491 59.607612 0
M  V30 28 H 38.921916 29.213473 57.121641 0
M  V30 29 H 38.045144 28.566798 51.272009 0
M  V30 30 H 39.662065 29.252692 51.474993 0
M  V30 31 H 39.462005 27.528409 51.146966 0
M  V30 32 H 42.262242 36.537752 62.850978 0
M  V30 33 H 40.766800 36.307271 63.729279 0
M  V30 34 H 41.854833 34.951879 63.431159 0
M  V30 35 H 39.667837 26.137772 53.052182 0
M  V30 36 H 38.045141 34.320343 57.692270 0
M  V30 37 H 36.958775 33.256003 58.465568 0
M  V30 38 H 40.400933 29.544300 54.895691 0
M  V30 39 H 39.932569 30.878751 53.879650 0
M  V30 40 H 40.508896 25.339121 57.091165 0
M  V30 41 H 38.561604 35.632626 60.114213 0
M  V30 42 H 40.588693 32.810117 61.652495 0
M  V30 43 H 40.370703 33.318923 63.318332 0
M  V30 44 H 39.046011 32.598510 62.467252 0
M  V30 45 H 34.507733 33.636219 59.577721 0
M  V30 46 H 36.872346 35.339292 61.941234 0
M  V30 47 H 38.953958 33.023080 55.390431 0
M  V30 48 H 41.391335 35.116552 60.967689 0
M  V30 49 H 40.404075 36.531256 61.239080 0
M  V30 50 H 38.911751 35.142661 62.687126 0
M  V30 51 H 37.819389 29.945613 53.367764 0
M  V30 52 H 37.718505 28.965241 54.740971 0
M  V30 53 H 38.707248 32.561507 60.122261 0
M  V30 54 H 39.866542 33.591259 59.343304 0
M  V30 END ATOM
M  V30 BEGIN BOND
M  V30 1 2 3 2
M  V30 2 1 5 1
M  V30 3 1 7 6
M  V30 4 1 10 1
M  V30 5 2 10 6
M  V30 6 1 11 2
M  V30 7 1 13 3
M  V30 8 1 14 5
M  V30 9 1 17 4
M  V30 10 2 17 8
M  V30 11 2 18 1
M  V30 12 1 19 4
M  V30 13 1 19 15
M  V30 14 1 20 2
M  V30 15 1 21 8
M  V30 16 1 21 19
M  V30 17 1 22 9
M  V30 18 1 23 15
M  V30 19 1 23 16
M  V30 20 1 23 22
M  V30 21 1 24 12
M  V30 22 1 24 13
M  V30 23 2 24 20
M  V30 24 1 25 8
M  V30 25 1 26 6
M  V30 26 1 26 12
M  V30 27 1 27 11
M  V30 28 1 27 15
M  V30 29 1 28 13
M  V30 30 1 29 7
M  V30 31 1 30 7
M  V30 32 1 31 7
M  V30 33 1 32 9
M  V30 34 1 33 9
M  V30 35 1 34 9
M  V30 36 1 35 10
M  V30 37 1 36 11
M  V30 38 1 37 11
M  V30 39 1 38 12
M  V30 40 1 39 12
M  V30 41 1 40 14
M  V30 42 1 15 41 CFG=3
M  V30 43 1 42 16
M  V30 44 1 43 16
M  V30 45 1 44 16
M  V30 46 1 45 17
M  V30 47 1 19 46 CFG=1
M  V30 48 1 47 20
M  V30 49 1 48 22
M  V30 50 1 49 22
M  V30 51 1 23 50 CFG=1
M  V30 52 1 51 26
M  V30 53 1 52 26
M  V30 54 1 53 27
M  V30 55 1 54 27
M  V30 END BOND
M  V30 END CTAB
M  END
>  <i_epik_Tot_Q>  (1) 
0

>  <i_epik_Tot_abs_Q>  (1) 
0

>  <i_i_glide_confnum>  (1) 
127

>  <i_i_glide_lignum>  (1) 
196

>  <i_i_glide_posenum>  (1) 
361

>  <i_i_glide_rotatable_bonds>  (1) 
12

>  <i_lp_mmshare_version>  (1) 
72125

>  <i_m_source_file_index>  (1) 
84

>  <i_f3d_flags>  (1) 
0

>  <num_sample>  (1) 
100

>  <b_lp_Chiralities_Consistent>  (1) 
1

>  <r_epik_Charging_Adjusted_Penalty>  (1) 
0.41067983895260396

>  <r_epik_Ionization_Penalty>  (1) 
0.00090540554532319911

>  <r_epik_Ionization_Penalty_Charging>  (1) 
0

>  <r_epik_Ionization_Penalty_Neutral>  (1) 
0.00090540554532319911

>  <r_epik_State_Penalty>  (1) 
0.41067983895260396

>  <r_glide_ring_energy>  (1) 
0

>  <r_i_docking_score>  (1) 
-4.9046013833800979

>  <r_i_glide_ecoul>  (1) 
-1.3356583905476644

>  <r_i_glide_eff_state_penalty>  (1) 
0.41067983895260396

>  <r_i_glide_einternal>  (1) 
9.3769489542275686

>  <r_i_glide_emodel>  (1) 
-50.023022333862691

>  <r_i_glide_emodel_strain>  (1) 
1.1434441059149165

>  <r_i_glide_energy>  (1) 
-41.996536146953012

>  <r_i_glide_erotb>  (1) 
1.1080255732668134

>  <r_i_glide_esite>  (1) 
-0.025125299533698072

>  <r_i_glide_evdw>  (1) 
-40.660877756405348

>  <r_i_glide_gscore>  (1) 
-5.3152812223327022

>  <r_i_glide_gscore_strain>  (1) 
0

>  <r_i_glide_hbond>  (1) 
-0.0871431632159161

>  <r_i_glide_ligand_efficiency>  (1) 
-0.18165190308815177

>  <r_i_glide_ligand_efficiency_ln>  (1) 
-1.1417103433776332

>  <r_i_glide_ligand_efficiency_sa>  (1) 
-0.54495570926445547

>  <r_i_glide_lipo>  (1) 
-2.5128658180187626

>  <r_i_glide_metal>  (1) 
-0

>  <r_i_glide_rewards>  (1) 
-1.5647798684287215

>  <r_lp_Energy>  (1) 
14.869823999999999

>  <r_lp_tautomer_probability>  (1) 
0.5

>  <s_epik_Chemistry_Notes>  (1) 
This compound contains an acetal/aminal-like group ( X-CH(R)-Y where X, Y are N, S, or O) that may be acid/base labile, releasing an aldehyde.

>  <s_epik_cmdline>  (1) 
J2VwaWtfcHl0aG9uJywgJy1waHQnLCAnMS4wJywgJy1waCcsICc3LjQnLCAnLXRuJywgJzgnLCAnLW1hJywgJzUwMCcsICctaW1hZScsICc8aW5maWxlLm1hZT4nLCAnLW9tYWUnLCAnPG91dGZpbGUubWFlPic=

>  <s_epik_input>  (1) 
W09IXU9DKD1PKVxbQ0hdPUMoXFtDSDNdKVtDSDJdW0NIMl1jKFtjSF0xKW5bbkhdYzFbQ0gyXVtDSDJdW0NASF0oW0NAQEhdKFtDSDNdKVtDSDJdW0NIM10pW0NAQEhdKE8yKU9bQ0hdPUMyQ2w=

>  <s_glide_docking_method>  (1) 
confgen

>  <s_i_glide_gridfile>  (1) 
gpcr_5ht2c_6bqh_protein_autoprepared_prepared

>  <s_lp_Force_Field>  (1) 
S-OPLS

>  <s_lp_Variant>  (1) 
DiffSBDD_83-7

>  <s_m_source_file>  (1) 
generated_GPCR_5HT2C_ligand_DiffSBDD_2026-06-23_prepared.sdf

>  <GenAI_Model>  (1) 
DiffSBDD

>  <Protein>  (1) 
GPCR_5HT2C

$$$$
DiffSBDD_22
     RDKit          3D

  0  0  0  0  0  0  0  0  0  0999 V3000
M  V30 BEGIN CTAB
M  V30 COUNTS 47 50 0 0 1
M  V30 BEGIN ATOM
M  V30 1 C 39.797836 28.570627 50.172836 0
M  V30 2 C 35.987381 33.079837 60.815269 0
M  V30 3 C 39.916132 30.598369 53.317161 0
M  V30 4 F 35.542809 31.948042 61.383360 0
M  V30 5 N 39.645568 30.142442 51.939934 0 CFG=1 CHG=1
M  V30 6 C 40.511473 30.765861 50.923303 0 CFG=1
M  V30 7 C 40.436923 29.863953 49.726537 0 CFG=2
M  V30 8 O 38.894505 31.298789 55.336218 0
M  V30 9 O 37.710698 28.116086 54.477300 0
M  V30 10 N 38.045521 31.359634 57.497513 0
M  V30 11 O 39.580934 26.969862 55.953714 0
M  V30 12 C 38.709082 29.229458 56.373683 0 CFG=1
M  V30 13 C 38.743165 30.367019 54.272878 0 CFG=2
M  V30 14 C 37.942654 33.060340 59.223253 0
M  V30 15 N 36.045684 34.138240 61.495442 0
M  V30 16 C 39.616052 28.693846 51.678890 0
M  V30 17 C 38.405527 32.735764 57.800956 0
M  V30 18 C 39.765910 31.237614 49.712776 0
M  V30 19 C 39.785404 28.360976 55.777215 0 CFG=2
M  V30 20 C 38.939810 30.703670 56.595733 0 CFG=1
M  V30 21 C 36.411043 33.040919 59.373973 0
M  V30 22 C 38.727963 28.999084 54.901107 0 CFG=2
M  V30 23 H 40.439011 27.720896 49.944945 0
M  V30 24 H 38.845838 28.441694 49.671850 0
M  V30 25 H 40.048232 31.677245 53.250901 0
M  V30 26 H 40.844959 30.200521 53.715117 0
M  V30 27 H 41.493561 31.118687 51.219456 0
M  V30 28 H 41.311653 29.767344 49.089402 0
M  V30 29 H 37.914174 27.283546 54.889225 0
M  V30 30 H 37.067734 31.339858 57.185628 0
M  V30 31 H 40.089516 26.681968 56.700474 0
M  V30 32 H 37.919656 28.759825 56.960949 0
M  V30 33 H 37.782337 30.574034 53.802340 0
M  V30 34 H 38.319653 34.042889 59.506424 0
M  V30 35 H 38.399029 32.348220 59.914217 0
M  V30 36 H 35.724764 34.010078 62.444152 0
M  V30 37 H 40.443693 28.191972 52.167148 0
M  V30 38 H 38.686104 28.232281 52.011251 0
M  V30 39 H 37.942605 33.403367 57.072298 0
M  V30 40 H 39.484250 32.881009 57.731246 0
M  V30 41 H 40.221691 31.999715 49.093936 0
M  V30 42 H 38.689320 31.337518 49.769317 0
M  V30 43 H 40.820693 28.695390 55.765184 0
M  V30 44 H 39.958286 30.836842 56.959148 0
M  V30 45 H 38.720001 30.468718 51.712580 0
M  V30 46 H 36.002857 32.119759 58.967113 0
M  V30 47 H 35.950464 33.864260 58.824267 0
M  V30 END ATOM
M  V30 BEGIN BOND
M  V30 1 1 4 2
M  V30 2 1 5 3
M  V30 3 1 6 5
M  V30 4 1 7 1
M  V30 5 1 7 6
M  V30 6 1 13 3
M  V30 7 1 13 8
M  V30 8 2 15 2
M  V30 9 1 16 1
M  V30 10 1 16 5
M  V30 11 1 17 10
M  V30 12 1 17 14
M  V30 13 1 18 6
M  V30 14 1 18 7
M  V30 15 1 19 11
M  V30 16 1 19 12
M  V30 17 1 20 8
M  V30 18 1 20 10
M  V30 19 1 20 12
M  V30 20 1 21 2
M  V30 21 1 21 14
M  V30 22 1 22 9 CFG=3
M  V30 23 1 22 12
M  V30 24 1 22 13
M  V30 25 1 22 19
M  V30 26 1 23 1
M  V30 27 1 24 1
M  V30 28 1 25 3
M  V30 29 1 26 3
M  V30 30 1 6 27 CFG=1
M  V30 31 1 7 28 CFG=3
M  V30 32 1 29 9
M  V30 33 1 30 10
M  V30 34 1 31 11
M  V30 35 1 12 32 CFG=1
M  V30 36 1 13 33 CFG=3
M  V30 37 1 34 14
M  V30 38 1 35 14
M  V30 39 1 36 15
M  V30 40 1 37 16
M  V30 41 1 38 16
M  V30 42 1 39 17
M  V30 43 1 40 17
M  V30 44 1 41 18
M  V30 45 1 42 18
M  V30 46 1 19 43 CFG=3
M  V30 47 1 20 44 CFG=1
M  V30 48 1 5 45 CFG=3
M  V30 49 1 46 21
M  V30 50 1 47 21
M  V30 END BOND
M  V30 END CTAB
M  END
>  <i_epik_Tot_Q>  (1) 
1

>  <i_epik_Tot_abs_Q>  (1) 
1

>  <i_i_glide_confnum>  (1) 
333

>  <i_i_glide_lignum>  (1) 
54

>  <i_i_glide_posenum>  (1) 
173

>  <i_i_glide_rotatable_bonds>  (1) 
9

>  <i_lp_mmshare_version>  (1) 
72125

>  <i_m_source_file_index>  (1) 
23

>  <i_f3d_flags>  (1) 
0

>  <num_sample>  (1) 
100

>  <b_lp_Chiralities_Consistent>  (1) 
1

>  <r_epik_Charging_Adjusted_Penalty>  (1) 
0.69687758696528612

>  <r_epik_Ionization_Penalty>  (1) 
0.32102159834462574

>  <r_epik_Ionization_Penalty_Charging>  (1) 
0.0068758800046254996

>  <r_epik_Ionization_Penalty_Neutral>  (1) 
0.31414571834000021

>  <r_epik_State_Penalty>  (1) 
0.69000170696066065

>  <r_glide_ring_energy>  (1) 
1.6455033096424496

>  <r_i_docking_score>  (1) 
-4.9025894831559267

>  <r_i_glide_ecoul>  (1) 
-4.5736932512611572

>  <r_i_glide_eff_state_penalty>  (1) 
0.69000170696066065

>  <r_i_glide_einternal>  (1) 
10.737562198114396

>  <r_i_glide_emodel>  (1) 
-34.772768522794408

>  <r_i_glide_emodel_strain>  (1) 
0.3356647009253777

>  <r_i_glide_energy>  (1) 
-31.79470869357198

>  <r_i_glide_erotb>  (1) 
1.3164448029953435

>  <r_i_glide_esite>  (1) 
-0.083633319165873077

>  <r_i_glide_evdw>  (1) 
-27.221015442310822

>  <r_i_glide_gscore>  (1) 
-5.592591190116587

>  <r_i_glide_gscore_strain>  (1) 
0

>  <r_i_glide_hbond>  (1) 
-0.16

>  <r_i_glide_ligand_efficiency>  (1) 
-0.22284497650708757

>  <r_i_glide_ligand_efficiency_ln>  (1) 
-1.1983716959796924

>  <r_i_glide_ligand_efficiency_sa>  (1) 
-0.62442038881183526

>  <r_i_glide_lipo>  (1) 
-2.3468952432027859

>  <r_i_glide_metal>  (1) 
-0

>  <r_i_glide_rewards>  (1) 
-2.2714026709385577

>  <r_lp_Energy>  (1) 
10.052434999999999

>  <r_lp_tautomer_probability>  (1) 
0.49999300000000002

>  <s_epik_Chemistry_Notes>  (1) 
This compound has an imine and may undergo hydrolysis. This compound contains an acetal/aminal-like group ( X-CH(R)-Y where X, Y are N, S, or O) that may be acid/base labile, releasing an aldehyde.

>  <s_epik_cmdline>  (1) 
J2VwaWtfcHl0aG9uJywgJy1waHQnLCAnMS4wJywgJy1waCcsICc3LjQnLCAnLXRuJywgJzgnLCAnLW1hJywgJzUwMCcsICctaW1hZScsICc8aW5maWxlLm1hZT4nLCAnLW9tYWUnLCAnPG91dGZpbGUubWFlPic=

>  <s_epik_input>  (1) 
W0NAQEhdMTJbQ0BIXShbQ0gyXTIpW0NIMl1bQ0gyXU4xW0NIMl1bQ0BASF0zT1tDQEhdKFtDSF0oW0NASF00W09IXSlbQ0BAXTM0W09IXSlbTkhdW0NIMl1bQ0gyXVxbQ0hdPUMoXEYpW05IMl0=

>  <s_glide_docking_method>  (1) 
confgen

>  <s_i_glide_gridfile>  (1) 
gpcr_5ht2c_6bqh_protein_autoprepared_prepared

>  <s_lp_Force_Field>  (1) 
S-OPLS

>  <s_lp_Variant>  (1) 
DiffSBDD_22-2

>  <s_m_source_file>  (1) 
generated_GPCR_5HT2C_ligand_DiffSBDD_2026-06-23_prepared.sdf

>  <GenAI_Model>  (1) 
DiffSBDD

>  <Protein>  (1) 
GPCR_5HT2C

$$$$
DiffSBDD_49
     RDKit          3D

  0  0  0  0  0  0  0  0  0  0999 V3000
M  V30 BEGIN CTAB
M  V30 COUNTS 75 80 0 0 1
M  V30 BEGIN ATOM
M  V30 1 N 43.596126 28.650685 65.250488 0 CHG=1
M  V30 2 C 42.727827 29.980093 67.778600 0
M  V30 3 C 41.562122 31.570755 66.433475 0 CFG=2
M  V30 4 O 44.119718 29.635872 63.367908 0
M  V30 5 C 42.830452 30.687244 66.446679 0 CFG=2
M  V30 6 C 37.487383 33.230583 60.982847 0 CFG=1
M  V30 7 O 38.768081 33.737776 59.011740 0
M  V30 8 O 43.693975 29.416349 68.288418 0
M  V30 9 C 41.402216 30.005920 68.400315 0 CFG=2
M  V30 10 C 36.177645 31.016824 60.967763 0
M  V30 11 C 38.088467 32.832155 58.148110 0
M  V30 12 C 44.333011 28.633375 64.201243 0
M  V30 13 C 42.394309 33.752338 65.299784 0
M  V30 14 C 41.846354 30.666724 63.010894 0
M  V30 15 C 40.231685 29.579077 67.540774 0
M  V30 16 C 37.977741 34.363192 60.036474 0 CFG=1
M  V30 17 C 43.048063 30.408167 63.952765 0 CFG=1
M  V30 18 F 35.553931 32.740500 59.721185 0
M  V30 19 C 42.605440 33.440050 67.778206 0
M  V30 20 C 37.514054 31.675343 58.967578 0
M  V30 21 N 45.245553 27.737708 63.885645 0
M  V30 22 C 41.743198 32.126673 62.502049 0
M  V30 23 C 41.455251 34.136038 64.137815 0
M  V30 24 C 40.756821 33.024298 63.305183 0 CFG=1
M  V30 25 C 36.845117 35.242549 59.438650 0
M  V30 26 C 39.633238 33.635240 62.428295 0 CFG=2
M  V30 27 C 36.684221 32.186592 60.156650 0 CFG=1
M  V30 28 C 38.687482 32.600056 61.767102 0
M  V30 29 C 40.102916 34.672042 61.416782 0
M  V30 30 C 38.885269 35.342618 60.807260 0
M  V30 31 C 42.660296 29.710264 65.295410 0 CFG=1
M  V30 32 C 41.772580 33.091813 66.549669 0 CFG=2
M  V30 33 C 40.696850 31.017343 67.530069 0 CFG=2
M  V30 34 H 40.979076 31.391349 65.543148 0
M  V30 35 H 43.758104 31.256212 66.377114 0
M  V30 36 H 36.815380 33.668027 61.723238 0
M  V30 37 H 41.305088 30.142672 69.475474 0
M  V30 38 H 37.008706 30.494631 61.430200 0
M  V30 39 H 35.492467 31.348502 61.748784 0
M  V30 40 H 35.645041 30.312761 60.327807 0
M  V30 41 H 37.314054 33.330880 57.566453 0
M  V30 42 H 38.805762 32.449268 57.422333 0
M  V30 43 H 42.837970 34.701491 65.601786 0
M  V30 44 H 43.245137 33.183548 64.967921 0
M  V30 45 H 40.905792 30.378111 63.479801 0
M  V30 46 H 41.909286 29.981479 62.167797 0
M  V30 47 H 40.417961 28.917910 66.705319 0
M  V30 48 H 39.309543 29.337790 68.058610 0
M  V30 49 H 43.549240 31.337713 64.167158 0
M  V30 50 H 43.612853 33.023943 67.751249 0
M  V30 51 H 42.702418 34.516053 67.767762 0
M  V30 52 H 42.126942 33.142508 68.711553 0
M  V30 53 H 36.908933 31.032136 58.327703 0
M  V30 54 H 38.333828 31.049979 59.317757 0
M  V30 55 H 45.425497 26.960784 64.502294 0
M  V30 56 H 45.769429 27.822873 63.018817 0
M  V30 57 H 41.429270 32.082182 61.460747 0
M  V30 58 H 42.729611 32.587211 62.444676 0
M  V30 59 H 40.699445 34.809344 64.544404 0
M  V30 60 H 42.045166 34.753307 63.460930 0
M  V30 61 H 40.189001 32.413948 63.996947 0
M  V30 62 H 36.222069 35.661090 60.228126 0
M  V30 63 H 37.244992 36.080811 58.868760 0
M  V30 64 H 36.177366 34.724240 58.756676 0
M  V30 65 H 39.012335 34.210316 63.099761 0
M  V30 66 H 39.266681 31.973179 61.093378 0
M  V30 67 H 38.310523 31.934446 62.543441 0
M  V30 68 H 40.716514 35.443436 61.878428 0
M  V30 69 H 40.701789 34.214322 60.641494 0
M  V30 70 H 38.309477 35.840224 61.589314 0
M  V30 71 H 39.239643 36.137679 60.167796 0
M  V30 72 H 41.674528 29.266505 65.206201 0
M  V30 73 H 40.796553 33.557726 66.693207 0
M  V30 74 H 40.045136 31.746114 68.000417 0
M  V30 75 H 43.648973 27.956339 65.982403 0
M  V30 END ATOM
M  V30 BEGIN BOND
M  V30 1 1 5 2
M  V30 2 1 5 3
M  V30 3 2 8 2
M  V30 4 1 9 2
M  V30 5 1 11 7
M  V30 6 2 12 1
M  V30 7 1 12 4
M  V30 8 1 15 9
M  V30 9 1 16 6
M  V30 10 1 16 7
M  V30 11 1 17 4
M  V30 12 1 17 14
M  V30 13 1 20 11
M  V30 14 1 21 12
M  V30 15 1 22 14
M  V30 16 1 23 13
M  V30 17 1 24 22
M  V30 18 1 24 23
M  V30 19 1 16 25 CFG=3
M  V30 20 1 26 24
M  V30 21 1 27 6
M  V30 22 1 27 10
M  V30 23 1 27 18 CFG=3
M  V30 24 1 27 20
M  V30 25 1 28 6
M  V30 26 1 28 26
M  V30 27 1 29 26
M  V30 28 1 30 16
M  V30 29 1 30 29
M  V30 30 1 31 1
M  V30 31 1 31 5
M  V30 32 1 31 17
M  V30 33 1 32 3
M  V30 34 1 32 13
M  V30 35 1 32 19
M  V30 36 1 33 3
M  V30 37 1 33 9
M  V30 38 1 33 15
M  V30 39 1 3 34 CFG=3
M  V30 40 1 5 35 CFG=3
M  V30 41 1 6 36 CFG=1
M  V30 42 1 9 37 CFG=1
M  V30 43 1 38 10
M  V30 44 1 39 10
M  V30 45 1 40 10
M  V30 46 1 41 11
M  V30 47 1 42 11
M  V30 48 1 43 13
M  V30 49 1 44 13
M  V30 50 1 45 14
M  V30 51 1 46 14
M  V30 52 1 47 15
M  V30 53 1 48 15
M  V30 54 1 17 49 CFG=1
M  V30 55 1 50 19
M  V30 56 1 51 19
M  V30 57 1 52 19
M  V30 58 1 53 20
M  V30 59 1 54 20
M  V30 60 1 55 21
M  V30 61 1 56 21
M  V30 62 1 57 22
M  V30 63 1 58 22
M  V30 64 1 59 23
M  V30 65 1 60 23
M  V30 66 1 24 61 CFG=1
M  V30 67 1 62 25
M  V30 68 1 63 25
M  V30 69 1 64 25
M  V30 70 1 26 65 CFG=1
M  V30 71 1 66 28
M  V30 72 1 67 28
M  V30 73 1 68 29
M  V30 74 1 69 29
M  V30 75 1 70 30
M  V30 76 1 71 30
M  V30 77 1 31 72 CFG=3
M  V30 78 1 32 73 CFG=1
M  V30 79 1 33 74 CFG=1
M  V30 80 1 75 1
M  V30 END BOND
M  V30 END CTAB
M  END
>  <i_epik_Tot_Q>  (1) 
1

>  <i_epik_Tot_abs_Q>  (1) 
1

>  <i_i_glide_confnum>  (1) 
1

>  <i_i_glide_lignum>  (1) 
102

>  <i_i_glide_posenum>  (1) 
258

>  <i_i_glide_rotatable_bonds>  (1) 
1

>  <i_lp_mmshare_version>  (1) 
72125

>  <i_m_source_file_index>  (1) 
50

>  <i_f3d_flags>  (1) 
0

>  <num_sample>  (1) 
100

>  <b_lp_Chiralities_Consistent>  (1) 
1

>  <r_epik_Charging_Adjusted_Penalty>  (1) 
0.054352883593996412

>  <r_epik_Ionization_Penalty>  (1) 
0.020131263556531623

>  <r_epik_Ionization_Penalty_Charging>  (1) 
0.012484738498558263

>  <r_epik_Ionization_Penalty_Neutral>  (1) 
0.0076465250579733583

>  <r_epik_State_Penalty>  (1) 
0.041868145095438146

>  <r_glide_ring_energy>  (1) 
0

>  <r_i_docking_score>  (1) 
-4.8906511385678453

>  <r_i_glide_ecoul>  (1) 
-1.942285476566425

>  <r_i_glide_eff_state_penalty>  (1) 
0.041868145095438146

>  <r_i_glide_einternal>  (1) 
0.5052987362168988

>  <r_i_glide_emodel>  (1) 
-25.372837894971532

>  <r_i_glide_emodel_strain>  (1) 
0.017032534472633643

>  <r_i_glide_energy>  (1) 
-23.51530000038203

>  <r_i_glide_erotb>  (1) 
0.094491925132231133

>  <r_i_glide_esite>  (1) 
-0.078657315001700159

>  <r_i_glide_evdw>  (1) 
-21.573014523815605

>  <r_i_glide_gscore>  (1) 
-4.9325192836632832

>  <r_i_glide_gscore_strain>  (1) 
0

>  <r_i_glide_hbond>  (1) 
0

>  <r_i_glide_ligand_efficiency>  (1) 
-0.14820154965357107

>  <r_i_glide_ligand_efficiency_ln>  (1) 
-1.0876554907811209

>  <r_i_glide_ligand_efficiency_sa>  (1) 
-0.47536155827241033

>  <r_i_glide_lipo>  (1) 
-2.6174965481811738

>  <r_i_glide_metal>  (1) 
-0

>  <r_i_glide_rewards>  (1) 
-0.96086379793689602

>  <r_lp_Energy>  (1) 
45.880542999999996

>  <s_epik_Chemistry_Notes>  (1) 
This compound has an imine and may undergo hydrolysis.

>  <s_epik_cmdline>  (1) 
J2VwaWtfcHl0aG9uJywgJy1waHQnLCAnMS4wJywgJy1waCcsICc3LjQnLCAnLXRuJywgJzgnLCAnLW1hJywgJzUwMCcsICctaW1hZScsICc8aW5maWxlLm1hZT4nLCAnLW9tYWUnLCAnPG91dGZpbGUubWFlPic=

>  <s_epik_input>  (1) 
W0NIMl0xW0NASF0yW0NAQEhdMUMoPU8pW0NASF0oW0NAQEhdMjMpW0NASF00W0NAQEhdKE9DKD1ONClbTkgyXSlbQ0gyXVtDSDJdW0NAQEhdKFtDSDJdW0NIMl1bQ0BASF0zW0NIM10pW0NAQEhdKFtDSDJdW0NIMl01KVtDSDJdW0NAQEhdKFtDQEBdNTZbQ0gzXSlbQ0BdKEYpKFtDSDNdKVtDSDJdW0NIMl1PNg==

>  <s_glide_docking_method>  (1) 
confgen

>  <s_i_glide_gridfile>  (1) 
gpcr_5ht2c_6bqh_protein_autoprepared_prepared

>  <s_lp_Force_Field>  (1) 
S-OPLS

>  <s_lp_Variant>  (1) 
DiffSBDD_49-1

>  <s_m_source_file>  (1) 
generated_GPCR_5HT2C_ligand_DiffSBDD_2026-06-23_prepared.sdf

>  <GenAI_Model>  (1) 
DiffSBDD

>  <Protein>  (1) 
GPCR_5HT2C

$$$$
DiffSBDD_9
     RDKit          3D

  0  0  0  0  0  0  0  0  0  0999 V3000
M  V30 BEGIN CTAB
M  V30 COUNTS 66 67 0 0 1
M  V30 BEGIN ATOM
M  V30 1 C 38.045788 31.490210 57.698567 0 CFG=1
M  V30 2 C 36.107101 37.137283 63.283913 0
M  V30 3 C 37.951534 27.732299 53.311073 0
M  V30 4 C 42.444514 33.763217 65.058451 0
M  V30 5 O 38.872513 28.470830 53.940076 0
M  V30 6 O 41.645961 35.737801 66.048355 0
M  V30 7 C 37.988817 31.316569 56.178792 0 CFG=1
M  V30 8 C 39.309557 31.503090 56.876752 0
M  V30 9 N 37.645108 32.762052 58.303659 0
M  V30 10 C 38.662153 35.138914 61.219806 0
M  V30 11 C 39.059552 37.045151 62.807359 0 CFG=2
M  V30 12 C 39.694395 36.405789 64.030741 0
M  V30 13 C 40.805412 35.342625 63.799991 0 CFG=1
M  V30 14 C 37.795380 34.324258 60.258147 0
M  V30 15 C 41.254809 34.719249 65.156699 0 CFG=1
M  V30 16 C 36.663218 36.622219 61.926762 0
M  V30 17 C 40.136222 34.730149 61.324255 0
M  V30 18 C 39.678877 38.956518 61.424477 0
M  V30 19 C 37.702511 30.022506 55.440920 0
M  V30 20 C 37.698193 30.317109 58.606731 0
M  V30 21 O 36.590721 34.510624 60.103300 0
M  V30 22 C 38.473696 33.226284 59.422539 0
M  V30 23 O 36.845165 28.138047 52.967732 0
M  V30 24 C 38.628173 29.842175 54.227434 0
M  V30 25 C 38.151773 36.189937 61.939442 0
M  V30 26 C 40.454631 34.246747 62.758449 0
M  V30 27 O 37.645137 32.468967 55.432559 0
M  V30 28 O 40.045116 37.719415 62.032440 0
M  V30 29 C 36.383260 37.626720 60.789459 0
M  V30 30 H 36.514257 36.572709 64.123156 0
M  V30 31 H 36.329592 38.192224 63.437186 0
M  V30 32 H 35.023299 37.044166 63.367772 0
M  V30 33 H 38.333510 26.722940 53.155101 0
M  V30 34 H 42.184398 32.835709 64.549771 0
M  V30 35 H 43.245129 34.243661 64.510984 0
M  V30 36 H 42.821387 33.488130 66.044655 0
M  V30 37 H 42.041091 36.443532 65.550926 0
M  V30 38 H 39.961550 30.634997 56.946611 0
M  V30 39 H 39.814944 32.455245 56.723921 0
M  V30 40 H 36.670894 32.692842 58.592063 0
M  V30 41 H 38.423696 37.737773 63.293200 0
M  V30 42 H 40.124872 37.232518 64.586408 0
M  V30 43 H 38.893675 36.137685 64.708264 0
M  V30 44 H 41.662206 35.881516 63.391676 0
M  V30 45 H 40.445128 34.176117 65.634238 0
M  V30 46 H 36.051639 35.733274 61.855925 0
M  V30 47 H 40.440855 33.924350 60.668970 0
M  V30 48 H 40.780263 35.563554 61.044498 0
M  V30 49 H 40.445123 39.337769 60.751570 0
M  V30 50 H 38.755611 38.918971 60.861388 0
M  V30 51 H 39.645210 39.733503 62.167753 0
M  V30 52 H 37.853260 29.182675 56.115293 0
M  V30 53 H 36.653643 29.999407 55.143201 0
M  V30 54 H 38.179312 29.401485 58.266942 0
M  V30 55 H 38.020595 30.483526 59.632901 0
M  V30 56 H 36.619010 30.158781 58.605901 0
M  V30 57 H 38.734723 32.411191 60.095561 0
M  V30 58 H 39.395981 33.613258 58.991985 0
M  V30 59 H 38.221352 30.368502 53.367678 0
M  V30 60 H 39.599010 30.295187 54.429238 0
M  V30 61 H 41.314028 33.584554 62.661530 0
M  V30 62 H 39.644945 33.618412 63.131754 0
M  V30 63 H 36.724602 32.688192 55.608493 0
M  V30 64 H 36.873861 37.329102 59.862512 0
M  V30 65 H 35.324621 37.737758 60.567732 0
M  V30 66 H 36.713228 38.627709 61.052771 0
M  V30 END ATOM
M  V30 BEGIN BOND
M  V30 1 1 5 3
M  V30 2 1 7 1
M  V30 3 1 8 1
M  V30 4 1 8 7
M  V30 5 1 1 9 CFG=1
M  V30 6 1 12 11
M  V30 7 1 13 12
M  V30 8 1 14 10
M  V30 9 1 15 4
M  V30 10 1 15 6
M  V30 11 1 15 13
M  V30 12 1 16 2
M  V30 13 1 17 10
M  V30 14 1 19 7
M  V30 15 1 20 1
M  V30 16 2 21 14
M  V30 17 1 22 9
M  V30 18 1 22 14
M  V30 19 2 23 3
M  V30 20 1 24 5
M  V30 21 1 24 19
M  V30 22 2 25 10
M  V30 23 1 25 11
M  V30 24 1 25 16
M  V30 25 1 26 13
M  V30 26 1 26 17
M  V30 27 1 7 27 CFG=3
M  V30 28 1 28 11
M  V30 29 1 28 18
M  V30 30 1 29 16
M  V30 31 1 30 2
M  V30 32 1 31 2
M  V30 33 1 32 2
M  V30 34 1 33 3
M  V30 35 1 34 4
M  V30 36 1 35 4
M  V30 37 1 36 4
M  V30 38 1 37 6
M  V30 39 1 38 8
M  V30 40 1 39 8
M  V30 41 1 40 9
M  V30 42 1 11 41 CFG=1
M  V30 43 1 42 12
M  V30 44 1 43 12
M  V30 45 1 13 44 CFG=3
M  V30 46 1 15 45 CFG=1
M  V30 47 1 46 16
M  V30 48 1 47 17
M  V30 49 1 48 17
M  V30 50 1 49 18
M  V30 51 1 50 18
M  V30 52 1 51 18
M  V30 53 1 52 19
M  V30 54 1 53 19
M  V30 55 1 54 20
M  V30 56 1 55 20
M  V30 57 1 56 20
M  V30 58 1 57 22
M  V30 59 1 58 22
M  V30 60 1 59 24
M  V30 61 1 60 24
M  V30 62 1 61 26
M  V30 63 1 62 26
M  V30 64 1 63 27
M  V30 65 1 64 29
M  V30 66 1 65 29
M  V30 67 1 66 29
M  V30 END BOND
M  V30 END CTAB
M  END
>  <i_epik_Tot_Q>  (1) 
0

>  <i_epik_Tot_abs_Q>  (1) 
0

>  <i_i_glide_confnum>  (1) 
229

>  <i_i_glide_lignum>  (1) 
15

>  <i_i_glide_posenum>  (1) 
137

>  <i_i_glide_rotatable_bonds>  (1) 
13

>  <i_lp_mmshare_version>  (1) 
72125

>  <i_m_source_file_index>  (1) 
10

>  <i_f3d_flags>  (1) 
0

>  <num_sample>  (1) 
100

>  <b_lp_Chiralities_Consistent>  (1) 
1

>  <r_epik_Charging_Adjusted_Penalty>  (1) 
0.70191645640278022

>  <r_epik_Ionization_Penalty>  (1) 
0.70191663338499877

>  <r_epik_Ionization_Penalty_Charging>  (1) 
0

>  <r_epik_Ionization_Penalty_Neutral>  (1) 
0.70191663338499877

>  <r_epik_State_Penalty>  (1) 
0.70191645640278022

>  <r_glide_ring_energy>  (1) 
0

>  <r_i_docking_score>  (1) 
-4.8898347016457331

>  <r_i_glide_ecoul>  (1) 
-5.4990596435826093

>  <r_i_glide_eff_state_penalty>  (1) 
0.70191645640278022

>  <r_i_glide_einternal>  (1) 
7.9613668556908834

>  <r_i_glide_emodel>  (1) 
-39.335403724955206

>  <r_i_glide_emodel_strain>  (1) 
3.1905838066193439

>  <r_i_glide_energy>  (1) 
-35.125023033829535

>  <r_i_glide_erotb>  (1) 
0.93101816362055201

>  <r_i_glide_esite>  (1) 
0

>  <r_i_glide_evdw>  (1) 
-29.625963390246927

>  <r_i_glide_gscore>  (1) 
-5.5917511580485133

>  <r_i_glide_gscore_strain>  (1) 
0

>  <r_i_glide_hbond>  (1) 
-0.51429467589337829

>  <r_i_glide_ligand_efficiency>  (1) 
-0.16861498971192182

>  <r_i_glide_ligand_efficiency_ln>  (1) 
-1.1196481511674643

>  <r_i_glide_ligand_efficiency_sa>  (1) 
-0.51803866995478354

>  <r_i_glide_lipo>  (1) 
-2.2481445623094096

>  <r_i_glide_metal>  (1) 
-0

>  <r_i_glide_rewards>  (1) 
-1.4541729674165396

>  <r_lp_Energy>  (1) 
40.571261999999997

>  <s_epik_Chemistry_Notes>  (1) 
This compound has an ester and may undergo hydrolysis at high or low pH.

>  <s_epik_cmdline>  (1) 
J2VwaWtfcHl0aG9uJywgJy1waHQnLCAnMS4wJywgJy1waCcsICc3LjQnLCAnLXRuJywgJzgnLCAnLW1hJywgJzUwMCcsICctaW1hZScsICc8aW5maWxlLm1hZT4nLCAnLW9tYWUnLCAnPG91dGZpbGUubWFlPic=

>  <s_epik_input>  (1) 
Tz1bQ0hdT1tDSDJdW0NIMl1bQ0BAXShbQ0gyXTEpKFtPSF0pW0NAXTEoW0NIM10pW05IXVtDSDJdQyg9TylDMj1DKFtDSF0oW0NIM10pW0NIM10pW0NASF0oT1tDSDNdKVtDSDJdW0NAQEhdKFtDQEBIXShbQ0gzXSlbT0hdKVtDSDJdW0NIMl0y

>  <s_glide_docking_method>  (1) 
confgen

>  <s_i_glide_gridfile>  (1) 
gpcr_5ht2c_6bqh_protein_autoprepared_prepared

>  <s_lp_Force_Field>  (1) 
S-OPLS

>  <s_lp_Variant>  (1) 
DiffSBDD_9-3

>  <s_m_source_file>  (1) 
generated_GPCR_5HT2C_ligand_DiffSBDD_2026-06-23_prepared.sdf

>  <GenAI_Model>  (1) 
DiffSBDD

>  <Protein>  (1) 
GPCR_5HT2C

$$$$
DiffSBDD_24
     RDKit          3D

  0  0  0  0  0  0  0  0  0  0999 V3000
M  V30 BEGIN CTAB
M  V30 COUNTS 76 79 0 0 1
M  V30 BEGIN ATOM
M  V30 1 C 38.969890 24.144048 57.352633 0
M  V30 2 C 39.033514 34.644292 60.354183 0
M  V30 3 C 39.783037 25.283438 57.284023 0
M  V30 4 N 40.781553 34.657168 62.165192 0 CHG=1
M  V30 5 C 39.553214 29.462065 58.756661 0 CFG=2
M  V30 6 N 36.931245 33.415141 60.976590 0
M  V30 7 C 37.350949 31.076811 60.906862 0
M  V30 8 C 41.724617 35.297640 64.358374 0
M  V30 9 O 37.683862 37.337854 63.491704 0 CHG=-1
M  V30 10 N 39.627021 36.289156 63.707616 0
M  V30 11 C 38.785337 37.041538 62.993887 0
M  V30 12 O 38.583544 30.828587 56.485146 0
M  V30 13 C 38.222045 29.283350 59.470468 0
M  V30 14 C 37.577442 24.270661 57.382031 0
M  V30 15 C 39.178108 29.114489 54.896551 0 CFG=2
M  V30 16 C 40.605428 29.621549 61.038625 0
M  V30 17 C 37.530924 34.428336 60.109553 0
M  V30 18 N 39.247645 29.764628 61.595376 0
M  V30 19 O 36.192009 30.949582 60.505028 0
M  V30 20 C 37.810593 26.687922 57.327746 0
M  V30 21 C 39.416358 34.205894 61.765884 0 CFG=2
M  V30 22 C 39.215553 32.706190 61.785324 0
M  V30 23 C 39.645083 29.736154 52.475613 0
M  V30 24 C 36.996272 25.543527 57.373030 0
M  V30 25 C 39.700740 30.200396 53.919611 0
M  V30 26 N 39.547526 28.964970 57.378677 0
M  V30 27 C 40.878401 35.766558 63.167003 0 CFG=2
M  V30 28 C 37.834056 28.575432 54.353431 0
M  V30 29 F 37.245769 27.895971 57.367343 0
M  V30 30 C 38.886432 28.711420 52.056463 0
M  V30 31 C 37.699684 32.362607 61.663999 0 CFG=1
M  V30 32 C 39.219982 26.557465 57.257868 0
M  V30 33 N 38.277097 30.139442 60.635092 0
M  V30 34 C 37.997648 27.902431 52.977693 0
M  V30 35 C 39.071634 29.709125 56.327511 0
M  V30 36 C 40.664915 28.913441 59.673875 0
M  V30 37 O 39.116296 37.413236 61.847092 0
M  V30 38 N 40.079175 27.681179 57.177237 0
M  V30 39 H 39.423511 23.169345 57.375414 0
M  V30 40 H 39.618779 34.094117 59.614428 0
M  V30 41 H 39.274351 35.688576 60.172958 0
M  V30 42 H 40.844704 25.177814 57.250836 0
M  V30 43 H 41.271490 33.866907 62.556319 0
M  V30 44 H 39.645174 30.537591 58.683463 0
M  V30 45 H 35.993810 33.132236 60.718320 0
M  V30 46 H 41.893885 36.113086 65.065652 0
M  V30 47 H 41.229753 34.489705 64.899155 0
M  V30 48 H 42.702859 34.935082 64.046873 0
M  V30 49 H 39.358415 36.011623 64.638123 0
M  V30 50 H 37.404111 29.602640 58.824575 0
M  V30 51 H 38.050858 28.247109 59.763013 0
M  V30 52 H 36.954103 23.388528 57.423746 0
M  V30 53 H 39.894058 28.297331 54.859789 0
M  V30 54 H 41.051665 30.608650 60.938941 0
M  V30 55 H 41.221117 29.088676 61.764413 0
M  V30 56 H 37.346759 34.150099 59.070864 0
M  V30 57 H 36.994921 35.362798 60.285880 0
M  V30 58 H 39.233908 30.408276 62.383174 0
M  V30 59 H 38.660068 34.551161 62.454435 0
M  V30 60 H 39.606575 32.284820 62.711170 0
M  V30 61 H 39.793131 32.290093 60.965171 0
M  V30 62 H 40.255279 30.281062 51.767584 0
M  V30 63 H 35.924645 25.646946 57.417544 0
M  V30 64 H 40.728719 30.470303 54.172075 0
M  V30 65 H 39.117251 31.119107 53.983358 0
M  V30 66 H 41.414937 36.590291 62.687812 0
M  V30 67 H 37.393728 27.844605 55.020244 0
M  V30 68 H 37.112909 29.390689 54.282230 0
M  V30 69 H 38.891100 28.429753 51.012824 0
M  V30 70 H 37.270686 32.273198 62.658371 0
M  V30 71 H 37.018443 27.763809 52.522920 0
M  V30 72 H 38.436536 26.911929 53.091035 0
M  V30 73 H 40.536589 27.841330 59.823688 0
M  V30 74 H 41.646488 29.051894 59.223237 0
M  V30 75 H 40.998832 27.525038 57.566013 0
M  V30 76 H 41.263948 34.957457 61.329721 0
M  V30 END ATOM
M  V30 BEGIN BOND
M  V30 1 1 3 1
M  V30 2 1 11 9
M  V30 3 1 11 10
M  V30 4 1 13 5
M  V30 5 2 14 1
M  V30 6 1 17 2
M  V30 7 1 17 6
M  V30 8 1 18 16
M  V30 9 2 19 7
M  V30 10 1 21 2
M  V30 11 1 21 4
M  V30 12 1 22 21
M  V30 13 1 24 14
M  V30 14 2 24 20
M  V30 15 1 25 15
M  V30 16 1 25 23
M  V30 17 1 26 5
M  V30 18 1 27 4
M  V30 19 1 27 8
M  V30 20 1 27 10
M  V30 21 1 28 15
M  V30 22 1 29 20
M  V30 23 2 30 23
M  V30 24 1 31 6
M  V30 25 1 31 7
M  V30 26 1 31 22
M  V30 27 2 32 3
M  V30 28 1 32 20
M  V30 29 1 33 7
M  V30 30 1 33 13
M  V30 31 1 33 18
M  V30 32 1 34 28
M  V30 33 1 34 30
M  V30 34 2 35 12
M  V30 35 1 35 15
M  V30 36 1 35 26
M  V30 37 1 36 5
M  V30 38 1 36 16
M  V30 39 2 37 11
M  V30 40 1 38 26
M  V30 41 1 38 32
M  V30 42 1 39 1
M  V30 43 1 40 2
M  V30 44 1 41 2
M  V30 45 1 42 3
M  V30 46 1 43 4
M  V30 47 1 5 44 CFG=3
M  V30 48 1 45 6
M  V30 49 1 46 8
M  V30 50 1 47 8
M  V30 51 1 48 8
M  V30 52 1 49 10
M  V30 53 1 50 13
M  V30 54 1 51 13
M  V30 55 1 52 14
M  V30 56 1 15 53 CFG=1
M  V30 57 1 54 16
M  V30 58 1 55 16
M  V30 59 1 56 17
M  V30 60 1 57 17
M  V30 61 1 58 18
M  V30 62 1 21 59 CFG=1
M  V30 63 1 60 22
M  V30 64 1 61 22
M  V30 65 1 62 23
M  V30 66 1 63 24
M  V30 67 1 64 25
M  V30 68 1 65 25
M  V30 69 1 27 66 CFG=3
M  V30 70 1 67 28
M  V30 71 1 68 28
M  V30 72 1 69 30
M  V30 73 1 31 70 CFG=1
M  V30 74 1 71 34
M  V30 75 1 72 34
M  V30 76 1 73 36
M  V30 77 1 74 36
M  V30 78 1 75 38
M  V30 79 1 76 4
M  V30 END BOND
M  V30 END CTAB
M  END
>  <i_epik_Tot_Q>  (1) 
0

>  <i_epik_Tot_abs_Q>  (1) 
2

>  <i_i_glide_confnum>  (1) 
72

>  <i_i_glide_lignum>  (1) 
59

>  <i_i_glide_posenum>  (1) 
349

>  <i_i_glide_rotatable_bonds>  (1) 
11

>  <i_lp_mmshare_version>  (1) 
72125

>  <i_m_source_file_index>  (1) 
25

>  <i_f3d_flags>  (1) 
0

>  <num_sample>  (1) 
100

>  <b_lp_Chiralities_Consistent>  (1) 
1

>  <r_epik_Charging_Adjusted_Penalty>  (1) 
0.077750035834572392

>  <r_epik_Ionization_Penalty>  (1) 
0.10755876975778689

>  <r_epik_Ionization_Penalty_Charging>  (1) 
0.0083338926467225426

>  <r_epik_Ionization_Penalty_Neutral>  (1) 
0.099224877111064341

>  <r_epik_State_Penalty>  (1) 
0.069416143187849846

>  <r_glide_ring_energy>  (1) 
0

>  <r_i_docking_score>  (1) 
-4.8887951114873056

>  <r_i_glide_ecoul>  (1) 
0.66781830382212037

>  <r_i_glide_eff_state_penalty>  (1) 
0.069416143187849846

>  <r_i_glide_einternal>  (1) 
81.8673835711744

>  <r_i_glide_emodel>  (1) 
-9.3343728379207676

>  <r_i_glide_emodel_strain>  (1) 
14.363016838904144

>  <r_i_glide_energy>  (1) 
-46.61001781727623

>  <r_i_glide_erotb>  (1) 
0.72960086390203738

>  <r_i_glide_esite>  (1) 
-0.0038092780542325283

>  <r_i_glide_evdw>  (1) 
-47.277836121098353

>  <r_i_glide_gscore>  (1) 
-4.9582112546751551

>  <r_i_glide_gscore_strain>  (1) 
2.5907542097260361

>  <r_i_glide_hbond>  (1) 
-0.0030462801382143746

>  <r_i_glide_ligand_efficiency>  (1) 
-0.12865250293387645

>  <r_i_glide_ligand_efficiency_ln>  (1) 
-1.0541680398183138

>  <r_i_glide_ligand_efficiency_sa>  (1) 
-0.43252655088682423

>  <r_i_glide_lipo>  (1) 
-4.605811814178411

>  <r_i_glide_metal>  (1) 
-0

>  <r_i_glide_rewards>  (1) 
-1.4021798954507716

>  <r_lp_Energy>  (1) 
50.898903999999995

>  <s_epik_Chemistry_Notes>  (1) 
This compound contains an acetal/aminal-like group ( X-CH(R)-Y where X, Y are N, S, or O) that may be acid/base labile, releasing an aldehyde.

>  <s_epik_cmdline>  (1) 
J2VwaWtfcHl0aG9uJywgJy1waHQnLCAnMS4wJywgJy1waCcsICc3LjQnLCAnLXRuJywgJzgnLCAnLW1hJywgJzUwMCcsICctaW1hZScsICc8aW5maWxlLm1hZT4nLCAnLW9tYWUnLCAnPG91dGZpbGUubWFlPic=

>  <s_epik_input>  (1) 
RmMxW2NIXVtjSF1bY0hdW2NIXWMxW05IXU4oQyg9TylbQ0BASF0yW0NIMl1bQ0hdPVtDSF1bQ0gyXVtDSDJdMilbQ0BIXTNbQ0gyXU4oW05IXVtDSDJdW0NIMl0zKUMoPU8pW0NAQEhdKFtDSDJdNClbTkhdW0NIMl1bQ0gyXVtDQEBIXTRbTkhdW0NASF0oW0NIM10pW05IXUMoPU8pW09IXQ==

>  <s_glide_docking_method>  (1) 
confgen

>  <s_i_glide_gridfile>  (1) 
gpcr_5ht2c_6bqh_protein_autoprepared_prepared

>  <s_lp_Force_Field>  (1) 
S-OPLS

>  <s_lp_Variant>  (1) 
DiffSBDD_24-1

>  <s_m_source_file>  (1) 
generated_GPCR_5HT2C_ligand_DiffSBDD_2026-06-23_prepared.sdf

>  <GenAI_Model>  (1) 
DiffSBDD

>  <Protein>  (1) 
GPCR_5HT2C

$$$$
DiffSBDD_1
     RDKit          3D

  0  0  0  0  0  0  0  0  0  0999 V3000
M  V30 BEGIN CTAB
M  V30 COUNTS 52 53 0 0 1
M  V30 BEGIN ATOM
M  V30 1 C 39.347235 32.290829 55.879348 0
M  V30 2 C 38.078365 34.055524 61.278537 0
M  V30 3 C 40.045133 30.226335 51.973953 0
M  V30 4 C 39.415791 27.379279 53.953013 0
M  V30 5 C 39.919264 28.223750 50.634218 0
M  V30 6 C 39.735603 30.986393 55.143194 0
M  V30 7 C 37.589160 34.232249 59.822255 0 CFG=2
M  V30 8 C 40.237557 35.463121 61.211552 0
M  V30 9 C 39.601628 34.100656 61.509285 0
M  V30 10 C 38.715036 28.289624 52.911054 0 CFG=1
M  V30 11 C 40.445186 29.431689 50.854875 0
M  V30 12 C 38.852724 27.603011 51.517587 0
M  V30 13 C 37.256477 28.461223 53.349220 0
M  V30 14 C 39.240625 29.737701 52.931317 0
M  V30 15 C 38.715935 30.595348 54.055439 0 CFG=1
M  V30 16 C 36.049949 34.203007 59.799071 0
M  V30 17 N 37.662519 33.293684 57.496848 0 CHG=1
M  V30 18 C 38.191214 33.177545 58.871105 0
M  V30 19 S 37.253720 29.711117 54.668477 0
M  V30 20 C 38.013252 32.167283 56.612616 0
M  V30 21 H 39.266512 33.111190 55.166997 0
M  V30 22 H 40.134279 32.571289 56.567756 0
M  V30 23 H 37.700878 33.107854 61.665891 0
M  V30 24 H 37.618529 34.831617 61.890818 0
M  V30 25 H 40.374910 31.254114 52.034000 0
M  V30 26 H 38.786340 26.528085 54.213956 0
M  V30 27 H 39.645138 27.903849 54.880234 0
M  V30 28 H 40.336054 26.937750 53.569100 0
M  V30 29 H 40.238195 27.653134 49.782027 0
M  V30 30 H 40.711133 31.142675 54.680419 0
M  V30 31 H 39.869036 30.167528 55.850622 0
M  V30 32 H 37.889475 35.222011 59.482999 0
M  V30 33 H 41.308360 35.448410 61.418002 0
M  V30 34 H 39.793577 36.249185 61.823049 0
M  V30 35 H 40.109492 35.737777 60.167811 0
M  V30 36 H 39.795127 33.858798 62.555196 0
M  V30 37 H 40.102759 33.321192 60.936105 0
M  V30 38 H 41.181523 29.821571 50.167372 0
M  V30 39 H 37.917224 27.675990 50.967762 0
M  V30 40 H 39.057583 26.537755 51.616129 0
M  V30 41 H 36.660481 28.829733 52.517736 0
M  V30 42 H 36.793359 27.532570 53.683812 0
M  V30 43 H 38.362728 31.513601 53.584898 0
M  V30 44 H 35.662305 33.220086 60.070396 0
M  V30 45 H 35.646822 34.461446 58.819323 0
M  V30 46 H 35.645064 34.925683 60.506123 0
M  V30 47 H 36.650696 33.221082 57.557482 0
M  V30 48 H 37.975442 32.179917 59.256629 0
M  V30 49 H 39.275234 33.276258 58.825067 0
M  V30 50 H 37.245141 32.158151 55.844812 0
M  V30 51 H 37.934165 31.223422 57.154114 0
M  V30 52 H 37.897951 34.179543 57.073373 0
M  V30 END ATOM
M  V30 BEGIN BOND
M  V30 1 1 6 1
M  V30 2 1 7 2
M  V30 3 1 9 2
M  V30 4 1 9 8
M  V30 5 1 10 4 CFG=1
M  V30 6 1 11 3
M  V30 7 2 11 5
M  V30 8 1 12 5
M  V30 9 1 12 10
M  V30 10 1 13 10
M  V30 11 2 14 3
M  V30 12 1 14 10
M  V30 13 1 15 6
M  V30 14 1 15 14
M  V30 15 1 16 7
M  V30 16 1 18 7
M  V30 17 1 18 17
M  V30 18 1 19 13
M  V30 19 1 19 15
M  V30 20 1 20 1
M  V30 21 1 20 17
M  V30 22 1 21 1
M  V30 23 1 22 1
M  V30 24 1 23 2
M  V30 25 1 24 2
M  V30 26 1 25 3
M  V30 27 1 26 4
M  V30 28 1 27 4
M  V30 29 1 28 4
M  V30 30 1 29 5
M  V30 31 1 30 6
M  V30 32 1 31 6
M  V30 33 1 7 32 CFG=3
M  V30 34 1 33 8
M  V30 35 1 34 8
M  V30 36 1 35 8
M  V30 37 1 36 9
M  V30 38 1 37 9
M  V30 39 1 38 11
M  V30 40 1 39 12
M  V30 41 1 40 12
M  V30 42 1 41 13
M  V30 43 1 42 13
M  V30 44 1 15 43 CFG=3
M  V30 45 1 44 16
M  V30 46 1 45 16
M  V30 47 1 46 16
M  V30 48 1 47 17
M  V30 49 1 48 18
M  V30 50 1 49 18
M  V30 51 1 50 20
M  V30 52 1 51 20
M  V30 53 1 52 17
M  V30 END BOND
M  V30 END CTAB
M  END
>  <i_epik_Tot_Q>  (1) 
1

>  <i_epik_Tot_abs_Q>  (1) 
1

>  <i_i_glide_confnum>  (1) 
47

>  <i_i_glide_lignum>  (1) 
3

>  <i_i_glide_posenum>  (1) 
177

>  <i_i_glide_rotatable_bonds>  (1) 
8

>  <i_lp_mmshare_version>  (1) 
72125

>  <i_m_source_file_index>  (1) 
2

>  <i_f3d_flags>  (1) 
0

>  <num_sample>  (1) 
100

>  <b_lp_Chiralities_Consistent>  (1) 
1

>  <r_epik_Charging_Adjusted_Penalty>  (1) 
0.00045066838380530003

>  <r_epik_Ionization_Penalty>  (1) 
0.00045066838380530003

>  <r_epik_Ionization_Penalty_Charging>  (1) 
0.00045066838380530003

>  <r_epik_Ionization_Penalty_Neutral>  (1) 
0

>  <r_epik_State_Penalty>  (1) 
-0

>  <r_glide_ring_energy>  (1) 
0

>  <r_i_docking_score>  (1) 
-4.8861679907239202

>  <r_i_glide_ecoul>  (1) 
-2.9713064795774864

>  <r_i_glide_eff_state_penalty>  (1) 
-0

>  <r_i_glide_einternal>  (1) 
3.8853785437507016

>  <r_i_glide_emodel>  (1) 
-41.593250030434312

>  <r_i_glide_emodel_strain>  (1) 
0.76377582695256052

>  <r_i_glide_energy>  (1) 
-31.462825777553835

>  <r_i_glide_erotb>  (1) 
2.9518461501230213

>  <r_i_glide_esite>  (1) 
-0.10000000000000001

>  <r_i_glide_evdw>  (1) 
-28.49151929797635

>  <r_i_glide_gscore>  (1) 
-4.8861679907239202

>  <r_i_glide_gscore_strain>  (1) 
0

>  <r_i_glide_hbond>  (1) 
-0.13562136540851452

>  <r_i_glide_ligand_efficiency>  (1) 
-0.24430839953619601

>  <r_i_glide_ligand_efficiency_ln>  (1) 
-1.2228466914721325

>  <r_i_glide_ligand_efficiency_sa>  (1) 
-0.66315502358315737

>  <r_i_glide_lipo>  (1) 
-3.4798375272631374

>  <r_i_glide_metal>  (1) 
-0

>  <r_i_glide_rewards>  (1) 
-2.2522833113398484

>  <r_lp_Energy>  (1) 
21.853418999999999

>  <r_lp_tautomer_probability>  (1) 
1

>  <s_epik_cmdline>  (1) 
J2VwaWtfcHl0aG9uJywgJy1waHQnLCAnMS4wJywgJy1waCcsICc3LjQnLCAnLXRuJywgJzgnLCAnLW1hJywgJzUwMCcsICctaW1hZScsICc8aW5maWxlLm1hZT4nLCAnLW9tYWUnLCAnPG91dGZpbGUubWFlPic=

>  <s_epik_input>  (1) 
W0NIMl0xW0NIXT1bQ0hdW0NIXT1DKFtDQF0xMltDSDNdKVtDQEBIXShTW0NIMl0yKVtDSDJdW0NIMl1bQ0gyXVtOSF1bQ0gyXVtDQEBIXShbQ0gzXSlbQ0gyXVtDSDJdW0NIM10=

>  <s_glide_docking_method>  (1) 
confgen

>  <s_i_glide_gridfile>  (1) 
gpcr_5ht2c_6bqh_protein_autoprepared_prepared

>  <s_lp_Force_Field>  (1) 
S-OPLS

>  <s_lp_Variant>  (1) 
DiffSBDD_1-1

>  <s_m_source_file>  (1) 
generated_GPCR_5HT2C_ligand_DiffSBDD_2026-06-23_prepared.sdf

>  <GenAI_Model>  (1) 
DiffSBDD

>  <Protein>  (1) 
GPCR_5HT2C

$$$$
DiffSBDD_36
     RDKit          3D

  0  0  0  0  0  0  0  0  0  0999 V3000
M  V30 BEGIN CTAB
M  V30 COUNTS 49 49 0 0 1
M  V30 BEGIN ATOM
M  V30 1 C 39.596148 29.571179 54.821593 0
M  V30 2 C 38.308434 27.151520 57.452182 0
M  V30 3 C 39.509457 26.990795 55.305267 0
M  V30 4 C 37.766946 29.660365 57.365327 0
M  V30 5 C 39.396843 31.187731 61.986818 0
M  V30 6 C 38.799681 28.550074 57.045024 0 CFG=1
M  V30 7 C 38.971972 26.158528 56.480521 0
M  V30 8 C 40.185853 29.463937 50.181885 0
M  V30 9 C 39.645075 29.781183 53.489584 0
M  V30 10 C 39.026886 28.872746 52.442159 0
M  V30 11 O 38.207252 30.946871 62.167739 0
M  V30 12 C 40.523638 29.307205 58.816890 0
M  V30 13 C 39.522801 29.849394 59.820103 0
M  V30 14 C 40.219547 28.749009 57.625910 0
M  V30 15 C 38.895394 28.391321 55.503383 0 CFG=1
M  V30 16 C 41.242092 30.551950 50.386188 0
M  V30 17 S 40.312930 32.556493 62.567225 0 CHG=-1
M  V30 18 C 40.203583 30.195454 61.154990 0
M  V30 19 C 39.644590 27.071060 50.826365 0
M  V30 20 C 40.035252 28.453559 51.344623 0 CFG=1
M  V30 21 H 40.076642 30.282422 55.477241 0
M  V30 22 H 38.529921 26.915737 58.493707 0
M  V30 23 H 37.225988 27.091228 57.341194 0
M  V30 24 H 40.596977 27.027400 55.350398 0
M  V30 25 H 39.247960 26.530995 54.353637 0
M  V30 26 H 36.912614 29.632483 56.687969 0
M  V30 27 H 37.338206 29.567578 58.360036 0
M  V30 28 H 38.201501 30.654472 57.263518 0
M  V30 29 H 39.787300 25.617864 56.965107 0
M  V30 30 H 38.246294 25.417725 56.141884 0
M  V30 31 H 40.443376 28.937685 49.264521 0
M  V30 32 H 39.245049 29.953006 49.974159 0
M  V30 33 H 40.159257 30.653633 53.119117 0
M  V30 34 H 38.614838 27.991203 52.919943 0
M  V30 35 H 38.155995 29.337747 51.989329 0
M  V30 36 H 41.563777 29.383993 59.097526 0
M  V30 37 H 39.090048 30.763183 59.413148 0
M  V30 38 H 38.718984 29.134279 59.994846 0
M  V30 39 H 41.033070 28.403556 57.006093 0
M  V30 40 H 37.882502 28.352283 55.098401 0
M  V30 41 H 41.315728 31.169849 49.491667 0
M  V30 42 H 40.987524 31.216959 51.208746 0
M  V30 43 H 42.231326 30.137393 50.567812 0
M  V30 44 H 40.355536 29.286147 61.738381 0
M  V30 45 H 41.201053 30.584010 60.944720 0
M  V30 46 H 38.706566 27.090799 50.281201 0
M  V30 47 H 40.417521 26.691926 50.167760 0
M  V30 48 H 39.547299 26.353345 51.639858 0
M  V30 49 H 41.026967 28.325255 51.767779 0
M  V30 END ATOM
M  V30 BEGIN BOND
M  V30 1 1 6 2
M  V30 2 1 6 4 CFG=3
M  V30 3 1 7 2
M  V30 4 1 7 3
M  V30 5 2 9 1
M  V30 6 1 10 9
M  V30 7 2 11 5
M  V30 8 1 13 12
M  V30 9 1 14 6
M  V30 10 2 14 12
M  V30 11 1 15 1
M  V30 12 1 15 3
M  V30 13 1 15 6
M  V30 14 1 16 8
M  V30 15 1 17 5
M  V30 16 1 18 5
M  V30 17 1 18 13
M  V30 18 1 20 8
M  V30 19 1 20 10
M  V30 20 1 20 19
M  V30 21 1 21 1
M  V30 22 1 22 2
M  V30 23 1 23 2
M  V30 24 1 24 3
M  V30 25 1 25 3
M  V30 26 1 26 4
M  V30 27 1 27 4
M  V30 28 1 28 4
M  V30 29 1 29 7
M  V30 30 1 30 7
M  V30 31 1 31 8
M  V30 32 1 32 8
M  V30 33 1 33 9
M  V30 34 1 34 10
M  V30 35 1 35 10
M  V30 36 1 36 12
M  V30 37 1 37 13
M  V30 38 1 38 13
M  V30 39 1 39 14
M  V30 40 1 15 40 CFG=3
M  V30 41 1 41 16
M  V30 42 1 42 16
M  V30 43 1 43 16
M  V30 44 1 44 18
M  V30 45 1 45 18
M  V30 46 1 46 19
M  V30 47 1 47 19
M  V30 48 1 48 19
M  V30 49 1 20 49 CFG=1
M  V30 END BOND
M  V30 END CTAB
M  END
>  <i_epik_Tot_Q>  (1) 
-1

>  <i_epik_Tot_abs_Q>  (1) 
1

>  <i_i_glide_confnum>  (1) 
204

>  <i_i_glide_lignum>  (1) 
83

>  <i_i_glide_posenum>  (1) 
234

>  <i_i_glide_rotatable_bonds>  (1) 
8

>  <i_lp_mmshare_version>  (1) 
72125

>  <i_m_source_file_index>  (1) 
37

>  <i_f3d_flags>  (1) 
0

>  <num_sample>  (1) 
100

>  <b_lp_Chiralities_Consistent>  (1) 
1

>  <r_epik_Charging_Adjusted_Penalty>  (1) 
9.4165288777969193e-05

>  <r_epik_Ionization_Penalty>  (1) 
9.4165288777969193e-05

>  <r_epik_Ionization_Penalty_Charging>  (1) 
9.4165288777969193e-05

>  <r_epik_Ionization_Penalty_Neutral>  (1) 
0

>  <r_epik_State_Penalty>  (1) 
-0

>  <r_glide_ring_energy>  (1) 
0

>  <r_i_docking_score>  (1) 
-4.8783827207368153

>  <r_i_glide_ecoul>  (1) 
-1.5262935194458269

>  <r_i_glide_eff_state_penalty>  (1) 
-0

>  <r_i_glide_einternal>  (1) 
4.2757697535324422

>  <r_i_glide_emodel>  (1) 
-35.303032911413545

>  <r_i_glide_emodel_strain>  (1) 
1.362143481131632

>  <r_i_glide_energy>  (1) 
-28.69100915378689

>  <r_i_glide_erotb>  (1) 
2.5456975872200465

>  <r_i_glide_esite>  (1) 
0

>  <r_i_glide_evdw>  (1) 
-27.164715634341064

>  <r_i_glide_gscore>  (1) 
-4.8783827207368153

>  <r_i_glide_gscore_strain>  (1) 
0

>  <r_i_glide_hbond>  (1) 
-0.10074254192279564

>  <r_i_glide_ligand_efficiency>  (1) 
-0.24391913603684076

>  <r_i_glide_ligand_efficiency_ln>  (1) 
-1.2208982951697498

>  <r_i_glide_ligand_efficiency_sa>  (1) 
-0.66209839988301011

>  <r_i_glide_lipo>  (1) 
-3.2245644643217477

>  <r_i_glide_metal>  (1) 
-0

>  <r_i_glide_rewards>  (1) 
-2.5115934920783909

>  <r_lp_Energy>  (1) 
18.646117

>  <r_lp_tautomer_probability>  (1) 
1

>  <s_epik_cmdline>  (1) 
J2VwaWtfcHl0aG9uJywgJy1waHQnLCAnMS4wJywgJy1waCcsICc3LjQnLCAnLXRuJywgJzgnLCAnLW1hJywgJzUwMCcsICctaW1hZScsICc8aW5maWxlLm1hZT4nLCAnLW9tYWUnLCAnPG91dGZpbGUubWFlPic=

>  <s_epik_input>  (1) 
W0NIM11bQ0gyXVtDQEhdKFtDSDNdKVtDSDJdL1tDSF09W0NIXVxbQ0BIXTFbQ0gyXVtDSDJdW0NIMl1bQ0BAXTEoW0NIM10pL1tDSF09W0NIXVxbQ0gyXVtDSDJdQyg9TylbU0hd

>  <s_glide_docking_method>  (1) 
confgen

>  <s_i_glide_gridfile>  (1) 
gpcr_5ht2c_6bqh_protein_autoprepared_prepared

>  <s_lp_Force_Field>  (1) 
S-OPLS

>  <s_lp_Variant>  (1) 
DiffSBDD_36-4

>  <s_m_source_file>  (1) 
generated_GPCR_5HT2C_ligand_DiffSBDD_2026-06-23_prepared.sdf

>  <GenAI_Model>  (1) 
DiffSBDD

>  <Protein>  (1) 
GPCR_5HT2C

$$$$
DiffSBDD_22
     RDKit          3D

  0  0  0  0  0  0  0  0  0  0999 V3000
M  V30 BEGIN CTAB
M  V30 COUNTS 48 51 0 0 1
M  V30 BEGIN ATOM
M  V30 1 C 39.787234 30.727564 52.559729 0
M  V30 2 C 38.257540 31.592877 60.544304 0
M  V30 3 C 38.762698 27.767700 54.508610 0
M  V30 4 F 39.495050 31.667198 61.060224 0
M  V30 5 N 38.523780 29.010668 53.727309 0 CFG=2 CHG=1
M  V30 6 C 38.369476 28.756605 52.270884 0 CFG=1
M  V30 7 C 39.254737 29.737494 51.555343 0 CFG=2
M  V30 8 O 39.645091 28.634755 56.640908 0
M  V30 9 O 37.245146 26.272425 57.367644 0
M  V30 10 N 40.160924 28.574585 59.041678 0 CHG=1
M  V30 11 O 38.940105 24.290528 57.075893 0
M  V30 12 C 39.584738 26.545006 57.740259 0 CFG=1
M  V30 13 C 38.551963 27.938753 56.023958 0 CFG=2
M  V30 14 C 37.768920 29.518569 59.159960 0
M  V30 15 N 37.271597 31.984121 61.227378 0
M  V30 16 C 39.514132 30.103675 53.932285 0
M  V30 17 C 38.850518 28.588688 59.753987 0
M  V30 18 C 39.603334 28.262306 51.554682 0
M  V30 19 C 39.495749 25.510744 56.644758 0 CFG=2
M  V30 20 C 40.316600 27.858230 57.597494 0 CFG=1
M  V30 21 C 38.089253 31.024560 59.150737 0
M  V30 22 C 38.472066 26.607745 56.742177 0 CFG=2
M  V30 23 H 39.245161 31.669684 52.466732 0
M  V30 24 H 40.841377 30.938188 52.383327 0
M  V30 25 H 39.746664 27.349436 54.300233 0
M  V30 26 H 38.041141 27.029423 54.153433 0
M  V30 27 H 37.368949 28.528162 51.907735 0
M  V30 28 H 38.959728 30.137721 50.585489 0
M  V30 29 H 36.596706 26.094476 56.700296 0
M  V30 30 H 40.478729 29.529956 58.969068 0
M  V30 31 H 38.127438 24.500584 57.518665 0
M  V30 32 H 39.480865 26.114221 58.734119 0
M  V30 33 H 37.640689 28.503072 56.183481 0
M  V30 34 H 36.849392 29.370198 59.728041 0
M  V30 35 H 37.511479 29.207395 58.156580 0
M  V30 36 H 36.395926 31.901911 60.729027 0
M  V30 37 H 39.119239 30.841812 54.631293 0
M  V30 38 H 40.445096 29.737756 54.362003 0
M  V30 39 H 39.054726 28.893166 60.781019 0
M  V30 40 H 38.445140 27.585671 59.851970 0
M  V30 41 H 39.449609 27.714327 50.626289 0
M  V30 42 H 40.445136 27.926292 52.148661 0
M  V30 43 H 40.237570 25.467392 55.849218 0
M  V30 44 H 41.369470 27.737839 57.335522 0
M  V30 45 H 37.635602 29.387763 54.028804 0
M  V30 46 H 37.285830 31.563546 58.644544 0
M  V30 47 H 38.989081 31.217857 58.568788 0
M  V30 48 H 40.795763 28.110311 59.677396 0
M  V30 END ATOM
M  V30 BEGIN BOND
M  V30 1 1 4 2
M  V30 2 1 5 3
M  V30 3 1 6 5
M  V30 4 1 7 1
M  V30 5 1 7 6
M  V30 6 1 13 3
M  V30 7 1 13 8
M  V30 8 2 15 2
M  V30 9 1 16 1
M  V30 10 1 16 5
M  V30 11 1 17 10
M  V30 12 1 17 14
M  V30 13 1 18 6
M  V30 14 1 18 7
M  V30 15 1 19 11
M  V30 16 1 19 12
M  V30 17 1 20 8
M  V30 18 1 20 10
M  V30 19 1 20 12
M  V30 20 1 21 2
M  V30 21 1 21 14
M  V30 22 1 22 9 CFG=1
M  V30 23 1 22 12
M  V30 24 1 22 13
M  V30 25 1 22 19
M  V30 26 1 23 1
M  V30 27 1 24 1
M  V30 28 1 25 3
M  V30 29 1 26 3
M  V30 30 1 6 27 CFG=3
M  V30 31 1 7 28 CFG=3
M  V30 32 1 29 9
M  V30 33 1 30 10
M  V30 34 1 31 11
M  V30 35 1 12 32 CFG=1
M  V30 36 1 13 33 CFG=3
M  V30 37 1 34 14
M  V30 38 1 35 14
M  V30 39 1 36 15
M  V30 40 1 37 16
M  V30 41 1 38 16
M  V30 42 1 39 17
M  V30 43 1 40 17
M  V30 44 1 41 18
M  V30 45 1 42 18
M  V30 46 1 19 43 CFG=3
M  V30 47 1 20 44 CFG=3
M  V30 48 1 5 45 CFG=1
M  V30 49 1 46 21
M  V30 50 1 47 21
M  V30 51 1 48 10
M  V30 END BOND
M  V30 END CTAB
M  END
>  <i_epik_Tot_Q>  (1) 
2

>  <i_epik_Tot_abs_Q>  (1) 
2

>  <i_i_glide_confnum>  (1) 
232

>  <i_i_glide_lignum>  (1) 
55

>  <i_i_glide_posenum>  (1) 
350

>  <i_i_glide_rotatable_bonds>  (1) 
9

>  <i_lp_mmshare_version>  (1) 
72125

>  <i_m_source_file_index>  (1) 
23

>  <i_f3d_flags>  (1) 
0

>  <num_sample>  (1) 
100

>  <b_lp_Chiralities_Consistent>  (1) 
1

>  <r_epik_Charging_Adjusted_Penalty>  (1) 
1.666199543100769

>  <r_epik_Ionization_Penalty>  (1) 
0.63246952638049103

>  <r_epik_Ionization_Penalty_Charging>  (1) 
0.62883544751823761

>  <r_epik_Ionization_Penalty_Neutral>  (1) 
0.0036340788622534364

>  <r_epik_State_Penalty>  (1) 
1.0373640955825314

>  <r_glide_ring_energy>  (1) 
1.6455033096424563

>  <r_i_docking_score>  (1) 
-4.8682717244604046

>  <r_i_glide_ecoul>  (1) 
-2.7781673493152388

>  <r_i_glide_eff_state_penalty>  (1) 
1.0373640955825314

>  <r_i_glide_einternal>  (1) 
8.8441114440429232

>  <r_i_glide_emodel>  (1) 
-41.328102359239892

>  <r_i_glide_emodel_strain>  (1) 
1.1792436510761775

>  <r_i_glide_energy>  (1) 
-30.592439767067372

>  <r_i_glide_erotb>  (1) 
1.309053311580165

>  <r_i_glide_esite>  (1) 
0

>  <r_i_glide_evdw>  (1) 
-27.814272417752132

>  <r_i_glide_gscore>  (1) 
-5.905635820042936

>  <r_i_glide_gscore_strain>  (1) 
0

>  <r_i_glide_hbond>  (1) 
0

>  <r_i_glide_ligand_efficiency>  (1) 
-0.22128507838456385

>  <r_i_glide_ligand_efficiency_ln>  (1) 
-1.1899831839838437

>  <r_i_glide_ligand_efficiency_sa>  (1) 
-0.62004949292070821

>  <r_i_glide_lipo>  (1) 
-2.8892202229096924

>  <r_i_glide_metal>  (1) 
-0

>  <r_i_glide_rewards>  (1) 
-2.5180301854285156

>  <r_lp_Energy>  (1) 
22.761092999999999

>  <r_lp_tautomer_probability>  (1) 
0.49999300000000002

>  <s_epik_Chemistry_Notes>  (1) 
This compound has an imine and may undergo hydrolysis. This compound contains an acetal/aminal-like group ( X-CH(R)-Y where X, Y are N, S, or O) that may be acid/base labile, releasing an aldehyde.

>  <s_epik_cmdline>  (1) 
J2VwaWtfcHl0aG9uJywgJy1waHQnLCAnMS4wJywgJy1waCcsICc3LjQnLCAnLXRuJywgJzgnLCAnLW1hJywgJzUwMCcsICctaW1hZScsICc8aW5maWxlLm1hZT4nLCAnLW9tYWUnLCAnPG91dGZpbGUubWFlPic=

>  <s_epik_input>  (1) 
W0NAQEhdMTJbQ0BIXShbQ0gyXTIpW0NIMl1bQ0gyXU4xW0NIMl1bQ0BASF0zT1tDQEhdKFtDSF0oW0NASF00W09IXSlbQ0BAXTM0W09IXSlbTkhdW0NIMl1bQ0gyXVxbQ0hdPUMoXEYpW05IMl0=

>  <s_glide_docking_method>  (1) 
confgen

>  <s_i_glide_gridfile>  (1) 
gpcr_5ht2c_6bqh_protein_autoprepared_prepared

>  <s_lp_Force_Field>  (1) 
S-OPLS

>  <s_lp_Variant>  (1) 
DiffSBDD_22-3

>  <s_m_source_file>  (1) 
generated_GPCR_5HT2C_ligand_DiffSBDD_2026-06-23_prepared.sdf

>  <GenAI_Model>  (1) 
DiffSBDD

>  <Protein>  (1) 
GPCR_5HT2C

$$$$
DiffSBDD_57
     RDKit          3D

  0  0  0  0  0  0  0  0  0  0999 V3000
M  V30 BEGIN CTAB
M  V30 COUNTS 64 66 0 0 1
M  V30 BEGIN ATOM
M  V30 1 O 40.306525 33.138013 62.662141 0
M  V30 2 C 37.709304 31.737137 60.203511 0
M  V30 3 C 43.368265 31.375178 65.319285 0
M  V30 4 C 39.623874 30.328073 61.001707 0 CFG=2
M  V30 5 C 38.511261 27.055683 56.234081 0
M  V30 6 S 38.445127 31.064612 58.690540 0
M  V30 7 O 37.685191 26.143272 56.332062 0
M  V30 8 C 38.254872 30.935975 61.394464 0
M  V30 9 N 38.559670 30.949976 54.424502 0
M  V30 10 C 41.573769 33.220453 65.044503 0 CFG=2
M  V30 11 N 38.823011 27.879173 57.253973 0
M  V30 12 C 40.965378 32.144561 62.356402 0
M  V30 13 O 42.251665 34.100795 65.957983 0
M  V30 14 C 40.701677 31.465297 60.998614 0
M  V30 15 C 38.506171 28.500525 59.566966 0
M  V30 16 C 38.383402 28.981086 53.060081 0 CFG=2
M  V30 17 O 40.992251 35.394935 64.427322 0
M  V30 18 C 38.280994 27.687639 58.515261 0
M  V30 19 C 39.314529 30.100621 53.511101 0 CFG=1
M  V30 20 C 39.370490 29.764406 59.553007 0 CFG=2
M  V30 21 C 40.059037 29.215448 61.999450 0
M  V30 22 C 38.334761 27.634121 53.763631 0 CFG=2
M  V30 23 C 42.314433 32.028885 64.486921 0
M  V30 24 C 39.248244 27.273126 54.927986 0 CFG=2
M  V30 25 C 38.909311 27.743654 52.371477 0
M  V30 26 N 42.096171 34.479743 64.534812 0
M  V30 27 N 43.650147 31.863362 66.578868 0
M  V30 28 C 39.935302 30.924272 52.364162 0
M  V30 29 O 40.340120 30.146709 51.253390 0
M  V30 30 O 39.527411 31.623161 55.261058 0
M  V30 31 C 44.060259 30.304959 64.864825 0
M  V30 32 C 42.021337 31.539260 63.234344 0
M  V30 33 Cl 40.045137 25.737757 54.567765 0
M  V30 34 H 36.621095 31.694523 60.151367 0
M  V30 35 H 37.992792 32.786878 60.287109 0
M  V30 36 H 37.557934 30.137801 61.611384 0
M  V30 37 H 38.281673 31.535976 62.303296 0
M  V30 38 H 38.014375 30.435284 55.105700 0
M  V30 39 H 40.510106 33.083135 65.234806 0
M  V30 40 H 39.481476 28.633793 57.126308 0
M  V30 41 H 40.385757 32.264087 60.328365 0
M  V30 42 H 41.645086 31.100528 60.599962 0
M  V30 43 H 38.045139 28.257232 60.497782 0
M  V30 44 H 37.435105 29.337748 52.675617 0
M  V30 45 H 40.512804 35.017941 63.701459 0
M  V30 46 H 37.651914 26.811749 58.577937 0
M  V30 47 H 40.151095 29.683969 54.054931 0
M  V30 48 H 40.305423 29.557344 59.031278 0
M  V30 49 H 39.345632 28.400286 62.098040 0
M  V30 50 H 41.010809 28.773132 61.704581 0
M  V30 51 H 40.167008 29.593145 63.015271 0
M  V30 52 H 37.357681 27.154664 53.808288 0
M  V30 53 H 40.045157 27.990301 55.078255 0
M  V30 54 H 39.986653 27.636771 52.260813 0
M  V30 55 H 38.319211 27.332608 51.554429 0
M  V30 56 H 43.227984 32.719876 66.917238 0
M  V30 57 H 39.289646 31.737778 52.038611 0
M  V30 58 H 40.845116 31.364513 52.753087 0
M  V30 59 H 39.569259 29.807619 50.823238 0
M  V30 60 H 39.260650 32.528558 55.180657 0
M  V30 61 H 44.819547 29.844413 65.480959 0
M  V30 62 H 43.891926 29.875595 63.897301 0
M  V30 63 H 42.542147 30.693273 62.841452 0
M  V30 64 H 44.410307 31.494795 67.132202 0
M  V30 END ATOM
M  V30 BEGIN BOND
M  V30 1 1 6 2
M  V30 2 2 7 5
M  V30 3 1 8 2
M  V30 4 1 8 4
M  V30 5 1 11 5
M  V30 6 2 12 1
M  V30 7 1 13 10
M  V30 8 1 4 14 CFG=3
M  V30 9 1 14 12
M  V30 10 1 18 11
M  V30 11 2 18 15
M  V30 12 1 19 9
M  V30 13 1 19 16
M  V30 14 1 20 4
M  V30 15 1 20 6
M  V30 16 1 20 15
M  V30 17 1 21 4
M  V30 18 1 22 16
M  V30 19 1 23 3
M  V30 20 1 23 10
M  V30 21 1 24 5
M  V30 22 1 24 22
M  V30 23 1 25 16
M  V30 24 1 25 22
M  V30 25 1 26 10
M  V30 26 1 26 13
M  V30 27 1 26 17
M  V30 28 1 27 3
M  V30 29 1 28 19
M  V30 30 1 29 28
M  V30 31 1 30 9
M  V30 32 2 31 3
M  V30 33 1 32 12
M  V30 34 2 32 23
M  V30 35 1 33 24
M  V30 36 1 34 2
M  V30 37 1 35 2
M  V30 38 1 36 8
M  V30 39 1 37 8
M  V30 40 1 38 9
M  V30 41 1 10 39 CFG=1
M  V30 42 1 40 11
M  V30 43 1 41 14
M  V30 44 1 42 14
M  V30 45 1 43 15
M  V30 46 1 16 44 CFG=3
M  V30 47 1 45 17
M  V30 48 1 46 18
M  V30 49 1 19 47 CFG=1
M  V30 50 1 20 48 CFG=3
M  V30 51 1 49 21
M  V30 52 1 50 21
M  V30 53 1 51 21
M  V30 54 1 22 52 CFG=3
M  V30 55 1 24 53 CFG=1
M  V30 56 1 54 25
M  V30 57 1 55 25
M  V30 58 1 56 27
M  V30 59 1 57 28
M  V30 60 1 58 28
M  V30 61 1 59 29
M  V30 62 1 60 30
M  V30 63 1 61 31
M  V30 64 1 62 31
M  V30 65 1 63 32
M  V30 66 1 64 27
M  V30 END BOND
M  V30 END CTAB
M  END
>  <i_epik_Tot_Q>  (1) 
0

>  <i_epik_Tot_abs_Q>  (1) 
0

>  <i_i_glide_confnum>  (1) 
1771

>  <i_i_glide_lignum>  (1) 
125

>  <i_i_glide_posenum>  (1) 
305

>  <i_i_glide_rotatable_bonds>  (1) 
16

>  <i_lp_mmshare_version>  (1) 
72125

>  <i_m_source_file_index>  (1) 
58

>  <i_f3d_flags>  (1) 
0

>  <num_sample>  (1) 
100

>  <b_lp_Chiralities_Consistent>  (1) 
1

>  <r_epik_Charging_Adjusted_Penalty>  (1) 
0.024416195549470061

>  <r_epik_Ionization_Penalty>  (1) 
0.014246986074461085

>  <r_epik_Ionization_Penalty_Charging>  (1) 
6.6592516266621022e-05

>  <r_epik_Ionization_Penalty_Neutral>  (1) 
0.014180393558194464

>  <r_epik_State_Penalty>  (1) 
0.024349603033203441

>  <r_glide_ring_energy>  (1) 
0.20506540225093017

>  <r_i_docking_score>  (1) 
-4.8664689554124489

>  <r_i_glide_ecoul>  (1) 
2.9854508781795301

>  <r_i_glide_eff_state_penalty>  (1) 
0.024349603033203441

>  <r_i_glide_einternal>  (1) 
19.352259340673513

>  <r_i_glide_emodel>  (1) 
-40.118966501207332

>  <r_i_glide_emodel_strain>  (1) 
3.3090567571319554

>  <r_i_glide_energy>  (1) 
-38.735669770283799

>  <r_i_glide_erotb>  (1) 
1.0500022235395752

>  <r_i_glide_esite>  (1) 
0

>  <r_i_glide_evdw>  (1) 
-41.721120648463327

>  <r_i_glide_gscore>  (1) 
-4.8908185584456527

>  <r_i_glide_gscore_strain>  (1) 
0

>  <r_i_glide_hbond>  (1) 
0

>  <r_i_glide_ligand_efficiency>  (1) 
-0.14746875622461966

>  <r_i_glide_ligand_efficiency_ln>  (1) 
-1.0822774984560042

>  <r_i_glide_ligand_efficiency_sa>  (1) 
-0.47301109819225334

>  <r_i_glide_lipo>  (1) 
-2.9565572892217804

>  <r_i_glide_metal>  (1) 
-0

>  <r_i_glide_rewards>  (1) 
-1.3460250920672108

>  <r_lp_Energy>  (1) 
21.778162999999999

>  <s_epik_Chemistry_Notes>  (1) 
This compound has an imine and may undergo hydrolysis. This compound contains an acetal/aminal-like group ( X-CH(R)-Y where X, Y are N, S, or O) that may be acid/base labile, releasing an aldehyde. This compound has a N-S or N-O group and may undergo hydrolysis at high or low pH.

>  <s_epik_cmdline>  (1) 
J2VwaWtfcHl0aG9uJywgJy1waHQnLCAnMS4wJywgJy1waCcsICc3LjQnLCAnLXRuJywgJzgnLCAnLW1hJywgJzUwMCcsICctaW1hZScsICc8aW5maWxlLm1hZT4nLCAnLW9tYWUnLCAnPG91dGZpbGUubWFlPic=

>  <s_epik_input>  (1) 
W09IXU4xT1tDQEBIXTFDKC9DKD1OL1tIXSlbQ0gzXSk9W0NIXVxDKD1PKVtDSDJdW0NAQF0yKFtDSDNdKVtDSDJdW0NIMl1TW0NAQEhdMi9bQ0hdPVtDSF1cW05IXUMoPU8pW0NAQEhdKENsKVtDQEhdKFtDSDJdMylbQ0BIXTNbQ0BIXShbTkhdW09IXSlbQ0gyXVtPSF0=

>  <s_glide_docking_method>  (1) 
confgen

>  <s_i_glide_gridfile>  (1) 
gpcr_5ht2c_6bqh_protein_autoprepared_prepared

>  <s_lp_Force_Field>  (1) 
S-OPLS

>  <s_lp_Variant>  (1) 
DiffSBDD_57-1

>  <s_m_source_file>  (1) 
generated_GPCR_5HT2C_ligand_DiffSBDD_2026-06-23_prepared.sdf

>  <GenAI_Model>  (1) 
DiffSBDD

>  <Protein>  (1) 
GPCR_5HT2C

$$$$
DiffSBDD_18
     RDKit          3D

  0  0  0  0  0  0  0  0  0  0999 V3000
M  V30 BEGIN CTAB
M  V30 COUNTS 77 79 0 0 1
M  V30 BEGIN ATOM
M  V30 1 C 38.007342 37.337785 62.417058 0
M  V30 2 C 39.161721 28.741533 57.454129 0 CFG=2
M  V30 3 C 41.323151 34.988621 66.622595 0
M  V30 4 C 41.645377 33.945742 65.745370 0
M  V30 5 C 40.136365 36.137749 64.830371 0
M  V30 6 O 40.445111 25.811715 54.159843 0
M  V30 7 C 38.807354 32.615430 62.340867 0
M  V30 8 C 37.245140 30.036496 54.675751 0
M  V30 9 C 37.559273 33.329092 58.214932 0
M  V30 10 C 42.409977 31.550166 65.795355 0
M  V30 11 C 39.499211 25.935212 54.967749 0
M  V30 12 C 40.573699 36.084930 66.167964 0
M  V30 13 C 39.480273 33.500813 60.069149 0
M  V30 14 C 37.753785 30.062903 55.884579 0
M  V30 15 C 37.527811 28.911866 53.683021 0
M  V30 16 C 39.062629 31.113848 62.108157 0
M  V30 17 C 38.152090 35.937621 61.837654 0
M  V30 18 C 38.429055 32.104901 58.183556 0 CFG=2
M  V30 19 C 39.884798 28.067638 56.260182 0
M  V30 20 C 38.479133 27.727734 58.388159 0
M  V30 21 C 38.843252 28.145278 53.878934 0
M  V30 22 C 41.436158 31.122331 64.735306 0
M  V30 23 C 38.232576 29.905503 57.098036 0
M  V30 24 C 41.092750 36.041767 61.185377 0
M  V30 25 C 38.978289 27.353228 55.214353 0 CFG=1
M  V30 26 N 43.234983 30.623515 66.314153 0 CHG=1
M  V30 27 C 41.225499 33.991387 64.392819 0
M  V30 28 P 39.826891 35.127627 62.170744 0 CFG=1 CHG=1
M  V30 29 N 37.928089 30.747365 58.147051 0
M  V30 30 O 38.943763 25.007164 55.596683 0 CHG=-1
M  V30 31 C 38.236601 32.846165 59.482622 0 CFG=2
M  V30 32 C 40.445146 35.086376 63.930025 0
M  V30 33 N 39.685859 33.500336 61.538270 0 CFG=1 CHG=1
M  V30 34 N 42.468294 32.836893 66.276845 0
M  V30 35 H 37.199760 37.872663 61.916015 0
M  V30 36 H 37.746271 37.313352 63.474107 0
M  V30 37 H 38.922424 37.914841 62.277773 0
M  V30 38 H 39.961224 29.192325 58.044942 0
M  V30 39 H 41.645140 34.944960 67.649750 0
M  V30 40 H 39.560027 36.982616 64.497288 0
M  V30 41 H 39.041021 32.813246 63.372813 0
M  V30 42 H 37.754101 32.874959 62.231210 0
M  V30 43 H 36.546282 30.795240 54.355947 0
M  V30 44 H 37.949691 34.212730 57.719566 0
M  V30 45 H 36.478497 33.221564 58.168125 0
M  V30 46 H 40.328550 36.888990 66.847151 0
M  V30 47 H 40.345775 32.937734 59.767746 0
M  V30 48 H 39.586778 34.480216 59.617739 0
M  V30 49 H 36.691821 28.212251 53.680125 0
M  V30 50 H 37.572202 29.337761 52.683494 0
M  V30 51 H 38.531980 30.520230 62.853577 0
M  V30 52 H 38.723355 30.767302 61.133229 0
M  V30 53 H 40.120256 30.865098 62.187937 0
M  V30 54 H 38.030611 36.017627 60.756946 0
M  V30 55 H 37.325917 35.311675 62.167750 0
M  V30 56 H 39.362576 32.204263 57.635098 0
M  V30 57 H 40.509991 28.812602 55.768195 0
M  V30 58 H 40.606703 27.364087 56.681102 0
M  V30 59 H 38.133111 28.203109 59.305893 0
M  V30 60 H 37.617112 27.261652 57.910551 0
M  V30 61 H 39.168281 26.931795 58.672061 0
M  V30 62 H 39.645130 28.865191 53.760571 0
M  V30 63 H 38.938100 27.476676 53.021609 0
M  V30 64 H 41.866210 31.219140 63.738557 0
M  V30 65 H 41.224458 30.058993 64.858407 0
M  V30 66 H 40.465584 31.607549 64.833602 0
M  V30 67 H 41.246538 37.041415 61.581361 0
M  V30 68 H 42.045139 35.519599 61.170907 0
M  V30 69 H 40.750846 36.137753 60.167759 0
M  V30 70 H 37.979188 27.211336 55.628102 0
M  V30 71 H 43.196579 29.668272 65.981242 0
M  V30 72 H 41.494393 33.218475 63.708272 0
M  V30 73 H 38.103419 30.293929 59.029389 0
M  V30 74 H 37.516347 32.423289 60.173852 0
M  V30 75 H 42.984271 32.968649 67.135316 0
M  V30 76 H 43.895890 30.873962 67.036515 0
M  V30 77 H 40.610490 33.115134 61.658083 0
M  V30 END ATOM
M  V30 BEGIN BOND
M  V30 1 1 4 3
M  V30 2 2 11 6
M  V30 3 2 12 3
M  V30 4 1 12 5
M  V30 5 2 14 8
M  V30 6 1 15 8
M  V30 7 1 16 7
M  V30 8 1 17 1
M  V30 9 1 18 9
M  V30 10 1 19 2
M  V30 11 1 20 2
M  V30 12 1 21 15
M  V30 13 1 22 10
M  V30 14 1 23 2
M  V30 15 2 23 14
M  V30 16 1 25 11
M  V30 17 1 25 19
M  V30 18 1 25 21
M  V30 19 2 26 10
M  V30 20 2 27 4
M  V30 21 1 28 17 CFG=1
M  V30 22 1 28 24
M  V30 23 1 29 18
M  V30 24 1 29 23
M  V30 25 1 30 11
M  V30 26 1 31 9
M  V30 27 1 31 13
M  V30 28 1 31 18
M  V30 29 2 32 5
M  V30 30 1 32 27
M  V30 31 1 32 28
M  V30 32 1 33 7
M  V30 33 1 33 13
M  V30 34 1 33 28
M  V30 35 1 34 4
M  V30 36 1 34 10
M  V30 37 1 35 1
M  V30 38 1 36 1
M  V30 39 1 37 1
M  V30 40 1 2 38 CFG=1
M  V30 41 1 39 3
M  V30 42 1 40 5
M  V30 43 1 41 7
M  V30 44 1 42 7
M  V30 45 1 43 8
M  V30 46 1 44 9
M  V30 47 1 45 9
M  V30 48 1 46 12
M  V30 49 1 47 13
M  V30 50 1 48 13
M  V30 51 1 49 15
M  V30 52 1 50 15
M  V30 53 1 51 16
M  V30 54 1 52 16
M  V30 55 1 53 16
M  V30 56 1 54 17
M  V30 57 1 55 17
M  V30 58 1 18 56 CFG=3
M  V30 59 1 57 19
M  V30 60 1 58 19
M  V30 61 1 59 20
M  V30 62 1 60 20
M  V30 63 1 61 20
M  V30 64 1 62 21
M  V30 65 1 63 21
M  V30 66 1 64 22
M  V30 67 1 65 22
M  V30 68 1 66 22
M  V30 69 1 67 24
M  V30 70 1 68 24
M  V30 71 1 69 24
M  V30 72 1 25 70 CFG=1
M  V30 73 1 71 26
M  V30 74 1 72 27
M  V30 75 1 73 29
M  V30 76 1 31 74 CFG=1
M  V30 77 1 75 34
M  V30 78 1 76 26
M  V30 79 1 33 77 CFG=3
M  V30 END BOND
M  V30 END CTAB
M  END
>  <i_epik_Tot_Q>  (1) 
2

>  <i_epik_Tot_abs_Q>  (1) 
4

>  <i_i_glide_confnum>  (1) 
843

>  <i_i_glide_lignum>  (1) 
44

>  <i_i_glide_posenum>  (1) 
221

>  <i_i_glide_rotatable_bonds>  (1) 
11

>  <i_lp_mmshare_version>  (1) 
72125

>  <i_m_source_file_index>  (1) 
19

>  <i_f3d_flags>  (1) 
0

>  <num_sample>  (1) 
100

>  <b_lp_Chiralities_Consistent>  (1) 
1

>  <r_epik_Charging_Adjusted_Penalty>  (1) 
0.035732071636325656

>  <r_epik_Ionization_Penalty>  (1) 
0.019213783482484162

>  <r_epik_Ionization_Penalty_Charging>  (1) 
0.019186760244236628

>  <r_epik_Ionization_Penalty_Neutral>  (1) 
2.7023238247534635e-05

>  <r_epik_State_Penalty>  (1) 
0.016545311392089028

>  <r_glide_ring_energy>  (1) 
0

>  <r_i_docking_score>  (1) 
-4.8415334132610122

>  <r_i_glide_ecoul>  (1) 
0.91206213064848207

>  <r_i_glide_eff_state_penalty>  (1) 
0.016545311392089028

>  <r_i_glide_einternal>  (1) 
4.2265699965991317

>  <r_i_glide_emodel>  (1) 
-44.081589704910215

>  <r_i_glide_emodel_strain>  (1) 
1.1342496804090558

>  <r_i_glide_energy>  (1) 
-29.945365590668619

>  <r_i_glide_erotb>  (1) 
0.68654883804919686

>  <r_i_glide_esite>  (1) 
-0.080448117039092534

>  <r_i_glide_evdw>  (1) 
-30.857427721317102

>  <r_i_glide_gscore>  (1) 
-4.858078724653101

>  <r_i_glide_gscore_strain>  (1) 
0

>  <r_i_glide_hbond>  (1) 
0

>  <r_i_glide_ligand_efficiency>  (1) 
-0.14239804156650035

>  <r_i_glide_ligand_efficiency_ln>  (1) 
-1.0696305314017331

>  <r_i_glide_ligand_efficiency_sa>  (1) 
-0.46131437593763625

>  <r_i_glide_lipo>  (1) 
-2.8492845445538473

>  <r_i_glide_metal>  (1) 
-0

>  <r_i_glide_rewards>  (1) 
-1.2088328346407751

>  <r_lp_Energy>  (1) 
34.808309999999999

>  <s_epik_Chemistry_Notes>  (1) 
This compound has an imine and may undergo hydrolysis.

>  <s_epik_cmdline>  (1) 
J2VwaWtfcHl0aG9uJywgJy1waHQnLCAnMS4wJywgJy1waCcsICc3LjQnLCAnLXRuJywgJzgnLCAnLW1hJywgJzUwMCcsICctaW1hZScsICc8aW5maWxlLm1hZT4nLCAnLW9tYWUnLCAnPG91dGZpbGUubWFlPic=

>  <s_epik_input>  (1) 
W0hdL049QyhcW0NIM10pW05IXWMxW2NIXVtjSF1bY0hdYyhbY0hdMSlbUEBAK10oW0NIM10pKFtDSDJdW0NIM10pTihbQ0gyXVtDSDNdKVtDSDJdW0NASF0yW0NIMl1bQ0BASF0yW05IXUMzPUM9W0NIXVtDSDJdW0NIMl1bQ0BASF0oQyg9TylbT0hdKVtDSDJdW0NAQEhdM1tDSDNd

>  <s_glide_docking_method>  (1) 
confgen

>  <s_i_glide_gridfile>  (1) 
gpcr_5ht2c_6bqh_protein_autoprepared_prepared

>  <s_lp_Force_Field>  (1) 
S-OPLS

>  <s_lp_Variant>  (1) 
DiffSBDD_18-3

>  <s_m_source_file>  (1) 
generated_GPCR_5HT2C_ligand_DiffSBDD_2026-06-23_prepared.sdf

>  <GenAI_Model>  (1) 
DiffSBDD

>  <Protein>  (1) 
GPCR_5HT2C

$$$$
DiffSBDD_36
     RDKit          3D

  0  0  0  0  0  0  0  0  0  0999 V3000
M  V30 BEGIN CTAB
M  V30 COUNTS 49 49 0 0 1
M  V30 BEGIN ATOM
M  V30 1 C 39.343650 28.355765 54.976275 0
M  V30 2 C 39.021677 26.166893 58.042386 0
M  V30 3 C 40.693756 27.613068 56.983116 0
M  V30 4 C 37.290353 26.128974 56.203087 0
M  V30 5 C 38.485583 30.958134 61.036301 0
M  V30 6 C 38.354338 26.986989 56.919193 0 CFG=1
M  V30 7 C 40.449684 26.710630 58.186999 0
M  V30 8 C 39.976788 30.439937 50.776025 0
M  V30 9 C 39.015563 28.116064 53.701398 0
M  V30 10 C 38.807630 29.199504 52.669852 0
M  V30 11 O 37.645137 31.337746 61.845063 0
M  V30 12 C 37.756194 28.797035 58.626356 0
M  V30 13 C 37.132294 30.114186 59.035139 0
M  V30 14 C 37.730943 28.318222 57.369260 0
M  V30 15 C 39.564478 27.270038 56.008077 0 CFG=1
M  V30 16 C 41.223523 30.517043 49.891010 0
M  V30 17 S 40.043992 30.240512 61.367758 0 CHG=-1
M  V30 18 C 38.164894 31.128390 59.556169 0
M  V30 19 C 39.657556 27.905762 50.681789 0
M  V30 20 C 39.884524 29.130872 51.577339 0 CFG=1
M  V30 21 H 39.466370 29.375651 55.313256 0
M  V30 22 H 38.457788 26.152107 58.971695 0
M  V30 23 H 39.097847 25.122407 57.735268 0
M  V30 24 H 40.623140 28.655490 57.297966 0
M  V30 25 H 41.688099 27.466809 56.567762 0
M  V30 26 H 37.704869 25.181297 55.857360 0
M  V30 27 H 36.458316 25.897242 56.868772 0
M  V30 28 H 36.885930 26.629407 55.323892 0
M  V30 29 H 40.578751 27.274464 59.112378 0
M  V30 30 H 41.165262 25.889990 58.167756 0
M  V30 31 H 39.085337 30.574701 50.167747 0
M  V30 32 H 40.004506 31.286759 51.463820 0
M  V30 33 H 38.889273 27.096821 53.366463 0
M  V30 34 H 37.810342 29.091408 52.243591 0
M  V30 35 H 38.838019 30.167779 53.170932 0
M  V30 36 H 38.240813 28.236644 59.409093 0
M  V30 37 H 36.628762 30.537750 58.167765 0
M  V30 38 H 36.355045 29.933210 59.777253 0
M  V30 39 H 37.245135 28.898703 56.600287 0
M  V30 40 H 39.835456 26.349585 55.487038 0
M  V30 41 H 41.245124 31.463639 49.367751 0
M  V30 42 H 42.135153 30.446993 50.484681 0
M  V30 43 H 41.239330 29.737755 49.130539 0
M  V30 44 H 39.051027 31.123187 58.919714 0
M  V30 45 H 37.742071 32.127713 59.444465 0
M  V30 46 H 38.705424 27.989299 50.167746 0
M  V30 47 H 40.445128 27.805991 49.943076 0
M  V30 48 H 39.645131 26.974265 51.245494 0
M  V30 49 H 40.845138 29.013920 52.068952 0
M  V30 END ATOM
M  V30 BEGIN BOND
M  V30 1 1 6 2
M  V30 2 1 6 4 CFG=3
M  V30 3 1 7 2
M  V30 4 1 7 3
M  V30 5 2 9 1
M  V30 6 1 10 9
M  V30 7 2 11 5
M  V30 8 1 13 12
M  V30 9 1 14 6
M  V30 10 2 14 12
M  V30 11 1 15 1
M  V30 12 1 15 3
M  V30 13 1 15 6
M  V30 14 1 16 8
M  V30 15 1 17 5
M  V30 16 1 18 5
M  V30 17 1 18 13
M  V30 18 1 20 8
M  V30 19 1 20 10
M  V30 20 1 20 19
M  V30 21 1 21 1
M  V30 22 1 22 2
M  V30 23 1 23 2
M  V30 24 1 24 3
M  V30 25 1 25 3
M  V30 26 1 26 4
M  V30 27 1 27 4
M  V30 28 1 28 4
M  V30 29 1 29 7
M  V30 30 1 30 7
M  V30 31 1 31 8
M  V30 32 1 32 8
M  V30 33 1 33 9
M  V30 34 1 34 10
M  V30 35 1 35 10
M  V30 36 1 36 12
M  V30 37 1 37 13
M  V30 38 1 38 13
M  V30 39 1 39 14
M  V30 40 1 15 40 CFG=3
M  V30 41 1 41 16
M  V30 42 1 42 16
M  V30 43 1 43 16
M  V30 44 1 44 18
M  V30 45 1 45 18
M  V30 46 1 46 19
M  V30 47 1 47 19
M  V30 48 1 48 19
M  V30 49 1 20 49 CFG=1
M  V30 END BOND
M  V30 END CTAB
M  END
>  <i_epik_Tot_Q>  (1) 
-1

>  <i_epik_Tot_abs_Q>  (1) 
1

>  <i_i_glide_confnum>  (1) 
300

>  <i_i_glide_lignum>  (1) 
80

>  <i_i_glide_posenum>  (1) 
347

>  <i_i_glide_rotatable_bonds>  (1) 
8

>  <i_lp_mmshare_version>  (1) 
72125

>  <i_m_source_file_index>  (1) 
37

>  <i_f3d_flags>  (1) 
0

>  <num_sample>  (1) 
100

>  <b_lp_Chiralities_Consistent>  (1) 
1

>  <r_epik_Charging_Adjusted_Penalty>  (1) 
9.4165288777969193e-05

>  <r_epik_Ionization_Penalty>  (1) 
9.4165288777969193e-05

>  <r_epik_Ionization_Penalty_Charging>  (1) 
9.4165288777969193e-05

>  <r_epik_Ionization_Penalty_Neutral>  (1) 
0

>  <r_epik_State_Penalty>  (1) 
-0

>  <r_glide_ring_energy>  (1) 
0

>  <r_i_docking_score>  (1) 
-4.8377240286763454

>  <r_i_glide_ecoul>  (1) 
-2.848471501149116

>  <r_i_glide_eff_state_penalty>  (1) 
-0

>  <r_i_glide_einternal>  (1) 
3.1260406013157098

>  <r_i_glide_emodel>  (1) 
-36.112259482689353

>  <r_i_glide_emodel_strain>  (1) 
0.17132407858483845

>  <r_i_glide_energy>  (1) 
-29.910653914564325

>  <r_i_glide_erotb>  (1) 
2.5456975872200465

>  <r_i_glide_esite>  (1) 
0

>  <r_i_glide_evdw>  (1) 
-27.062182413415208

>  <r_i_glide_gscore>  (1) 
-4.8377240286763454

>  <r_i_glide_gscore_strain>  (1) 
0

>  <r_i_glide_hbond>  (1) 
-0.30453031463879582

>  <r_i_glide_ligand_efficiency>  (1) 
-0.24188620143381728

>  <r_i_glide_ligand_efficiency_ln>  (1) 
-1.2107227655604282

>  <r_i_glide_ligand_efficiency_sa>  (1) 
-0.65658016638317784

>  <r_i_glide_lipo>  (1) 
-3.1896852652087047

>  <r_i_glide_metal>  (1) 
-0

>  <r_i_glide_rewards>  (1) 
-2.1088261902057637

>  <r_lp_Energy>  (1) 
14.488792999999999

>  <r_lp_tautomer_probability>  (1) 
1

>  <s_epik_cmdline>  (1) 
J2VwaWtfcHl0aG9uJywgJy1waHQnLCAnMS4wJywgJy1waCcsICc3LjQnLCAnLXRuJywgJzgnLCAnLW1hJywgJzUwMCcsICctaW1hZScsICc8aW5maWxlLm1hZT4nLCAnLW9tYWUnLCAnPG91dGZpbGUubWFlPic=

>  <s_epik_input>  (1) 
W0NIM11bQ0gyXVtDQEhdKFtDSDNdKVtDSDJdXFtDSF09W0NIXVxbQ0BIXTFbQ0gyXVtDSDJdW0NIMl1bQ0BAXTEoW0NIM10pXFtDSF09W0NIXVxbQ0gyXVtDSDJdQyg9TylbU0hd

>  <s_glide_docking_method>  (1) 
confgen

>  <s_i_glide_gridfile>  (1) 
gpcr_5ht2c_6bqh_protein_autoprepared_prepared

>  <s_lp_Force_Field>  (1) 
S-OPLS

>  <s_lp_Variant>  (1) 
DiffSBDD_36-1

>  <s_m_source_file>  (1) 
generated_GPCR_5HT2C_ligand_DiffSBDD_2026-06-23_prepared.sdf

>  <GenAI_Model>  (1) 
DiffSBDD

>  <Protein>  (1) 
GPCR_5HT2C

$$$$
DiffSBDD_22
     RDKit          3D

  0  0  0  0  0  0  0  0  0  0999 V3000
M  V30 BEGIN CTAB
M  V30 COUNTS 47 50 0 0 1
M  V30 BEGIN ATOM
M  V30 1 C 39.805662 30.820623 52.280961 0
M  V30 2 C 35.729225 32.937912 60.202719 0
M  V30 3 C 38.717472 27.548633 53.622972 0
M  V30 4 F 35.993061 33.386549 61.439545 0
M  V30 5 N 38.547371 28.822940 52.878709 0 CFG=2 CHG=1
M  V30 6 C 38.838416 28.724768 51.429725 0 CFG=1
M  V30 7 C 39.649018 29.938344 51.073479 0 CFG=2
M  V30 8 O 38.364391 28.602035 55.784105 0
M  V30 9 O 37.039002 25.330599 55.700079 0
M  V30 10 N 37.474990 28.937697 57.930654 0
M  V30 11 O 39.244995 24.537747 56.967738 0
M  V30 12 C 38.317084 26.745542 57.153287 0 CFG=1
M  V30 13 C 37.909240 27.546220 54.928383 0 CFG=2
M  V30 14 C 36.798210 30.870835 59.221231 0
M  V30 15 N 34.546953 32.970925 59.767749 0
M  V30 16 C 39.249627 30.005094 53.449593 0
M  V30 17 C 37.772758 30.339061 58.163518 0
M  V30 18 C 40.278216 28.564683 51.019692 0
M  V30 19 C 39.329347 25.856262 56.485604 0 CFG=2
M  V30 20 C 38.444973 28.242680 57.135022 0 CFG=1
M  V30 21 C 36.869973 32.399476 59.367891 0
M  V30 22 C 38.083284 26.289402 55.748755 0 CFG=2
M  V30 23 H 39.245154 31.742142 52.149395 0
M  V30 24 H 40.845128 31.100562 52.425543 0
M  V30 25 H 39.767714 27.337792 53.814595 0
M  V30 26 H 38.353698 26.732066 52.996963 0
M  V30 27 H 38.045148 28.353581 50.791170 0
M  V30 28 H 39.469161 30.434608 50.121558 0
M  V30 29 H 37.056456 24.900189 54.857425 0
M  V30 30 H 36.540166 28.855018 57.555123 0
M  V30 31 H 38.325536 24.305084 56.952385 0
M  V30 32 H 37.722670 26.319909 57.961545 0
M  V30 33 H 36.855164 27.683322 54.684809 0
M  V30 34 H 36.996710 30.395984 60.183101 0
M  V30 35 H 35.781808 30.579575 58.949290 0
M  V30 36 H 34.495974 32.608206 58.821971 0
M  V30 37 H 38.558184 30.599441 54.048703 0
M  V30 38 H 40.059041 29.703161 54.110868 0
M  V30 39 H 37.653959 30.886157 57.226525 0
M  V30 40 H 38.803587 30.467779 58.496121 0
M  V30 41 H 40.445133 28.133441 50.037448 0
M  V30 42 H 41.023731 28.320153 51.767758 0
M  V30 43 H 40.318671 26.228073 56.224730 0
M  V30 44 H 39.441966 28.513688 57.486233 0
M  V30 45 H 37.564010 29.046629 52.928844 0
M  V30 46 H 36.845190 32.881030 58.389043 0
M  V30 47 H 37.815773 32.688364 59.825914 0
M  V30 END ATOM
M  V30 BEGIN BOND
M  V30 1 1 4 2
M  V30 2 1 5 3
M  V30 3 1 6 5
M  V30 4 1 7 1
M  V30 5 1 7 6
M  V30 6 1 13 3
M  V30 7 1 13 8
M  V30 8 2 15 2
M  V30 9 1 16 1
M  V30 10 1 16 5
M  V30 11 1 17 10
M  V30 12 1 17 14
M  V30 13 1 18 6
M  V30 14 1 18 7
M  V30 15 1 19 11
M  V30 16 1 19 12
M  V30 17 1 20 8
M  V30 18 1 20 10
M  V30 19 1 20 12
M  V30 20 1 21 2
M  V30 21 1 21 14
M  V30 22 1 22 9 CFG=1
M  V30 23 1 22 12
M  V30 24 1 22 13
M  V30 25 1 22 19
M  V30 26 1 23 1
M  V30 27 1 24 1
M  V30 28 1 25 3
M  V30 29 1 26 3
M  V30 30 1 6 27 CFG=3
M  V30 31 1 7 28 CFG=3
M  V30 32 1 29 9
M  V30 33 1 30 10
M  V30 34 1 31 11
M  V30 35 1 12 32 CFG=1
M  V30 36 1 13 33 CFG=3
M  V30 37 1 34 14
M  V30 38 1 35 14
M  V30 39 1 36 15
M  V30 40 1 37 16
M  V30 41 1 38 16
M  V30 42 1 39 17
M  V30 43 1 40 17
M  V30 44 1 41 18
M  V30 45 1 42 18
M  V30 46 1 19 43 CFG=3
M  V30 47 1 20 44 CFG=1
M  V30 48 1 5 45 CFG=3
M  V30 49 1 46 21
M  V30 50 1 47 21
M  V30 END BOND
M  V30 END CTAB
M  END
>  <i_epik_Tot_Q>  (1) 
1

>  <i_epik_Tot_abs_Q>  (1) 
1

>  <i_i_glide_confnum>  (1) 
102

>  <i_i_glide_lignum>  (1) 
53

>  <i_i_glide_posenum>  (1) 
259

>  <i_i_glide_rotatable_bonds>  (1) 
9

>  <i_lp_mmshare_version>  (1) 
72125

>  <i_m_source_file_index>  (1) 
23

>  <i_f3d_flags>  (1) 
0

>  <num_sample>  (1) 
100

>  <b_lp_Chiralities_Consistent>  (1) 
1

>  <r_epik_Charging_Adjusted_Penalty>  (1) 
0.69687758696528612

>  <r_epik_Ionization_Penalty>  (1) 
0.32102159834462574

>  <r_epik_Ionization_Penalty_Charging>  (1) 
0.0068758800046254996

>  <r_epik_Ionization_Penalty_Neutral>  (1) 
0.31414571834000021

>  <r_epik_State_Penalty>  (1) 
0.69000170696066065

>  <r_glide_ring_energy>  (1) 
1.6455033096424427

>  <r_i_docking_score>  (1) 
-4.8376666064392495

>  <r_i_glide_ecoul>  (1) 
-2.1844922044716002

>  <r_i_glide_eff_state_penalty>  (1) 
0.69000170696066065

>  <r_i_glide_einternal>  (1) 
5.4607593305259314

>  <r_i_glide_emodel>  (1) 
-41.405814921150032

>  <r_i_glide_emodel_strain>  (1) 
0.63039694667038759

>  <r_i_glide_energy>  (1) 
-32.922890506836232

>  <r_i_glide_erotb>  (1) 
1.3164448029953435

>  <r_i_glide_esite>  (1) 
-0.026218877721287476

>  <r_i_glide_evdw>  (1) 
-30.738398302364629

>  <r_i_glide_gscore>  (1) 
-5.5276683133999098

>  <r_i_glide_gscore_strain>  (1) 
0

>  <r_i_glide_hbond>  (1) 
-0.1098057735491253

>  <r_i_glide_ligand_efficiency>  (1) 
-0.21989393665632953

>  <r_i_glide_ligand_efficiency_ln>  (1) 
-1.1825021767906694

>  <r_i_glide_ligand_efficiency_sa>  (1) 
-0.61615145908367974

>  <r_i_glide_lipo>  (1) 
-2.7028453068404557

>  <r_i_glide_metal>  (1) 
-0

>  <r_i_glide_rewards>  (1) 
-2.140649412495415

>  <r_lp_Energy>  (1) 
11.334823

>  <r_lp_tautomer_probability>  (1) 
0.49999300000000002

>  <s_epik_Chemistry_Notes>  (1) 
This compound has an imine and may undergo hydrolysis. This compound contains an acetal/aminal-like group ( X-CH(R)-Y where X, Y are N, S, or O) that may be acid/base labile, releasing an aldehyde.

>  <s_epik_cmdline>  (1) 
J2VwaWtfcHl0aG9uJywgJy1waHQnLCAnMS4wJywgJy1waCcsICc3LjQnLCAnLXRuJywgJzgnLCAnLW1hJywgJzUwMCcsICctaW1hZScsICc8aW5maWxlLm1hZT4nLCAnLW9tYWUnLCAnPG91dGZpbGUubWFlPic=

>  <s_epik_input>  (1) 
W0NAQEhdMTJbQ0BIXShbQ0gyXTIpW0NIMl1bQ0gyXU4xW0NIMl1bQ0BASF0zT1tDQEhdKFtDSF0oW0NASF00W09IXSlbQ0BAXTM0W09IXSlbTkhdW0NIMl1bQ0gyXVxbQ0hdPUMoXEYpW05IMl0=

>  <s_glide_docking_method>  (1) 
confgen

>  <s_i_glide_gridfile>  (1) 
gpcr_5ht2c_6bqh_protein_autoprepared_prepared

>  <s_lp_Force_Field>  (1) 
S-OPLS

>  <s_lp_Variant>  (1) 
DiffSBDD_22-1

>  <s_m_source_file>  (1) 
generated_GPCR_5HT2C_ligand_DiffSBDD_2026-06-23_prepared.sdf

>  <GenAI_Model>  (1) 
DiffSBDD

>  <Protein>  (1) 
GPCR_5HT2C

$$$$
DiffSBDD_85
     RDKit          3D

  0  0  0  0  0  0  0  0  0  0999 V3000
M  V30 BEGIN CTAB
M  V30 COUNTS 62 65 0 0 1
M  V30 BEGIN ATOM
M  V30 1 C 40.445307 30.078347 62.722457 0
M  V30 2 C 40.709933 28.633119 58.943035 0
M  V30 3 N 38.178621 25.004381 56.910836 0
M  V30 4 C 38.741500 32.367907 60.048395 0
M  V30 5 C 44.012109 27.821957 65.339399 0
M  V30 6 C 37.894606 26.172202 57.720212 0 CFG=2
M  V30 7 O 41.169397 29.600284 61.850544 0
M  V30 8 F 42.642414 25.859053 65.320459 0
M  V30 9 C 44.146962 29.209217 65.130354 0
M  V30 10 O 40.720112 30.074480 64.044363 0
M  V30 11 O 38.845132 27.337739 50.985903 0
M  V30 12 C 37.509554 26.136234 56.272233 0 CFG=1
M  V30 13 C 39.140560 32.981560 61.280915 0
M  V30 14 C 40.262921 25.858628 57.475209 0
M  V30 15 C 38.045378 27.087654 54.103199 0
M  V30 16 C 39.220541 26.657587 58.251156 0 CFG=1
M  V30 17 C 39.645200 27.490698 52.138538 0
M  V30 18 N 38.222832 27.025685 55.422119 0
M  V30 19 O 39.592251 25.017694 56.553001 0
M  V30 20 C 39.403575 28.202969 58.233908 0 CFG=1
M  V30 21 O 41.860919 28.378124 58.167761 0
M  V30 22 C 39.113225 30.751389 62.385678 0 CFG=1
M  V30 23 C 38.083171 30.279107 58.738438 0
M  V30 24 C 38.904177 28.099364 53.347602 0 CFG=1
M  V30 25 N 38.232369 28.825557 58.871903 0
M  V30 26 Cl 38.557564 33.337642 58.631346 0
M  V30 27 C 43.040673 29.967914 64.698134 0
M  V30 28 C 38.509562 31.036344 59.991459 0
M  V30 29 C 41.798244 29.337995 64.472167 0
M  V30 30 C 39.312932 32.250366 62.375761 0
M  V30 31 C 38.107587 29.337751 52.967779 0
M  V30 32 C 42.770885 27.192396 65.118782 0
M  V30 33 O 38.645617 30.222765 61.114963 0
M  V30 34 O 37.245141 26.382769 53.505678 0
M  V30 35 C 41.664046 27.948971 64.687628 0
M  V30 36 H 40.713553 29.701657 59.150433 0
M  V30 37 H 40.809874 28.116192 59.896312 0
M  V30 38 H 44.860623 27.240864 65.669624 0
M  V30 39 H 37.086103 26.104447 58.429628 0
M  V30 40 H 45.099359 29.690498 65.300962 0
M  V30 41 H 38.446285 28.167974 50.775384 0
M  V30 42 H 36.448077 26.008199 56.064695 0
M  V30 43 H 39.300899 34.049061 61.319641 0
M  V30 44 H 40.845165 25.257204 58.167766 0
M  V30 45 H 40.940373 26.479150 56.892088 0
M  V30 46 H 39.270803 26.333024 59.288831 0
M  V30 47 H 40.045137 26.513217 52.406750 0
M  V30 48 H 40.481273 28.130479 51.856116 0
M  V30 49 H 38.901217 27.634869 55.850808 0
M  V30 50 H 39.452803 28.547508 57.201174 0
M  V30 51 H 42.091094 27.464454 58.247785 0
M  V30 52 H 38.384044 30.502357 63.155986 0
M  V30 53 H 38.625575 30.647578 57.866838 0
M  V30 54 H 37.032943 30.519050 58.563822 0
M  V30 55 H 39.645139 28.438174 54.064961 0
M  V30 56 H 38.191554 28.589204 59.859427 0
M  V30 57 H 43.145360 31.030512 64.536182 0
M  V30 58 H 39.612990 32.717795 63.302800 0
M  V30 59 H 37.599142 29.773955 53.828907 0
M  V30 60 H 38.792555 30.088535 52.567770 0
M  V30 61 H 37.356543 29.080779 52.221614 0
M  V30 62 H 40.712902 27.465320 64.517752 0
M  V30 END ATOM
M  V30 BEGIN BOND
M  V30 1 1 6 3
M  V30 2 2 7 1
M  V30 3 2 9 5
M  V30 4 1 10 1
M  V30 5 1 12 3
M  V30 6 1 12 6
M  V30 7 1 13 4
M  V30 8 1 16 6
M  V30 9 1 16 14
M  V30 10 1 17 11
M  V30 11 1 18 12
M  V30 12 1 18 15
M  V30 13 1 19 3
M  V30 14 1 19 14
M  V30 15 1 20 2
M  V30 16 1 20 16
M  V30 17 1 21 2
M  V30 18 1 22 1
M  V30 19 1 24 15
M  V30 20 1 24 17
M  V30 21 1 25 20
M  V30 22 1 25 23
M  V30 23 1 26 4
M  V30 24 1 27 9
M  V30 25 2 28 4
M  V30 26 1 28 23
M  V30 27 1 29 10
M  V30 28 2 29 27
M  V30 29 2 30 13
M  V30 30 1 30 22
M  V30 31 1 31 24
M  V30 32 1 32 5
M  V30 33 1 32 8
M  V30 34 1 33 22
M  V30 35 1 33 28
M  V30 36 2 34 15
M  V30 37 1 35 29
M  V30 38 2 35 32
M  V30 39 1 36 2
M  V30 40 1 37 2
M  V30 41 1 38 5
M  V30 42 1 6 39 CFG=1
M  V30 43 1 40 9
M  V30 44 1 41 11
M  V30 45 1 12 42 CFG=1
M  V30 46 1 43 13
M  V30 47 1 44 14
M  V30 48 1 45 14
M  V30 49 1 16 46 CFG=1
M  V30 50 1 47 17
M  V30 51 1 48 17
M  V30 52 1 49 18
M  V30 53 1 20 50 CFG=3
M  V30 54 1 51 21
M  V30 55 1 22 52 CFG=1
M  V30 56 1 53 23
M  V30 57 1 54 23
M  V30 58 1 24 55 CFG=1
M  V30 59 1 56 25
M  V30 60 1 57 27
M  V30 61 1 58 30
M  V30 62 1 59 31
M  V30 63 1 60 31
M  V30 64 1 61 31
M  V30 65 1 62 35
M  V30 END BOND
M  V30 END CTAB
M  END
>  <i_epik_Tot_Q>  (1) 
0

>  <i_epik_Tot_abs_Q>  (1) 
0

>  <i_i_glide_confnum>  (1) 
3049

>  <i_i_glide_lignum>  (1) 
203

>  <i_i_glide_posenum>  (1) 
252

>  <i_i_glide_rotatable_bonds>  (1) 
14

>  <i_lp_mmshare_version>  (1) 
72125

>  <i_m_source_file_index>  (1) 
86

>  <i_f3d_flags>  (1) 
0

>  <num_sample>  (1) 
100

>  <b_lp_Chiralities_Consistent>  (1) 
1

>  <r_epik_Charging_Adjusted_Penalty>  (1) 
0

>  <r_epik_Ionization_Penalty>  (1) 
0.002846787164494627

>  <r_epik_Ionization_Penalty_Charging>  (1) 
0

>  <r_epik_Ionization_Penalty_Neutral>  (1) 
0.002846787164494627

>  <r_epik_State_Penalty>  (1) 
-0

>  <r_glide_ring_energy>  (1) 
0

>  <r_i_docking_score>  (1) 
-4.8311446562784957

>  <r_i_glide_ecoul>  (1) 
-1.9757653593138809

>  <r_i_glide_eff_state_penalty>  (1) 
-0

>  <r_i_glide_einternal>  (1) 
9.8064439579613207

>  <r_i_glide_emodel>  (1) 
-57.708628093627077

>  <r_i_glide_emodel_strain>  (1) 
0.32951868575808163

>  <r_i_glide_energy>  (1) 
-48.232682978993601

>  <r_i_glide_erotb>  (1) 
0.93847147272533338

>  <r_i_glide_esite>  (1) 
-0.032031827677113212

>  <r_i_glide_evdw>  (1) 
-46.256917619679719

>  <r_i_glide_gscore>  (1) 
-4.8311446562784957

>  <r_i_glide_gscore_strain>  (1) 
0

>  <r_i_glide_hbond>  (1) 
-0.32000000000000001

>  <r_i_glide_ligand_efficiency>  (1) 
-0.13803270446509988

>  <r_i_glide_ligand_efficiency_ln>  (1) 
-1.0605434735318355

>  <r_i_glide_ligand_efficiency_sa>  (1) 
-0.45151412928000639

>  <r_i_glide_lipo>  (1) 
-3.081209570992367

>  <r_i_glide_metal>  (1) 
-0

>  <r_i_glide_rewards>  (1) 
0.27283595454671961

>  <r_lp_Energy>  (1) 
30.891655999999998

>  <r_lp_tautomer_probability>  (1) 
1

>  <s_epik_Chemistry_Notes>  (1) 
This compound contains an acetal/aminal-like group ( X-CH(R)-Y where X, Y are N, S, or O) that may be acid/base labile, releasing an aldehyde. This compound has a N-S or N-O group and may undergo hydrolysis at high or low pH.

>  <s_epik_cmdline>  (1) 
J2VwaWtfcHl0aG9uJywgJy1waHQnLCAnMS4wJywgJy1waCcsICc3LjQnLCAnLXRuJywgJzgnLCAnLW1hJywgJzUwMCcsICctaW1hZScsICc8aW5maWxlLm1hZT4nLCAnLW9tYWUnLCAnPG91dGZpbGUubWFlPic=

>  <s_epik_input>  (1) 
RmMoW2NIXTEpW2NIXVtjSF1bY0hdYzFPQyg9TylbQ0BASF0oW0NIXT1bQ0hdMilPQyg9QzJDbClbQ0gyXVtOSF1bQ0BASF0oW0NIMl1bT0hdKVtDQEBIXShbQ0gyXU8zKVtDSF0oW05AQF0zNClbQ0BIXTRbTkhdQyg9TylbQ0BIXShbQ0gzXSlbQ0gyXVtPSF0=

>  <s_glide_docking_method>  (1) 
confgen

>  <s_i_glide_gridfile>  (1) 
gpcr_5ht2c_6bqh_protein_autoprepared_prepared

>  <s_lp_Force_Field>  (1) 
S-OPLS

>  <s_lp_Variant>  (1) 
DiffSBDD_85-2

>  <s_m_source_file>  (1) 
generated_GPCR_5HT2C_ligand_DiffSBDD_2026-06-23_prepared.sdf

>  <GenAI_Model>  (1) 
DiffSBDD

>  <Protein>  (1) 
GPCR_5HT2C

$$$$
DiffSBDD_78
     RDKit          3D

  0  0  0  0  0  0  0  0  0  0999 V3000
M  V30 BEGIN CTAB
M  V30 COUNTS 104 109 0 0 1
M  V30 BEGIN ATOM
M  V30 1 O 37.437055 26.631220 55.252683 0
M  V30 2 C 37.490549 37.737633 60.637956 0
M  V30 3 C 41.272244 34.206432 62.889743 0 CFG=1
M  V30 4 C 39.858613 27.465071 51.311642 0
M  V30 5 O 40.445003 26.969536 55.740133 0
M  V30 6 C 37.335642 35.608568 62.071026 0 CFG=2
M  V30 7 C 36.982934 27.248636 54.050034 0
M  V30 8 O 39.245074 28.024298 53.534211 0
M  V30 9 C 36.868519 37.020655 61.788624 0 CFG=1
M  V30 10 O 39.643110 28.840791 58.463831 0
M  V30 11 C 43.630889 32.919341 70.518450 0
M  V30 12 N 39.848815 34.347534 62.961716 0
M  V30 13 N 37.725471 36.729663 62.939173 0
M  V30 14 C 42.208005 34.092495 72.036023 0
M  V30 15 C 38.443667 38.862378 60.959504 0
M  V30 16 C 42.039442 33.589448 64.011792 0 CFG=1
M  V30 17 N 39.430743 34.094214 61.661520 0
M  V30 18 C 36.766870 25.490315 55.788797 0
M  V30 19 C 38.337418 34.887730 61.130807 0 CFG=1
M  V30 20 C 41.886083 34.259153 70.581759 0
M  V30 21 C 38.461902 33.565408 58.950274 0
M  V30 22 C 39.570777 26.908396 52.717457 0 CFG=2
M  V30 23 C 39.718709 31.664458 61.565947 0
M  V30 24 C 42.632296 33.581095 68.262619 0
M  V30 25 C 40.290039 25.827022 54.943856 0
M  V30 26 C 37.887568 28.406908 53.609302 0 CFG=2
M  V30 27 C 40.729697 31.621027 62.720533 0
M  V30 28 C 36.697527 24.283798 54.840985 0
M  V30 29 O 37.245301 37.428176 59.472714 0
M  V30 30 C 37.955904 33.551291 60.403448 0
M  V30 31 C 42.660367 33.617706 69.778819 0
M  V30 32 C 36.464922 33.205006 60.301154 0
M  V30 33 C 38.515716 29.417150 55.890466 0
M  V30 34 C 39.068590 37.337798 63.008346 0
M  V30 35 C 42.035155 32.298731 67.660457 0
M  V30 36 C 42.235271 32.254911 66.137843 0
M  V30 37 O 43.394130 33.177538 71.881713 0
M  V30 38 N 38.801510 30.703244 59.578074 0
M  V30 39 S 37.645139 30.132244 57.285845 0
M  V30 40 C 39.701733 30.708756 60.621262 0
M  V30 41 C 40.669017 26.087607 53.457692 0
M  V30 42 C 38.859400 29.785482 58.554992 0
M  V30 43 C 39.536978 38.303326 61.896025 0
M  V30 44 C 41.431433 33.317119 65.369171 0
M  V30 45 O 44.528141 32.211802 70.063696 0
M  V30 46 C 38.716869 32.851892 61.594809 0 CFG=2
M  V30 47 C 41.748844 32.770843 62.755904 0 CFG=1
M  V30 48 C 37.788878 29.623255 54.552285 0
M  V30 49 H 41.818349 34.952191 62.316231 0
M  V30 50 H 40.044912 26.669883 50.591361 0
M  V30 51 H 40.716362 28.137760 51.320323 0
M  V30 52 H 39.008497 28.031294 50.931111 0
M  V30 53 H 39.889567 27.640741 55.366923 0
M  V30 54 H 36.474635 35.002504 62.350585 0
M  V30 55 H 36.045113 27.737566 54.167734 0
M  V30 56 H 36.845184 26.519682 53.258751 0
M  V30 57 H 35.868972 37.338007 62.064957 0
M  V30 58 H 39.587316 35.290570 63.244231 0
M  V30 59 H 41.390192 33.618621 72.579136 0
M  V30 60 H 37.860388 39.656591 61.417492 0
M  V30 61 H 38.848594 39.301694 60.047738 0
M  V30 62 H 43.014027 34.058691 64.108371 0
M  V30 63 H 37.328995 25.190506 56.672372 0
M  V30 64 H 35.781365 25.737818 56.167891 0
M  V30 65 H 38.803212 35.566282 60.418896 0
M  V30 66 H 41.064603 34.882180 70.261638 0
M  V30 67 H 38.121769 32.730732 58.346212 0
M  V30 68 H 39.549625 33.613575 58.889715 0
M  V30 69 H 38.045124 34.429910 58.434939 0
M  V30 70 H 38.748907 26.218741 52.607753 0
M  V30 71 H 43.644932 33.737741 67.888513 0
M  V30 72 H 42.044816 34.433556 67.927993 0
M  V30 73 H 40.845102 25.108073 55.510433 0
M  V30 74 H 39.299758 25.408231 54.986619 0
M  V30 75 H 37.551940 28.727666 52.623436 0
M  V30 76 H 40.157499 31.590044 63.645178 0
M  V30 77 H 41.284069 30.683290 62.689983 0
M  V30 78 H 36.180000 23.451511 55.319701 0
M  V30 79 H 37.688579 23.925890 54.568019 0
M  V30 80 H 36.156027 24.523616 53.926750 0
M  V30 81 H 42.481239 35.041867 72.498701 0
M  V30 82 H 36.292387 32.307331 59.705067 0
M  V30 83 H 35.898800 34.013181 59.836841 0
M  V30 84 H 36.023620 33.016027 61.279600 0
M  V30 85 H 39.536981 29.795088 55.834692 0
M  V30 86 H 38.570854 28.376965 56.159736 0
M  V30 87 H 39.044774 37.881582 63.949363 0
M  V30 88 H 39.878577 36.666192 63.240663 0
M  V30 89 H 42.525994 31.428346 68.098808 0
M  V30 90 H 40.975597 32.215226 67.906592 0
M  V30 91 H 43.299797 32.370916 65.927770 0
M  V30 92 H 41.968476 31.269165 65.755570 0
M  V30 93 H 38.112086 31.438119 59.514491 0
M  V30 94 H 40.393934 29.878500 60.608289 0
M  V30 95 H 40.845170 25.132317 52.967441 0
M  V30 96 H 41.642887 26.537754 53.367767 0
M  V30 97 H 40.320319 37.772354 61.367785 0
M  V30 98 H 40.045124 39.145493 62.361420 0
M  V30 99 H 41.420053 34.272037 65.889738 0
M  V30 100 H 40.389637 33.012996 65.288485 0
M  V30 101 H 38.056914 32.738191 62.458309 0
M  V30 102 H 42.577098 32.632785 62.063766 0
M  V30 103 H 38.209271 30.501559 54.062510 0
M  V30 104 H 36.740486 29.864194 54.728433 0
M  V30 END ATOM
M  V30 BEGIN BOND
M  V30 1 1 7 1
M  V30 2 1 9 2
M  V30 3 1 9 6
M  V30 4 1 12 3
M  V30 5 1 13 6
M  V30 6 1 13 9
M  V30 7 1 15 2
M  V30 8 1 16 3
M  V30 9 1 17 12
M  V30 10 1 18 1
M  V30 11 1 19 6
M  V30 12 1 19 17
M  V30 13 1 20 14
M  V30 14 1 22 4
M  V30 15 1 22 8
M  V30 16 1 25 5
M  V30 17 1 26 7
M  V30 18 1 26 8
M  V30 19 1 27 23
M  V30 20 1 28 18
M  V30 21 2 29 2
M  V30 22 1 30 19
M  V30 23 1 30 21
M  V30 24 1 31 11
M  V30 25 2 31 20
M  V30 26 1 31 24
M  V30 27 1 32 30
M  V30 28 1 34 13
M  V30 29 1 35 24
M  V30 30 1 36 35
M  V30 31 1 37 11
M  V30 32 1 37 14
M  V30 33 1 39 33
M  V30 34 2 40 23
M  V30 35 1 40 38
M  V30 36 1 41 22
M  V30 37 1 41 25
M  V30 38 2 42 10
M  V30 39 1 42 38
M  V30 40 1 42 39
M  V30 41 1 43 15
M  V30 42 1 43 34
M  V30 43 1 44 16
M  V30 44 1 44 36
M  V30 45 2 45 11
M  V30 46 1 46 17
M  V30 47 1 46 23
M  V30 48 1 46 30
M  V30 49 1 47 3
M  V30 50 1 47 16
M  V30 51 1 47 27
M  V30 52 1 48 26
M  V30 53 1 48 33
M  V30 54 1 3 49 CFG=3
M  V30 55 1 50 4
M  V30 56 1 51 4
M  V30 57 1 52 4
M  V30 58 1 53 5
M  V30 59 1 6 54 CFG=1
M  V30 60 1 55 7
M  V30 61 1 56 7
M  V30 62 1 9 57 CFG=1
M  V30 63 1 58 12
M  V30 64 1 59 14
M  V30 65 1 60 15
M  V30 66 1 61 15
M  V30 67 1 16 62 CFG=1
M  V30 68 1 63 18
M  V30 69 1 64 18
M  V30 70 1 19 65 CFG=3
M  V30 71 1 66 20
M  V30 72 1 67 21
M  V30 73 1 68 21
M  V30 74 1 69 21
M  V30 75 1 22 70 CFG=3
M  V30 76 1 71 24
M  V30 77 1 72 24
M  V30 78 1 73 25
M  V30 79 1 74 25
M  V30 80 1 26 75 CFG=3
M  V30 81 1 76 27
M  V30 82 1 77 27
M  V30 83 1 78 28
M  V30 84 1 79 28
M  V30 85 1 80 28
M  V30 86 1 81 14
M  V30 87 1 82 32
M  V30 88 1 83 32
M  V30 89 1 84 32
M  V30 90 1 85 33
M  V30 91 1 86 33
M  V30 92 1 87 34
M  V30 93 1 88 34
M  V30 94 1 89 35
M  V30 95 1 90 35
M  V30 96 1 91 36
M  V30 97 1 92 36
M  V30 98 1 93 38
M  V30 99 1 94 40
M  V30 100 1 95 41
M  V30 101 1 96 41
M  V30 102 1 97 43
M  V30 103 1 98 43
M  V30 104 1 99 44
M  V30 105 1 100 44
M  V30 106 1 46 101 CFG=1
M  V30 107 1 47 102 CFG=3
M  V30 108 1 103 48
M  V30 109 1 104 48
M  V30 END BOND
M  V30 END CTAB
M  END
>  <i_epik_Tot_Q>  (1) 
0

>  <i_epik_Tot_abs_Q>  (1) 
0

>  <i_i_glide_confnum>  (1) 
7877

>  <i_i_glide_lignum>  (1) 
184

>  <i_i_glide_posenum>  (1) 
217

>  <i_i_glide_rotatable_bonds>  (1) 
20

>  <i_lp_mmshare_version>  (1) 
72125

>  <i_m_source_file_index>  (1) 
79

>  <i_f3d_flags>  (1) 
0

>  <num_sample>  (1) 
100

>  <b_lp_Chiralities_Consistent>  (1) 
1

>  <r_epik_Charging_Adjusted_Penalty>  (1) 
0.92354502945683503

>  <r_epik_Ionization_Penalty>  (1) 
0.93156090309964268

>  <r_epik_Ionization_Penalty_Charging>  (1) 
0

>  <r_epik_Ionization_Penalty_Neutral>  (1) 
0.93156090309964268

>  <r_epik_State_Penalty>  (1) 
0.92354502945683503

>  <r_glide_ring_energy>  (1) 
0

>  <r_i_docking_score>  (1) 
-4.8282756486103491

>  <r_i_glide_ecoul>  (1) 
1.2578555160192706

>  <r_i_glide_eff_state_penalty>  (1) 
0.92354502945683503

>  <r_i_glide_einternal>  (1) 
14.974491419974969

>  <r_i_glide_emodel>  (1) 
-89.824280607704196

>  <r_i_glide_emodel_strain>  (1) 
10.435113996419631

>  <r_i_glide_energy>  (1) 
-37.649937443921743

>  <r_i_glide_erotb>  (1) 
0.59596673808410561

>  <r_i_glide_esite>  (1) 
0

>  <r_i_glide_evdw>  (1) 
-38.907792959941013

>  <r_i_glide_gscore>  (1) 
-5.7518206780671841

>  <r_i_glide_gscore_strain>  (1) 
1.6087784991049077

>  <r_i_glide_hbond>  (1) 
-0.024799514816373353

>  <r_i_glide_ligand_efficiency>  (1) 
-0.10058907601271561

>  <r_i_glide_ligand_efficiency_ln>  (1) 
-0.99118793040947795

>  <r_i_glide_ligand_efficiency_sa>  (1) 
-0.3655649628733259

>  <r_i_glide_lipo>  (1) 
-5.1399004174973228

>  <r_i_glide_metal>  (1) 
-0

>  <r_i_glide_rewards>  (1) 
-1.0351546623483412

>  <r_lp_Energy>  (1) 
40.470562000000001

>  <r_lp_tautomer_probability>  (1) 
0.99984117342658263

>  <s_epik_Chemistry_Notes>  (1) 
This compound has an ester and may undergo hydrolysis at high or low pH.

>  <s_epik_cmdline>  (1) 
J2VwaWtfcHl0aG9uJywgJy1waHQnLCAnMS4wJywgJy1waCcsICc3LjQnLCAnLXRuJywgJzgnLCAnLW1hJywgJzUwMCcsICctaW1hZScsICc8aW5maWxlLm1hZT4nLCAnLW9tYWUnLCAnPG91dGZpbGUubWFlPic=

>  <s_epik_input>  (1) 
W09IXVtDSDJdW0NIMl1bQ0BIXShbQ0gzXSlPW0NAQEhdKFtDSDJdT1tDSDJdW0NIM10pW0NIMl1bQ0gyXVNDKD1PKVtOSF1cW0NIXT1DKFtDQEhdMU4oW05IXTIpW0NAQEhdKEMxKFtDSDNdKVtDSDNdKVtDQEhdM04oW0NASF0zNClbQ0gyXVtDSDJdW0NIMl1DND1PKVxbQ0gyXVtDQEBIXShbQ0BASF0yNSlbQ0BASF01W0NIMl1bQ0gyXVtDSDJdW0NIMl1bQ0BASF0oQzY9TylbQ0hdPVtDSF1PNg==

>  <s_glide_docking_method>  (1) 
confgen

>  <s_i_glide_gridfile>  (1) 
gpcr_5ht2c_6bqh_protein_autoprepared_prepared

>  <s_lp_Force_Field>  (1) 
S-OPLS

>  <s_lp_Variant>  (1) 
DiffSBDD_78-6

>  <s_m_source_file>  (1) 
generated_GPCR_5HT2C_ligand_DiffSBDD_2026-06-23_prepared.sdf

>  <GenAI_Model>  (1) 
DiffSBDD

>  <Protein>  (1) 
GPCR_5HT2C

$$$$
DiffSBDD_54
     RDKit          3D

  0  0  0  0  0  0  0  0  0  0999 V3000
M  V30 BEGIN CTAB
M  V30 COUNTS 42 43 0 0 1
M  V30 BEGIN ATOM
M  V30 1 C 39.137115 31.337206 54.779396 0
M  V30 2 C 39.032717 27.353491 56.952258 0
M  V30 3 C 39.345128 29.052938 58.735014 0
M  V30 4 C 39.035027 27.800435 50.694186 0
M  V30 5 C 39.426822 29.342862 52.725515 0
M  V30 6 S 37.771224 29.737757 56.514366 0 CHG=1
M  V30 7 C 38.651911 32.026000 57.102490 0
M  V30 8 N 37.876485 26.718620 57.007448 0
M  V30 9 C 37.422724 28.097243 53.687098 0
M  V30 10 C 38.323309 25.444834 56.692573 0
M  V30 11 N 39.645131 25.331038 56.457767 0
M  V30 12 N 40.056165 26.590659 56.648756 0
M  V30 13 N 38.238889 30.154495 54.865832 0 CFG=2 CHG=1
M  V30 14 C 38.646602 28.975389 54.020473 0 CFG=2
M  V30 15 C 38.642214 32.484155 55.652300 0
M  V30 16 C 39.921616 28.146005 51.891306 0
M  V30 17 O 37.704743 30.994255 57.327433 0
M  V30 18 C 39.205642 28.823521 57.218009 0 CFG=2
M  V30 19 H 39.172206 31.709904 53.755489 0
M  V30 20 H 40.155223 31.061325 55.059690 0
M  V30 21 H 40.186017 28.487073 59.137878 0
M  V30 22 H 38.449040 28.727815 59.265644 0
M  V30 23 H 39.514109 30.097901 58.988484 0
M  V30 24 H 39.436816 26.937753 50.167759 0
M  V30 25 H 38.986516 28.625625 49.984726 0
M  V30 26 H 38.020126 27.552417 50.993197 0
M  V30 27 H 40.322197 29.906280 52.987108 0
M  V30 28 H 38.845143 30.002509 52.092552 0
M  V30 29 H 39.645138 31.688352 57.367760 0
M  V30 30 H 38.408828 32.861925 57.759739 0
M  V30 31 H 37.724211 27.148432 53.243081 0
M  V30 32 H 36.752350 28.587617 52.981267 0
M  V30 33 H 36.845136 27.833281 54.567757 0
M  V30 34 H 37.662349 24.592207 56.631960 0
M  V30 35 H 41.026365 26.867381 56.567663 0
M  V30 36 H 39.346893 28.374348 54.591708 0
M  V30 37 H 39.293576 33.349993 55.536125 0
M  V30 38 H 37.645134 32.808002 55.354557 0
M  V30 39 H 40.910641 28.384496 51.499219 0
M  V30 40 H 40.045140 27.266089 52.523718 0
M  V30 41 H 40.114413 29.177734 56.731474 0
M  V30 42 H 37.399574 30.493943 54.417188 0
M  V30 END ATOM
M  V30 BEGIN BOND
M  V30 1 2 8 2
M  V30 2 1 10 8
M  V30 3 2 11 10
M  V30 4 1 12 2
M  V30 5 1 12 11
M  V30 6 1 13 1
M  V30 7 1 13 6
M  V30 8 1 14 5
M  V30 9 1 14 9
M  V30 10 1 14 13
M  V30 11 1 15 1
M  V30 12 1 15 7
M  V30 13 1 16 4
M  V30 14 1 16 5
M  V30 15 1 6 17 CFG=1
M  V30 16 1 17 7
M  V30 17 1 18 2
M  V30 18 1 18 3
M  V30 19 1 18 6
M  V30 20 1 19 1
M  V30 21 1 20 1
M  V30 22 1 21 3
M  V30 23 1 22 3
M  V30 24 1 23 3
M  V30 25 1 24 4
M  V30 26 1 25 4
M  V30 27 1 26 4
M  V30 28 1 27 5
M  V30 29 1 28 5
M  V30 30 1 29 7
M  V30 31 1 30 7
M  V30 32 1 31 9
M  V30 33 1 32 9
M  V30 34 1 33 9
M  V30 35 1 34 10
M  V30 36 1 35 12
M  V30 37 1 14 36 CFG=1
M  V30 38 1 37 15
M  V30 39 1 38 15
M  V30 40 1 39 16
M  V30 41 1 40 16
M  V30 42 1 18 41 CFG=3
M  V30 43 1 13 42 CFG=3
M  V30 END BOND
M  V30 END CTAB
M  END
>  <i_epik_Tot_Q>  (1) 
2

>  <i_epik_Tot_abs_Q>  (1) 
2

>  <i_i_glide_confnum>  (1) 
4

>  <i_i_glide_lignum>  (1) 
116

>  <i_i_glide_posenum>  (1) 
338

>  <i_i_glide_rotatable_bonds>  (1) 
5

>  <i_lp_mmshare_version>  (1) 
72125

>  <i_m_source_file_index>  (1) 
55

>  <i_f3d_flags>  (1) 
0

>  <num_sample>  (1) 
100

>  <b_lp_Chiralities_Consistent>  (1) 
1

>  <r_epik_Charging_Adjusted_Penalty>  (1) 
0.22285261290592212

>  <r_epik_Ionization_Penalty>  (1) 
0.11376846567106323

>  <r_epik_Ionization_Penalty_Charging>  (1) 
0.11142630645296109

>  <r_epik_Ionization_Penalty_Neutral>  (1) 
0.0023421592181021404

>  <r_epik_State_Penalty>  (1) 
0.11142630645296105

>  <r_glide_ring_energy>  (1) 
0

>  <r_i_docking_score>  (1) 
-4.8214745363878473

>  <r_i_glide_ecoul>  (1) 
-0.051335984980622751

>  <r_i_glide_eff_state_penalty>  (1) 
0.11142630645296105

>  <r_i_glide_einternal>  (1) 
3.3914259340731805

>  <r_i_glide_emodel>  (1) 
-40.535917148921257

>  <r_i_glide_emodel_strain>  (1) 
0.10680292425647053

>  <r_i_glide_energy>  (1) 
-26.997852635381115

>  <r_i_glide_erotb>  (1) 
0.96597774364564237

>  <r_i_glide_esite>  (1) 
-0.061524960982692251

>  <r_i_glide_evdw>  (1) 
-26.946516650400493

>  <r_i_glide_gscore>  (1) 
-4.9329008428408088

>  <r_i_glide_gscore_strain>  (1) 
0

>  <r_i_glide_hbond>  (1) 
0

>  <r_i_glide_ligand_efficiency>  (1) 
-0.2678596964659915

>  <r_i_glide_ligand_efficiency_ln>  (1) 
-1.2393351680599298

>  <r_i_glide_ligand_efficiency_sa>  (1) 
-0.70199099436865453

>  <r_i_glide_lipo>  (1) 
-1.9256713518128006

>  <r_i_glide_metal>  (1) 
-0

>  <r_i_glide_rewards>  (1) 
-2.5566560434238399

>  <r_lp_Energy>  (1) 
20.164648

>  <r_lp_tautomer_probability>  (1) 
0.94828448534560383

>  <s_epik_cmdline>  (1) 
J2VwaWtfcHl0aG9uJywgJy1waHQnLCAnMS4wJywgJy1waCcsICc3LjQnLCAnLXRuJywgJzgnLCAnLW1hJywgJzUwMCcsICctaW1hZScsICc8aW5maWxlLm1hZT4nLCAnLW9tYWUnLCAnPG91dGZpbGUubWFlPic=

>  <s_epik_input>  (1) 
W0NIM11bQ0gyXVtDSDJdW0NASF0oW0NIM10pTihbQ0gyXVtDSDJdW0NIMl1PMSlbUytdMVtDQEBIXShbQ0gzXSljMm5bY0hdbltuSF0y

>  <s_glide_docking_method>  (1) 
confgen

>  <s_i_glide_gridfile>  (1) 
gpcr_5ht2c_6bqh_protein_autoprepared_prepared

>  <s_lp_Force_Field>  (1) 
S-OPLS

>  <s_lp_Variant>  (1) 
DiffSBDD_54-2

>  <s_m_source_file>  (1) 
generated_GPCR_5HT2C_ligand_DiffSBDD_2026-06-23_prepared.sdf

>  <GenAI_Model>  (1) 
DiffSBDD

>  <Protein>  (1) 
GPCR_5HT2C

$$$$
DiffSBDD_56
     RDKit          3D

  0  0  0  0  0  0  0  0  0  0999 V3000
M  V30 BEGIN CTAB
M  V30 COUNTS 73 78 0 0 1
M  V30 BEGIN ATOM
M  V30 1 C 39.320160 35.338362 62.624595 0 CFG=1
M  V30 2 C 40.852989 32.527902 61.984435 0
M  V30 3 C 40.215161 34.544468 60.567992 0
M  V30 4 C 38.563305 29.333602 59.062503 0
M  V30 5 C 37.399667 36.719031 63.524232 0
M  V30 6 C 42.251056 34.616567 64.668823 0
M  V30 7 C 41.125055 34.030774 61.695068 0 CFG=1
M  V30 8 C 38.833852 36.748827 62.960696 0
M  V30 9 C 42.153402 33.520907 66.864076 0
M  V30 10 C 38.688490 28.861939 57.763413 0
M  V30 11 C 38.045186 31.786880 55.739583 0
M  V30 12 C 38.236431 30.686128 59.307548 0
M  V30 13 C 41.221331 35.535816 65.096852 0
M  V30 14 C 36.185408 36.265677 62.668232 0
M  V30 15 C 38.486802 29.750562 56.660264 0
M  V30 16 C 40.754042 35.446638 66.431534 0
M  V30 17 N 40.963941 34.491277 64.191814 0
M  V30 18 N 36.533489 34.835284 60.531009 0 CFG=1 CHG=1
M  V30 19 F 40.592832 34.267057 68.501909 0
M  V30 20 C 38.911686 34.787790 61.256011 0 CFG=2
M  V30 21 C 41.134215 34.385523 67.266080 0
M  V30 22 C 38.787615 28.339700 54.514594 0
M  V30 23 F 42.602764 32.562335 67.709010 0
M  V30 24 C 36.487097 33.461291 59.909772 0
M  V30 25 C 38.047422 31.544408 58.256797 0
M  V30 26 C 40.821146 35.038617 62.835792 0 CFG=2
M  V30 27 C 42.779803 33.714136 65.624118 0
M  V30 28 S 37.640584 33.253305 58.488489 0
M  V30 29 C 38.523914 29.601145 55.295021 0
M  V30 30 C 38.255399 30.868649 54.756258 0
M  V30 31 C 36.045208 34.857110 61.940276 0
M  V30 32 O 39.007304 27.543000 57.522822 0
M  V30 33 N 38.171973 31.114373 56.967509 0
M  V30 34 C 37.834927 35.524622 60.420660 0
M  V30 35 C 42.017498 31.779554 62.642777 0
M  V30 36 C 39.957309 26.939628 58.393673 0
M  V30 37 O 38.869668 28.664517 53.140738 0
M  V30 38 H 38.845139 34.683257 63.324563 0
M  V30 39 H 39.950757 32.396957 62.582760 0
M  V30 40 H 40.654754 32.023082 61.038172 0
M  V30 41 H 40.599226 35.480608 60.168775 0
M  V30 42 H 40.045208 33.844981 59.748818 0
M  V30 43 H 38.712823 28.657840 59.897307 0
M  V30 44 H 37.172136 37.739799 63.808129 0
M  V30 45 H 37.419725 36.192663 64.467858 0
M  V30 46 H 42.146296 34.122142 61.367735 0
M  V30 47 H 39.464263 37.155065 63.751844 0
M  V30 48 H 38.961490 37.448832 62.135675 0
M  V30 49 H 37.803947 32.840503 55.715907 0
M  V30 50 H 38.138771 31.046339 60.325466 0
M  V30 51 H 35.343317 36.343182 63.361998 0
M  V30 52 H 36.045446 37.073528 61.949812 0
M  V30 53 H 40.100180 36.215625 66.815771 0
M  V30 54 H 38.546812 33.780672 61.449499 0
M  V30 55 H 39.703820 27.848594 54.841311 0
M  V30 56 H 37.972183 27.628278 54.653467 0
M  V30 57 H 36.725265 32.704337 60.655625 0
M  V30 58 H 35.472954 33.244420 59.572279 0
M  V30 59 H 41.406256 35.950078 62.681319 0
M  V30 60 H 43.661028 33.146754 65.385157 0
M  V30 61 H 38.218285 31.067116 53.696954 0
M  V30 62 H 36.445140 34.001698 62.468480 0
M  V30 63 H 35.003429 34.537738 61.902481 0
M  V30 64 H 37.743745 36.577394 60.658215 0
M  V30 65 H 38.045160 35.601536 59.368541 0
M  V30 66 H 41.869980 30.702524 62.574295 0
M  V30 67 H 42.108349 32.014356 63.699641 0
M  V30 68 H 42.962638 32.025750 62.165003 0
M  V30 69 H 40.369392 26.047432 57.923327 0
M  V30 70 H 39.493346 26.628208 59.327908 0
M  V30 71 H 40.789136 27.611070 58.617327 0
M  V30 72 H 39.620085 29.223677 53.010919 0
M  V30 73 H 35.894907 35.395318 59.982774 0
M  V30 END ATOM
M  V30 BEGIN BOND
M  V30 1 1 7 2
M  V30 2 1 7 3
M  V30 3 1 8 1
M  V30 4 1 8 5
M  V30 5 2 10 4
M  V30 6 1 12 4
M  V30 7 2 13 6
M  V30 8 1 14 5
M  V30 9 1 15 10
M  V30 10 1 16 13
M  V30 11 1 17 6
M  V30 12 1 17 13
M  V30 13 1 20 1
M  V30 14 1 20 3
M  V30 15 1 21 9
M  V30 16 2 21 16
M  V30 17 1 21 19
M  V30 18 1 23 9
M  V30 19 1 24 18
M  V30 20 2 25 12
M  V30 21 1 26 1
M  V30 22 1 26 7
M  V30 23 1 26 17
M  V30 24 1 27 6
M  V30 25 2 27 9
M  V30 26 1 28 24
M  V30 27 1 28 25
M  V30 28 2 29 15
M  V30 29 1 29 22
M  V30 30 2 30 11
M  V30 31 1 30 29
M  V30 32 1 31 14
M  V30 33 1 31 18
M  V30 34 1 32 10
M  V30 35 1 33 11
M  V30 36 1 33 15
M  V30 37 1 33 25
M  V30 38 1 34 18
M  V30 39 1 34 20
M  V30 40 1 35 2
M  V30 41 1 36 32
M  V30 42 1 37 22
M  V30 43 1 1 38 CFG=1
M  V30 44 1 39 2
M  V30 45 1 40 2
M  V30 46 1 41 3
M  V30 47 1 42 3
M  V30 48 1 43 4
M  V30 49 1 44 5
M  V30 50 1 45 5
M  V30 51 1 7 46 CFG=3
M  V30 52 1 47 8
M  V30 53 1 48 8
M  V30 54 1 49 11
M  V30 55 1 50 12
M  V30 56 1 51 14
M  V30 57 1 52 14
M  V30 58 1 53 16
M  V30 59 1 20 54 CFG=1
M  V30 60 1 55 22
M  V30 61 1 56 22
M  V30 62 1 57 24
M  V30 63 1 58 24
M  V30 64 1 26 59 CFG=1
M  V30 65 1 60 27
M  V30 66 1 61 30
M  V30 67 1 62 31
M  V30 68 1 63 31
M  V30 69 1 64 34
M  V30 70 1 65 34
M  V30 71 1 66 35
M  V30 72 1 67 35
M  V30 73 1 68 35
M  V30 74 1 69 36
M  V30 75 1 70 36
M  V30 76 1 71 36
M  V30 77 1 72 37
M  V30 78 1 18 73 CFG=3
M  V30 END BOND
M  V30 END CTAB
M  END
>  <i_epik_Tot_Q>  (1) 
1

>  <i_epik_Tot_abs_Q>  (1) 
1

>  <i_i_glide_confnum>  (1) 
296

>  <i_i_glide_lignum>  (1) 
123

>  <i_i_glide_posenum>  (1) 
136

>  <i_i_glide_rotatable_bonds>  (1) 
8

>  <i_lp_mmshare_version>  (1) 
72125

>  <i_m_source_file_index>  (1) 
57

>  <i_f3d_flags>  (1) 
0

>  <num_sample>  (1) 
100

>  <b_lp_Chiralities_Consistent>  (1) 
1

>  <r_epik_Charging_Adjusted_Penalty>  (1) 
1.9649939919035475

>  <r_epik_Ionization_Penalty>  (1) 
0.98409533599364529

>  <r_epik_Ionization_Penalty_Charging>  (1) 
0.98249699595177398

>  <r_epik_Ionization_Penalty_Neutral>  (1) 
0.0015983400418712683

>  <r_epik_State_Penalty>  (1) 
0.98249699595177364

>  <r_glide_ring_energy>  (1) 
0

>  <r_i_docking_score>  (1) 
-4.819417118002896

>  <r_i_glide_ecoul>  (1) 
-0.97718467292226796

>  <r_i_glide_eff_state_penalty>  (1) 
0.98249699595177364

>  <r_i_glide_einternal>  (1) 
16.397218308642664

>  <r_i_glide_emodel>  (1) 
-21.15911715962315

>  <r_i_glide_emodel_strain>  (1) 
3.3710112933424625

>  <r_i_glide_energy>  (1) 
-28.386553689988428

>  <r_i_glide_erotb>  (1) 
0.36855175673704876

>  <r_i_glide_esite>  (1) 
-0.10000000000000001

>  <r_i_glide_evdw>  (1) 
-27.409369017066162

>  <r_i_glide_gscore>  (1) 
-5.8019141139546697

>  <r_i_glide_gscore_strain>  (1) 
0

>  <r_i_glide_hbond>  (1) 
0

>  <r_i_glide_ligand_efficiency>  (1) 
-0.13025451670278096

>  <r_i_glide_ligand_efficiency_ln>  (1) 
-1.0452185897274202

>  <r_i_glide_ligand_efficiency_sa>  (1) 
-0.43403694683258964

>  <r_i_glide_lipo>  (1) 
-3.4431965396171496

>  <r_i_glide_metal>  (1) 
-0

>  <r_i_glide_rewards>  (1) 
-1.1102231792829216

>  <r_lp_Energy>  (1) 
108.178613

>  <s_epik_Chemistry_Notes>  (1) 
This compound contains an acetal/aminal-like group ( X-CH(R)-Y where X, Y are N, S, or O) that may be acid/base labile, releasing an aldehyde.

>  <s_epik_cmdline>  (1) 
J2VwaWtfcHl0aG9uJywgJy1waHQnLCAnMS4wJywgJy1waCcsICc3LjQnLCAnLXRuJywgJzgnLCAnLW1hJywgJzUwMCcsICctaW1hZScsICc8aW5maWxlLm1hZT4nLCAnLW9tYWUnLCAnPG91dGZpbGUubWFlPic=

>  <s_epik_input>  (1) 
RmMoW2NIXTEpYyhGKVtjSF1jKGMxMilOMltDQEhdM1tDQEBIXShbQ0gyXVtDSDNdKVtDSDJdW0NAQEhdKFtDQEBIXTM0KVtDSDJdTihbQ0gyXVtDSDJdW0NIMl1bQ0gyXTQpW0NIMl1TYyhbY0hdW2NIXWM1T1tDSDNdKW4oYzU2KVtjSF1bY0hdYzZbQ0gyXVtPSF0=

>  <s_glide_docking_method>  (1) 
confgen

>  <s_i_glide_gridfile>  (1) 
gpcr_5ht2c_6bqh_protein_autoprepared_prepared

>  <s_lp_Force_Field>  (1) 
S-OPLS

>  <s_lp_Variant>  (1) 
DiffSBDD_56-2

>  <s_m_source_file>  (1) 
generated_GPCR_5HT2C_ligand_DiffSBDD_2026-06-23_prepared.sdf

>  <GenAI_Model>  (1) 
DiffSBDD

>  <Protein>  (1) 
GPCR_5HT2C

$$$$
DiffSBDD_37
     RDKit          3D

  0  0  0  0  0  0  0  0  0  0999 V3000
M  V30 BEGIN CTAB
M  V30 COUNTS 45 45 0 0 1
M  V30 BEGIN ATOM
M  V30 1 O 37.326351 29.700883 55.670020 0
M  V30 2 C 39.035946 27.419494 52.438861 0
M  V30 3 N 37.655566 34.390018 60.038214 0
M  V30 4 C 37.858533 35.407643 60.886738 0
M  V30 5 C 38.170561 30.432169 54.781593 0 CFG=1
M  V30 6 O 38.840138 35.497750 61.621816 0
M  V30 7 C 39.657025 30.201811 52.710345 0
M  V30 8 C 38.591818 33.279741 59.905990 0
M  V30 9 C 38.246979 28.245885 53.454074 0
M  V30 10 C 38.970080 31.482180 55.577020 0
M  V30 11 C 37.940981 28.999462 56.750864 0
M  V30 12 C 38.268026 32.442139 58.660301 0
M  V30 13 C 39.042119 29.485499 53.915422 0 CFG=2
M  V30 14 N 38.045137 32.468293 56.166759 0 CHG=1
M  V30 15 C 38.551974 33.186307 57.346267 0
M  V30 16 C 40.393748 30.408702 50.321740 0
M  V30 17 C 39.332499 28.234026 51.176240 0
M  V30 18 C 39.787618 29.650623 51.483263 0
M  V30 19 H 38.464172 26.538002 52.172630 0
M  V30 20 H 39.966235 27.067299 52.886911 0
M  V30 21 H 36.824021 34.381021 59.465658 0
M  V30 22 H 37.038209 36.139962 60.835061 0
M  V30 23 H 37.492101 30.961243 54.111504 0
M  V30 24 H 40.001312 31.212818 52.872423 0
M  V30 25 H 39.619729 33.643369 59.856553 0
M  V30 26 H 38.520180 32.656356 60.797387 0
M  V30 27 H 37.981680 27.615962 54.303215 0
M  V30 28 H 37.305019 28.562309 53.004744 0
M  V30 29 H 39.665911 32.021615 54.936204 0
M  V30 30 H 39.581190 31.009967 56.344972 0
M  V30 31 H 37.245139 28.265106 57.152377 0
M  V30 32 H 38.845678 28.468621 56.454172 0
M  V30 33 H 38.182875 29.670465 57.572476 0
M  V30 34 H 38.858948 31.528381 58.689941 0
M  V30 35 H 37.222902 32.132409 58.699441 0
M  V30 36 H 39.873014 29.146457 54.533316 0
M  V30 37 H 37.158651 32.028998 56.428237 0
M  V30 38 H 38.061129 34.159133 57.356098 0
M  V30 39 H 39.623851 33.336940 57.237699 0
M  V30 40 H 39.744597 30.343806 49.448136 0
M  V30 41 H 40.531660 31.459757 50.564224 0
M  V30 42 H 41.362390 29.988869 50.056183 0
M  V30 43 H 38.432069 28.309986 50.567423 0
M  V30 44 H 40.079195 27.714262 50.572641 0
M  V30 45 H 37.820318 33.145548 55.450847 0
M  V30 END ATOM
M  V30 BEGIN BOND
M  V30 1 1 4 3
M  V30 2 1 5 1
M  V30 3 2 6 4
M  V30 4 1 8 3
M  V30 5 1 9 2
M  V30 6 1 10 5
M  V30 7 1 11 1
M  V30 8 1 12 8
M  V30 9 1 13 5
M  V30 10 1 13 7
M  V30 11 1 13 9
M  V30 12 1 14 10
M  V30 13 1 15 12
M  V30 14 1 15 14
M  V30 15 1 17 2
M  V30 16 2 18 7
M  V30 17 1 18 16
M  V30 18 1 18 17
M  V30 19 1 19 2
M  V30 20 1 20 2
M  V30 21 1 21 3
M  V30 22 1 22 4
M  V30 23 1 5 23 CFG=3
M  V30 24 1 24 7
M  V30 25 1 25 8
M  V30 26 1 26 8
M  V30 27 1 27 9
M  V30 28 1 28 9
M  V30 29 1 29 10
M  V30 30 1 30 10
M  V30 31 1 31 11
M  V30 32 1 32 11
M  V30 33 1 33 11
M  V30 34 1 34 12
M  V30 35 1 35 12
M  V30 36 1 13 36 CFG=1
M  V30 37 1 37 14
M  V30 38 1 38 15
M  V30 39 1 39 15
M  V30 40 1 40 16
M  V30 41 1 41 16
M  V30 42 1 42 16
M  V30 43 1 43 17
M  V30 44 1 44 17
M  V30 45 1 45 14
M  V30 END BOND
M  V30 END CTAB
M  END
>  <i_epik_Tot_Q>  (1) 
1

>  <i_epik_Tot_abs_Q>  (1) 
1

>  <i_i_glide_confnum>  (1) 
129

>  <i_i_glide_lignum>  (1) 
84

>  <i_i_glide_posenum>  (1) 
75

>  <i_i_glide_rotatable_bonds>  (1) 
9

>  <i_lp_mmshare_version>  (1) 
72125

>  <i_m_source_file_index>  (1) 
38

>  <i_f3d_flags>  (1) 
0

>  <num_sample>  (1) 
100

>  <b_lp_Chiralities_Consistent>  (1) 
1

>  <r_epik_Charging_Adjusted_Penalty>  (1) 
0.011588435553483814

>  <r_epik_Ionization_Penalty>  (1) 
0.0057942400121425265

>  <r_epik_Ionization_Penalty_Charging>  (1) 
0.0057942177767419025

>  <r_epik_Ionization_Penalty_Neutral>  (1) 
2.2235400624284582e-08

>  <r_epik_State_Penalty>  (1) 
0.0057942177767419112

>  <r_glide_ring_energy>  (1) 
0

>  <r_i_docking_score>  (1) 
-4.8104233433933317

>  <r_i_glide_ecoul>  (1) 
-3.5753514865047773

>  <r_i_glide_eff_state_penalty>  (1) 
0.0057942177767419112

>  <r_i_glide_einternal>  (1) 
8.1207875609780089

>  <r_i_glide_emodel>  (1) 
-41.293668169753573

>  <r_i_glide_emodel_strain>  (1) 
0.33061257670692612

>  <r_i_glide_energy>  (1) 
-31.952606168421049

>  <r_i_glide_erotb>  (1) 
2.6454654528843173

>  <r_i_glide_esite>  (1) 
-0.10000000000000001

>  <r_i_glide_evdw>  (1) 
-28.377254681916273

>  <r_i_glide_gscore>  (1) 
-4.8162175611700739

>  <r_i_glide_gscore_strain>  (1) 
0

>  <r_i_glide_hbond>  (1) 
-0.20000000000000001

>  <r_i_glide_ligand_efficiency>  (1) 
-0.26724574129962952

>  <r_i_glide_ligand_efficiency_ln>  (1) 
-1.2364945158852152

>  <r_i_glide_ligand_efficiency_sa>  (1) 
-0.70038197664998125

>  <r_i_glide_lipo>  (1) 
-2.2634062466436271

>  <r_i_glide_metal>  (1) 
-0

>  <r_i_glide_rewards>  (1) 
-2.9431113103392335

>  <r_lp_Energy>  (1) 
14.633092999999999

>  <s_epik_cmdline>  (1) 
J2VwaWtfcHl0aG9uJywgJy1waHQnLCAnMS4wJywgJy1waCcsICc3LjQnLCAnLXRuJywgJzgnLCAnLW1hJywgJzUwMCcsICctaW1hZScsICc8aW5maWxlLm1hZT4nLCAnLW9tYWUnLCAnPG91dGZpbGUubWFlPic=

>  <s_epik_input>  (1) 
W0NIMl0xW0NIMl1bQ0gyXUMoW0NIM10pPVtDSF1bQ0BIXTFbQ0BASF0oT1tDSDNdKVtDSDJdW05IXVtDSDJdW0NIMl1bQ0gyXVtOSF1bQ0hdPU8=

>  <s_glide_docking_method>  (1) 
confgen

>  <s_i_glide_gridfile>  (1) 
gpcr_5ht2c_6bqh_protein_autoprepared_prepared

>  <s_lp_Force_Field>  (1) 
S-OPLS

>  <s_lp_Variant>  (1) 
DiffSBDD_37-1

>  <s_m_source_file>  (1) 
generated_GPCR_5HT2C_ligand_DiffSBDD_2026-06-23_prepared.sdf

>  <GenAI_Model>  (1) 
DiffSBDD

>  <Protein>  (1) 
GPCR_5HT2C

$$$$
DiffSBDD_36
     RDKit          3D

  0  0  0  0  0  0  0  0  0  0999 V3000
M  V30 BEGIN CTAB
M  V30 COUNTS 49 49 0 0 1
M  V30 BEGIN ATOM
M  V30 1 C 38.737584 28.361015 55.599557 0
M  V30 2 C 39.814549 27.073246 58.967759 0
M  V30 3 C 40.713753 28.476083 57.181695 0
M  V30 4 C 37.918477 26.003585 57.657016 0
M  V30 5 C 38.096893 31.823667 61.287721 0
M  V30 6 C 38.711359 27.302945 57.914362 0 CFG=1
M  V30 7 C 41.065628 27.850240 58.528966 0
M  V30 8 C 39.146282 27.759762 51.758273 0
M  V30 9 C 38.204764 27.748583 54.537627 0
M  V30 10 C 37.418793 28.462686 53.468599 0
M  V30 11 O 37.245346 31.788421 62.167749 0
M  V30 12 C 37.883772 29.331696 59.234726 0
M  V30 13 C 36.903940 30.447975 59.515707 0
M  V30 14 C 37.732456 28.443432 58.236644 0
M  V30 15 C 39.536543 27.650525 56.665744 0 CFG=1
M  V30 16 C 39.985810 28.146582 50.553231 0
M  V30 17 S 39.827333 31.928667 61.480180 0 CHG=-1
M  V30 18 C 37.616152 31.771616 59.842227 0
M  V30 19 C 39.263269 30.088847 52.828685 0
M  V30 20 C 38.353891 28.937725 52.348294 0 CFG=1
M  V30 21 H 38.603248 29.426798 55.724077 0
M  V30 22 H 39.523986 27.337741 59.983190 0
M  V30 23 H 40.045207 26.008722 58.967871 0
M  V30 24 H 40.403960 29.509042 57.341224 0
M  V30 25 H 41.556893 28.479834 56.490970 0
M  V30 26 H 38.558149 25.212508 57.264045 0
M  V30 27 H 37.478533 25.615105 58.567754 0
M  V30 28 H 37.114539 26.157204 56.936308 0
M  V30 29 H 41.343895 28.616672 59.254545 0
M  V30 30 H 41.915385 27.172420 58.427194 0
M  V30 31 H 39.808491 27.319010 52.503760 0
M  V30 32 H 38.453141 26.971470 51.460528 0
M  V30 33 H 38.336472 26.683038 54.411419 0
M  V30 34 H 36.654988 27.788108 53.081078 0
M  V30 35 H 36.892004 29.311495 53.907660 0
M  V30 36 H 38.741004 29.273703 59.886046 0
M  V30 37 H 36.269918 30.576673 58.637905 0
M  V30 38 H 36.241748 30.155321 60.329113 0
M  V30 39 H 36.865232 28.519301 57.598915 0
M  V30 40 H 39.947115 26.733483 56.236815 0
M  V30 41 H 40.445054 27.243835 50.167748 0
M  V30 42 H 39.376176 28.592212 49.767550 0
M  V30 43 H 40.777713 28.847000 50.818385 0
M  V30 44 H 38.404271 31.963835 59.111223 0
M  V30 45 H 36.902435 32.586798 59.716658 0
M  V30 46 H 40.045013 29.737919 53.500693 0
M  V30 47 H 39.749708 30.592056 51.994310 0
M  V30 48 H 38.693861 30.846227 53.368124 0
M  V30 49 H 37.723055 29.322988 51.553836 0
M  V30 END ATOM
M  V30 BEGIN BOND
M  V30 1 1 6 2
M  V30 2 1 6 4 CFG=3
M  V30 3 1 7 2
M  V30 4 1 7 3
M  V30 5 2 9 1
M  V30 6 1 10 9
M  V30 7 2 11 5
M  V30 8 1 13 12
M  V30 9 1 14 6
M  V30 10 2 14 12
M  V30 11 1 15 1
M  V30 12 1 15 3
M  V30 13 1 15 6
M  V30 14 1 16 8
M  V30 15 1 17 5
M  V30 16 1 18 5
M  V30 17 1 18 13
M  V30 18 1 20 8
M  V30 19 1 20 10
M  V30 20 1 20 19
M  V30 21 1 21 1
M  V30 22 1 22 2
M  V30 23 1 23 2
M  V30 24 1 24 3
M  V30 25 1 25 3
M  V30 26 1 26 4
M  V30 27 1 27 4
M  V30 28 1 28 4
M  V30 29 1 29 7
M  V30 30 1 30 7
M  V30 31 1 31 8
M  V30 32 1 32 8
M  V30 33 1 33 9
M  V30 34 1 34 10
M  V30 35 1 35 10
M  V30 36 1 36 12
M  V30 37 1 37 13
M  V30 38 1 38 13
M  V30 39 1 39 14
M  V30 40 1 15 40 CFG=3
M  V30 41 1 41 16
M  V30 42 1 42 16
M  V30 43 1 43 16
M  V30 44 1 44 18
M  V30 45 1 45 18
M  V30 46 1 46 19
M  V30 47 1 47 19
M  V30 48 1 48 19
M  V30 49 1 20 49 CFG=3
M  V30 END BOND
M  V30 END CTAB
M  END
>  <i_epik_Tot_Q>  (1) 
-1

>  <i_epik_Tot_abs_Q>  (1) 
1

>  <i_i_glide_confnum>  (1) 
407

>  <i_i_glide_lignum>  (1) 
80

>  <i_i_glide_posenum>  (1) 
376

>  <i_i_glide_rotatable_bonds>  (1) 
8

>  <i_lp_mmshare_version>  (1) 
72125

>  <i_m_source_file_index>  (1) 
37

>  <i_f3d_flags>  (1) 
0

>  <num_sample>  (1) 
100

>  <b_lp_Chiralities_Consistent>  (1) 
1

>  <r_epik_Charging_Adjusted_Penalty>  (1) 
9.4165288777969193e-05

>  <r_epik_Ionization_Penalty>  (1) 
9.4165288777969193e-05

>  <r_epik_Ionization_Penalty_Charging>  (1) 
9.4165288777969193e-05

>  <r_epik_Ionization_Penalty_Neutral>  (1) 
0

>  <r_epik_State_Penalty>  (1) 
-0

>  <r_glide_ring_energy>  (1) 
0

>  <r_i_docking_score>  (1) 
-4.8085278558496416

>  <r_i_glide_ecoul>  (1) 
-4.0580647841854365

>  <r_i_glide_eff_state_penalty>  (1) 
-0

>  <r_i_glide_einternal>  (1) 
5.9031878213699898

>  <r_i_glide_emodel>  (1) 
-32.873004460195766

>  <r_i_glide_emodel_strain>  (1) 
0.89960770012284996

>  <r_i_glide_energy>  (1) 
-28.836150415421447

>  <r_i_glide_erotb>  (1) 
2.5456975872200465

>  <r_i_glide_esite>  (1) 
0

>  <r_i_glide_evdw>  (1) 
-24.77808563123601

>  <r_i_glide_gscore>  (1) 
-4.8085278558496416

>  <r_i_glide_gscore_strain>  (1) 
0

>  <r_i_glide_hbond>  (1) 
-0.31198876365655709

>  <r_i_glide_ligand_efficiency>  (1) 
-0.24042639279248207

>  <r_i_glide_ligand_efficiency_ln>  (1) 
-1.2034159264561317

>  <r_i_glide_ligand_efficiency_sa>  (1) 
-0.65261763609028012

>  <r_i_glide_lipo>  (1) 
-3.3077307871219115

>  <r_i_glide_metal>  (1) 
-0

>  <r_i_glide_rewards>  (1) 
-1.8868918931016032

>  <r_lp_Energy>  (1) 
14.488792999999999

>  <r_lp_tautomer_probability>  (1) 
1

>  <s_epik_cmdline>  (1) 
J2VwaWtfcHl0aG9uJywgJy1waHQnLCAnMS4wJywgJy1waCcsICc3LjQnLCAnLXRuJywgJzgnLCAnLW1hJywgJzUwMCcsICctaW1hZScsICc8aW5maWxlLm1hZT4nLCAnLW9tYWUnLCAnPG91dGZpbGUubWFlPic=

>  <s_epik_input>  (1) 
W0NIM11bQ0gyXVtDQEhdKFtDSDNdKVtDSDJdXFtDSF09W0NIXVxbQ0BIXTFbQ0gyXVtDSDJdW0NIMl1bQ0BAXTEoW0NIM10pXFtDSF09W0NIXVxbQ0gyXVtDSDJdQyg9TylbU0hd

>  <s_glide_docking_method>  (1) 
confgen

>  <s_i_glide_gridfile>  (1) 
gpcr_5ht2c_6bqh_protein_autoprepared_prepared

>  <s_lp_Force_Field>  (1) 
S-OPLS

>  <s_lp_Variant>  (1) 
DiffSBDD_36-1

>  <s_m_source_file>  (1) 
generated_GPCR_5HT2C_ligand_DiffSBDD_2026-06-23_prepared.sdf

>  <GenAI_Model>  (1) 
DiffSBDD

>  <Protein>  (1) 
GPCR_5HT2C

$$$$
DiffSBDD_57
     RDKit          3D

  0  0  0  0  0  0  0  0  0  0999 V3000
M  V30 BEGIN CTAB
M  V30 COUNTS 64 66 0 0 1
M  V30 BEGIN ATOM
M  V30 1 O 40.215536 31.011293 61.536921 0
M  V30 2 C 37.595103 35.347351 61.523736 0
M  V30 3 C 41.234649 28.741346 63.181298 0
M  V30 4 C 37.912951 32.855946 61.167778 0 CFG=2
M  V30 5 C 38.745954 30.658219 56.319763 0
M  V30 6 S 39.194686 35.227653 60.711265 0
M  V30 7 O 39.253658 29.699998 56.907544 0
M  V30 8 C 36.885293 33.998775 61.360037 0
M  V30 9 N 39.325160 26.894054 55.991087 0
M  V30 10 C 41.070547 29.403447 65.638656 0 CFG=2
M  V30 11 N 38.528933 31.844695 56.900311 0
M  V30 12 C 39.645817 31.352136 62.571023 0
M  V30 13 O 42.464323 29.460597 65.972565 0
M  V30 14 C 38.527788 32.420866 62.507280 0
M  V30 15 C 38.658944 33.254379 58.809471 0
M  V30 16 C 39.244861 28.206026 53.986648 0 CFG=2
M  V30 17 O 41.260210 30.305269 67.798368 0
M  V30 18 C 38.844677 32.074702 58.215221 0
M  V30 19 C 38.408968 27.442060 55.000193 0 CFG=1
M  V30 20 C 38.992143 33.489876 60.251627 0 CFG=2
M  V30 21 C 37.123650 31.627448 60.620712 0
M  V30 22 C 39.298489 29.724724 54.030946 0 CFG=2
M  V30 23 C 40.743900 29.700204 64.209490 0
M  V30 24 C 38.327334 30.533114 54.867225 0 CFG=2
M  V30 25 C 38.733738 29.047480 52.823427 0
M  V30 26 N 41.544176 30.541640 66.408992 0
M  V30 27 N 42.454155 28.126123 63.367705 0
M  V30 28 C 37.687839 26.315989 54.293668 0
M  V30 29 O 36.845200 26.936677 53.367729 0
M  V30 30 O 38.517332 26.559645 57.147765 0
M  V30 31 C 40.508611 28.437503 62.085905 0
M  V30 32 C 39.997432 30.833997 63.938161 0
M  V30 33 Cl 38.147004 32.137795 54.167732 0
M  V30 34 H 37.012260 36.159831 61.091767 0
M  V30 35 H 37.768443 35.602038 62.567762 0
M  V30 36 H 36.275336 34.068126 60.458843 0
M  V30 37 H 36.182134 33.807677 62.168111 0
M  V30 38 H 39.924187 27.625370 56.357573 0
M  V30 39 H 40.492135 28.612370 66.113435 0
M  V30 40 H 38.106162 32.598406 56.374332 0
M  V30 41 H 37.666452 31.964026 62.967753 0
M  V30 42 H 38.844248 33.289393 63.082859 0
M  V30 43 H 38.248217 34.085781 58.254374 0
M  V30 44 H 40.044978 27.573599 53.614776 0
M  V30 45 H 42.059072 29.879658 68.074819 0
M  V30 46 H 39.245137 31.215137 58.730751 0
M  V30 47 H 37.679174 28.090896 55.483119 0
M  V30 48 H 39.980409 33.056619 60.380790 0
M  V30 49 H 36.581492 31.852452 59.700549 0
M  V30 50 H 37.767799 30.769927 60.427912 0
M  V30 51 H 36.364742 31.296391 61.329871 0
M  V30 52 H 40.288599 30.166074 53.935755 0
M  V30 53 H 37.331433 30.092403 54.838695 0
M  V30 54 H 37.665832 29.154413 52.659102 0
M  V30 55 H 39.333389 29.069429 51.917231 0
M  V30 56 H 43.068031 28.412695 64.119939 0
M  V30 57 H 38.429073 25.737246 53.760332 0
M  V30 58 H 37.127384 25.668500 54.966307 0
M  V30 59 H 36.596800 26.313506 52.691369 0
M  V30 60 H 38.298415 27.415732 57.493259 0
M  V30 61 H 40.883345 27.738487 61.351968 0
M  V30 62 H 39.536546 28.865495 61.911438 0
M  V30 63 H 39.645230 31.420230 64.771789 0
M  V30 64 H 42.900435 27.610922 62.614135 0
M  V30 END ATOM
M  V30 BEGIN BOND
M  V30 1 1 6 2
M  V30 2 2 7 5
M  V30 3 1 8 2
M  V30 4 1 8 4
M  V30 5 1 11 5
M  V30 6 2 12 1
M  V30 7 1 13 10
M  V30 8 1 4 14 CFG=1
M  V30 9 1 14 12
M  V30 10 1 18 11
M  V30 11 2 18 15
M  V30 12 1 19 9
M  V30 13 1 19 16
M  V30 14 1 20 4
M  V30 15 1 20 6
M  V30 16 1 20 15
M  V30 17 1 21 4
M  V30 18 1 22 16
M  V30 19 1 23 3
M  V30 20 1 23 10
M  V30 21 1 24 5
M  V30 22 1 24 22
M  V30 23 1 25 16
M  V30 24 1 25 22
M  V30 25 1 26 10
M  V30 26 1 26 13
M  V30 27 1 26 17
M  V30 28 1 27 3
M  V30 29 1 28 19
M  V30 30 1 29 28
M  V30 31 1 30 9
M  V30 32 2 31 3
M  V30 33 1 32 12
M  V30 34 2 32 23
M  V30 35 1 33 24
M  V30 36 1 34 2
M  V30 37 1 35 2
M  V30 38 1 36 8
M  V30 39 1 37 8
M  V30 40 1 38 9
M  V30 41 1 10 39 CFG=1
M  V30 42 1 40 11
M  V30 43 1 41 14
M  V30 44 1 42 14
M  V30 45 1 43 15
M  V30 46 1 16 44 CFG=3
M  V30 47 1 45 17
M  V30 48 1 46 18
M  V30 49 1 19 47 CFG=1
M  V30 50 1 20 48 CFG=1
M  V30 51 1 49 21
M  V30 52 1 50 21
M  V30 53 1 51 21
M  V30 54 1 22 52 CFG=3
M  V30 55 1 24 53 CFG=1
M  V30 56 1 54 25
M  V30 57 1 55 25
M  V30 58 1 56 27
M  V30 59 1 57 28
M  V30 60 1 58 28
M  V30 61 1 59 29
M  V30 62 1 60 30
M  V30 63 1 61 31
M  V30 64 1 62 31
M  V30 65 1 63 32
M  V30 66 1 64 27
M  V30 END BOND
M  V30 END CTAB
M  END
>  <i_epik_Tot_Q>  (1) 
0

>  <i_epik_Tot_abs_Q>  (1) 
0

>  <i_i_glide_confnum>  (1) 
1661

>  <i_i_glide_lignum>  (1) 
128

>  <i_i_glide_posenum>  (1) 
14

>  <i_i_glide_rotatable_bonds>  (1) 
16

>  <i_lp_mmshare_version>  (1) 
72125

>  <i_m_source_file_index>  (1) 
58

>  <i_f3d_flags>  (1) 
0

>  <num_sample>  (1) 
100

>  <b_lp_Chiralities_Consistent>  (1) 
1

>  <r_epik_Charging_Adjusted_Penalty>  (1) 
0.024416195549470061

>  <r_epik_Ionization_Penalty>  (1) 
0.014246986074461085

>  <r_epik_Ionization_Penalty_Charging>  (1) 
6.6592516266621022e-05

>  <r_epik_Ionization_Penalty_Neutral>  (1) 
0.014180393558194464

>  <r_epik_State_Penalty>  (1) 
0.024349603033203441

>  <r_glide_ring_energy>  (1) 
0.20502008593199658

>  <r_i_docking_score>  (1) 
-4.800762138989672

>  <r_i_glide_ecoul>  (1) 
-7.2963525958485898

>  <r_i_glide_eff_state_penalty>  (1) 
0.024349603033203441

>  <r_i_glide_einternal>  (1) 
17.56081531613431

>  <r_i_glide_emodel>  (1) 
-35.690624208062609

>  <r_i_glide_emodel_strain>  (1) 
4.6369766403600181

>  <r_i_glide_energy>  (1) 
-37.163191751298619

>  <r_i_glide_erotb>  (1) 
1.0500022235395752

>  <r_i_glide_esite>  (1) 
-0.11129154297284685

>  <r_i_glide_evdw>  (1) 
-29.866839155450027

>  <r_i_glide_gscore>  (1) 
-4.8251117420228757

>  <r_i_glide_gscore_strain>  (1) 
0.15924416009000453

>  <r_i_glide_hbond>  (1) 
-0.50647664208848286

>  <r_i_glide_ligand_efficiency>  (1) 
-0.1454776405754446

>  <r_i_glide_ligand_efficiency_ln>  (1) 
-1.0676646426952663

>  <r_i_glide_ligand_efficiency_sa>  (1) 
-0.46662452639253238

>  <r_i_glide_lipo>  (1) 
-2.0767280981009177

>  <r_i_glide_metal>  (1) 
-0

>  <r_i_glide_rewards>  (1) 
-0.75206699534041754

>  <r_lp_Energy>  (1) 
18.870881999999998

>  <s_epik_Chemistry_Notes>  (1) 
This compound has an imine and may undergo hydrolysis. This compound contains an acetal/aminal-like group ( X-CH(R)-Y where X, Y are N, S, or O) that may be acid/base labile, releasing an aldehyde. This compound has a N-S or N-O group and may undergo hydrolysis at high or low pH.

>  <s_epik_cmdline>  (1) 
J2VwaWtfcHl0aG9uJywgJy1waHQnLCAnMS4wJywgJy1waCcsICc3LjQnLCAnLXRuJywgJzgnLCAnLW1hJywgJzUwMCcsICctaW1hZScsICc8aW5maWxlLm1hZT4nLCAnLW9tYWUnLCAnPG91dGZpbGUubWFlPic=

>  <s_epik_input>  (1) 
W09IXU4xT1tDQEBIXTFDKC9DKD1OL1tIXSlbQ0gzXSk9W0NIXS9DKD1PKVtDSDJdW0NAQF0yKFtDSDNdKVtDSDJdW0NIMl1TW0NAQEhdMi9bQ0hdPVtDSF0vW05IXUMoPU8pW0NAQEhdKENsKVtDQEhdKFtDSDJdMylbQ0BIXTNbQ0BIXShbTkhdW09IXSlbQ0gyXVtPSF0=

>  <s_glide_docking_method>  (1) 
confgen

>  <s_i_glide_gridfile>  (1) 
gpcr_5ht2c_6bqh_protein_autoprepared_prepared

>  <s_lp_Force_Field>  (1) 
S-OPLS

>  <s_lp_Variant>  (1) 
DiffSBDD_57-4

>  <s_m_source_file>  (1) 
generated_GPCR_5HT2C_ligand_DiffSBDD_2026-06-23_prepared.sdf

>  <GenAI_Model>  (1) 
DiffSBDD

>  <Protein>  (1) 
GPCR_5HT2C

$$$$
DiffSBDD_83
     RDKit          3D

  0  0  0  0  0  0  0  0  0  0999 V3000
M  V30 BEGIN CTAB
M  V30 COUNTS 54 55 0 0 1
M  V30 BEGIN ATOM
M  V30 1 C 39.618600 29.030898 51.715929 0
M  V30 2 C 38.845121 30.173963 59.592481 0
M  V30 3 N 38.445096 28.901971 59.580363 0
M  V30 4 O 36.037177 33.248500 60.148773 0
M  V30 5 O 39.931911 30.217092 51.174102 0
M  V30 6 C 38.907344 28.106410 53.927440 0
M  V30 7 C 38.902670 26.671002 53.413313 0
M  V30 8 C 36.264238 35.427241 59.796414 0
M  V30 9 C 40.910402 36.199967 61.679395 0
M  V30 10 C 39.235639 29.177806 53.148451 0
M  V30 11 C 39.235426 30.814720 60.897103 0
M  V30 12 C 38.263282 29.667166 55.985656 0
M  V30 13 N 38.207977 28.662128 58.282409 0
M  V30 14 O 40.286160 30.138089 49.767732 0
M  V30 15 C 38.308700 33.251296 61.039317 0 CFG=1
M  V30 16 C 40.511949 33.318527 62.498657 0
M  V30 17 C 35.765502 34.311351 59.391690 0
M  V30 18 O 39.644662 27.966204 51.095423 0
M  V30 19 C 36.887493 33.883747 61.147304 0 CFG=1
M  V30 20 C 38.845107 30.751947 58.278516 0
M  V30 21 O 36.971563 35.318076 60.921355 0
M  V30 22 C 39.953664 35.234818 60.962280 0
M  V30 23 C 39.353295 34.112617 61.850791 0 CFG=1
M  V30 24 C 38.442002 29.732713 57.471099 0
M  V30 25 Cl 36.045553 36.924073 58.967872 0
M  V30 26 C 38.520871 28.255425 55.401070 0
M  V30 27 C 38.162942 31.762300 61.469315 0
M  V30 28 H 37.895717 27.756391 57.963443 0
M  V30 29 H 38.648862 25.973255 54.211225 0
M  V30 30 H 38.162572 26.538218 52.623882 0
M  V30 31 H 39.887928 26.381915 53.045537 0
M  V30 32 H 41.244953 36.980816 60.998504 0
M  V30 33 H 40.424749 36.682250 62.527799 0
M  V30 34 H 41.808325 35.703760 62.040713 0
M  V30 35 H 39.228350 30.173598 53.557491 0
M  V30 36 H 39.426427 30.032910 61.633845 0
M  V30 37 H 40.186485 31.322892 60.765834 0
M  V30 38 H 38.966735 30.390623 55.580343 0
M  V30 39 H 37.267103 30.017944 55.711112 0
M  V30 40 H 39.425838 30.136374 49.368628 0
M  V30 41 H 38.578917 33.270261 59.982386 0
M  V30 42 H 41.234168 32.976142 61.758206 0
M  V30 43 H 41.057349 33.938741 63.209520 0
M  V30 44 H 40.172001 32.461595 63.076738 0
M  V30 45 H 35.159262 34.112873 58.519775 0
M  V30 46 H 36.445141 33.724706 62.132062 0
M  V30 47 H 39.116273 31.754215 57.981263 0
M  V30 48 H 40.444940 34.790192 60.103498 0
M  V30 49 H 39.171295 35.850626 60.528478 0
M  V30 50 H 38.845150 34.595668 62.680329 0
M  V30 51 H 37.649582 27.630261 55.601757 0
M  V30 52 H 39.352230 27.802450 55.942909 0
M  V30 53 H 37.188438 31.356180 61.195445 0
M  V30 54 H 38.172296 31.711141 62.557354 0
M  V30 END ATOM
M  V30 BEGIN BOND
M  V30 1 2 3 2
M  V30 2 1 5 1
M  V30 3 1 7 6
M  V30 4 1 10 1
M  V30 5 2 10 6
M  V30 6 1 11 2
M  V30 7 1 13 3
M  V30 8 1 14 5
M  V30 9 1 17 4
M  V30 10 2 17 8
M  V30 11 2 18 1
M  V30 12 1 19 4
M  V30 13 1 19 15
M  V30 14 1 20 2
M  V30 15 1 21 8
M  V30 16 1 21 19
M  V30 17 1 22 9
M  V30 18 1 23 15
M  V30 19 1 23 16
M  V30 20 1 23 22
M  V30 21 1 24 12
M  V30 22 1 24 13
M  V30 23 2 24 20
M  V30 24 1 25 8
M  V30 25 1 26 6
M  V30 26 1 26 12
M  V30 27 1 27 11
M  V30 28 1 27 15
M  V30 29 1 28 13
M  V30 30 1 29 7
M  V30 31 1 30 7
M  V30 32 1 31 7
M  V30 33 1 32 9
M  V30 34 1 33 9
M  V30 35 1 34 9
M  V30 36 1 35 10
M  V30 37 1 36 11
M  V30 38 1 37 11
M  V30 39 1 38 12
M  V30 40 1 39 12
M  V30 41 1 40 14
M  V30 42 1 15 41 CFG=3
M  V30 43 1 42 16
M  V30 44 1 43 16
M  V30 45 1 44 16
M  V30 46 1 45 17
M  V30 47 1 19 46 CFG=1
M  V30 48 1 47 20
M  V30 49 1 48 22
M  V30 50 1 49 22
M  V30 51 1 23 50 CFG=1
M  V30 52 1 51 26
M  V30 53 1 52 26
M  V30 54 1 53 27
M  V30 55 1 54 27
M  V30 END BOND
M  V30 END CTAB
M  END
>  <i_epik_Tot_Q>  (1) 
0

>  <i_epik_Tot_abs_Q>  (1) 
0

>  <i_i_glide_confnum>  (1) 
1160

>  <i_i_glide_lignum>  (1) 
195

>  <i_i_glide_posenum>  (1) 
93

>  <i_i_glide_rotatable_bonds>  (1) 
12

>  <i_lp_mmshare_version>  (1) 
72125

>  <i_m_source_file_index>  (1) 
84

>  <i_f3d_flags>  (1) 
0

>  <num_sample>  (1) 
100

>  <b_lp_Chiralities_Consistent>  (1) 
1

>  <r_epik_Charging_Adjusted_Penalty>  (1) 
0.41067983895260396

>  <r_epik_Ionization_Penalty>  (1) 
0.00090540554532319911

>  <r_epik_Ionization_Penalty_Charging>  (1) 
0

>  <r_epik_Ionization_Penalty_Neutral>  (1) 
0.00090540554532319911

>  <r_epik_State_Penalty>  (1) 
0.41067983895260396

>  <r_glide_ring_energy>  (1) 
0

>  <r_i_docking_score>  (1) 
-4.7884863873512602

>  <r_i_glide_ecoul>  (1) 
-1.1274373901416306

>  <r_i_glide_eff_state_penalty>  (1) 
0.41067983895260396

>  <r_i_glide_einternal>  (1) 
5.8892340937388754

>  <r_i_glide_emodel>  (1) 
-50.030892449901877

>  <r_i_glide_emodel_strain>  (1) 
1.6626813429012159

>  <r_i_glide_energy>  (1) 
-41.65740135358962

>  <r_i_glide_erotb>  (1) 
1.1080255732668134

>  <r_i_glide_esite>  (1) 
0

>  <r_i_glide_evdw>  (1) 
-40.52996396344799

>  <r_i_glide_gscore>  (1) 
-5.1991662263038645

>  <r_i_glide_gscore_strain>  (1) 
0

>  <r_i_glide_hbond>  (1) 
-0.24087814190752832

>  <r_i_glide_ligand_efficiency>  (1) 
-0.17735134767967631

>  <r_i_glide_ligand_efficiency_ln>  (1) 
-1.1146806866074404

>  <r_i_glide_ligand_efficiency_sa>  (1) 
-0.53205404303902903

>  <r_i_glide_lipo>  (1) 
-2.2309806229265488

>  <r_i_glide_metal>  (1) 
-0

>  <r_i_glide_rewards>  (1) 
-1.6397192280429576

>  <r_lp_Energy>  (1) 
13.076443999999999

>  <r_lp_tautomer_probability>  (1) 
0.5

>  <s_epik_Chemistry_Notes>  (1) 
This compound contains an acetal/aminal-like group ( X-CH(R)-Y where X, Y are N, S, or O) that may be acid/base labile, releasing an aldehyde.

>  <s_epik_cmdline>  (1) 
J2VwaWtfcHl0aG9uJywgJy1waHQnLCAnMS4wJywgJy1waCcsICc3LjQnLCAnLXRuJywgJzgnLCAnLW1hJywgJzUwMCcsICctaW1hZScsICc8aW5maWxlLm1hZT4nLCAnLW9tYWUnLCAnPG91dGZpbGUubWFlPic=

>  <s_epik_input>  (1) 
W09IXU9DKD1PKS9bQ0hdPUMoXFtDSDNdKVtDSDJdW0NIMl1jKFtjSF0xKW5bbkhdYzFbQ0gyXVtDSDJdW0NASF0oW0NAQEhdKFtDSDNdKVtDSDJdW0NIM10pW0NAQEhdKE8yKU9bQ0hdPUMyQ2w=

>  <s_glide_docking_method>  (1) 
confgen

>  <s_i_glide_gridfile>  (1) 
gpcr_5ht2c_6bqh_protein_autoprepared_prepared

>  <s_lp_Force_Field>  (1) 
S-OPLS

>  <s_lp_Variant>  (1) 
DiffSBDD_83-6

>  <s_m_source_file>  (1) 
generated_GPCR_5HT2C_ligand_DiffSBDD_2026-06-23_prepared.sdf

>  <GenAI_Model>  (1) 
DiffSBDD

>  <Protein>  (1) 
GPCR_5HT2C

$$$$
DiffSBDD_36
     RDKit          3D

  0  0  0  0  0  0  0  0  0  0999 V3000
M  V30 BEGIN CTAB
M  V30 COUNTS 49 49 0 0 1
M  V30 BEGIN ATOM
M  V30 1 C 39.248990 28.527593 55.167676 0
M  V30 2 C 39.856604 26.618395 58.388353 0
M  V30 3 C 40.944989 28.349118 57.058429 0
M  V30 4 C 38.049631 25.930396 56.753773 0
M  V30 5 C 38.028679 31.443414 61.026409 0
M  V30 6 C 38.898259 27.103003 57.281913 0 CFG=1
M  V30 7 C 41.085438 27.536713 58.347345 0
M  V30 8 C 40.363952 28.731723 51.120016 0
M  V30 9 C 39.101154 28.194709 53.877770 0
M  V30 10 C 38.445478 29.092755 52.843049 0
M  V30 11 O 37.098291 31.739053 61.767772 0
M  V30 12 C 37.952201 28.873542 58.869973 0
M  V30 13 C 36.999940 30.001476 59.210953 0
M  V30 14 C 37.952809 28.242616 57.683436 0
M  V30 15 C 39.889326 27.625208 56.216059 0 CFG=1
M  V30 16 C 39.644741 27.500428 50.567813 0
M  V30 17 S 39.692129 31.148732 61.461761 0 CHG=-1
M  V30 18 C 37.727709 31.313628 59.541443 0
M  V30 19 C 40.157559 30.910308 52.425936 0
M  V30 20 C 39.418273 29.717111 51.814196 0 CFG=1
M  V30 21 H 38.895704 29.489903 55.510342 0
M  V30 22 H 39.392222 26.561440 59.367747 0
M  V30 23 H 40.190802 25.605362 58.159189 0
M  V30 24 H 40.568541 29.337663 57.323505 0
M  V30 25 H 41.896138 28.474449 56.543293 0
M  V30 26 H 38.673750 25.110429 56.396088 0
M  V30 27 H 37.401032 25.535157 57.536606 0
M  V30 28 H 37.412878 26.241447 55.924282 0
M  V30 29 H 41.125394 28.196202 59.215792 0
M  V30 30 H 42.003429 26.947207 58.341628 0
M  V30 31 H 40.845061 29.258606 50.295274 0
M  V30 32 H 41.175691 28.422414 51.767683 0
M  V30 33 H 39.456784 27.235844 53.531693 0
M  V30 34 H 37.678605 28.509198 52.332306 0
M  V30 35 H 37.906880 29.883633 53.367682 0
M  V30 36 H 38.653792 28.587811 59.637463 0
M  V30 37 H 36.344679 30.162921 58.354051 0
M  V30 38 H 36.347885 29.710316 60.032546 0
M  V30 39 H 37.245023 28.548794 56.935350 0
M  V30 40 H 40.365393 26.776614 55.720392 0
M  V30 41 H 40.376558 26.820965 50.148836 0
M  V30 42 H 39.110261 26.936572 51.329432 0
M  V30 43 H 38.926787 27.781295 49.798164 0
M  V30 44 H 38.605187 31.446277 58.904673 0
M  V30 45 H 37.066244 32.142315 59.284276 0
M  V30 46 H 40.718783 30.627706 53.316434 0
M  V30 47 H 40.847975 31.337903 51.703390 0
M  V30 48 H 39.460295 31.695617 52.718399 0
M  V30 49 H 38.845167 30.117380 50.981305 0
M  V30 END ATOM
M  V30 BEGIN BOND
M  V30 1 1 6 2
M  V30 2 1 6 4 CFG=3
M  V30 3 1 7 2
M  V30 4 1 7 3
M  V30 5 2 9 1
M  V30 6 1 10 9
M  V30 7 2 11 5
M  V30 8 1 13 12
M  V30 9 1 14 6
M  V30 10 2 14 12
M  V30 11 1 15 1
M  V30 12 1 15 3
M  V30 13 1 15 6
M  V30 14 1 16 8
M  V30 15 1 17 5
M  V30 16 1 18 5
M  V30 17 1 18 13
M  V30 18 1 20 8
M  V30 19 1 20 10
M  V30 20 1 20 19
M  V30 21 1 21 1
M  V30 22 1 22 2
M  V30 23 1 23 2
M  V30 24 1 24 3
M  V30 25 1 25 3
M  V30 26 1 26 4
M  V30 27 1 27 4
M  V30 28 1 28 4
M  V30 29 1 29 7
M  V30 30 1 30 7
M  V30 31 1 31 8
M  V30 32 1 32 8
M  V30 33 1 33 9
M  V30 34 1 34 10
M  V30 35 1 35 10
M  V30 36 1 36 12
M  V30 37 1 37 13
M  V30 38 1 38 13
M  V30 39 1 39 14
M  V30 40 1 15 40 CFG=3
M  V30 41 1 41 16
M  V30 42 1 42 16
M  V30 43 1 43 16
M  V30 44 1 44 18
M  V30 45 1 45 18
M  V30 46 1 46 19
M  V30 47 1 47 19
M  V30 48 1 48 19
M  V30 49 1 20 49 CFG=3
M  V30 END BOND
M  V30 END CTAB
M  END
>  <i_epik_Tot_Q>  (1) 
-1

>  <i_epik_Tot_abs_Q>  (1) 
1

>  <i_i_glide_confnum>  (1) 
407

>  <i_i_glide_lignum>  (1) 
80

>  <i_i_glide_posenum>  (1) 
349

>  <i_i_glide_rotatable_bonds>  (1) 
8

>  <i_lp_mmshare_version>  (1) 
72125

>  <i_m_source_file_index>  (1) 
37

>  <i_f3d_flags>  (1) 
0

>  <num_sample>  (1) 
100

>  <b_lp_Chiralities_Consistent>  (1) 
1

>  <r_epik_Charging_Adjusted_Penalty>  (1) 
9.4165288777969193e-05

>  <r_epik_Ionization_Penalty>  (1) 
9.4165288777969193e-05

>  <r_epik_Ionization_Penalty_Charging>  (1) 
9.4165288777969193e-05

>  <r_epik_Ionization_Penalty_Neutral>  (1) 
0

>  <r_epik_State_Penalty>  (1) 
-0

>  <r_glide_ring_energy>  (1) 
0

>  <r_i_docking_score>  (1) 
-4.7840722586567708

>  <r_i_glide_ecoul>  (1) 
-3.4753796621308535

>  <r_i_glide_eff_state_penalty>  (1) 
-0

>  <r_i_glide_einternal>  (1) 
5.8059757641965231

>  <r_i_glide_emodel>  (1) 
-33.115214464705019

>  <r_i_glide_emodel_strain>  (1) 
0.30793575795664552

>  <r_i_glide_energy>  (1) 
-28.478200156203869

>  <r_i_glide_erotb>  (1) 
2.5456975872200465

>  <r_i_glide_esite>  (1) 
0

>  <r_i_glide_evdw>  (1) 
-25.002820494073013

>  <r_i_glide_gscore>  (1) 
-4.7840722586567708

>  <r_i_glide_gscore_strain>  (1) 
0

>  <r_i_glide_hbond>  (1) 
-0.32000000000000001

>  <r_i_glide_ligand_efficiency>  (1) 
-0.23920361293283854

>  <r_i_glide_ligand_efficiency_ln>  (1) 
-1.1972954970783349

>  <r_i_glide_ligand_efficiency_sa>  (1) 
-0.64929850089804619

>  <r_i_glide_lipo>  (1) 
-3.1142340351851265

>  <r_i_glide_metal>  (1) 
-0

>  <r_i_glide_rewards>  (1) 
-2.1240878366684113

>  <r_lp_Energy>  (1) 
14.488792999999999

>  <r_lp_tautomer_probability>  (1) 
1

>  <s_epik_cmdline>  (1) 
J2VwaWtfcHl0aG9uJywgJy1waHQnLCAnMS4wJywgJy1waCcsICc3LjQnLCAnLXRuJywgJzgnLCAnLW1hJywgJzUwMCcsICctaW1hZScsICc8aW5maWxlLm1hZT4nLCAnLW9tYWUnLCAnPG91dGZpbGUubWFlPic=

>  <s_epik_input>  (1) 
W0NIM11bQ0gyXVtDQEhdKFtDSDNdKVtDSDJdXFtDSF09W0NIXVxbQ0BIXTFbQ0gyXVtDSDJdW0NIMl1bQ0BAXTEoW0NIM10pXFtDSF09W0NIXVxbQ0gyXVtDSDJdQyg9TylbU0hd

>  <s_glide_docking_method>  (1) 
confgen

>  <s_i_glide_gridfile>  (1) 
gpcr_5ht2c_6bqh_protein_autoprepared_prepared

>  <s_lp_Force_Field>  (1) 
S-OPLS

>  <s_lp_Variant>  (1) 
DiffSBDD_36-1

>  <s_m_source_file>  (1) 
generated_GPCR_5HT2C_ligand_DiffSBDD_2026-06-23_prepared.sdf

>  <GenAI_Model>  (1) 
DiffSBDD

>  <Protein>  (1) 
GPCR_5HT2C

$$$$
DiffSBDD_90
     RDKit          3D

  0  0  0  0  0  0  0  0  0  0999 V3000
M  V30 BEGIN CTAB
M  V30 COUNTS 54 56 0 0 1
M  V30 BEGIN ATOM
M  V30 1 Cl 42.867977 30.602258 64.702724 0
M  V30 2 O 35.645765 34.805991 59.817265 0
M  V30 3 C 39.983238 31.985460 61.461975 0
M  V30 4 C 41.774734 31.128394 63.474849 0
M  V30 5 C 38.738418 30.429252 56.967769 0 CFG=1
M  V30 6 C 36.913149 35.276664 59.440250 0 CFG=1
M  V30 7 C 38.107344 28.349554 54.974832 0
M  V30 8 O 37.645241 32.653408 57.306786 0
M  V30 9 C 33.774411 33.337781 59.608153 0
M  V30 10 C 38.314227 31.475085 59.414721 0 CFG=1
M  V30 11 C 41.108153 30.179667 62.675843 0
M  V30 12 O 36.866648 36.681626 59.307067 0
M  V30 13 C 39.387114 31.737818 54.837095 0
M  V30 14 C 40.214287 30.599199 61.671135 0
M  V30 15 C 37.927946 29.170639 57.354465 0
M  V30 16 C 38.684913 33.740823 60.343304 0
M  V30 17 C 36.808973 31.383058 59.713138 0
M  V30 18 C 38.527003 30.644500 55.440770 0 CFG=1
M  V30 19 C 38.044725 34.885457 60.407796 0
M  V30 20 C 38.274972 27.979717 56.451136 0
M  V30 21 F 42.187721 33.416469 64.044595 0
M  V30 22 C 40.659490 32.935172 62.274159 0
M  V30 23 O 38.319229 35.902612 61.243798 0
M  V30 24 C 35.250286 33.483096 59.767770 0
M  V30 25 C 38.548179 31.716492 57.868873 0 CFG=1
M  V30 26 C 41.549333 32.504503 63.273653 0
M  V30 27 C 36.025764 32.429016 59.820441 0
M  V30 28 O 38.913346 29.481623 54.710298 0
M  V30 29 O 36.425668 30.106538 59.767894 0
M  V30 30 C 39.013225 32.464084 60.401092 0
M  V30 31 H 39.783146 30.145526 57.101999 0
M  V30 32 H 37.138715 34.888217 58.447661 0
M  V30 33 H 38.431430 27.524484 54.339921 0
M  V30 34 H 37.070272 28.566253 54.716230 0
M  V30 35 H 36.758484 32.268600 57.203995 0
M  V30 36 H 33.645033 32.385548 59.096992 0
M  V30 37 H 33.267815 33.337805 60.567577 0
M  V30 38 H 33.363924 34.129014 58.980048 0
M  V30 39 H 38.757908 30.506795 59.552075 0
M  V30 40 H 41.280702 29.125580 62.836026 0
M  V30 41 H 37.116223 37.028498 60.152448 0
M  V30 42 H 39.126504 32.725827 55.212945 0
M  V30 43 H 40.444948 31.569773 55.041488 0
M  V30 44 H 39.259530 31.759543 53.753419 0
M  V30 45 H 39.710634 29.857054 61.083274 0
M  V30 46 H 38.143606 28.847528 58.369148 0
M  V30 47 H 36.859820 29.383489 57.284916 0
M  V30 48 H 37.479003 30.871142 55.233297 0
M  V30 49 H 39.307468 27.677172 56.629940 0
M  V30 50 H 37.650275 27.120723 56.699252 0
M  V30 51 H 40.496627 33.991893 62.132882 0
M  V30 52 H 39.019868 35.622866 61.812676 0
M  V30 53 H 39.483714 32.263011 57.767409 0
M  V30 54 H 37.180307 29.573368 59.579692 0
M  V30 END ATOM
M  V30 BEGIN BOND
M  V30 1 1 4 1
M  V30 2 1 6 2
M  V30 3 1 11 4
M  V30 4 1 12 6
M  V30 5 1 14 3
M  V30 6 2 14 11
M  V30 7 1 15 5
M  V30 8 1 17 10
M  V30 9 1 18 5
M  V30 10 1 18 13
M  V30 11 1 19 6
M  V30 12 2 19 16
M  V30 13 1 20 7
M  V30 14 1 20 15
M  V30 15 2 22 3
M  V30 16 1 23 19
M  V30 17 1 24 2
M  V30 18 1 24 9
M  V30 19 1 25 5
M  V30 20 1 25 8
M  V30 21 1 25 10
M  V30 22 2 26 4
M  V30 23 1 26 21
M  V30 24 1 26 22
M  V30 25 2 27 17
M  V30 26 2 27 24
M  V30 27 1 28 7
M  V30 28 1 28 18
M  V30 29 1 29 17
M  V30 30 1 30 3
M  V30 31 1 30 10
M  V30 32 2 30 16
M  V30 33 1 5 31 CFG=3
M  V30 34 1 6 32 CFG=3
M  V30 35 1 33 7
M  V30 36 1 34 7
M  V30 37 1 35 8
M  V30 38 1 36 9
M  V30 39 1 37 9
M  V30 40 1 38 9
M  V30 41 1 10 39 CFG=1
M  V30 42 1 40 11
M  V30 43 1 41 12
M  V30 44 1 42 13
M  V30 45 1 43 13
M  V30 46 1 44 13
M  V30 47 1 45 14
M  V30 48 1 46 15
M  V30 49 1 47 15
M  V30 50 1 18 48 CFG=1
M  V30 51 1 49 20
M  V30 52 1 50 20
M  V30 53 1 51 22
M  V30 54 1 52 23
M  V30 55 1 25 53 CFG=1
M  V30 56 1 54 29
M  V30 END BOND
M  V30 END CTAB
M  END
>  <i_epik_Tot_Q>  (1) 
0

>  <i_epik_Tot_abs_Q>  (1) 
0

>  <i_i_glide_confnum>  (1) 
11

>  <i_i_glide_lignum>  (1) 
210

>  <i_i_glide_posenum>  (1) 
219

>  <i_i_glide_rotatable_bonds>  (1) 
7

>  <i_lp_mmshare_version>  (1) 
72125

>  <i_m_source_file_index>  (1) 
91

>  <i_f3d_flags>  (1) 
0

>  <num_sample>  (1) 
100

>  <b_lp_Chiralities_Consistent>  (1) 
1

>  <r_epik_Charging_Adjusted_Penalty>  (1) 
0

>  <r_epik_Ionization_Penalty>  (1) 
0.00021640466764567947

>  <r_epik_Ionization_Penalty_Charging>  (1) 
0

>  <r_epik_Ionization_Penalty_Neutral>  (1) 
0.00021640466764567947

>  <r_epik_State_Penalty>  (1) 
-0

>  <r_glide_ring_energy>  (1) 
0

>  <r_i_docking_score>  (1) 
-4.7750557151518151

>  <r_i_glide_ecoul>  (1) 
-5.5831989810117237

>  <r_i_glide_eff_state_penalty>  (1) 
-0

>  <r_i_glide_einternal>  (1) 
9.7241576581466163

>  <r_i_glide_emodel>  (1) 
-37.695197771069488

>  <r_i_glide_emodel_strain>  (1) 
7.267973541343423

>  <r_i_glide_energy>  (1) 
-42.716363053424125

>  <r_i_glide_erotb>  (1) 
0.31077181142347338

>  <r_i_glide_esite>  (1) 
0

>  <r_i_glide_evdw>  (1) 
-37.133164072412399

>  <r_i_glide_gscore>  (1) 
-4.7750557151518151

>  <r_i_glide_gscore_strain>  (1) 
0.81699338533585575

>  <r_i_glide_hbond>  (1) 
-0.14911204044600343

>  <r_i_glide_ligand_efficiency>  (1) 
-0.15916852383839383

>  <r_i_glide_ligand_efficiency_ln>  (1) 
-1.0849446868816568

>  <r_i_glide_ligand_efficiency_sa>  (1) 
-0.49457361119534904

>  <r_i_glide_lipo>  (1) 
-1.674838054220116

>  <r_i_glide_metal>  (1) 
-0

>  <r_i_glide_rewards>  (1) 
-1.3847327664726454

>  <r_lp_Energy>  (1) 
4.0027919999999995

>  <r_lp_tautomer_probability>  (1) 
1

>  <s_epik_Chemistry_Notes>  (1) 
This compound contains an acetal/aminal-like group ( X-CH(R)-Y where X, Y are N, S, or O) that may be acid/base labile, releasing an aldehyde.

>  <s_epik_cmdline>  (1) 
J2VwaWtfcHl0aG9uJywgJy1waHQnLCAnMS4wJywgJy1waCcsICc3LjQnLCAnLXRuJywgJzgnLCAnLW1hJywgJzUwMCcsICctaW1hZScsICc8aW5maWxlLm1hZT4nLCAnLW9tYWUnLCAnPG91dGZpbGUubWFlPic=

>  <s_epik_input>  (1) 
RmMoW2NIXTEpYyhDbClbY0hdW2NIXWMxQyg9Qz1DMltPSF0pW0NAQEhdKEMoW09IXSk9Qz1DKFtDSDNdKU9bQ0BIXTJbT0hdKVtDQEhdKFtPSF0pW0NASF0zW0NIMl1bQ0gyXVtDSDJdT1tDQEBIXTNbQ0gzXQ==

>  <s_glide_docking_method>  (1) 
confgen

>  <s_i_glide_gridfile>  (1) 
gpcr_5ht2c_6bqh_protein_autoprepared_prepared

>  <s_lp_Force_Field>  (1) 
S-OPLS

>  <s_lp_Variant>  (1) 
DiffSBDD_90-1

>  <s_m_source_file>  (1) 
generated_GPCR_5HT2C_ligand_DiffSBDD_2026-06-23_prepared.sdf

>  <GenAI_Model>  (1) 
DiffSBDD

>  <Protein>  (1) 
GPCR_5HT2C

$$$$
DiffSBDD_22
     RDKit          3D

  0  0  0  0  0  0  0  0  0  0999 V3000
M  V30 BEGIN CTAB
M  V30 COUNTS 48 51 0 0 1
M  V30 BEGIN ATOM
M  V30 1 C 40.045211 30.752898 51.259558 0
M  V30 2 C 40.159505 30.079586 61.814958 0
M  V30 3 C 39.244644 28.464336 54.051341 0
M  V30 4 F 41.245073 30.848592 61.986349 0
M  V30 5 N 38.909898 29.346705 52.906328 0 CFG=2 CHG=1
M  V30 6 C 38.806539 28.653387 51.600789 0 CFG=1
M  V30 7 C 39.575802 29.483166 50.609609 0 CFG=2
M  V30 8 O 37.645285 29.440412 55.550695 0
M  V30 9 O 37.466809 26.135380 56.226608 0
M  V30 10 N 37.099342 30.137626 57.800754 0 CHG=1
M  V30 11 O 39.603167 26.109312 57.810112 0
M  V30 12 C 38.331330 28.108468 57.314330 0 CFG=1
M  V30 13 C 38.016834 28.203238 54.930238 0 CFG=2
M  V30 14 C 38.541884 30.012188 59.862944 0
M  V30 15 N 40.194867 28.871485 62.167528 0
M  V30 16 C 39.775104 30.552257 52.758093 0
M  V30 17 C 37.622047 30.870427 58.974390 0
M  V30 18 C 40.103671 28.137286 51.030970 0
M  V30 19 C 39.530518 27.258040 56.993471 0 CFG=2
M  V30 20 C 38.208095 29.537078 56.825227 0 CFG=1
M  V30 21 C 38.926745 30.696770 61.187414 0
M  V30 22 C 38.319367 27.258790 56.080927 0 CFG=2
M  V30 23 H 39.488416 31.599550 50.857264 0
M  V30 24 H 41.101847 30.922637 51.044984 0
M  V30 25 H 40.016710 28.919164 54.672309 0
M  V30 26 H 39.645246 27.514849 53.693494 0
M  V30 27 H 37.851214 28.196530 51.349831 0
M  V30 28 H 39.245139 29.550014 49.579240 0
M  V30 29 H 37.697802 25.488197 55.575306 0
M  V30 30 H 36.468917 29.412269 58.107711 0
M  V30 31 H 38.774609 25.656664 57.719923 0
M  V30 32 H 37.680850 27.790583 58.129531 0
M  V30 33 H 37.188608 27.821385 54.330158 0
M  V30 34 H 39.449193 29.777503 59.302892 0
M  V30 35 H 38.062803 29.059029 60.088375 0
M  V30 36 H 39.326402 28.376426 62.028090 0
M  V30 37 H 39.280842 31.420730 53.193904 0
M  V30 38 H 40.720337 30.436549 53.285220 0
M  V30 39 H 36.766868 31.228641 59.548892 0
M  V30 40 H 38.153728 31.757098 58.623310 0
M  V30 41 H 40.038995 27.320259 50.315014 0
M  V30 42 H 40.991275 28.137790 51.656124 0
M  V30 43 H 40.477239 27.712792 56.708093 0
M  V30 44 H 39.140025 30.105417 56.819435 0
M  V30 45 H 37.988744 29.714945 53.099996 0
M  V30 46 H 38.098618 30.650681 61.896129 0
M  V30 47 H 39.135748 31.754096 61.016124 0
M  V30 48 H 36.518966 30.821239 57.300686 0
M  V30 END ATOM
M  V30 BEGIN BOND
M  V30 1 1 4 2
M  V30 2 1 5 3
M  V30 3 1 6 5
M  V30 4 1 7 1
M  V30 5 1 7 6
M  V30 6 1 13 3
M  V30 7 1 13 8
M  V30 8 2 15 2
M  V30 9 1 16 1
M  V30 10 1 16 5
M  V30 11 1 17 10
M  V30 12 1 17 14
M  V30 13 1 18 6
M  V30 14 1 18 7
M  V30 15 1 19 11
M  V30 16 1 19 12
M  V30 17 1 20 8
M  V30 18 1 20 10
M  V30 19 1 20 12
M  V30 20 1 21 2
M  V30 21 1 21 14
M  V30 22 1 22 9 CFG=1
M  V30 23 1 22 12
M  V30 24 1 22 13
M  V30 25 1 22 19
M  V30 26 1 23 1
M  V30 27 1 24 1
M  V30 28 1 25 3
M  V30 29 1 26 3
M  V30 30 1 6 27 CFG=3
M  V30 31 1 7 28 CFG=3
M  V30 32 1 29 9
M  V30 33 1 30 10
M  V30 34 1 31 11
M  V30 35 1 12 32 CFG=1
M  V30 36 1 13 33 CFG=3
M  V30 37 1 34 14
M  V30 38 1 35 14
M  V30 39 1 36 15
M  V30 40 1 37 16
M  V30 41 1 38 16
M  V30 42 1 39 17
M  V30 43 1 40 17
M  V30 44 1 41 18
M  V30 45 1 42 18
M  V30 46 1 19 43 CFG=3
M  V30 47 1 20 44 CFG=3
M  V30 48 1 5 45 CFG=1
M  V30 49 1 46 21
M  V30 50 1 47 21
M  V30 51 1 48 10
M  V30 END BOND
M  V30 END CTAB
M  END
>  <i_epik_Tot_Q>  (1) 
2

>  <i_epik_Tot_abs_Q>  (1) 
2

>  <i_i_glide_confnum>  (1) 
84

>  <i_i_glide_lignum>  (1) 
55

>  <i_i_glide_posenum>  (1) 
16

>  <i_i_glide_rotatable_bonds>  (1) 
9

>  <i_lp_mmshare_version>  (1) 
72125

>  <i_m_source_file_index>  (1) 
23

>  <i_f3d_flags>  (1) 
0

>  <num_sample>  (1) 
100

>  <b_lp_Chiralities_Consistent>  (1) 
1

>  <r_epik_Charging_Adjusted_Penalty>  (1) 
1.666199543100769

>  <r_epik_Ionization_Penalty>  (1) 
0.63246952638049103

>  <r_epik_Ionization_Penalty_Charging>  (1) 
0.62883544751823761

>  <r_epik_Ionization_Penalty_Neutral>  (1) 
0.0036340788622534364

>  <r_epik_State_Penalty>  (1) 
1.0373640955825314

>  <r_glide_ring_energy>  (1) 
1.6455033096424563

>  <r_i_docking_score>  (1) 
-4.7749547955239677

>  <r_i_glide_ecoul>  (1) 
-6.1841052023488876

>  <r_i_glide_eff_state_penalty>  (1) 
1.0373640955825314

>  <r_i_glide_einternal>  (1) 
5.6444994939762063

>  <r_i_glide_emodel>  (1) 
-45.231297288951367

>  <r_i_glide_emodel_strain>  (1) 
1.2430100335565442

>  <r_i_glide_energy>  (1) 
-33.217740910233125

>  <r_i_glide_erotb>  (1) 
1.309053311580165

>  <r_i_glide_esite>  (1) 
-0.1786453667912645

>  <r_i_glide_evdw>  (1) 
-27.033635707884237

>  <r_i_glide_gscore>  (1) 
-5.8123188911064991

>  <r_i_glide_gscore_strain>  (1) 
0

>  <r_i_glide_hbond>  (1) 
-0.20000000000000001

>  <r_i_glide_ligand_efficiency>  (1) 
-0.217043399796544

>  <r_i_glide_ligand_efficiency_ln>  (1) 
-1.1671731227340922

>  <r_i_glide_ligand_efficiency_sa>  (1) 
-0.60816414268907781

>  <r_i_glide_lipo>  (1) 
-2.530371582547712

>  <r_i_glide_metal>  (1) 
-0

>  <r_i_glide_rewards>  (1) 
-1.933057687601142

>  <r_lp_Energy>  (1) 
22.761092999999999

>  <r_lp_tautomer_probability>  (1) 
0.49999300000000002

>  <s_epik_Chemistry_Notes>  (1) 
This compound has an imine and may undergo hydrolysis. This compound contains an acetal/aminal-like group ( X-CH(R)-Y where X, Y are N, S, or O) that may be acid/base labile, releasing an aldehyde.

>  <s_epik_cmdline>  (1) 
J2VwaWtfcHl0aG9uJywgJy1waHQnLCAnMS4wJywgJy1waCcsICc3LjQnLCAnLXRuJywgJzgnLCAnLW1hJywgJzUwMCcsICctaW1hZScsICc8aW5maWxlLm1hZT4nLCAnLW9tYWUnLCAnPG91dGZpbGUubWFlPic=

>  <s_epik_input>  (1) 
W0NAQEhdMTJbQ0BIXShbQ0gyXTIpW0NIMl1bQ0gyXU4xW0NIMl1bQ0BASF0zT1tDQEhdKFtDSF0oW0NASF00W09IXSlbQ0BAXTM0W09IXSlbTkhdW0NIMl1bQ0gyXVxbQ0hdPUMoXEYpW05IMl0=

>  <s_glide_docking_method>  (1) 
confgen

>  <s_i_glide_gridfile>  (1) 
gpcr_5ht2c_6bqh_protein_autoprepared_prepared

>  <s_lp_Force_Field>  (1) 
S-OPLS

>  <s_lp_Variant>  (1) 
DiffSBDD_22-3

>  <s_m_source_file>  (1) 
generated_GPCR_5HT2C_ligand_DiffSBDD_2026-06-23_prepared.sdf

>  <GenAI_Model>  (1) 
DiffSBDD

>  <Protein>  (1) 
GPCR_5HT2C

$$$$
DiffSBDD_54
     RDKit          3D

  0  0  0  0  0  0  0  0  0  0999 V3000
M  V30 BEGIN CTAB
M  V30 COUNTS 42 43 0 0 1
M  V30 BEGIN ATOM
M  V30 1 C 39.461134 27.515865 56.410423 0
M  V30 2 C 37.881110 31.880556 58.986116 0
M  V30 3 C 36.578042 29.737755 58.790242 0
M  V30 4 C 39.656645 29.752329 52.150049 0
M  V30 5 C 39.812098 30.275831 54.714798 0
M  V30 6 S 39.188170 29.814722 57.749770 0 CHG=1
M  V30 7 C 40.190618 27.812300 58.796494 0
M  V30 8 N 38.727651 31.924640 59.998522 0
M  V30 9 C 37.263005 30.143159 54.826192 0
M  V30 10 C 38.526259 33.245058 60.376754 0
M  V30 11 N 37.632119 33.936517 59.640757 0
M  V30 12 N 37.245137 33.003421 58.759442 0
M  V30 13 N 38.654549 28.771609 56.455305 0 CFG=1 CHG=1
M  V30 14 C 38.584482 29.402480 55.091838 0 CFG=2
M  V30 15 C 39.592815 26.836420 57.779622 0
M  V30 16 C 39.813767 30.804203 53.262718 0
M  V30 17 O 39.291375 28.896066 58.926169 0
M  V30 18 C 37.622567 30.665654 58.146462 0 CFG=2
M  V30 19 H 40.459858 27.731368 56.027806 0
M  V30 20 H 39.007468 26.810578 55.712140 0
M  V30 21 H 35.636278 30.266396 58.938166 0
M  V30 22 H 36.906108 29.383368 59.767764 0
M  V30 23 H 36.369878 28.868922 58.167759 0
M  V30 24 H 39.701444 30.233082 51.172189 0
M  V30 25 H 38.698996 29.235772 52.201926 0
M  V30 26 H 40.445141 29.002688 52.167760 0
M  V30 27 H 40.738337 29.737755 54.903848 0
M  V30 28 H 39.858585 31.151866 55.362477 0
M  V30 29 H 40.282041 27.337755 59.772801 0
M  V30 30 H 41.191473 28.144452 58.510912 0
M  V30 31 H 37.022984 30.065443 53.767904 0
M  V30 32 H 37.328216 31.208351 55.051422 0
M  V30 33 H 36.418361 29.737753 55.377776 0
M  V30 34 H 39.048352 33.700355 61.205812 0
M  V30 35 H 36.543833 33.174374 58.043460 0
M  V30 36 H 38.562119 28.563988 54.394759 0
M  V30 37 H 38.619770 26.485217 58.126774 0
M  V30 38 H 40.229531 25.954131 57.695356 0
M  V30 39 H 39.032863 31.556939 53.152320 0
M  V30 40 H 40.748034 31.337748 53.093708 0
M  V30 41 H 37.245137 31.034515 57.206350 0
M  V30 42 H 37.714536 28.460933 56.654026 0
M  V30 END ATOM
M  V30 BEGIN BOND
M  V30 1 2 8 2
M  V30 2 1 10 8
M  V30 3 2 11 10
M  V30 4 1 12 2
M  V30 5 1 12 11
M  V30 6 1 13 1
M  V30 7 1 13 6
M  V30 8 1 14 5
M  V30 9 1 14 9
M  V30 10 1 14 13
M  V30 11 1 15 1
M  V30 12 1 15 7
M  V30 13 1 16 4
M  V30 14 1 16 5
M  V30 15 1 6 17 CFG=1
M  V30 16 1 17 7
M  V30 17 1 18 2
M  V30 18 1 18 3
M  V30 19 1 18 6
M  V30 20 1 19 1
M  V30 21 1 20 1
M  V30 22 1 21 3
M  V30 23 1 22 3
M  V30 24 1 23 3
M  V30 25 1 24 4
M  V30 26 1 25 4
M  V30 27 1 26 4
M  V30 28 1 27 5
M  V30 29 1 28 5
M  V30 30 1 29 7
M  V30 31 1 30 7
M  V30 32 1 31 9
M  V30 33 1 32 9
M  V30 34 1 33 9
M  V30 35 1 34 10
M  V30 36 1 35 12
M  V30 37 1 14 36 CFG=3
M  V30 38 1 37 15
M  V30 39 1 38 15
M  V30 40 1 39 16
M  V30 41 1 40 16
M  V30 42 1 18 41 CFG=3
M  V30 43 1 13 42 CFG=1
M  V30 END BOND
M  V30 END CTAB
M  END
>  <i_epik_Tot_Q>  (1) 
2

>  <i_epik_Tot_abs_Q>  (1) 
2

>  <i_i_glide_confnum>  (1) 
20

>  <i_i_glide_lignum>  (1) 
115

>  <i_i_glide_posenum>  (1) 
97

>  <i_i_glide_rotatable_bonds>  (1) 
5

>  <i_lp_mmshare_version>  (1) 
72125

>  <i_m_source_file_index>  (1) 
55

>  <i_f3d_flags>  (1) 
0

>  <num_sample>  (1) 
100

>  <b_lp_Chiralities_Consistent>  (1) 
1

>  <r_epik_Charging_Adjusted_Penalty>  (1) 
0.22285261290592212

>  <r_epik_Ionization_Penalty>  (1) 
0.11376846567106323

>  <r_epik_Ionization_Penalty_Charging>  (1) 
0.11142630645296109

>  <r_epik_Ionization_Penalty_Neutral>  (1) 
0.0023421592181021404

>  <r_epik_State_Penalty>  (1) 
0.11142630645296105

>  <r_glide_ring_energy>  (1) 
0

>  <r_i_docking_score>  (1) 
-4.7738605577002442

>  <r_i_glide_ecoul>  (1) 
-5.2148996329210284

>  <r_i_glide_eff_state_penalty>  (1) 
0.11142630645296105

>  <r_i_glide_einternal>  (1) 
4.8491164501004391

>  <r_i_glide_emodel>  (1) 
-42.94547454167207

>  <r_i_glide_emodel_strain>  (1) 
0.042779522230926403

>  <r_i_glide_energy>  (1) 
-28.818562716495368

>  <r_i_glide_erotb>  (1) 
0.96597774364564237

>  <r_i_glide_esite>  (1) 
-0.15282909138978648

>  <r_i_glide_evdw>  (1) 
-23.60366308357434

>  <r_i_glide_gscore>  (1) 
-4.8852868641532057

>  <r_i_glide_gscore_strain>  (1) 
0

>  <r_i_glide_hbond>  (1) 
-0.086149875441600562

>  <r_i_glide_ligand_efficiency>  (1) 
-0.26521447542779136

>  <r_i_glide_ligand_efficiency_ln>  (1) 
-1.2270962403556653

>  <r_i_glide_ligand_efficiency_sa>  (1) 
-0.69505855409701112

>  <r_i_glide_lipo>  (1) 
-1.615342836301167

>  <r_i_glide_metal>  (1) 
-0

>  <r_i_glide_rewards>  (1) 
-2.0345247055494236

>  <r_lp_Energy>  (1) 
23.784423

>  <r_lp_tautomer_probability>  (1) 
0.94828448534560383

>  <s_epik_cmdline>  (1) 
J2VwaWtfcHl0aG9uJywgJy1waHQnLCAnMS4wJywgJy1waCcsICc3LjQnLCAnLXRuJywgJzgnLCAnLW1hJywgJzUwMCcsICctaW1hZScsICc8aW5maWxlLm1hZT4nLCAnLW9tYWUnLCAnPG91dGZpbGUubWFlPic=

>  <s_epik_input>  (1) 
W0NIM11bQ0gyXVtDSDJdW0NASF0oW0NIM10pTihbQ0gyXVtDSDJdW0NIMl1PMSlbUytdMVtDQEBIXShbQ0gzXSljMm5bY0hdbltuSF0y

>  <s_glide_docking_method>  (1) 
confgen

>  <s_i_glide_gridfile>  (1) 
gpcr_5ht2c_6bqh_protein_autoprepared_prepared

>  <s_lp_Force_Field>  (1) 
S-OPLS

>  <s_lp_Variant>  (1) 
DiffSBDD_54-1

>  <s_m_source_file>  (1) 
generated_GPCR_5HT2C_ligand_DiffSBDD_2026-06-23_prepared.sdf

>  <GenAI_Model>  (1) 
DiffSBDD

>  <Protein>  (1) 
GPCR_5HT2C

$$$$
DiffSBDD_41
     RDKit          3D

  0  0  0  0  0  0  0  0  0  0999 V3000
M  V30 BEGIN CTAB
M  V30 COUNTS 51 52 0 0 1
M  V30 BEGIN ATOM
M  V30 1 C 40.178367 30.672208 61.751254 0
M  V30 2 C 37.944910 29.376440 58.516244 0 CFG=1
M  V30 3 C 40.433104 30.454798 51.419387 0
M  V30 4 C 38.785591 29.196236 54.673086 0
M  V30 5 C 38.421370 27.530639 52.913876 0
M  V30 6 C 39.118118 28.333268 51.991012 0
M  V30 7 C 38.258375 27.952806 54.245539 0
M  V30 8 O 42.737005 30.937744 64.391111 0 CHG=-1
M  V30 9 C 38.076528 28.909190 57.070851 0
M  V30 10 S 39.582549 29.737755 59.226713 0
M  V30 11 N 39.645139 31.000488 50.302459 0 CHG=1
M  V30 12 C 41.645145 32.660289 63.112346 0
M  V30 13 C 40.723092 33.026165 62.115084 0
M  V30 14 C 39.309667 27.842044 50.567758 0
M  V30 15 C 36.913961 30.522146 58.590604 0
M  V30 16 C 41.839627 31.297431 63.427630 0
M  V30 17 C 38.648866 29.642556 56.086532 0
M  V30 18 C 39.990755 32.035872 61.433938 0
M  V30 19 C 35.363573 32.084832 59.894440 0
M  V30 20 C 39.468264 30.015164 53.739447 0
M  V30 21 C 36.455752 31.009079 59.975244 0
M  V30 22 F 42.344017 33.618263 63.768786 0
M  V30 23 C 41.105060 30.305450 62.748600 0
M  V30 24 C 39.645138 29.584351 52.400756 0
M  V30 25 C 39.375283 29.603649 61.028867 0
M  V30 26 H 37.566689 28.537755 59.085168 0
M  V30 27 H 40.849248 31.306674 51.956228 0
M  V30 28 H 41.270838 29.884832 51.016881 0
M  V30 29 H 38.018245 26.578019 52.602073 0
M  V30 30 H 37.732617 27.316796 54.937284 0
M  V30 31 H 37.679804 27.932518 56.855103 0
M  V30 32 H 40.259582 31.515434 49.687169 0
M  V30 33 H 39.178290 30.262936 49.790640 0
M  V30 34 H 40.576319 34.067983 61.873641 0
M  V30 35 H 40.368479 27.746580 50.331007 0
M  V30 36 H 38.857222 26.858682 50.435434 0
M  V30 37 H 38.845140 28.508028 49.844700 0
M  V30 38 H 37.263494 31.374491 58.007417 0
M  V30 39 H 36.024102 30.137756 58.090611 0
M  V30 40 H 39.043128 30.620665 56.323600 0
M  V30 41 H 39.284543 32.321889 60.670463 0
M  V30 42 H 35.052492 32.402293 60.889562 0
M  V30 43 H 35.725611 32.966188 59.364043 0
M  V30 44 H 34.478425 31.731506 59.366445 0
M  V30 45 H 39.877854 30.963598 54.057833 0
M  V30 46 H 36.094085 30.165378 60.559680 0
M  V30 47 H 37.290571 31.444218 60.514966 0
M  V30 48 H 41.251382 29.263628 62.995294 0
M  V30 49 H 38.341613 29.737756 61.315796 0
M  V30 50 H 39.666379 28.603423 61.351557 0
M  V30 51 H 38.952952 31.635520 50.672326 0
M  V30 END ATOM
M  V30 BEGIN BOND
M  V30 1 1 6 5
M  V30 2 1 7 4
M  V30 3 2 7 5
M  V30 4 1 9 2
M  V30 5 1 10 2
M  V30 6 1 11 3
M  V30 7 1 13 12
M  V30 8 1 14 6
M  V30 9 1 15 2
M  V30 10 1 16 8
M  V30 11 2 16 12
M  V30 12 1 17 4
M  V30 13 2 17 9
M  V30 14 1 18 1
M  V30 15 2 18 13
M  V30 16 2 20 4
M  V30 17 1 21 15
M  V30 18 1 21 19
M  V30 19 1 22 12
M  V30 20 2 23 1
M  V30 21 1 23 16
M  V30 22 1 24 3
M  V30 23 2 24 6
M  V30 24 1 24 20
M  V30 25 1 25 1
M  V30 26 1 25 10
M  V30 27 1 2 26 CFG=1
M  V30 28 1 27 3
M  V30 29 1 28 3
M  V30 30 1 29 5
M  V30 31 1 30 7
M  V30 32 1 31 9
M  V30 33 1 32 11
M  V30 34 1 33 11
M  V30 35 1 34 13
M  V30 36 1 35 14
M  V30 37 1 36 14
M  V30 38 1 37 14
M  V30 39 1 38 15
M  V30 40 1 39 15
M  V30 41 1 40 17
M  V30 42 1 41 18
M  V30 43 1 42 19
M  V30 44 1 43 19
M  V30 45 1 44 19
M  V30 46 1 45 20
M  V30 47 1 46 21
M  V30 48 1 47 21
M  V30 49 1 48 23
M  V30 50 1 49 25
M  V30 51 1 50 25
M  V30 52 1 51 11
M  V30 END BOND
M  V30 END CTAB
M  END
>  <i_epik_Tot_Q>  (1) 
0

>  <i_epik_Tot_abs_Q>  (1) 
2

>  <i_i_glide_confnum>  (1) 
146

>  <i_i_glide_lignum>  (1) 
90

>  <i_i_glide_posenum>  (1) 
303

>  <i_i_glide_rotatable_bonds>  (1) 
8

>  <i_lp_mmshare_version>  (1) 
72125

>  <i_m_source_file_index>  (1) 
42

>  <i_f3d_flags>  (1) 
0

>  <num_sample>  (1) 
100

>  <b_lp_Chiralities_Consistent>  (1) 
1

>  <r_epik_Charging_Adjusted_Penalty>  (1) 
2.7167828853708742

>  <r_epik_Ionization_Penalty>  (1) 
1.3565026725465308

>  <r_epik_Ionization_Penalty_Charging>  (1) 
1.3565026725465308

>  <r_epik_Ionization_Penalty_Neutral>  (1) 
0

>  <r_epik_State_Penalty>  (1) 
1.3602802128243434

>  <r_glide_ring_energy>  (1) 
0

>  <r_i_docking_score>  (1) 
-4.7672467495106803

>  <r_i_glide_ecoul>  (1) 
-3.657071502246267

>  <r_i_glide_eff_state_penalty>  (1) 
1.3602802128243434

>  <r_i_glide_einternal>  (1) 
7.3632494066095884

>  <r_i_glide_emodel>  (1) 
-50.478745247112791

>  <r_i_glide_emodel_strain>  (1) 
0.66673917689725037

>  <r_i_glide_energy>  (1) 
-37.951980425352239

>  <r_i_glide_erotb>  (1) 
0.74153290357203427

>  <r_i_glide_esite>  (1) 
0

>  <r_i_glide_evdw>  (1) 
-34.294908923105972

>  <r_i_glide_gscore>  (1) 
-6.1275269623350237

>  <r_i_glide_gscore_strain>  (1) 
0

>  <r_i_glide_hbond>  (1) 
0

>  <r_i_glide_ligand_efficiency>  (1) 
-0.19068986998042722

>  <r_i_glide_ligand_efficiency_ln>  (1) 
-1.129980342490789

>  <r_i_glide_ligand_efficiency_sa>  (1) 
-0.55758056232027431

>  <r_i_glide_lipo>  (1) 
-3.1409867339223396

>  <r_i_glide_metal>  (1) 
-0

>  <r_i_glide_rewards>  (1) 
-1.4647669604924798

>  <r_lp_Energy>  (1) 
26.063465999999998

>  <s_epik_cmdline>  (1) 
J2VwaWtfcHl0aG9uJywgJy1waHQnLCAnMS4wJywgJy1waCcsICc3LjQnLCAnLXRuJywgJzgnLCAnLW1hJywgJzUwMCcsICctaW1hZScsICc8aW5maWxlLm1hZT4nLCAnLW9tYWUnLCAnPG91dGZpbGUubWFlPic=

>  <s_epik_input>  (1) 
W09IXWMoW2NIXTEpYyhGKVtjSF1bY0hdYzFbQ0gyXVNbQ0BASF0oW0NIMl1bQ0gyXVtDSDNdKS9bQ0hdPVtDSF0vYzJbY0hdW2NIXWMoW0NIM10pYyhbY0hdMilbQ0gyXVtOSDJd

>  <s_glide_docking_method>  (1) 
confgen

>  <s_i_glide_gridfile>  (1) 
gpcr_5ht2c_6bqh_protein_autoprepared_prepared

>  <s_lp_Force_Field>  (1) 
S-OPLS

>  <s_lp_Variant>  (1) 
DiffSBDD_41-3

>  <s_m_source_file>  (1) 
generated_GPCR_5HT2C_ligand_DiffSBDD_2026-06-23_prepared.sdf

>  <GenAI_Model>  (1) 
DiffSBDD

>  <Protein>  (1) 
GPCR_5HT2C

$$$$
DiffSBDD_73
     RDKit          3D

  0  0  0  0  0  0  0  0  0  0999 V3000
M  V30 BEGIN CTAB
M  V30 COUNTS 65 66 0 0 1
M  V30 BEGIN ATOM
M  V30 1 C 39.214685 28.168451 55.138751 0 CFG=1
M  V30 2 C 36.459897 29.673477 58.307514 0
M  V30 3 N 37.539195 33.899775 60.002013 0
M  V30 4 C 40.044669 30.700752 52.298946 0
M  V30 5 C 39.595506 30.118643 53.452726 0
M  V30 6 C 39.957044 29.029904 56.181605 0
M  V30 7 C 36.392795 34.792352 60.127324 0 CFG=2
M  V30 8 N 38.256722 30.603027 59.744090 0 CHG=1
M  V30 9 O 36.933335 32.429245 61.644324 0
M  V30 10 C 39.924802 26.072469 56.691131 0
M  V30 11 C 38.819394 31.860537 60.286899 0 CFG=1
M  V30 12 C 40.215838 28.585798 50.797409 0
M  V30 13 C 40.338588 30.058774 50.957015 0 CFG=1
M  V30 14 C 37.682612 32.782095 60.732044 0
M  V30 15 O 39.116212 29.409790 57.265271 0
M  V30 16 C 34.456729 33.156705 59.624252 0
M  V30 17 C 39.233773 28.685594 53.696498 0
M  V30 18 C 38.852581 28.165849 51.241046 0
M  V30 19 C 37.545274 30.740134 58.451116 0 CFG=1
M  V30 20 C 39.300485 26.654652 55.435981 0 CFG=1
M  V30 21 O 39.645207 30.746423 49.935696 0
M  V30 22 C 35.283686 34.357403 59.144401 0
M  V30 23 C 38.566250 30.640218 57.312984 0
M  V30 24 O 38.845204 31.580056 56.571922 0
M  V30 25 C 39.775455 31.559615 61.451876 0
M  V30 26 C 38.911874 27.829415 52.687689 0
M  V30 27 C 36.861754 36.225692 59.833732 0
M  V30 28 C 37.990585 27.364463 55.556150 0
M  V30 29 H 36.045137 29.737733 57.304058 0
M  V30 30 H 36.844558 28.664180 58.449780 0
M  V30 31 H 35.646056 29.834356 59.014444 0
M  V30 32 H 38.219922 34.110911 59.286827 0
M  V30 33 H 40.251756 31.744978 52.331683 0
M  V30 34 H 39.499872 30.783940 54.291710 0
M  V30 35 H 40.785528 28.453570 56.590484 0
M  V30 36 H 40.445207 29.892647 55.746055 0
M  V30 37 H 36.006904 34.777457 61.147968 0
M  V30 38 H 37.594340 30.267925 60.428378 0
M  V30 39 H 39.602951 26.606480 57.586457 0
M  V30 40 H 39.648115 25.023812 56.798226 0
M  V30 41 H 41.007672 26.137756 56.622383 0
M  V30 42 H 39.383974 32.363847 59.502983 0
M  V30 43 H 40.392354 28.298957 49.767737 0
M  V30 44 H 41.004957 28.137759 51.392471 0
M  V30 45 H 41.387447 30.297991 50.772961 0
M  V30 46 H 33.625253 32.968577 58.947820 0
M  V30 47 H 35.049642 32.245304 59.661179 0
M  V30 48 H 34.044947 33.337711 60.616801 0
M  V30 49 H 38.561358 27.260457 50.707911 0
M  V30 50 H 38.075064 28.904238 51.054801 0
M  V30 51 H 37.057270 31.712020 58.391019 0
M  V30 52 H 39.436932 25.980919 54.596053 0
M  V30 53 H 38.891975 30.239042 49.656028 0
M  V30 54 H 34.603271 35.186941 58.967792 0
M  V30 55 H 35.717665 34.137558 58.167802 0
M  V30 56 H 40.200503 32.478830 61.856391 0
M  V30 57 H 39.271646 31.042768 62.271527 0
M  V30 58 H 40.605969 30.932727 61.127166 0
M  V30 59 H 38.650275 26.813203 52.924003 0
M  V30 60 H 36.045219 36.939049 59.942484 0
M  V30 61 H 37.651945 36.530439 60.520614 0
M  V30 62 H 37.245147 36.320954 58.817387 0
M  V30 63 H 37.607417 27.487247 56.563851 0
M  V30 64 H 37.235999 27.142431 54.805728 0
M  V30 65 H 38.986876 29.914635 59.625989 0
M  V30 END ATOM
M  V30 BEGIN BOND
M  V30 1 2 5 4
M  V30 2 1 1 6 CFG=1
M  V30 3 1 7 3
M  V30 4 1 11 8
M  V30 5 1 13 4
M  V30 6 1 13 12
M  V30 7 1 14 3
M  V30 8 2 14 9
M  V30 9 1 14 11
M  V30 10 1 15 6
M  V30 11 1 17 1
M  V30 12 1 17 5
M  V30 13 1 18 12
M  V30 14 1 19 2
M  V30 15 1 19 8
M  V30 16 1 20 1
M  V30 17 1 20 10
M  V30 18 1 21 13
M  V30 19 1 22 7
M  V30 20 1 22 16
M  V30 21 1 23 15
M  V30 22 1 23 19
M  V30 23 2 24 23
M  V30 24 1 25 11
M  V30 25 2 26 17
M  V30 26 1 26 18
M  V30 27 1 27 7
M  V30 28 1 28 1
M  V30 29 1 28 20
M  V30 30 1 29 2
M  V30 31 1 30 2
M  V30 32 1 31 2
M  V30 33 1 32 3
M  V30 34 1 33 4
M  V30 35 1 34 5
M  V30 36 1 35 6
M  V30 37 1 36 6
M  V30 38 1 7 37 CFG=1
M  V30 39 1 38 8
M  V30 40 1 39 10
M  V30 41 1 40 10
M  V30 42 1 41 10
M  V30 43 1 11 42 CFG=3
M  V30 44 1 43 12
M  V30 45 1 44 12
M  V30 46 1 13 45 CFG=3
M  V30 47 1 46 16
M  V30 48 1 47 16
M  V30 49 1 48 16
M  V30 50 1 49 18
M  V30 51 1 50 18
M  V30 52 1 19 51 CFG=1
M  V30 53 1 20 52 CFG=3
M  V30 54 1 53 21
M  V30 55 1 54 22
M  V30 56 1 55 22
M  V30 57 1 56 25
M  V30 58 1 57 25
M  V30 59 1 58 25
M  V30 60 1 59 26
M  V30 61 1 60 27
M  V30 62 1 61 27
M  V30 63 1 62 27
M  V30 64 1 63 28
M  V30 65 1 64 28
M  V30 66 1 65 8
M  V30 END BOND
M  V30 END CTAB
M  END
>  <i_epik_Tot_Q>  (1) 
1

>  <i_epik_Tot_abs_Q>  (1) 
1

>  <i_i_glide_confnum>  (1) 
1953

>  <i_i_glide_lignum>  (1) 
160

>  <i_i_glide_posenum>  (1) 
84

>  <i_i_glide_rotatable_bonds>  (1) 
12

>  <i_lp_mmshare_version>  (1) 
72125

>  <i_m_source_file_index>  (1) 
74

>  <i_f3d_flags>  (1) 
0

>  <num_sample>  (1) 
100

>  <b_lp_Chiralities_Consistent>  (1) 
1

>  <r_epik_Charging_Adjusted_Penalty>  (1) 
2.336176939713237

>  <r_epik_Ionization_Penalty>  (1) 
1.168091143672223

>  <r_epik_Ionization_Penalty_Charging>  (1) 
1.1680884698566185

>  <r_epik_Ionization_Penalty_Neutral>  (1) 
2.673815604532901e-06

>  <r_epik_State_Penalty>  (1) 
1.1680884698566185

>  <r_glide_ring_energy>  (1) 
0

>  <r_i_docking_score>  (1) 
-4.7661613886375465

>  <r_i_glide_ecoul>  (1) 
-4.8822640493247977

>  <r_i_glide_eff_state_penalty>  (1) 
1.1680884698566185

>  <r_i_glide_einternal>  (1) 
8.4372069042187405

>  <r_i_glide_emodel>  (1) 
-51.714928295311076

>  <r_i_glide_emodel_strain>  (1) 
7.2683897430430591

>  <r_i_glide_energy>  (1) 
-44.568934213753025

>  <r_i_glide_erotb>  (1) 
1.2613414017289797

>  <r_i_glide_esite>  (1) 
-0.048476423410391503

>  <r_i_glide_evdw>  (1) 
-39.686670164428229

>  <r_i_glide_gscore>  (1) 
-5.934249858494165

>  <r_i_glide_gscore_strain>  (1) 
0.81709743576076477

>  <r_i_glide_hbond>  (1) 
-0.35682806162546377

>  <r_i_glide_ligand_efficiency>  (1) 
-0.17022004959419809

>  <r_i_glide_ligand_efficiency_ln>  (1) 
-1.1001699890767143

>  <r_i_glide_ligand_efficiency_sa>  (1) 
-0.51688832538987028

>  <r_i_glide_lipo>  (1) 
-3.3834409579490314

>  <r_i_glide_metal>  (1) 
-0

>  <r_i_glide_rewards>  (1) 
-1.5072701373788906

>  <r_lp_Energy>  (1) 
24.831178999999999

>  <s_epik_Chemistry_Notes>  (1) 
This compound has an ester and may undergo hydrolysis at high or low pH.

>  <s_epik_cmdline>  (1) 
J2VwaWtfcHl0aG9uJywgJy1waHQnLCAnMS4wJywgJy1waCcsICc3LjQnLCAnLXRuJywgJzgnLCAnLW1hJywgJzUwMCcsICctaW1hZScsICc8aW5maWxlLm1hZT4nLCAnLW9tYWUnLCAnPG91dGZpbGUubWFlPic=

>  <s_epik_input>  (1) 
W09IXVtDQEhdMVtDSF09W0NIXUMoPVtDSF1bQ0gyXVtDSDJdMSlbQ0BAXTIoW0NAQEhdKFtDSDNdKVtDSDJdMilbQ0gyXU9DKD1PKVtDQEBIXShbQ0gzXSlbTkhdW0NASF0oW0NIM10pQyg9TylbTkhdW0NAQEhdKFtDSDNdKVtDSDJdW0NIM10=

>  <s_glide_docking_method>  (1) 
confgen

>  <s_i_glide_gridfile>  (1) 
gpcr_5ht2c_6bqh_protein_autoprepared_prepared

>  <s_lp_Force_Field>  (1) 
S-OPLS

>  <s_lp_Variant>  (1) 
DiffSBDD_73-3

>  <s_m_source_file>  (1) 
generated_GPCR_5HT2C_ligand_DiffSBDD_2026-06-23_prepared.sdf

>  <GenAI_Model>  (1) 
DiffSBDD

>  <Protein>  (1) 
GPCR_5HT2C

$$$$
DiffSBDD_86
     RDKit          3D

  0  0  0  0  0  0  0  0  0  0999 V3000
M  V30 BEGIN CTAB
M  V30 COUNTS 78 80 0 0 1
M  V30 BEGIN ATOM
M  V30 1 C 41.092180 30.476920 65.131344 0
M  V30 2 C 38.935649 32.426328 54.655336 0
M  V30 3 C 37.968090 32.958403 59.809660 0 CFG=2
M  V30 4 C 40.055651 31.388582 54.873607 0
M  V30 5 N 38.449100 33.632497 61.074839 0
M  V30 6 C 38.362811 26.126228 55.386220 0
M  V30 7 N 40.875922 31.583432 64.311741 0
M  V30 8 C 37.355234 29.206454 58.599836 0
M  V30 9 O 35.748262 31.917138 61.367637 0
M  V30 10 O 40.553152 28.367794 58.843908 0
M  V30 11 C 38.743258 27.288453 57.720631 0 CFG=2
M  V30 12 C 37.877943 30.666947 58.643713 0
M  V30 13 C 38.553133 34.993109 61.197474 0
M  V30 14 N 37.765784 28.378306 57.409401 0 CFG=2 CHG=1
M  V30 15 C 40.185057 27.841857 57.770474 0
M  V30 16 C 41.284960 30.457102 66.537473 0
M  V30 17 C 41.511536 28.019336 66.510364 0
M  V30 18 O 39.002151 35.474949 62.260172 0
M  V30 19 C 38.883253 32.757714 62.182140 0
M  V30 20 C 41.323027 28.015135 65.119533 0
M  V30 21 C 36.914328 33.727433 58.960526 0
M  V30 22 S 40.845193 29.514080 62.722692 0
M  V30 23 O 40.872679 27.739741 56.733312 0 CHG=-1
M  V30 24 C 38.090580 29.175879 56.191698 0
M  V30 25 C 37.527469 31.445795 59.922750 0 CFG=2
M  V30 26 C 39.394391 24.787593 57.321687 0
M  V30 27 O 36.118906 31.322936 60.096958 0
M  V30 28 N 37.645146 32.051975 55.247947 0 CHG=1
M  V30 29 C 40.310415 32.225548 61.975715 0
M  V30 30 C 41.115529 29.226479 64.441399 0
M  V30 31 O 41.269169 31.629804 67.237646 0
M  V30 32 C 36.843406 29.737652 55.506011 0
M  V30 33 C 40.672851 31.240955 63.034921 0
M  V30 34 C 37.914242 24.769298 57.548608 0
M  V30 35 C 38.559075 25.977592 56.892663 0
M  V30 36 O 38.204312 35.730000 60.254135 0 CHG=-1
M  V30 37 C 41.491545 29.236642 67.218929 0
M  V30 38 C 37.042914 30.901868 54.567940 0
M  V30 39 H 38.761487 32.537717 53.585503 0
M  V30 40 H 39.238751 33.384808 55.072545 0
M  V30 41 H 38.876008 32.951220 59.204666 0
M  V30 42 H 40.977708 31.679612 54.384553 0
M  V30 43 H 40.301633 31.288562 55.925825 0
M  V30 44 H 39.818617 30.408765 54.464432 0
M  V30 45 H 38.247001 25.147546 54.918682 0
M  V30 46 H 37.458922 26.687029 55.152394 0
M  V30 47 H 39.229196 26.592332 54.917276 0
M  V30 48 H 37.644815 28.724173 59.532713 0
M  V30 49 H 36.264963 29.232892 58.604023 0
M  V30 50 H 35.641326 32.824711 61.116194 0
M  V30 51 H 38.537280 26.966885 58.743481 0
M  V30 52 H 37.480553 31.212215 57.795702 0
M  V30 53 H 38.964110 30.663793 58.547727 0
M  V30 54 H 41.667064 27.089274 67.038826 0
M  V30 55 H 38.885721 33.294310 63.125971 0
M  V30 56 H 38.171873 31.967729 62.399481 0
M  V30 57 H 41.333765 27.084692 64.573246 0
M  V30 58 H 36.446048 33.099320 58.214656 0
M  V30 59 H 36.113566 34.129748 59.581309 0
M  V30 60 H 37.348409 34.542737 58.384913 0
M  V30 61 H 38.783896 29.947010 56.481053 0
M  V30 62 H 38.641811 28.613466 55.446621 0
M  V30 63 H 38.038001 30.884387 60.700411 0
M  V30 64 H 39.785795 24.138045 56.547816 0
M  V30 65 H 40.055897 24.936898 58.167731 0
M  V30 66 H 36.976795 32.820736 55.191706 0
M  V30 67 H 40.400136 31.736324 61.005352 0
M  V30 68 H 41.032103 33.042470 61.983656 0
M  V30 69 H 41.116801 32.369131 66.665561 0
M  V30 70 H 36.445103 28.945006 54.880967 0
M  V30 71 H 36.086945 30.000612 56.235368 0
M  V30 72 H 37.567384 24.860871 58.567921 0
M  V30 73 H 37.320007 24.107293 56.921774 0
M  V30 74 H 41.633628 29.236968 68.290885 0
M  V30 75 H 37.646468 30.568274 53.726757 0
M  V30 76 H 36.081230 31.218785 54.167782 0
M  V30 77 H 37.750543 31.846016 56.229847 0
M  V30 78 H 36.936552 27.853338 57.175008 0
M  V30 END ATOM
M  V30 BEGIN BOND
M  V30 1 1 4 2
M  V30 2 1 5 3
M  V30 3 1 7 1
M  V30 4 1 12 8
M  V30 5 1 13 5
M  V30 6 1 14 8
M  V30 7 1 14 11
M  V30 8 2 15 10
M  V30 9 1 15 11
M  V30 10 2 16 1
M  V30 11 2 18 13
M  V30 12 1 19 5
M  V30 13 1 20 17
M  V30 14 1 21 3
M  V30 15 1 23 15
M  V30 16 1 24 14
M  V30 17 1 25 3
M  V30 18 1 25 12
M  V30 19 1 27 9
M  V30 20 1 27 25
M  V30 21 1 28 2
M  V30 22 1 29 19
M  V30 23 1 30 1
M  V30 24 2 30 20
M  V30 25 1 30 22
M  V30 26 1 31 16
M  V30 27 1 32 24
M  V30 28 2 33 7
M  V30 29 1 33 22
M  V30 30 1 33 29
M  V30 31 1 34 26
M  V30 32 1 35 6
M  V30 33 1 35 11
M  V30 34 1 35 26
M  V30 35 1 35 34
M  V30 36 1 36 13
M  V30 37 1 37 16
M  V30 38 2 37 17
M  V30 39 1 38 28
M  V30 40 1 38 32
M  V30 41 1 39 2
M  V30 42 1 40 2
M  V30 43 1 3 41 CFG=3
M  V30 44 1 42 4
M  V30 45 1 43 4
M  V30 46 1 44 4
M  V30 47 1 45 6
M  V30 48 1 46 6
M  V30 49 1 47 6
M  V30 50 1 48 8
M  V30 51 1 49 8
M  V30 52 1 50 9
M  V30 53 1 11 51 CFG=1
M  V30 54 1 52 12
M  V30 55 1 53 12
M  V30 56 1 54 17
M  V30 57 1 55 19
M  V30 58 1 56 19
M  V30 59 1 57 20
M  V30 60 1 58 21
M  V30 61 1 59 21
M  V30 62 1 60 21
M  V30 63 1 61 24
M  V30 64 1 62 24
M  V30 65 1 25 63 CFG=1
M  V30 66 1 64 26
M  V30 67 1 65 26
M  V30 68 1 66 28
M  V30 69 1 67 29
M  V30 70 1 68 29
M  V30 71 1 69 31
M  V30 72 1 70 32
M  V30 73 1 71 32
M  V30 74 1 72 34
M  V30 75 1 73 34
M  V30 76 1 74 37
M  V30 77 1 75 38
M  V30 78 1 76 38
M  V30 79 1 77 28
M  V30 80 1 14 78 CFG=3
M  V30 END BOND
M  V30 END CTAB
M  END
>  <i_epik_Tot_Q>  (1) 
0

>  <i_epik_Tot_abs_Q>  (1) 
4

>  <i_i_glide_confnum>  (1) 
10502

>  <i_i_glide_lignum>  (1) 
204

>  <i_i_glide_posenum>  (1) 
321

>  <i_i_glide_rotatable_bonds>  (1) 
20

>  <i_lp_mmshare_version>  (1) 
72125

>  <i_m_source_file_index>  (1) 
87

>  <i_f3d_flags>  (1) 
0

>  <num_sample>  (1) 
100

>  <b_lp_Chiralities_Consistent>  (1) 
1

>  <r_epik_Charging_Adjusted_Penalty>  (1) 
0.22044164317972559

>  <r_epik_Ionization_Penalty>  (1) 
0.19516572318186753

>  <r_epik_Ionization_Penalty_Charging>  (1) 
0.026579669222116228

>  <r_epik_Ionization_Penalty_Neutral>  (1) 
0.16858605395975129

>  <r_epik_State_Penalty>  (1) 
0.19386197395760935

>  <r_glide_ring_energy>  (1) 
0

>  <r_i_docking_score>  (1) 
-4.7631365567517259

>  <r_i_glide_ecoul>  (1) 
-3.3071557170603159

>  <r_i_glide_eff_state_penalty>  (1) 
0.19386197395760935

>  <r_i_glide_einternal>  (1) 
14.032225321420125

>  <r_i_glide_emodel>  (1) 
-50.819965456853922

>  <r_i_glide_emodel_strain>  (1) 
2.7169963839185556

>  <r_i_glide_energy>  (1) 
-41.019875008583021

>  <r_i_glide_erotb>  (1) 
0.94715796475939662

>  <r_i_glide_esite>  (1) 
-0.24452183541817468

>  <r_i_glide_evdw>  (1) 
-37.712719291522703

>  <r_i_glide_gscore>  (1) 
-4.9569985307093356

>  <r_i_glide_gscore_strain>  (1) 
0

>  <r_i_glide_hbond>  (1) 
-0.19971449533460009

>  <r_i_glide_ligand_efficiency>  (1) 
-0.12534569886188751

>  <r_i_glide_ligand_efficiency_ln>  (1) 
-1.0270723589171544

>  <r_i_glide_ligand_efficiency_sa>  (1) 
-0.42140915692169473

>  <r_i_glide_lipo>  (1) 
-2.3129324241801621

>  <r_i_glide_metal>  (1) 
-0

>  <r_i_glide_rewards>  (1) 
-0.76527841840061317

>  <r_lp_Energy>  (1) 
44.186366999999997

>  <s_epik_cmdline>  (1) 
J2VwaWtfcHl0aG9uJywgJy1waHQnLCAnMS4wJywgJy1waCcsICc3LjQnLCAnLXRuJywgJzgnLCAnLW1hJywgJzUwMCcsICctaW1hZScsICc8aW5maWxlLm1hZT4nLCAnLW9tYWUnLCAnPG91dGZpbGUubWFlPic=

>  <s_epik_input>  (1) 
W09IXWMxW2NIXVtjSF1bY0hdYyhjMTIpc2MobjIpW0NIMl1bQ0gyXU4oQyg9TylbT0hdKVtDQEhdKFtDSDNdKVtDQEBIXShPW09IXSlbQ0gyXVtDSDJdTihbQ0BIXShDKD1PKVtPSF0pQzMoW0NIM10pW0NIMl1bQ0gyXTMpW0NIMl1bQ0gyXVtDSDJdW05IXVtDSDJdW0NIM10=

>  <s_glide_docking_method>  (1) 
confgen

>  <s_i_glide_gridfile>  (1) 
gpcr_5ht2c_6bqh_protein_autoprepared_prepared

>  <s_lp_Force_Field>  (1) 
S-OPLS

>  <s_lp_Variant>  (1) 
DiffSBDD_86-1

>  <s_m_source_file>  (1) 
generated_GPCR_5HT2C_ligand_DiffSBDD_2026-06-23_prepared.sdf

>  <GenAI_Model>  (1) 
DiffSBDD

>  <Protein>  (1) 
GPCR_5HT2C

$$$$
DiffSBDD_60
     RDKit          3D

  0  0  0  0  0  0  0  0  0  0999 V3000
M  V30 BEGIN CTAB
M  V30 COUNTS 34 34 0 0 1
M  V30 BEGIN ATOM
M  V30 1 C 36.952313 32.087912 60.979729 0 CFG=2
M  V30 2 C 38.804386 31.234718 54.284784 0
M  V30 3 C 37.386826 31.203271 59.832716 0
M  V30 4 C 38.328495 30.132317 57.005681 0 CFG=2
M  V30 5 S 38.620141 28.759948 53.074525 0
M  V30 6 C 38.960694 31.519937 56.784498 0
M  V30 7 C 38.443846 30.375543 59.885476 0
M  V30 8 C 38.180013 29.838402 54.469844 0 CFG=1
M  V30 9 S 38.943442 29.345424 58.530633 0
M  V30 10 O 35.645123 31.737756 61.367759 0
M  V30 11 C 38.633960 29.220268 55.806777 0
M  V30 12 C 36.968319 33.569828 60.588035 0
M  V30 13 C 38.481451 32.151040 55.472489 0
M  V30 14 C 37.476598 27.377357 53.330175 0
M  V30 15 H 37.613792 31.930963 61.833203 0
M  V30 16 H 38.445146 31.697558 53.367760 0
M  V30 17 H 39.886508 31.145559 54.177567 0
M  V30 18 H 36.794593 31.262443 58.931871 0
M  V30 19 H 37.245139 30.231824 57.079154 0
M  V30 20 H 38.735061 32.190586 57.612881 0
M  V30 21 H 40.044311 31.420062 56.743227 0
M  V30 22 H 39.043744 30.303563 60.780868 0
M  V30 23 H 37.093967 29.945197 54.477234 0
M  V30 24 H 35.064783 31.918400 60.641998 0
M  V30 25 H 39.705344 29.017406 55.766173 0
M  V30 26 H 38.145861 28.260741 55.968949 0
M  V30 27 H 37.973115 33.887644 60.308055 0
M  V30 28 H 36.311798 33.767543 59.739148 0
M  V30 29 H 36.642085 34.199613 61.416520 0
M  V30 30 H 37.406598 32.328598 55.519409 0
M  V30 31 H 38.951190 33.125368 55.336988 0
M  V30 32 H 37.645137 26.619777 52.567743 0
M  V30 33 H 37.626696 26.903155 54.298316 0
M  V30 34 H 36.445149 27.721667 53.262127 0
M  V30 END ATOM
M  V30 BEGIN BOND
M  V30 1 1 3 1
M  V30 2 1 6 4
M  V30 3 2 7 3
M  V30 4 1 8 2
M  V30 5 1 8 5
M  V30 6 1 9 4
M  V30 7 1 9 7
M  V30 8 1 10 1
M  V30 9 1 11 4
M  V30 10 1 11 8
M  V30 11 1 12 1
M  V30 12 1 13 2
M  V30 13 1 13 6
M  V30 14 1 14 5
M  V30 15 1 1 15 CFG=1
M  V30 16 1 16 2
M  V30 17 1 17 2
M  V30 18 1 18 3
M  V30 19 1 4 19 CFG=1
M  V30 20 1 20 6
M  V30 21 1 21 6
M  V30 22 1 22 7
M  V30 23 1 8 23 CFG=1
M  V30 24 1 24 10
M  V30 25 1 25 11
M  V30 26 1 26 11
M  V30 27 1 27 12
M  V30 28 1 28 12
M  V30 29 1 29 12
M  V30 30 1 30 13
M  V30 31 1 31 13
M  V30 32 1 32 14
M  V30 33 1 33 14
M  V30 34 1 34 14
M  V30 END BOND
M  V30 END CTAB
M  END
>  <i_epik_Tot_Q>  (1) 
0

>  <i_epik_Tot_abs_Q>  (1) 
0

>  <i_i_glide_confnum>  (1) 
14

>  <i_i_glide_lignum>  (1) 
132

>  <i_i_glide_posenum>  (1) 
156

>  <i_i_glide_rotatable_bonds>  (1) 
5

>  <i_lp_mmshare_version>  (1) 
72125

>  <i_m_source_file_index>  (1) 
61

>  <i_f3d_flags>  (1) 
0

>  <num_sample>  (1) 
100

>  <b_lp_Chiralities_Consistent>  (1) 
1

>  <r_epik_Charging_Adjusted_Penalty>  (1) 
0

>  <r_epik_Ionization_Penalty>  (1) 
3.7959940703639166e-07

>  <r_epik_Ionization_Penalty_Charging>  (1) 
0

>  <r_epik_Ionization_Penalty_Neutral>  (1) 
3.7959940703639166e-07

>  <r_epik_State_Penalty>  (1) 
-0

>  <r_glide_ring_energy>  (1) 
0

>  <r_i_docking_score>  (1) 
-4.7494043979124934

>  <r_i_glide_ecoul>  (1) 
-4.5730267124140616

>  <r_i_glide_eff_state_penalty>  (1) 
-0

>  <r_i_glide_einternal>  (1) 
1.1978648731052721

>  <r_i_glide_emodel>  (1) 
-36.138361997835503

>  <r_i_glide_emodel_strain>  (1) 
0

>  <r_i_glide_energy>  (1) 
-28.355292559266037

>  <r_i_glide_erotb>  (1) 
0.95139353164667573

>  <r_i_glide_esite>  (1) 
0

>  <r_i_glide_evdw>  (1) 
-23.782265846851974

>  <r_i_glide_gscore>  (1) 
-4.7494043979124934

>  <r_i_glide_gscore_strain>  (1) 
0

>  <r_i_glide_hbond>  (1) 
-0.32000000000000001

>  <r_i_glide_ligand_efficiency>  (1) 
-0.3392431712794638

>  <r_i_glide_ligand_efficiency_ln>  (1) 
-1.3051194217966957

>  <r_i_glide_ligand_efficiency_sa>  (1) 
-0.81762430493347238

>  <r_i_glide_lipo>  (1) 
-1.1215632813959078

>  <r_i_glide_metal>  (1) 
-0

>  <r_i_glide_rewards>  (1) 
-2.3841673489585542

>  <r_lp_Energy>  (1) 
4.4605119999999996

>  <r_lp_tautomer_probability>  (1) 
1

>  <s_epik_cmdline>  (1) 
J2VwaWtfcHl0aG9uJywgJy1waHQnLCAnMS4wJywgJy1waCcsICc3LjQnLCAnLXRuJywgJzgnLCAnLW1hJywgJzUwMCcsICctaW1hZScsICc8aW5maWxlLm1hZT4nLCAnLW9tYWUnLCAnPG91dGZpbGUubWFlPic=

>  <s_epik_input>  (1) 
W09IXVtDQEhdKFtDSDNdKS9bQ0hdPVtDSF0vU1tDQEhdMVtDSDJdW0NIMl1bQ0gyXVtDQEhdKFtDSDJdMSlTW0NIM10=

>  <s_glide_docking_method>  (1) 
confgen

>  <s_i_glide_gridfile>  (1) 
gpcr_5ht2c_6bqh_protein_autoprepared_prepared

>  <s_lp_Force_Field>  (1) 
S-OPLS

>  <s_lp_Variant>  (1) 
DiffSBDD_60-1

>  <s_m_source_file>  (1) 
generated_GPCR_5HT2C_ligand_DiffSBDD_2026-06-23_prepared.sdf

>  <GenAI_Model>  (1) 
DiffSBDD

>  <Protein>  (1) 
GPCR_5HT2C

$$$$
DiffSBDD_21
     RDKit          3D

  0  0  0  0  0  0  0  0  0  0999 V3000
M  V30 BEGIN CTAB
M  V30 COUNTS 55 56 0 0 1
M  V30 BEGIN ATOM
M  V30 1 C 39.451459 28.486331 51.421460 0
M  V30 2 C 39.202135 29.379671 52.491233 0
M  V30 3 C 37.434274 37.523974 61.077974 0
M  V30 4 O 35.894795 35.209180 59.367685 0
M  V30 5 O 36.045326 30.137718 59.072530 0
M  V30 6 O 41.158240 31.559431 63.604599 0
M  V30 7 C 36.452114 31.271536 59.811067 0
M  V30 8 N 39.645019 27.737768 50.567791 0
M  V30 9 C 38.819138 31.281952 54.702536 0
M  V30 10 C 37.747275 30.219897 54.381747 0
M  V30 11 O 37.429096 36.158934 61.456979 0
M  V30 12 C 38.458482 32.157742 55.905810 0
M  V30 13 C 38.080899 35.328234 60.507403 0 CFG=2
M  V30 14 C 40.413468 32.749693 63.814543 0
M  V30 15 C 39.750238 30.953993 61.746527 0
M  V30 16 C 37.230450 34.761456 59.395102 0 CFG=1
M  V30 17 C 38.384138 31.356452 57.205303 0
M  V30 18 C 37.928234 31.631463 59.527316 0 CFG=1
M  V30 19 N 38.973368 32.199392 61.816040 0
M  V30 20 O 38.045562 32.239187 58.251974 0
M  V30 21 C 38.530577 32.697815 60.491161 0 CFG=2
M  V30 22 C 39.795183 33.217819 62.485077 0
M  V30 23 C 40.330255 30.520588 63.103942 0
M  V30 24 C 38.079355 29.300829 53.223759 0
M  V30 25 C 37.578842 33.898804 60.604000 0 CFG=1
M  V30 26 H 39.949344 30.128997 52.697815 0
M  V30 27 H 36.958598 38.122793 61.854496 0
M  V30 28 H 38.448478 37.898051 60.948427 0
M  V30 29 H 36.885294 37.676374 60.148224 0
M  V30 30 H 35.697473 35.482508 58.479982 0
M  V30 31 H 35.804349 30.459330 58.206600 0
M  V30 32 H 35.782065 32.100876 59.581421 0
M  V30 33 H 36.331839 31.035957 60.868633 0
M  V30 34 H 38.953565 31.928732 53.835082 0
M  V30 35 H 39.781504 30.803972 54.890866 0
M  V30 36 H 37.573640 29.567322 55.235949 0
M  V30 37 H 36.797394 30.712763 54.174150 0
M  V30 38 H 37.508079 32.658484 55.728580 0
M  V30 39 H 39.202994 32.946883 56.016817 0
M  V30 40 H 39.144855 35.512142 60.367219 0
M  V30 41 H 41.071767 33.520989 64.215259 0
M  V30 42 H 39.645138 32.556212 64.561901 0
M  V30 43 H 39.116598 30.133659 61.409805 0
M  V30 44 H 40.560312 31.061612 61.023459 0
M  V30 45 H 37.645467 34.571986 58.410454 0
M  V30 46 H 39.343572 30.878425 57.404850 0
M  V30 47 H 37.631999 30.575312 57.136087 0
M  V30 48 H 38.533921 30.727883 59.525468 0
M  V30 49 H 39.424929 33.057694 59.978854 0
M  V30 50 H 40.607417 33.519837 61.821990 0
M  V30 51 H 39.205575 34.112960 62.678133 0
M  V30 52 H 40.924493 29.613467 62.992904 0
M  V30 53 H 39.533836 30.297026 63.816014 0
M  V30 54 H 37.347742 28.539685 52.992864 0
M  V30 55 H 36.759430 33.728988 61.302090 0
M  V30 END ATOM
M  V30 BEGIN BOND
M  V30 1 1 2 1
M  V30 2 1 7 5
M  V30 3 3 8 1
M  V30 4 1 10 9
M  V30 5 1 11 3
M  V30 6 1 12 9
M  V30 7 1 13 11
M  V30 8 1 14 6
M  V30 9 1 16 4
M  V30 10 1 16 13
M  V30 11 1 17 12
M  V30 12 1 18 7
M  V30 13 1 19 15
M  V30 14 1 20 17
M  V30 15 1 20 18
M  V30 16 1 21 18
M  V30 17 1 21 19
M  V30 18 1 22 14
M  V30 19 1 22 19
M  V30 20 1 23 6
M  V30 21 1 23 15
M  V30 22 2 24 2
M  V30 23 1 24 10
M  V30 24 1 25 13
M  V30 25 1 25 16
M  V30 26 1 25 21
M  V30 27 1 26 2
M  V30 28 1 27 3
M  V30 29 1 28 3
M  V30 30 1 29 3
M  V30 31 1 30 4
M  V30 32 1 31 5
M  V30 33 1 32 7
M  V30 34 1 33 7
M  V30 35 1 34 9
M  V30 36 1 35 9
M  V30 37 1 36 10
M  V30 38 1 37 10
M  V30 39 1 38 12
M  V30 40 1 39 12
M  V30 41 1 13 40 CFG=3
M  V30 42 1 41 14
M  V30 43 1 42 14
M  V30 44 1 43 15
M  V30 45 1 44 15
M  V30 46 1 16 45 CFG=3
M  V30 47 1 46 17
M  V30 48 1 47 17
M  V30 49 1 18 48 CFG=3
M  V30 50 1 21 49 CFG=3
M  V30 51 1 50 22
M  V30 52 1 51 22
M  V30 53 1 52 23
M  V30 54 1 53 23
M  V30 55 1 54 24
M  V30 56 1 25 55 CFG=1
M  V30 END BOND
M  V30 END CTAB
M  END
>  <i_epik_Tot_Q>  (1) 
0

>  <i_epik_Tot_abs_Q>  (1) 
0

>  <i_i_glide_confnum>  (1) 
3620

>  <i_i_glide_lignum>  (1) 
52

>  <i_i_glide_posenum>  (1) 
124

>  <i_i_glide_rotatable_bonds>  (1) 
13

>  <i_lp_mmshare_version>  (1) 
72125

>  <i_m_source_file_index>  (1) 
22

>  <i_f3d_flags>  (1) 
0

>  <num_sample>  (1) 
100

>  <b_lp_Chiralities_Consistent>  (1) 
1

>  <r_epik_Charging_Adjusted_Penalty>  (1) 
0.033214284747091018

>  <r_epik_Ionization_Penalty>  (1) 
0.033214513384273246

>  <r_epik_Ionization_Penalty_Charging>  (1) 
0

>  <r_epik_Ionization_Penalty_Neutral>  (1) 
0.033214513384273246

>  <r_epik_State_Penalty>  (1) 
0.033214284747091018

>  <r_glide_ring_energy>  (1) 
0

>  <r_i_docking_score>  (1) 
-4.7429627449960732

>  <r_i_glide_ecoul>  (1) 
-4.1759792419007873

>  <r_i_glide_eff_state_penalty>  (1) 
0.033214284747091018

>  <r_i_glide_einternal>  (1) 
7.0447236235162087

>  <r_i_glide_emodel>  (1) 
-43.668989387407152

>  <r_i_glide_emodel_strain>  (1) 
2.0888211303601167

>  <r_i_glide_energy>  (1) 
-38.50209182761499

>  <r_i_glide_erotb>  (1) 
1.5209836995870194

>  <r_i_glide_esite>  (1) 
0

>  <r_i_glide_evdw>  (1) 
-34.326112585714199

>  <r_i_glide_gscore>  (1) 
-4.776177029743164

>  <r_i_glide_gscore_strain>  (1) 
0

>  <r_i_glide_hbond>  (1) 
-0.43165717663868997

>  <r_i_glide_ligand_efficiency>  (1) 
-0.18971850979984292

>  <r_i_glide_ligand_efficiency_ln>  (1) 
-1.1242243056879364

>  <r_i_glide_ligand_efficiency_sa>  (1) 
-0.55474028792205221

>  <r_i_glide_lipo>  (1) 
-1.7549069428928226

>  <r_i_glide_metal>  (1) 
-0

>  <r_i_glide_rewards>  (1) 
-1.7678940942278438

>  <r_lp_Energy>  (1) 
16.758039999999998

>  <s_epik_cmdline>  (1) 
J2VwaWtfcHl0aG9uJywgJy1waHQnLCAnMS4wJywgJy1waCcsICc3LjQnLCAnLXRuJywgJzgnLCAnLW1hJywgJzUwMCcsICctaW1hZScsICc8aW5maWxlLm1hZT4nLCAnLW9tYWUnLCAnPG91dGZpbGUubWFlPic=

>  <s_epik_input>  (1) 
TiNDL1tDSF09W0NIXS9bQ0gyXVtDSDJdW0NIMl1bQ0gyXU9bQ0BIXShbQ0gyXVtPSF0pW0NAQEhdKFtDQEBIXTFbQ0BASF0oW09IXSlbQ0BIXTFPW0NIM10pTjJbQ0gyXVtDSDJdT1tDSDJdW0NIMl0y

>  <s_glide_docking_method>  (1) 
confgen

>  <s_i_glide_gridfile>  (1) 
gpcr_5ht2c_6bqh_protein_autoprepared_prepared

>  <s_lp_Force_Field>  (1) 
S-OPLS

>  <s_lp_Variant>  (1) 
DiffSBDD_21-2

>  <s_m_source_file>  (1) 
generated_GPCR_5HT2C_ligand_DiffSBDD_2026-06-23_prepared.sdf

>  <GenAI_Model>  (1) 
DiffSBDD

>  <Protein>  (1) 
GPCR_5HT2C

$$$$
DiffSBDD_54
     RDKit          3D

  0  0  0  0  0  0  0  0  0  0999 V3000
M  V30 BEGIN CTAB
M  V30 COUNTS 42 43 0 0 1
M  V30 BEGIN ATOM
M  V30 1 C 38.170102 32.611804 58.357504 0
M  V30 2 C 39.305904 28.233756 57.971360 0
M  V30 3 C 39.124918 28.709405 60.396419 0
M  V30 4 C 39.062074 29.605964 53.624865 0
M  V30 5 C 37.290873 30.432451 55.338534 0
M  V30 6 S 37.328161 30.028390 58.623590 0 CHG=1
M  V30 7 C 37.447895 31.673318 60.539587 0
M  V30 8 N 40.382674 28.233493 57.211114 0
M  V30 9 C 38.873269 32.381343 55.597289 0
M  V30 10 C 40.165709 27.035044 56.544638 0
M  V30 11 N 39.033936 26.378211 56.872011 0
M  V30 12 N 38.520225 27.192054 57.802141 0
M  V30 13 N 37.645152 31.431525 57.621256 0 CFG=2 CHG=1
M  V30 14 C 38.291385 31.130811 56.299258 0 CFG=1
M  V30 15 C 37.356335 32.882695 59.618048 0
M  V30 16 C 37.859172 29.262675 54.512426 0
M  V30 17 O 36.823869 30.536572 59.945186 0
M  V30 18 C 38.984404 29.303186 58.979419 0 CFG=2
M  V30 19 H 38.100802 33.509614 57.743470 0
M  V30 20 H 39.222745 32.472496 58.604000 0
M  V30 21 H 40.134830 28.326437 60.549424 0
M  V30 22 H 38.445111 27.872408 60.547874 0
M  V30 23 H 38.938608 29.425858 61.192047 0
M  V30 24 H 39.327834 28.757496 52.993795 0
M  V30 25 H 39.941243 29.858196 54.218158 0
M  V30 26 H 38.845388 30.446643 52.967706 0
M  V30 27 H 36.845044 31.168874 54.667229 0
M  V30 28 H 36.445136 30.037298 55.895829 0
M  V30 29 H 38.488247 31.489706 60.804318 0
M  V30 30 H 36.928620 31.890333 61.473550 0
M  V30 31 H 39.278178 32.136758 54.616876 0
M  V30 32 H 39.694527 32.825674 56.160297 0
M  V30 33 H 38.110072 33.145106 55.437339 0
M  V30 34 H 40.845134 26.650592 55.799192 0
M  V30 35 H 37.660476 26.986123 58.292115 0
M  V30 36 H 39.136511 30.472912 56.480138 0
M  V30 37 H 37.744443 33.767491 60.124672 0
M  V30 38 H 36.315063 33.095732 59.368577 0
M  V30 39 H 38.125211 28.441968 55.174908 0
M  V30 40 H 37.063400 28.874299 53.875695 0
M  V30 41 H 39.717047 30.102641 58.885570 0
M  V30 42 H 36.696334 31.737756 57.331805 0
M  V30 END ATOM
M  V30 BEGIN BOND
M  V30 1 2 8 2
M  V30 2 1 10 8
M  V30 3 2 11 10
M  V30 4 1 12 2
M  V30 5 1 12 11
M  V30 6 1 13 1
M  V30 7 1 13 6
M  V30 8 1 14 5
M  V30 9 1 14 9
M  V30 10 1 14 13
M  V30 11 1 15 1
M  V30 12 1 15 7
M  V30 13 1 16 4
M  V30 14 1 16 5
M  V30 15 1 6 17 CFG=1
M  V30 16 1 17 7
M  V30 17 1 18 2
M  V30 18 1 18 3
M  V30 19 1 18 6
M  V30 20 1 19 1
M  V30 21 1 20 1
M  V30 22 1 21 3
M  V30 23 1 22 3
M  V30 24 1 23 3
M  V30 25 1 24 4
M  V30 26 1 25 4
M  V30 27 1 26 4
M  V30 28 1 27 5
M  V30 29 1 28 5
M  V30 30 1 29 7
M  V30 31 1 30 7
M  V30 32 1 31 9
M  V30 33 1 32 9
M  V30 34 1 33 9
M  V30 35 1 34 10
M  V30 36 1 35 12
M  V30 37 1 14 36 CFG=1
M  V30 38 1 37 15
M  V30 39 1 38 15
M  V30 40 1 39 16
M  V30 41 1 40 16
M  V30 42 1 18 41 CFG=1
M  V30 43 1 13 42 CFG=3
M  V30 END BOND
M  V30 END CTAB
M  END
>  <i_epik_Tot_Q>  (1) 
2

>  <i_epik_Tot_abs_Q>  (1) 
2

>  <i_i_glide_confnum>  (1) 
48

>  <i_i_glide_lignum>  (1) 
118

>  <i_i_glide_posenum>  (1) 
27

>  <i_i_glide_rotatable_bonds>  (1) 
5

>  <i_lp_mmshare_version>  (1) 
72125

>  <i_m_source_file_index>  (1) 
55

>  <i_f3d_flags>  (1) 
0

>  <num_sample>  (1) 
100

>  <b_lp_Chiralities_Consistent>  (1) 
1

>  <r_epik_Charging_Adjusted_Penalty>  (1) 
0.22285261290592212

>  <r_epik_Ionization_Penalty>  (1) 
0.11376846567106323

>  <r_epik_Ionization_Penalty_Charging>  (1) 
0.11142630645296109

>  <r_epik_Ionization_Penalty_Neutral>  (1) 
0.0023421592181021404

>  <r_epik_State_Penalty>  (1) 
0.11142630645296105

>  <r_glide_ring_energy>  (1) 
0

>  <r_i_docking_score>  (1) 
-4.7428538247363727

>  <r_i_glide_ecoul>  (1) 
-7.649027090812174

>  <r_i_glide_eff_state_penalty>  (1) 
0.11142630645296105

>  <r_i_glide_einternal>  (1) 
3.6448289564334644

>  <r_i_glide_emodel>  (1) 
-46.648402264345023

>  <r_i_glide_emodel_strain>  (1) 
0.031137885167115797

>  <r_i_glide_energy>  (1) 
-32.561127962096727

>  <r_i_glide_erotb>  (1) 
0.96597774364564237

>  <r_i_glide_esite>  (1) 
-0.16279398356901065

>  <r_i_glide_evdw>  (1) 
-24.912100871284551

>  <r_i_glide_gscore>  (1) 
-4.8542801311893342

>  <r_i_glide_gscore_strain>  (1) 
0

>  <r_i_glide_hbond>  (1) 
-0.1466874881553985

>  <r_i_glide_ligand_efficiency>  (1) 
-0.26349187915202071

>  <r_i_glide_ligand_efficiency_ln>  (1) 
-1.2191261195308527

>  <r_i_glide_ligand_efficiency_sa>  (1) 
-0.69054407473158885

>  <r_i_glide_lipo>  (1) 
-0.69202812051245322

>  <r_i_glide_metal>  (1) 
-0

>  <r_i_glide_rewards>  (1) 
-2.42578917541206

>  <r_lp_Energy>  (1) 
19.301023999999998

>  <r_lp_tautomer_probability>  (1) 
0.94828448534560383

>  <s_epik_cmdline>  (1) 
J2VwaWtfcHl0aG9uJywgJy1waHQnLCAnMS4wJywgJy1waCcsICc3LjQnLCAnLXRuJywgJzgnLCAnLW1hJywgJzUwMCcsICctaW1hZScsICc8aW5maWxlLm1hZT4nLCAnLW9tYWUnLCAnPG91dGZpbGUubWFlPic=

>  <s_epik_input>  (1) 
W0NIM11bQ0gyXVtDSDJdW0NASF0oW0NIM10pTihbQ0gyXVtDSDJdW0NIMl1PMSlbUytdMVtDQEBIXShbQ0gzXSljMm5bY0hdbltuSF0y

>  <s_glide_docking_method>  (1) 
confgen

>  <s_i_glide_gridfile>  (1) 
gpcr_5ht2c_6bqh_protein_autoprepared_prepared

>  <s_lp_Force_Field>  (1) 
S-OPLS

>  <s_lp_Variant>  (1) 
DiffSBDD_54-4

>  <s_m_source_file>  (1) 
generated_GPCR_5HT2C_ligand_DiffSBDD_2026-06-23_prepared.sdf

>  <GenAI_Model>  (1) 
DiffSBDD

>  <Protein>  (1) 
GPCR_5HT2C

$$$$
DiffSBDD_20
     RDKit          3D

  0  0  0  0  0  0  0  0  0  0999 V3000
M  V30 BEGIN CTAB
M  V30 COUNTS 52 53 0 0 1
M  V30 BEGIN ATOM
M  V30 1 C 39.512116 28.210020 58.492167 0 CFG=2
M  V30 2 O 37.246361 28.880350 57.767801 0
M  V30 3 O 41.046323 30.473195 61.717061 0
M  V30 4 P 39.648292 29.877907 61.645085 0
M  V30 5 C 38.863536 28.026025 56.099522 0 CFG=1
M  V30 6 N 34.845146 33.234371 60.726014 0
M  V30 7 C 38.850542 29.148480 53.719440 0
M  V30 8 C 38.933508 27.944562 51.462935 0
M  V30 9 C 39.839446 29.688889 58.843357 0
M  V30 10 C 38.888943 31.900885 59.878087 0 CFG=2
M  V30 11 N 40.627866 27.651415 57.711214 0 CHG=1
M  V30 12 C 38.300704 27.975375 57.549330 0
M  V30 13 F 35.645125 34.637575 62.386564 0
M  V30 14 C 38.512403 27.867318 52.934589 0
M  V30 15 C 35.892161 33.727419 61.423473 0
M  V30 16 O 38.682504 30.538214 62.603374 0 CHG=-1
M  V30 17 O 39.649601 28.367078 61.694278 0 CHG=-1
M  V30 18 C 37.473563 32.370645 60.188334 0
M  V30 19 C 37.222211 33.324068 61.188786 0
M  V30 20 C 39.034399 30.346377 59.998458 0 CFG=2
M  V30 21 C 35.101787 32.320986 59.770443 0
M  V30 22 O 38.603716 30.440536 55.709874 0
M  V30 23 C 36.390667 31.861874 59.468950 0
M  V30 24 C 38.331053 29.161948 55.171882 0 CFG=2
M  V30 25 C 40.389462 27.975706 56.290024 0
M  V30 26 O 39.901824 32.628524 60.567787 0
M  V30 27 O 37.871259 26.647124 57.767753 0
M  V30 28 H 39.411739 27.628259 59.406410 0
M  V30 29 H 37.490330 29.721856 57.397595 0
M  V30 30 H 38.579935 27.095110 55.606110 0
M  V30 31 H 38.405514 29.993724 53.194225 0
M  V30 32 H 39.922509 29.337636 53.696999 0
M  V30 33 H 38.661662 27.030232 50.934204 0
M  V30 34 H 38.445296 28.778471 50.958550 0
M  V30 35 H 40.010828 28.078820 51.364137 0
M  V30 36 H 40.894893 29.737755 59.114374 0
M  V30 37 H 39.726799 30.279741 57.939286 0
M  V30 38 H 39.011867 32.178751 58.831245 0
M  V30 39 H 40.579251 26.648118 57.818787 0
M  V30 40 H 39.000002 27.004979 53.388377 0
M  V30 41 H 37.438615 27.679548 52.985820 0
M  V30 42 H 38.030686 33.740822 61.768870 0
M  V30 43 H 38.040068 29.910915 59.943483 0
M  V30 44 H 34.247771 31.945474 59.226317 0
M  V30 45 H 39.423127 30.764436 55.367129 0
M  V30 46 H 36.540449 31.134203 58.688898 0
M  V30 47 H 37.245211 29.072898 55.126565 0
M  V30 48 H 40.845201 27.228336 55.642385 0
M  V30 49 H 40.845107 28.937925 56.066690 0
M  V30 50 H 40.392343 32.005909 61.112000 0
M  V30 51 H 37.061191 26.524132 57.296208 0
M  V30 52 H 41.519196 27.983250 58.051189 0
M  V30 END ATOM
M  V30 BEGIN BOND
M  V30 1 2 4 3
M  V30 2 1 9 1
M  V30 3 1 11 1
M  V30 4 1 12 1
M  V30 5 1 12 2
M  V30 6 1 12 5
M  V30 7 1 14 7
M  V30 8 1 14 8
M  V30 9 2 15 6
M  V30 10 1 15 13
M  V30 11 1 16 4
M  V30 12 1 17 4
M  V30 13 1 18 10
M  V30 14 1 19 15
M  V30 15 2 19 18
M  V30 16 1 20 4
M  V30 17 1 20 9
M  V30 18 1 20 10
M  V30 19 1 21 6
M  V30 20 1 23 18
M  V30 21 2 23 21
M  V30 22 1 24 5
M  V30 23 1 24 7
M  V30 24 1 24 22
M  V30 25 1 25 5
M  V30 26 1 25 11
M  V30 27 1 26 10
M  V30 28 1 27 12
M  V30 29 1 1 28 CFG=1
M  V30 30 1 29 2
M  V30 31 1 5 30 CFG=3
M  V30 32 1 31 7
M  V30 33 1 32 7
M  V30 34 1 33 8
M  V30 35 1 34 8
M  V30 36 1 35 8
M  V30 37 1 36 9
M  V30 38 1 37 9
M  V30 39 1 10 38 CFG=3
M  V30 40 1 39 11
M  V30 41 1 40 14
M  V30 42 1 41 14
M  V30 43 1 42 19
M  V30 44 1 20 43 CFG=1
M  V30 45 1 44 21
M  V30 46 1 45 22
M  V30 47 1 46 23
M  V30 48 1 24 47 CFG=3
M  V30 49 1 48 25
M  V30 50 1 49 25
M  V30 51 1 50 26
M  V30 52 1 51 27
M  V30 53 1 52 11
M  V30 END BOND
M  V30 END CTAB
M  END
>  <i_epik_Tot_Q>  (1) 
-1

>  <i_epik_Tot_abs_Q>  (1) 
3

>  <i_i_glide_confnum>  (1) 
159

>  <i_i_glide_lignum>  (1) 
48

>  <i_i_glide_posenum>  (1) 
119

>  <i_i_glide_rotatable_bonds>  (1) 
12

>  <i_lp_mmshare_version>  (1) 
72125

>  <i_m_source_file_index>  (1) 
21

>  <i_f3d_flags>  (1) 
0

>  <num_sample>  (1) 
100

>  <b_lp_Chiralities_Consistent>  (1) 
1

>  <r_epik_Charging_Adjusted_Penalty>  (1) 
0.6119073465235404

>  <r_epik_Ionization_Penalty>  (1) 
0.30667552727884728

>  <r_epik_Ionization_Penalty_Charging>  (1) 
0.30666936404430589

>  <r_epik_Ionization_Penalty_Neutral>  (1) 
6.1632345413695363e-06

>  <r_epik_State_Penalty>  (1) 
0.3052379824792345

>  <r_glide_ring_energy>  (1) 
0

>  <r_i_docking_score>  (1) 
-4.735935633799687

>  <r_i_glide_ecoul>  (1) 
-4.6143242867100529

>  <r_i_glide_eff_state_penalty>  (1) 
0.3052379824792345

>  <r_i_glide_einternal>  (1) 
13.518721675715376

>  <r_i_glide_emodel>  (1) 
-39.75631397593196

>  <r_i_glide_emodel_strain>  (1) 
2.3759483570450612

>  <r_i_glide_energy>  (1) 
-32.002460970386906

>  <r_i_glide_erotb>  (1) 
0.59271143775516177

>  <r_i_glide_esite>  (1) 
0

>  <r_i_glide_evdw>  (1) 
-27.388136683676855

>  <r_i_glide_gscore>  (1) 
-5.0411736162789218

>  <r_i_glide_gscore_strain>  (1) 
0

>  <r_i_glide_hbond>  (1) 
-0.16

>  <r_i_glide_ligand_efficiency>  (1) 
-0.17540502347406248

>  <r_i_glide_ligand_efficiency_ln>  (1) 
-1.1024477375475166

>  <r_i_glide_ligand_efficiency_sa>  (1) 
-0.52621507042218751

>  <r_i_glide_lipo>  (1) 
-1.9806364823722646

>  <r_i_glide_metal>  (1) 
-0

>  <r_i_glide_rewards>  (1) 
-1.4316930944714681

>  <r_lp_Energy>  (1) 
8.755507999999999

>  <s_epik_cmdline>  (1) 
J2VwaWtfcHl0aG9uJywgJy1waHQnLCAnMS4wJywgJy1waCcsICc3LjQnLCAnLXRuJywgJzgnLCAnLW1hJywgJzUwMCcsICctaW1hZScsICc8aW5maWxlLm1hZT4nLCAnLW9tYWUnLCAnPG91dGZpbGUubWFlPic=

>  <s_epik_input>  (1) 
W0NIM11bQ0gyXVtDSDJdW0NAQEhdKFtPSF0pW0NASF0xW0NIMl1bTkhdW0NASF0oQzEoW09IXSlbT0hdKVtDSDJdW0NAQEhdKFAoPU8pKFtPSF0pW09IXSlbQ0BIXShbT0hdKWMoW2NIXTIpW2NIXVtjSF1uYzJG

>  <s_glide_docking_method>  (1) 
confgen

>  <s_i_glide_gridfile>  (1) 
gpcr_5ht2c_6bqh_protein_autoprepared_prepared

>  <s_lp_Force_Field>  (1) 
S-OPLS

>  <s_lp_Variant>  (1) 
DiffSBDD_20-2

>  <s_m_source_file>  (1) 
generated_GPCR_5HT2C_ligand_DiffSBDD_2026-06-23_prepared.sdf

>  <GenAI_Model>  (1) 
DiffSBDD

>  <Protein>  (1) 
GPCR_5HT2C

$$$$
DiffSBDD_80
     RDKit          3D

  0  0  0  0  0  0  0  0  0  0999 V3000
M  V30 BEGIN CTAB
M  V30 COUNTS 52 52 0 0 1
M  V30 BEGIN ATOM
M  V30 1 O 36.444971 37.691467 62.633624 0
M  V30 2 C 36.828274 36.914964 61.512138 0
M  V30 3 C 38.829312 26.959562 54.019411 0
M  V30 4 C 39.242053 25.384600 55.907260 0
M  V30 5 C 38.032221 29.613142 59.547573 0
M  V30 6 C 38.510955 32.085151 59.330466 0
M  V30 7 O 39.962221 33.075771 62.497427 0
M  V30 8 C 37.434956 30.982807 59.256157 0 CFG=2
M  V30 9 C 38.245149 29.130805 55.719220 0
M  V30 10 N 39.200909 32.060040 60.632133 0
M  V30 11 O 36.749246 36.937744 63.835231 0
M  V30 12 C 38.493186 28.207973 53.478731 0
M  V30 13 O 39.285677 25.035591 57.081391 0
M  V30 14 C 38.883122 26.766626 55.416706 0
M  V30 15 C 38.197823 29.287135 54.322896 0
M  V30 16 C 38.319372 28.739601 58.610386 0
M  V30 17 C 38.593309 27.879183 56.300997 0
M  V30 18 C 38.659518 27.763194 57.797683 0
M  V30 19 C 39.403920 33.146543 61.405469 0
M  V30 20 Cl 38.447440 28.414212 51.768037 0
M  V30 21 C 38.339815 36.944416 61.247478 0
M  V30 22 C 40.637742 36.107739 61.909096 0
M  V30 23 C 36.266758 31.235268 60.235454 0
M  V30 24 C 39.144722 35.737918 61.784381 0 CFG=2
M  V30 25 C 38.908791 34.503811 60.873941 0
M  V30 26 C 35.369854 32.436933 59.899812 0
M  V30 27 H 36.445194 35.897437 61.589874 0
M  V30 28 H 36.325289 37.363186 60.654110 0
M  V30 29 H 39.049258 26.137814 53.356155 0
M  V30 30 H 39.463467 24.683419 55.101874 0
M  V30 31 H 38.211631 29.382886 60.583371 0
M  V30 32 H 38.060110 33.033277 59.049567 0
M  V30 33 H 39.245076 31.897445 58.549341 0
M  V30 34 H 37.030865 30.969421 58.242468 0
M  V30 35 H 38.020967 29.977776 56.350321 0
M  V30 36 H 39.524145 31.165189 60.967721 0
M  V30 37 H 35.933975 36.475495 63.979555 0
M  V30 38 H 37.937538 30.245881 53.899084 0
M  V30 39 H 39.006124 26.846079 58.208634 0
M  V30 40 H 38.445137 36.965598 60.164778 0
M  V30 41 H 38.748663 37.886194 61.615166 0
M  V30 42 H 41.070185 36.380594 60.947826 0
M  V30 43 H 40.772716 36.953779 62.583301 0
M  V30 44 H 41.233354 35.290960 62.314550 0
M  V30 45 H 35.645068 30.343277 60.248455 0
M  V30 46 H 36.648798 31.347805 61.250474 0
M  V30 47 H 38.791782 35.510697 62.790284 0
M  V30 48 H 37.838551 34.405870 60.706159 0
M  V30 49 H 39.374517 34.683011 59.904800 0
M  V30 50 H 34.625132 32.591096 60.679310 0
M  V30 51 H 35.933106 33.363735 59.807342 0
M  V30 52 H 34.828440 32.282531 58.967826 0
M  V30 END ATOM
M  V30 BEGIN BOND
M  V30 1 1 2 1
M  V30 2 1 8 5
M  V30 3 1 8 6
M  V30 4 1 10 6
M  V30 5 1 11 1
M  V30 6 2 12 3
M  V30 7 2 13 4
M  V30 8 1 14 3
M  V30 9 1 14 4
M  V30 10 2 15 9
M  V30 11 1 15 12
M  V30 12 2 16 5
M  V30 13 1 17 9
M  V30 14 2 17 14
M  V30 15 2 18 16
M  V30 16 1 18 17
M  V30 17 2 19 7
M  V30 18 1 19 10
M  V30 19 1 20 12
M  V30 20 1 21 2
M  V30 21 1 23 8
M  V30 22 1 24 21
M  V30 23 1 24 22
M  V30 24 1 25 19
M  V30 25 1 25 24
M  V30 26 1 26 23
M  V30 27 1 27 2
M  V30 28 1 28 2
M  V30 29 1 29 3
M  V30 30 1 30 4
M  V30 31 1 31 5
M  V30 32 1 32 6
M  V30 33 1 33 6
M  V30 34 1 8 34 CFG=3
M  V30 35 1 35 9
M  V30 36 1 36 10
M  V30 37 1 37 11
M  V30 38 1 38 15
M  V30 39 1 39 18
M  V30 40 1 40 21
M  V30 41 1 41 21
M  V30 42 1 42 22
M  V30 43 1 43 22
M  V30 44 1 44 22
M  V30 45 1 45 23
M  V30 46 1 46 23
M  V30 47 1 24 47 CFG=1
M  V30 48 1 48 25
M  V30 49 1 49 25
M  V30 50 1 50 26
M  V30 51 1 51 26
M  V30 52 1 52 26
M  V30 END BOND
M  V30 END CTAB
M  END
>  <i_epik_Tot_Q>  (1) 
0

>  <i_epik_Tot_abs_Q>  (1) 
0

>  <i_i_glide_confnum>  (1) 
2149

>  <i_i_glide_lignum>  (1) 
186

>  <i_i_glide_posenum>  (1) 
343

>  <i_i_glide_rotatable_bonds>  (1) 
13

>  <i_lp_mmshare_version>  (1) 
72125

>  <i_m_source_file_index>  (1) 
81

>  <i_f3d_flags>  (1) 
0

>  <num_sample>  (1) 
100

>  <b_lp_Chiralities_Consistent>  (1) 
1

>  <r_epik_Charging_Adjusted_Penalty>  (1) 
0

>  <r_epik_Ionization_Penalty>  (1) 
8.3445448322163385e-06

>  <r_epik_Ionization_Penalty_Charging>  (1) 
0

>  <r_epik_Ionization_Penalty_Neutral>  (1) 
8.3445448322163385e-06

>  <r_epik_State_Penalty>  (1) 
-0

>  <r_glide_ring_energy>  (1) 
0

>  <r_i_docking_score>  (1) 
-4.7356975944160569

>  <r_i_glide_ecoul>  (1) 
-2.0440889577138419

>  <r_i_glide_eff_state_penalty>  (1) 
-0

>  <r_i_glide_einternal>  (1) 
17.390199772569648

>  <r_i_glide_emodel>  (1) 
-48.041848781442141

>  <r_i_glide_emodel_strain>  (1) 
0.041540467045592777

>  <r_i_glide_energy>  (1) 
-43.446974180154953

>  <r_i_glide_erotb>  (1) 
1.3439143837633358

>  <r_i_glide_esite>  (1) 
0

>  <r_i_glide_evdw>  (1) 
-41.402885222441114

>  <r_i_glide_gscore>  (1) 
-4.7356975944160569

>  <r_i_glide_gscore_strain>  (1) 
0

>  <r_i_glide_hbond>  (1) 
-0.051257936979467282

>  <r_i_glide_ligand_efficiency>  (1) 
-0.18214221516984835

>  <r_i_glide_ligand_efficiency_ln>  (1) 
-1.1121630409573786

>  <r_i_glide_ligand_efficiency_sa>  (1) 
-0.53959559633168519

>  <r_i_glide_lipo>  (1) 
-3.0299557562488553

>  <r_i_glide_metal>  (1) 
-0

>  <r_i_glide_rewards>  (1) 
-0.62164068017193741

>  <r_lp_Energy>  (1) 
-6.8237489999999994

>  <r_lp_tautomer_probability>  (1) 
1

>  <s_epik_cmdline>  (1) 
J2VwaWtfcHl0aG9uJywgJy1waHQnLCAnMS4wJywgJy1waCcsICc3LjQnLCAnLXRuJywgJzgnLCAnLW1hJywgJzUwMCcsICctaW1hZScsICc8aW5maWxlLm1hZT4nLCAnLW9tYWUnLCAnPG91dGZpbGUubWFlPic=

>  <s_epik_input>  (1) 
W09IXU9bQ0gyXVtDSDJdW0NASF0oW0NIM10pW0NIMl1DKD1PKVtOSF1bQ0gyXVtDQEhdKFtDSDJdW0NIM10pW0NIXT1DPVtDSF1jKFtjSF1bY0hdMSljKFtDSF09TylbY0hdYzFDbA==

>  <s_glide_docking_method>  (1) 
confgen

>  <s_i_glide_gridfile>  (1) 
gpcr_5ht2c_6bqh_protein_autoprepared_prepared

>  <s_lp_Force_Field>  (1) 
S-OPLS

>  <s_lp_Variant>  (1) 
DiffSBDD_80-1

>  <s_m_source_file>  (1) 
generated_GPCR_5HT2C_ligand_DiffSBDD_2026-06-23_prepared.sdf

>  <GenAI_Model>  (1) 
DiffSBDD

>  <Protein>  (1) 
GPCR_5HT2C

$$$$
DiffSBDD_10
     RDKit          3D

  0  0  0  0  0  0  0  0  0  0999 V3000
M  V30 BEGIN CTAB
M  V30 COUNTS 84 88 0 0 1
M  V30 BEGIN ATOM
M  V30 1 C 36.599659 31.101323 54.416641 0
M  V30 2 C 41.058704 28.770269 66.477792 0
M  V30 3 C 43.059055 27.299763 66.505056 0
M  V30 4 C 37.681317 34.469158 61.012512 0
M  V30 5 C 37.098506 34.891471 59.811425 0
M  V30 6 O 42.366195 26.361676 66.047082 0 CHG=-1
M  V30 7 C 39.415530 28.817008 61.452737 0
M  V30 8 C 39.046131 30.225241 58.821333 0 CFG=1
M  V30 9 O 43.875678 31.424154 68.310145 0
M  V30 10 C 38.622412 30.116352 61.217674 0 CFG=1
M  V30 11 C 42.884994 28.989882 64.651704 0 CFG=2
M  V30 12 C 39.829412 29.700381 52.897210 0 CFG=1
M  V30 13 O 44.101410 27.166732 67.191526 0
M  V30 14 O 41.868665 31.202233 67.486650 0 CHG=-1
M  V30 15 F 37.597853 35.256243 62.108569 0
M  V30 16 C 37.189538 34.094742 58.670089 0
M  V30 17 C 39.680540 29.156241 57.980624 0
M  V30 18 C 38.349849 33.235300 61.082550 0
M  V30 19 F 36.458757 36.082135 59.760994 0
M  V30 20 C 44.350488 28.856228 64.157113 0
M  V30 21 C 43.042385 30.796002 67.620727 0
M  V30 22 C 39.427527 27.183876 53.289630 0
M  V30 23 C 39.703749 30.043877 55.484326 0
M  V30 24 C 45.329474 29.939896 64.637305 0
M  V30 25 C 37.719869 30.490049 57.234148 0 CFG=1
M  V30 26 C 39.872367 30.434223 51.559962 0
M  V30 27 C 39.011867 30.282195 54.090620 0 CFG=2
M  V30 28 C 40.778894 29.135726 62.061280 0
M  V30 29 O 38.514352 30.718096 62.491802 0
M  V30 30 S 42.208582 30.546292 63.996789 0
M  V30 31 N 39.165689 28.258589 51.113250 0
M  V30 32 C 39.448036 28.361495 52.326909 0
M  V30 33 C 38.447849 32.394342 59.942632 0
M  V30 34 O 37.691504 30.125406 58.544960 0
M  V30 35 C 37.858573 32.857199 58.687282 0
M  V30 36 C 37.517130 29.930910 54.020820 0
M  V30 37 C 39.190489 31.007407 60.088882 0 CFG=2
M  V30 38 C 40.621822 30.032375 63.305682 0 CFG=1
M  V30 39 O 39.277069 29.562278 50.577644 0
M  V30 40 O 39.881254 31.163023 62.911869 0
M  V30 41 C 42.596214 28.757567 66.178231 0 CFG=1
M  V30 42 C 37.959054 32.059401 57.328896 0
M  V30 43 N 43.443136 29.657181 67.014223 0
M  V30 44 C 38.862196 29.529943 56.696295 0 CFG=2
M  V30 45 H 35.985409 30.766318 55.214157 0
M  V30 46 H 37.125125 32.016709 54.693004 0
M  V30 47 H 35.770569 31.318944 53.767753 0
M  V30 48 H 40.516433 28.006171 65.919756 0
M  V30 49 H 40.859862 28.599592 67.535862 0
M  V30 50 H 40.572181 29.704660 66.207302 0
M  V30 51 H 38.855929 28.180330 62.133910 0
M  V30 52 H 39.530857 28.231207 60.545092 0
M  V30 53 H 39.635413 30.946473 58.297788 0
M  V30 54 H 37.612185 29.879908 60.915294 0
M  V30 55 H 42.353088 28.196575 64.131425 0
M  V30 56 H 40.844486 29.765222 53.200362 0
M  V30 57 H 36.749291 34.443542 57.766781 0
M  V30 58 H 40.765827 29.240370 57.909597 0
M  V30 59 H 39.417355 28.163818 58.339720 0
M  V30 60 H 38.789204 32.940615 62.011062 0
M  V30 61 H 44.755504 27.870488 64.382836 0
M  V30 62 H 44.328570 28.906225 63.070076 0
M  V30 63 H 39.554166 27.497376 54.323977 0
M  V30 64 H 38.480337 26.649267 53.211301 0
M  V30 65 H 40.229099 26.485502 53.052093 0
M  V30 66 H 40.226244 30.965318 55.752910 0
M  V30 67 H 40.513428 29.321070 55.361402 0
M  V30 68 H 46.179116 30.028697 63.960692 0
M  V30 69 H 44.867553 30.923487 64.700620 0
M  V30 70 H 45.713296 29.701051 65.626904 0
M  V30 71 H 36.747140 30.145527 56.925013 0
M  V30 72 H 39.465462 31.445900 51.582393 0
M  V30 73 H 40.910823 30.549005 51.243395 0
M  V30 74 H 39.102620 31.358219 53.928533 0
M  V30 75 H 41.381187 29.644278 61.318004 0
M  V30 76 H 41.292959 28.204219 62.283889 0
M  V30 77 H 37.288969 29.623120 53.014221 0
M  V30 78 H 37.267377 29.045443 54.601303 0
M  V30 79 H 40.236337 31.221292 60.299652 0
M  V30 80 H 40.052052 29.505190 64.064360 0
M  V30 81 H 37.273782 32.548653 56.650108 0
M  V30 82 H 38.908782 32.332585 56.870897 0
M  V30 83 H 44.396658 29.361138 67.156797 0
M  V30 84 H 38.389937 28.597114 56.387852 0
M  V30 END ATOM
M  V30 BEGIN BOND
M  V30 1 1 5 4
M  V30 2 1 6 3
M  V30 3 1 10 7
M  V30 4 2 13 3
M  V30 5 1 15 4
M  V30 6 2 16 5
M  V30 7 1 17 8
M  V30 8 2 18 4
M  V30 9 1 19 5
M  V30 10 1 20 11
M  V30 11 2 21 9
M  V30 12 1 21 14
M  V30 13 1 24 20
M  V30 14 1 26 12
M  V30 15 1 27 12
M  V30 16 1 27 23
M  V30 17 1 28 7
M  V30 18 1 29 10
M  V30 19 1 30 11
M  V30 20 1 32 12
M  V30 21 1 32 22
M  V30 22 2 32 31
M  V30 23 1 33 18
M  V30 24 1 34 8
M  V30 25 1 34 25
M  V30 26 1 35 16
M  V30 27 2 35 33
M  V30 28 1 36 1
M  V30 29 1 36 27
M  V30 30 1 37 8
M  V30 31 1 37 10
M  V30 32 1 37 33
M  V30 33 1 38 28
M  V30 34 1 38 30
M  V30 35 1 39 26
M  V30 36 1 39 31
M  V30 37 1 40 29
M  V30 38 1 40 38
M  V30 39 1 41 2
M  V30 40 1 41 3
M  V30 41 1 41 11
M  V30 42 1 42 25
M  V30 43 1 42 35
M  V30 44 1 43 21
M  V30 45 1 41 43 CFG=1
M  V30 46 1 44 17
M  V30 47 1 44 23
M  V30 48 1 44 25
M  V30 49 1 45 1
M  V30 50 1 46 1
M  V30 51 1 47 1
M  V30 52 1 48 2
M  V30 53 1 49 2
M  V30 54 1 50 2
M  V30 55 1 51 7
M  V30 56 1 52 7
M  V30 57 1 8 53 CFG=3
M  V30 58 1 10 54 CFG=3
M  V30 59 1 11 55 CFG=3
M  V30 60 1 12 56 CFG=1
M  V30 61 1 57 16
M  V30 62 1 58 17
M  V30 63 1 59 17
M  V30 64 1 60 18
M  V30 65 1 61 20
M  V30 66 1 62 20
M  V30 67 1 63 22
M  V30 68 1 64 22
M  V30 69 1 65 22
M  V30 70 1 66 23
M  V30 71 1 67 23
M  V30 72 1 68 24
M  V30 73 1 69 24
M  V30 74 1 70 24
M  V30 75 1 25 71 CFG=3
M  V30 76 1 72 26
M  V30 77 1 73 26
M  V30 78 1 27 74 CFG=3
M  V30 79 1 75 28
M  V30 80 1 76 28
M  V30 81 1 77 36
M  V30 82 1 78 36
M  V30 83 1 37 79 CFG=1
M  V30 84 1 38 80 CFG=1
M  V30 85 1 81 42
M  V30 86 1 82 42
M  V30 87 1 83 43
M  V30 88 1 44 84 CFG=3
M  V30 END BOND
M  V30 END CTAB
M  END
>  <i_epik_Tot_Q>  (1) 
-2

>  <i_epik_Tot_abs_Q>  (1) 
2

>  <i_i_glide_confnum>  (1) 
1332

>  <i_i_glide_lignum>  (1) 
17

>  <i_i_glide_posenum>  (1) 
91

>  <i_i_glide_rotatable_bonds>  (1) 
12

>  <i_lp_mmshare_version>  (1) 
72125

>  <i_m_source_file_index>  (1) 
11

>  <i_f3d_flags>  (1) 
0

>  <num_sample>  (1) 
100

>  <b_lp_Chiralities_Consistent>  (1) 
1

>  <r_epik_Charging_Adjusted_Penalty>  (1) 
0.0066641346833683675

>  <r_epik_Ionization_Penalty>  (1) 
0.0034118145539950863

>  <r_epik_Ionization_Penalty_Charging>  (1) 
0.0034117433904366969

>  <r_epik_Ionization_Penalty_Neutral>  (1) 
7.1163558389510919e-08

>  <r_epik_State_Penalty>  (1) 
0.0032523912929316705

>  <r_glide_ring_energy>  (1) 
1.0808791285296326

>  <r_i_docking_score>  (1) 
-4.7273084572049138

>  <r_i_glide_ecoul>  (1) 
0.41258506362941449

>  <r_i_glide_eff_state_penalty>  (1) 
0.0032523912929316705

>  <r_i_glide_einternal>  (1) 
24.33744815009457

>  <r_i_glide_emodel>  (1) 
-19.462657459317739

>  <r_i_glide_emodel_strain>  (1) 
2.516792353721911

>  <r_i_glide_energy>  (1) 
-24.459111738976588

>  <r_i_glide_erotb>  (1) 
0.27131343112086626

>  <r_i_glide_esite>  (1) 
0

>  <r_i_glide_evdw>  (1) 
-24.871696802606003

>  <r_i_glide_gscore>  (1) 
-4.7305608484978459

>  <r_i_glide_gscore_strain>  (1) 
0

>  <r_i_glide_hbond>  (1) 
0

>  <r_i_glide_ligand_efficiency>  (1) 
-0.10743882857283894

>  <r_i_glide_ligand_efficiency_ln>  (1) 
-0.98811059321100492

>  <r_i_glide_ligand_efficiency_sa>  (1) 
-0.37929648960150431

>  <r_i_glide_lipo>  (1) 
-2.7324820142329318

>  <r_i_glide_metal>  (1) 
-0

>  <r_i_glide_rewards>  (1) 
-1.0876951847998926

>  <r_lp_Energy>  (1) 
101.860817

>  <s_epik_Chemistry_Notes>  (1) 
This compound has an imine and may undergo hydrolysis. This compound contains an acetal/aminal-like group ( X-CH(R)-Y where X, Y are N, S, or O) that may be acid/base labile, releasing an aldehyde.

>  <s_epik_cmdline>  (1) 
J2VwaWtfcHl0aG9uJywgJy1waHQnLCAnMS4wJywgJy1waCcsICc3LjQnLCAnLXRuJywgJzgnLCAnLW1hJywgJzUwMCcsICctaW1hZScsICc8aW5maWxlLm1hZT4nLCAnLW9tYWUnLCAnPG91dGZpbGUubWFlPic=

>  <s_epik_input>  (1) 
W0NIM11DMT1OT1tDSDJdW0NASF0xW0NAQEhdKFtDSDJdW0NIM10pW0NIMl1bQ0BASF0oW0NIMl1bQ0BASF0yMylbQ0BASF0oTzIpW0NIMl1jNGMoW2NIXWMoRiljKEYpW2NIXTQpW0NASF0zW0NASF01W0NIMl1bQ0gyXVtDQEhdKE9PNSlTW0NAQEhdKFtDSDJdW0NIM10pW0NAQF0oW0NIM10pKEMoPU8pW09IXSlbTkhdQyg9TylbT0hd

>  <s_glide_docking_method>  (1) 
confgen

>  <s_i_glide_gridfile>  (1) 
gpcr_5ht2c_6bqh_protein_autoprepared_prepared

>  <s_lp_Force_Field>  (1) 
S-OPLS

>  <s_lp_Variant>  (1) 
DiffSBDD_10-1

>  <s_m_source_file>  (1) 
generated_GPCR_5HT2C_ligand_DiffSBDD_2026-06-23_prepared.sdf

>  <GenAI_Model>  (1) 
DiffSBDD

>  <Protein>  (1) 
GPCR_5HT2C

$$$$
DiffSBDD_54
     RDKit          3D

  0  0  0  0  0  0  0  0  0  0999 V3000
M  V30 BEGIN CTAB
M  V30 COUNTS 41 42 0 0 1
M  V30 BEGIN ATOM
M  V30 1 C 38.655894 30.760190 54.304944 0
M  V30 2 C 38.785174 25.947952 56.344040 0
M  V30 3 C 40.792462 27.408057 56.854651 0
M  V30 4 C 40.445434 29.742751 49.529100 0
M  V30 5 C 39.733253 29.474007 51.925601 0
M  V30 6 S 38.445151 28.534997 55.769625 0 CHG=1
M  V30 7 C 38.334980 30.741029 56.832709 0
M  V30 8 N 38.422966 25.702074 57.588646 0
M  V30 9 C 37.625280 28.146385 52.698673 0
M  V30 10 C 37.704454 24.537808 57.367749 0
M  V30 11 N 37.613576 24.138373 56.082392 0
M  V30 12 N 38.342530 25.077493 55.466593 0
M  V30 13 N 39.080567 29.354048 54.372017 0
M  V30 14 C 39.036896 28.666123 53.056910 0 CFG=2
M  V30 15 C 38.939167 31.482954 55.632385 0
M  V30 16 C 39.845218 28.781875 50.561513 0
M  V30 17 O 38.889279 29.435142 56.877944 0
M  V30 18 C 39.601891 27.130228 55.920601 0 CFG=2
M  V30 19 H 37.590911 30.808740 54.077198 0
M  V30 20 H 39.183279 31.327102 53.542433 0
M  V30 21 H 41.446053 26.539606 56.909945 0
M  V30 22 H 40.468623 27.637611 57.870644 0
M  V30 23 H 41.386256 28.248110 56.495459 0
M  V30 24 H 40.593684 29.259049 48.567769 0
M  V30 25 H 41.409118 30.137676 49.854861 0
M  V30 26 H 39.783814 30.594708 49.367767 0
M  V30 27 H 40.738238 29.737749 52.250523 0
M  V30 28 H 39.245143 30.421146 51.733652 0
M  V30 29 H 38.588695 31.264523 57.755006 0
M  V30 30 H 37.245151 30.706444 56.777983 0
M  V30 31 H 37.645130 27.552225 51.786201 0
M  V30 32 H 36.902098 28.937756 52.545816 0
M  V30 33 H 37.220956 27.485178 53.463742 0
M  V30 34 H 37.245157 23.977247 58.167650 0
M  V30 35 H 38.495851 25.082841 54.467228 0
M  V30 36 H 39.645078 27.770802 53.146126 0
M  V30 37 H 40.016702 31.582647 55.770057 0
M  V30 38 H 38.540171 32.497725 55.589290 0
M  V30 39 H 40.445115 27.876580 50.640654 0
M  V30 40 H 38.865207 28.474475 50.198334 0
M  V30 41 H 40.018225 26.888914 54.947404 0
M  V30 END ATOM
M  V30 BEGIN BOND
M  V30 1 2 8 2
M  V30 2 1 10 8
M  V30 3 2 11 10
M  V30 4 1 12 2
M  V30 5 1 12 11
M  V30 6 1 13 1
M  V30 7 1 13 6
M  V30 8 1 14 5
M  V30 9 1 14 9
M  V30 10 1 14 13
M  V30 11 1 15 1
M  V30 12 1 15 7
M  V30 13 1 16 4
M  V30 14 1 16 5
M  V30 15 1 6 17 CFG=1
M  V30 16 1 17 7
M  V30 17 1 18 2
M  V30 18 1 18 3
M  V30 19 1 18 6
M  V30 20 1 19 1
M  V30 21 1 20 1
M  V30 22 1 21 3
M  V30 23 1 22 3
M  V30 24 1 23 3
M  V30 25 1 24 4
M  V30 26 1 25 4
M  V30 27 1 26 4
M  V30 28 1 27 5
M  V30 29 1 28 5
M  V30 30 1 29 7
M  V30 31 1 30 7
M  V30 32 1 31 9
M  V30 33 1 32 9
M  V30 34 1 33 9
M  V30 35 1 34 10
M  V30 36 1 35 12
M  V30 37 1 14 36 CFG=1
M  V30 38 1 37 15
M  V30 39 1 38 15
M  V30 40 1 39 16
M  V30 41 1 40 16
M  V30 42 1 18 41 CFG=3
M  V30 END BOND
M  V30 END CTAB
M  END
>  <i_epik_Tot_Q>  (1) 
1

>  <i_epik_Tot_abs_Q>  (1) 
1

>  <i_i_glide_confnum>  (1) 
34

>  <i_i_glide_lignum>  (1) 
119

>  <i_i_glide_posenum>  (1) 
57

>  <i_i_glide_rotatable_bonds>  (1) 
5

>  <i_lp_mmshare_version>  (1) 
72125

>  <i_m_source_file_index>  (1) 
55

>  <i_f3d_flags>  (1) 
0

>  <num_sample>  (1) 
100

>  <b_lp_Chiralities_Consistent>  (1) 
1

>  <r_epik_Charging_Adjusted_Penalty>  (1) 
1.0448623015598277

>  <r_epik_Ionization_Penalty>  (1) 
1.0474264341019792

>  <r_epik_Ionization_Penalty_Charging>  (1) 
0

>  <r_epik_Ionization_Penalty_Neutral>  (1) 
1.0474264341019792

>  <r_epik_State_Penalty>  (1) 
1.0448623015598277

>  <r_glide_ring_energy>  (1) 
0

>  <r_i_docking_score>  (1) 
-4.7237061727310659

>  <r_i_glide_ecoul>  (1) 
-1.7726499124967454

>  <r_i_glide_eff_state_penalty>  (1) 
1.0448623015598277

>  <r_i_glide_einternal>  (1) 
3.1604167489288955

>  <r_i_glide_emodel>  (1) 
-45.026998659012008

>  <r_i_glide_emodel_strain>  (1) 
1.9371561217701903

>  <r_i_glide_energy>  (1) 
-33.76340668388584

>  <r_i_glide_erotb>  (1) 
0.97219657743730314

>  <r_i_glide_esite>  (1) 
0

>  <r_i_glide_evdw>  (1) 
-31.990756771389098

>  <r_i_glide_gscore>  (1) 
-5.7685684742908938

>  <r_i_glide_gscore_strain>  (1) 
0

>  <r_i_glide_hbond>  (1) 
0

>  <r_i_glide_ligand_efficiency>  (1) 
-0.26242812070728144

>  <r_i_glide_ligand_efficiency_ln>  (1) 
-1.2142043143161085

>  <r_i_glide_ligand_efficiency_sa>  (1) 
-0.68775623894202143

>  <r_i_glide_lipo>  (1) 
-2.0867569472845222

>  <r_i_glide_metal>  (1) 
-0

>  <r_i_glide_rewards>  (1) 
-2.7885727789997081

>  <r_lp_Energy>  (1) 
3.1792319999999998

>  <r_lp_tautomer_probability>  (1) 
0.94828448534560383

>  <s_epik_cmdline>  (1) 
J2VwaWtfcHl0aG9uJywgJy1waHQnLCAnMS4wJywgJy1waCcsICc3LjQnLCAnLXRuJywgJzgnLCAnLW1hJywgJzUwMCcsICctaW1hZScsICc8aW5maWxlLm1hZT4nLCAnLW9tYWUnLCAnPG91dGZpbGUubWFlPic=

>  <s_epik_input>  (1) 
W0NIM11bQ0gyXVtDSDJdW0NASF0oW0NIM10pTihbQ0gyXVtDSDJdW0NIMl1PMSlbUytdMVtDQEBIXShbQ0gzXSljMm5bY0hdbltuSF0y

>  <s_glide_docking_method>  (1) 
confgen

>  <s_i_glide_gridfile>  (1) 
gpcr_5ht2c_6bqh_protein_autoprepared_prepared

>  <s_lp_Force_Field>  (1) 
S-OPLS

>  <s_lp_Variant>  (1) 
DiffSBDD_54-5

>  <s_m_source_file>  (1) 
generated_GPCR_5HT2C_ligand_DiffSBDD_2026-06-23_prepared.sdf

>  <GenAI_Model>  (1) 
DiffSBDD

>  <Protein>  (1) 
GPCR_5HT2C

$$$$
DiffSBDD_21
     RDKit          3D

  0  0  0  0  0  0  0  0  0  0999 V3000
M  V30 BEGIN CTAB
M  V30 COUNTS 55 56 0 0 1
M  V30 BEGIN ATOM
M  V30 1 C 35.642493 20.512565 55.247167 0
M  V30 2 C 36.045210 21.571251 56.106566 0
M  V30 3 C 41.638890 28.782453 62.967543 0
M  V30 4 O 41.645137 28.137703 59.367637 0
M  V30 5 O 38.559678 29.942737 55.598325 0
M  V30 6 O 36.082374 33.047328 60.332925 0
M  V30 7 C 38.834504 30.230547 56.953568 0
M  V30 8 N 35.337534 19.627715 54.567803 0
M  V30 9 C 38.085023 24.661112 55.930124 0
M  V30 10 C 36.861922 23.940240 56.504854 0
M  V30 11 O 41.215622 29.407338 61.769174 0
M  V30 12 C 38.695926 25.718205 56.859425 0
M  V30 13 C 40.078109 28.771249 61.205921 0 CFG=2
M  V30 14 C 35.386907 31.806483 60.400894 0
M  V30 15 C 38.181426 31.914365 59.931119 0
M  V30 16 C 40.367433 27.992144 59.943607 0 CFG=1
M  V30 17 C 37.886867 27.016915 56.942272 0
M  V30 18 C 38.085666 29.234653 57.861614 0 CFG=1
M  V30 19 N 37.537665 30.602535 60.023939 0
M  V30 20 O 38.690150 27.970196 57.614861 0
M  V30 21 C 38.241814 29.461265 59.404013 0 CFG=2
M  V30 22 C 36.140060 30.707677 59.628915 0
M  V30 23 C 37.430579 32.958252 60.775336 0
M  V30 24 C 36.429770 22.775286 55.630418 0
M  V30 25 C 39.688705 29.338687 59.861215 0 CFG=1
M  V30 26 H 36.045140 21.373563 57.165332 0
M  V30 27 H 42.521316 29.293409 63.354580 0
M  V30 28 H 40.859753 28.829675 63.729554 0
M  V30 29 H 41.901533 27.737863 62.800552 0
M  V30 30 H 42.294673 28.110903 60.061134 0
M  V30 31 H 38.818161 29.047411 55.440307 0
M  V30 32 H 39.910365 30.194341 57.121940 0
M  V30 33 H 38.500264 31.250012 57.124940 0
M  V30 34 H 37.847556 25.103455 54.961051 0
M  V30 35 H 38.845165 23.917895 55.737382 0
M  V30 36 H 37.071707 23.584625 57.514679 0
M  V30 37 H 36.044927 24.656744 56.567680 0
M  V30 38 H 39.694820 25.959764 56.493484 0
M  V30 39 H 38.839104 25.304887 57.858537 0
M  V30 40 H 39.292573 28.465255 61.895416 0
M  V30 41 H 34.400398 31.947376 59.962983 0
M  V30 42 H 35.244632 31.519209 61.443877 0
M  V30 43 H 39.210860 31.869457 60.285046 0
M  V30 44 H 38.210180 32.264765 58.902373 0
M  V30 45 H 39.822320 27.084593 59.697324 0
M  V30 46 H 36.953580 26.849393 57.481289 0
M  V30 47 H 37.645209 27.378109 55.942382 0
M  V30 48 H 37.028010 29.211683 57.592727 0
M  V30 49 H 37.758477 28.580970 59.824603 0
M  V30 50 H 36.086733 30.937722 58.567758 0
M  V30 51 H 35.645227 29.747271 59.766146 0
M  V30 52 H 37.898850 33.936833 60.678339 0
M  V30 53 H 37.459563 32.695227 61.833790 0
M  V30 54 H 36.445132 22.950051 54.567638 0
M  V30 55 H 40.320129 30.137746 59.497244 0
M  V30 END ATOM
M  V30 BEGIN BOND
M  V30 1 1 2 1
M  V30 2 1 7 5
M  V30 3 3 8 1
M  V30 4 1 10 9
M  V30 5 1 11 3
M  V30 6 1 12 9
M  V30 7 1 13 11
M  V30 8 1 14 6
M  V30 9 1 16 4
M  V30 10 1 16 13
M  V30 11 1 17 12
M  V30 12 1 18 7
M  V30 13 1 19 15
M  V30 14 1 20 17
M  V30 15 1 20 18
M  V30 16 1 21 18
M  V30 17 1 21 19
M  V30 18 1 22 14
M  V30 19 1 22 19
M  V30 20 1 23 6
M  V30 21 1 23 15
M  V30 22 2 24 2
M  V30 23 1 24 10
M  V30 24 1 25 13
M  V30 25 1 25 16
M  V30 26 1 25 21
M  V30 27 1 26 2
M  V30 28 1 27 3
M  V30 29 1 28 3
M  V30 30 1 29 3
M  V30 31 1 30 4
M  V30 32 1 31 5
M  V30 33 1 32 7
M  V30 34 1 33 7
M  V30 35 1 34 9
M  V30 36 1 35 9
M  V30 37 1 36 10
M  V30 38 1 37 10
M  V30 39 1 38 12
M  V30 40 1 39 12
M  V30 41 1 13 40 CFG=1
M  V30 42 1 41 14
M  V30 43 1 42 14
M  V30 44 1 43 15
M  V30 45 1 44 15
M  V30 46 1 16 45 CFG=1
M  V30 47 1 46 17
M  V30 48 1 47 17
M  V30 49 1 18 48 CFG=3
M  V30 50 1 21 49 CFG=1
M  V30 51 1 50 22
M  V30 52 1 51 22
M  V30 53 1 52 23
M  V30 54 1 53 23
M  V30 55 1 54 24
M  V30 56 1 25 55 CFG=3
M  V30 END BOND
M  V30 END CTAB
M  END
>  <i_epik_Tot_Q>  (1) 
0

>  <i_epik_Tot_abs_Q>  (1) 
0

>  <i_i_glide_confnum>  (1) 
1712

>  <i_i_glide_lignum>  (1) 
52

>  <i_i_glide_posenum>  (1) 
154

>  <i_i_glide_rotatable_bonds>  (1) 
13

>  <i_lp_mmshare_version>  (1) 
72125

>  <i_m_source_file_index>  (1) 
22

>  <i_f3d_flags>  (1) 
0

>  <num_sample>  (1) 
100

>  <b_lp_Chiralities_Consistent>  (1) 
1

>  <r_epik_Charging_Adjusted_Penalty>  (1) 
0.033214284747091018

>  <r_epik_Ionization_Penalty>  (1) 
0.033214513384273246

>  <r_epik_Ionization_Penalty_Charging>  (1) 
0

>  <r_epik_Ionization_Penalty_Neutral>  (1) 
0.033214513384273246

>  <r_epik_State_Penalty>  (1) 
0.033214284747091018

>  <r_glide_ring_energy>  (1) 
0

>  <r_i_docking_score>  (1) 
-4.7146611928461413

>  <r_i_glide_ecoul>  (1) 
-5.5043486069452285

>  <r_i_glide_eff_state_penalty>  (1) 
0.033214284747091018

>  <r_i_glide_einternal>  (1) 
6.2428422670992809

>  <r_i_glide_emodel>  (1) 
-38.523237088794829

>  <r_i_glide_emodel_strain>  (1) 
1.5847521726304947

>  <r_i_glide_energy>  (1) 
-32.515196120279654

>  <r_i_glide_erotb>  (1) 
1.5209836995870194

>  <r_i_glide_esite>  (1) 
0

>  <r_i_glide_evdw>  (1) 
-27.010847513334429

>  <r_i_glide_gscore>  (1) 
-4.7478754775932321

>  <r_i_glide_gscore_strain>  (1) 
0

>  <r_i_glide_hbond>  (1) 
-0.60799999999999998

>  <r_i_glide_ligand_efficiency>  (1) 
-0.18858644771384564

>  <r_i_glide_ligand_efficiency_ln>  (1) 
-1.1175159896993243

>  <r_i_glide_ligand_efficiency_sa>  (1) 
-0.55143011830183797

>  <r_i_glide_lipo>  (1) 
-2.0124479931969423

>  <r_i_glide_metal>  (1) 
-0

>  <r_i_glide_rewards>  (1) 
-1.4722165172748043

>  <r_lp_Energy>  (1) 
16.758039999999998

>  <s_epik_cmdline>  (1) 
J2VwaWtfcHl0aG9uJywgJy1waHQnLCAnMS4wJywgJy1waCcsICc3LjQnLCAnLXRuJywgJzgnLCAnLW1hJywgJzUwMCcsICctaW1hZScsICc8aW5maWxlLm1hZT4nLCAnLW9tYWUnLCAnPG91dGZpbGUubWFlPic=

>  <s_epik_input>  (1) 
TiNDL1tDSF09W0NIXS9bQ0gyXVtDSDJdW0NIMl1bQ0gyXU9bQ0BIXShbQ0gyXVtPSF0pW0NAQEhdKFtDQEBIXTFbQ0BASF0oW09IXSlbQ0BIXTFPW0NIM10pTjJbQ0gyXVtDSDJdT1tDSDJdW0NIMl0y

>  <s_glide_docking_method>  (1) 
confgen

>  <s_i_glide_gridfile>  (1) 
gpcr_5ht2c_6bqh_protein_autoprepared_prepared

>  <s_lp_Force_Field>  (1) 
S-OPLS

>  <s_lp_Variant>  (1) 
DiffSBDD_21-2

>  <s_m_source_file>  (1) 
generated_GPCR_5HT2C_ligand_DiffSBDD_2026-06-23_prepared.sdf

>  <GenAI_Model>  (1) 
DiffSBDD

>  <Protein>  (1) 
GPCR_5HT2C

$$$$
DiffSBDD_36
     RDKit          3D

  0  0  0  0  0  0  0  0  0  0999 V3000
M  V30 BEGIN CTAB
M  V30 COUNTS 49 49 0 0 1
M  V30 BEGIN ATOM
M  V30 1 C 39.824177 28.908736 55.381553 0
M  V30 2 C 39.147262 27.169488 58.695497 0
M  V30 3 C 40.983949 28.294040 57.537415 0
M  V30 4 C 37.802877 26.543980 56.693052 0
M  V30 5 C 38.630406 31.603401 61.449317 0
M  V30 6 C 38.642284 27.682505 57.318688 0 CFG=1
M  V30 7 C 40.663834 27.409928 58.731043 0
M  V30 8 C 39.945000 30.496909 50.840778 0
M  V30 9 C 39.245146 28.660834 54.198981 0
M  V30 10 C 39.112358 29.687662 53.103280 0
M  V30 11 O 37.645512 31.737695 62.167759 0
M  V30 12 C 37.629726 29.947150 58.124188 0
M  V30 13 C 38.315104 30.027445 59.469988 0
M  V30 14 C 37.768544 28.959190 57.208532 0
M  V30 15 C 39.945608 27.886532 56.497208 0 CFG=1
M  V30 16 C 41.113151 30.383762 49.862952 0
M  V30 17 S 40.306899 31.533815 61.929665 0 CHG=-1
M  V30 18 C 38.396264 31.487635 59.952340 0
M  V30 19 C 39.125034 28.086678 51.126983 0
M  V30 20 C 39.815036 29.289260 51.791298 0 CFG=1
M  V30 21 H 40.230086 29.890074 55.579515 0
M  V30 22 H 38.613782 27.555689 59.556486 0
M  V30 23 H 38.999558 26.092504 58.785430 0
M  V30 24 H 40.845236 29.337579 57.816975 0
M  V30 25 H 42.008771 28.166139 57.186402 0
M  V30 26 H 38.366724 25.612422 56.627097 0
M  V30 27 H 36.909271 26.345905 57.286979 0
M  V30 28 H 37.473523 26.785793 55.682608 0
M  V30 29 H 41.010917 27.828016 59.676710 0
M  V30 30 H 41.178125 26.465775 58.567706 0
M  V30 31 H 39.029215 30.652614 50.272774 0
M  V30 32 H 40.102498 31.403430 51.424884 0
M  V30 33 H 38.838836 27.680991 53.997439 0
M  V30 34 H 38.044860 29.833541 52.967580 0
M  V30 35 H 39.507779 30.635902 53.471124 0
M  V30 36 H 36.970514 30.769124 57.889978 0
M  V30 37 H 37.712904 29.452049 60.167730 0
M  V30 38 H 39.321345 29.624602 59.453652 0
M  V30 39 H 37.222019 29.053054 56.288235 0
M  V30 40 H 40.259278 26.935908 56.061255 0
M  V30 41 H 41.268195 31.337666 49.367582 0
M  V30 42 H 42.042984 30.139232 50.376617 0
M  V30 43 H 40.916625 29.633520 49.097883 0
M  V30 44 H 39.146541 32.040190 59.383454 0
M  V30 45 H 37.451259 31.993130 59.744832 0
M  V30 46 H 38.064870 28.281657 50.966861 0
M  V30 47 H 39.578041 27.850281 50.167641 0
M  V30 48 H 39.201215 27.189264 51.741017 0
M  V30 49 H 40.830000 28.991027 52.042112 0
M  V30 END ATOM
M  V30 BEGIN BOND
M  V30 1 1 6 2
M  V30 2 1 6 4 CFG=3
M  V30 3 1 7 2
M  V30 4 1 7 3
M  V30 5 2 9 1
M  V30 6 1 10 9
M  V30 7 2 11 5
M  V30 8 1 13 12
M  V30 9 1 14 6
M  V30 10 2 14 12
M  V30 11 1 15 1
M  V30 12 1 15 3
M  V30 13 1 15 6
M  V30 14 1 16 8
M  V30 15 1 17 5
M  V30 16 1 18 5
M  V30 17 1 18 13
M  V30 18 1 20 8
M  V30 19 1 20 10
M  V30 20 1 20 19
M  V30 21 1 21 1
M  V30 22 1 22 2
M  V30 23 1 23 2
M  V30 24 1 24 3
M  V30 25 1 25 3
M  V30 26 1 26 4
M  V30 27 1 27 4
M  V30 28 1 28 4
M  V30 29 1 29 7
M  V30 30 1 30 7
M  V30 31 1 31 8
M  V30 32 1 32 8
M  V30 33 1 33 9
M  V30 34 1 34 10
M  V30 35 1 35 10
M  V30 36 1 36 12
M  V30 37 1 37 13
M  V30 38 1 38 13
M  V30 39 1 39 14
M  V30 40 1 15 40 CFG=3
M  V30 41 1 41 16
M  V30 42 1 42 16
M  V30 43 1 43 16
M  V30 44 1 44 18
M  V30 45 1 45 18
M  V30 46 1 46 19
M  V30 47 1 47 19
M  V30 48 1 48 19
M  V30 49 1 20 49 CFG=1
M  V30 END BOND
M  V30 END CTAB
M  END
>  <i_epik_Tot_Q>  (1) 
-1

>  <i_epik_Tot_abs_Q>  (1) 
1

>  <i_i_glide_confnum>  (1) 
162

>  <i_i_glide_lignum>  (1) 
82

>  <i_i_glide_posenum>  (1) 
372

>  <i_i_glide_rotatable_bonds>  (1) 
8

>  <i_lp_mmshare_version>  (1) 
72125

>  <i_m_source_file_index>  (1) 
37

>  <i_f3d_flags>  (1) 
0

>  <num_sample>  (1) 
100

>  <b_lp_Chiralities_Consistent>  (1) 
1

>  <r_epik_Charging_Adjusted_Penalty>  (1) 
9.4165288777969193e-05

>  <r_epik_Ionization_Penalty>  (1) 
9.4165288777969193e-05

>  <r_epik_Ionization_Penalty_Charging>  (1) 
9.4165288777969193e-05

>  <r_epik_Ionization_Penalty_Neutral>  (1) 
0

>  <r_epik_State_Penalty>  (1) 
-0

>  <r_glide_ring_energy>  (1) 
0

>  <r_i_docking_score>  (1) 
-4.7126530396928956

>  <r_i_glide_ecoul>  (1) 
-3.4165757906500547

>  <r_i_glide_eff_state_penalty>  (1) 
-0

>  <r_i_glide_einternal>  (1) 
4.9740240596638898

>  <r_i_glide_emodel>  (1) 
-34.682023825450344

>  <r_i_glide_emodel_strain>  (1) 
0.5493592022038456

>  <r_i_glide_energy>  (1) 
-29.521705034703395

>  <r_i_glide_erotb>  (1) 
2.5456975872200465

>  <r_i_glide_esite>  (1) 
0

>  <r_i_glide_evdw>  (1) 
-26.105129244053341

>  <r_i_glide_gscore>  (1) 
-4.7126530396928956

>  <r_i_glide_gscore_strain>  (1) 
0

>  <r_i_glide_hbond>  (1) 
-0.2686182013763303

>  <r_i_glide_ligand_efficiency>  (1) 
-0.23563265198464478

>  <r_i_glide_ligand_efficiency_ln>  (1) 
-1.1794216221351692

>  <r_i_glide_ligand_efficiency_sa>  (1) 
-0.63960542159209666

>  <r_i_glide_lipo>  (1) 
-2.9494368076212303

>  <r_i_glide_metal>  (1) 
-0

>  <r_i_glide_rewards>  (1) 
-2.2225527871152053

>  <r_lp_Energy>  (1) 
17.800989999999999

>  <r_lp_tautomer_probability>  (1) 
1

>  <s_epik_cmdline>  (1) 
J2VwaWtfcHl0aG9uJywgJy1waHQnLCAnMS4wJywgJy1waCcsICc3LjQnLCAnLXRuJywgJzgnLCAnLW1hJywgJzUwMCcsICctaW1hZScsICc8aW5maWxlLm1hZT4nLCAnLW9tYWUnLCAnPG91dGZpbGUubWFlPic=

>  <s_epik_input>  (1) 
W0NIM11bQ0gyXVtDQEhdKFtDSDNdKVtDSDJdXFtDSF09W0NIXVxbQ0BIXTFbQ0gyXVtDSDJdW0NIMl1bQ0BAXTEoW0NIM10pL1tDSF09W0NIXVxbQ0gyXVtDSDJdQyg9TylbU0hd

>  <s_glide_docking_method>  (1) 
confgen

>  <s_i_glide_gridfile>  (1) 
gpcr_5ht2c_6bqh_protein_autoprepared_prepared

>  <s_lp_Force_Field>  (1) 
S-OPLS

>  <s_lp_Variant>  (1) 
DiffSBDD_36-3

>  <s_m_source_file>  (1) 
generated_GPCR_5HT2C_ligand_DiffSBDD_2026-06-23_prepared.sdf

>  <GenAI_Model>  (1) 
DiffSBDD

>  <Protein>  (1) 
GPCR_5HT2C

$$$$
DiffSBDD_12
     RDKit          3D

  0  0  0  0  0  0  0  0  0  0999 V3000
M  V30 BEGIN CTAB
M  V30 COUNTS 68 70 0 0 1
M  V30 BEGIN ATOM
M  V30 1 C 37.991773 29.004613 53.153600 0 CFG=1
M  V30 2 C 40.533863 29.571023 62.215016 0
M  V30 3 N 37.623329 29.603461 54.461040 0 CFG=1 CHG=1
M  V30 4 C 41.476543 27.729113 59.264281 0
M  V30 5 O 38.328721 27.886716 57.674221 0
M  V30 6 O 39.447293 27.049253 52.644401 0
M  V30 7 N 39.465179 32.672231 62.567762 0 CHG=-1
M  V30 8 C 39.664748 33.848246 61.958850 0
M  V30 9 O 40.470880 32.331229 64.895955 0
M  V30 10 C 37.971823 28.530997 55.419207 0 CFG=1
M  V30 11 C 37.304016 35.894133 59.957872 0
M  V30 12 S 38.604501 30.676003 58.945114 0
M  V30 13 C 40.110210 29.711785 60.980709 0
M  V30 14 C 38.308827 30.911828 54.723598 0
M  V30 15 C 38.555839 35.695056 60.780696 0 CFG=1
M  V30 16 C 38.687144 30.250109 57.136921 0 CFG=1
M  V30 17 O 38.845139 32.119237 59.089645 0
M  V30 18 O 37.932905 37.905681 60.968154 0
M  V30 19 C 39.300794 27.949159 54.923980 0
M  V30 20 C 38.400195 36.834929 61.775506 0 CFG=2
M  V30 21 C 39.870986 30.242199 63.387159 0
M  V30 22 N 37.245395 37.337779 59.809293 0
M  V30 23 O 40.739583 34.444149 61.879092 0
M  V30 24 O 41.906599 31.875560 62.871150 0
M  V30 25 C 37.888585 28.970652 56.880917 0 CFG=2
M  V30 26 C 38.237220 31.369812 56.199144 0
M  V30 27 C 41.089886 29.101799 58.781749 0
M  V30 28 C 40.036507 29.761924 59.671431 0
M  V30 29 O 37.383528 30.087603 59.519868 0
M  V30 30 C 39.264910 28.221643 53.416775 0 CFG=2
M  V30 31 C 36.885592 28.138132 52.567890 0
M  V30 32 C 39.690343 37.218848 62.515159 0
M  V30 33 S 40.567900 31.936212 63.483160 0
M  V30 34 N 38.565649 34.389745 61.420506 0
M  V30 35 H 38.240937 29.737699 52.404359 0
M  V30 36 H 41.399165 28.965378 62.438471 0
M  V30 37 H 42.238174 27.283492 58.623565 0
M  V30 38 H 41.858155 27.737729 60.281908 0
M  V30 39 H 40.591224 27.089987 59.229248 0
M  V30 40 H 37.616260 27.274219 57.783514 0
M  V30 41 H 38.702275 26.479027 52.762043 0
M  V30 42 H 37.245178 27.729122 55.290076 0
M  V30 43 H 37.326350 35.379245 58.996847 0
M  V30 44 H 36.419683 35.557553 60.498871 0
M  V30 45 H 39.361379 30.843258 54.441866 0
M  V30 46 H 37.873874 31.680722 54.083786 0
M  V30 47 H 39.446169 35.831605 60.167454 0
M  V30 48 H 39.719697 30.184601 56.843706 0
M  V30 49 H 40.156840 28.454936 55.369241 0
M  V30 50 H 39.387143 26.888806 55.167829 0
M  V30 51 H 37.618951 36.600002 62.500756 0
M  V30 52 H 38.788795 30.299480 63.285155 0
M  V30 53 H 40.101693 29.715871 64.311432 0
M  V30 54 H 36.292294 37.668485 59.873788 0
M  V30 55 H 36.849355 29.179725 57.141462 0
M  V30 56 H 38.863006 32.252344 56.341583 0
M  V30 57 H 37.245176 31.686529 56.450296 0
M  V30 58 H 40.812968 28.906864 57.760670 0
M  V30 59 H 41.972348 29.737758 58.762941 0
M  V30 60 H 40.045151 28.928592 53.135435 0
M  V30 61 H 37.245282 27.737712 51.620967 0
M  V30 62 H 36.580628 27.313209 53.209433 0
M  V30 63 H 36.017086 28.728405 52.333148 0
M  V30 64 H 39.969626 36.459358 63.244145 0
M  V30 65 H 40.522813 37.338091 61.821715 0
M  V30 66 H 39.584733 38.137852 63.078002 0
M  V30 67 H 37.694418 33.886503 61.483395 0
M  V30 68 H 36.629273 29.779700 54.507463 0
M  V30 END ATOM
M  V30 BEGIN BOND
M  V30 1 1 3 1
M  V30 2 1 8 7
M  V30 3 1 10 3
M  V30 4 2 13 2
M  V30 5 1 14 3
M  V30 6 1 15 11
M  V30 7 1 16 12
M  V30 8 2 17 12
M  V30 9 1 19 10
M  V30 10 1 20 15
M  V30 11 1 20 18
M  V30 12 1 21 2
M  V30 13 1 22 11
M  V30 14 1 22 18
M  V30 15 2 23 8
M  V30 16 1 25 5
M  V30 17 1 25 10
M  V30 18 1 25 16
M  V30 19 1 26 14
M  V30 20 1 26 16
M  V30 21 1 27 4
M  V30 22 1 28 12
M  V30 23 2 28 13
M  V30 24 1 28 27
M  V30 25 2 29 12
M  V30 26 1 30 1
M  V30 27 1 30 6
M  V30 28 1 30 19
M  V30 29 1 31 1
M  V30 30 1 32 20
M  V30 31 1 33 7
M  V30 32 2 33 9
M  V30 33 1 33 21
M  V30 34 2 33 24
M  V30 35 1 34 8
M  V30 36 1 34 15
M  V30 37 1 1 35 CFG=3
M  V30 38 1 36 2
M  V30 39 1 37 4
M  V30 40 1 38 4
M  V30 41 1 39 4
M  V30 42 1 40 5
M  V30 43 1 41 6
M  V30 44 1 10 42 CFG=1
M  V30 45 1 43 11
M  V30 46 1 44 11
M  V30 47 1 45 14
M  V30 48 1 46 14
M  V30 49 1 15 47 CFG=3
M  V30 50 1 16 48 CFG=3
M  V30 51 1 49 19
M  V30 52 1 50 19
M  V30 53 1 20 51 CFG=1
M  V30 54 1 52 21
M  V30 55 1 53 21
M  V30 56 1 54 22
M  V30 57 1 25 55 CFG=1
M  V30 58 1 56 26
M  V30 59 1 57 26
M  V30 60 1 58 27
M  V30 61 1 59 27
M  V30 62 1 30 60 CFG=1
M  V30 63 1 61 31
M  V30 64 1 62 31
M  V30 65 1 63 31
M  V30 66 1 64 32
M  V30 67 1 65 32
M  V30 68 1 66 32
M  V30 69 1 67 34
M  V30 70 1 3 68 CFG=3
M  V30 END BOND
M  V30 END CTAB
M  END
>  <i_epik_Tot_Q>  (1) 
0

>  <i_epik_Tot_abs_Q>  (1) 
2

>  <i_i_glide_confnum>  (1) 
876

>  <i_i_glide_lignum>  (1) 
19

>  <i_i_glide_posenum>  (1) 
389

>  <i_i_glide_rotatable_bonds>  (1) 
11

>  <i_lp_mmshare_version>  (1) 
72125

>  <i_m_source_file_index>  (1) 
13

>  <i_f3d_flags>  (1) 
0

>  <num_sample>  (1) 
100

>  <b_lp_Chiralities_Consistent>  (1) 
1

>  <r_epik_Charging_Adjusted_Penalty>  (1) 
0.60912623126161669

>  <r_epik_Ionization_Penalty>  (1) 
0.30573665464692801

>  <r_epik_Ionization_Penalty_Charging>  (1) 
0.30464155940026277

>  <r_epik_Ionization_Penalty_Neutral>  (1) 
0.0010950952466652615

>  <r_epik_State_Penalty>  (1) 
0.30448467186135392

>  <r_glide_ring_energy>  (1) 
0

>  <r_i_docking_score>  (1) 
-4.7074325379033812

>  <r_i_glide_ecoul>  (1) 
-3.3740063231663195

>  <r_i_glide_eff_state_penalty>  (1) 
0.30448467186135392

>  <r_i_glide_einternal>  (1) 
5.3012365362610252

>  <r_i_glide_emodel>  (1) 
-46.159540986799634

>  <r_i_glide_emodel_strain>  (1) 
1.4218363121115232

>  <r_i_glide_energy>  (1) 
-38.23711267675727

>  <r_i_glide_erotb>  (1) 
0.67758354065758886

>  <r_i_glide_esite>  (1) 
-0.057997363901475141

>  <r_i_glide_evdw>  (1) 
-34.86310635359095

>  <r_i_glide_gscore>  (1) 
-5.0119172097647349

>  <r_i_glide_gscore_strain>  (1) 
0

>  <r_i_glide_hbond>  (1) 
-0.044972221270986754

>  <r_i_glide_ligand_efficiency>  (1) 
-0.13845389817362885

>  <r_i_glide_ligand_efficiency_ln>  (1) 
-1.0400038866330859

>  <r_i_glide_ligand_efficiency_sa>  (1) 
-0.44853688245615914

>  <r_i_glide_lipo>  (1) 
-2.1649274747198168

>  <r_i_glide_metal>  (1) 
-0

>  <r_i_glide_rewards>  (1) 
-1.1723474243755485

>  <r_lp_Energy>  (1) 
-2.0210079999999997

>  <s_epik_Chemistry_Notes>  (1) 
This compound has a N-S or N-O group and may undergo hydrolysis at high or low pH.

>  <s_epik_cmdline>  (1) 
J2VwaWtfcHl0aG9uJywgJy1waHQnLCAnMS4wJywgJy1waCcsICc3LjQnLCAnLXRuJywgJzgnLCAnLW1hJywgJzUwMCcsICctaW1hZScsICc8aW5maWxlLm1hZT4nLCAnLW9tYWUnLCAnPG91dGZpbGUubWFlPic=

>  <s_epik_input>  (1) 
W0NIM11bQ0BASF0xW0NASF0oW09IXSlbQ0gyXVtDQEhdKE4xMilbQ0BASF0oW09IXSlbQ0BASF0oW0NIMl1bQ0gyXTIpUyg9TykoPU8pQyhbQ0gyXVtDSDNdKT1DPVtDSF1bQ0gyXVMoPU8pKD1PKVtOSF1DKD1PKVtOSF1bQ0BIXTNbQ0gyXVtOSF1PW0NAQEhdM1tDSDNd

>  <s_glide_docking_method>  (1) 
confgen

>  <s_i_glide_gridfile>  (1) 
gpcr_5ht2c_6bqh_protein_autoprepared_prepared

>  <s_lp_Force_Field>  (1) 
S-OPLS

>  <s_lp_Variant>  (1) 
DiffSBDD_12-1

>  <s_m_source_file>  (1) 
generated_GPCR_5HT2C_ligand_DiffSBDD_2026-06-23_prepared.sdf

>  <GenAI_Model>  (1) 
DiffSBDD

>  <Protein>  (1) 
GPCR_5HT2C

$$$$
DiffSBDD_78
     RDKit          3D

  0  0  0  0  0  0  0  0  0  0999 V3000
M  V30 BEGIN CTAB
M  V30 COUNTS 105 110 0 0 1
M  V30 BEGIN ATOM
M  V30 1 O 41.609725 30.801609 64.688831 0
M  V30 2 C 39.817379 29.889349 51.092690 0
M  V30 3 C 37.365162 28.714181 57.824592 0 CFG=1
M  V30 4 C 42.844696 34.610521 64.503843 0
M  V30 5 O 40.272845 35.441527 68.579832 0
M  V30 6 C 39.203517 29.007180 53.748896 0 CFG=2
M  V30 7 C 40.353189 31.379921 64.370918 0
M  V30 8 O 40.630156 33.786528 64.644832 0
M  V30 9 C 40.036706 29.315545 52.442298 0 CFG=2
M  V30 10 O 39.645193 33.337429 59.738568 0
M  V30 11 C 37.572534 24.822893 55.015097 0
M  V30 12 N 38.044917 28.728883 56.521057 0
M  V30 13 N 38.803108 28.534760 52.456652 0 CFG=1 CHG=1
M  V30 14 C 35.883571 23.193624 55.367783 0
M  V30 15 C 39.850077 28.903515 49.930220 0
M  V30 16 C 38.179097 28.442948 59.087968 0 CFG=1
M  V30 17 N 37.645268 29.850325 55.791001 0
M  V30 18 C 41.522531 29.473647 65.187459 0
M  V30 19 C 38.147573 29.954342 54.389655 0 CFG=1
M  V30 20 C 36.863871 23.337728 56.459677 0
M  V30 21 C 37.735273 32.475239 54.195689 0
M  V30 22 C 41.803314 33.983136 65.408711 0 CFG=2
M  V30 23 C 38.258811 31.714725 57.521583 0
M  V30 24 C 38.941319 24.552405 57.134525 0
M  V30 25 C 40.576912 34.445118 67.625813 0
M  V30 26 C 40.567766 32.740218 63.682671 0 CFG=2
M  V30 27 C 38.572689 30.931395 58.779774 0
M  V30 28 C 41.058051 29.439808 66.649903 0
M  V30 29 O 39.645316 31.084539 50.904625 0
M  V30 30 C 38.590330 31.367927 54.785909 0
M  V30 31 C 37.784798 24.197221 56.248446 0
M  V30 32 C 40.000671 31.702323 54.535645 0
M  V30 33 C 39.396344 34.554141 62.223052 0
M  V30 34 C 39.086855 27.211456 51.879359 0
M  V30 35 C 39.017242 26.047254 57.318016 0
M  V30 36 C 39.505087 26.430422 58.681234 0
M  V30 37 O 36.445039 24.250634 54.453181 0
M  V30 38 N 37.586726 33.777288 58.703775 0
M  V30 39 S 37.997355 34.903035 61.091045 0
M  V30 40 C 37.773804 32.994724 57.534784 0
M  V30 41 C 41.491562 34.987621 66.530111 0
M  V30 42 C 38.537569 33.865671 59.727663 0
M  V30 43 C 39.564775 27.432864 50.404813 0
M  V30 44 C 39.588742 27.933690 58.932197 0
M  V30 45 O 38.247037 25.728524 54.522063 0
M  V30 46 C 38.510548 30.918508 56.229410 0 CFG=2
M  V30 47 C 37.618463 29.797720 58.851324 0 CFG=1
M  V30 48 C 39.394013 33.097697 62.752714 0
M  V30 49 H 36.363690 28.309101 57.853068 0
M  V30 50 H 43.821021 34.537531 64.967566 0
M  V30 51 H 42.636151 35.665901 64.311586 0
M  V30 52 H 42.862947 34.116650 63.540419 0
M  V30 53 H 41.073715 35.791451 68.934383 0
M  V30 54 H 39.555623 28.190277 54.374182 0
M  V30 55 H 39.733161 31.491865 65.260827 0
M  V30 56 H 39.826237 30.706570 63.691141 0
M  V30 57 H 40.846281 28.637518 52.167725 0
M  V30 58 H 37.867392 27.868603 56.009526 0
M  V30 59 H 34.851561 23.363350 55.669341 0
M  V30 60 H 40.845117 28.960658 49.512140 0
M  V30 61 H 39.245183 29.229429 49.099176 0
M  V30 62 H 37.775039 28.137847 60.039017 0
M  V30 63 H 40.873939 28.860705 64.559220 0
M  V30 64 H 42.518619 29.035470 65.119765 0
M  V30 65 H 37.254030 30.011427 53.767683 0
M  V30 66 H 36.814638 22.719948 57.343631 0
M  V30 67 H 37.831258 33.434097 54.691606 0
M  V30 68 H 36.691714 32.176305 54.168232 0
M  V30 69 H 38.045070 32.668094 53.174360 0
M  V30 70 H 42.166425 33.041643 65.823684 0
M  V30 71 H 39.886281 24.143673 56.781928 0
M  V30 72 H 38.704442 24.070417 58.077517 0
M  V30 73 H 41.020466 33.579302 68.116958 0
M  V30 74 H 39.645089 34.137783 67.168888 0
M  V30 75 H 41.454243 32.683090 63.055718 0
M  V30 76 H 39.590137 30.548914 58.764901 0
M  V30 77 H 38.401197 31.397881 59.736948 0
M  V30 78 H 41.083073 28.420469 67.035851 0
M  V30 79 H 40.036212 29.801761 66.762102 0
M  V30 80 H 41.705023 30.051074 67.279140 0
M  V30 81 H 36.045038 22.190720 54.967773 0
M  V30 82 H 40.045145 32.615961 55.100862 0
M  V30 83 H 40.208250 31.737602 53.471006 0
M  V30 84 H 40.728245 31.007122 54.958820 0
M  V30 85 H 40.344281 34.785270 61.734984 0
M  V30 86 H 39.316180 35.250663 63.058601 0
M  V30 87 H 39.827547 26.663982 52.466405 0
M  V30 88 H 38.167532 26.631299 51.909947 0
M  V30 89 H 39.622412 26.515287 56.540547 0
M  V30 90 H 37.993505 26.387796 57.245679 0
M  V30 91 H 38.803322 25.979192 59.367747 0
M  V30 92 H 40.445154 25.942500 58.802769 0
M  V30 93 H 36.790620 34.399447 58.755124 0
M  V30 94 H 37.480835 33.513291 56.645507 0
M  V30 95 H 42.433582 35.298332 66.967781 0
M  V30 96 H 41.041808 35.884393 66.098247 0
M  V30 97 H 38.845127 26.960423 49.767753 0
M  V30 98 H 40.444461 26.844282 50.167818 0
M  V30 99 H 40.119413 28.436773 58.123204 0
M  V30 100 H 40.127962 28.133502 59.857036 0
M  V30 101 H 39.481530 30.476830 56.473800 0
M  V30 102 H 36.714799 30.059915 59.403787 0
M  V30 103 H 39.400376 32.371918 61.942005 0
M  V30 104 H 38.448413 32.937297 63.247968 0
M  V30 105 H 38.054914 29.054324 52.021591 0
M  V30 END ATOM
M  V30 BEGIN BOND
M  V30 1 1 7 1
M  V30 2 1 9 2
M  V30 3 1 9 6
M  V30 4 1 12 3
M  V30 5 1 13 6
M  V30 6 1 13 9
M  V30 7 1 15 2
M  V30 8 1 16 3
M  V30 9 1 17 12
M  V30 10 1 18 1
M  V30 11 1 19 6
M  V30 12 1 19 17
M  V30 13 1 20 14
M  V30 14 1 22 4
M  V30 15 1 22 8
M  V30 16 1 25 5
M  V30 17 1 26 7
M  V30 18 1 26 8
M  V30 19 1 27 23
M  V30 20 1 28 18
M  V30 21 2 29 2
M  V30 22 1 30 19
M  V30 23 1 30 21
M  V30 24 1 31 11
M  V30 25 2 31 20
M  V30 26 1 31 24
M  V30 27 1 32 30
M  V30 28 1 34 13
M  V30 29 1 35 24
M  V30 30 1 36 35
M  V30 31 1 37 11
M  V30 32 1 37 14
M  V30 33 1 39 33
M  V30 34 2 40 23
M  V30 35 1 40 38
M  V30 36 1 41 22
M  V30 37 1 41 25
M  V30 38 2 42 10
M  V30 39 1 42 38
M  V30 40 1 42 39
M  V30 41 1 43 15
M  V30 42 1 43 34
M  V30 43 1 44 16
M  V30 44 1 44 36
M  V30 45 2 45 11
M  V30 46 1 46 17
M  V30 47 1 46 23
M  V30 48 1 46 30
M  V30 49 1 47 3
M  V30 50 1 47 16
M  V30 51 1 47 27
M  V30 52 1 48 26
M  V30 53 1 48 33
M  V30 54 1 3 49 CFG=3
M  V30 55 1 50 4
M  V30 56 1 51 4
M  V30 57 1 52 4
M  V30 58 1 53 5
M  V30 59 1 6 54 CFG=1
M  V30 60 1 55 7
M  V30 61 1 56 7
M  V30 62 1 9 57 CFG=1
M  V30 63 1 58 12
M  V30 64 1 59 14
M  V30 65 1 60 15
M  V30 66 1 61 15
M  V30 67 1 16 62 CFG=1
M  V30 68 1 63 18
M  V30 69 1 64 18
M  V30 70 1 19 65 CFG=3
M  V30 71 1 66 20
M  V30 72 1 67 21
M  V30 73 1 68 21
M  V30 74 1 69 21
M  V30 75 1 22 70 CFG=1
M  V30 76 1 71 24
M  V30 77 1 72 24
M  V30 78 1 73 25
M  V30 79 1 74 25
M  V30 80 1 26 75 CFG=3
M  V30 81 1 76 27
M  V30 82 1 77 27
M  V30 83 1 78 28
M  V30 84 1 79 28
M  V30 85 1 80 28
M  V30 86 1 81 14
M  V30 87 1 82 32
M  V30 88 1 83 32
M  V30 89 1 84 32
M  V30 90 1 85 33
M  V30 91 1 86 33
M  V30 92 1 87 34
M  V30 93 1 88 34
M  V30 94 1 89 35
M  V30 95 1 90 35
M  V30 96 1 91 36
M  V30 97 1 92 36
M  V30 98 1 93 38
M  V30 99 1 94 40
M  V30 100 1 95 41
M  V30 101 1 96 41
M  V30 102 1 97 43
M  V30 103 1 98 43
M  V30 104 1 99 44
M  V30 105 1 100 44
M  V30 106 1 46 101 CFG=1
M  V30 107 1 47 102 CFG=1
M  V30 108 1 103 48
M  V30 109 1 104 48
M  V30 110 1 13 105 CFG=3
M  V30 END BOND
M  V30 END CTAB
M  END
>  <i_epik_Tot_Q>  (1) 
1

>  <i_epik_Tot_abs_Q>  (1) 
1

>  <i_i_glide_confnum>  (1) 
2885

>  <i_i_glide_lignum>  (1) 
180

>  <i_i_glide_posenum>  (1) 
70

>  <i_i_glide_rotatable_bonds>  (1) 
20

>  <i_lp_mmshare_version>  (1) 
72125

>  <i_m_source_file_index>  (1) 
79

>  <i_f3d_flags>  (1) 
0

>  <num_sample>  (1) 
100

>  <b_lp_Chiralities_Consistent>  (1) 
1

>  <r_epik_Charging_Adjusted_Penalty>  (1) 
0.27991857207723647

>  <r_epik_Ionization_Penalty>  (1) 
0.14008487576319317

>  <r_epik_Ionization_Penalty_Charging>  (1) 
0.13995928603861824

>  <r_epik_Ionization_Penalty_Neutral>  (1) 
0.0001255897245749389

>  <r_epik_State_Penalty>  (1) 
0.13995928603861821

>  <r_glide_ring_energy>  (1) 
0

>  <r_i_docking_score>  (1) 
-4.6877401915640942

>  <r_i_glide_ecoul>  (1) 
0.18534430793742618

>  <r_i_glide_eff_state_penalty>  (1) 
0.13995928603861821

>  <r_i_glide_einternal>  (1) 
20.161868276639098

>  <r_i_glide_emodel>  (1) 
2.3923714259365809

>  <r_i_glide_emodel_strain>  (1) 
13.238956197237798

>  <r_i_glide_energy>  (1) 
-19.902752110835387

>  <r_i_glide_erotb>  (1) 
0.59343049219720367

>  <r_i_glide_esite>  (1) 
-0.10846438839991786

>  <r_i_glide_evdw>  (1) 
-20.088096418772814

>  <r_i_glide_gscore>  (1) 
-4.827699477602712

>  <r_i_glide_gscore_strain>  (1) 
2.3097390493094494

>  <r_i_glide_hbond>  (1) 
0

>  <r_i_glide_ligand_efficiency>  (1) 
-0.097661253990918628

>  <r_i_glide_ligand_efficiency_ln>  (1) 
-0.96233766191684966

>  <r_i_glide_ligand_efficiency_sa>  (1) 
-0.35492455149741647

>  <r_i_glide_lipo>  (1) 
-4.9616502953782913

>  <r_i_glide_metal>  (1) 
-0

>  <r_i_glide_rewards>  (1) 
-1.684151160583129

>  <r_lp_Energy>  (1) 
62.663834999999999

>  <r_lp_tautomer_probability>  (1) 
0.99979120136373534

>  <s_epik_Chemistry_Notes>  (1) 
This compound has an ester and may undergo hydrolysis at high or low pH.

>  <s_epik_cmdline>  (1) 
J2VwaWtfcHl0aG9uJywgJy1waHQnLCAnMS4wJywgJy1waCcsICc3LjQnLCAnLXRuJywgJzgnLCAnLW1hJywgJzUwMCcsICctaW1hZScsICc8aW5maWxlLm1hZT4nLCAnLW9tYWUnLCAnPG91dGZpbGUubWFlPic=

>  <s_epik_input>  (1) 
W09IXVtDSDJdW0NIMl1bQ0BIXShbQ0gzXSlPW0NAQEhdKFtDSDJdT1tDSDJdW0NIM10pW0NIMl1bQ0gyXVNDKD1PKVtOSF0vW0NIXT1DKFtDQEhdMU4oW05IXTIpW0NAQEhdKEMxKFtDSDNdKVtDSDNdKVtDQEhdM04oW0NASF0zNClbQ0gyXVtDSDJdW0NIMl1DND1PKVxbQ0gyXVtDQEBIXShbQ0BASF0yNSlbQ0BASF01W0NIMl1bQ0gyXVtDSDJdW0NIMl1bQ0BASF0oQzY9TylbQ0hdPVtDSF1PNg==

>  <s_glide_docking_method>  (1) 
confgen

>  <s_i_glide_gridfile>  (1) 
gpcr_5ht2c_6bqh_protein_autoprepared_prepared

>  <s_lp_Force_Field>  (1) 
S-OPLS

>  <s_lp_Variant>  (1) 
DiffSBDD_78-2

>  <s_m_source_file>  (1) 
generated_GPCR_5HT2C_ligand_DiffSBDD_2026-06-23_prepared.sdf

>  <GenAI_Model>  (1) 
DiffSBDD

>  <Protein>  (1) 
GPCR_5HT2C

$$$$
DiffSBDD_22
     RDKit          3D

  0  0  0  0  0  0  0  0  0  0999 V3000
M  V30 BEGIN CTAB
M  V30 COUNTS 48 51 0 0 1
M  V30 BEGIN ATOM
M  V30 1 C 40.043718 30.864571 51.110540 0
M  V30 2 C 36.506147 32.461602 60.863089 0
M  V30 3 C 39.249354 29.077021 54.274931 0
M  V30 4 F 37.452360 32.757844 61.766492 0
M  V30 5 N 38.972510 29.714507 52.967318 0 CFG=2 CHG=1
M  V30 6 C 38.863504 28.808487 51.792992 0 CFG=1
M  V30 7 C 39.580320 29.507699 50.664232 0 CFG=2
M  V30 8 O 38.457197 30.991204 55.450417 0
M  V30 9 O 37.645088 28.214319 57.370038 0
M  V30 10 N 38.045109 32.406994 57.315775 0 CHG=1
M  V30 11 O 39.969102 28.152686 58.548462 0
M  V30 12 C 39.030230 30.177956 57.571675 0 CFG=1
M  V30 13 C 38.285242 29.574153 55.357100 0 CFG=2
M  V30 14 C 37.523525 34.062677 59.134013 0
M  V30 15 N 35.866398 31.380751 60.966790 0
M  V30 16 C 39.836140 30.876947 52.628918 0
M  V30 17 C 38.542721 33.067733 58.543615 0
M  V30 18 C 40.140588 28.231061 51.227964 0
M  V30 19 C 39.958261 28.988354 57.412382 0 CFG=2
M  V30 20 C 39.060793 31.380788 56.645472 0 CFG=1
M  V30 21 C 36.242482 33.441094 59.737057 0
M  V30 22 C 38.612153 29.019051 56.731868 0 CFG=2
M  V30 23 H 39.444208 31.631525 50.618264 0
M  V30 24 H 41.087717 31.020978 50.835100 0
M  V30 25 H 40.257381 29.337827 54.592129 0
M  V30 26 H 39.193076 27.990514 54.192747 0
M  V30 27 H 37.898546 28.332628 51.625724 0
M  V30 28 H 39.245182 29.422548 49.636295 0
M  V30 29 H 36.842219 28.708372 57.461054 0
M  V30 30 H 37.137989 31.969273 57.474245 0
M  V30 31 H 39.110183 27.747766 58.585578 0
M  V30 32 H 38.549482 30.292058 58.541983 0
M  V30 33 H 37.250119 29.352956 55.093737 0
M  V30 34 H 37.244339 34.788276 58.369576 0
M  V30 35 H 38.024365 34.641341 59.911257 0
M  V30 36 H 35.174697 31.265897 60.239203 0
M  V30 37 H 39.336333 31.784343 52.960556 0
M  V30 38 H 40.801759 30.839419 53.134051 0
M  V30 39 H 39.452496 33.608604 58.283776 0
M  V30 40 H 38.837764 32.337213 59.295062 0
M  V30 41 H 40.048233 27.356982 50.581617 0
M  V30 42 H 41.076582 28.319304 51.767741 0
M  V30 43 H 40.847374 28.940687 56.790677 0
M  V30 44 H 40.044884 31.817198 56.482135 0
M  V30 45 H 38.045167 30.103356 53.060714 0
M  V30 46 H 35.656132 32.943363 58.966750 0
M  V30 47 H 35.607651 34.238666 60.125063 0
M  V30 48 H 37.852355 33.142394 56.649843 0
M  V30 END ATOM
M  V30 BEGIN BOND
M  V30 1 1 4 2
M  V30 2 1 5 3
M  V30 3 1 6 5
M  V30 4 1 7 1
M  V30 5 1 7 6
M  V30 6 1 13 3
M  V30 7 1 13 8
M  V30 8 2 15 2
M  V30 9 1 16 1
M  V30 10 1 16 5
M  V30 11 1 17 10
M  V30 12 1 17 14
M  V30 13 1 18 6
M  V30 14 1 18 7
M  V30 15 1 19 11
M  V30 16 1 19 12
M  V30 17 1 20 8
M  V30 18 1 20 10
M  V30 19 1 20 12
M  V30 20 1 21 2
M  V30 21 1 21 14
M  V30 22 1 22 9 CFG=1
M  V30 23 1 22 12
M  V30 24 1 22 13
M  V30 25 1 22 19
M  V30 26 1 23 1
M  V30 27 1 24 1
M  V30 28 1 25 3
M  V30 29 1 26 3
M  V30 30 1 6 27 CFG=3
M  V30 31 1 7 28 CFG=3
M  V30 32 1 29 9
M  V30 33 1 30 10
M  V30 34 1 31 11
M  V30 35 1 12 32 CFG=1
M  V30 36 1 13 33 CFG=3
M  V30 37 1 34 14
M  V30 38 1 35 14
M  V30 39 1 36 15
M  V30 40 1 37 16
M  V30 41 1 38 16
M  V30 42 1 39 17
M  V30 43 1 40 17
M  V30 44 1 41 18
M  V30 45 1 42 18
M  V30 46 1 19 43 CFG=3
M  V30 47 1 20 44 CFG=3
M  V30 48 1 5 45 CFG=1
M  V30 49 1 46 21
M  V30 50 1 47 21
M  V30 51 1 48 10
M  V30 END BOND
M  V30 END CTAB
M  END
>  <i_epik_Tot_Q>  (1) 
2

>  <i_epik_Tot_abs_Q>  (1) 
2

>  <i_i_glide_confnum>  (1) 
126

>  <i_i_glide_lignum>  (1) 
55

>  <i_i_glide_posenum>  (1) 
155

>  <i_i_glide_rotatable_bonds>  (1) 
9

>  <i_lp_mmshare_version>  (1) 
72125

>  <i_m_source_file_index>  (1) 
23

>  <i_f3d_flags>  (1) 
0

>  <num_sample>  (1) 
100

>  <b_lp_Chiralities_Consistent>  (1) 
1

>  <r_epik_Charging_Adjusted_Penalty>  (1) 
1.666199543100769

>  <r_epik_Ionization_Penalty>  (1) 
0.63246952638049103

>  <r_epik_Ionization_Penalty_Charging>  (1) 
0.62883544751823761

>  <r_epik_Ionization_Penalty_Neutral>  (1) 
0.0036340788622534364

>  <r_epik_State_Penalty>  (1) 
1.0373640955825314

>  <r_glide_ring_energy>  (1) 
1.6455033096424563

>  <r_i_docking_score>  (1) 
-4.6822543651372959

>  <r_i_glide_ecoul>  (1) 
-7.446354102908451

>  <r_i_glide_eff_state_penalty>  (1) 
1.0373640955825314

>  <r_i_glide_einternal>  (1) 
10.831457624265443

>  <r_i_glide_emodel>  (1) 
-41.087193939980239

>  <r_i_glide_emodel_strain>  (1) 
4.4246892774717708

>  <r_i_glide_energy>  (1) 
-35.105236235345942

>  <r_i_glide_erotb>  (1) 
1.309053311580165

>  <r_i_glide_esite>  (1) 
-0.15074844420767841

>  <r_i_glide_evdw>  (1) 
-27.658882132437494

>  <r_i_glide_gscore>  (1) 
-5.7196184607198273

>  <r_i_glide_gscore_strain>  (1) 
0.10617231936794269

>  <r_i_glide_hbond>  (1) 
-0.43493062763501034

>  <r_i_glide_ligand_efficiency>  (1) 
-0.21282974386987707

>  <r_i_glide_ligand_efficiency_ln>  (1) 
-1.1445137562172343

>  <r_i_glide_ligand_efficiency_sa>  (1) 
-0.59635731305670792

>  <r_i_glide_lipo>  (1) 
-1.6900637057938548

>  <r_i_glide_metal>  (1) 
-0

>  <r_i_glide_rewards>  (1) 
-2.3592040919732487

>  <r_lp_Energy>  (1) 
22.761092999999999

>  <r_lp_tautomer_probability>  (1) 
0.49999300000000002

>  <s_epik_Chemistry_Notes>  (1) 
This compound has an imine and may undergo hydrolysis. This compound contains an acetal/aminal-like group ( X-CH(R)-Y where X, Y are N, S, or O) that may be acid/base labile, releasing an aldehyde.

>  <s_epik_cmdline>  (1) 
J2VwaWtfcHl0aG9uJywgJy1waHQnLCAnMS4wJywgJy1waCcsICc3LjQnLCAnLXRuJywgJzgnLCAnLW1hJywgJzUwMCcsICctaW1hZScsICc8aW5maWxlLm1hZT4nLCAnLW9tYWUnLCAnPG91dGZpbGUubWFlPic=

>  <s_epik_input>  (1) 
W0NAQEhdMTJbQ0BIXShbQ0gyXTIpW0NIMl1bQ0gyXU4xW0NIMl1bQ0BASF0zT1tDQEhdKFtDSF0oW0NASF00W09IXSlbQ0BAXTM0W09IXSlbTkhdW0NIMl1bQ0gyXVxbQ0hdPUMoXEYpW05IMl0=

>  <s_glide_docking_method>  (1) 
confgen

>  <s_i_glide_gridfile>  (1) 
gpcr_5ht2c_6bqh_protein_autoprepared_prepared

>  <s_lp_Force_Field>  (1) 
S-OPLS

>  <s_lp_Variant>  (1) 
DiffSBDD_22-3

>  <s_m_source_file>  (1) 
generated_GPCR_5HT2C_ligand_DiffSBDD_2026-06-23_prepared.sdf

>  <GenAI_Model>  (1) 
DiffSBDD

>  <Protein>  (1) 
GPCR_5HT2C

$$$$
DiffSBDD_8
     RDKit          3D

  0  0  0  0  0  0  0  0  0  0999 V3000
M  V30 BEGIN CTAB
M  V30 COUNTS 46 50 0 0 1
M  V30 BEGIN ATOM
M  V30 1 C 39.133504 30.397609 54.261963 0
M  V30 2 O 37.017419 32.172622 60.651234 0
M  V30 3 C 39.646613 30.793199 53.091475 0
M  V30 4 C 38.060185 29.721148 58.703991 0
M  V30 5 N 38.443456 30.741724 57.715876 0
M  V30 6 C 37.667806 33.037212 58.400196 0
M  V30 7 C 37.738915 28.294360 58.162211 0
M  V30 8 C 38.777775 25.775859 56.057020 0
M  V30 9 N 38.474580 29.227436 54.479236 0
M  V30 10 C 35.249119 33.349386 59.380456 0
M  V30 11 C 37.913207 29.101840 55.875243 0 CFG=2
M  V30 12 N 39.926187 26.250807 56.326272 0
M  V30 13 C 36.143022 33.308004 60.598303 0 CFG=1
M  V30 14 C 36.562166 32.589553 59.350553 0 CFG=1
M  V30 15 C 39.197272 31.110454 55.430950 0
M  V30 16 N 39.723124 27.518758 56.769226 0
M  V30 17 C 38.567025 30.425930 56.366015 0
M  V30 18 C 37.589890 26.620583 56.252372 0
M  V30 19 C 36.761870 34.580716 61.136094 0
M  V30 20 C 38.833615 32.041179 58.269283 0
M  V30 21 C 40.922461 28.299061 57.049204 0
M  V30 22 C 38.284169 27.902210 56.763502 0 CFG=1
M  V30 23 H 39.562076 30.176310 52.209027 0
M  V30 24 H 40.157069 31.735641 52.998517 0
M  V30 25 H 37.208292 30.068026 59.285251 0
M  V30 26 H 38.888321 29.633922 59.408294 0
M  V30 27 H 38.061607 33.994833 58.736002 0
M  V30 28 H 37.245053 33.217002 57.412365 0
M  V30 29 H 36.651375 28.231607 58.125908 0
M  V30 30 H 38.049683 27.551905 58.897290 0
M  V30 31 H 38.660695 24.758173 55.684801 0
M  V30 32 H 38.158738 28.625311 53.733491 0
M  V30 33 H 35.184853 34.274505 58.810350 0
M  V30 34 H 34.341301 32.750537 59.399409 0
M  V30 35 H 39.712426 32.048290 55.569041 0
M  V30 36 H 37.069314 26.758964 55.304746 0
M  V30 37 H 36.907084 26.171950 56.974530 0
M  V30 38 H 36.045329 35.078581 61.787078 0
M  V30 39 H 37.651312 34.353121 61.724069 0
M  V30 40 H 37.034672 35.261842 60.330373 0
M  V30 41 H 39.245075 31.888409 59.266188 0
M  V30 42 H 39.621355 32.498521 57.672361 0
M  V30 43 H 40.748606 28.968762 57.889931 0
M  V30 44 H 41.757810 27.641715 57.296185 0
M  V30 45 H 41.184034 28.882743 56.166805 0
M  V30 46 H 36.846097 29.335121 55.854537 0
M  V30 END ATOM
M  V30 BEGIN BOND
M  V30 1 2 3 1
M  V30 2 1 5 4
M  V30 3 1 7 4
M  V30 4 1 9 1
M  V30 5 1 11 9
M  V30 6 2 12 8
M  V30 7 1 13 2
M  V30 8 1 13 10
M  V30 9 1 14 2
M  V30 10 1 14 6 CFG=1
M  V30 11 1 14 10
M  V30 12 1 14 13
M  V30 13 1 15 1
M  V30 14 1 16 12
M  V30 15 1 17 5
M  V30 16 1 17 11
M  V30 17 2 17 15
M  V30 18 1 18 8
M  V30 19 1 13 19 CFG=3
M  V30 20 1 20 5
M  V30 21 1 20 6
M  V30 22 1 21 16
M  V30 23 1 22 7
M  V30 24 1 22 11
M  V30 25 1 22 16 CFG=1
M  V30 26 1 22 18
M  V30 27 1 23 3
M  V30 28 1 24 3
M  V30 29 1 25 4
M  V30 30 1 26 4
M  V30 31 1 27 6
M  V30 32 1 28 6
M  V30 33 1 29 7
M  V30 34 1 30 7
M  V30 35 1 31 8
M  V30 36 1 32 9
M  V30 37 1 33 10
M  V30 38 1 34 10
M  V30 39 1 35 15
M  V30 40 1 36 18
M  V30 41 1 37 18
M  V30 42 1 38 19
M  V30 43 1 39 19
M  V30 44 1 40 19
M  V30 45 1 41 20
M  V30 46 1 42 20
M  V30 47 1 43 21
M  V30 48 1 44 21
M  V30 49 1 45 21
M  V30 50 1 11 46 CFG=3
M  V30 END BOND
M  V30 END CTAB
M  END
>  <i_epik_Tot_Q>  (1) 
0

>  <i_epik_Tot_abs_Q>  (1) 
0

>  <i_i_glide_confnum>  (1) 
16

>  <i_i_glide_lignum>  (1) 
12

>  <i_i_glide_posenum>  (1) 
57

>  <i_i_glide_rotatable_bonds>  (1) 
3

>  <i_lp_mmshare_version>  (1) 
72125

>  <i_m_source_file_index>  (1) 
9

>  <i_f3d_flags>  (1) 
0

>  <num_sample>  (1) 
100

>  <b_lp_Chiralities_Consistent>  (1) 
1

>  <r_epik_Charging_Adjusted_Penalty>  (1) 
0.0013502642422006258

>  <r_epik_Ionization_Penalty>  (1) 
0.0017789760984620326

>  <r_epik_Ionization_Penalty_Charging>  (1) 
0.0013502642422006258

>  <r_epik_Ionization_Penalty_Neutral>  (1) 
0.00042871185626140696

>  <r_epik_State_Penalty>  (1) 
-0

>  <r_glide_ring_energy>  (1) 
0

>  <r_i_docking_score>  (1) 
-4.6668306114227613

>  <r_i_glide_ecoul>  (1) 
0.020981528737187005

>  <r_i_glide_eff_state_penalty>  (1) 
-0

>  <r_i_glide_einternal>  (1) 
4.0023037518885216

>  <r_i_glide_emodel>  (1) 
-36.0134779025474

>  <r_i_glide_emodel_strain>  (1) 
0.022250735315310521

>  <r_i_glide_energy>  (1) 
-29.859535195895663

>  <r_i_glide_erotb>  (1) 
0.61104831889555555

>  <r_i_glide_esite>  (1) 
-0.05793668684528841

>  <r_i_glide_evdw>  (1) 
-29.880516724632852

>  <r_i_glide_gscore>  (1) 
-4.6668306114227613

>  <r_i_glide_gscore_strain>  (1) 
0

>  <r_i_glide_hbond>  (1) 
0

>  <r_i_glide_ligand_efficiency>  (1) 
-0.21212866415558007

>  <r_i_glide_ligand_efficiency_ln>  (1) 
-1.1407436282143157

>  <r_i_glide_ligand_efficiency_sa>  (1) 
-0.59439286012332304

>  <r_i_glide_lipo>  (1) 
-1.4688671961428714

>  <r_i_glide_metal>  (1) 
-0

>  <r_i_glide_rewards>  (1) 
-2.2601964404090928

>  <r_lp_Energy>  (1) 
31.245733999999999

>  <r_lp_tautomer_probability>  (1) 
1

>  <s_epik_Chemistry_Notes>  (1) 
This compound has an imine and may undergo hydrolysis.

>  <s_epik_cmdline>  (1) 
J2VwaWtfcHl0aG9uJywgJy1waHQnLCAnMS4wJywgJy1waCcsICc3LjQnLCAnLXRuJywgJzgnLCAnLW1hJywgJzUwMCcsICctaW1hZScsICc8aW5maWxlLm1hZT4nLCAnLW9tYWUnLCAnPG91dGZpbGUubWFlPic=

>  <s_epik_input>  (1) 
W0NIM11bQ0BAXTEyW0NAQF0oTzEpKFtDSDJdMilbQ0gyXVtDSDJdTihbQ0gyXVtDSDJdMyljKFtjSF1jKFtDSDNdKVtuSF00KWM0W0NAQF0zNU4oW0NIM10pTj1bQ0hdW0NIMl01

>  <s_glide_docking_method>  (1) 
confgen

>  <s_i_glide_gridfile>  (1) 
gpcr_5ht2c_6bqh_protein_autoprepared_prepared

>  <s_lp_Force_Field>  (1) 
S-OPLS

>  <s_lp_Variant>  (1) 
DiffSBDD_8-2

>  <s_m_source_file>  (1) 
generated_GPCR_5HT2C_ligand_DiffSBDD_2026-06-23_prepared.sdf

>  <GenAI_Model>  (1) 
DiffSBDD

>  <Protein>  (1) 
GPCR_5HT2C

$$$$
DiffSBDD_58
     RDKit          3D

  0  0  0  0  0  0  0  0  0  0999 V3000
M  V30 BEGIN CTAB
M  V30 COUNTS 76 76 0 0 1
M  V30 BEGIN ATOM
M  V30 1 C 38.358692 34.181912 60.750386 0
M  V30 2 C 37.733164 31.870711 60.402360 0 CFG=1
M  V30 3 C 39.277420 29.625290 52.541531 0
M  V30 4 C 38.506909 31.739841 57.930861 0 CFG=1
M  V30 5 C 39.796553 36.921512 62.824283 0
M  V30 6 C 38.940292 25.746594 55.785558 0
M  V30 7 O 35.397430 37.337567 63.633838 0
M  V30 8 C 37.723627 30.425032 54.441901 0
M  V30 9 N 38.116041 25.908881 54.725630 0
M  V30 10 C 37.295267 36.895363 62.089776 0 CFG=2
M  V30 11 C 37.116498 37.253340 59.571528 0
M  V30 12 C 35.675835 33.277408 61.514202 0
M  V30 13 C 35.466445 30.937554 60.947467 0
M  V30 14 C 36.798774 37.219992 63.499453 0
M  V30 15 N 39.765981 28.031778 55.768067 0
M  V30 16 C 38.965948 29.588453 54.052148 0 CFG=1
M  V30 17 N 37.645116 30.678692 55.895131 0 CHG=1
M  V30 18 O 39.025865 30.428860 58.124193 0
M  V30 19 C 39.748200 26.785498 56.295809 0
M  V30 20 C 38.912703 32.803321 60.788082 0
M  V30 21 O 36.083138 36.320423 59.367690 0
M  V30 22 C 38.220018 31.933516 56.431605 0 CFG=2
M  V30 23 C 36.487583 31.967925 61.366575 0
M  V30 24 O 37.875697 39.024584 60.967415 0
M  V30 25 C 38.704868 36.284284 62.094886 0
M  V30 26 C 41.055776 36.439009 62.826957 0
M  V30 27 C 37.008029 37.912393 60.959833 0 CFG=2
M  V30 28 C 38.142075 27.146190 54.181448 0
M  V30 29 C 37.330926 31.955743 58.892259 0
M  V30 30 C 38.957130 28.192879 54.693330 0
M  V30 31 N 37.327026 27.361648 53.080026 0
M  V30 32 C 38.846791 35.169961 61.433509 0
M  V30 33 C 39.508855 32.387396 55.727193 0
M  V30 34 H 37.494583 34.331203 60.130656 0
M  V30 35 H 38.139698 30.869968 60.554105 0
M  V30 36 H 40.115393 28.978006 52.295047 0
M  V30 37 H 38.437829 29.333428 51.915832 0
M  V30 38 H 39.560155 30.632591 52.235739 0
M  V30 39 H 39.245641 32.486765 58.183257 0
M  V30 40 H 39.590614 37.821133 63.382152 0
M  V30 41 H 38.956588 24.765112 56.238634 0
M  V30 42 H 35.048364 36.489053 63.885517 0
M  V30 43 H 36.822889 29.880644 54.168078 0
M  V30 44 H 37.678094 31.368503 53.896922 0
M  V30 45 H 36.622720 36.075132 61.844923 0
M  V30 46 H 38.075499 36.773134 59.422325 0
M  V30 47 H 37.066543 37.979815 58.782468 0
M  V30 48 H 35.450707 33.740392 60.554877 0
M  V30 49 H 34.714000 33.094951 61.997867 0
M  V30 50 H 36.176217 33.990906 62.166187 0
M  V30 51 H 34.846677 31.338105 60.141390 0
M  V30 52 H 35.987376 30.064229 60.567505 0
M  V30 53 H 34.804451 30.657934 61.767523 0
M  V30 54 H 37.156920 36.505510 64.234618 0
M  V30 55 H 37.245274 38.137727 63.767562 0
M  V30 56 H 39.840635 30.072720 54.480009 0
M  V30 57 H 38.081141 29.924300 56.411365 0
M  V30 58 H 39.232452 30.311431 59.040085 0
M  V30 59 H 40.393444 26.610370 57.143434 0
M  V30 60 H 39.800313 32.713686 60.168522 0
M  V30 61 H 39.244116 32.576477 61.804081 0
M  V30 62 H 36.059705 36.094917 58.443735 0
M  V30 63 H 37.487237 32.728452 56.292629 0
M  V30 64 H 36.847839 31.735395 62.365494 0
M  V30 65 H 37.459098 39.691084 60.439222 0
M  V30 66 H 41.838875 36.937632 63.367537 0
M  V30 67 H 41.315143 35.541643 62.285187 0
M  V30 68 H 35.994705 38.299463 61.086590 0
M  V30 69 H 36.588917 31.197324 58.653665 0
M  V30 70 H 36.848722 32.910595 58.669629 0
M  V30 71 H 37.385389 28.216826 52.550108 0
M  V30 72 H 36.838338 26.589600 52.635383 0
M  V30 73 H 39.854511 33.335659 56.136738 0
M  V30 74 H 40.314375 31.670277 55.857257 0
M  V30 75 H 39.358763 32.538638 54.661114 0
M  V30 76 H 36.664957 30.734036 56.170205 0
M  V30 END ATOM
M  V30 BEGIN BOND
M  V30 1 1 9 6
M  V30 2 1 14 7
M  V30 3 1 14 10
M  V30 4 1 16 3
M  V30 5 1 16 8
M  V30 6 1 17 8
M  V30 7 1 18 4
M  V30 8 2 19 6
M  V30 9 1 19 15
M  V30 10 1 20 1
M  V30 11 1 20 2
M  V30 12 1 21 11
M  V30 13 1 22 4
M  V30 14 1 22 17
M  V30 15 1 23 2
M  V30 16 1 23 12
M  V30 17 1 23 13
M  V30 18 1 25 5
M  V30 19 1 25 10
M  V30 20 2 26 5
M  V30 21 1 27 10
M  V30 22 1 27 11
M  V30 23 1 27 24
M  V30 24 2 28 9
M  V30 25 1 29 2
M  V30 26 1 29 4
M  V30 27 2 30 15
M  V30 28 1 30 16
M  V30 29 1 30 28
M  V30 30 1 31 28
M  V30 31 2 32 1
M  V30 32 2 32 25
M  V30 33 1 33 22
M  V30 34 1 34 1
M  V30 35 1 2 35 CFG=3
M  V30 36 1 36 3
M  V30 37 1 37 3
M  V30 38 1 38 3
M  V30 39 1 4 39 CFG=1
M  V30 40 1 40 5
M  V30 41 1 41 6
M  V30 42 1 42 7
M  V30 43 1 43 8
M  V30 44 1 44 8
M  V30 45 1 10 45 CFG=3
M  V30 46 1 46 11
M  V30 47 1 47 11
M  V30 48 1 48 12
M  V30 49 1 49 12
M  V30 50 1 50 12
M  V30 51 1 51 13
M  V30 52 1 52 13
M  V30 53 1 53 13
M  V30 54 1 54 14
M  V30 55 1 55 14
M  V30 56 1 16 56 CFG=1
M  V30 57 1 57 17
M  V30 58 1 58 18
M  V30 59 1 59 19
M  V30 60 1 60 20
M  V30 61 1 61 20
M  V30 62 1 62 21
M  V30 63 1 22 63 CFG=1
M  V30 64 1 64 23
M  V30 65 1 65 24
M  V30 66 1 66 26
M  V30 67 1 67 26
M  V30 68 1 27 68 CFG=1
M  V30 69 1 69 29
M  V30 70 1 70 29
M  V30 71 1 71 31
M  V30 72 1 72 31
M  V30 73 1 73 33
M  V30 74 1 74 33
M  V30 75 1 75 33
M  V30 76 1 76 17
M  V30 END BOND
M  V30 END CTAB
M  END
>  <i_epik_Tot_Q>  (1) 
1

>  <i_epik_Tot_abs_Q>  (1) 
1

>  <i_i_glide_confnum>  (1) 
87

>  <i_i_glide_lignum>  (1) 
130

>  <i_i_glide_posenum>  (1) 
25

>  <i_i_glide_rotatable_bonds>  (1) 
19

>  <i_lp_mmshare_version>  (1) 
72125

>  <i_m_source_file_index>  (1) 
59

>  <i_f3d_flags>  (1) 
0

>  <num_sample>  (1) 
100

>  <b_lp_Chiralities_Consistent>  (1) 
1

>  <r_epik_Charging_Adjusted_Penalty>  (1) 
0.031800499123457865

>  <r_epik_Ionization_Penalty>  (1) 
0.015929061655920795

>  <r_epik_Ionization_Penalty_Charging>  (1) 
0.015900249561728946

>  <r_epik_Ionization_Penalty_Neutral>  (1) 
2.8812094191846713e-05

>  <r_epik_State_Penalty>  (1) 
0.015900249561728919

>  <r_glide_ring_energy>  (1) 
0

>  <r_i_docking_score>  (1) 
-4.6634250118522758

>  <r_i_glide_ecoul>  (1) 
-11.976063960038886

>  <r_i_glide_eff_state_penalty>  (1) 
0.015900249561728919

>  <r_i_glide_einternal>  (1) 
24.181366463592543

>  <r_i_glide_emodel>  (1) 
-35.810586803776012

>  <r_i_glide_emodel_strain>  (1) 
16.621268877468253

>  <r_i_glide_energy>  (1) 
-48.331649781934161

>  <r_i_glide_erotb>  (1) 
1.3125063474323406

>  <r_i_glide_esite>  (1) 
-0.10000000000000001

>  <r_i_glide_evdw>  (1) 
-36.355585821895275

>  <r_i_glide_gscore>  (1) 
-4.6793252614140046

>  <r_i_glide_gscore_strain>  (1) 
3.1553172193670633

>  <r_i_glide_hbond>  (1) 
-1.0516754334598408

>  <r_i_glide_ligand_efficiency>  (1) 
-0.14131590945006897

>  <r_i_glide_ligand_efficiency_ln>  (1) 
-1.0371215767134967

>  <r_i_glide_ligand_efficiency_sa>  (1) 
-0.45327563093567785

>  <r_i_glide_lipo>  (1) 
-3.6908342221499026

>  <r_i_glide_metal>  (1) 
-0

>  <r_i_glide_rewards>  (1) 
-0.69045028750306825

>  <r_lp_Energy>  (1) 
12.855034999999999

>  <r_lp_tautomer_probability>  (1) 
0.99999990128000804

>  <s_epik_cmdline>  (1) 
J2VwaWtfcHl0aG9uJywgJy1waHQnLCAnMS4wJywgJy1waCcsICc3LjQnLCAnLXRuJywgJzgnLCAnLW1hJywgJzUwMCcsICctaW1hZScsICc8aW5maWxlLm1hZT4nLCAnLW9tYWUnLCAnPG91dGZpbGUubWFlPic=

>  <s_epik_input>  (1) 
W09IXVtDSDJdW0NASF0oW09IXSlbQ0BIXShbQ0gyXVtPSF0pQyhbQ0hdPVtDSDJdKT1DPVtDSF1bQ0gyXVtDQEBIXShbQ0hdKFtDSDNdKVtDSDNdKVtDSDJdW0NAQEhdKFtPSF0pW0NAQEhdKFtDSDNdKVtOSF1bQ0gyXVtDQEBIXShbQ0gzXSljMW5bY0hdW2NIXW5jMVtOSDJd

>  <s_glide_docking_method>  (1) 
confgen

>  <s_i_glide_gridfile>  (1) 
gpcr_5ht2c_6bqh_protein_autoprepared_prepared

>  <s_lp_Force_Field>  (1) 
S-OPLS

>  <s_lp_Variant>  (1) 
DiffSBDD_58-2

>  <s_m_source_file>  (1) 
generated_GPCR_5HT2C_ligand_DiffSBDD_2026-06-23_prepared.sdf

>  <GenAI_Model>  (1) 
DiffSBDD

>  <Protein>  (1) 
GPCR_5HT2C

$$$$
DiffSBDD_93
     RDKit          3D

  0  0  0  0  0  0  0  0  0  0999 V3000
M  V30 BEGIN CTAB
M  V30 COUNTS 83 84 0 0 1
M  V30 BEGIN ATOM
M  V30 1 C 36.366804 30.519948 59.142443 0
M  V30 2 O 35.645139 29.337845 58.967734 0
M  V30 3 C 37.910002 26.323937 53.685087 0
M  V30 4 C 41.074868 36.123713 63.543071 0
M  V30 5 O 39.549610 30.975794 60.784198 0
M  V30 6 C 37.641166 36.937754 63.678666 0
M  V30 7 N 38.323062 36.937787 64.824412 0
M  V30 8 O 36.444969 36.667714 63.618409 0
M  V30 9 O 38.769581 31.773084 57.175381 0
M  V30 10 C 41.157739 35.745747 65.022867 0
M  V30 11 C 38.631035 27.305452 54.586144 0
M  V30 12 C 37.641959 32.433762 60.817248 0
M  V30 13 C 38.483187 29.195060 58.942589 0
M  V30 14 C 39.095355 36.051672 61.749790 0 CFG=2
M  V30 15 C 38.418671 37.316030 62.412090 0 CFG=1
M  V30 16 C 38.141055 25.521010 55.961121 0 CFG=1
M  V30 17 C 38.879349 27.626390 57.018641 0 CFG=1
M  V30 18 C 40.425566 27.605050 56.944063 0
M  V30 19 C 38.647037 33.541422 61.131024 0
M  V30 20 S 38.683793 30.346923 56.258877 0 CHG=1
M  V30 21 O 36.144822 35.123480 59.706668 0
M  V30 22 N 37.768708 30.327518 59.536838 0
M  V30 23 O 37.245503 30.568408 55.368016 0
M  V30 24 O 36.445363 24.537512 54.442119 0
M  V30 25 F 36.445204 25.738041 57.602992 0
M  V30 26 C 42.325854 35.494158 64.127535 0
M  V30 27 C 37.535231 35.351397 59.778626 0
M  V30 28 C 38.075761 34.985679 61.184012 0 CFG=2
M  V30 29 C 38.398725 31.170468 60.386107 0
M  V30 30 C 37.473380 38.219213 61.539995 0
M  V30 31 C 38.208567 24.354441 58.165844 0
M  V30 32 C 38.253361 28.977064 57.417179 0 CFG=2
M  V30 33 O 38.045132 38.936756 59.354639 0
M  V30 34 C 40.134477 35.326290 62.676534 0
M  V30 35 C 37.308097 24.875070 57.085804 0 CFG=2
M  V30 36 C 38.180288 39.170614 60.567984 0
M  V30 37 C 37.742241 25.071392 54.563185 0 CFG=1
M  V30 38 O 38.845228 40.110169 61.055897 0 CHG=-1
M  V30 39 N 38.166198 26.977427 55.916886 0
M  V30 40 H 35.755842 31.154705 59.785190 0
M  V30 41 H 36.445131 30.939742 58.167781 0
M  V30 42 H 34.932177 29.516004 58.368103 0
M  V30 43 H 36.942270 26.735070 53.390444 0
M  V30 44 H 38.493563 26.140831 52.787797 0
M  V30 45 H 41.224289 37.143120 63.209400 0
M  V30 46 H 39.306299 37.171393 64.825703 0
M  V30 47 H 37.854086 36.707435 65.688610 0
M  V30 48 H 37.877770 32.024612 57.370828 0
M  V30 49 H 41.242074 36.537808 65.760753 0
M  V30 50 H 40.622380 34.864135 65.373734 0
M  V30 51 H 38.422446 28.335191 54.303162 0
M  V30 52 H 39.703835 27.132850 54.501110 0
M  V30 53 H 37.020978 32.789393 60.001476 0
M  V30 54 H 36.992599 32.228879 61.668738 0
M  V30 55 H 38.167593 28.316452 59.505521 0
M  V30 56 H 39.557691 29.267696 59.105182 0
M  V30 57 H 39.693560 36.428297 60.926235 0
M  V30 58 H 39.240954 37.962413 62.725375 0
M  V30 59 H 39.172202 25.180797 56.072755 0
M  V30 60 H 38.653650 27.019430 57.884656 0
M  V30 61 H 40.875501 27.902166 57.890110 0
M  V30 62 H 40.803011 26.604517 56.729347 0
M  V30 63 H 40.816881 28.273541 56.178068 0
M  V30 64 H 39.054009 33.203961 62.079433 0
M  V30 65 H 39.472273 33.529955 60.414408 0
M  V30 66 H 35.711462 35.760248 60.253713 0
M  V30 67 H 36.596019 30.968728 55.946008 0
M  V30 68 H 36.439729 23.659471 54.789870 0
M  V30 69 H 42.551626 34.458203 63.885261 0
M  V30 70 H 43.188383 36.137730 64.270336 0
M  V30 71 H 37.741020 36.380636 59.495355 0
M  V30 72 H 37.999844 34.726236 59.015558 0
M  V30 73 H 37.234886 34.936402 61.872062 0
M  V30 74 H 36.750672 37.619787 60.989273 0
M  V30 75 H 36.844643 38.854528 62.167771 0
M  V30 76 H 38.872525 23.586414 57.767694 0
M  V30 77 H 38.830419 25.147441 58.567730 0
M  V30 78 H 37.645088 23.908401 58.969362 0
M  V30 79 H 37.194368 28.832191 57.252038 0
M  V30 80 H 39.593720 34.686498 63.367455 0
M  V30 81 H 40.767641 34.682403 62.067873 0
M  V30 82 H 36.724393 24.017909 56.755105 0
M  V30 83 H 38.429351 24.273361 54.305083 0
M  V30 END ATOM
M  V30 BEGIN BOND
M  V30 1 1 2 1
M  V30 2 1 7 6
M  V30 3 2 8 6
M  V30 4 1 10 4
M  V30 5 1 11 3
M  V30 6 1 15 6
M  V30 7 1 15 14
M  V30 8 1 18 17
M  V30 9 1 19 12
M  V30 10 1 20 9
M  V30 11 1 22 1
M  V30 12 1 22 13
M  V30 13 1 23 20
M  V30 14 1 26 4
M  V30 15 1 26 10
M  V30 16 1 27 21
M  V30 17 1 28 14
M  V30 18 1 28 19
M  V30 19 1 28 27
M  V30 20 2 29 5
M  V30 21 1 29 12
M  V30 22 1 29 22
M  V30 23 1 30 15
M  V30 24 1 32 13
M  V30 25 1 32 17
M  V30 26 1 32 20
M  V30 27 1 34 4
M  V30 28 1 34 14
M  V30 29 1 35 16
M  V30 30 1 35 25
M  V30 31 1 35 31
M  V30 32 1 36 30
M  V30 33 2 36 33
M  V30 34 1 37 3
M  V30 35 1 37 16
M  V30 36 1 37 24
M  V30 37 1 38 36
M  V30 38 1 39 11
M  V30 39 1 39 16
M  V30 40 1 39 17
M  V30 41 1 40 1
M  V30 42 1 41 1
M  V30 43 1 42 2
M  V30 44 1 43 3
M  V30 45 1 44 3
M  V30 46 1 45 4
M  V30 47 1 46 7
M  V30 48 1 47 7
M  V30 49 1 48 9
M  V30 50 1 49 10
M  V30 51 1 50 10
M  V30 52 1 51 11
M  V30 53 1 52 11
M  V30 54 1 53 12
M  V30 55 1 54 12
M  V30 56 1 55 13
M  V30 57 1 56 13
M  V30 58 1 14 57 CFG=3
M  V30 59 1 15 58 CFG=1
M  V30 60 1 16 59 CFG=1
M  V30 61 1 17 60 CFG=1
M  V30 62 1 61 18
M  V30 63 1 62 18
M  V30 64 1 63 18
M  V30 65 1 64 19
M  V30 66 1 65 19
M  V30 67 1 66 21
M  V30 68 1 67 23
M  V30 69 1 68 24
M  V30 70 1 69 26
M  V30 71 1 70 26
M  V30 72 1 71 27
M  V30 73 1 72 27
M  V30 74 1 28 73 CFG=1
M  V30 75 1 74 30
M  V30 76 1 75 30
M  V30 77 1 76 31
M  V30 78 1 77 31
M  V30 79 1 78 31
M  V30 80 1 32 79 CFG=1
M  V30 81 1 80 34
M  V30 82 1 81 34
M  V30 83 1 35 82 CFG=3
M  V30 84 1 37 83 CFG=3
M  V30 END BOND
M  V30 END CTAB
M  END
>  <i_epik_Tot_Q>  (1) 
0

>  <i_epik_Tot_abs_Q>  (1) 
2

>  <i_i_glide_confnum>  (1) 
454

>  <i_i_glide_lignum>  (1) 
216

>  <i_i_glide_posenum>  (1) 
32

>  <i_i_glide_rotatable_bonds>  (1) 
24

>  <i_lp_mmshare_version>  (1) 
72125

>  <i_m_source_file_index>  (1) 
94

>  <i_f3d_flags>  (1) 
0

>  <num_sample>  (1) 
100

>  <b_lp_Chiralities_Consistent>  (1) 
1

>  <r_epik_Charging_Adjusted_Penalty>  (1) 
0.37121505818338452

>  <r_epik_Ionization_Penalty>  (1) 
0.37121789513022985

>  <r_epik_Ionization_Penalty_Charging>  (1) 
0.00098257200063165957

>  <r_epik_Ionization_Penalty_Neutral>  (1) 
0.37023532312959817

>  <r_epik_State_Penalty>  (1) 
0.37023248618275284

>  <r_glide_ring_energy>  (1) 
0

>  <r_i_docking_score>  (1) 
-4.6591657463343648

>  <r_i_glide_ecoul>  (1) 
-12.058583392116841

>  <r_i_glide_eff_state_penalty>  (1) 
0.37023248618275284

>  <r_i_glide_einternal>  (1) 
32.237591201762925

>  <r_i_glide_emodel>  (1) 
-24.013654290389916

>  <r_i_glide_emodel_strain>  (1) 
11.855228844983259

>  <r_i_glide_energy>  (1) 
-33.068061343593868

>  <r_i_glide_erotb>  (1) 
0.82577533054746977

>  <r_i_glide_esite>  (1) 
-0.13074994152706831

>  <r_i_glide_evdw>  (1) 
-21.009477951477024

>  <r_i_glide_gscore>  (1) 
-5.029398232517118

>  <r_i_glide_gscore_strain>  (1) 
1.9638072112458147

>  <r_i_glide_hbond>  (1) 
-0.32000000000000001

>  <r_i_glide_ligand_efficiency>  (1) 
-0.11946578836754781

>  <r_i_glide_ligand_efficiency_ln>  (1) 
-0.99905739429885532

>  <r_i_glide_ligand_efficiency_sa>  (1) 
-0.40513374856073692

>  <r_i_glide_lipo>  (1) 
-3.4942429324312978

>  <r_i_glide_metal>  (1) 
-0

>  <r_i_glide_rewards>  (1) 
-1.0147264939606595

>  <r_lp_Energy>  (1) 
12.407411999999999

>  <s_epik_Chemistry_Notes>  (1) 
This compound contains an acetal/aminal-like group ( X-CH(R)-Y where X, Y are N, S, or O) that may be acid/base labile, releasing an aldehyde.

>  <s_epik_cmdline>  (1) 
J2VwaWtfcHl0aG9uJywgJy1waHQnLCAnMS4wJywgJy1waCcsICc3LjQnLCAnLXRuJywgJzgnLCAnLW1hJywgJzUwMCcsICctaW1hZScsICc8aW5maWxlLm1hZT4nLCAnLW9tYWUnLCAnPG91dGZpbGUubWFlPic=

>  <s_epik_input>  (1) 
W0NIMl0xW0NIMl1bQ0hdMVtDSDJdW0NAQEhdKFtDQEBIXShDKD1PKVtOSDJdKVtDSDJdQyg9TylbT0hdKVtDQEBIXShbQ0gyXVtPSF0pW0NIMl1bQ0gyXUMoPU8pTihbQ0gyXVtPSF0pW0NIMl1bQ0BASF0oW1MrXShbT0hdKVtPSF0pW0NASF0oW0NIM10pTjJbQ0gyXVtDSDJdW0NASF0oW09IXSlbQ0BASF0yW0NASF0oRilbQ0gzXQ==

>  <s_glide_docking_method>  (1) 
confgen

>  <s_i_glide_gridfile>  (1) 
gpcr_5ht2c_6bqh_protein_autoprepared_prepared

>  <s_lp_Force_Field>  (1) 
S-OPLS

>  <s_lp_Variant>  (1) 
DiffSBDD_93-4

>  <s_m_source_file>  (1) 
generated_GPCR_5HT2C_ligand_DiffSBDD_2026-06-23_prepared.sdf

>  <GenAI_Model>  (1) 
DiffSBDD

>  <Protein>  (1) 
GPCR_5HT2C

$$$$
DiffSBDD_19
     RDKit          3D

  0  0  0  0  0  0  0  0  0  0999 V3000
M  V30 BEGIN CTAB
M  V30 COUNTS 25 25 0 0 1
M  V30 BEGIN ATOM
M  V30 1 C 38.453339 31.009663 57.190882 0
M  V30 2 C 39.628190 29.856317 52.364237 0
M  V30 3 C 39.467567 30.161308 53.863333 0
M  V30 4 S 39.406987 28.573746 56.179573 0
M  V30 5 C 39.380967 27.596257 50.757443 0
M  V30 6 C 38.763386 27.782072 53.576833 0
M  V30 7 C 38.735123 28.977503 54.541661 0 CFG=2
M  V30 8 O 37.645137 31.648258 58.156016 0
M  V30 9 S 38.445162 28.537754 51.978269 0 CHG=1
M  V30 10 C 38.274032 29.487081 57.276193 0
M  V30 11 H 39.493576 31.278185 57.367652 0
M  V30 12 H 38.179659 31.388857 56.207137 0
M  V30 13 H 39.519785 30.729360 51.722483 0
M  V30 14 H 40.636445 29.488022 52.183292 0
M  V30 15 H 40.445228 30.340379 54.312516 0
M  V30 16 H 38.892457 31.078156 53.996664 0
M  V30 17 H 39.123241 26.537841 50.785731 0
M  V30 18 H 40.445139 27.734682 50.916390 0
M  V30 19 H 39.153757 27.990446 49.767769 0
M  V30 20 H 38.014641 27.025509 53.813715 0
M  V30 21 H 39.739685 27.300658 53.571430 0
M  V30 22 H 37.687592 29.254454 54.672145 0
M  V30 23 H 36.755928 31.737738 57.792207 0
M  V30 24 H 38.471888 29.158271 58.296913 0
M  V30 25 H 37.244966 29.207460 57.051785 0
M  V30 END ATOM
M  V30 BEGIN BOND
M  V30 1 1 3 2
M  V30 2 1 7 3
M  V30 3 1 7 4
M  V30 4 1 7 6
M  V30 5 1 8 1
M  V30 6 1 9 2
M  V30 7 1 9 5 CFG=3
M  V30 8 1 9 6
M  V30 9 1 10 1
M  V30 10 1 10 4
M  V30 11 1 11 1
M  V30 12 1 12 1
M  V30 13 1 13 2
M  V30 14 1 14 2
M  V30 15 1 15 3
M  V30 16 1 16 3
M  V30 17 1 17 5
M  V30 18 1 18 5
M  V30 19 1 19 5
M  V30 20 1 20 6
M  V30 21 1 21 6
M  V30 22 1 7 22 CFG=1
M  V30 23 1 23 8
M  V30 24 1 24 10
M  V30 25 1 25 10
M  V30 END BOND
M  V30 END CTAB
M  END
>  <i_epik_Tot_Q>  (1) 
1

>  <i_epik_Tot_abs_Q>  (1) 
1

>  <i_i_glide_confnum>  (1) 
16

>  <i_i_glide_lignum>  (1) 
46

>  <i_i_glide_posenum>  (1) 
216

>  <i_i_glide_rotatable_bonds>  (1) 
4

>  <i_lp_mmshare_version>  (1) 
72125

>  <i_m_source_file_index>  (1) 
20

>  <i_f3d_flags>  (1) 
0

>  <num_sample>  (1) 
100

>  <b_lp_Chiralities_Consistent>  (1) 
1

>  <r_epik_Charging_Adjusted_Penalty>  (1) 
0

>  <r_epik_Ionization_Penalty>  (1) 
5.2104904894925419e-08

>  <r_epik_Ionization_Penalty_Charging>  (1) 
0

>  <r_epik_Ionization_Penalty_Neutral>  (1) 
5.2104904894925419e-08

>  <r_epik_State_Penalty>  (1) 
-0

>  <r_glide_ring_energy>  (1) 
0

>  <r_i_docking_score>  (1) 
-4.657687332484854

>  <r_i_glide_ecoul>  (1) 
-5.3565771799414827

>  <r_i_glide_eff_state_penalty>  (1) 
-0

>  <r_i_glide_einternal>  (1) 
4.7753492185988042

>  <r_i_glide_emodel>  (1) 
-26.376206885916403

>  <r_i_glide_emodel_strain>  (1) 
0.3222594363336615

>  <r_i_glide_energy>  (1) 
-20.174160619198087

>  <r_i_glide_erotb>  (1) 
1.467360054184516

>  <r_i_glide_esite>  (1) 
0

>  <r_i_glide_evdw>  (1) 
-14.817583439256603

>  <r_i_glide_gscore>  (1) 
-4.657687332484854

>  <r_i_glide_gscore_strain>  (1) 
0

>  <r_i_glide_hbond>  (1) 
-0.16

>  <r_i_glide_ligand_efficiency>  (1) 
-0.46576873324848539

>  <r_i_glide_ligand_efficiency_ln>  (1) 
-1.4103156168074096

>  <r_i_glide_ligand_efficiency_sa>  (1) 
-1.0034683164427438

>  <r_i_glide_lipo>  (1) 
-1.5665998112720299

>  <r_i_glide_metal>  (1) 
-0

>  <r_i_glide_rewards>  (1) 
-2.8540818264432866

>  <r_lp_Energy>  (1) 
6.6492299999999993

>  <r_lp_tautomer_probability>  (1) 
1

>  <s_epik_cmdline>  (1) 
J2VwaWtfcHl0aG9uJywgJy1waHQnLCAnMS4wJywgJy1waCcsICc3LjQnLCAnLXRuJywgJzgnLCAnLW1hJywgJzUwMCcsICctaW1hZScsICc8aW5maWxlLm1hZT4nLCAnLW9tYWUnLCAnPG91dGZpbGUubWFlPic=

>  <s_epik_input>  (1) 
W09IXVtDSDJdW0NIMl1TW0NASF0xW0NIMl1bQ0gyXVtTK10oW0NIM10pW0NIMl0x

>  <s_glide_docking_method>  (1) 
confgen

>  <s_i_glide_gridfile>  (1) 
gpcr_5ht2c_6bqh_protein_autoprepared_prepared

>  <s_lp_Force_Field>  (1) 
S-OPLS

>  <s_lp_Variant>  (1) 
DiffSBDD_19-1

>  <s_m_source_file>  (1) 
generated_GPCR_5HT2C_ligand_DiffSBDD_2026-06-23_prepared.sdf

>  <GenAI_Model>  (1) 
DiffSBDD

>  <Protein>  (1) 
GPCR_5HT2C

$$$$
DiffSBDD_67
     RDKit          3D

  0  0  0  0  0  0  0  0  0  0999 V3000
M  V30 BEGIN CTAB
M  V30 COUNTS 77 78 0 0 1
M  V30 BEGIN ATOM
M  V30 1 C 39.937307 28.603447 59.661247 0
M  V30 2 O 36.445115 35.340891 60.824035 0
M  V30 3 O 35.196142 31.324551 61.367860 0 CHG=-1
M  V30 4 C 40.285486 27.522357 58.643392 0 CFG=1
M  V30 5 O 42.515661 26.545903 58.567630 0
M  V30 6 C 37.444436 35.057597 60.179254 0
M  V30 7 C 39.355205 27.469017 57.361255 0 CFG=1
M  V30 8 C 40.039800 28.324408 61.036508 0
M  V30 9 C 42.459725 28.833545 57.985847 0
M  V30 10 C 40.100756 27.250095 56.036809 0
M  V30 11 N 39.369492 28.167000 52.496786 0 CFG=2 CHG=1
M  V30 12 C 38.956699 32.323314 59.730946 0
M  V30 13 C 39.913695 29.171996 50.583281 0
M  V30 14 C 37.245988 24.162071 58.003973 0
M  V30 15 C 39.767700 29.323934 61.982217 0
M  V30 16 C 37.320109 26.352189 56.107882 0
M  V30 17 C 38.419466 25.122266 58.022574 0
M  V30 18 C 39.290223 30.900979 60.186609 0
M  V30 19 C 37.594211 32.653570 59.099686 0 CFG=2
M  V30 20 C 38.918839 27.280126 51.423622 0
M  V30 21 C 40.445122 29.060010 51.954182 0
M  V30 22 C 38.845199 28.195573 50.267583 0
M  V30 23 C 39.577730 24.366337 57.368493 0
M  V30 24 O 36.967663 32.497029 61.777631 0
M  V30 25 O 40.321705 29.998519 49.772014 0
M  V30 26 C 39.648814 28.201989 54.947860 0
M  V30 27 C 39.641757 27.362134 53.677494 0
M  V30 28 C 36.196353 31.931092 60.980123 0
M  V30 29 C 38.820567 35.575875 60.601548 0
M  V30 30 C 37.356945 34.173884 58.919655 0
M  V30 31 C 38.116214 26.506932 57.429563 0 CFG=1
M  V30 32 C 39.549928 29.894511 59.238279 0
M  V30 33 N 36.448347 31.970253 59.676004 0
M  V30 34 C 41.831153 27.543330 58.418271 0
M  V30 35 C 39.397406 30.609865 61.561666 0
M  V30 36 H 40.134910 26.597110 59.184885 0
M  V30 37 H 38.880554 28.441071 57.259440 0
M  V30 38 H 40.339551 27.341528 61.367344 0
M  V30 39 H 42.109941 29.688133 58.567660 0
M  V30 40 H 43.544228 28.766117 58.044032 0
M  V30 41 H 42.235453 28.937756 56.928570 0
M  V30 42 H 41.178284 27.335264 56.063778 0
M  V30 43 H 39.966425 26.221369 55.719465 0
M  V30 44 H 39.156171 32.941060 60.599643 0
M  V30 45 H 39.645086 32.675297 58.983745 0
M  V30 46 H 36.915541 23.897309 56.997314 0
M  V30 47 H 37.563748 23.239308 58.490391 0
M  V30 48 H 36.419613 24.588574 58.550250 0
M  V30 49 H 39.854676 29.106502 63.035480 0
M  V30 50 H 37.769849 25.625115 55.431036 0
M  V30 51 H 36.306669 26.005150 56.294634 0
M  V30 52 H 37.244894 27.279974 55.558241 0
M  V30 53 H 38.623070 25.337335 59.066780 0
M  V30 54 H 37.632092 32.235767 58.093573 0
M  V30 55 H 39.625064 26.471765 51.242284 0
M  V30 56 H 37.945811 26.862084 51.659361 0
M  V30 57 H 40.523957 30.018059 52.469231 0
M  V30 58 H 41.405943 28.574927 51.767069 0
M  V30 59 H 37.921245 28.677200 50.499342 0
M  V30 60 H 38.845239 27.643263 49.367777 0
M  V30 61 H 39.450104 24.232894 56.292718 0
M  V30 62 H 40.507531 24.877594 57.583412 0
M  V30 63 H 39.644972 23.353756 57.767754 0
M  V30 64 H 38.670860 28.652570 55.099439 0
M  V30 65 H 40.327700 29.056499 54.959826 0
M  V30 66 H 40.522135 26.743604 53.536056 0
M  V30 67 H 38.828578 26.639518 53.763304 0
M  V30 68 H 39.448575 35.856511 59.768286 0
M  V30 69 H 38.678095 36.458934 61.221608 0
M  V30 70 H 39.356412 34.853724 61.211110 0
M  V30 71 H 38.044037 34.536690 58.159032 0
M  V30 72 H 36.368146 34.321449 58.490523 0
M  V30 73 H 37.421087 26.989006 58.118504 0
M  V30 74 H 39.489556 30.130811 58.187590 0
M  V30 75 H 35.804265 31.516966 59.040067 0
M  V30 76 H 39.206649 31.381057 62.295655 0
M  V30 77 H 38.582492 28.763083 52.717385 0
M  V30 END ATOM
M  V30 BEGIN BOND
M  V30 1 1 4 1
M  V30 2 2 6 2
M  V30 3 1 7 4
M  V30 4 2 8 1
M  V30 5 1 10 7
M  V30 6 1 15 8
M  V30 7 1 17 14
M  V30 8 1 18 12
M  V30 9 1 19 12
M  V30 10 1 20 11
M  V30 11 1 21 11
M  V30 12 1 21 13
M  V30 13 1 22 13
M  V30 14 1 22 20
M  V30 15 1 23 17
M  V30 16 2 25 13
M  V30 17 1 26 10
M  V30 18 1 27 11
M  V30 19 1 27 26
M  V30 20 1 28 3
M  V30 21 2 28 24
M  V30 22 1 29 6
M  V30 23 1 30 6
M  V30 24 1 30 19
M  V30 25 1 31 7
M  V30 26 1 31 16
M  V30 27 1 31 17
M  V30 28 1 32 1
M  V30 29 2 32 18
M  V30 30 1 33 19
M  V30 31 1 33 28
M  V30 32 1 34 4
M  V30 33 2 34 5
M  V30 34 1 34 9
M  V30 35 2 35 15
M  V30 36 1 35 18
M  V30 37 1 4 36 CFG=1
M  V30 38 1 7 37 CFG=3
M  V30 39 1 38 8
M  V30 40 1 39 9
M  V30 41 1 40 9
M  V30 42 1 41 9
M  V30 43 1 42 10
M  V30 44 1 43 10
M  V30 45 1 44 12
M  V30 46 1 45 12
M  V30 47 1 46 14
M  V30 48 1 47 14
M  V30 49 1 48 14
M  V30 50 1 49 15
M  V30 51 1 50 16
M  V30 52 1 51 16
M  V30 53 1 52 16
M  V30 54 1 53 17
M  V30 55 1 19 54 CFG=3
M  V30 56 1 55 20
M  V30 57 1 56 20
M  V30 58 1 57 21
M  V30 59 1 58 21
M  V30 60 1 59 22
M  V30 61 1 60 22
M  V30 62 1 61 23
M  V30 63 1 62 23
M  V30 64 1 63 23
M  V30 65 1 64 26
M  V30 66 1 65 26
M  V30 67 1 66 27
M  V30 68 1 67 27
M  V30 69 1 68 29
M  V30 70 1 69 29
M  V30 71 1 70 29
M  V30 72 1 71 30
M  V30 73 1 72 30
M  V30 74 1 31 73 CFG=1
M  V30 75 1 74 32
M  V30 76 1 75 33
M  V30 77 1 76 35
M  V30 78 1 11 77 CFG=1
M  V30 END BOND
M  V30 END CTAB
M  END
>  <i_epik_Tot_Q>  (1) 
0

>  <i_epik_Tot_abs_Q>  (1) 
2

>  <i_i_glide_confnum>  (1) 
384

>  <i_i_glide_lignum>  (1) 
149

>  <i_i_glide_posenum>  (1) 
22

>  <i_i_glide_rotatable_bonds>  (1) 
15

>  <i_lp_mmshare_version>  (1) 
72125

>  <i_m_source_file_index>  (1) 
68

>  <i_f3d_flags>  (1) 
0

>  <num_sample>  (1) 
100

>  <b_lp_Chiralities_Consistent>  (1) 
1

>  <r_epik_Charging_Adjusted_Penalty>  (1) 
0.5296149838886226

>  <r_epik_Ionization_Penalty>  (1) 
0.26529925199373078

>  <r_epik_Ionization_Penalty_Charging>  (1) 
0.26525061984488274

>  <r_epik_Ionization_Penalty_Neutral>  (1) 
4.8632148848023016e-05

>  <r_epik_State_Penalty>  (1) 
0.26436436404373981

>  <r_glide_ring_energy>  (1) 
0

>  <r_i_docking_score>  (1) 
-4.651633931509493

>  <r_i_glide_ecoul>  (1) 
-4.2195493968753475

>  <r_i_glide_eff_state_penalty>  (1) 
0.26436436404373981

>  <r_i_glide_einternal>  (1) 
18.510858894381833

>  <r_i_glide_emodel>  (1) 
-11.465000555779955

>  <r_i_glide_emodel_strain>  (1) 
5.6572143554784446

>  <r_i_glide_energy>  (1) 
-9.979141205703641

>  <r_i_glide_erotb>  (1) 
0.8581402996549512

>  <r_i_glide_esite>  (1) 
-0.14195963979149018

>  <r_i_glide_evdw>  (1) 
-5.7595918088282927

>  <r_i_glide_gscore>  (1) 
-4.9159982955532326

>  <r_i_glide_gscore_strain>  (1) 
0.41430358886961116

>  <r_i_glide_hbond>  (1) 
-0.20447691169227813

>  <r_i_glide_ligand_efficiency>  (1) 
-0.13290382661455694

>  <r_i_glide_ligand_efficiency_ln>  (1) 
-1.0211368854191569

>  <r_i_glide_ligand_efficiency_sa>  (1) 
-0.43473722973402296

>  <r_i_glide_lipo>  (1) 
-3.7173293485243257

>  <r_i_glide_metal>  (1) 
-0

>  <r_i_glide_rewards>  (1) 
-1.2037642840969838

>  <r_lp_Energy>  (1) 
28.989404

>  <r_lp_tautomer_probability>  (1) 
0.99994994000300153

>  <s_epik_cmdline>  (1) 
J2VwaWtfcHl0aG9uJywgJy1waHQnLCAnMS4wJywgJy1waCcsICc3LjQnLCAnLXRuJywgJzgnLCAnLW1hJywgJzUwMCcsICctaW1hZScsICc8aW5maWxlLm1hZT4nLCAnLW9tYWUnLCAnPG91dGZpbGUubWFlPic=

>  <s_epik_input>  (1) 
Tz1DKFtDSDNdKVtDSDJdW0NASF0oW05IXUMoPU8pW09IXSlbQ0gyXWMoW2NIXTEpW2NIXVtjSF1bY0hdYzFbQ0BIXShDKD1PKVtDSDNdKVtDQEhdKFtDQEBIXShbQ0gzXSlbQ0hdKFtDSDNdKVtDSDNdKVtDSDJdW0NIMl1bQ0gyXU4yW0NIMl1bQ0gyXUMoPU8pW0NIMl0y

>  <s_glide_docking_method>  (1) 
confgen

>  <s_i_glide_gridfile>  (1) 
gpcr_5ht2c_6bqh_protein_autoprepared_prepared

>  <s_lp_Force_Field>  (1) 
S-OPLS

>  <s_lp_Variant>  (1) 
DiffSBDD_67-1

>  <s_m_source_file>  (1) 
generated_GPCR_5HT2C_ligand_DiffSBDD_2026-06-23_prepared.sdf

>  <GenAI_Model>  (1) 
DiffSBDD

>  <Protein>  (1) 
GPCR_5HT2C

$$$$
DiffSBDD_49
     RDKit          3D

  0  0  0  0  0  0  0  0  0  0999 V3000
M  V30 BEGIN CTAB
M  V30 COUNTS 75 80 0 0 1
M  V30 BEGIN ATOM
M  V30 1 N 38.838568 27.763067 56.887523 0 CHG=1
M  V30 2 C 37.763428 30.469481 56.217007 0
M  V30 3 C 38.327045 31.322414 58.392809 0 CFG=2
M  V30 4 O 39.426510 26.688773 58.731784 0
M  V30 5 C 37.928983 29.992941 57.663602 0 CFG=2
M  V30 6 C 43.024130 30.311490 64.612243 0 CFG=1
M  V30 7 O 41.555338 30.444277 66.561829 0
M  V30 8 O 37.425923 29.698783 55.318377 0
M  V30 9 C 38.045311 31.898167 55.966972 0 CFG=2
M  V30 10 C 44.354300 28.109866 64.229364 0
M  V30 11 C 42.192198 29.365937 67.246926 0
M  V30 12 C 39.059356 26.612877 57.452379 0
M  V30 13 C 37.608308 30.818886 60.852542 0
M  V30 14 C 40.438872 28.614381 59.938488 0
M  V30 15 C 39.423708 32.410388 56.168046 0
M  V30 16 C 42.393327 31.230969 65.708876 0 CFG=1
M  V30 17 C 39.265615 28.104449 59.068196 0 CFG=1
M  V30 18 F 44.831624 29.548306 65.915845 0
M  V30 19 C 36.150994 32.315019 59.461024 0
M  V30 20 C 42.845144 28.385366 66.259185 0
M  V30 21 N 38.953640 25.402996 56.889680 0
M  V30 22 C 40.078462 28.964517 61.406664 0
M  V30 23 C 38.661352 31.050838 61.955152 0
M  V30 24 C 40.103154 30.494653 61.766701 0 CFG=1
M  V30 25 C 43.427422 32.017497 66.556934 0
M  V30 26 C 41.093958 30.944984 62.930661 0 CFG=2
M  V30 27 C 43.766608 29.100039 65.252525 0 CFG=1
M  V30 28 C 41.969530 29.837603 63.566417 0
M  V30 29 C 40.445459 31.722505 64.098777 0
M  V30 30 C 41.487060 32.294758 65.061380 0
M  V30 31 C 39.054077 28.913730 57.718313 0 CFG=1
M  V30 32 C 37.583913 31.813582 59.674818 0 CFG=2
M  V30 33 C 38.445385 32.423729 57.325280 0 CFG=2
M  V30 34 H 39.302810 31.135465 58.784526 0
M  V30 35 H 36.976332 29.609395 58.029225 0
M  V30 36 H 43.758646 30.905106 64.069257 0
M  V30 37 H 37.319449 32.485556 55.408550 0
M  V30 38 H 43.577564 27.566728 63.689731 0
M  V30 39 H 44.976908 28.621471 63.495123 0
M  V30 40 H 44.974808 27.363139 64.724724 0
M  V30 41 H 42.918907 29.735565 67.969284 0
M  V30 42 H 41.433248 28.842899 67.829836 0
M  V30 43 H 36.649837 30.894969 61.366636 0
M  V30 44 H 37.609254 29.803383 60.492984 0
M  V30 45 H 40.937710 29.451182 59.452759 0
M  V30 46 H 41.205060 27.838017 59.953460 0
M  V30 47 H 40.221099 31.675254 56.147870 0
M  V30 48 H 39.645325 33.366347 55.705545 0
M  V30 49 H 38.340097 28.109156 59.631021 0
M  V30 50 H 35.487324 31.494146 59.186771 0
M  V30 51 H 35.751083 32.771462 60.366885 0
M  V30 52 H 36.093524 33.073392 58.680794 0
M  V30 53 H 43.404650 27.629221 66.810979 0
M  V30 54 H 42.059689 27.846158 65.730550 0
M  V30 55 H 38.679142 25.314706 55.922267 0
M  V30 56 H 39.153821 24.576333 57.434220 0
M  V30 57 H 40.751170 28.372907 62.016172 0
M  V30 58 H 39.119805 28.530194 61.684162 0
M  V30 59 H 38.685778 32.126244 62.116831 0
M  V30 60 H 38.266469 30.612718 62.872754 0
M  V30 61 H 40.477555 31.015718 60.886522 0
M  V30 62 H 44.055749 32.647661 65.927381 0
M  V30 63 H 42.924629 32.671146 67.270775 0
M  V30 64 H 44.096199 31.391704 67.141691 0
M  V30 65 H 41.789408 31.643538 62.461669 0
M  V30 66 H 41.307766 29.106976 64.031787 0
M  V30 67 H 42.504250 29.327030 62.769255 0
M  V30 68 H 39.878148 32.580768 63.747271 0
M  V30 69 H 39.755884 31.074975 64.643969 0
M  V30 70 H 42.099834 33.014569 64.516414 0
M  V30 71 H 40.974646 32.864395 65.837855 0
M  V30 72 H 39.999128 29.347293 57.389885 0
M  V30 73 H 38.129003 32.700457 60.002746 0
M  V30 74 H 38.084980 33.409398 57.610944 0
M  V30 75 H 38.548227 27.861718 55.922326 0
M  V30 END ATOM
M  V30 BEGIN BOND
M  V30 1 1 5 2
M  V30 2 1 5 3
M  V30 3 2 8 2
M  V30 4 1 9 2
M  V30 5 1 11 7
M  V30 6 2 12 1
M  V30 7 1 12 4
M  V30 8 1 15 9
M  V30 9 1 16 6
M  V30 10 1 16 7
M  V30 11 1 17 4
M  V30 12 1 17 14
M  V30 13 1 20 11
M  V30 14 1 21 12
M  V30 15 1 22 14
M  V30 16 1 23 13
M  V30 17 1 24 22
M  V30 18 1 24 23
M  V30 19 1 16 25 CFG=1
M  V30 20 1 26 24
M  V30 21 1 27 6
M  V30 22 1 27 10
M  V30 23 1 27 18 CFG=1
M  V30 24 1 27 20
M  V30 25 1 28 6
M  V30 26 1 28 26
M  V30 27 1 29 26
M  V30 28 1 30 16
M  V30 29 1 30 29
M  V30 30 1 31 1
M  V30 31 1 31 5
M  V30 32 1 31 17
M  V30 33 1 32 3
M  V30 34 1 32 13
M  V30 35 1 32 19
M  V30 36 1 33 3
M  V30 37 1 33 9
M  V30 38 1 33 15
M  V30 39 1 3 34 CFG=1
M  V30 40 1 5 35 CFG=1
M  V30 41 1 6 36 CFG=3
M  V30 42 1 9 37 CFG=3
M  V30 43 1 38 10
M  V30 44 1 39 10
M  V30 45 1 40 10
M  V30 46 1 41 11
M  V30 47 1 42 11
M  V30 48 1 43 13
M  V30 49 1 44 13
M  V30 50 1 45 14
M  V30 51 1 46 14
M  V30 52 1 47 15
M  V30 53 1 48 15
M  V30 54 1 17 49 CFG=1
M  V30 55 1 50 19
M  V30 56 1 51 19
M  V30 57 1 52 19
M  V30 58 1 53 20
M  V30 59 1 54 20
M  V30 60 1 55 21
M  V30 61 1 56 21
M  V30 62 1 57 22
M  V30 63 1 58 22
M  V30 64 1 59 23
M  V30 65 1 60 23
M  V30 66 1 24 61 CFG=3
M  V30 67 1 62 25
M  V30 68 1 63 25
M  V30 69 1 64 25
M  V30 70 1 26 65 CFG=3
M  V30 71 1 66 28
M  V30 72 1 67 28
M  V30 73 1 68 29
M  V30 74 1 69 29
M  V30 75 1 70 30
M  V30 76 1 71 30
M  V30 77 1 31 72 CFG=3
M  V30 78 1 32 73 CFG=1
M  V30 79 1 33 74 CFG=1
M  V30 80 1 75 1
M  V30 END BOND
M  V30 END CTAB
M  END
>  <i_epik_Tot_Q>  (1) 
1

>  <i_epik_Tot_abs_Q>  (1) 
1

>  <i_i_glide_confnum>  (1) 
4

>  <i_i_glide_lignum>  (1) 
102

>  <i_i_glide_posenum>  (1) 
241

>  <i_i_glide_rotatable_bonds>  (1) 
1

>  <i_lp_mmshare_version>  (1) 
72125

>  <i_m_source_file_index>  (1) 
50

>  <i_f3d_flags>  (1) 
0

>  <num_sample>  (1) 
100

>  <b_lp_Chiralities_Consistent>  (1) 
1

>  <r_epik_Charging_Adjusted_Penalty>  (1) 
0.054352883593996412

>  <r_epik_Ionization_Penalty>  (1) 
0.020131263556531623

>  <r_epik_Ionization_Penalty_Charging>  (1) 
0.012484738498558263

>  <r_epik_Ionization_Penalty_Neutral>  (1) 
0.0076465250579733583

>  <r_epik_State_Penalty>  (1) 
0.041868145095438146

>  <r_glide_ring_energy>  (1) 
0

>  <r_i_docking_score>  (1) 
-4.6515982261116768

>  <r_i_glide_ecoul>  (1) 
-0.56929510840292696

>  <r_i_glide_eff_state_penalty>  (1) 
0.041868145095438146

>  <r_i_glide_einternal>  (1) 
34.634672323928022

>  <r_i_glide_emodel>  (1) 
-17.426253009401361

>  <r_i_glide_emodel_strain>  (1) 
6.5527451849601164

>  <r_i_glide_energy>  (1) 
-39.272209561668582

>  <r_i_glide_erotb>  (1) 
0.094491925132231133

>  <r_i_glide_esite>  (1) 
-0.097453392318779961

>  <r_i_glide_evdw>  (1) 
-38.702914453265656

>  <r_i_glide_gscore>  (1) 
-4.6934663712071147

>  <r_i_glide_gscore_strain>  (1) 
0.63818629624002909

>  <r_i_glide_hbond>  (1) 
0

>  <r_i_glide_ligand_efficiency>  (1) 
-0.14095752200338416

>  <r_i_glide_ligand_efficiency_ln>  (1) 
-1.0344913608006068

>  <r_i_glide_ligand_efficiency_sa>  (1) 
-0.45212609089699679

>  <r_i_glide_lipo>  (1) 
-2.1237749016066712

>  <r_i_glide_metal>  (1) 
-0

>  <r_i_glide_rewards>  (1) 
-1.1843763097302022

>  <r_lp_Energy>  (1) 
45.880542999999996

>  <s_epik_Chemistry_Notes>  (1) 
This compound has an imine and may undergo hydrolysis.

>  <s_epik_cmdline>  (1) 
J2VwaWtfcHl0aG9uJywgJy1waHQnLCAnMS4wJywgJy1waCcsICc3LjQnLCAnLXRuJywgJzgnLCAnLW1hJywgJzUwMCcsICctaW1hZScsICc8aW5maWxlLm1hZT4nLCAnLW9tYWUnLCAnPG91dGZpbGUubWFlPic=

>  <s_epik_input>  (1) 
W0NIMl0xW0NASF0yW0NAQEhdMUMoPU8pW0NASF0oW0NAQEhdMjMpW0NASF00W0NAQEhdKE9DKD1ONClbTkgyXSlbQ0gyXVtDSDJdW0NAQEhdKFtDSDJdW0NIMl1bQ0BASF0zW0NIM10pW0NAQEhdKFtDSDJdW0NIMl01KVtDSDJdW0NAQEhdKFtDQEBdNTZbQ0gzXSlbQ0BdKEYpKFtDSDNdKVtDSDJdW0NIMl1PNg==

>  <s_glide_docking_method>  (1) 
confgen

>  <s_i_glide_gridfile>  (1) 
gpcr_5ht2c_6bqh_protein_autoprepared_prepared

>  <s_lp_Force_Field>  (1) 
S-OPLS

>  <s_lp_Variant>  (1) 
DiffSBDD_49-1

>  <s_m_source_file>  (1) 
generated_GPCR_5HT2C_ligand_DiffSBDD_2026-06-23_prepared.sdf

>  <GenAI_Model>  (1) 
DiffSBDD

>  <Protein>  (1) 
GPCR_5HT2C

$$$$
DiffSBDD_57
     RDKit          3D

  0  0  0  0  0  0  0  0  0  0999 V3000
M  V30 BEGIN CTAB
M  V30 COUNTS 64 66 0 0 1
M  V30 BEGIN ATOM
M  V30 1 O 38.467746 36.485918 60.559015 0
M  V30 2 C 37.271949 33.244032 57.962743 0
M  V30 3 C 37.610828 36.829216 64.811520 0
M  V30 4 C 36.603230 33.657455 60.316167 0 CFG=2
M  V30 5 C 38.634754 29.290059 58.244181 0
M  V30 6 S 38.844559 33.337695 58.853618 0
M  V30 7 O 38.823630 28.203158 58.796151 0
M  V30 8 C 36.135448 33.076179 58.982986 0
M  V30 9 N 38.726540 25.444564 57.479747 0
M  V30 10 C 39.491806 36.702752 63.051964 0 CFG=2
M  V30 11 N 38.410829 30.435232 58.924040 0
M  V30 12 C 37.456156 36.029942 61.043926 0
M  V30 13 O 40.437041 36.143063 63.988214 0
M  V30 14 C 36.526022 35.211022 60.150483 0
M  V30 15 C 38.176950 31.635129 61.032152 0
M  V30 16 C 39.306638 26.934291 55.698005 0 CFG=2
M  V30 17 O 41.227349 35.641031 61.853050 0
M  V30 18 C 38.347250 30.484920 60.320808 0
M  V30 19 C 38.191262 26.084608 56.286267 0 CFG=1
M  V30 20 C 38.049334 33.066336 60.447738 0 CFG=2
M  V30 21 C 35.667769 33.260097 61.466645 0
M  V30 22 C 39.529895 28.414405 55.961018 0 CFG=2
M  V30 23 C 38.023378 36.581504 63.410750 0
M  V30 24 C 38.632801 29.390845 56.704613 0 CFG=2
M  V30 25 C 39.007257 27.951585 54.619719 0
M  V30 26 N 40.123482 35.419259 62.748894 0
M  V30 27 N 38.568972 36.937773 65.803228 0
M  V30 28 C 37.733102 25.015517 55.271655 0
M  V30 29 O 37.245115 25.641891 54.115419 0
M  V30 30 O 37.645358 24.686698 58.072810 0
M  V30 31 C 36.304456 36.937757 65.142426 0
M  V30 32 C 37.082050 36.237820 62.463238 0
M  V30 33 Cl 39.122845 31.008055 56.126693 0
M  V30 34 H 37.255960 32.430322 57.250556 0
M  V30 35 H 37.154849 34.140540 57.369147 0
M  V30 36 H 35.926716 32.013254 59.105586 0
M  V30 37 H 35.211770 33.541297 58.633109 0
M  V30 38 H 38.948405 26.123660 58.202309 0
M  V30 39 H 39.802233 37.616249 62.546514 0
M  V30 40 H 38.281450 31.303364 58.419516 0
M  V30 41 H 35.504315 35.563391 60.167634 0
M  V30 42 H 36.837963 35.474176 59.141154 0
M  V30 43 H 38.130744 31.570771 62.109608 0
M  V30 44 H 40.214710 26.358935 55.528230 0
M  V30 45 H 41.911510 35.870069 62.463290 0
M  V30 46 H 38.445167 29.519132 60.792214 0
M  V30 47 H 37.351896 26.724198 56.563633 0
M  V30 48 H 38.630176 33.654648 61.155825 0
M  V30 49 H 35.624786 32.182984 61.626678 0
M  V30 50 H 35.989749 33.737734 62.388360 0
M  V30 51 H 34.649547 33.592556 61.273821 0
M  V30 52 H 40.579131 28.700819 55.995275 0
M  V30 53 H 37.598568 29.249421 56.385618 0
M  V30 54 H 37.964802 28.161615 54.395665 0
M  V30 55 H 39.645173 27.978614 53.746107 0
M  V30 56 H 39.559426 36.861531 65.597977 0
M  V30 57 H 38.555555 24.356312 54.991073 0
M  V30 58 H 36.929148 24.389999 55.661932 0
M  V30 59 H 36.516837 26.193610 54.353977 0
M  V30 60 H 38.016984 23.816556 58.117043 0
M  V30 61 H 36.012473 37.108485 66.166771 0
M  V30 62 H 35.518999 36.865099 64.415142 0
M  V30 63 H 36.049183 36.103285 62.724709 0
M  V30 64 H 38.321315 37.102800 66.770881 0
M  V30 END ATOM
M  V30 BEGIN BOND
M  V30 1 1 6 2
M  V30 2 2 7 5
M  V30 3 1 8 2
M  V30 4 1 8 4
M  V30 5 1 11 5
M  V30 6 2 12 1
M  V30 7 1 13 10
M  V30 8 1 4 14 CFG=3
M  V30 9 1 14 12
M  V30 10 1 18 11
M  V30 11 2 18 15
M  V30 12 1 19 9
M  V30 13 1 19 16
M  V30 14 1 20 4
M  V30 15 1 20 6
M  V30 16 1 20 15
M  V30 17 1 21 4
M  V30 18 1 22 16
M  V30 19 1 23 3
M  V30 20 1 23 10
M  V30 21 1 24 5
M  V30 22 1 24 22
M  V30 23 1 25 16
M  V30 24 1 25 22
M  V30 25 1 26 10
M  V30 26 1 26 13
M  V30 27 1 26 17
M  V30 28 1 27 3
M  V30 29 1 28 19
M  V30 30 1 29 28
M  V30 31 1 30 9
M  V30 32 2 31 3
M  V30 33 1 32 12
M  V30 34 2 32 23
M  V30 35 1 33 24
M  V30 36 1 34 2
M  V30 37 1 35 2
M  V30 38 1 36 8
M  V30 39 1 37 8
M  V30 40 1 38 9
M  V30 41 1 10 39 CFG=3
M  V30 42 1 40 11
M  V30 43 1 41 14
M  V30 44 1 42 14
M  V30 45 1 43 15
M  V30 46 1 16 44 CFG=3
M  V30 47 1 45 17
M  V30 48 1 46 18
M  V30 49 1 19 47 CFG=1
M  V30 50 1 20 48 CFG=1
M  V30 51 1 49 21
M  V30 52 1 50 21
M  V30 53 1 51 21
M  V30 54 1 22 52 CFG=3
M  V30 55 1 24 53 CFG=3
M  V30 56 1 54 25
M  V30 57 1 55 25
M  V30 58 1 56 27
M  V30 59 1 57 28
M  V30 60 1 58 28
M  V30 61 1 59 29
M  V30 62 1 60 30
M  V30 63 1 61 31
M  V30 64 1 62 31
M  V30 65 1 63 32
M  V30 66 1 64 27
M  V30 END BOND
M  V30 END CTAB
M  END
>  <i_epik_Tot_Q>  (1) 
0

>  <i_epik_Tot_abs_Q>  (1) 
0

>  <i_i_glide_confnum>  (1) 
1014

>  <i_i_glide_lignum>  (1) 
125

>  <i_i_glide_posenum>  (1) 
233

>  <i_i_glide_rotatable_bonds>  (1) 
16

>  <i_lp_mmshare_version>  (1) 
72125

>  <i_m_source_file_index>  (1) 
58

>  <i_f3d_flags>  (1) 
0

>  <num_sample>  (1) 
100

>  <b_lp_Chiralities_Consistent>  (1) 
1

>  <r_epik_Charging_Adjusted_Penalty>  (1) 
0.024416195549470061

>  <r_epik_Ionization_Penalty>  (1) 
0.014246986074461085

>  <r_epik_Ionization_Penalty_Charging>  (1) 
6.6592516266621022e-05

>  <r_epik_Ionization_Penalty_Neutral>  (1) 
0.014180393558194464

>  <r_epik_State_Penalty>  (1) 
0.024349603033203441

>  <r_glide_ring_energy>  (1) 
0.20506540225093017

>  <r_i_docking_score>  (1) 
-4.6470013591480948

>  <r_i_glide_ecoul>  (1) 
-2.7481287311468034

>  <r_i_glide_eff_state_penalty>  (1) 
0.024349603033203441

>  <r_i_glide_einternal>  (1) 
33.27172950013555

>  <r_i_glide_emodel>  (1) 
-33.345072986946121

>  <r_i_glide_emodel_strain>  (1) 
1.566179750691191

>  <r_i_glide_energy>  (1) 
-37.823396841569966

>  <r_i_glide_erotb>  (1) 
1.0500022235395752

>  <r_i_glide_esite>  (1) 
-0.053901524745826282

>  <r_i_glide_evdw>  (1) 
-35.07526811042316

>  <r_i_glide_gscore>  (1) 
-4.6713509621812985

>  <r_i_glide_gscore_strain>  (1) 
0

>  <r_i_glide_hbond>  (1) 
-0.055852575561011399

>  <r_i_glide_ligand_efficiency>  (1) 
-0.14081822300448771

>  <r_i_glide_ligand_efficiency_ln>  (1) 
-1.0334690413892094

>  <r_i_glide_ligand_efficiency_sa>  (1) 
-0.45167928457590245

>  <r_i_glide_lipo>  (1) 
-1.9647565499698438

>  <r_i_glide_metal>  (1) 
-0

>  <r_i_glide_rewards>  (1) 
-1.4808598202510144

>  <r_lp_Energy>  (1) 
21.778162999999999

>  <s_epik_Chemistry_Notes>  (1) 
This compound has an imine and may undergo hydrolysis. This compound contains an acetal/aminal-like group ( X-CH(R)-Y where X, Y are N, S, or O) that may be acid/base labile, releasing an aldehyde. This compound has a N-S or N-O group and may undergo hydrolysis at high or low pH.

>  <s_epik_cmdline>  (1) 
J2VwaWtfcHl0aG9uJywgJy1waHQnLCAnMS4wJywgJy1waCcsICc3LjQnLCAnLXRuJywgJzgnLCAnLW1hJywgJzUwMCcsICctaW1hZScsICc8aW5maWxlLm1hZT4nLCAnLW9tYWUnLCAnPG91dGZpbGUubWFlPic=

>  <s_epik_input>  (1) 
W09IXU4xT1tDQEBIXTFDKC9DKD1OL1tIXSlbQ0gzXSk9W0NIXVxDKD1PKVtDSDJdW0NAQF0yKFtDSDNdKVtDSDJdW0NIMl1TW0NAQEhdMi9bQ0hdPVtDSF1cW05IXUMoPU8pW0NAQEhdKENsKVtDQEhdKFtDSDJdMylbQ0BIXTNbQ0BIXShbTkhdW09IXSlbQ0gyXVtPSF0=

>  <s_glide_docking_method>  (1) 
confgen

>  <s_i_glide_gridfile>  (1) 
gpcr_5ht2c_6bqh_protein_autoprepared_prepared

>  <s_lp_Force_Field>  (1) 
S-OPLS

>  <s_lp_Variant>  (1) 
DiffSBDD_57-1

>  <s_m_source_file>  (1) 
generated_GPCR_5HT2C_ligand_DiffSBDD_2026-06-23_prepared.sdf

>  <GenAI_Model>  (1) 
DiffSBDD

>  <Protein>  (1) 
GPCR_5HT2C

$$$$
DiffSBDD_19
     RDKit          3D

  0  0  0  0  0  0  0  0  0  0999 V3000
M  V30 BEGIN CTAB
M  V30 COUNTS 25 25 0 0 1
M  V30 BEGIN ATOM
M  V30 1 C 38.090802 31.663081 55.343898 0
M  V30 2 C 39.025001 28.049303 51.175026 0
M  V30 3 C 38.942663 27.514955 52.600435 0
M  V30 4 S 37.449720 29.214819 54.167326 0
M  V30 5 C 39.861835 30.492733 50.017964 0
M  V30 6 C 39.813142 29.874180 52.832096 0
M  V30 7 C 39.080795 28.719654 53.561655 0 CFG=2
M  V30 8 O 38.045103 32.404767 56.540052 0
M  V30 9 S 40.372665 29.241712 51.227426 0 CHG=1
M  V30 10 C 37.789065 30.192158 55.656923 0
M  V30 11 H 39.072276 31.778839 54.884208 0
M  V30 12 H 37.348235 32.072731 54.657125 0
M  V30 13 H 39.188965 27.273623 50.425437 0
M  V30 14 H 38.091593 28.558345 50.946137 0
M  V30 15 H 38.021382 26.952279 52.764829 0
M  V30 16 H 39.762798 26.814780 52.767888 0
M  V30 17 H 40.538370 31.344420 50.056569 0
M  V30 18 H 38.845144 30.846645 50.168135 0
M  V30 19 H 39.913992 30.058219 49.020412 0
M  V30 20 H 40.644050 30.257624 53.422730 0
M  V30 21 H 39.160199 30.724227 52.666562 0
M  V30 22 H 39.639630 28.400989 54.439781 0
M  V30 23 H 37.129875 32.402014 56.823585 0
M  V30 24 H 38.588271 29.733170 56.238311 0
M  V30 25 H 36.885961 30.135860 56.266742 0
M  V30 END ATOM
M  V30 BEGIN BOND
M  V30 1 1 3 2
M  V30 2 1 7 3
M  V30 3 1 7 4
M  V30 4 1 7 6
M  V30 5 1 8 1
M  V30 6 1 9 2
M  V30 7 1 9 5 CFG=3
M  V30 8 1 9 6
M  V30 9 1 10 1
M  V30 10 1 10 4
M  V30 11 1 11 1
M  V30 12 1 12 1
M  V30 13 1 13 2
M  V30 14 1 14 2
M  V30 15 1 15 3
M  V30 16 1 16 3
M  V30 17 1 17 5
M  V30 18 1 18 5
M  V30 19 1 19 5
M  V30 20 1 20 6
M  V30 21 1 21 6
M  V30 22 1 7 22 CFG=1
M  V30 23 1 23 8
M  V30 24 1 24 10
M  V30 25 1 25 10
M  V30 END BOND
M  V30 END CTAB
M  END
>  <i_epik_Tot_Q>  (1) 
1

>  <i_epik_Tot_abs_Q>  (1) 
1

>  <i_i_glide_confnum>  (1) 
14

>  <i_i_glide_lignum>  (1) 
46

>  <i_i_glide_posenum>  (1) 
331

>  <i_i_glide_rotatable_bonds>  (1) 
4

>  <i_lp_mmshare_version>  (1) 
72125

>  <i_m_source_file_index>  (1) 
20

>  <i_f3d_flags>  (1) 
0

>  <num_sample>  (1) 
100

>  <b_lp_Chiralities_Consistent>  (1) 
1

>  <r_epik_Charging_Adjusted_Penalty>  (1) 
0

>  <r_epik_Ionization_Penalty>  (1) 
5.2104904894925419e-08

>  <r_epik_Ionization_Penalty_Charging>  (1) 
0

>  <r_epik_Ionization_Penalty_Neutral>  (1) 
5.2104904894925419e-08

>  <r_epik_State_Penalty>  (1) 
-0

>  <r_glide_ring_energy>  (1) 
0

>  <r_i_docking_score>  (1) 
-4.6399485863380452

>  <r_i_glide_ecoul>  (1) 
-4.876338842448245

>  <r_i_glide_eff_state_penalty>  (1) 
-0

>  <r_i_glide_einternal>  (1) 
1.810761576955348

>  <r_i_glide_emodel>  (1) 
-29.661727328135935

>  <r_i_glide_emodel_strain>  (1) 
0

>  <r_i_glide_energy>  (1) 
-21.689068974019072

>  <r_i_glide_erotb>  (1) 
1.467360054184516

>  <r_i_glide_esite>  (1) 
0

>  <r_i_glide_evdw>  (1) 
-16.812730131570827

>  <r_i_glide_gscore>  (1) 
-4.6399485863380452

>  <r_i_glide_gscore_strain>  (1) 
0

>  <r_i_glide_hbond>  (1) 
-0.16

>  <r_i_glide_ligand_efficiency>  (1) 
-0.46399485863380452

>  <r_i_glide_ligand_efficiency_ln>  (1) 
-1.4049444467550651

>  <r_i_glide_ligand_efficiency_sa>  (1) 
-0.99964661943710842

>  <r_i_glide_lipo>  (1) 
-1.5221341863646614

>  <r_i_glide_metal>  (1) 
-0

>  <r_i_glide_rewards>  (1) 
-2.8530871212121216

>  <r_lp_Energy>  (1) 
6.6492299999999993

>  <r_lp_tautomer_probability>  (1) 
1

>  <s_epik_cmdline>  (1) 
J2VwaWtfcHl0aG9uJywgJy1waHQnLCAnMS4wJywgJy1waCcsICc3LjQnLCAnLXRuJywgJzgnLCAnLW1hJywgJzUwMCcsICctaW1hZScsICc8aW5maWxlLm1hZT4nLCAnLW9tYWUnLCAnPG91dGZpbGUubWFlPic=

>  <s_epik_input>  (1) 
W09IXVtDSDJdW0NIMl1TW0NASF0xW0NIMl1bQ0gyXVtTK10oW0NIM10pW0NIMl0x

>  <s_glide_docking_method>  (1) 
confgen

>  <s_i_glide_gridfile>  (1) 
gpcr_5ht2c_6bqh_protein_autoprepared_prepared

>  <s_lp_Force_Field>  (1) 
S-OPLS

>  <s_lp_Variant>  (1) 
DiffSBDD_19-1

>  <s_m_source_file>  (1) 
generated_GPCR_5HT2C_ligand_DiffSBDD_2026-06-23_prepared.sdf

>  <GenAI_Model>  (1) 
DiffSBDD

>  <Protein>  (1) 
GPCR_5HT2C

$$$$
DiffSBDD_43
     RDKit          3D

  0  0  0  0  0  0  0  0  0  0999 V3000
M  V30 BEGIN CTAB
M  V30 COUNTS 83 85 0 0 1
M  V30 BEGIN ATOM
M  V30 1 C 38.066280 27.777988 54.654227 0
M  V30 2 C 41.054256 31.803372 65.433423 0
M  V30 3 C 40.670298 35.825506 62.602014 0
M  V30 4 C 36.683660 31.839926 59.687642 0 CFG=2
M  V30 5 C 39.113345 31.979773 60.809280 0 CFG=2
M  V30 6 O 38.162435 38.708070 60.967624 0
M  V30 7 O 40.113973 30.897825 63.409644 0
M  V30 8 N 39.641521 28.335597 52.167789 0 CHG=1
M  V30 9 C 39.790576 36.808872 62.106127 0
M  V30 10 C 41.957163 31.545470 66.645447 0
M  V30 11 C 36.314822 30.349783 59.482196 0
M  V30 12 C 39.147964 31.571918 55.140367 0
M  V30 13 N 36.576422 37.171449 60.169797 0
M  V30 14 C 38.556207 36.428674 61.518799 0
M  V30 15 C 41.127296 30.689315 64.384986 0
M  V30 16 N 37.664071 37.398909 61.009357 0
M  V30 17 C 38.189714 32.250008 59.588276 0 CFG=1
M  V30 18 O 40.397108 28.816891 62.414640 0
M  V30 19 C 39.331882 26.921127 52.489946 0 CFG=1
M  V30 20 C 39.136367 30.504842 61.262091 0
M  V30 21 C 38.833948 29.356745 52.872432 0
M  V30 22 C 38.976663 32.606821 56.287075 0 CFG=1
M  V30 23 C 40.319688 34.463250 62.527872 0
M  V30 24 O 38.788046 31.658155 58.443488 0
M  V30 25 C 38.443300 33.951701 55.802395 0
M  V30 26 C 38.815158 29.105321 54.391519 0 CFG=1
M  V30 27 O 36.092569 32.260888 60.901250 0
M  V30 28 C 40.308227 30.209819 62.215152 0 CFG=1
M  V30 29 C 38.213050 35.061319 61.449502 0
M  V30 30 N 36.862713 30.538808 55.011462 0 CHG=1
M  V30 31 C 40.059312 26.357555 53.709334 0
M  V30 32 C 38.295259 30.276245 55.257954 0 CFG=2
M  V30 33 O 38.046132 32.139848 57.237450 0
M  V30 34 C 38.578216 26.643473 53.778760 0 CFG=1
M  V30 35 O 38.725035 32.759174 61.931759 0
M  V30 36 O 36.951405 29.735621 58.385666 0
M  V30 37 C 39.088775 34.081296 61.958452 0
M  V30 38 H 38.158422 27.483272 55.700243 0
M  V30 39 H 37.001032 27.887547 54.455265 0
M  V30 40 H 41.327986 32.750969 64.970348 0
M  V30 41 H 40.026476 31.911472 65.770049 0
M  V30 42 H 41.612761 36.118274 63.045916 0
M  V30 43 H 36.156185 32.416366 58.933665 0
M  V30 44 H 40.129233 32.269212 60.536166 0
M  V30 45 H 38.658106 38.763705 60.165118 0
M  V30 46 H 40.618245 28.496831 52.361986 0
M  V30 47 H 40.063129 37.848907 62.175368 0
M  V30 48 H 41.926949 32.392850 67.331443 0
M  V30 49 H 41.631685 30.660716 67.194869 0
M  V30 50 H 42.994662 31.395521 66.343482 0
M  V30 51 H 36.535496 29.764356 60.367105 0
M  V30 52 H 35.245137 30.273655 59.299152 0
M  V30 53 H 38.970463 32.051415 54.176345 0
M  V30 54 H 40.201831 31.298263 55.109858 0
M  V30 55 H 35.999869 36.430213 60.565614 0
M  V30 56 H 36.019363 38.024574 60.120655 0
M  V30 57 H 40.974456 29.716347 64.852980 0
M  V30 58 H 42.118445 30.680230 63.928205 0
M  V30 59 H 38.220048 33.322959 59.401718 0
M  V30 60 H 39.655739 28.554795 62.946485 0
M  V30 61 H 39.245790 26.284659 51.614434 0
M  V30 62 H 38.205520 30.234250 61.761181 0
M  V30 63 H 39.251816 29.860589 60.389332 0
M  V30 64 H 37.816829 29.332823 52.480626 0
M  V30 65 H 39.245697 30.336365 52.630211 0
M  V30 66 H 39.936118 32.793839 56.770921 0
M  V30 67 H 40.988705 33.711081 62.919030 0
M  V30 68 H 39.242118 34.544295 55.367753 0
M  V30 69 H 37.644856 33.822581 55.074982 0
M  V30 70 H 38.045044 34.535974 56.631230 0
M  V30 71 H 39.846440 28.974887 54.715635 0
M  V30 72 H 35.154733 32.269415 60.781740 0
M  V30 73 H 41.245129 30.533289 61.761461 0
M  V30 74 H 37.268821 34.762510 61.019854 0
M  V30 75 H 36.720926 30.998950 54.127073 0
M  V30 76 H 36.334788 29.682559 55.058176 0
M  V30 77 H 40.616888 26.937674 54.433524 0
M  V30 78 H 40.425415 25.337747 53.631647 0
M  V30 79 H 38.385902 29.917442 56.280901 0
M  V30 80 H 37.937018 25.763337 53.787782 0
M  V30 81 H 37.776130 30.189667 58.265741 0
M  V30 82 H 36.494541 31.147513 55.749819 0
M  V30 83 H 39.505322 28.460962 51.173272 0
M  V30 END ATOM
M  V30 BEGIN BOND
M  V30 1 1 9 3
M  V30 2 1 10 2
M  V30 3 1 11 4
M  V30 4 2 14 9
M  V30 5 1 15 2
M  V30 6 1 15 7
M  V30 7 1 16 6
M  V30 8 1 16 13
M  V30 9 1 16 14
M  V30 10 1 17 4
M  V30 11 1 17 5
M  V30 12 1 19 8
M  V30 13 1 20 5
M  V30 14 1 21 8
M  V30 15 1 22 12
M  V30 16 2 23 3
M  V30 17 1 24 17
M  V30 18 1 25 22
M  V30 19 1 26 1
M  V30 20 1 26 21
M  V30 21 1 27 4
M  V30 22 1 28 7
M  V30 23 1 28 18
M  V30 24 1 28 20
M  V30 25 1 29 14
M  V30 26 1 31 19
M  V30 27 1 32 12
M  V30 28 1 32 26
M  V30 29 1 32 30
M  V30 30 1 33 22
M  V30 31 1 33 24
M  V30 32 1 34 1
M  V30 33 1 34 19
M  V30 34 1 34 31
M  V30 35 1 35 5
M  V30 36 1 36 11
M  V30 37 1 37 23
M  V30 38 2 37 29
M  V30 39 1 37 35
M  V30 40 1 38 1
M  V30 41 1 39 1
M  V30 42 1 40 2
M  V30 43 1 41 2
M  V30 44 1 42 3
M  V30 45 1 4 43 CFG=3
M  V30 46 1 5 44 CFG=3
M  V30 47 1 45 6
M  V30 48 1 46 8
M  V30 49 1 47 9
M  V30 50 1 48 10
M  V30 51 1 49 10
M  V30 52 1 50 10
M  V30 53 1 51 11
M  V30 54 1 52 11
M  V30 55 1 53 12
M  V30 56 1 54 12
M  V30 57 1 55 13
M  V30 58 1 56 13
M  V30 59 1 57 15
M  V30 60 1 58 15
M  V30 61 1 17 59 CFG=3
M  V30 62 1 60 18
M  V30 63 1 19 61 CFG=3
M  V30 64 1 62 20
M  V30 65 1 63 20
M  V30 66 1 64 21
M  V30 67 1 65 21
M  V30 68 1 22 66 CFG=1
M  V30 69 1 67 23
M  V30 70 1 68 25
M  V30 71 1 69 25
M  V30 72 1 70 25
M  V30 73 1 26 71 CFG=1
M  V30 74 1 72 27
M  V30 75 1 28 73 CFG=3
M  V30 76 1 74 29
M  V30 77 1 75 30
M  V30 78 1 76 30
M  V30 79 1 77 31
M  V30 80 1 78 31
M  V30 81 1 32 79 CFG=1
M  V30 82 1 34 80 CFG=3
M  V30 83 1 81 36
M  V30 84 1 82 30
M  V30 85 1 83 8
M  V30 END BOND
M  V30 END CTAB
M  END
>  <i_epik_Tot_Q>  (1) 
2

>  <i_epik_Tot_abs_Q>  (1) 
2

>  <i_i_glide_confnum>  (1) 
11019

>  <i_i_glide_lignum>  (1) 
95

>  <i_i_glide_posenum>  (1) 
152

>  <i_i_glide_rotatable_bonds>  (1) 
21

>  <i_lp_mmshare_version>  (1) 
72125

>  <i_m_source_file_index>  (1) 
44

>  <i_f3d_flags>  (1) 
0

>  <num_sample>  (1) 
100

>  <b_lp_Chiralities_Consistent>  (1) 
1

>  <r_epik_Charging_Adjusted_Penalty>  (1) 
0.054628322637716921

>  <r_epik_Ionization_Penalty>  (1) 
0.057286365922034427

>  <r_epik_Ionization_Penalty_Charging>  (1) 
0.054628322637716921

>  <r_epik_Ionization_Penalty_Neutral>  (1) 
0.0026580432843175059

>  <r_epik_State_Penalty>  (1) 
-0

>  <r_glide_ring_energy>  (1) 
0

>  <r_i_docking_score>  (1) 
-4.6387617056661075

>  <r_i_glide_ecoul>  (1) 
-3.8973895400867615

>  <r_i_glide_eff_state_penalty>  (1) 
-0

>  <r_i_glide_einternal>  (1) 
32.794821709164623

>  <r_i_glide_emodel>  (1) 
-47.297751442885563

>  <r_i_glide_emodel_strain>  (1) 
4.629536307660544

>  <r_i_glide_energy>  (1) 
-48.304481739501142

>  <r_i_glide_erotb>  (1) 
1.0980815572756908

>  <r_i_glide_esite>  (1) 
-0.25372832450907418

>  <r_i_glide_evdw>  (1) 
-44.407092199414379

>  <r_i_glide_gscore>  (1) 
-4.6387617056661075

>  <r_i_glide_gscore_strain>  (1) 
0.15738407691513601

>  <r_i_glide_hbond>  (1) 
-0.74178925541249741

>  <r_i_glide_ligand_efficiency>  (1) 
-0.12537193799097587

>  <r_i_glide_ligand_efficiency_ln>  (1) 
-1.0060386659553251

>  <r_i_glide_ligand_efficiency_sa>  (1) 
-0.41776711135673134

>  <r_i_glide_lipo>  (1) 
-3.4187065591088843

>  <r_i_glide_metal>  (1) 
-0

>  <r_i_glide_rewards>  (1) 
1.3249598401572538

>  <r_lp_Energy>  (1) 
48.925089999999997

>  <r_lp_tautomer_probability>  (1) 
1

>  <s_epik_Chemistry_Notes>  (1) 
This compound contains an acetal/aminal-like group ( X-CH(R)-Y where X, Y are N, S, or O) that may be acid/base labile, releasing an aldehyde. This compound has a N-S or N-O group and may undergo hydrolysis at high or low pH.

>  <s_epik_cmdline>  (1) 
J2VwaWtfcHl0aG9uJywgJy1waHQnLCAnMS4wJywgJy1waCcsICc3LjQnLCAnLXRuJywgJzgnLCAnLW1hJywgJzUwMCcsICctaW1hZScsICc8aW5maWxlLm1hZT4nLCAnLW9tYWUnLCAnPG91dGZpbGUubWFlPic=

>  <s_epik_input>  (1) 
W0NASF0xMltDQEBIXShbQ0gyXTIpW0NIMl1bQ0BASF0oW0NIMl1bTkhdMSlbQ0BIXShbTkgyXSlbQ0gyXVtDQEBIXShbQ0gzXSlPT1tDQEBIXShbQ0BIXShbT0hdKVtDSDJdW09IXSlbQ0BIXShbQ0gyXVtDQEhdKFtPSF0pT1tDSDJdW0NIMl1bQ0gzXSlPYyhbY0hdMylbY0hdW2NIXVtjSF1jM04oW09IXSlbTkgyXQ==

>  <s_glide_docking_method>  (1) 
confgen

>  <s_i_glide_gridfile>  (1) 
gpcr_5ht2c_6bqh_protein_autoprepared_prepared

>  <s_lp_Force_Field>  (1) 
S-OPLS

>  <s_lp_Variant>  (1) 
DiffSBDD_43-1

>  <s_m_source_file>  (1) 
generated_GPCR_5HT2C_ligand_DiffSBDD_2026-06-23_prepared.sdf

>  <GenAI_Model>  (1) 
DiffSBDD

>  <Protein>  (1) 
GPCR_5HT2C

$$$$
DiffSBDD_54
     RDKit          3D

  0  0  0  0  0  0  0  0  0  0999 V3000
M  V30 BEGIN CTAB
M  V30 COUNTS 42 43 0 0 1
M  V30 BEGIN ATOM
M  V30 1 C 38.319480 32.220184 55.400783 0
M  V30 2 C 39.160965 27.844844 57.451980 0
M  V30 3 C 39.620062 29.263961 59.459174 0
M  V30 4 C 40.192262 29.565455 51.037288 0
M  V30 5 C 39.375683 30.297385 53.358268 0
M  V30 6 S 38.186102 30.447818 57.348257 0 CHG=1
M  V30 7 C 38.045152 32.894431 57.813615 0
M  V30 8 N 39.990845 27.131474 56.716534 0
M  V30 9 C 37.383215 29.240463 54.608965 0
M  V30 10 C 39.237565 25.970881 56.617724 0
M  V30 11 N 38.038158 25.996853 57.235073 0
M  V30 12 N 38.045104 27.227218 57.766065 0
M  V30 13 N 38.873395 30.899316 55.799316 0 CFG=1 CHG=1
M  V30 14 C 38.789458 29.850949 54.723900 0 CFG=2
M  V30 15 C 38.641901 33.272178 56.456843 0
M  V30 16 C 39.337904 29.213999 52.259066 0
M  V30 17 O 38.549461 31.622113 58.205682 0
M  V30 18 C 39.447775 29.240431 57.928903 0 CFG=2
M  V30 19 H 37.245130 32.150463 55.237515 0
M  V30 20 H 38.761299 32.576577 54.476263 0
M  V30 21 H 40.387421 28.554831 59.772698 0
M  V30 22 H 38.695202 28.995717 59.971198 0
M  V30 23 H 39.924462 30.244581 59.822361 0
M  V30 24 H 40.098954 28.797641 50.268490 0
M  V30 25 H 41.245301 29.642686 51.300915 0
M  V30 26 H 39.884329 30.513638 50.594977 0
M  V30 27 H 40.408264 30.616917 53.508697 0
M  V30 28 H 38.845753 31.160643 52.967797 0
M  V30 29 H 38.359695 33.625855 58.558768 0
M  V30 30 H 36.956541 32.937701 57.802047 0
M  V30 31 H 37.253527 28.593652 53.743922 0
M  V30 32 H 36.593185 29.992385 54.586442 0
M  V30 33 H 37.245153 28.587261 55.462081 0
M  V30 34 H 39.578252 25.097747 56.079726 0
M  V30 35 H 37.284900 27.582876 58.329591 0
M  V30 36 H 39.449780 29.045996 55.035643 0
M  V30 37 H 39.725006 33.337755 56.546580 0
M  V30 38 H 38.275018 34.249996 56.142137 0
M  V30 39 H 39.647879 28.250015 52.661326 0
M  V30 40 H 38.315468 29.071815 51.909485 0
M  V30 41 H 40.404054 29.544982 57.504755 0
M  V30 42 H 39.861254 31.072128 55.914668 0
M  V30 END ATOM
M  V30 BEGIN BOND
M  V30 1 2 8 2
M  V30 2 1 10 8
M  V30 3 2 11 10
M  V30 4 1 12 2
M  V30 5 1 12 11
M  V30 6 1 13 1
M  V30 7 1 13 6
M  V30 8 1 14 5
M  V30 9 1 14 9
M  V30 10 1 14 13
M  V30 11 1 15 1
M  V30 12 1 15 7
M  V30 13 1 16 4
M  V30 14 1 16 5
M  V30 15 1 6 17 CFG=1
M  V30 16 1 17 7
M  V30 17 1 18 2
M  V30 18 1 18 3
M  V30 19 1 18 6
M  V30 20 1 19 1
M  V30 21 1 20 1
M  V30 22 1 21 3
M  V30 23 1 22 3
M  V30 24 1 23 3
M  V30 25 1 24 4
M  V30 26 1 25 4
M  V30 27 1 26 4
M  V30 28 1 27 5
M  V30 29 1 28 5
M  V30 30 1 29 7
M  V30 31 1 30 7
M  V30 32 1 31 9
M  V30 33 1 32 9
M  V30 34 1 33 9
M  V30 35 1 34 10
M  V30 36 1 35 12
M  V30 37 1 14 36 CFG=1
M  V30 38 1 37 15
M  V30 39 1 38 15
M  V30 40 1 39 16
M  V30 41 1 40 16
M  V30 42 1 18 41 CFG=3
M  V30 43 1 13 42 CFG=1
M  V30 END BOND
M  V30 END CTAB
M  END
>  <i_epik_Tot_Q>  (1) 
2

>  <i_epik_Tot_abs_Q>  (1) 
2

>  <i_i_glide_confnum>  (1) 
48

>  <i_i_glide_lignum>  (1) 
115

>  <i_i_glide_posenum>  (1) 
336

>  <i_i_glide_rotatable_bonds>  (1) 
5

>  <i_lp_mmshare_version>  (1) 
72125

>  <i_m_source_file_index>  (1) 
55

>  <i_f3d_flags>  (1) 
0

>  <num_sample>  (1) 
100

>  <b_lp_Chiralities_Consistent>  (1) 
1

>  <r_epik_Charging_Adjusted_Penalty>  (1) 
0.22285261290592212

>  <r_epik_Ionization_Penalty>  (1) 
0.11376846567106323

>  <r_epik_Ionization_Penalty_Charging>  (1) 
0.11142630645296109

>  <r_epik_Ionization_Penalty_Neutral>  (1) 
0.0023421592181021404

>  <r_epik_State_Penalty>  (1) 
0.11142630645296105

>  <r_glide_ring_energy>  (1) 
0

>  <r_i_docking_score>  (1) 
-4.6250466126283323

>  <r_i_glide_ecoul>  (1) 
-1.6769200151928318

>  <r_i_glide_eff_state_penalty>  (1) 
0.11142630645296105

>  <r_i_glide_einternal>  (1) 
2.5628414467221261

>  <r_i_glide_emodel>  (1) 
-42.873062684304521

>  <r_i_glide_emodel_strain>  (1) 
0.68572527061390076

>  <r_i_glide_energy>  (1) 
-28.751447486146951

>  <r_i_glide_erotb>  (1) 
0.96597774364564237

>  <r_i_glide_esite>  (1) 
-0.088656298660186705

>  <r_i_glide_evdw>  (1) 
-27.07452747095412

>  <r_i_glide_gscore>  (1) 
-4.7364729190812938

>  <r_i_glide_gscore_strain>  (1) 
0

>  <r_i_glide_hbond>  (1) 
0

>  <r_i_glide_ligand_efficiency>  (1) 
-0.25694703403490737

>  <r_i_glide_ligand_efficiency_ln>  (1) 
-1.188844383121233

>  <r_i_glide_ligand_efficiency_sa>  (1) 
-0.6733917282144839

>  <r_i_glide_lipo>  (1) 
-1.5227649232497729

>  <r_i_glide_metal>  (1) 
-0

>  <r_i_glide_rewards>  (1) 
-2.4857650649903458

>  <r_lp_Energy>  (1) 
23.784423

>  <r_lp_tautomer_probability>  (1) 
0.94828448534560383

>  <s_epik_cmdline>  (1) 
J2VwaWtfcHl0aG9uJywgJy1waHQnLCAnMS4wJywgJy1waCcsICc3LjQnLCAnLXRuJywgJzgnLCAnLW1hJywgJzUwMCcsICctaW1hZScsICc8aW5maWxlLm1hZT4nLCAnLW9tYWUnLCAnPG91dGZpbGUubWFlPic=

>  <s_epik_input>  (1) 
W0NIM11bQ0gyXVtDSDJdW0NASF0oW0NIM10pTihbQ0gyXVtDSDJdW0NIMl1PMSlbUytdMVtDQEBIXShbQ0gzXSljMm5bY0hdbltuSF0y

>  <s_glide_docking_method>  (1) 
confgen

>  <s_i_glide_gridfile>  (1) 
gpcr_5ht2c_6bqh_protein_autoprepared_prepared

>  <s_lp_Force_Field>  (1) 
S-OPLS

>  <s_lp_Variant>  (1) 
DiffSBDD_54-1

>  <s_m_source_file>  (1) 
generated_GPCR_5HT2C_ligand_DiffSBDD_2026-06-23_prepared.sdf

>  <GenAI_Model>  (1) 
DiffSBDD

>  <Protein>  (1) 
GPCR_5HT2C

$$$$
DiffSBDD_36
     RDKit          3D

  0  0  0  0  0  0  0  0  0  0999 V3000
M  V30 BEGIN CTAB
M  V30 COUNTS 49 49 0 0 1
M  V30 BEGIN ATOM
M  V30 1 C 39.711864 29.239977 55.559427 0
M  V30 2 C 39.678517 26.355872 58.021158 0
M  V30 3 C 41.267882 27.974396 57.115453 0
M  V30 4 C 37.747170 26.737916 56.444302 0
M  V30 5 C 38.435335 30.972366 61.137376 0
M  V30 6 C 38.914205 27.408262 57.202979 0 CFG=1
M  V30 7 C 41.082537 26.931363 58.212034 0
M  V30 8 C 39.471211 29.641855 51.229436 0
M  V30 9 C 39.226951 29.397519 54.307935 0
M  V30 10 C 38.888572 28.263394 53.341024 0
M  V30 11 O 37.645153 31.337768 62.000098 0
M  V30 12 C 37.253727 29.007914 58.317053 0
M  V30 13 C 36.874512 30.147777 59.256838 0
M  V30 14 C 38.507892 28.551728 58.148994 0
M  V30 15 C 40.014266 27.898464 56.228784 0 CFG=1
M  V30 16 C 40.434509 29.841967 50.055736 0
M  V30 17 S 40.028306 30.297080 61.367553 0 CHG=-1
M  V30 18 C 38.006060 31.121850 59.678776 0
M  V30 19 C 39.239957 27.099278 51.136485 0
M  V30 20 C 39.645139 28.310757 51.987896 0 CFG=1
M  V30 21 H 39.908558 30.120826 56.154743 0
M  V30 22 H 39.763012 25.424247 57.459988 0
M  V30 23 H 39.191736 26.119144 58.967684 0
M  V30 24 H 42.193813 27.834158 56.567759 0
M  V30 25 H 41.335319 28.937755 57.611204 0
M  V30 26 H 38.088120 25.865006 55.886558 0
M  V30 27 H 36.961076 26.395558 57.117863 0
M  V30 28 H 37.314399 27.410768 55.706533 0
M  V30 29 H 41.839705 26.153913 58.167776 0
M  V30 30 H 41.165356 27.412776 59.187182 0
M  V30 31 H 38.445331 29.717675 50.885658 0
M  V30 32 H 39.645144 30.485595 51.893240 0
M  V30 33 H 39.052038 30.398085 53.943898 0
M  V30 34 H 39.024473 27.284694 53.792474 0
M  V30 35 H 37.818108 28.336179 53.143471 0
M  V30 36 H 36.445232 28.559648 57.767766 0
M  V30 37 H 36.111009 30.723601 58.736892 0
M  V30 38 H 36.373560 29.737728 60.131580 0
M  V30 39 H 39.308403 29.005747 58.708234 0
M  V30 40 H 40.214947 27.125868 55.488295 0
M  V30 41 H 40.281662 30.823090 49.605317 0
M  V30 42 H 41.469115 29.795178 50.393802 0
M  V30 43 H 40.288327 29.099113 49.274339 0
M  V30 44 H 38.837169 31.129424 58.972253 0
M  V30 45 H 37.603168 32.133275 59.602362 0
M  V30 46 H 38.163511 27.075006 50.967731 0
M  V30 47 H 39.737188 27.087235 50.168801 0
M  V30 48 H 39.517439 26.174115 51.639620 0
M  V30 49 H 40.705655 28.201778 52.167729 0
M  V30 END ATOM
M  V30 BEGIN BOND
M  V30 1 1 6 2
M  V30 2 1 6 4 CFG=3
M  V30 3 1 7 2
M  V30 4 1 7 3
M  V30 5 2 9 1
M  V30 6 1 10 9
M  V30 7 2 11 5
M  V30 8 1 13 12
M  V30 9 1 14 6
M  V30 10 2 14 12
M  V30 11 1 15 1
M  V30 12 1 15 3
M  V30 13 1 15 6
M  V30 14 1 16 8
M  V30 15 1 17 5
M  V30 16 1 18 5
M  V30 17 1 18 13
M  V30 18 1 20 8
M  V30 19 1 20 10
M  V30 20 1 20 19
M  V30 21 1 21 1
M  V30 22 1 22 2
M  V30 23 1 23 2
M  V30 24 1 24 3
M  V30 25 1 25 3
M  V30 26 1 26 4
M  V30 27 1 27 4
M  V30 28 1 28 4
M  V30 29 1 29 7
M  V30 30 1 30 7
M  V30 31 1 31 8
M  V30 32 1 32 8
M  V30 33 1 33 9
M  V30 34 1 34 10
M  V30 35 1 35 10
M  V30 36 1 36 12
M  V30 37 1 37 13
M  V30 38 1 38 13
M  V30 39 1 39 14
M  V30 40 1 15 40 CFG=3
M  V30 41 1 41 16
M  V30 42 1 42 16
M  V30 43 1 43 16
M  V30 44 1 44 18
M  V30 45 1 45 18
M  V30 46 1 46 19
M  V30 47 1 47 19
M  V30 48 1 48 19
M  V30 49 1 20 49 CFG=1
M  V30 END BOND
M  V30 END CTAB
M  END
>  <i_epik_Tot_Q>  (1) 
-1

>  <i_epik_Tot_abs_Q>  (1) 
1

>  <i_i_glide_confnum>  (1) 
88

>  <i_i_glide_lignum>  (1) 
81

>  <i_i_glide_posenum>  (1) 
379

>  <i_i_glide_rotatable_bonds>  (1) 
8

>  <i_lp_mmshare_version>  (1) 
72125

>  <i_m_source_file_index>  (1) 
37

>  <i_f3d_flags>  (1) 
0

>  <num_sample>  (1) 
100

>  <b_lp_Chiralities_Consistent>  (1) 
1

>  <r_epik_Charging_Adjusted_Penalty>  (1) 
9.4165288777969193e-05

>  <r_epik_Ionization_Penalty>  (1) 
9.4165288777969193e-05

>  <r_epik_Ionization_Penalty_Charging>  (1) 
9.4165288777969193e-05

>  <r_epik_Ionization_Penalty_Neutral>  (1) 
0

>  <r_epik_State_Penalty>  (1) 
-0

>  <r_glide_ring_energy>  (1) 
0

>  <r_i_docking_score>  (1) 
-4.621892124477279

>  <r_i_glide_ecoul>  (1) 
-3.0059486740979748

>  <r_i_glide_eff_state_penalty>  (1) 
-0

>  <r_i_glide_einternal>  (1) 
3.9425409601385137

>  <r_i_glide_emodel>  (1) 
-28.640907770590324

>  <r_i_glide_emodel_strain>  (1) 
1.9787572290586368

>  <r_i_glide_energy>  (1) 
-26.033347407211942

>  <r_i_glide_erotb>  (1) 
2.5456975872200465

>  <r_i_glide_esite>  (1) 
0

>  <r_i_glide_evdw>  (1) 
-23.027398733113966

>  <r_i_glide_gscore>  (1) 
-4.621892124477279

>  <r_i_glide_gscore_strain>  (1) 
0

>  <r_i_glide_hbond>  (1) 
-0.28496094411651413

>  <r_i_glide_ligand_efficiency>  (1) 
-0.23109460622386396

>  <r_i_glide_ligand_efficiency_ln>  (1) 
-1.1567071585520299

>  <r_i_glide_ligand_efficiency_sa>  (1) 
-0.62728727023411934

>  <r_i_glide_lipo>  (1) 
-3.1339662188134096

>  <r_i_glide_metal>  (1) 
-0

>  <r_i_glide_rewards>  (1) 
-2.1464003109970076

>  <r_lp_Energy>  (1) 
16.069313999999999

>  <r_lp_tautomer_probability>  (1) 
1

>  <s_epik_cmdline>  (1) 
J2VwaWtfcHl0aG9uJywgJy1waHQnLCAnMS4wJywgJy1waCcsICc3LjQnLCAnLXRuJywgJzgnLCAnLW1hJywgJzUwMCcsICctaW1hZScsICc8aW5maWxlLm1hZT4nLCAnLW9tYWUnLCAnPG91dGZpbGUubWFlPic=

>  <s_epik_input>  (1) 
W0NIM11bQ0gyXVtDQEhdKFtDSDNdKVtDSDJdL1tDSF09W0NIXVxbQ0BIXTFbQ0gyXVtDSDJdW0NIMl1bQ0BAXTEoW0NIM10pXFtDSF09W0NIXVxbQ0gyXVtDSDJdQyg9TylbU0hd

>  <s_glide_docking_method>  (1) 
confgen

>  <s_i_glide_gridfile>  (1) 
gpcr_5ht2c_6bqh_protein_autoprepared_prepared

>  <s_lp_Force_Field>  (1) 
S-OPLS

>  <s_lp_Variant>  (1) 
DiffSBDD_36-2

>  <s_m_source_file>  (1) 
generated_GPCR_5HT2C_ligand_DiffSBDD_2026-06-23_prepared.sdf

>  <GenAI_Model>  (1) 
DiffSBDD

>  <Protein>  (1) 
GPCR_5HT2C

$$$$
DiffSBDD_83
     RDKit          3D

  0  0  0  0  0  0  0  0  0  0999 V3000
M  V30 BEGIN CTAB
M  V30 COUNTS 54 55 0 0 1
M  V30 BEGIN ATOM
M  V30 1 C 39.638187 28.732153 51.031831 0
M  V30 2 C 38.325399 32.296915 58.389952 0
M  V30 3 N 38.445136 33.172193 57.390271 0
M  V30 4 O 38.543934 31.361953 62.567760 0
M  V30 5 O 40.394668 29.337756 50.081725 0
M  V30 6 C 38.440634 29.292168 53.160904 0
M  V30 7 C 37.855848 27.890201 53.302079 0
M  V30 8 C 40.541030 30.391810 62.605228 0
M  V30 9 C 42.036418 35.722994 64.033778 0
M  V30 10 C 39.247733 29.672166 52.133880 0
M  V30 11 C 38.129140 32.797078 59.789265 0
M  V30 12 C 38.863091 30.025000 55.543828 0
M  V30 13 N 38.637999 32.393958 56.317522 0
M  V30 14 O 40.045135 30.719103 49.770994 0
M  V30 15 C 39.500811 33.528660 61.888110 0 CFG=1
M  V30 16 C 40.448417 35.838969 61.288970 0
M  V30 17 C 39.265895 30.245146 62.503381 0
M  V30 18 O 39.330568 27.543351 50.984928 0
M  V30 19 C 39.621043 32.302290 62.833706 0 CFG=2
M  V30 20 C 38.445133 30.940470 57.939759 0
M  V30 21 O 40.927338 31.664376 62.752903 0
M  V30 22 C 40.704485 35.063109 63.649532 0
M  V30 23 C 40.629308 34.580408 62.173005 0 CFG=1
M  V30 24 C 38.647416 31.058867 56.598349 0
M  V30 25 Cl 41.645137 29.071636 62.567744 0
M  V30 26 C 38.057286 30.264951 54.260372 0
M  V30 27 C 39.507526 32.993120 60.434150 0
M  V30 28 H 38.753914 32.789382 55.395970 0
M  V30 29 H 37.205348 27.825201 54.174448 0
M  V30 30 H 37.245143 27.633595 52.437032 0
M  V30 31 H 38.641160 27.144471 53.429613 0
M  V30 32 H 41.983738 36.133890 65.042631 0
M  V30 33 H 42.845101 34.993567 64.029436 0
M  V30 34 H 42.311418 36.537753 63.367765 0
M  V30 35 H 39.627970 30.683215 52.098682 0
M  V30 36 H 37.576456 33.737526 59.784016 0
M  V30 37 H 37.529544 32.087079 60.357531 0
M  V30 38 H 38.619480 29.042492 55.949064 0
M  V30 39 H 39.926317 29.994909 55.302208 0
M  V30 40 H 39.320765 30.585326 49.173218 0
M  V30 41 H 38.538445 34.000462 62.091143 0
M  V30 42 H 39.507113 36.341503 61.513991 0
M  V30 43 H 41.245137 36.564854 61.441932 0
M  V30 44 H 40.445132 35.632759 60.222559 0
M  V30 45 H 38.698850 29.337755 62.381776 0
M  V30 46 H 39.501538 32.589606 63.870395 0
M  V30 47 H 38.398293 30.030611 58.518654 0
M  V30 48 H 39.880371 35.747322 63.857098 0
M  V30 49 H 40.594809 34.247953 64.356265 0
M  V30 50 H 41.583253 34.115787 61.918403 0
M  V30 51 H 38.238548 31.276877 53.895733 0
M  V30 52 H 36.986163 30.204772 54.460828 0
M  V30 53 H 40.056193 32.055789 60.380228 0
M  V30 54 H 40.045137 33.660008 59.771989 0
M  V30 END ATOM
M  V30 BEGIN BOND
M  V30 1 2 3 2
M  V30 2 1 5 1
M  V30 3 1 7 6
M  V30 4 1 10 1
M  V30 5 2 10 6
M  V30 6 1 11 2
M  V30 7 1 13 3
M  V30 8 1 14 5
M  V30 9 1 17 4
M  V30 10 2 17 8
M  V30 11 2 18 1
M  V30 12 1 19 4
M  V30 13 1 19 15
M  V30 14 1 20 2
M  V30 15 1 21 8
M  V30 16 1 21 19
M  V30 17 1 22 9
M  V30 18 1 23 15
M  V30 19 1 23 16
M  V30 20 1 23 22
M  V30 21 1 24 12
M  V30 22 1 24 13
M  V30 23 2 24 20
M  V30 24 1 25 8
M  V30 25 1 26 6
M  V30 26 1 26 12
M  V30 27 1 27 11
M  V30 28 1 27 15
M  V30 29 1 28 13
M  V30 30 1 29 7
M  V30 31 1 30 7
M  V30 32 1 31 7
M  V30 33 1 32 9
M  V30 34 1 33 9
M  V30 35 1 34 9
M  V30 36 1 35 10
M  V30 37 1 36 11
M  V30 38 1 37 11
M  V30 39 1 38 12
M  V30 40 1 39 12
M  V30 41 1 40 14
M  V30 42 1 15 41 CFG=1
M  V30 43 1 42 16
M  V30 44 1 43 16
M  V30 45 1 44 16
M  V30 46 1 45 17
M  V30 47 1 19 46 CFG=1
M  V30 48 1 47 20
M  V30 49 1 48 22
M  V30 50 1 49 22
M  V30 51 1 23 50 CFG=3
M  V30 52 1 51 26
M  V30 53 1 52 26
M  V30 54 1 53 27
M  V30 55 1 54 27
M  V30 END BOND
M  V30 END CTAB
M  END
>  <i_epik_Tot_Q>  (1) 
0

>  <i_epik_Tot_abs_Q>  (1) 
0

>  <i_i_glide_confnum>  (1) 
1826

>  <i_i_glide_lignum>  (1) 
197

>  <i_i_glide_posenum>  (1) 
328

>  <i_i_glide_rotatable_bonds>  (1) 
12

>  <i_lp_mmshare_version>  (1) 
72125

>  <i_m_source_file_index>  (1) 
84

>  <i_f3d_flags>  (1) 
0

>  <num_sample>  (1) 
100

>  <b_lp_Chiralities_Consistent>  (1) 
1

>  <r_epik_Charging_Adjusted_Penalty>  (1) 
0.41067983895260396

>  <r_epik_Ionization_Penalty>  (1) 
0.00090540554532319911

>  <r_epik_Ionization_Penalty_Charging>  (1) 
0

>  <r_epik_Ionization_Penalty_Neutral>  (1) 
0.00090540554532319911

>  <r_epik_State_Penalty>  (1) 
0.41067983895260396

>  <r_glide_ring_energy>  (1) 
0

>  <r_i_docking_score>  (1) 
-4.610001987082371

>  <r_i_glide_ecoul>  (1) 
-1.4067682058227708

>  <r_i_glide_eff_state_penalty>  (1) 
0.41067983895260396

>  <r_i_glide_einternal>  (1) 
14.550138410224831

>  <r_i_glide_emodel>  (1) 
-48.093387080435797

>  <r_i_glide_emodel_strain>  (1) 
0.70031041672448424

>  <r_i_glide_energy>  (1) 
-43.737223924893371

>  <r_i_glide_erotb>  (1) 
1.1080255732668134

>  <r_i_glide_esite>  (1) 
-0.046942785752875728

>  <r_i_glide_evdw>  (1) 
-42.330455719070599

>  <r_i_glide_gscore>  (1) 
-5.0206818260349753

>  <r_i_glide_gscore_strain>  (1) 
0

>  <r_i_glide_hbond>  (1) 
-0.29622007110055121

>  <r_i_glide_ligand_efficiency>  (1) 
-0.17074081433638411

>  <r_i_glide_ligand_efficiency_ln>  (1) 
-1.0731324607701538

>  <r_i_glide_ligand_efficiency_sa>  (1) 
-0.51222244300915243

>  <r_i_glide_lipo>  (1) 
-1.8560560378274187

>  <r_i_glide_metal>  (1) 
-0

>  <r_i_glide_rewards>  (1) 
-1.6019504877939981

>  <r_lp_Energy>  (1) 
14.495433999999999

>  <r_lp_tautomer_probability>  (1) 
0.5

>  <s_epik_Chemistry_Notes>  (1) 
This compound contains an acetal/aminal-like group ( X-CH(R)-Y where X, Y are N, S, or O) that may be acid/base labile, releasing an aldehyde.

>  <s_epik_cmdline>  (1) 
J2VwaWtfcHl0aG9uJywgJy1waHQnLCAnMS4wJywgJy1waCcsICc3LjQnLCAnLXRuJywgJzgnLCAnLW1hJywgJzUwMCcsICctaW1hZScsICc8aW5maWxlLm1hZT4nLCAnLW9tYWUnLCAnPG91dGZpbGUubWFlPic=

>  <s_epik_input>  (1) 
W09IXU9DKD1PKS9bQ0hdPUMoXFtDSDNdKVtDSDJdW0NIMl1jKFtjSF0xKW5bbkhdYzFbQ0gyXVtDSDJdW0NASF0oW0NAQEhdKFtDSDNdKVtDSDJdW0NIM10pW0NAQEhdKE8yKU9bQ0hdPUMyQ2w=

>  <s_glide_docking_method>  (1) 
confgen

>  <s_i_glide_gridfile>  (1) 
gpcr_5ht2c_6bqh_protein_autoprepared_prepared

>  <s_lp_Force_Field>  (1) 
S-OPLS

>  <s_lp_Variant>  (1) 
DiffSBDD_83-8

>  <s_m_source_file>  (1) 
generated_GPCR_5HT2C_ligand_DiffSBDD_2026-06-23_prepared.sdf

>  <GenAI_Model>  (1) 
DiffSBDD

>  <Protein>  (1) 
GPCR_5HT2C

$$$$
DiffSBDD_58
     RDKit          3D

  0  0  0  0  0  0  0  0  0  0999 V3000
M  V30 BEGIN CTAB
M  V30 COUNTS 76 76 0 0 1
M  V30 BEGIN ATOM
M  V30 1 C 37.879854 27.627788 57.266806 0
M  V30 2 C 38.420367 29.496823 59.006233 0 CFG=1
M  V30 3 C 40.827269 35.510394 60.770920 0
M  V30 4 C 37.096739 31.786257 59.427413 0 CFG=1
M  V30 5 C 39.590067 26.290806 54.517178 0
M  V30 6 C 41.234225 35.192398 65.665950 0
M  V30 7 O 38.445401 28.537294 51.376798 0
M  V30 8 C 38.535634 34.766172 61.350388 0
M  V30 9 N 41.648809 34.033518 65.109897 0
M  V30 10 C 38.649808 28.613397 53.787919 0 CFG=2
M  V30 11 C 39.274264 30.709432 55.205205 0
M  V30 12 C 40.594244 29.466391 60.376540 0
M  V30 13 C 40.327681 27.583191 58.823173 0
M  V30 14 C 37.808304 28.142990 52.575808 0
M  V30 15 N 40.045077 35.971436 63.691087 0
M  V30 16 C 40.040698 34.579819 61.674390 0 CFG=2
M  V30 17 N 38.105490 33.875050 60.252401 0 CHG=1
M  V30 18 O 35.999105 30.940885 59.671859 0
M  V30 19 C 40.445275 36.137713 64.975167 0
M  V30 20 C 37.418235 28.881150 57.963411 0
M  V30 21 O 38.879031 32.051288 55.409424 0
M  V30 22 C 37.380301 32.646047 60.671319 0 CFG=2
M  V30 23 C 39.947216 29.069094 59.030323 0
M  V30 24 O 36.956948 30.137740 54.758705 0
M  V30 25 C 38.797962 27.476602 54.830899 0
M  V30 26 C 40.266092 26.137749 53.367312 0
M  V30 27 C 38.270041 30.054143 54.245660 0 CFG=2
M  V30 28 C 41.248280 33.851033 63.833245 0
M  V30 29 C 38.339688 31.048446 58.871371 0
M  V30 30 C 40.454269 34.808305 63.131743 0
M  V30 31 N 41.655124 32.669831 63.215889 0
M  V30 32 C 38.208966 27.602975 55.996995 0
M  V30 33 C 38.087113 31.853174 61.795815 0
M  V30 34 H 37.944864 26.736449 57.874779 0
M  V30 35 H 38.032071 29.214068 59.984568 0
M  V30 36 H 41.902760 35.337444 60.813729 0
M  V30 37 H 40.452700 35.337980 59.767841 0
M  V30 38 H 40.648909 36.554651 61.022601 0
M  V30 39 H 36.743919 32.462007 58.646779 0
M  V30 40 H 39.640991 25.496631 55.249233 0
M  V30 41 H 41.532328 35.369197 66.688723 0
M  V30 42 H 37.918512 28.247906 50.645965 0
M  V30 43 H 38.338948 35.800643 61.064726 0
M  V30 44 H 37.866397 34.589038 62.167783 0
M  V30 45 H 39.646011 28.763730 53.407808 0
M  V30 46 H 40.277288 30.702961 54.776744 0
M  V30 47 H 39.338189 30.179265 56.152540 0
M  V30 48 H 39.994954 29.117209 61.218013 0
M  V30 49 H 41.576275 29.010125 60.498304 0
M  V30 50 H 40.737682 30.539039 60.484436 0
M  V30 51 H 39.677884 26.915436 59.385103 0
M  V30 52 H 40.319701 27.289564 57.776242 0
M  V30 53 H 41.354566 27.377684 59.125885 0
M  V30 54 H 37.707201 27.058291 52.551660 0
M  V30 55 H 36.793351 28.537666 52.612648 0
M  V30 56 H 40.316539 33.572411 61.378626 0
M  V30 57 H 38.910671 33.618624 59.699742 0
M  V30 58 H 35.561543 30.827487 58.833647 0
M  V30 59 H 40.130048 37.047264 65.462959 0
M  V30 60 H 37.148322 29.624676 57.218808 0
M  V30 61 H 36.475352 28.649656 58.456092 0
M  V30 62 H 37.928390 32.066687 55.430618 0
M  V30 63 H 36.419508 32.985499 61.064764 0
M  V30 64 H 40.462092 29.614248 58.239502 0
M  V30 65 H 36.923889 29.711333 55.601406 0
M  V30 66 H 40.845157 25.244217 53.178979 0
M  V30 67 H 40.251928 26.895583 52.600940 0
M  V30 68 H 38.274610 30.691576 53.367817 0
M  V30 69 H 39.229461 31.519331 59.277908 0
M  V30 70 H 38.414345 31.303887 57.819293 0
M  V30 71 H 41.416028 32.461683 62.261138 0
M  V30 72 H 42.226624 31.994541 63.704353 0
M  V30 73 H 37.579662 30.908938 61.990135 0
M  V30 74 H 39.117883 31.613829 61.551698 0
M  V30 75 H 38.102607 32.404180 62.733576 0
M  V30 76 H 37.474689 34.394504 59.656669 0
M  V30 END ATOM
M  V30 BEGIN BOND
M  V30 1 1 9 6
M  V30 2 1 14 7
M  V30 3 1 14 10
M  V30 4 1 16 3
M  V30 5 1 16 8
M  V30 6 1 17 8
M  V30 7 1 18 4
M  V30 8 2 19 6
M  V30 9 1 19 15
M  V30 10 1 20 1
M  V30 11 1 20 2
M  V30 12 1 21 11
M  V30 13 1 22 4
M  V30 14 1 22 17
M  V30 15 1 23 2
M  V30 16 1 23 12
M  V30 17 1 23 13
M  V30 18 1 25 5
M  V30 19 1 25 10
M  V30 20 2 26 5
M  V30 21 1 27 10
M  V30 22 1 27 11
M  V30 23 1 27 24
M  V30 24 2 28 9
M  V30 25 1 29 2
M  V30 26 1 29 4
M  V30 27 2 30 15
M  V30 28 1 30 16
M  V30 29 1 30 28
M  V30 30 1 31 28
M  V30 31 2 32 1
M  V30 32 2 32 25
M  V30 33 1 33 22
M  V30 34 1 34 1
M  V30 35 1 2 35 CFG=1
M  V30 36 1 36 3
M  V30 37 1 37 3
M  V30 38 1 38 3
M  V30 39 1 4 39 CFG=3
M  V30 40 1 40 5
M  V30 41 1 41 6
M  V30 42 1 42 7
M  V30 43 1 43 8
M  V30 44 1 44 8
M  V30 45 1 10 45 CFG=3
M  V30 46 1 46 11
M  V30 47 1 47 11
M  V30 48 1 48 12
M  V30 49 1 49 12
M  V30 50 1 50 12
M  V30 51 1 51 13
M  V30 52 1 52 13
M  V30 53 1 53 13
M  V30 54 1 54 14
M  V30 55 1 55 14
M  V30 56 1 16 56 CFG=3
M  V30 57 1 57 17
M  V30 58 1 58 18
M  V30 59 1 59 19
M  V30 60 1 60 20
M  V30 61 1 61 20
M  V30 62 1 62 21
M  V30 63 1 22 63 CFG=1
M  V30 64 1 64 23
M  V30 65 1 65 24
M  V30 66 1 66 26
M  V30 67 1 67 26
M  V30 68 1 27 68 CFG=3
M  V30 69 1 69 29
M  V30 70 1 70 29
M  V30 71 1 71 31
M  V30 72 1 72 31
M  V30 73 1 73 33
M  V30 74 1 74 33
M  V30 75 1 75 33
M  V30 76 1 76 17
M  V30 END BOND
M  V30 END CTAB
M  END
>  <i_epik_Tot_Q>  (1) 
1

>  <i_epik_Tot_abs_Q>  (1) 
1

>  <i_i_glide_confnum>  (1) 
4232

>  <i_i_glide_lignum>  (1) 
129

>  <i_i_glide_posenum>  (1) 
310

>  <i_i_glide_rotatable_bonds>  (1) 
19

>  <i_lp_mmshare_version>  (1) 
72125

>  <i_m_source_file_index>  (1) 
59

>  <i_f3d_flags>  (1) 
0

>  <num_sample>  (1) 
100

>  <b_lp_Chiralities_Consistent>  (1) 
1

>  <r_epik_Charging_Adjusted_Penalty>  (1) 
0.031800499123457865

>  <r_epik_Ionization_Penalty>  (1) 
0.015929061655920795

>  <r_epik_Ionization_Penalty_Charging>  (1) 
0.015900249561728946

>  <r_epik_Ionization_Penalty_Neutral>  (1) 
2.8812094191846713e-05

>  <r_epik_State_Penalty>  (1) 
0.015900249561728919

>  <r_glide_ring_energy>  (1) 
0

>  <r_i_docking_score>  (1) 
-4.6019697334223828

>  <r_i_glide_ecoul>  (1) 
-4.3377183589615624

>  <r_i_glide_eff_state_penalty>  (1) 
0.015900249561728919

>  <r_i_glide_einternal>  (1) 
24.456393048255364

>  <r_i_glide_emodel>  (1) 
-40.788623840982694

>  <r_i_glide_emodel_strain>  (1) 
7.9771539107599523

>  <r_i_glide_energy>  (1) 
-45.434679318317158

>  <r_i_glide_erotb>  (1) 
1.3125063474323406

>  <r_i_glide_esite>  (1) 
0

>  <r_i_glide_evdw>  (1) 
-41.096960959355599

>  <r_i_glide_gscore>  (1) 
-4.6178699829841117

>  <r_i_glide_gscore_strain>  (1) 
0.99428847768998807

>  <r_i_glide_hbond>  (1) 
-0.090928931386054151

>  <r_i_glide_ligand_efficiency>  (1) 
-0.13945362828552677

>  <r_i_glide_ligand_efficiency_ln>  (1) 
-1.0234542409890905

>  <r_i_glide_ligand_efficiency_sa>  (1) 
-0.44730230016830413

>  <r_i_glide_lipo>  (1) 
-3.6343317559649653

>  <r_i_glide_metal>  (1) 
-0

>  <r_i_glide_rewards>  (1) 
-0.49389831894340663

>  <r_lp_Energy>  (1) 
16.863154999999999

>  <r_lp_tautomer_probability>  (1) 
0.99999990128000804

>  <s_epik_cmdline>  (1) 
J2VwaWtfcHl0aG9uJywgJy1waHQnLCAnMS4wJywgJy1waCcsICc3LjQnLCAnLXRuJywgJzgnLCAnLW1hJywgJzUwMCcsICctaW1hZScsICc8aW5maWxlLm1hZT4nLCAnLW9tYWUnLCAnPG91dGZpbGUubWFlPic=

>  <s_epik_input>  (1) 
W09IXVtDSDJdW0NASF0oW09IXSlbQ0BIXShbQ0gyXVtPSF0pQyhbQ0hdPVtDSDJdKT1DPVtDSF1bQ0gyXVtDQEBIXShbQ0hdKFtDSDNdKVtDSDNdKVtDSDJdW0NAQEhdKFtPSF0pW0NAQEhdKFtDSDNdKVtOSF1bQ0gyXVtDQEBIXShbQ0gzXSljMW5bY0hdW2NIXW5jMVtOSDJd

>  <s_glide_docking_method>  (1) 
confgen

>  <s_i_glide_gridfile>  (1) 
gpcr_5ht2c_6bqh_protein_autoprepared_prepared

>  <s_lp_Force_Field>  (1) 
S-OPLS

>  <s_lp_Variant>  (1) 
DiffSBDD_58-1

>  <s_m_source_file>  (1) 
generated_GPCR_5HT2C_ligand_DiffSBDD_2026-06-23_prepared.sdf

>  <GenAI_Model>  (1) 
DiffSBDD

>  <Protein>  (1) 
GPCR_5HT2C

$$$$
DiffSBDD_92
     RDKit          3D

  0  0  0  0  0  0  0  0  0  0999 V3000
M  V30 BEGIN CTAB
M  V30 COUNTS 72 74 0 0 1
M  V30 BEGIN ATOM
M  V30 1 C 40.065037 33.692068 62.128253 0 CFG=2
M  V30 2 O 42.987271 29.247862 68.135849 0
M  V30 3 C 36.544466 33.926998 60.387935 0
M  V30 4 C 42.707722 29.702606 67.000193 0
M  V30 5 C 39.675281 27.589838 58.782021 0
M  V30 6 C 41.522573 33.056795 65.561878 0
M  V30 7 C 39.034444 26.868800 56.365539 0
M  V30 8 O 41.064047 35.154854 66.632027 0
M  V30 9 C 37.178170 31.575761 59.709332 0 CFG=2
M  V30 10 C 41.768751 33.292556 67.968163 0
M  V30 11 C 40.485192 37.520264 62.791172 0
M  V30 12 N 41.137935 33.618712 64.322704 0
M  V30 13 N 40.045468 26.007884 56.284629 0
M  V30 14 S 38.839272 32.108519 59.280653 0
M  V30 15 O 42.776354 29.022745 65.946107 0 CHG=-1
M  V30 16 O 40.107702 31.761073 63.538811 0
M  V30 17 C 38.930526 27.620832 57.631368 0
M  V30 18 C 38.468665 36.320796 62.840817 0
M  V30 19 C 36.602598 32.460345 60.809687 0
M  V30 20 C 39.950596 36.160534 62.995835 0 CFG=1
M  V30 21 C 37.216710 30.129613 60.174173 0
M  V30 22 C 37.927456 36.644916 61.460661 0
M  V30 23 O 38.225390 27.031372 55.455680 0
M  V30 24 C 42.159529 31.943010 68.063499 0
M  V30 25 S 37.640447 28.764210 57.752113 0
M  V30 26 C 41.944167 31.706239 65.644445 0
M  V30 27 C 38.046485 29.165587 59.382240 0
M  V30 28 C 41.460021 33.851914 66.716988 0
M  V30 29 C 39.166107 28.473137 59.792943 0
M  V30 30 C 40.446466 32.936652 63.397358 0
M  V30 31 C 42.266538 31.145515 66.898802 0
M  V30 32 C 40.501043 32.894066 60.908660 0 CFG=2
M  V30 33 C 36.060093 34.778291 61.539174 0
M  V30 34 O 39.610640 31.847912 60.538718 0
M  V30 35 C 41.928490 32.314401 61.050900 0
M  V30 36 C 40.620260 35.145682 62.040100 0
M  V30 37 C 36.444991 36.290658 61.432582 0
M  V30 38 H 38.977721 33.692499 62.105706 0
M  V30 39 H 35.888935 34.052528 59.523293 0
M  V30 40 H 37.522628 34.280435 60.081358 0
M  V30 41 H 40.539247 26.965513 58.942594 0
M  V30 42 H 40.798785 35.403598 65.762523 0
M  V30 43 H 36.564767 31.664226 58.815583 0
M  V30 44 H 41.691835 33.895655 68.859668 0
M  V30 45 H 40.342394 37.885269 61.766500 0
M  V30 46 H 41.556657 37.338523 62.958667 0
M  V30 47 H 40.057684 38.250858 63.497686 0
M  V30 48 H 41.290651 34.606536 64.179069 0
M  V30 49 H 40.698259 25.917804 57.050519 0
M  V30 50 H 40.159136 25.447626 55.455726 0
M  V30 51 H 38.032799 36.927959 63.644325 0
M  V30 52 H 38.150595 35.346479 62.971547 0
M  V30 53 H 35.601988 32.122541 61.071687 0
M  V30 54 H 37.203523 32.347366 61.713529 0
M  V30 55 H 40.172262 35.909646 64.035028 0
M  V30 56 H 37.570963 30.136987 61.206275 0
M  V30 57 H 36.197332 29.746863 60.161825 0
M  V30 58 H 38.047873 37.707602 61.279672 0
M  V30 59 H 38.449018 36.131314 60.658433 0
M  V30 60 H 42.374425 31.516683 69.031001 0
M  V30 61 H 42.016671 31.103307 64.752134 0
M  V30 62 H 39.618969 28.552639 60.772029 0
M  V30 63 H 40.426462 33.642823 60.132193 0
M  V30 64 H 35.003696 34.537863 61.654519 0
M  V30 65 H 36.433786 34.396414 62.461235 0
M  V30 66 H 42.645256 33.101743 61.290355 0
M  V30 67 H 42.249221 31.781037 60.167793 0
M  V30 68 H 42.000661 31.573570 61.836944 0
M  V30 69 H 41.694579 35.129745 62.229421 0
M  V30 70 H 40.517130 35.524957 61.022187 0
M  V30 71 H 36.056410 36.732573 60.513484 0
M  V30 72 H 36.045695 36.822456 62.294089 0
M  V30 END ATOM
M  V30 BEGIN BOND
M  V30 1 2 4 2
M  V30 2 1 12 6
M  V30 3 1 13 7
M  V30 4 1 14 9
M  V30 5 1 15 4
M  V30 6 2 17 5
M  V30 7 1 17 7
M  V30 8 1 19 3
M  V30 9 1 19 9
M  V30 10 1 20 11
M  V30 11 1 20 18
M  V30 12 1 21 9
M  V30 13 1 22 18
M  V30 14 2 23 7
M  V30 15 2 24 10
M  V30 16 1 25 17
M  V30 17 1 26 6
M  V30 18 1 27 21
M  V30 19 1 27 25
M  V30 20 2 28 6
M  V30 21 1 28 8
M  V30 22 1 28 10
M  V30 23 1 29 5
M  V30 24 2 29 27
M  V30 25 1 30 1
M  V30 26 1 30 12
M  V30 27 2 30 16
M  V30 28 1 31 4
M  V30 29 1 31 24
M  V30 30 2 31 26
M  V30 31 1 32 1
M  V30 32 1 33 3
M  V30 33 1 34 14
M  V30 34 1 34 32
M  V30 35 1 35 32
M  V30 36 1 36 1
M  V30 37 1 36 20
M  V30 38 1 37 22
M  V30 39 1 37 33
M  V30 40 1 1 38 CFG=3
M  V30 41 1 39 3
M  V30 42 1 40 3
M  V30 43 1 41 5
M  V30 44 1 42 8
M  V30 45 1 9 43 CFG=3
M  V30 46 1 44 10
M  V30 47 1 45 11
M  V30 48 1 46 11
M  V30 49 1 47 11
M  V30 50 1 48 12
M  V30 51 1 49 13
M  V30 52 1 50 13
M  V30 53 1 51 18
M  V30 54 1 52 18
M  V30 55 1 53 19
M  V30 56 1 54 19
M  V30 57 1 20 55 CFG=1
M  V30 58 1 56 21
M  V30 59 1 57 21
M  V30 60 1 58 22
M  V30 61 1 59 22
M  V30 62 1 60 24
M  V30 63 1 61 26
M  V30 64 1 62 29
M  V30 65 1 32 63 CFG=3
M  V30 66 1 64 33
M  V30 67 1 65 33
M  V30 68 1 66 35
M  V30 69 1 67 35
M  V30 70 1 68 35
M  V30 71 1 69 36
M  V30 72 1 70 36
M  V30 73 1 71 37
M  V30 74 1 72 37
M  V30 END BOND
M  V30 END CTAB
M  END
>  <i_epik_Tot_Q>  (1) 
-1

>  <i_epik_Tot_abs_Q>  (1) 
1

>  <i_i_glide_confnum>  (1) 
79

>  <i_i_glide_lignum>  (1) 
212

>  <i_i_glide_posenum>  (1) 
201

>  <i_i_glide_rotatable_bonds>  (1) 
8

>  <i_lp_mmshare_version>  (1) 
72125

>  <i_m_source_file_index>  (1) 
93

>  <i_f3d_flags>  (1) 
0

>  <num_sample>  (1) 
100

>  <b_lp_Chiralities_Consistent>  (1) 
1

>  <r_epik_Charging_Adjusted_Penalty>  (1) 
0.00060253989728688382

>  <r_epik_Ionization_Penalty>  (1) 
0.0030111313993829731

>  <r_epik_Ionization_Penalty_Charging>  (1) 
0.00060253989728688382

>  <r_epik_Ionization_Penalty_Neutral>  (1) 
0.0024085915020960894

>  <r_epik_State_Penalty>  (1) 
-0

>  <r_glide_ring_energy>  (1) 
0

>  <r_i_docking_score>  (1) 
-4.5955538912298035

>  <r_i_glide_ecoul>  (1) 
-0.40008908825791301

>  <r_i_glide_eff_state_penalty>  (1) 
-0

>  <r_i_glide_einternal>  (1) 
5.485593304682661

>  <r_i_glide_emodel>  (1) 
-17.622250465841599

>  <r_i_glide_emodel_strain>  (1) 
1.845410274266122

>  <r_i_glide_energy>  (1) 
-15.611642212324334

>  <r_i_glide_erotb>  (1) 
0.34529747416661971

>  <r_i_glide_esite>  (1) 
0

>  <r_i_glide_evdw>  (1) 
-15.211553124066421

>  <r_i_glide_gscore>  (1) 
-4.5955538912298035

>  <r_i_glide_gscore_strain>  (1) 
0

>  <r_i_glide_hbond>  (1) 
-0.027528320279644487

>  <r_i_glide_ligand_efficiency>  (1) 
-0.12420415922242713

>  <r_i_glide_ligand_efficiency_ln>  (1) 
-0.99666790393897742

>  <r_i_glide_ligand_efficiency_sa>  (1) 
-0.41387581342628499

>  <r_i_glide_lipo>  (1) 
-3.1112520396298247

>  <r_i_glide_metal>  (1) 
-0

>  <r_i_glide_rewards>  (1) 
-0.98147998604494657

>  <r_lp_Energy>  (1) 
30.701922999999997

>  <r_lp_tautomer_probability>  (1) 
1

>  <s_epik_cmdline>  (1) 
J2VwaWtfcHl0aG9uJywgJy1waHQnLCAnMS4wJywgJy1waCcsICc3LjQnLCAnLXRuJywgJzgnLCAnLW1hJywgJzUwMCcsICctaW1hZScsICc8aW5maWxlLm1hZT4nLCAnLW9tYWUnLCAnPG91dGZpbGUubWFlPic=

>  <s_epik_input>  (1) 
W09IXWMxW2NIXVtjSF1jKEMoPU8pW09IXSlbY0hdYzFbTkhdQyg9TylbQ0BASF0yW0NAQEhdKFtDSDNdKU9TW0NAQEhdKFtDSDJdYyhzMylbY0hdW2NIXWMzQyg9TylbTkgyXSlbQ0gyXVtDSDJdW0NIMl1bQ0gyXVtDSDJdW0NIMl1bQ0BIXShbQ0gzXSlbQ0gyXTI=

>  <s_glide_docking_method>  (1) 
confgen

>  <s_i_glide_gridfile>  (1) 
gpcr_5ht2c_6bqh_protein_autoprepared_prepared

>  <s_lp_Force_Field>  (1) 
S-OPLS

>  <s_lp_Variant>  (1) 
DiffSBDD_92-1

>  <s_m_source_file>  (1) 
generated_GPCR_5HT2C_ligand_DiffSBDD_2026-06-23_prepared.sdf

>  <GenAI_Model>  (1) 
DiffSBDD

>  <Protein>  (1) 
GPCR_5HT2C

$$$$
DiffSBDD_54
     RDKit          3D

  0  0  0  0  0  0  0  0  0  0999 V3000
M  V30 BEGIN CTAB
M  V30 COUNTS 41 42 0 0 1
M  V30 BEGIN ATOM
M  V30 1 C 39.148443 26.796899 53.491666 0
M  V30 2 C 38.466662 29.853240 57.238101 0
M  V30 3 C 38.730129 31.610989 55.443757 0
M  V30 4 C 37.256014 24.021816 57.359059 0
M  V30 5 C 37.387349 26.104177 55.871124 0
M  V30 6 S 38.021317 29.020862 54.633923 0 CHG=1
M  V30 7 C 38.258408 28.765585 52.191028 0
M  V30 8 N 39.262464 29.336061 58.155462 0
M  V30 9 C 40.002982 25.734311 56.083635 0
M  V30 10 C 38.377832 29.327960 59.222645 0
M  V30 11 N 37.143197 29.805259 58.965470 0
M  V30 12 N 37.254935 30.137724 57.669734 0
M  V30 13 N 39.034704 27.601033 54.720156 0
M  V30 14 C 38.823666 26.703682 55.868361 0 CFG=1
M  V30 15 C 39.300720 27.651936 52.231530 0
M  V30 16 C 37.213616 24.579068 55.933371 0
M  V30 17 O 38.445290 29.605901 53.324642 0
M  V30 18 C 38.887447 30.125804 55.815896 0 CFG=2
M  V30 19 H 38.268960 26.165210 53.367927 0
M  V30 20 H 40.009416 26.132285 53.542150 0
M  V30 21 H 39.275438 32.246943 56.141650 0
M  V30 22 H 37.683988 31.921146 55.460805 0
M  V30 23 H 39.121040 31.816682 54.447109 0
M  V30 24 H 36.893220 22.994135 57.367467 0
M  V30 25 H 36.618252 24.597996 58.031085 0
M  V30 26 H 38.263611 24.025012 57.767847 0
M  V30 27 H 36.844667 26.443276 54.991386 0
M  V30 28 H 36.845219 26.537508 56.710384 0
M  V30 29 H 38.422390 29.337820 51.280475 0
M  V30 30 H 37.241743 28.368664 52.141485 0
M  V30 31 H 39.960742 25.269231 57.067004 0
M  V30 32 H 40.949132 26.272207 56.038071 0
M  V30 33 H 40.039669 24.937470 55.344711 0
M  V30 34 H 38.649648 28.963017 60.202268 0
M  V30 35 H 36.501138 30.601784 57.151754 0
M  V30 36 H 38.864467 27.334300 56.748003 0
M  V30 37 H 40.298516 28.083851 52.167716 0
M  V30 38 H 39.195063 27.016739 51.350587 0
M  V30 39 H 36.228114 24.345631 55.528482 0
M  V30 40 H 37.920034 24.064885 55.281945 0
M  V30 41 H 39.950310 29.894026 55.733560 0
M  V30 END ATOM
M  V30 BEGIN BOND
M  V30 1 2 8 2
M  V30 2 1 10 8
M  V30 3 2 11 10
M  V30 4 1 12 2
M  V30 5 1 12 11
M  V30 6 1 13 1
M  V30 7 1 13 6
M  V30 8 1 14 5
M  V30 9 1 14 9
M  V30 10 1 14 13
M  V30 11 1 15 1
M  V30 12 1 15 7
M  V30 13 1 16 4
M  V30 14 1 16 5
M  V30 15 1 6 17 CFG=3
M  V30 16 1 17 7
M  V30 17 1 18 2
M  V30 18 1 18 3
M  V30 19 1 18 6
M  V30 20 1 19 1
M  V30 21 1 20 1
M  V30 22 1 21 3
M  V30 23 1 22 3
M  V30 24 1 23 3
M  V30 25 1 24 4
M  V30 26 1 25 4
M  V30 27 1 26 4
M  V30 28 1 27 5
M  V30 29 1 28 5
M  V30 30 1 29 7
M  V30 31 1 30 7
M  V30 32 1 31 9
M  V30 33 1 32 9
M  V30 34 1 33 9
M  V30 35 1 34 10
M  V30 36 1 35 12
M  V30 37 1 14 36 CFG=1
M  V30 38 1 37 15
M  V30 39 1 38 15
M  V30 40 1 39 16
M  V30 41 1 40 16
M  V30 42 1 18 41 CFG=1
M  V30 END BOND
M  V30 END CTAB
M  END
>  <i_epik_Tot_Q>  (1) 
1

>  <i_epik_Tot_abs_Q>  (1) 
1

>  <i_i_glide_confnum>  (1) 
28

>  <i_i_glide_lignum>  (1) 
120

>  <i_i_glide_posenum>  (1) 
93

>  <i_i_glide_rotatable_bonds>  (1) 
5

>  <i_lp_mmshare_version>  (1) 
72125

>  <i_m_source_file_index>  (1) 
55

>  <i_f3d_flags>  (1) 
0

>  <num_sample>  (1) 
100

>  <b_lp_Chiralities_Consistent>  (1) 
1

>  <r_epik_Charging_Adjusted_Penalty>  (1) 
1.0448623015598277

>  <r_epik_Ionization_Penalty>  (1) 
1.0474264341019792

>  <r_epik_Ionization_Penalty_Charging>  (1) 
0

>  <r_epik_Ionization_Penalty_Neutral>  (1) 
1.0474264341019792

>  <r_epik_State_Penalty>  (1) 
1.0448623015598277

>  <r_glide_ring_energy>  (1) 
0

>  <r_i_docking_score>  (1) 
-4.5955068899339695

>  <r_i_glide_ecoul>  (1) 
-5.2937816606451138

>  <r_i_glide_eff_state_penalty>  (1) 
1.0448623015598277

>  <r_i_glide_einternal>  (1) 
5.5580724112526161

>  <r_i_glide_emodel>  (1) 
-46.871570041674701

>  <r_i_glide_emodel_strain>  (1) 
0.84256458805686663

>  <r_i_glide_energy>  (1) 
-33.578577268756057

>  <r_i_glide_erotb>  (1) 
0.97219657743730314

>  <r_i_glide_esite>  (1) 
-0.12751334399107153

>  <r_i_glide_evdw>  (1) 
-28.28479560811094

>  <r_i_glide_gscore>  (1) 
-5.6403691914937975

>  <r_i_glide_gscore_strain>  (1) 
0

>  <r_i_glide_hbond>  (1) 
-0.16

>  <r_i_glide_ligand_efficiency>  (1) 
-0.25530593832966497

>  <r_i_glide_ligand_efficiency_ln>  (1) 
-1.1812513497216852

>  <r_i_glide_ligand_efficiency_sa>  (1) 
-0.66909084076789682

>  <r_i_glide_lipo>  (1) 
-2.139365479512922

>  <r_i_glide_metal>  (1) 
-0

>  <r_i_glide_rewards>  (1) 
-1.9773799159247933

>  <r_lp_Energy>  (1) 
5.0378150000000002

>  <r_lp_tautomer_probability>  (1) 
0.94828448534560383

>  <s_epik_cmdline>  (1) 
J2VwaWtfcHl0aG9uJywgJy1waHQnLCAnMS4wJywgJy1waCcsICc3LjQnLCAnLXRuJywgJzgnLCAnLW1hJywgJzUwMCcsICctaW1hZScsICc8aW5maWxlLm1hZT4nLCAnLW9tYWUnLCAnPG91dGZpbGUubWFlPic=

>  <s_epik_input>  (1) 
W0NIM11bQ0gyXVtDSDJdW0NASF0oW0NIM10pTihbQ0gyXVtDSDJdW0NIMl1PMSlbUytdMVtDQEBIXShbQ0gzXSljMm5bY0hdbltuSF0y

>  <s_glide_docking_method>  (1) 
confgen

>  <s_i_glide_gridfile>  (1) 
gpcr_5ht2c_6bqh_protein_autoprepared_prepared

>  <s_lp_Force_Field>  (1) 
S-OPLS

>  <s_lp_Variant>  (1) 
DiffSBDD_54-6

>  <s_m_source_file>  (1) 
generated_GPCR_5HT2C_ligand_DiffSBDD_2026-06-23_prepared.sdf

>  <GenAI_Model>  (1) 
DiffSBDD

>  <Protein>  (1) 
GPCR_5HT2C

$$$$
DiffSBDD_36
     RDKit          3D

  0  0  0  0  0  0  0  0  0  0999 V3000
M  V30 BEGIN CTAB
M  V30 COUNTS 49 49 0 0 1
M  V30 BEGIN ATOM
M  V30 1 C 39.810261 28.668769 55.367762 0
M  V30 2 C 39.997881 29.151109 58.564063 0
M  V30 3 C 41.456537 27.905685 57.089082 0
M  V30 4 C 38.855161 26.880352 58.664754 0
M  V30 5 C 37.118475 31.922528 60.957303 0
M  V30 6 C 39.096876 28.146319 57.815792 0 CFG=1
M  V30 7 C 41.410069 28.579263 58.456229 0
M  V30 8 C 39.776064 29.591246 50.566274 0
M  V30 9 C 39.245141 28.257479 54.215672 0
M  V30 10 C 39.073875 29.144909 52.992513 0
M  V30 11 O 37.645137 31.373605 61.918854 0
M  V30 12 C 36.870209 29.423535 58.035589 0
M  V30 13 C 37.047926 29.870294 59.472042 0
M  V30 14 C 37.743818 28.680603 57.322777 0
M  V30 15 C 40.000161 27.778698 56.596904 0 CFG=1
M  V30 16 C 40.923135 30.592523 50.729023 0
M  V30 17 S 36.045638 33.294826 60.967764 0 CHG=-1
M  V30 18 C 37.413593 31.359747 59.573592 0
M  V30 19 C 38.839719 27.343550 51.216675 0
M  V30 20 C 39.668516 28.544858 51.691084 0 CFG=1
M  V30 21 H 40.162695 29.687207 55.452721 0
M  V30 22 H 39.948819 30.118255 58.063183 0
M  V30 23 H 39.751742 29.304165 59.611613 0
M  V30 24 H 42.050702 28.515957 56.410882 0
M  V30 25 H 41.947848 26.937755 57.156811 0
M  V30 26 H 39.774108 26.323805 58.845675 0
M  V30 27 H 38.445098 27.135195 59.638974 0
M  V30 28 H 38.159508 26.197982 58.174812 0
M  V30 29 H 42.183251 29.337785 58.567735 0
M  V30 30 H 41.574862 27.838977 59.239959 0
M  V30 31 H 39.904928 29.094468 49.604338 0
M  V30 32 H 38.845141 30.139921 50.497813 0
M  V30 33 H 38.887611 27.242315 54.130840 0
M  V30 34 H 38.009372 29.337220 52.859153 0
M  V30 35 H 39.531655 30.111032 53.206298 0
M  V30 36 H 35.957112 29.737932 57.560681 0
M  V30 37 H 36.067845 29.737294 59.928778 0
M  V30 38 H 37.715283 29.243422 60.052101 0
M  V30 39 H 37.486223 28.429696 56.308518 0
M  V30 40 H 39.804335 26.750611 56.287532 0
M  V30 41 H 40.918000 31.308123 49.906481 0
M  V30 42 H 40.841521 31.163160 51.653715 0
M  V30 43 H 41.891601 30.095554 50.718015 0
M  V30 44 H 38.475277 31.496651 59.372351 0
M  V30 45 H 36.893757 31.910486 58.785593 0
M  V30 46 H 37.800985 27.628981 51.056850 0
M  V30 47 H 39.221995 26.937717 50.280156 0
M  V30 48 H 38.852295 26.537845 51.948020 0
M  V30 49 H 40.678140 28.180988 51.867272 0
M  V30 END ATOM
M  V30 BEGIN BOND
M  V30 1 1 6 2
M  V30 2 1 6 4 CFG=1
M  V30 3 1 7 2
M  V30 4 1 7 3
M  V30 5 2 9 1
M  V30 6 1 10 9
M  V30 7 2 11 5
M  V30 8 1 13 12
M  V30 9 1 14 6
M  V30 10 2 14 12
M  V30 11 1 15 1
M  V30 12 1 15 3
M  V30 13 1 15 6
M  V30 14 1 16 8
M  V30 15 1 17 5
M  V30 16 1 18 5
M  V30 17 1 18 13
M  V30 18 1 20 8
M  V30 19 1 20 10
M  V30 20 1 20 19
M  V30 21 1 21 1
M  V30 22 1 22 2
M  V30 23 1 23 2
M  V30 24 1 24 3
M  V30 25 1 25 3
M  V30 26 1 26 4
M  V30 27 1 27 4
M  V30 28 1 28 4
M  V30 29 1 29 7
M  V30 30 1 30 7
M  V30 31 1 31 8
M  V30 32 1 32 8
M  V30 33 1 33 9
M  V30 34 1 34 10
M  V30 35 1 35 10
M  V30 36 1 36 12
M  V30 37 1 37 13
M  V30 38 1 38 13
M  V30 39 1 39 14
M  V30 40 1 15 40 CFG=3
M  V30 41 1 41 16
M  V30 42 1 42 16
M  V30 43 1 43 16
M  V30 44 1 44 18
M  V30 45 1 45 18
M  V30 46 1 46 19
M  V30 47 1 47 19
M  V30 48 1 48 19
M  V30 49 1 20 49 CFG=1
M  V30 END BOND
M  V30 END CTAB
M  END
>  <i_epik_Tot_Q>  (1) 
-1

>  <i_epik_Tot_abs_Q>  (1) 
1

>  <i_i_glide_confnum>  (1) 
412

>  <i_i_glide_lignum>  (1) 
82

>  <i_i_glide_posenum>  (1) 
347

>  <i_i_glide_rotatable_bonds>  (1) 
8

>  <i_lp_mmshare_version>  (1) 
72125

>  <i_m_source_file_index>  (1) 
37

>  <i_f3d_flags>  (1) 
0

>  <num_sample>  (1) 
100

>  <b_lp_Chiralities_Consistent>  (1) 
1

>  <r_epik_Charging_Adjusted_Penalty>  (1) 
9.4165288777969193e-05

>  <r_epik_Ionization_Penalty>  (1) 
9.4165288777969193e-05

>  <r_epik_Ionization_Penalty_Charging>  (1) 
9.4165288777969193e-05

>  <r_epik_Ionization_Penalty_Neutral>  (1) 
0

>  <r_epik_State_Penalty>  (1) 
-0

>  <r_glide_ring_energy>  (1) 
0.27489975278617035

>  <r_i_docking_score>  (1) 
-4.5934958448158021

>  <r_i_glide_ecoul>  (1) 
-3.1563210929537773

>  <r_i_glide_eff_state_penalty>  (1) 
-0

>  <r_i_glide_einternal>  (1) 
3.0892140734687743

>  <r_i_glide_emodel>  (1) 
-36.363299710014793

>  <r_i_glide_emodel_strain>  (1) 
0.75460130702099804

>  <r_i_glide_energy>  (1) 
-30.673067447009686

>  <r_i_glide_erotb>  (1) 
2.5456975872200465

>  <r_i_glide_esite>  (1) 
-0.014477717722247983

>  <r_i_glide_evdw>  (1) 
-27.516746354055908

>  <r_i_glide_gscore>  (1) 
-4.5934958448158021

>  <r_i_glide_gscore_strain>  (1) 
0

>  <r_i_glide_hbond>  (1) 
-0.29752396049502566

>  <r_i_glide_ligand_efficiency>  (1) 
-0.2296747922407901

>  <r_i_glide_ligand_efficiency_ln>  (1) 
-1.1496005063247474

>  <r_i_glide_ligand_efficiency_sa>  (1) 
-0.62343330214617587

>  <r_i_glide_lipo>  (1) 
-2.9157626183967507

>  <r_i_glide_metal>  (1) 
-0

>  <r_i_glide_rewards>  (1) 
-2.0621436537759621

>  <r_lp_Energy>  (1) 
17.800989999999999

>  <r_lp_tautomer_probability>  (1) 
1

>  <s_epik_cmdline>  (1) 
J2VwaWtfcHl0aG9uJywgJy1waHQnLCAnMS4wJywgJy1waCcsICc3LjQnLCAnLXRuJywgJzgnLCAnLW1hJywgJzUwMCcsICctaW1hZScsICc8aW5maWxlLm1hZT4nLCAnLW9tYWUnLCAnPG91dGZpbGUubWFlPic=

>  <s_epik_input>  (1) 
W0NIM11bQ0gyXVtDQEhdKFtDSDNdKVtDSDJdXFtDSF09W0NIXVxbQ0BIXTFbQ0gyXVtDSDJdW0NIMl1bQ0BAXTEoW0NIM10pL1tDSF09W0NIXVxbQ0gyXVtDSDJdQyg9TylbU0hd

>  <s_glide_docking_method>  (1) 
confgen

>  <s_i_glide_gridfile>  (1) 
gpcr_5ht2c_6bqh_protein_autoprepared_prepared

>  <s_lp_Force_Field>  (1) 
S-OPLS

>  <s_lp_Variant>  (1) 
DiffSBDD_36-3

>  <s_m_source_file>  (1) 
generated_GPCR_5HT2C_ligand_DiffSBDD_2026-06-23_prepared.sdf

>  <GenAI_Model>  (1) 
DiffSBDD

>  <Protein>  (1) 
GPCR_5HT2C

$$$$
DiffSBDD_22
     RDKit          3D

  0  0  0  0  0  0  0  0  0  0999 V3000
M  V30 BEGIN CTAB
M  V30 COUNTS 48 51 0 0 1
M  V30 BEGIN ATOM
M  V30 1 C 40.150782 30.832744 51.479231 0
M  V30 2 C 37.441915 32.691184 61.358930 0
M  V30 3 C 39.245138 28.491236 54.178051 0
M  V30 4 F 37.657464 31.643083 62.167757 0
M  V30 5 N 38.943461 29.442676 53.080056 0 CFG=2 CHG=1
M  V30 6 C 38.787628 28.805495 51.749611 0 CFG=1
M  V30 7 C 39.599023 29.622597 50.784538 0 CFG=2
M  V30 8 O 37.645137 29.397241 55.691315 0
M  V30 9 O 37.476447 26.028864 56.145214 0
M  V30 10 N 36.845137 29.852848 57.908453 0 CHG=1
M  V30 11 O 39.572619 25.924360 57.767679 0
M  V30 12 C 38.227840 27.930584 57.402111 0 CFG=1
M  V30 13 C 38.005981 28.189978 55.016496 0 CFG=2
M  V30 14 C 36.018248 31.301377 59.769115 0
M  V30 15 N 38.248448 33.659591 61.367747 0
M  V30 16 C 39.873488 30.601378 52.970089 0
M  V30 17 C 37.225077 30.848816 58.924906 0
M  V30 18 C 40.045093 28.225419 51.145969 0
M  V30 19 C 39.468145 27.146471 57.060766 0 CFG=2
M  V30 20 C 38.076545 29.384827 57.018252 0 CFG=1
M  V30 21 C 36.229663 32.667143 60.452177 0
M  V30 22 C 38.289937 27.181129 56.108939 0 CFG=2
M  V30 23 H 39.645144 31.726254 51.113817 0
M  V30 24 H 41.214848 30.937875 51.264608 0
M  V30 25 H 40.010798 28.901055 54.838569 0
M  V30 26 H 39.645021 27.557687 53.780088 0
M  V30 27 H 37.802119 28.426004 51.485827 0
M  V30 28 H 39.245147 29.766738 49.767802 0
M  V30 29 H 37.852805 25.462711 56.808773 0
M  V30 30 H 36.373494 29.067594 58.331116 0
M  V30 31 H 40.323522 25.450270 57.437433 0
M  V30 32 H 37.567476 27.531860 58.167762 0
M  V30 33 H 37.182755 27.847036 54.387545 0
M  V30 34 H 35.784992 30.538750 60.513500 0
M  V30 35 H 35.130802 31.380991 59.140427 0
M  V30 36 H 37.996906 34.399625 60.728432 0
M  V30 37 H 39.422183 31.481392 53.430197 0
M  V30 38 H 40.811463 30.421597 53.493630 0
M  V30 39 H 37.647161 31.706226 58.397142 0
M  V30 40 H 38.010284 30.440554 59.562721 0
M  V30 41 H 39.923885 27.449113 50.393173 0
M  V30 42 H 40.930954 28.137761 51.767749 0
M  V30 43 H 40.403878 27.659190 56.844956 0
M  V30 44 H 38.976885 29.985507 57.160532 0
M  V30 45 H 38.047894 29.853374 53.307226 0
M  V30 46 H 35.351185 32.925231 61.044543 0
M  V30 47 H 36.326019 33.442751 59.690293 0
M  V30 48 H 36.175297 30.366491 57.330531 0
M  V30 END ATOM
M  V30 BEGIN BOND
M  V30 1 1 4 2
M  V30 2 1 5 3
M  V30 3 1 6 5
M  V30 4 1 7 1
M  V30 5 1 7 6
M  V30 6 1 13 3
M  V30 7 1 13 8
M  V30 8 2 15 2
M  V30 9 1 16 1
M  V30 10 1 16 5
M  V30 11 1 17 10
M  V30 12 1 17 14
M  V30 13 1 18 6
M  V30 14 1 18 7
M  V30 15 1 19 11
M  V30 16 1 19 12
M  V30 17 1 20 8
M  V30 18 1 20 10
M  V30 19 1 20 12
M  V30 20 1 21 2
M  V30 21 1 21 14
M  V30 22 1 22 9 CFG=1
M  V30 23 1 22 12
M  V30 24 1 22 13
M  V30 25 1 22 19
M  V30 26 1 23 1
M  V30 27 1 24 1
M  V30 28 1 25 3
M  V30 29 1 26 3
M  V30 30 1 6 27 CFG=3
M  V30 31 1 7 28 CFG=3
M  V30 32 1 29 9
M  V30 33 1 30 10
M  V30 34 1 31 11
M  V30 35 1 12 32 CFG=1
M  V30 36 1 13 33 CFG=3
M  V30 37 1 34 14
M  V30 38 1 35 14
M  V30 39 1 36 15
M  V30 40 1 37 16
M  V30 41 1 38 16
M  V30 42 1 39 17
M  V30 43 1 40 17
M  V30 44 1 41 18
M  V30 45 1 42 18
M  V30 46 1 19 43 CFG=3
M  V30 47 1 20 44 CFG=3
M  V30 48 1 5 45 CFG=1
M  V30 49 1 46 21
M  V30 50 1 47 21
M  V30 51 1 48 10
M  V30 END BOND
M  V30 END CTAB
M  END
>  <i_epik_Tot_Q>  (1) 
2

>  <i_epik_Tot_abs_Q>  (1) 
2

>  <i_i_glide_confnum>  (1) 
74

>  <i_i_glide_lignum>  (1) 
55

>  <i_i_glide_posenum>  (1) 
97

>  <i_i_glide_rotatable_bonds>  (1) 
9

>  <i_lp_mmshare_version>  (1) 
72125

>  <i_m_source_file_index>  (1) 
23

>  <i_f3d_flags>  (1) 
0

>  <num_sample>  (1) 
100

>  <b_lp_Chiralities_Consistent>  (1) 
1

>  <r_epik_Charging_Adjusted_Penalty>  (1) 
1.666199543100769

>  <r_epik_Ionization_Penalty>  (1) 
0.63246952638049103

>  <r_epik_Ionization_Penalty_Charging>  (1) 
0.62883544751823761

>  <r_epik_Ionization_Penalty_Neutral>  (1) 
0.0036340788622534364

>  <r_epik_State_Penalty>  (1) 
1.0373640955825314

>  <r_glide_ring_energy>  (1) 
1.6455033096424563

>  <r_i_docking_score>  (1) 
-4.5923130661610525

>  <r_i_glide_ecoul>  (1) 
-6.5105566031504232

>  <r_i_glide_eff_state_penalty>  (1) 
1.0373640955825314

>  <r_i_glide_einternal>  (1) 
6.2109095230614733

>  <r_i_glide_emodel>  (1) 
-45.644935830867446

>  <r_i_glide_emodel_strain>  (1) 
1.9756665191834486

>  <r_i_glide_energy>  (1) 
-35.152489002959868

>  <r_i_glide_erotb>  (1) 
1.309053311580165

>  <r_i_glide_esite>  (1) 
-0.12664800271637175

>  <r_i_glide_evdw>  (1) 
-28.641932399809441

>  <r_i_glide_gscore>  (1) 
-5.6296771617435839

>  <r_i_glide_gscore_strain>  (1) 
0

>  <r_i_glide_hbond>  (1) 
-0.20000000000000001

>  <r_i_glide_ligand_efficiency>  (1) 
-0.20874150300732056

>  <r_i_glide_ligand_efficiency_ln>  (1) 
-1.1225288220588485

>  <r_i_glide_ligand_efficiency_sa>  (1) 
-0.58490190136663212

>  <r_i_glide_lipo>  (1) 
-2.1426640168185638

>  <r_i_glide_metal>  (1) 
-0

>  <r_i_glide_rewards>  (1) 
-2.0607383433257778

>  <r_lp_Energy>  (1) 
22.761092999999999

>  <r_lp_tautomer_probability>  (1) 
0.49999300000000002

>  <s_epik_Chemistry_Notes>  (1) 
This compound has an imine and may undergo hydrolysis. This compound contains an acetal/aminal-like group ( X-CH(R)-Y where X, Y are N, S, or O) that may be acid/base labile, releasing an aldehyde.

>  <s_epik_cmdline>  (1) 
J2VwaWtfcHl0aG9uJywgJy1waHQnLCAnMS4wJywgJy1waCcsICc3LjQnLCAnLXRuJywgJzgnLCAnLW1hJywgJzUwMCcsICctaW1hZScsICc8aW5maWxlLm1hZT4nLCAnLW9tYWUnLCAnPG91dGZpbGUubWFlPic=

>  <s_epik_input>  (1) 
W0NAQEhdMTJbQ0BIXShbQ0gyXTIpW0NIMl1bQ0gyXU4xW0NIMl1bQ0BASF0zT1tDQEhdKFtDSF0oW0NASF00W09IXSlbQ0BAXTM0W09IXSlbTkhdW0NIMl1bQ0gyXVxbQ0hdPUMoXEYpW05IMl0=

>  <s_glide_docking_method>  (1) 
confgen

>  <s_i_glide_gridfile>  (1) 
gpcr_5ht2c_6bqh_protein_autoprepared_prepared

>  <s_lp_Force_Field>  (1) 
S-OPLS

>  <s_lp_Variant>  (1) 
DiffSBDD_22-3

>  <s_m_source_file>  (1) 
generated_GPCR_5HT2C_ligand_DiffSBDD_2026-06-23_prepared.sdf

>  <GenAI_Model>  (1) 
DiffSBDD

>  <Protein>  (1) 
GPCR_5HT2C

$$$$
DiffSBDD_39
     RDKit          3D

  0  0  0  0  0  0  0  0  0  0999 V3000
M  V30 BEGIN CTAB
M  V30 COUNTS 44 46 0 0 1
M  V30 BEGIN ATOM
M  V30 1 C 39.245129 29.337795 53.119075 0
M  V30 2 C 34.993905 32.678617 60.376038 0
M  V30 3 C 36.280756 29.737751 58.167768 0
M  V30 4 O 35.645229 31.961702 61.367755 0
M  V30 5 O 39.608337 29.645980 51.985191 0
M  V30 6 C 37.840920 32.261840 60.642536 0 CFG=2
M  V30 7 C 39.025846 28.871270 59.114841 0
M  V30 8 C 39.925880 29.616929 55.544016 0
M  V30 9 O 38.695058 32.876852 59.695615 0
M  V30 10 C 39.370918 30.323275 54.293495 0 CFG=2
M  V30 11 N 37.200220 31.010084 60.113031 0
M  V30 12 O 37.245137 28.003215 53.367749 0
M  V30 13 C 37.381836 30.637712 58.727552 0 CFG=1
M  V30 14 C 39.132219 28.359140 55.925002 0 CFG=1
M  V30 15 C 39.131457 27.352574 54.762170 0
M  V30 16 O 38.634169 30.074354 58.455866 0
M  V30 17 C 36.444640 32.228381 60.180630 0 CFG=2
M  V30 18 O 39.756508 27.743982 57.048877 0
M  V30 19 C 38.051659 31.066476 54.579712 0
M  V30 20 C 38.654941 27.948767 53.418024 0 CFG=2
M  V30 21 C 38.933638 27.628480 58.204493 0
M  V30 22 H 34.805434 33.726911 60.597764 0
M  V30 23 H 34.233671 32.146959 59.806175 0
M  V30 24 H 35.303828 30.137754 58.436857 0
M  V30 25 H 36.357037 29.737680 57.081692 0
M  V30 26 H 36.336280 28.731266 58.567637 0
M  V30 27 H 38.082214 32.391432 61.695945 0
M  V30 28 H 38.463134 28.707070 60.034372 0
M  V30 29 H 40.064966 29.000322 59.418019 0
M  V30 30 H 40.961362 29.337760 55.367764 0
M  V30 31 H 39.953469 30.318229 56.376228 0
M  V30 32 H 38.401709 33.764462 59.556925 0
M  V30 33 H 40.104093 31.074675 53.998387 0
M  V30 34 H 36.986945 28.064690 52.459506 0
M  V30 35 H 37.369514 31.541110 58.113553 0
M  V30 36 H 38.102477 28.641303 56.140100 0
M  V30 37 H 38.515999 26.491236 55.024968 0
M  V30 38 H 40.139333 26.956233 54.634009 0
M  V30 39 H 37.798379 31.744671 53.767754 0
M  V30 40 H 37.209934 30.388514 54.724437 0
M  V30 41 H 38.132825 31.675857 55.480512 0
M  V30 42 H 38.965496 27.274067 52.619529 0
M  V30 43 H 37.911137 27.362469 57.939939 0
M  V30 44 H 39.310281 26.776367 58.770839 0
M  V30 END ATOM
M  V30 BEGIN BOND
M  V30 1 1 4 2
M  V30 2 2 5 1
M  V30 3 1 9 6
M  V30 4 1 10 1
M  V30 5 1 10 8
M  V30 6 1 11 6
M  V30 7 1 13 3
M  V30 8 1 13 11
M  V30 9 1 14 8
M  V30 10 1 15 14
M  V30 11 1 16 7
M  V30 12 1 16 13
M  V30 13 1 17 2
M  V30 14 1 17 4 CFG=1
M  V30 15 1 17 6
M  V30 16 1 17 11
M  V30 17 1 18 14
M  V30 18 1 19 10
M  V30 19 1 20 1
M  V30 20 1 20 12
M  V30 21 1 20 15
M  V30 22 1 21 7
M  V30 23 1 21 18
M  V30 24 1 22 2
M  V30 25 1 23 2
M  V30 26 1 24 3
M  V30 27 1 25 3
M  V30 28 1 26 3
M  V30 29 1 6 27 CFG=1
M  V30 30 1 28 7
M  V30 31 1 29 7
M  V30 32 1 30 8
M  V30 33 1 31 8
M  V30 34 1 32 9
M  V30 35 1 10 33 CFG=3
M  V30 36 1 34 12
M  V30 37 1 13 35 CFG=3
M  V30 38 1 14 36 CFG=1
M  V30 39 1 37 15
M  V30 40 1 38 15
M  V30 41 1 39 19
M  V30 42 1 40 19
M  V30 43 1 41 19
M  V30 44 1 20 42 CFG=3
M  V30 45 1 43 21
M  V30 46 1 44 21
M  V30 END BOND
M  V30 END CTAB
M  END
>  <i_epik_Tot_Q>  (1) 
0

>  <i_epik_Tot_abs_Q>  (1) 
0

>  <i_i_glide_confnum>  (1) 
84

>  <i_i_glide_lignum>  (1) 
86

>  <i_i_glide_posenum>  (1) 
251

>  <i_i_glide_rotatable_bonds>  (1) 
8

>  <i_lp_mmshare_version>  (1) 
72125

>  <i_m_source_file_index>  (1) 
40

>  <i_f3d_flags>  (1) 
0

>  <num_sample>  (1) 
100

>  <b_lp_Chiralities_Consistent>  (1) 
1

>  <r_epik_Charging_Adjusted_Penalty>  (1) 
0

>  <r_epik_Ionization_Penalty>  (1) 
7.7229051731594394e-07

>  <r_epik_Ionization_Penalty_Charging>  (1) 
0

>  <r_epik_Ionization_Penalty_Neutral>  (1) 
7.7229051731594394e-07

>  <r_epik_State_Penalty>  (1) 
-0

>  <r_glide_ring_energy>  (1) 
0

>  <r_i_docking_score>  (1) 
-4.585428299331479

>  <r_i_glide_ecoul>  (1) 
-3.784283846192106

>  <r_i_glide_eff_state_penalty>  (1) 
-0

>  <r_i_glide_einternal>  (1) 
10.656955288451913

>  <r_i_glide_emodel>  (1) 
-39.383339988778729

>  <r_i_glide_emodel_strain>  (1) 
0.14384606166606773

>  <r_i_glide_energy>  (1) 
-33.842255355525005

>  <r_i_glide_erotb>  (1) 
1.2154630782883253

>  <r_i_glide_esite>  (1) 
-0.14234911650257673

>  <r_i_glide_evdw>  (1) 
-30.057971509332901

>  <r_i_glide_gscore>  (1) 
-4.585428299331479

>  <r_i_glide_gscore_strain>  (1) 
0

>  <r_i_glide_hbond>  (1) 
-0.24548108725121309

>  <r_i_glide_ligand_efficiency>  (1) 
-0.21835372853959423

>  <r_i_glide_ligand_efficiency_ln>  (1) 
-1.1337378812793832

>  <r_i_glide_ligand_efficiency_sa>  (1) 
-0.60242138067084694

>  <r_i_glide_lipo>  (1) 
-1.4819114587576374

>  <r_i_glide_metal>  (1) 
-0

>  <r_i_glide_rewards>  (1) 
-1.8606085627129163

>  <r_lp_Energy>  (1) 
10.886961999999999

>  <r_lp_tautomer_probability>  (1) 
1

>  <s_epik_Chemistry_Notes>  (1) 
This compound contains an acetal/aminal-like group ( X-CH(R)-Y where X, Y are N, S, or O) that may be acid/base labile, releasing an aldehyde.

>  <s_epik_cmdline>  (1) 
J2VwaWtfcHl0aG9uJywgJy1waHQnLCAnMS4wJywgJy1waCcsICc3LjQnLCAnLXRuJywgJzgnLCAnLW1hJywgJzUwMCcsICctaW1hZScsICc8aW5maWxlLm1hZT4nLCAnLW9tYWUnLCAnPG91dGZpbGUubWFlPic=

>  <s_epik_input>  (1) 
Tz1DMVtDQEBIXShbQ0gzXSlbQ0gyXVtDQEBIXShbQ0gyXVtDQEhdMVtPSF0pT1tDSDJdW0NIMl1PW0NAQEhdKFtDSDNdKU4yW0NAQEhdKFtPSF0pQzIzW0NIMl1PMw==

>  <s_glide_docking_method>  (1) 
confgen

>  <s_i_glide_gridfile>  (1) 
gpcr_5ht2c_6bqh_protein_autoprepared_prepared

>  <s_lp_Force_Field>  (1) 
S-OPLS

>  <s_lp_Variant>  (1) 
DiffSBDD_39-1

>  <s_m_source_file>  (1) 
generated_GPCR_5HT2C_ligand_DiffSBDD_2026-06-23_prepared.sdf

>  <GenAI_Model>  (1) 
DiffSBDD

>  <Protein>  (1) 
GPCR_5HT2C

$$$$
DiffSBDD_9
     RDKit          3D

  0  0  0  0  0  0  0  0  0  0999 V3000
M  V30 BEGIN CTAB
M  V30 COUNTS 66 67 0 0 1
M  V30 BEGIN ATOM
M  V30 1 C 39.226758 30.363172 56.331243 0 CFG=1
M  V30 2 C 34.633676 33.287877 61.559531 0
M  V30 3 C 39.255155 27.836354 51.193142 0
M  V30 4 C 39.678790 37.040367 63.003982 0
M  V30 5 O 40.164267 28.642193 51.763519 0
M  V30 6 O 41.356898 35.562244 62.323539 0
M  V30 7 C 38.814500 30.420436 54.860967 0 CFG=1
M  V30 8 C 39.912804 31.311580 55.361089 0
M  V30 9 N 38.319611 30.995960 57.303519 0
M  V30 10 C 37.526305 32.736083 59.723603 0
M  V30 11 C 36.824366 35.093661 60.285962 0 CFG=2
M  V30 12 C 37.696767 35.239183 61.524942 0
M  V30 13 C 39.212811 35.113071 61.323766 0 CFG=1
M  V30 14 C 37.235550 31.263269 59.499006 0
M  V30 15 C 39.974600 35.595283 62.580635 0 CFG=2
M  V30 16 C 35.036208 33.255551 60.080579 0
M  V30 17 C 38.997019 33.155629 59.648889 0
M  V30 18 C 37.281037 37.248250 59.428413 0
M  V30 19 C 39.042414 29.290314 53.876396 0
M  V30 20 C 40.029482 29.190840 56.894117 0
M  V30 21 O 36.251685 30.689561 59.959034 0
M  V30 22 C 38.224637 30.450738 58.663111 0
M  V30 23 O 38.045138 27.914084 51.367805 0
M  V30 24 C 39.781992 29.733794 52.594272 0
M  V30 25 C 36.523639 33.625417 59.997337 0
M  V30 26 C 39.567859 33.650793 60.988204 0
M  V30 27 O 37.645069 31.164933 54.580834 0
M  V30 28 O 37.245109 35.850036 59.171326 0
M  V30 29 C 34.166045 34.137058 59.161283 0
M  V30 30 H 34.960401 32.372075 62.050115 0
M  V30 31 H 35.035147 34.134575 62.114967 0
M  V30 32 H 33.564748 33.337756 61.666607 0
M  V30 33 H 39.758434 27.105615 50.559824 0
M  V30 34 H 38.681665 37.158807 63.423974 0
M  V30 35 H 40.370887 37.337961 63.784729 0
M  V30 36 H 39.790553 37.734774 62.171231 0
M  V30 37 H 41.808065 35.881884 63.091541 0
M  V30 38 H 40.906597 31.076991 54.985355 0
M  V30 39 H 39.703378 32.375232 55.469440 0
M  V30 40 H 37.373612 31.047254 56.920709 0
M  V30 41 H 35.885949 35.540579 60.567796 0
M  V30 42 H 37.418354 36.165247 62.022710 0
M  V30 43 H 37.383545 34.434574 62.167743 0
M  V30 44 H 39.519501 35.746177 60.491587 0
M  V30 45 H 39.776275 34.921776 63.412957 0
M  V30 46 H 34.747894 32.285732 59.701000 0
M  V30 47 H 39.640078 32.346912 59.367696 0
M  V30 48 H 39.119291 33.902990 58.869330 0
M  V30 49 H 37.671539 37.778434 58.567792 0
M  V30 50 H 36.285920 37.628567 59.654770 0
M  V30 51 H 37.937962 37.509460 60.256478 0
M  V30 52 H 39.618889 28.500073 54.349843 0
M  V30 53 H 38.071409 28.849344 53.652680 0
M  V30 54 H 40.778705 28.854956 56.177958 0
M  V30 55 H 40.567989 29.471355 57.798152 0
M  V30 56 H 39.373090 28.351681 57.121985 0
M  V30 57 H 37.848747 29.427101 58.621232 0
M  V30 58 H 39.186516 30.394403 59.168292 0
M  V30 59 H 39.245152 30.475866 52.013536 0
M  V30 60 H 40.699845 30.236383 52.886826 0
M  V30 61 H 40.651960 33.544186 60.964842 0
M  V30 62 H 39.248611 32.987654 61.792557 0
M  V30 63 H 37.513831 31.819812 55.253708 0
M  V30 64 H 34.185971 33.729065 58.167773 0
M  V30 65 H 33.118970 34.137745 59.458548 0
M  V30 66 H 34.505313 35.159564 59.025441 0
M  V30 END ATOM
M  V30 BEGIN BOND
M  V30 1 1 5 3
M  V30 2 1 7 1
M  V30 3 1 8 1
M  V30 4 1 8 7
M  V30 5 1 1 9 CFG=1
M  V30 6 1 12 11
M  V30 7 1 13 12
M  V30 8 1 14 10
M  V30 9 1 15 4
M  V30 10 1 15 6
M  V30 11 1 15 13
M  V30 12 1 16 2
M  V30 13 1 17 10
M  V30 14 1 19 7
M  V30 15 1 20 1
M  V30 16 2 21 14
M  V30 17 1 22 9
M  V30 18 1 22 14
M  V30 19 2 23 3
M  V30 20 1 24 5
M  V30 21 1 24 19
M  V30 22 2 25 10
M  V30 23 1 25 11
M  V30 24 1 25 16
M  V30 25 1 26 13
M  V30 26 1 26 17
M  V30 27 1 7 27 CFG=1
M  V30 28 1 28 11
M  V30 29 1 28 18
M  V30 30 1 29 16
M  V30 31 1 30 2
M  V30 32 1 31 2
M  V30 33 1 32 2
M  V30 34 1 33 3
M  V30 35 1 34 4
M  V30 36 1 35 4
M  V30 37 1 36 4
M  V30 38 1 37 6
M  V30 39 1 38 8
M  V30 40 1 39 8
M  V30 41 1 40 9
M  V30 42 1 11 41 CFG=1
M  V30 43 1 42 12
M  V30 44 1 43 12
M  V30 45 1 13 44 CFG=3
M  V30 46 1 15 45 CFG=1
M  V30 47 1 46 16
M  V30 48 1 47 17
M  V30 49 1 48 17
M  V30 50 1 49 18
M  V30 51 1 50 18
M  V30 52 1 51 18
M  V30 53 1 52 19
M  V30 54 1 53 19
M  V30 55 1 54 20
M  V30 56 1 55 20
M  V30 57 1 56 20
M  V30 58 1 57 22
M  V30 59 1 58 22
M  V30 60 1 59 24
M  V30 61 1 60 24
M  V30 62 1 61 26
M  V30 63 1 62 26
M  V30 64 1 63 27
M  V30 65 1 64 29
M  V30 66 1 65 29
M  V30 67 1 66 29
M  V30 END BOND
M  V30 END CTAB
M  END
>  <i_epik_Tot_Q>  (1) 
0

>  <i_epik_Tot_abs_Q>  (1) 
0

>  <i_i_glide_confnum>  (1) 
632

>  <i_i_glide_lignum>  (1) 
16

>  <i_i_glide_posenum>  (1) 
236

>  <i_i_glide_rotatable_bonds>  (1) 
13

>  <i_lp_mmshare_version>  (1) 
72125

>  <i_m_source_file_index>  (1) 
10

>  <i_f3d_flags>  (1) 
0

>  <num_sample>  (1) 
100

>  <b_lp_Chiralities_Consistent>  (1) 
1

>  <r_epik_Charging_Adjusted_Penalty>  (1) 
0.70191645640278022

>  <r_epik_Ionization_Penalty>  (1) 
0.70191663338499877

>  <r_epik_Ionization_Penalty_Charging>  (1) 
0

>  <r_epik_Ionization_Penalty_Neutral>  (1) 
0.70191663338499877

>  <r_epik_State_Penalty>  (1) 
0.70191645640278022

>  <r_glide_ring_energy>  (1) 
0

>  <r_i_docking_score>  (1) 
-4.5700946020244517

>  <r_i_glide_ecoul>  (1) 
-2.451856186163643

>  <r_i_glide_eff_state_penalty>  (1) 
0.70191645640278022

>  <r_i_glide_einternal>  (1) 
12.862819648040009

>  <r_i_glide_emodel>  (1) 
-32.508382216475354

>  <r_i_glide_emodel_strain>  (1) 
3.090849724205313

>  <r_i_glide_energy>  (1) 
-34.552156829982856

>  <r_i_glide_erotb>  (1) 
0.93101816362055201

>  <r_i_glide_esite>  (1) 
-0.068339471640329261

>  <r_i_glide_evdw>  (1) 
-32.10030064381921

>  <r_i_glide_gscore>  (1) 
-5.2720110584272319

>  <r_i_glide_gscore_strain>  (1) 
0

>  <r_i_glide_hbond>  (1) 
0

>  <r_i_glide_ligand_efficiency>  (1) 
-0.15758946903532592

>  <r_i_glide_ligand_efficiency_ln>  (1) 
-1.0464357762635479

>  <r_i_glide_ligand_efficiency_sa>  (1) 
-0.48416477726813073

>  <r_i_glide_lipo>  (1) 
-2.7757813012592472

>  <r_i_glide_metal>  (1) 
-0

>  <r_i_glide_rewards>  (1) 
-1.3861149890326998

>  <r_lp_Energy>  (1) 
41.088991

>  <s_epik_Chemistry_Notes>  (1) 
This compound has an ester and may undergo hydrolysis at high or low pH.

>  <s_epik_cmdline>  (1) 
J2VwaWtfcHl0aG9uJywgJy1waHQnLCAnMS4wJywgJy1waCcsICc3LjQnLCAnLXRuJywgJzgnLCAnLW1hJywgJzUwMCcsICctaW1hZScsICc8aW5maWxlLm1hZT4nLCAnLW9tYWUnLCAnPG91dGZpbGUubWFlPic=

>  <s_epik_input>  (1) 
Tz1bQ0hdT1tDSDJdW0NIMl1bQ0BAXShbQ0gyXTEpKFtPSF0pW0NAXTEoW0NIM10pW05IXVtDSDJdQyg9TylDMj1DKFtDSF0oW0NIM10pW0NIM10pW0NASF0oT1tDSDNdKVtDSDJdW0NAQEhdKFtDQEBIXShbQ0gzXSlbT0hdKVtDSDJdW0NIMl0y

>  <s_glide_docking_method>  (1) 
confgen

>  <s_i_glide_gridfile>  (1) 
gpcr_5ht2c_6bqh_protein_autoprepared_prepared

>  <s_lp_Force_Field>  (1) 
S-OPLS

>  <s_lp_Variant>  (1) 
DiffSBDD_9-4

>  <s_m_source_file>  (1) 
generated_GPCR_5HT2C_ligand_DiffSBDD_2026-06-23_prepared.sdf

>  <GenAI_Model>  (1) 
DiffSBDD

>  <Protein>  (1) 
GPCR_5HT2C

$$$$
DiffSBDD_22
     RDKit          3D

  0  0  0  0  0  0  0  0  0  0999 V3000
M  V30 BEGIN CTAB
M  V30 COUNTS 47 50 0 0 1
M  V30 BEGIN ATOM
M  V30 1 C 38.157606 33.097198 56.499229 0
M  V30 2 C 40.739653 30.784824 64.885688 0
M  V30 3 C 38.222605 29.400932 56.320538 0
M  V30 4 F 41.873990 31.390400 65.273210 0
M  V30 5 N 37.644981 30.763655 56.286494 0 CFG=2 CHG=1
M  V30 6 C 37.634882 31.329922 54.917493 0 CFG=1
M  V30 7 C 38.073713 32.754556 55.038447 0 CFG=2
M  V30 8 O 38.642096 29.191774 58.738287 0
M  V30 9 O 37.645190 26.131119 57.552596 0
M  V30 10 N 39.961568 28.481344 60.545416 0
M  V30 11 O 40.045145 25.498965 56.686952 0
M  V30 12 C 39.646754 27.118984 58.490453 0 CFG=1
M  V30 13 C 37.959725 28.615241 57.616704 0 CFG=2
M  V30 14 C 40.571589 29.632442 62.611503 0
M  V30 15 N 40.060702 30.137699 65.730390 0
M  V30 16 C 38.263915 31.747202 57.205520 0
M  V30 17 C 40.123451 29.791946 61.148416 0
M  V30 18 C 38.982559 31.737658 54.368015 0
M  V30 19 C 39.926037 26.866059 57.030512 0 CFG=2
M  V30 20 C 39.794171 28.485233 59.118002 0 CFG=1
M  V30 21 C 40.311626 30.905038 63.434190 0
M  V30 22 C 38.534570 27.226065 57.502240 0 CFG=2
M  V30 23 H 37.245326 33.618347 56.795023 0
M  V30 24 H 39.007117 33.738155 56.704352 0
M  V30 25 H 39.290839 29.466598 56.116470 0
M  V30 26 H 37.785547 28.837754 55.494163 0
M  V30 27 H 36.792141 31.069911 54.280768 0
M  V30 28 H 37.638024 33.507793 54.387891 0
M  V30 29 H 38.149252 25.386882 57.242798 0
M  V30 30 H 39.222687 27.974912 61.014144 0
M  V30 31 H 40.971271 25.307475 56.567873 0
M  V30 32 H 39.643131 26.266768 59.166933 0
M  V30 33 H 36.890700 28.565382 57.829415 0
M  V30 34 H 41.630561 29.369257 62.643116 0
M  V30 35 H 40.045092 28.797014 63.073895 0
M  V30 36 H 39.245835 29.688804 65.329057 0
M  V30 37 H 37.764457 31.748107 58.175211 0
M  V30 38 H 39.312810 31.501118 57.366813 0
M  V30 39 H 39.166146 30.312525 61.100093 0
M  V30 40 H 40.845392 30.387619 60.588313 0
M  V30 41 H 39.075344 31.764662 53.284394 0
M  V30 42 H 39.886199 31.441673 54.896690 0
M  V30 43 H 40.525473 27.559237 56.444093 0
M  V30 44 H 40.646608 28.995448 58.666388 0
M  V30 45 H 36.660812 30.765559 56.562974 0
M  V30 46 H 39.249434 31.152346 63.396320 0
M  V30 47 H 40.840736 31.749406 62.990610 0
M  V30 END ATOM
M  V30 BEGIN BOND
M  V30 1 1 4 2
M  V30 2 1 5 3
M  V30 3 1 6 5
M  V30 4 1 7 1
M  V30 5 1 7 6
M  V30 6 1 13 3
M  V30 7 1 13 8
M  V30 8 2 15 2
M  V30 9 1 16 1
M  V30 10 1 16 5
M  V30 11 1 17 10
M  V30 12 1 17 14
M  V30 13 1 18 6
M  V30 14 1 18 7
M  V30 15 1 19 11
M  V30 16 1 19 12
M  V30 17 1 20 8
M  V30 18 1 20 10
M  V30 19 1 20 12
M  V30 20 1 21 2
M  V30 21 1 21 14
M  V30 22 1 22 9 CFG=1
M  V30 23 1 22 12
M  V30 24 1 22 13
M  V30 25 1 22 19
M  V30 26 1 23 1
M  V30 27 1 24 1
M  V30 28 1 25 3
M  V30 29 1 26 3
M  V30 30 1 6 27 CFG=3
M  V30 31 1 7 28 CFG=3
M  V30 32 1 29 9
M  V30 33 1 30 10
M  V30 34 1 31 11
M  V30 35 1 12 32 CFG=1
M  V30 36 1 13 33 CFG=1
M  V30 37 1 34 14
M  V30 38 1 35 14
M  V30 39 1 36 15
M  V30 40 1 37 16
M  V30 41 1 38 16
M  V30 42 1 39 17
M  V30 43 1 40 17
M  V30 44 1 41 18
M  V30 45 1 42 18
M  V30 46 1 19 43 CFG=3
M  V30 47 1 20 44 CFG=3
M  V30 48 1 5 45 CFG=1
M  V30 49 1 46 21
M  V30 50 1 47 21
M  V30 END BOND
M  V30 END CTAB
M  END
>  <i_epik_Tot_Q>  (1) 
1

>  <i_epik_Tot_abs_Q>  (1) 
1

>  <i_i_glide_confnum>  (1) 
456

>  <i_i_glide_lignum>  (1) 
53

>  <i_i_glide_posenum>  (1) 
374

>  <i_i_glide_rotatable_bonds>  (1) 
9

>  <i_lp_mmshare_version>  (1) 
72125

>  <i_m_source_file_index>  (1) 
23

>  <i_f3d_flags>  (1) 
0

>  <num_sample>  (1) 
100

>  <b_lp_Chiralities_Consistent>  (1) 
1

>  <r_epik_Charging_Adjusted_Penalty>  (1) 
0.69687758696528612

>  <r_epik_Ionization_Penalty>  (1) 
0.32102159834462574

>  <r_epik_Ionization_Penalty_Charging>  (1) 
0.0068758800046254996

>  <r_epik_Ionization_Penalty_Neutral>  (1) 
0.31414571834000021

>  <r_epik_State_Penalty>  (1) 
0.69000170696066065

>  <r_glide_ring_energy>  (1) 
1.6455033096424427

>  <r_i_docking_score>  (1) 
-4.5677682946770153

>  <r_i_glide_ecoul>  (1) 
-7.4705611318230449

>  <r_i_glide_eff_state_penalty>  (1) 
0.69000170696066065

>  <r_i_glide_einternal>  (1) 
3.344077300820298

>  <r_i_glide_emodel>  (1) 
-45.083855961192732

>  <r_i_glide_emodel_strain>  (1) 
0.32686475404324256

>  <r_i_glide_energy>  (1) 
-35.817348267586546

>  <r_i_glide_erotb>  (1) 
1.3164448029953435

>  <r_i_glide_esite>  (1) 
-0.10000000000000001

>  <r_i_glide_evdw>  (1) 
-28.346787135763503

>  <r_i_glide_gscore>  (1) 
-5.2577700016376756

>  <r_i_glide_gscore_strain>  (1) 
0

>  <r_i_glide_hbond>  (1) 
-0.77853465563237156

>  <r_i_glide_ligand_efficiency>  (1) 
-0.20762583157622796

>  <r_i_glide_ligand_efficiency_ln>  (1) 
-1.1165291846158569

>  <r_i_glide_ligand_efficiency_sa>  (1) 
-0.58177574613662197

>  <r_i_glide_lipo>  (1) 
-0.96394404570216452

>  <r_i_glide_metal>  (1) 
-0

>  <r_i_glide_rewards>  (1) 
-2.1938125767368515

>  <r_lp_Energy>  (1) 
11.334823

>  <r_lp_tautomer_probability>  (1) 
0.49999300000000002

>  <s_epik_Chemistry_Notes>  (1) 
This compound has an imine and may undergo hydrolysis. This compound contains an acetal/aminal-like group ( X-CH(R)-Y where X, Y are N, S, or O) that may be acid/base labile, releasing an aldehyde.

>  <s_epik_cmdline>  (1) 
J2VwaWtfcHl0aG9uJywgJy1waHQnLCAnMS4wJywgJy1waCcsICc3LjQnLCAnLXRuJywgJzgnLCAnLW1hJywgJzUwMCcsICctaW1hZScsICc8aW5maWxlLm1hZT4nLCAnLW9tYWUnLCAnPG91dGZpbGUubWFlPic=

>  <s_epik_input>  (1) 
W0NAQEhdMTJbQ0BIXShbQ0gyXTIpW0NIMl1bQ0gyXU4xW0NIMl1bQ0BASF0zT1tDQEhdKFtDSF0oW0NASF00W09IXSlbQ0BAXTM0W09IXSlbTkhdW0NIMl1bQ0gyXVxbQ0hdPUMoXEYpW05IMl0=

>  <s_glide_docking_method>  (1) 
confgen

>  <s_i_glide_gridfile>  (1) 
gpcr_5ht2c_6bqh_protein_autoprepared_prepared

>  <s_lp_Force_Field>  (1) 
S-OPLS

>  <s_lp_Variant>  (1) 
DiffSBDD_22-1

>  <s_m_source_file>  (1) 
generated_GPCR_5HT2C_ligand_DiffSBDD_2026-06-23_prepared.sdf

>  <GenAI_Model>  (1) 
DiffSBDD

>  <Protein>  (1) 
GPCR_5HT2C

$$$$
DiffSBDD_19
     RDKit          3D

  0  0  0  0  0  0  0  0  0  0999 V3000
M  V30 BEGIN CTAB
M  V30 COUNTS 25 25 0 0 1
M  V30 BEGIN ATOM
M  V30 1 C 38.533754 32.656242 56.678132 0
M  V30 2 C 38.455799 28.429380 51.745258 0
M  V30 3 C 38.327766 28.344933 53.270017 0
M  V30 4 S 37.955272 30.597707 54.876098 0
M  V30 5 C 39.744575 30.329218 50.025493 0
M  V30 6 C 39.829908 30.323722 52.839225 0
M  V30 7 C 39.073987 29.532741 53.922141 0 CFG=2
M  V30 8 O 38.010299 31.915587 57.752308 0
M  V30 9 S 40.045315 29.217278 51.424256 0 CHG=1
M  V30 10 C 39.163313 31.712183 55.651166 0
M  V30 11 H 39.293770 33.328620 57.070253 0
M  V30 12 H 37.744376 33.266879 56.234006 0
M  V30 13 H 38.384271 27.457974 51.254847 0
M  V30 14 H 37.651655 29.050229 51.367896 0
M  V30 15 H 37.278848 28.299491 53.567946 0
M  V30 16 H 38.782197 27.414997 53.613467 0
M  V30 17 H 40.588020 31.009485 49.902639 0
M  V30 18 H 38.845137 30.926952 50.167336 0
M  V30 19 H 39.645136 29.748162 49.108598 0
M  V30 20 H 40.782934 30.709601 53.200165 0
M  V30 21 H 39.245908 31.191378 52.540820 0
M  V30 22 H 39.796051 29.125180 54.630657 0
M  V30 23 H 37.092436 31.740069 57.538242 0
M  V30 24 H 39.639135 32.302055 54.871637 0
M  V30 25 H 39.942279 31.118732 56.128002 0
M  V30 END ATOM
M  V30 BEGIN BOND
M  V30 1 1 3 2
M  V30 2 1 7 3
M  V30 3 1 7 4
M  V30 4 1 7 6
M  V30 5 1 8 1
M  V30 6 1 9 2
M  V30 7 1 9 5 CFG=3
M  V30 8 1 9 6
M  V30 9 1 10 1
M  V30 10 1 10 4
M  V30 11 1 11 1
M  V30 12 1 12 1
M  V30 13 1 13 2
M  V30 14 1 14 2
M  V30 15 1 15 3
M  V30 16 1 16 3
M  V30 17 1 17 5
M  V30 18 1 18 5
M  V30 19 1 19 5
M  V30 20 1 20 6
M  V30 21 1 21 6
M  V30 22 1 7 22 CFG=1
M  V30 23 1 23 8
M  V30 24 1 24 10
M  V30 25 1 25 10
M  V30 END BOND
M  V30 END CTAB
M  END
>  <i_epik_Tot_Q>  (1) 
1

>  <i_epik_Tot_abs_Q>  (1) 
1

>  <i_i_glide_confnum>  (1) 
5

>  <i_i_glide_lignum>  (1) 
46

>  <i_i_glide_posenum>  (1) 
116

>  <i_i_glide_rotatable_bonds>  (1) 
4

>  <i_lp_mmshare_version>  (1) 
72125

>  <i_m_source_file_index>  (1) 
20

>  <i_f3d_flags>  (1) 
0

>  <num_sample>  (1) 
100

>  <b_lp_Chiralities_Consistent>  (1) 
1

>  <r_epik_Charging_Adjusted_Penalty>  (1) 
0

>  <r_epik_Ionization_Penalty>  (1) 
5.2104904894925419e-08

>  <r_epik_Ionization_Penalty_Charging>  (1) 
0

>  <r_epik_Ionization_Penalty_Neutral>  (1) 
5.2104904894925419e-08

>  <r_epik_State_Penalty>  (1) 
-0

>  <r_glide_ring_energy>  (1) 
0

>  <r_i_docking_score>  (1) 
-4.5675035485800999

>  <r_i_glide_ecoul>  (1) 
-4.4825205077884398

>  <r_i_glide_eff_state_penalty>  (1) 
-0

>  <r_i_glide_einternal>  (1) 
2.2915256899084762

>  <r_i_glide_emodel>  (1) 
-29.813600717487063

>  <r_i_glide_emodel_strain>  (1) 
0.28976140542441264

>  <r_i_glide_energy>  (1) 
-22.509701559677271

>  <r_i_glide_erotb>  (1) 
1.467360054184516

>  <r_i_glide_esite>  (1) 
0

>  <r_i_glide_evdw>  (1) 
-18.027181051888832

>  <r_i_glide_gscore>  (1) 
-4.5675035485800999

>  <r_i_glide_gscore_strain>  (1) 
0

>  <r_i_glide_hbond>  (1) 
-0.16

>  <r_i_glide_ligand_efficiency>  (1) 
-0.45675035485800997

>  <r_i_glide_ligand_efficiency_ln>  (1) 
-1.3830085887171824

>  <r_i_glide_ligand_efficiency_sa>  (1) 
-0.98403880919046971

>  <r_i_glide_lipo>  (1) 
-1.314635382757473

>  <r_i_glide_metal>  (1) 
-0

>  <r_i_glide_rewards>  (1) 
-2.9864910912444351

>  <r_lp_Energy>  (1) 
6.6492299999999993

>  <r_lp_tautomer_probability>  (1) 
1

>  <s_epik_cmdline>  (1) 
J2VwaWtfcHl0aG9uJywgJy1waHQnLCAnMS4wJywgJy1waCcsICc3LjQnLCAnLXRuJywgJzgnLCAnLW1hJywgJzUwMCcsICctaW1hZScsICc8aW5maWxlLm1hZT4nLCAnLW9tYWUnLCAnPG91dGZpbGUubWFlPic=

>  <s_epik_input>  (1) 
W09IXVtDSDJdW0NIMl1TW0NASF0xW0NIMl1bQ0gyXVtTK10oW0NIM10pW0NIMl0x

>  <s_glide_docking_method>  (1) 
confgen

>  <s_i_glide_gridfile>  (1) 
gpcr_5ht2c_6bqh_protein_autoprepared_prepared

>  <s_lp_Force_Field>  (1) 
S-OPLS

>  <s_lp_Variant>  (1) 
DiffSBDD_19-1

>  <s_m_source_file>  (1) 
generated_GPCR_5HT2C_ligand_DiffSBDD_2026-06-23_prepared.sdf

>  <GenAI_Model>  (1) 
DiffSBDD

>  <Protein>  (1) 
GPCR_5HT2C

$$$$
DiffSBDD_9
     RDKit          3D

  0  0  0  0  0  0  0  0  0  0999 V3000
M  V30 BEGIN CTAB
M  V30 COUNTS 66 67 0 0 1
M  V30 BEGIN ATOM
M  V30 1 C 36.156658 33.734112 59.893251 0 CFG=1
M  V30 2 C 40.878478 28.195006 61.540002 0
M  V30 3 C 40.844939 35.737723 61.526179 0
M  V30 4 C 37.581724 26.620459 54.286554 0
M  V30 5 O 39.578184 35.755078 61.086403 0
M  V30 6 O 38.309836 24.983298 55.818751 0
M  V30 7 C 37.160691 34.355190 60.860229 0 CFG=1
M  V30 8 C 37.580120 34.051156 59.453129 0
M  V30 9 N 35.736628 32.348794 60.135290 0
M  V30 10 C 38.132467 29.468044 59.076338 0
M  V30 11 C 39.993506 27.736886 58.723775 0 CFG=2
M  V30 12 C 39.081823 26.782539 57.935651 0
M  V30 13 C 38.768141 27.258948 56.505368 0 CFG=1
M  V30 14 C 37.444376 30.538156 59.906667 0
M  V30 15 C 37.790102 26.298774 55.777905 0 CFG=1
M  V30 16 C 39.960670 29.227256 60.896794 0
M  V30 17 C 37.447942 29.132503 57.723983 0
M  V30 18 C 42.304242 28.187503 58.203471 0
M  V30 19 C 37.160128 35.765634 61.420653 0
M  V30 20 C 35.045244 34.487346 59.196867 0
M  V30 21 O 37.723363 30.779603 61.076595 0
M  V30 22 C 36.350593 31.354140 59.250111 0
M  V30 23 O 41.209044 36.119319 62.637225 0
M  V30 24 C 38.538468 36.208439 61.942335 0
M  V30 25 C 39.284675 28.855133 59.533584 0
M  V30 26 C 38.335910 28.740453 56.530659 0
M  V30 27 O 37.679350 33.407601 61.767747 0
M  V30 28 O 40.957264 28.225281 57.793170 0
M  V30 29 C 40.681817 30.587007 60.870652 0
M  V30 30 H 40.281471 27.337747 61.793120 0
M  V30 31 H 41.697154 27.888166 60.903222 0
M  V30 32 H 41.305837 28.559148 62.475012 0
M  V30 33 H 41.496176 35.337848 60.750155 0
M  V30 34 H 37.016278 27.540088 54.139753 0
M  V30 35 H 38.533447 26.725971 53.763936 0
M  V30 36 H 37.023614 25.826505 53.787158 0
M  V30 37 H 39.151953 24.981499 55.389250 0
M  V30 38 H 37.645121 34.875191 58.747872 0
M  V30 39 H 38.314270 33.261094 59.309056 0
M  V30 40 H 34.734343 32.305662 59.983257 0
M  V30 41 H 40.445154 27.037941 59.411334 0
M  V30 42 H 39.594890 25.821815 57.866860 0
M  V30 43 H 38.171526 26.576858 58.499744 0
M  V30 44 H 39.695959 27.222252 55.931919 0
M  V30 45 H 36.832809 26.284150 56.294270 0
M  V30 46 H 39.205039 29.234764 61.675636 0
M  V30 47 H 36.686081 28.375224 57.902128 0
M  V30 48 H 36.906773 29.989038 57.330755 0
M  V30 49 H 42.956198 28.439386 57.367166 0
M  V30 50 H 42.445150 28.938020 58.967782 0
M  V30 51 H 42.598634 27.208012 58.582349 0
M  V30 52 H 36.833771 36.452045 60.639611 0
M  V30 53 H 36.434899 35.830162 62.229965 0
M  V30 54 H 35.245278 35.557708 59.174361 0
M  V30 55 H 34.956697 34.141674 58.167856 0
M  V30 56 H 34.091780 34.304611 59.691764 0
M  V30 57 H 35.580166 30.673039 58.888808 0
M  V30 58 H 36.843741 31.832887 58.397806 0
M  V30 59 H 38.581218 37.292327 62.053184 0
M  V30 60 H 38.687940 35.778450 62.934889 0
M  V30 61 H 39.207190 29.395574 56.513587 0
M  V30 62 H 37.813297 28.986086 55.607360 0
M  V30 63 H 37.457901 32.543835 61.430944 0
M  V30 64 H 40.045282 31.415901 60.567812 0
M  V30 65 H 41.082889 30.845321 61.851567 0
M  V30 66 H 41.501355 30.554794 60.167772 0
M  V30 END ATOM
M  V30 BEGIN BOND
M  V30 1 1 5 3
M  V30 2 1 7 1
M  V30 3 1 8 1
M  V30 4 1 8 7
M  V30 5 1 1 9 CFG=1
M  V30 6 1 12 11
M  V30 7 1 13 12
M  V30 8 1 14 10
M  V30 9 1 15 4
M  V30 10 1 15 6
M  V30 11 1 15 13
M  V30 12 1 16 2
M  V30 13 1 17 10
M  V30 14 1 19 7
M  V30 15 1 20 1
M  V30 16 2 21 14
M  V30 17 1 22 9
M  V30 18 1 22 14
M  V30 19 2 23 3
M  V30 20 1 24 5
M  V30 21 1 24 19
M  V30 22 2 25 10
M  V30 23 1 25 11
M  V30 24 1 25 16
M  V30 25 1 26 13
M  V30 26 1 26 17
M  V30 27 1 7 27 CFG=1
M  V30 28 1 28 11
M  V30 29 1 28 18
M  V30 30 1 29 16
M  V30 31 1 30 2
M  V30 32 1 31 2
M  V30 33 1 32 2
M  V30 34 1 33 3
M  V30 35 1 34 4
M  V30 36 1 35 4
M  V30 37 1 36 4
M  V30 38 1 37 6
M  V30 39 1 38 8
M  V30 40 1 39 8
M  V30 41 1 40 9
M  V30 42 1 11 41 CFG=1
M  V30 43 1 42 12
M  V30 44 1 43 12
M  V30 45 1 13 44 CFG=3
M  V30 46 1 15 45 CFG=1
M  V30 47 1 46 16
M  V30 48 1 47 17
M  V30 49 1 48 17
M  V30 50 1 49 18
M  V30 51 1 50 18
M  V30 52 1 51 18
M  V30 53 1 52 19
M  V30 54 1 53 19
M  V30 55 1 54 20
M  V30 56 1 55 20
M  V30 57 1 56 20
M  V30 58 1 57 22
M  V30 59 1 58 22
M  V30 60 1 59 24
M  V30 61 1 60 24
M  V30 62 1 61 26
M  V30 63 1 62 26
M  V30 64 1 63 27
M  V30 65 1 64 29
M  V30 66 1 65 29
M  V30 67 1 66 29
M  V30 END BOND
M  V30 END CTAB
M  END
>  <i_epik_Tot_Q>  (1) 
0

>  <i_epik_Tot_abs_Q>  (1) 
0

>  <i_i_glide_confnum>  (1) 
2798

>  <i_i_glide_lignum>  (1) 
15

>  <i_i_glide_posenum>  (1) 
292

>  <i_i_glide_rotatable_bonds>  (1) 
13

>  <i_lp_mmshare_version>  (1) 
72125

>  <i_m_source_file_index>  (1) 
10

>  <i_f3d_flags>  (1) 
0

>  <num_sample>  (1) 
100

>  <b_lp_Chiralities_Consistent>  (1) 
1

>  <r_epik_Charging_Adjusted_Penalty>  (1) 
0.70191645640278022

>  <r_epik_Ionization_Penalty>  (1) 
0.70191663338499877

>  <r_epik_Ionization_Penalty_Charging>  (1) 
0

>  <r_epik_Ionization_Penalty_Neutral>  (1) 
0.70191663338499877

>  <r_epik_State_Penalty>  (1) 
0.70191645640278022

>  <r_glide_ring_energy>  (1) 
1.6804744559468872

>  <r_i_docking_score>  (1) 
-4.563810132051799

>  <r_i_glide_ecoul>  (1) 
-3.0019571215003507

>  <r_i_glide_eff_state_penalty>  (1) 
0.70191645640278022

>  <r_i_glide_einternal>  (1) 
17.72083448170126

>  <r_i_glide_emodel>  (1) 
-39.258298461109341

>  <r_i_glide_emodel_strain>  (1) 
2.2385239539694766

>  <r_i_glide_energy>  (1) 
-39.639193661349331

>  <r_i_glide_erotb>  (1) 
0.93101816362055201

>  <r_i_glide_esite>  (1) 
-0.0091211754992591761

>  <r_i_glide_evdw>  (1) 
-36.637236539848978

>  <r_i_glide_gscore>  (1) 
-5.2657265884545792

>  <r_i_glide_gscore_strain>  (1) 
0

>  <r_i_glide_hbond>  (1) 
-0.002927929149071651

>  <r_i_glide_ligand_efficiency>  (1) 
-0.15737276317419996

>  <r_i_glide_ligand_efficiency_ln>  (1) 
-1.0449967920002188

>  <r_i_glide_ligand_efficiency_sa>  (1) 
-0.48349898820476872

>  <r_i_glide_lipo>  (1) 
-2.7147096099883123

>  <r_i_glide_metal>  (1) 
-0

>  <r_i_glide_rewards>  (1) 
-1.1878306422209852

>  <r_lp_Energy>  (1) 
40.571261999999997

>  <s_epik_Chemistry_Notes>  (1) 
This compound has an ester and may undergo hydrolysis at high or low pH.

>  <s_epik_cmdline>  (1) 
J2VwaWtfcHl0aG9uJywgJy1waHQnLCAnMS4wJywgJy1waCcsICc3LjQnLCAnLXRuJywgJzgnLCAnLW1hJywgJzUwMCcsICctaW1hZScsICc8aW5maWxlLm1hZT4nLCAnLW9tYWUnLCAnPG91dGZpbGUubWFlPic=

>  <s_epik_input>  (1) 
Tz1bQ0hdT1tDSDJdW0NIMl1bQ0BAXShbQ0gyXTEpKFtPSF0pW0NAXTEoW0NIM10pW05IXVtDSDJdQyg9TylDMj1DKFtDSF0oW0NIM10pW0NIM10pW0NASF0oT1tDSDNdKVtDSDJdW0NAQEhdKFtDQEBIXShbQ0gzXSlbT0hdKVtDSDJdW0NIMl0y

>  <s_glide_docking_method>  (1) 
confgen

>  <s_i_glide_gridfile>  (1) 
gpcr_5ht2c_6bqh_protein_autoprepared_prepared

>  <s_lp_Force_Field>  (1) 
S-OPLS

>  <s_lp_Variant>  (1) 
DiffSBDD_9-3

>  <s_m_source_file>  (1) 
generated_GPCR_5HT2C_ligand_DiffSBDD_2026-06-23_prepared.sdf

>  <GenAI_Model>  (1) 
DiffSBDD

>  <Protein>  (1) 
GPCR_5HT2C

$$$$
DiffSBDD_90
     RDKit          3D

  0  0  0  0  0  0  0  0  0  0999 V3000
M  V30 BEGIN CTAB
M  V30 COUNTS 54 56 0 0 1
M  V30 BEGIN ATOM
M  V30 1 Cl 42.848291 31.822672 65.421324 0
M  V30 2 O 35.738181 34.937753 59.769908 0
M  V30 3 C 40.278361 32.866598 61.816862 0
M  V30 4 C 41.894072 32.220627 64.042588 0
M  V30 5 C 38.847504 30.953247 57.317211 0 CFG=1
M  V30 6 C 36.941916 35.585746 59.483499 0 CFG=1
M  V30 7 C 38.071062 28.753802 55.539844 0
M  V30 8 O 37.699891 33.082883 57.632729 0
M  V30 9 C 34.046646 33.328526 60.167669 0
M  V30 10 C 38.793201 32.129068 59.721481 0 CFG=1
M  V30 11 C 41.355192 31.194520 63.244645 0
M  V30 12 O 36.676769 36.947177 59.271994 0
M  V30 13 C 39.193743 32.144543 55.057532 0
M  V30 14 C 40.549619 31.510012 62.134220 0
M  V30 15 C 38.092518 29.730851 57.888211 0
M  V30 16 C 38.889116 34.441618 60.560125 0
M  V30 17 C 37.417402 31.806675 60.265371 0
M  V30 18 C 38.472918 31.051325 55.810085 0 CFG=1
M  V30 19 C 38.046099 35.443737 60.540866 0
M  V30 20 C 38.333530 28.479817 57.027788 0
M  V30 21 F 42.168012 34.556028 64.490771 0
M  V30 22 C 40.839719 33.897061 62.615590 0
M  V30 23 O 38.084040 36.531121 61.332468 0
M  V30 24 C 35.503276 33.603330 60.045286 0
M  V30 25 C 38.764543 32.303075 58.140038 0 CFG=1
M  V30 26 C 41.644445 33.570335 63.723823 0
M  V30 27 C 36.400912 32.649467 60.212843 0
M  V30 28 O 38.860548 29.855681 55.143280 0
M  V30 29 O 37.419389 30.578909 60.794313 0
M  V30 30 C 39.362188 33.219066 60.667963 0
M  V30 31 H 39.902155 30.670042 57.350577 0
M  V30 32 H 37.294032 35.223300 58.527742 0
M  V30 33 H 38.336823 27.879188 54.948157 0
M  V30 34 H 37.027867 28.977067 55.318592 0
M  V30 35 H 36.939631 32.535249 57.440085 0
M  V30 36 H 33.809721 32.345059 59.764187 0
M  V30 37 H 33.759368 33.337306 61.217081 0
M  V30 38 H 33.457841 34.063214 59.617642 0
M  V30 39 H 39.453299 31.275677 59.800279 0
M  V30 40 H 41.548030 30.160578 63.494479 0
M  V30 41 H 36.828051 37.367542 60.108575 0
M  V30 42 H 38.813129 33.132629 55.318981 0
M  V30 43 H 40.258135 32.130441 55.278370 0
M  V30 44 H 39.064233 32.021035 53.981452 0
M  V30 45 H 40.127827 30.712394 61.553960 0
M  V30 46 H 38.456130 29.479762 58.879884 0
M  V30 47 H 37.023854 29.939304 57.968341 0
M  V30 48 H 37.396730 31.207645 55.683831 0
M  V30 49 H 39.369920 28.156059 57.136992 0
M  V30 50 H 37.708253 27.658175 57.379629 0
M  V30 51 H 40.645105 34.934974 62.387846 0
M  V30 52 H 38.783238 36.403891 61.954056 0
M  V30 53 H 39.642295 32.890249 57.868596 0
M  V30 54 H 38.277009 30.207203 60.671110 0
M  V30 END ATOM
M  V30 BEGIN BOND
M  V30 1 1 4 1
M  V30 2 1 6 2
M  V30 3 1 11 4
M  V30 4 1 12 6
M  V30 5 1 14 3
M  V30 6 2 14 11
M  V30 7 1 15 5
M  V30 8 1 17 10
M  V30 9 1 18 5
M  V30 10 1 18 13
M  V30 11 1 19 6
M  V30 12 2 19 16
M  V30 13 1 20 7
M  V30 14 1 20 15
M  V30 15 2 22 3
M  V30 16 1 23 19
M  V30 17 1 24 2
M  V30 18 1 24 9
M  V30 19 1 25 5
M  V30 20 1 25 8
M  V30 21 1 25 10
M  V30 22 2 26 4
M  V30 23 1 26 21
M  V30 24 1 26 22
M  V30 25 2 27 17
M  V30 26 2 27 24
M  V30 27 1 28 7
M  V30 28 1 28 18
M  V30 29 1 29 17
M  V30 30 1 30 3
M  V30 31 1 30 10
M  V30 32 2 30 16
M  V30 33 1 5 31 CFG=3
M  V30 34 1 6 32 CFG=3
M  V30 35 1 33 7
M  V30 36 1 34 7
M  V30 37 1 35 8
M  V30 38 1 36 9
M  V30 39 1 37 9
M  V30 40 1 38 9
M  V30 41 1 10 39 CFG=3
M  V30 42 1 40 11
M  V30 43 1 41 12
M  V30 44 1 42 13
M  V30 45 1 43 13
M  V30 46 1 44 13
M  V30 47 1 45 14
M  V30 48 1 46 15
M  V30 49 1 47 15
M  V30 50 1 18 48 CFG=1
M  V30 51 1 49 20
M  V30 52 1 50 20
M  V30 53 1 51 22
M  V30 54 1 52 23
M  V30 55 1 25 53 CFG=3
M  V30 56 1 54 29
M  V30 END BOND
M  V30 END CTAB
M  END
>  <i_epik_Tot_Q>  (1) 
0

>  <i_epik_Tot_abs_Q>  (1) 
0

>  <i_i_glide_confnum>  (1) 
11

>  <i_i_glide_lignum>  (1) 
210

>  <i_i_glide_posenum>  (1) 
122

>  <i_i_glide_rotatable_bonds>  (1) 
7

>  <i_lp_mmshare_version>  (1) 
72125

>  <i_m_source_file_index>  (1) 
91

>  <i_f3d_flags>  (1) 
0

>  <num_sample>  (1) 
100

>  <b_lp_Chiralities_Consistent>  (1) 
1

>  <r_epik_Charging_Adjusted_Penalty>  (1) 
0

>  <r_epik_Ionization_Penalty>  (1) 
0.00021640466764567947

>  <r_epik_Ionization_Penalty_Charging>  (1) 
0

>  <r_epik_Ionization_Penalty_Neutral>  (1) 
0.00021640466764567947

>  <r_epik_State_Penalty>  (1) 
-0

>  <r_glide_ring_energy>  (1) 
0

>  <r_i_docking_score>  (1) 
-4.5619937230775793

>  <r_i_glide_ecoul>  (1) 
-4.0698465270158062

>  <r_i_glide_eff_state_penalty>  (1) 
-0

>  <r_i_glide_einternal>  (1) 
8.2025301682514069

>  <r_i_glide_emodel>  (1) 
-32.966672553169239

>  <r_i_glide_emodel_strain>  (1) 
7.5356568590463908

>  <r_i_glide_energy>  (1) 
-37.811904470421823

>  <r_i_glide_erotb>  (1) 
0.31077181142347338

>  <r_i_glide_esite>  (1) 
0

>  <r_i_glide_evdw>  (1) 
-33.742057943406017

>  <r_i_glide_gscore>  (1) 
-4.5619937230775793

>  <r_i_glide_gscore_strain>  (1) 
0.88391421476159771

>  <r_i_glide_hbond>  (1) 
-0.17543738288914332

>  <r_i_glide_ligand_efficiency>  (1) 
-0.15206645743591932

>  <r_i_glide_ligand_efficiency_ln>  (1) 
-1.0365346807860494

>  <r_i_glide_ligand_efficiency_sa>  (1) 
-0.47250583961013742

>  <r_i_glide_lipo>  (1) 
-1.9189207621712847

>  <r_i_glide_metal>  (1) 
-0

>  <r_i_glide_rewards>  (1) 
-1.36474172797955

>  <r_lp_Energy>  (1) 
4.0027919999999995

>  <r_lp_tautomer_probability>  (1) 
1

>  <s_epik_Chemistry_Notes>  (1) 
This compound contains an acetal/aminal-like group ( X-CH(R)-Y where X, Y are N, S, or O) that may be acid/base labile, releasing an aldehyde.

>  <s_epik_cmdline>  (1) 
J2VwaWtfcHl0aG9uJywgJy1waHQnLCAnMS4wJywgJy1waCcsICc3LjQnLCAnLXRuJywgJzgnLCAnLW1hJywgJzUwMCcsICctaW1hZScsICc8aW5maWxlLm1hZT4nLCAnLW9tYWUnLCAnPG91dGZpbGUubWFlPic=

>  <s_epik_input>  (1) 
RmMoW2NIXTEpYyhDbClbY0hdW2NIXWMxQyg9Qz1DMltPSF0pW0NAQEhdKEMoW09IXSk9Qz1DKFtDSDNdKU9bQ0BIXTJbT0hdKVtDQEhdKFtPSF0pW0NASF0zW0NIMl1bQ0gyXVtDSDJdT1tDQEBIXTNbQ0gzXQ==

>  <s_glide_docking_method>  (1) 
confgen

>  <s_i_glide_gridfile>  (1) 
gpcr_5ht2c_6bqh_protein_autoprepared_prepared

>  <s_lp_Force_Field>  (1) 
S-OPLS

>  <s_lp_Variant>  (1) 
DiffSBDD_90-1

>  <s_m_source_file>  (1) 
generated_GPCR_5HT2C_ligand_DiffSBDD_2026-06-23_prepared.sdf

>  <GenAI_Model>  (1) 
DiffSBDD

>  <Protein>  (1) 
GPCR_5HT2C

$$$$
DiffSBDD_67
     RDKit          3D

  0  0  0  0  0  0  0  0  0  0999 V3000
M  V30 BEGIN CTAB
M  V30 COUNTS 77 78 0 0 1
M  V30 BEGIN ATOM
M  V30 1 C 37.414812 31.793490 61.278145 0
M  V30 2 O 39.816800 35.287754 62.977650 0
M  V30 3 O 38.045138 38.766481 59.317390 0 CHG=-1
M  V30 4 C 38.476334 30.688701 61.432146 0 CFG=1
M  V30 5 O 40.787779 31.453135 61.332010 0
M  V30 6 C 40.230708 35.682966 61.892203 0
M  V30 7 C 38.596791 29.971018 60.023808 0 CFG=1
M  V30 8 C 36.136465 31.462831 60.782283 0
M  V30 9 C 39.910274 31.264752 63.559304 0
M  V30 10 C 38.883299 31.002221 58.894233 0
M  V30 11 N 37.995118 31.613715 55.524756 0 CFG=2 CHG=1
M  V30 12 C 37.039198 35.626979 61.733840 0
M  V30 13 C 39.242331 30.910274 53.698554 0
M  V30 14 C 37.933568 27.807120 57.865293 0
M  V30 15 C 35.195496 32.461842 60.547039 0
M  V30 16 C 39.982932 28.153417 61.229520 0
M  V30 17 C 38.858834 27.510997 59.053277 0
M  V30 18 C 36.745457 34.150299 61.368294 0
M  V30 19 C 37.970552 36.437525 60.819910 0 CFG=2
M  V30 20 C 38.153351 30.133550 55.555919 0
M  V30 21 C 38.785076 32.161815 54.403728 0
M  V30 22 C 38.646035 29.635367 54.203123 0
M  V30 23 C 39.863303 26.460543 58.564112 0
M  V30 24 O 38.083747 40.060983 61.064157 0
M  V30 25 O 40.044724 30.934571 52.772310 0
M  V30 26 C 37.728660 31.559641 58.053597 0
M  V30 27 C 38.244699 32.313731 56.809200 0
M  V30 28 C 38.045136 38.921129 60.552690 0
M  V30 29 C 41.645270 36.133130 61.719463 0
M  V30 30 C 39.340684 35.726442 60.657935 0
M  V30 31 C 39.506280 28.696975 59.870190 0 CFG=1
M  V30 32 C 37.714150 33.143720 61.587848 0
M  V30 33 N 38.031609 37.831686 61.347115 0
M  V30 34 C 39.824641 31.166272 62.041676 0
M  V30 35 C 35.497114 33.794689 60.830995 0
M  V30 36 H 38.064762 29.981278 62.149223 0
M  V30 37 H 37.611032 29.560992 59.852321 0
M  V30 38 H 35.890695 30.441591 60.553689 0
M  V30 39 H 39.237702 30.556894 64.039617 0
M  V30 40 H 40.926825 31.043728 63.886940 0
M  V30 41 H 39.645635 32.271808 63.886414 0
M  V30 42 H 39.307923 31.895293 59.350139 0
M  V30 43 H 39.630247 30.579707 58.219989 0
M  V30 44 H 36.103321 36.160131 61.809795 0
M  V30 45 H 37.415116 35.738104 62.746589 0
M  V30 46 H 38.513287 27.940536 56.959466 0
M  V30 47 H 37.297398 26.941733 57.676006 0
M  V30 48 H 37.257125 28.640563 58.001443 0
M  V30 49 H 34.229954 32.207141 60.136597 0
M  V30 50 H 39.169348 28.025017 61.941179 0
M  V30 51 H 40.445208 27.191176 61.112339 0
M  V30 52 H 40.749149 28.771459 61.688789 0
M  V30 53 H 38.236041 26.988619 59.761718 0
M  V30 54 H 37.504327 36.450388 59.835765 0
M  V30 55 H 38.931885 29.895320 56.274714 0
M  V30 56 H 37.220805 29.653058 55.849018 0
M  V30 57 H 38.165254 32.789206 53.763614 0
M  V30 58 H 39.638194 32.725043 54.768600 0
M  V30 59 H 37.823285 29.334252 53.557134 0
M  V30 60 H 39.365868 28.824711 54.289868 0
M  V30 61 H 40.806523 26.906344 58.248470 0
M  V30 62 H 40.043326 25.740777 59.347393 0
M  V30 63 H 39.475100 25.873887 57.729249 0
M  V30 64 H 37.004526 30.783141 57.816349 0
M  V30 65 H 37.185052 32.298986 58.631926 0
M  V30 66 H 37.762406 33.291943 56.760076 0
M  V30 67 H 39.309074 32.525081 56.918984 0
M  V30 68 H 41.638165 37.163248 61.370244 0
M  V30 69 H 42.179898 36.075285 62.667207 0
M  V30 70 H 42.129069 35.506540 60.969236 0
M  V30 71 H 39.189090 34.705601 60.308013 0
M  V30 72 H 39.936838 36.137719 59.858539 0
M  V30 73 H 40.421516 28.985838 59.351572 0
M  V30 74 H 38.673251 33.407338 61.985709 0
M  V30 75 H 38.056972 37.956660 62.347491 0
M  V30 76 H 34.768413 34.537923 60.640390 0
M  V30 77 H 37.017789 31.798982 55.326726 0
M  V30 END ATOM
M  V30 BEGIN BOND
M  V30 1 1 4 1
M  V30 2 2 6 2
M  V30 3 1 7 4
M  V30 4 2 8 1
M  V30 5 1 10 7
M  V30 6 1 15 8
M  V30 7 1 17 14
M  V30 8 1 18 12
M  V30 9 1 19 12
M  V30 10 1 20 11
M  V30 11 1 21 11
M  V30 12 1 21 13
M  V30 13 1 22 13
M  V30 14 1 22 20
M  V30 15 1 23 17
M  V30 16 2 25 13
M  V30 17 1 26 10
M  V30 18 1 27 11
M  V30 19 1 27 26
M  V30 20 1 28 3
M  V30 21 2 28 24
M  V30 22 1 29 6
M  V30 23 1 30 6
M  V30 24 1 30 19
M  V30 25 1 31 7
M  V30 26 1 31 16
M  V30 27 1 31 17
M  V30 28 1 32 1
M  V30 29 2 32 18
M  V30 30 1 33 19
M  V30 31 1 33 28
M  V30 32 1 34 4
M  V30 33 2 34 5
M  V30 34 1 34 9
M  V30 35 2 35 15
M  V30 36 1 35 18
M  V30 37 1 4 36 CFG=1
M  V30 38 1 7 37 CFG=3
M  V30 39 1 38 8
M  V30 40 1 39 9
M  V30 41 1 40 9
M  V30 42 1 41 9
M  V30 43 1 42 10
M  V30 44 1 43 10
M  V30 45 1 44 12
M  V30 46 1 45 12
M  V30 47 1 46 14
M  V30 48 1 47 14
M  V30 49 1 48 14
M  V30 50 1 49 15
M  V30 51 1 50 16
M  V30 52 1 51 16
M  V30 53 1 52 16
M  V30 54 1 53 17
M  V30 55 1 19 54 CFG=3
M  V30 56 1 55 20
M  V30 57 1 56 20
M  V30 58 1 57 21
M  V30 59 1 58 21
M  V30 60 1 59 22
M  V30 61 1 60 22
M  V30 62 1 61 23
M  V30 63 1 62 23
M  V30 64 1 63 23
M  V30 65 1 64 26
M  V30 66 1 65 26
M  V30 67 1 66 27
M  V30 68 1 67 27
M  V30 69 1 68 29
M  V30 70 1 69 29
M  V30 71 1 70 29
M  V30 72 1 71 30
M  V30 73 1 72 30
M  V30 74 1 31 73 CFG=3
M  V30 75 1 74 32
M  V30 76 1 75 33
M  V30 77 1 76 35
M  V30 78 1 11 77 CFG=3
M  V30 END BOND
M  V30 END CTAB
M  END
>  <i_epik_Tot_Q>  (1) 
0

>  <i_epik_Tot_abs_Q>  (1) 
2

>  <i_i_glide_confnum>  (1) 
2593

>  <i_i_glide_lignum>  (1) 
149

>  <i_i_glide_posenum>  (1) 
299

>  <i_i_glide_rotatable_bonds>  (1) 
15

>  <i_lp_mmshare_version>  (1) 
72125

>  <i_m_source_file_index>  (1) 
68

>  <i_f3d_flags>  (1) 
0

>  <num_sample>  (1) 
100

>  <b_lp_Chiralities_Consistent>  (1) 
1

>  <r_epik_Charging_Adjusted_Penalty>  (1) 
0.5296149838886226

>  <r_epik_Ionization_Penalty>  (1) 
0.26529925199373078

>  <r_epik_Ionization_Penalty_Charging>  (1) 
0.26525061984488274

>  <r_epik_Ionization_Penalty_Neutral>  (1) 
4.8632148848023016e-05

>  <r_epik_State_Penalty>  (1) 
0.26436436404373981

>  <r_glide_ring_energy>  (1) 
0

>  <r_i_docking_score>  (1) 
-4.549491487669667

>  <r_i_glide_ecoul>  (1) 
-6.4852778563509013

>  <r_i_glide_eff_state_penalty>  (1) 
0.26436436404373981

>  <r_i_glide_einternal>  (1) 
23.050736374583913

>  <r_i_glide_emodel>  (1) 
-27.257291932487611

>  <r_i_glide_emodel_strain>  (1) 
6.2329908878202147

>  <r_i_glide_energy>  (1) 
-28.957868718986969

>  <r_i_glide_erotb>  (1) 
0.8581402996549512

>  <r_i_glide_esite>  (1) 
-0.089651209072154792

>  <r_i_glide_evdw>  (1) 
-22.472590862636068

>  <r_i_glide_gscore>  (1) 
-4.8138558517134067

>  <r_i_glide_gscore_strain>  (1) 
0.55824772195505368

>  <r_i_glide_hbond>  (1) 
-0.16771508126047535

>  <r_i_glide_ligand_efficiency>  (1) 
-0.1299854710762762

>  <r_i_glide_ligand_efficiency_ln>  (1) 
-0.99871435206691295

>  <r_i_glide_ligand_efficiency_sa>  (1) 
-0.42519109525160054

>  <r_i_glide_lipo>  (1) 
-2.7541443909454739

>  <r_i_glide_metal>  (1) 
-0

>  <r_i_glide_rewards>  (1) 
-1.1223119704608697

>  <r_lp_Energy>  (1) 
28.989404

>  <r_lp_tautomer_probability>  (1) 
0.99994994000300153

>  <s_epik_cmdline>  (1) 
J2VwaWtfcHl0aG9uJywgJy1waHQnLCAnMS4wJywgJy1waCcsICc3LjQnLCAnLXRuJywgJzgnLCAnLW1hJywgJzUwMCcsICctaW1hZScsICc8aW5maWxlLm1hZT4nLCAnLW9tYWUnLCAnPG91dGZpbGUubWFlPic=

>  <s_epik_input>  (1) 
Tz1DKFtDSDNdKVtDSDJdW0NASF0oW05IXUMoPU8pW09IXSlbQ0gyXWMoW2NIXTEpW2NIXVtjSF1bY0hdYzFbQ0BIXShDKD1PKVtDSDNdKVtDQEhdKFtDQEBIXShbQ0gzXSlbQ0hdKFtDSDNdKVtDSDNdKVtDSDJdW0NIMl1bQ0gyXU4yW0NIMl1bQ0gyXUMoPU8pW0NIMl0y

>  <s_glide_docking_method>  (1) 
confgen

>  <s_i_glide_gridfile>  (1) 
gpcr_5ht2c_6bqh_protein_autoprepared_prepared

>  <s_lp_Force_Field>  (1) 
S-OPLS

>  <s_lp_Variant>  (1) 
DiffSBDD_67-1

>  <s_m_source_file>  (1) 
generated_GPCR_5HT2C_ligand_DiffSBDD_2026-06-23_prepared.sdf

>  <GenAI_Model>  (1) 
DiffSBDD

>  <Protein>  (1) 
GPCR_5HT2C

$$$$
DiffSBDD_1
     RDKit          3D

  0  0  0  0  0  0  0  0  0  0999 V3000
M  V30 BEGIN CTAB
M  V30 COUNTS 52 53 0 0 1
M  V30 BEGIN ATOM
M  V30 1 C 38.705934 31.554247 55.601180 0
M  V30 2 C 36.875118 34.062136 60.011965 0
M  V30 3 C 39.490919 28.460114 55.982089 0
M  V30 4 C 37.053466 27.964903 53.617381 0
M  V30 5 C 38.673436 26.179684 56.015013 0
M  V30 6 C 38.766578 31.119685 54.129994 0
M  V30 7 C 37.563472 32.740886 59.600669 0 CFG=2
M  V30 8 C 34.397634 33.393755 59.745107 0
M  V30 9 C 35.527248 34.347399 59.324559 0
M  V30 10 C 38.518911 27.559287 53.838449 0 CFG=1
M  V30 11 C 39.130046 27.249409 56.676267 0
M  V30 12 C 38.531126 26.141577 54.503539 0
M  V30 13 C 39.250736 27.611759 52.490548 0
M  V30 14 C 39.227773 28.628412 54.670651 0
M  V30 15 C 39.641223 29.871169 53.897460 0 CFG=1
M  V30 16 C 38.420919 32.211717 60.763120 0
M  V30 17 N 37.645361 33.217565 57.130571 0 CHG=1
M  V30 18 C 38.433131 32.869253 58.332956 0
M  V30 19 S 39.645088 29.359963 52.147052 0
M  V30 20 C 38.319405 33.023644 55.828122 0
M  V30 21 H 39.678123 31.394986 56.067066 0
M  V30 22 H 37.996213 30.901058 56.112114 0
M  V30 23 H 37.557184 34.895643 59.838625 0
M  V30 24 H 36.693663 34.063211 61.087907 0
M  V30 25 H 39.991042 29.245213 56.526537 0
M  V30 26 H 36.535637 27.256700 52.973920 0
M  V30 27 H 36.951805 28.937773 53.145500 0
M  V30 28 H 36.532299 27.998442 54.567702 0
M  V30 29 H 38.416168 25.279893 56.555064 0
M  V30 30 H 37.752496 30.960663 53.767787 0
M  V30 31 H 39.174451 31.931098 53.528986 0
M  V30 32 H 36.801397 31.983434 59.414123 0
M  V30 33 H 33.439688 33.732649 59.348397 0
M  V30 34 H 34.305095 33.339115 60.830056 0
M  V30 35 H 34.560198 32.383293 59.369987 0
M  V30 36 H 35.245143 35.366334 59.579249 0
M  V30 37 H 35.614355 34.343136 58.241043 0
M  V30 38 H 39.238659 27.201674 57.750074 0
M  V30 39 H 39.397471 25.574108 54.167761 0
M  V30 40 H 37.651243 25.559171 54.226201 0
M  V30 41 H 40.188720 27.064850 52.567565 0
M  V30 42 H 38.679763 27.166270 51.674472 0
M  V30 43 H 40.661781 30.137768 54.175529 0
M  V30 44 H 39.219511 32.909290 61.017616 0
M  V30 45 H 38.881029 31.254313 60.515227 0
M  V30 46 H 37.819487 32.056211 61.659861 0
M  V30 47 H 36.784919 32.654965 57.103213 0
M  V30 48 H 38.923885 31.910125 58.176998 0
M  V30 49 H 39.224965 33.605183 58.474756 0
M  V30 50 H 39.200328 33.663343 55.766350 0
M  V30 51 H 37.645163 33.356257 55.040422 0
M  V30 52 H 37.358667 34.184230 57.205050 0
M  V30 END ATOM
M  V30 BEGIN BOND
M  V30 1 1 6 1
M  V30 2 1 7 2
M  V30 3 1 9 2
M  V30 4 1 9 8
M  V30 5 1 10 4 CFG=3
M  V30 6 1 11 3
M  V30 7 2 11 5
M  V30 8 1 12 5
M  V30 9 1 12 10
M  V30 10 1 13 10
M  V30 11 2 14 3
M  V30 12 1 14 10
M  V30 13 1 15 6
M  V30 14 1 15 14
M  V30 15 1 16 7
M  V30 16 1 18 7
M  V30 17 1 18 17
M  V30 18 1 19 13
M  V30 19 1 19 15
M  V30 20 1 20 1
M  V30 21 1 20 17
M  V30 22 1 21 1
M  V30 23 1 22 1
M  V30 24 1 23 2
M  V30 25 1 24 2
M  V30 26 1 25 3
M  V30 27 1 26 4
M  V30 28 1 27 4
M  V30 29 1 28 4
M  V30 30 1 29 5
M  V30 31 1 30 6
M  V30 32 1 31 6
M  V30 33 1 7 32 CFG=3
M  V30 34 1 33 8
M  V30 35 1 34 8
M  V30 36 1 35 8
M  V30 37 1 36 9
M  V30 38 1 37 9
M  V30 39 1 38 11
M  V30 40 1 39 12
M  V30 41 1 40 12
M  V30 42 1 41 13
M  V30 43 1 42 13
M  V30 44 1 15 43 CFG=1
M  V30 45 1 44 16
M  V30 46 1 45 16
M  V30 47 1 46 16
M  V30 48 1 47 17
M  V30 49 1 48 18
M  V30 50 1 49 18
M  V30 51 1 50 20
M  V30 52 1 51 20
M  V30 53 1 52 17
M  V30 END BOND
M  V30 END CTAB
M  END
>  <i_epik_Tot_Q>  (1) 
1

>  <i_epik_Tot_abs_Q>  (1) 
1

>  <i_i_glide_confnum>  (1) 
24

>  <i_i_glide_lignum>  (1) 
3

>  <i_i_glide_posenum>  (1) 
211

>  <i_i_glide_rotatable_bonds>  (1) 
8

>  <i_lp_mmshare_version>  (1) 
72125

>  <i_m_source_file_index>  (1) 
2

>  <i_f3d_flags>  (1) 
0

>  <num_sample>  (1) 
100

>  <b_lp_Chiralities_Consistent>  (1) 
1

>  <r_epik_Charging_Adjusted_Penalty>  (1) 
0.00045066838380530003

>  <r_epik_Ionization_Penalty>  (1) 
0.00045066838380530003

>  <r_epik_Ionization_Penalty_Charging>  (1) 
0.00045066838380530003

>  <r_epik_Ionization_Penalty_Neutral>  (1) 
0

>  <r_epik_State_Penalty>  (1) 
-0

>  <r_glide_ring_energy>  (1) 
0

>  <r_i_docking_score>  (1) 
-4.5403084452659979

>  <r_i_glide_ecoul>  (1) 
-4.045917480566124

>  <r_i_glide_eff_state_penalty>  (1) 
-0

>  <r_i_glide_einternal>  (1) 
8.333839945562417

>  <r_i_glide_emodel>  (1) 
-41.639219675951921

>  <r_i_glide_emodel_strain>  (1) 
0.69407551489252484

>  <r_i_glide_energy>  (1) 
-34.571964386093207

>  <r_i_glide_erotb>  (1) 
2.9518461501230213

>  <r_i_glide_esite>  (1) 
-0.10000000000000001

>  <r_i_glide_evdw>  (1) 
-30.526046905527085

>  <r_i_glide_gscore>  (1) 
-4.5403084452659979

>  <r_i_glide_gscore_strain>  (1) 
0

>  <r_i_glide_hbond>  (1) 
-0.20318693400623725

>  <r_i_glide_ligand_efficiency>  (1) 
-0.2270154222632999

>  <r_i_glide_ligand_efficiency_ln>  (1) 
-1.1362894544552744

>  <r_i_glide_ligand_efficiency_sa>  (1) 
-0.61621466143023285

>  <r_i_glide_lipo>  (1) 
-2.8466009248086599

>  <r_i_glide_metal>  (1) 
-0

>  <r_i_glide_rewards>  (1) 
-2.2091767692128483

>  <r_lp_Energy>  (1) 
21.853418999999999

>  <r_lp_tautomer_probability>  (1) 
1

>  <s_epik_cmdline>  (1) 
J2VwaWtfcHl0aG9uJywgJy1waHQnLCAnMS4wJywgJy1waCcsICc3LjQnLCAnLXRuJywgJzgnLCAnLW1hJywgJzUwMCcsICctaW1hZScsICc8aW5maWxlLm1hZT4nLCAnLW9tYWUnLCAnPG91dGZpbGUubWFlPic=

>  <s_epik_input>  (1) 
W0NIMl0xW0NIXT1bQ0hdW0NIXT1DKFtDQF0xMltDSDNdKVtDQEBIXShTW0NIMl0yKVtDSDJdW0NIMl1bQ0gyXVtOSF1bQ0gyXVtDQEBIXShbQ0gzXSlbQ0gyXVtDSDJdW0NIM10=

>  <s_glide_docking_method>  (1) 
confgen

>  <s_i_glide_gridfile>  (1) 
gpcr_5ht2c_6bqh_protein_autoprepared_prepared

>  <s_lp_Force_Field>  (1) 
S-OPLS

>  <s_lp_Variant>  (1) 
DiffSBDD_1-1

>  <s_m_source_file>  (1) 
generated_GPCR_5HT2C_ligand_DiffSBDD_2026-06-23_prepared.sdf

>  <GenAI_Model>  (1) 
DiffSBDD

>  <Protein>  (1) 
GPCR_5HT2C

$$$$
DiffSBDD_67
     RDKit          3D

  0  0  0  0  0  0  0  0  0  0999 V3000
M  V30 BEGIN CTAB
M  V30 COUNTS 77 78 0 0 1
M  V30 BEGIN ATOM
M  V30 1 C 37.827305 30.191355 59.740382 0
M  V30 2 O 37.245134 34.382129 58.676797 0
M  V30 3 O 39.919510 37.299575 62.392922 0 CHG=-1
M  V30 4 C 38.724611 28.986435 59.327163 0 CFG=1
M  V30 5 O 40.542481 29.125169 60.937319 0
M  V30 6 C 37.001324 35.424862 59.279148 0
M  V30 7 C 38.446467 28.355072 57.893357 0 CFG=1
M  V30 8 C 36.464506 30.221527 59.365235 0
M  V30 9 C 41.256788 29.179773 58.651601 0
M  V30 10 C 38.714608 29.366716 56.730815 0
M  V30 11 N 38.917484 29.180561 53.500691 0 CFG=1 CHG=1
M  V30 12 C 38.077815 33.486865 61.709332 0
M  V30 13 C 39.561820 28.218846 51.536624 0
M  V30 14 C 39.212696 24.942614 55.965904 0
M  V30 15 C 35.645074 31.293237 59.768025 0
M  V30 16 C 39.418453 26.114799 58.853030 0
M  V30 17 C 38.300880 25.992300 56.635698 0
M  V30 18 C 37.508219 32.329060 60.909136 0
M  V30 19 C 37.308485 34.878838 61.767730 0 CFG=2
M  V30 20 C 38.898326 27.700242 53.677657 0
M  V30 21 C 38.845197 29.426688 52.046334 0
M  V30 22 C 39.644826 27.072117 52.500343 0
M  V30 23 C 37.049027 25.319717 57.232373 0
M  V30 24 O 39.816492 35.737742 60.872359 0
M  V30 25 O 40.045097 28.171107 50.415118 0
M  V30 26 C 37.604851 29.419596 55.680786 0
M  V30 27 C 37.965462 29.998438 54.306312 0
M  V30 28 C 39.326941 36.347992 61.847627 0
M  V30 29 C 37.245125 36.768853 58.654830 0
M  V30 30 C 36.432090 35.422991 60.646012 0
M  V30 31 C 39.089176 26.934983 57.607720 0 CFG=1
M  V30 32 C 38.352738 31.268584 60.507272 0
M  V30 33 N 38.127629 35.978424 62.330009 0
M  V30 34 C 40.214331 29.105547 59.751449 0
M  V30 35 C 36.154518 32.314722 60.555634 0
M  V30 36 H 38.367113 28.222120 60.018193 0
M  V30 37 H 37.382724 28.141784 57.886480 0
M  V30 38 H 36.043726 29.428217 58.771333 0
M  V30 39 H 40.845153 29.699642 57.799163 0
M  V30 40 H 42.130497 29.737757 58.967776 0
M  V30 41 H 41.585037 28.183236 58.363866 0
M  V30 42 H 38.832254 30.376401 57.128053 0
M  V30 43 H 39.653521 29.131188 56.231752 0
M  V30 44 H 38.316881 33.110495 62.701605 0
M  V30 45 H 39.054370 33.607421 61.253881 0
M  V30 46 H 39.499066 24.154345 56.662188 0
M  V30 47 H 38.705807 24.467437 55.125895 0
M  V30 48 H 40.129680 25.389398 55.576874 0
M  V30 49 H 34.610193 31.337427 59.469737 0
M  V30 50 H 38.513729 25.799739 59.367760 0
M  V30 51 H 40.000654 25.245742 58.566312 0
M  V30 52 H 40.044805 26.624093 59.566550 0
M  V30 53 H 37.910681 26.574001 55.824452 0
M  V30 54 H 36.445773 34.745342 62.436821 0
M  V30 55 H 39.410942 27.441290 54.599562 0
M  V30 56 H 37.874718 27.321565 53.693426 0
M  V30 57 H 37.818545 29.337757 51.692181 0
M  V30 58 H 39.310528 30.363963 51.740344 0
M  V30 59 H 39.193153 26.163654 52.110592 0
M  V30 60 H 40.670197 26.875265 52.790951 0
M  V30 61 H 37.303627 24.519345 57.928236 0
M  V30 62 H 36.425729 26.039565 57.759854 0
M  V30 63 H 36.439331 24.872941 56.445126 0
M  V30 64 H 37.245139 28.426849 55.503624 0
M  V30 65 H 36.759895 29.973201 56.092272 0
M  V30 66 H 37.026612 30.060853 53.767858 0
M  V30 67 H 38.340100 31.019382 54.398825 0
M  V30 68 H 37.978042 37.338558 59.222971 0
M  V30 69 H 37.645113 36.537693 57.679652 0
M  V30 70 H 36.318568 37.333546 58.570522 0
M  V30 71 H 35.464695 34.938086 60.578341 0
M  V30 72 H 36.203752 36.460973 60.880240 0
M  V30 73 H 40.054227 27.126126 57.138079 0
M  V30 74 H 39.392480 31.285685 60.792300 0
M  V30 75 H 37.755153 36.479777 63.121867 0
M  V30 76 H 35.504359 33.097534 60.871974 0
M  V30 77 H 39.840590 29.471114 53.790091 0
M  V30 END ATOM
M  V30 BEGIN BOND
M  V30 1 1 4 1
M  V30 2 2 6 2
M  V30 3 1 7 4
M  V30 4 2 8 1
M  V30 5 1 10 7
M  V30 6 1 15 8
M  V30 7 1 17 14
M  V30 8 1 18 12
M  V30 9 1 19 12
M  V30 10 1 20 11
M  V30 11 1 21 11
M  V30 12 1 21 13
M  V30 13 1 22 13
M  V30 14 1 22 20
M  V30 15 1 23 17
M  V30 16 2 25 13
M  V30 17 1 26 10
M  V30 18 1 27 11
M  V30 19 1 27 26
M  V30 20 1 28 3
M  V30 21 2 28 24
M  V30 22 1 29 6
M  V30 23 1 30 6
M  V30 24 1 30 19
M  V30 25 1 31 7
M  V30 26 1 31 16
M  V30 27 1 31 17
M  V30 28 1 32 1
M  V30 29 2 32 18
M  V30 30 1 33 19
M  V30 31 1 33 28
M  V30 32 1 34 4
M  V30 33 2 34 5
M  V30 34 1 34 9
M  V30 35 2 35 15
M  V30 36 1 35 18
M  V30 37 1 4 36 CFG=1
M  V30 38 1 7 37 CFG=1
M  V30 39 1 38 8
M  V30 40 1 39 9
M  V30 41 1 40 9
M  V30 42 1 41 9
M  V30 43 1 42 10
M  V30 44 1 43 10
M  V30 45 1 44 12
M  V30 46 1 45 12
M  V30 47 1 46 14
M  V30 48 1 47 14
M  V30 49 1 48 14
M  V30 50 1 49 15
M  V30 51 1 50 16
M  V30 52 1 51 16
M  V30 53 1 52 16
M  V30 54 1 53 17
M  V30 55 1 19 54 CFG=1
M  V30 56 1 55 20
M  V30 57 1 56 20
M  V30 58 1 57 21
M  V30 59 1 58 21
M  V30 60 1 59 22
M  V30 61 1 60 22
M  V30 62 1 61 23
M  V30 63 1 62 23
M  V30 64 1 63 23
M  V30 65 1 64 26
M  V30 66 1 65 26
M  V30 67 1 66 27
M  V30 68 1 67 27
M  V30 69 1 68 29
M  V30 70 1 69 29
M  V30 71 1 70 29
M  V30 72 1 71 30
M  V30 73 1 72 30
M  V30 74 1 31 73 CFG=3
M  V30 75 1 74 32
M  V30 76 1 75 33
M  V30 77 1 76 35
M  V30 78 1 11 77 CFG=1
M  V30 END BOND
M  V30 END CTAB
M  END
>  <i_epik_Tot_Q>  (1) 
0

>  <i_epik_Tot_abs_Q>  (1) 
2

>  <i_i_glide_confnum>  (1) 
1715

>  <i_i_glide_lignum>  (1) 
150

>  <i_i_glide_posenum>  (1) 
185

>  <i_i_glide_rotatable_bonds>  (1) 
15

>  <i_lp_mmshare_version>  (1) 
72125

>  <i_m_source_file_index>  (1) 
68

>  <i_f3d_flags>  (1) 
0

>  <num_sample>  (1) 
100

>  <b_lp_Chiralities_Consistent>  (1) 
1

>  <r_epik_Charging_Adjusted_Penalty>  (1) 
0.5296149838886226

>  <r_epik_Ionization_Penalty>  (1) 
0.26529925199373078

>  <r_epik_Ionization_Penalty_Charging>  (1) 
0.26525061984488274

>  <r_epik_Ionization_Penalty_Neutral>  (1) 
4.8632148848023016e-05

>  <r_epik_State_Penalty>  (1) 
0.26436436404373981

>  <r_glide_ring_energy>  (1) 
0

>  <r_i_docking_score>  (1) 
-4.5312480211024759

>  <r_i_glide_ecoul>  (1) 
0.99873394828730488

>  <r_i_glide_eff_state_penalty>  (1) 
0.26436436404373981

>  <r_i_glide_einternal>  (1) 
15.581219329555079

>  <r_i_glide_emodel>  (1) 
-26.826961178371107

>  <r_i_glide_emodel_strain>  (1) 
6.695340619543579

>  <r_i_glide_energy>  (1) 
-26.004991212191886

>  <r_i_glide_erotb>  (1) 
0.8581402996549512

>  <r_i_glide_esite>  (1) 
0

>  <r_i_glide_evdw>  (1) 
-27.003725160479192

>  <r_i_glide_gscore>  (1) 
-4.7956123851462156

>  <r_i_glide_gscore_strain>  (1) 
0.67383515488589474

>  <r_i_glide_hbond>  (1) 
-0.093082893078547627

>  <r_i_glide_ligand_efficiency>  (1) 
-0.12946422917435646

>  <r_i_glide_ligand_efficiency_ln>  (1) 
-0.99470950626348897

>  <r_i_glide_ligand_efficiency_sa>  (1) 
-0.42348607842677222

>  <r_i_glide_lipo>  (1) 
-3.2674719774176748

>  <r_i_glide_metal>  (1) 
-0

>  <r_i_glide_rewards>  (1) 
-1.7666568034099752

>  <r_lp_Energy>  (1) 
26.316364

>  <r_lp_tautomer_probability>  (1) 
0.99994994000300153

>  <s_epik_cmdline>  (1) 
J2VwaWtfcHl0aG9uJywgJy1waHQnLCAnMS4wJywgJy1waCcsICc3LjQnLCAnLXRuJywgJzgnLCAnLW1hJywgJzUwMCcsICctaW1hZScsICc8aW5maWxlLm1hZT4nLCAnLW9tYWUnLCAnPG91dGZpbGUubWFlPic=

>  <s_epik_input>  (1) 
Tz1DKFtDSDNdKVtDSDJdW0NASF0oW05IXUMoPU8pW09IXSlbQ0gyXWMoW2NIXTEpW2NIXVtjSF1bY0hdYzFbQ0BIXShDKD1PKVtDSDNdKVtDQEhdKFtDQEBIXShbQ0gzXSlbQ0hdKFtDSDNdKVtDSDNdKVtDSDJdW0NIMl1bQ0gyXU4yW0NIMl1bQ0gyXUMoPU8pW0NIMl0y

>  <s_glide_docking_method>  (1) 
confgen

>  <s_i_glide_gridfile>  (1) 
gpcr_5ht2c_6bqh_protein_autoprepared_prepared

>  <s_lp_Force_Field>  (1) 
S-OPLS

>  <s_lp_Variant>  (1) 
DiffSBDD_67-2

>  <s_m_source_file>  (1) 
generated_GPCR_5HT2C_ligand_DiffSBDD_2026-06-23_prepared.sdf

>  <GenAI_Model>  (1) 
DiffSBDD

>  <Protein>  (1) 
GPCR_5HT2C

$$$$
DiffSBDD_93
     RDKit          3D

  0  0  0  0  0  0  0  0  0  0999 V3000
M  V30 BEGIN CTAB
M  V30 COUNTS 83 84 0 0 1
M  V30 BEGIN ATOM
M  V30 1 C 39.229660 30.112254 62.104703 0
M  V30 2 O 40.500391 29.499959 62.184184 0
M  V30 3 C 38.466418 37.221590 63.937127 0
M  V30 4 C 40.044970 29.607232 52.195399 0
M  V30 5 O 38.046364 29.189647 59.768142 0
M  V30 6 C 38.061974 27.917617 54.871936 0
M  V30 7 N 37.244899 28.910479 54.567521 0
M  V30 8 O 37.686148 26.750630 54.922835 0
M  V30 9 O 41.248769 33.683385 64.504738 0
M  V30 10 C 39.742918 28.191880 51.743660 0
M  V30 11 C 39.582621 36.297435 63.517944 0
M  V30 12 C 38.397303 31.185011 58.471056 0
M  V30 13 C 39.719570 32.238749 60.853748 0
M  V30 14 C 39.811570 29.835349 54.901087 0 CFG=2
M  V30 15 C 39.535737 28.298007 55.142703 0 CFG=1
M  V30 16 C 38.191624 36.337955 61.672238 0 CFG=1
M  V30 17 C 39.954524 34.607446 61.761261 0 CFG=1
M  V30 18 C 41.383003 35.176796 61.617909 0
M  V30 19 C 38.248863 30.380184 57.137804 0
M  V30 20 S 40.998127 32.448390 63.373455 0 CHG=1
M  V30 21 O 37.645409 32.231820 54.810511 0
M  V30 22 N 39.094871 30.889581 60.869152 0
M  V30 23 O 42.445083 32.430412 62.507610 0
M  V30 24 O 36.237791 37.104890 63.044763 0
M  V30 25 F 36.472192 36.615500 60.076773 0
M  V30 26 C 39.003449 29.323459 51.130387 0
M  V30 27 C 38.848565 32.252282 55.553248 0
M  V30 28 C 39.257374 30.835182 56.031426 0 CFG=2
M  V30 29 C 38.501035 30.330636 59.761551 0
M  V30 30 C 40.243628 27.735453 56.425177 0
M  V30 31 C 36.348275 34.528230 61.167296 0
M  V30 32 C 39.777578 33.097057 62.151081 0 CFG=2
M  V30 33 O 40.045164 25.431951 55.851102 0
M  V30 34 C 39.542838 30.355161 53.431646 0
M  V30 35 C 37.230080 35.676003 60.642827 0 CFG=2
M  V30 36 C 39.951996 26.268843 56.776056 0
M  V30 37 C 37.578365 37.337279 62.672616 0 CFG=1
M  V30 38 O 39.651552 26.017700 57.964688 0 CHG=-1
M  V30 39 N 39.011466 35.450858 62.486561 0
M  V30 40 H 39.009669 30.694271 62.995206 0
M  V30 41 H 38.479971 29.337368 62.165117 0
M  V30 42 H 40.368448 28.564725 62.270430 0
M  V30 43 H 37.920676 36.779633 64.770891 0
M  V30 44 H 38.921114 38.137469 64.298879 0
M  V30 45 H 40.942288 30.039915 51.768136 0
M  V30 46 H 37.592986 29.861704 54.542031 0
M  V30 47 H 36.275668 28.719585 54.379082 0
M  V30 48 H 41.091095 33.299369 65.354423 0
M  V30 49 H 40.445308 27.733204 51.066340 0
M  V30 50 H 39.156854 27.511817 52.353284 0
M  V30 51 H 39.972401 35.738892 64.364742 0
M  V30 52 H 40.388257 36.917279 63.124463 0
M  V30 53 H 37.528996 31.836856 58.580887 0
M  V30 54 H 39.244936 31.846281 58.356382 0
M  V30 55 H 39.218633 32.851262 60.112716 0
M  V30 56 H 40.757628 32.105533 60.567421 0
M  V30 57 H 40.894193 29.921700 54.968174 0
M  V30 58 H 40.043732 27.736937 54.366154 0
M  V30 59 H 38.879007 36.934852 61.071011 0
M  V30 60 H 39.641020 34.677244 60.724996 0
M  V30 61 H 42.001883 34.567637 60.968304 0
M  V30 62 H 41.357600 36.169263 61.164696 0
M  V30 63 H 41.896926 35.274943 62.573291 0
M  V30 64 H 38.286760 29.314752 57.326807 0
M  V30 65 H 37.236120 30.523857 56.770433 0
M  V30 66 H 36.909463 32.479412 55.368811 0
M  V30 67 H 42.658646 33.336283 62.348650 0
M  V30 68 H 36.175692 36.257050 63.461128 0
M  V30 69 H 37.950581 29.335903 51.386797 0
M  V30 70 H 39.245395 29.587785 50.103966 0
M  V30 71 H 38.703330 32.931067 56.393259 0
M  V30 72 H 39.644904 32.699694 54.967806 0
M  V30 73 H 40.147571 31.007462 56.611248 0
M  V30 74 H 41.318204 27.792109 56.264296 0
M  V30 75 H 40.085758 28.343680 57.310316 0
M  V30 76 H 36.952469 33.679722 61.479618 0
M  V30 77 H 35.728957 34.818833 62.013416 0
M  V30 78 H 35.681658 34.171949 60.381024 0
M  V30 79 H 38.806435 33.002766 62.635914 0
M  V30 80 H 38.488058 30.537211 53.277203 0
M  V30 81 H 39.994244 31.338794 53.337270 0
M  V30 82 H 37.811340 35.284867 59.807340 0
M  V30 83 H 37.609667 38.301842 62.167685 0
M  V30 END ATOM
M  V30 BEGIN BOND
M  V30 1 1 2 1
M  V30 2 1 7 6
M  V30 3 2 8 6
M  V30 4 1 10 4
M  V30 5 1 11 3
M  V30 6 1 15 6
M  V30 7 1 15 14
M  V30 8 1 18 17
M  V30 9 1 19 12
M  V30 10 1 20 9
M  V30 11 1 22 1
M  V30 12 1 22 13
M  V30 13 1 23 20
M  V30 14 1 26 4
M  V30 15 1 26 10
M  V30 16 1 27 21
M  V30 17 1 28 14
M  V30 18 1 28 19
M  V30 19 1 28 27
M  V30 20 2 29 5
M  V30 21 1 29 12
M  V30 22 1 29 22
M  V30 23 1 30 15
M  V30 24 1 32 13
M  V30 25 1 32 17
M  V30 26 1 32 20
M  V30 27 1 34 4
M  V30 28 1 34 14
M  V30 29 1 35 16
M  V30 30 1 35 25
M  V30 31 1 35 31
M  V30 32 1 36 30
M  V30 33 2 36 33
M  V30 34 1 37 3
M  V30 35 1 37 16
M  V30 36 1 37 24
M  V30 37 1 38 36
M  V30 38 1 39 11
M  V30 39 1 39 16
M  V30 40 1 39 17
M  V30 41 1 40 1
M  V30 42 1 41 1
M  V30 43 1 42 2
M  V30 44 1 43 3
M  V30 45 1 44 3
M  V30 46 1 45 4
M  V30 47 1 46 7
M  V30 48 1 47 7
M  V30 49 1 48 9
M  V30 50 1 49 10
M  V30 51 1 50 10
M  V30 52 1 51 11
M  V30 53 1 52 11
M  V30 54 1 53 12
M  V30 55 1 54 12
M  V30 56 1 55 13
M  V30 57 1 56 13
M  V30 58 1 14 57 CFG=1
M  V30 59 1 15 58 CFG=3
M  V30 60 1 16 59 CFG=3
M  V30 61 1 17 60 CFG=3
M  V30 62 1 61 18
M  V30 63 1 62 18
M  V30 64 1 63 18
M  V30 65 1 64 19
M  V30 66 1 65 19
M  V30 67 1 66 21
M  V30 68 1 67 23
M  V30 69 1 68 24
M  V30 70 1 69 26
M  V30 71 1 70 26
M  V30 72 1 71 27
M  V30 73 1 72 27
M  V30 74 1 28 73 CFG=1
M  V30 75 1 74 30
M  V30 76 1 75 30
M  V30 77 1 76 31
M  V30 78 1 77 31
M  V30 79 1 78 31
M  V30 80 1 32 79 CFG=1
M  V30 81 1 80 34
M  V30 82 1 81 34
M  V30 83 1 35 82 CFG=3
M  V30 84 1 37 83 CFG=3
M  V30 END BOND
M  V30 END CTAB
M  END
>  <i_epik_Tot_Q>  (1) 
0

>  <i_epik_Tot_abs_Q>  (1) 
2

>  <i_i_glide_confnum>  (1) 
6275

>  <i_i_glide_lignum>  (1) 
216

>  <i_i_glide_posenum>  (1) 
14

>  <i_i_glide_rotatable_bonds>  (1) 
24

>  <i_lp_mmshare_version>  (1) 
72125

>  <i_m_source_file_index>  (1) 
94

>  <i_f3d_flags>  (1) 
0

>  <num_sample>  (1) 
100

>  <b_lp_Chiralities_Consistent>  (1) 
1

>  <r_epik_Charging_Adjusted_Penalty>  (1) 
0.37121505818338452

>  <r_epik_Ionization_Penalty>  (1) 
0.37121789513022985

>  <r_epik_Ionization_Penalty_Charging>  (1) 
0.00098257200063165957

>  <r_epik_Ionization_Penalty_Neutral>  (1) 
0.37023532312959817

>  <r_epik_State_Penalty>  (1) 
0.37023248618275284

>  <r_glide_ring_energy>  (1) 
0

>  <r_i_docking_score>  (1) 
-4.5218482535574687

>  <r_i_glide_ecoul>  (1) 
-4.5823736530037555

>  <r_i_glide_eff_state_penalty>  (1) 
0.37023248618275284

>  <r_i_glide_einternal>  (1) 
35.471196974540121

>  <r_i_glide_emodel>  (1) 
-30.435199802360479

>  <r_i_glide_emodel_strain>  (1) 
12.06591737383134

>  <r_i_glide_energy>  (1) 
-41.833659955628782

>  <r_i_glide_erotb>  (1) 
0.82577533054746977

>  <r_i_glide_esite>  (1) 
0

>  <r_i_glide_evdw>  (1) 
-37.251286302625026

>  <r_i_glide_gscore>  (1) 
-4.8920807397402211

>  <r_i_glide_gscore_strain>  (1) 
2.016479343457835

>  <r_i_glide_hbond>  (1) 
-0.2080461475479731

>  <r_i_glide_ligand_efficiency>  (1) 
-0.11594482701429407

>  <r_i_glide_ligand_efficiency_ln>  (1) 
-0.96961262585865304

>  <r_i_glide_ligand_efficiency_sa>  (1) 
-0.39319342412917219

>  <r_i_glide_lipo>  (1) 
-3.4542901435518987

>  <r_i_glide_metal>  (1) 
-0

>  <r_i_glide_rewards>  (1) 
-1.5220787595638394

>  <r_lp_Energy>  (1) 
12.407411999999999

>  <s_epik_Chemistry_Notes>  (1) 
This compound contains an acetal/aminal-like group ( X-CH(R)-Y where X, Y are N, S, or O) that may be acid/base labile, releasing an aldehyde.

>  <s_epik_cmdline>  (1) 
J2VwaWtfcHl0aG9uJywgJy1waHQnLCAnMS4wJywgJy1waCcsICc3LjQnLCAnLXRuJywgJzgnLCAnLW1hJywgJzUwMCcsICctaW1hZScsICc8aW5maWxlLm1hZT4nLCAnLW9tYWUnLCAnPG91dGZpbGUubWFlPic=

>  <s_epik_input>  (1) 
W0NIMl0xW0NIMl1bQ0hdMVtDSDJdW0NAQEhdKFtDQEBIXShDKD1PKVtOSDJdKVtDSDJdQyg9TylbT0hdKVtDQEBIXShbQ0gyXVtPSF0pW0NIMl1bQ0gyXUMoPU8pTihbQ0gyXVtPSF0pW0NIMl1bQ0BASF0oW1MrXShbT0hdKVtPSF0pW0NASF0oW0NIM10pTjJbQ0gyXVtDSDJdW0NASF0oW09IXSlbQ0BASF0yW0NASF0oRilbQ0gzXQ==

>  <s_glide_docking_method>  (1) 
confgen

>  <s_i_glide_gridfile>  (1) 
gpcr_5ht2c_6bqh_protein_autoprepared_prepared

>  <s_lp_Force_Field>  (1) 
S-OPLS

>  <s_lp_Variant>  (1) 
DiffSBDD_93-4

>  <s_m_source_file>  (1) 
generated_GPCR_5HT2C_ligand_DiffSBDD_2026-06-23_prepared.sdf

>  <GenAI_Model>  (1) 
DiffSBDD

>  <Protein>  (1) 
GPCR_5HT2C

$$$$
DiffSBDD_52
     RDKit          3D

  0  0  0  0  0  0  0  0  0  0999 V3000
M  V30 BEGIN CTAB
M  V30 COUNTS 68 70 0 0 1
M  V30 BEGIN ATOM
M  V30 1 C 37.457033 31.385921 59.771572 0 CFG=1
M  V30 2 O 36.279909 31.734873 60.462953 0
M  V30 3 C 39.282952 28.900499 55.661259 0 CFG=2
M  V30 4 C 39.999784 30.762777 53.354245 0
M  V30 5 C 38.374340 31.347012 60.970930 0 CFG=2
M  V30 6 O 38.769681 30.096771 53.585490 0
M  V30 7 C 38.905763 28.808680 54.163227 0
M  V30 8 O 36.400390 37.337842 60.361139 0 CHG=-1
M  V30 9 O 39.777836 27.660206 56.165817 0
M  V30 10 C 36.130383 29.483015 58.813076 0
M  V30 11 C 38.103696 32.676987 61.661297 0 CFG=2
M  V30 12 C 38.485167 35.191373 61.831906 0
M  V30 13 S 38.845120 39.337790 60.967753 0
M  V30 14 O 40.444567 29.829364 49.727467 0
M  V30 15 C 36.781462 37.740409 61.481934 0
M  V30 16 O 36.702902 32.831215 61.423559 0
M  V30 17 O 39.707516 31.076112 60.567797 0
M  V30 18 C 38.123582 29.450961 56.509107 0
M  V30 19 C 38.950125 36.493510 61.143788 0
M  V30 20 C 38.794183 29.236295 59.135760 0 CFG=2
M  V30 21 O 36.045673 38.136813 62.413059 0
M  V30 22 C 39.033637 26.488671 55.842183 0
M  V30 23 C 38.529019 30.023299 57.867469 0 CFG=2
M  V30 24 C 38.278154 37.769318 61.723842 0 CFG=1
M  V30 25 C 38.847454 33.901047 61.079081 0
M  V30 26 C 38.760441 27.720187 59.074101 0
M  V30 27 C 37.517472 30.084184 58.998033 0 CFG=2
M  V30 28 C 40.254804 30.913722 51.850792 0
M  V30 29 C 40.158905 29.590090 51.082851 0
M  V30 30 C 39.905064 29.733206 60.100982 0 CFG=2
M  V30 31 C 40.154075 28.844442 61.340382 0
M  V30 32 H 37.704382 32.200075 59.090211 0
M  V30 33 H 40.114810 29.593374 55.775005 0
M  V30 34 H 39.924609 31.737761 53.825759 0
M  V30 35 H 40.845133 30.271531 53.830740 0
M  V30 36 H 38.035268 30.560966 61.648799 0
M  V30 37 H 39.643583 28.232838 53.603436 0
M  V30 38 H 37.955766 28.287834 54.043627 0
M  V30 39 H 36.152764 28.525892 58.312049 0
M  V30 40 H 35.505074 30.137596 58.214692 0
M  V30 41 H 35.645020 29.338023 59.767794 0
M  V30 42 H 38.307755 32.589226 62.726851 0
M  V30 43 H 38.883128 35.156600 62.845934 0
M  V30 44 H 37.400914 35.207654 61.933742 0
M  V30 45 H 37.968604 39.276970 59.957468 0
M  V30 46 H 41.248971 30.324249 49.673471 0
M  V30 47 H 37.640407 30.266642 55.970197 0
M  V30 48 H 37.362354 28.688644 56.604029 0
M  V30 49 H 40.035376 36.559364 61.230074 0
M  V30 50 H 38.727731 36.415780 60.083794 0
M  V30 51 H 39.389376 25.660735 56.454154 0
M  V30 52 H 39.170114 26.204253 54.798596 0
M  V30 53 H 37.966161 26.604221 56.031281 0
M  V30 54 H 39.162572 30.900575 57.753164 0
M  V30 55 H 38.481839 37.737805 62.795225 0
M  V30 56 H 39.924826 33.739200 61.121592 0
M  V30 57 H 38.594586 34.024638 60.026323 0
M  V30 58 H 38.055988 27.354237 58.332332 0
M  V30 59 H 38.445027 27.337734 60.040058 0
M  V30 60 H 39.748011 27.323117 58.834243 0
M  V30 61 H 39.570960 31.645838 51.427846 0
M  V30 62 H 41.245417 31.337729 51.710288 0
M  V30 63 H 39.161913 29.154130 51.158811 0
M  V30 64 H 40.865938 28.858046 51.473126 0
M  V30 65 H 40.838189 29.737685 59.537800 0
M  V30 66 H 40.548955 27.867840 61.060158 0
M  V30 67 H 39.246390 28.675454 61.919239 0
M  V30 68 H 40.885590 29.300420 62.006806 0
M  V30 END ATOM
M  V30 BEGIN BOND
M  V30 1 1 2 1
M  V30 2 1 5 1
M  V30 3 1 6 4
M  V30 4 1 7 3
M  V30 5 1 7 6
M  V30 6 1 9 3
M  V30 7 1 11 5
M  V30 8 1 15 8
M  V30 9 1 16 2
M  V30 10 1 16 11
M  V30 11 1 17 5
M  V30 12 1 18 3
M  V30 13 1 19 12
M  V30 14 2 21 15
M  V30 15 1 22 9
M  V30 16 1 23 18
M  V30 17 1 23 20
M  V30 18 1 24 13
M  V30 19 1 24 15
M  V30 20 1 24 19
M  V30 21 1 25 11
M  V30 22 1 25 12
M  V30 23 1 20 26 CFG=3
M  V30 24 1 27 1
M  V30 25 1 27 10 CFG=3
M  V30 26 1 27 20
M  V30 27 1 27 23
M  V30 28 1 28 4
M  V30 29 1 29 14
M  V30 30 1 29 28
M  V30 31 1 30 17
M  V30 32 1 30 20
M  V30 33 1 31 30
M  V30 34 1 1 32 CFG=3
M  V30 35 1 3 33 CFG=3
M  V30 36 1 34 4
M  V30 37 1 35 4
M  V30 38 1 5 36 CFG=1
M  V30 39 1 37 7
M  V30 40 1 38 7
M  V30 41 1 39 10
M  V30 42 1 40 10
M  V30 43 1 41 10
M  V30 44 1 11 42 CFG=1
M  V30 45 1 43 12
M  V30 46 1 44 12
M  V30 47 1 45 13
M  V30 48 1 46 14
M  V30 49 1 47 18
M  V30 50 1 48 18
M  V30 51 1 49 19
M  V30 52 1 50 19
M  V30 53 1 51 22
M  V30 54 1 52 22
M  V30 55 1 53 22
M  V30 56 1 23 54 CFG=3
M  V30 57 1 24 55 CFG=1
M  V30 58 1 56 25
M  V30 59 1 57 25
M  V30 60 1 58 26
M  V30 61 1 59 26
M  V30 62 1 60 26
M  V30 63 1 61 28
M  V30 64 1 62 28
M  V30 65 1 63 29
M  V30 66 1 64 29
M  V30 67 1 30 65 CFG=3
M  V30 68 1 66 31
M  V30 69 1 67 31
M  V30 70 1 68 31
M  V30 END BOND
M  V30 END CTAB
M  END
>  <i_epik_Tot_Q>  (1) 
-1

>  <i_epik_Tot_abs_Q>  (1) 
1

>  <i_i_glide_confnum>  (1) 
432

>  <i_i_glide_lignum>  (1) 
108

>  <i_i_glide_posenum>  (1) 
348

>  <i_i_glide_rotatable_bonds>  (1) 
15

>  <i_lp_mmshare_version>  (1) 
72125

>  <i_m_source_file_index>  (1) 
53

>  <i_f3d_flags>  (1) 
0

>  <num_sample>  (1) 
100

>  <b_lp_Chiralities_Consistent>  (1) 
1

>  <r_epik_Charging_Adjusted_Penalty>  (1) 
9.782978408037009e-05

>  <r_epik_Ionization_Penalty>  (1) 
0.00048272347956945452

>  <r_epik_Ionization_Penalty_Charging>  (1) 
9.782978408037009e-05

>  <r_epik_Ionization_Penalty_Neutral>  (1) 
0.00038489369548908443

>  <r_epik_State_Penalty>  (1) 
-0

>  <r_glide_ring_energy>  (1) 
0

>  <r_i_docking_score>  (1) 
-4.5216083988696214

>  <r_i_glide_ecoul>  (1) 
-2.2271792484209501

>  <r_i_glide_eff_state_penalty>  (1) 
-0

>  <r_i_glide_einternal>  (1) 
17.577804639803354

>  <r_i_glide_emodel>  (1) 
-33.19792960398582

>  <r_i_glide_emodel_strain>  (1) 
1.3264951389770587

>  <r_i_glide_energy>  (1) 
-33.651734166231272

>  <r_i_glide_erotb>  (1) 
1.0396015441343791

>  <r_i_glide_esite>  (1) 
-0.062133612536964311

>  <r_i_glide_evdw>  (1) 
-31.424554917810319

>  <r_i_glide_gscore>  (1) 
-4.5216083988696214

>  <r_i_glide_gscore_strain>  (1) 
0

>  <r_i_glide_hbond>  (1) 
0

>  <r_i_glide_ligand_efficiency>  (1) 
-0.14585833544740714

>  <r_i_glide_ligand_efficiency_ln>  (1) 
-1.0197612646008187

>  <r_i_glide_ligand_efficiency_sa>  (1) 
-0.45819655296449857

>  <r_i_glide_lipo>  (1) 
-2.6563745460875063

>  <r_i_glide_metal>  (1) 
-0

>  <r_i_glide_rewards>  (1) 
-0.93739715122587097

>  <r_lp_Energy>  (1) 
56.475065000000001

>  <r_lp_tautomer_probability>  (1) 
1

>  <s_epik_cmdline>  (1) 
J2VwaWtfcHl0aG9uJywgJy1waHQnLCAnMS4wJywgJy1waCcsICc3LjQnLCAnLXRuJywgJzgnLCAnLW1hJywgJzUwMCcsICctaW1hZScsICc8aW5maWxlLm1hZT4nLCAnLW9tYWUnLCAnPG91dGZpbGUubWFlPic=

>  <s_epik_input>  (1) 
W09IXUMoPU8pW0NASF0oW1NIXSlbQ0gyXVtDSDJdW0NIMl1bQ0BASF0oT08xKVtDQEhdKE9bQ0BIXTJbQ0gzXSlbQ0BIXTFbQ0BdKFtDSDNdKShbQ0BdMjNbQ0gzXSlbQ0BASF0zW0NIMl1bQ0BASF0oT1tDSDNdKVtDSDJdT1tDSDJdW0NIMl1bQ0gyXVtPSF0=

>  <s_glide_docking_method>  (1) 
confgen

>  <s_i_glide_gridfile>  (1) 
gpcr_5ht2c_6bqh_protein_autoprepared_prepared

>  <s_lp_Force_Field>  (1) 
S-OPLS

>  <s_lp_Variant>  (1) 
DiffSBDD_52-1

>  <s_m_source_file>  (1) 
generated_GPCR_5HT2C_ligand_DiffSBDD_2026-06-23_prepared.sdf

>  <GenAI_Model>  (1) 
DiffSBDD

>  <Protein>  (1) 
GPCR_5HT2C

$$$$
DiffSBDD_16
     RDKit          3D

  0  0  0  0  0  0  0  0  0  0999 V3000
M  V30 BEGIN CTAB
M  V30 COUNTS 69 73 0 0 1
M  V30 BEGIN ATOM
M  V30 1 C 38.087268 28.987086 58.233569 0
M  V30 2 C 41.033235 29.566666 66.367369 0
M  V30 3 C 39.516498 31.308920 61.418761 0 CFG=1
M  V30 4 C 40.069801 31.874646 62.717676 0
M  V30 5 C 39.374973 28.967548 56.151780 0
M  V30 6 C 39.745814 27.630090 56.385095 0
M  V30 7 C 36.196288 33.136588 60.658614 0
M  V30 8 C 36.076910 33.996339 59.392237 0
M  V30 9 C 39.281564 32.409012 60.342918 0
M  V30 10 C 39.280252 26.966046 57.533555 0
M  V30 11 O 35.370843 30.937645 60.973026 0
M  V30 12 C 41.462101 28.611813 64.110748 0
M  V30 13 C 40.764064 29.474848 63.313821 0
M  V30 14 C 40.536372 29.161825 61.837293 0
M  V30 15 C 41.700688 28.752479 65.569885 0
M  V30 16 C 38.559741 29.641013 57.074400 0
M  V30 17 N 41.421979 29.555582 67.687493 0
M  V30 18 C 44.707502 28.198738 68.243577 0
M  V30 19 N 40.487032 30.325072 60.959861 0
M  V30 20 C 44.998787 27.805605 66.823144 0
M  V30 21 C 39.839127 29.682060 54.902117 0
M  V30 22 C 37.411392 34.241213 58.689326 0
M  V30 23 C 39.079453 33.250026 57.006704 0
M  V30 24 C 38.009415 32.982286 58.063319 0 CFG=1
M  V30 25 C 37.187050 29.700398 59.195614 0
M  V30 26 C 38.431995 31.941884 59.110479 0 CFG=2
M  V30 27 C 36.221978 31.618064 60.425342 0
M  V30 28 C 42.698100 27.932308 66.286200 0 CFG=2
M  V30 29 C 37.276607 31.024081 59.527858 0
M  V30 30 C 42.457607 28.786995 67.574297 0
M  V30 31 N 44.110376 27.851076 65.886191 0
M  V30 32 C 38.445213 27.636684 58.449664 0
M  V30 33 C 40.151972 30.787214 63.799334 0
M  V30 34 C 43.497044 28.687203 68.588240 0
M  V30 35 H 40.232361 30.216086 66.086382 0
M  V30 36 H 38.581790 30.804214 61.663754 0
M  V30 37 H 41.056837 32.304634 62.531909 0
M  V30 38 H 39.446624 32.695405 63.076726 0
M  V30 39 H 40.379132 27.108745 55.680848 0
M  V30 40 H 35.279331 33.309458 61.222249 0
M  V30 41 H 36.967500 33.477684 61.339587 0
M  V30 42 H 35.364482 33.555874 58.694178 0
M  V30 43 H 35.648443 34.959066 59.669437 0
M  V30 44 H 38.832596 33.258036 60.837514 0
M  V30 45 H 40.232480 32.829711 60.029156 0
M  V30 46 H 39.558312 25.939442 57.709997 0
M  V30 47 H 41.870529 27.731133 63.633877 0
M  V30 48 H 41.298719 28.468980 61.477260 0
M  V30 49 H 39.581761 28.640825 61.760675 0
M  V30 50 H 38.262336 30.650571 56.874959 0
M  V30 51 H 45.522270 28.113515 68.951331 0
M  V30 52 H 40.218794 30.012595 60.035771 0
M  V30 53 H 46.026459 27.491477 66.627838 0
M  V30 54 H 39.308338 30.624724 54.763075 0
M  V30 55 H 40.900599 29.909804 54.969589 0
M  V30 56 H 39.644363 29.069510 54.021142 0
M  V30 57 H 37.242858 34.947018 57.889952 0
M  V30 58 H 38.104679 34.729282 59.369961 0
M  V30 59 H 40.044643 33.337691 57.484688 0
M  V30 60 H 39.173565 32.440742 56.286331 0
M  V30 61 H 38.840284 34.134979 56.414130 0
M  V30 62 H 37.244654 32.538728 57.447922 0
M  V30 63 H 36.383485 29.114632 59.608868 0
M  V30 64 H 39.183301 31.327453 58.639011 0
M  V30 65 H 42.294024 26.930068 66.433079 0
M  V30 66 H 38.089565 27.118176 59.321910 0
M  V30 67 H 39.170710 30.537083 64.203674 0
M  V30 68 H 40.785384 31.271606 64.535151 0
M  V30 69 H 43.259626 29.035205 69.583718 0
M  V30 END ATOM
M  V30 BEGIN BOND
M  V30 1 1 4 3
M  V30 2 1 6 5
M  V30 3 1 8 7
M  V30 4 1 9 3
M  V30 5 2 10 6
M  V30 6 2 13 12
M  V30 7 1 14 13
M  V30 8 2 15 2
M  V30 9 1 15 12
M  V30 10 1 16 1
M  V30 11 2 16 5
M  V30 12 1 17 2
M  V30 13 1 19 3
M  V30 14 1 19 14
M  V30 15 1 20 18
M  V30 16 1 21 5
M  V30 17 1 22 8
M  V30 18 1 24 22
M  V30 19 1 24 23
M  V30 20 1 25 1
M  V30 21 1 26 9
M  V30 22 1 26 24
M  V30 23 1 27 7
M  V30 24 2 27 11
M  V30 25 1 28 15
M  V30 26 2 29 25
M  V30 27 1 29 26
M  V30 28 1 29 27
M  V30 29 2 30 17
M  V30 30 1 30 28
M  V30 31 2 31 20
M  V30 32 1 31 28
M  V30 33 2 32 1
M  V30 34 1 32 10
M  V30 35 1 33 4
M  V30 36 1 33 13
M  V30 37 2 34 18
M  V30 38 1 34 30
M  V30 39 1 35 2
M  V30 40 1 3 36 CFG=1
M  V30 41 1 37 4
M  V30 42 1 38 4
M  V30 43 1 39 6
M  V30 44 1 40 7
M  V30 45 1 41 7
M  V30 46 1 42 8
M  V30 47 1 43 8
M  V30 48 1 44 9
M  V30 49 1 45 9
M  V30 50 1 46 10
M  V30 51 1 47 12
M  V30 52 1 48 14
M  V30 53 1 49 14
M  V30 54 1 50 16
M  V30 55 1 51 18
M  V30 56 1 52 19
M  V30 57 1 53 20
M  V30 58 1 54 21
M  V30 59 1 55 21
M  V30 60 1 56 21
M  V30 61 1 57 22
M  V30 62 1 58 22
M  V30 63 1 59 23
M  V30 64 1 60 23
M  V30 65 1 61 23
M  V30 66 1 24 62 CFG=3
M  V30 67 1 63 25
M  V30 68 1 26 64 CFG=3
M  V30 69 1 28 65 CFG=1
M  V30 70 1 66 32
M  V30 71 1 67 33
M  V30 72 1 68 33
M  V30 73 1 69 34
M  V30 END BOND
M  V30 END CTAB
M  END
>  <i_epik_Tot_Q>  (1) 
0

>  <i_epik_Tot_abs_Q>  (1) 
0

>  <i_i_glide_confnum>  (1) 
21

>  <i_i_glide_lignum>  (1) 
40

>  <i_i_glide_posenum>  (1) 
165

>  <i_i_glide_rotatable_bonds>  (1) 
4

>  <i_lp_mmshare_version>  (1) 
72125

>  <i_m_source_file_index>  (1) 
17

>  <i_f3d_flags>  (1) 
0

>  <num_sample>  (1) 
100

>  <b_lp_Chiralities_Consistent>  (1) 
1

>  <r_epik_Charging_Adjusted_Penalty>  (1) 
0.56391873878667209

>  <r_epik_Ionization_Penalty>  (1) 
0.56391873878667209

>  <r_epik_Ionization_Penalty_Charging>  (1) 
0

>  <r_epik_Ionization_Penalty_Neutral>  (1) 
0.56391873878667209

>  <r_epik_State_Penalty>  (1) 
0.56391873878667209

>  <r_glide_ring_energy>  (1) 
0

>  <r_i_docking_score>  (1) 
-4.5203552958788595

>  <r_i_glide_ecoul>  (1) 
-4.0199782233234309

>  <r_i_glide_eff_state_penalty>  (1) 
0.56391873878667209

>  <r_i_glide_einternal>  (1) 
3.8675572052465625

>  <r_i_glide_emodel>  (1) 
-31.478069354984925

>  <r_i_glide_emodel_strain>  (1) 
0.57821893324518214

>  <r_i_glide_energy>  (1) 
-33.947574777435804

>  <r_i_glide_erotb>  (1) 
0.29265828080580603

>  <r_i_glide_esite>  (1) 
-0.067124730593641879

>  <r_i_glide_evdw>  (1) 
-29.92759655411237

>  <r_i_glide_gscore>  (1) 
-5.0842740346655315

>  <r_i_glide_gscore_strain>  (1) 
0

>  <r_i_glide_hbond>  (1) 
-0.37734544924437219

>  <r_i_glide_ligand_efficiency>  (1) 
-0.13295162634937821

>  <r_i_glide_ligand_efficiency_ln>  (1) 
-0.99867327653096938

>  <r_i_glide_ligand_efficiency_sa>  (1) 
-0.43071165772048015

>  <r_i_glide_lipo>  (1) 
-1.7888614113500179

>  <r_i_glide_metal>  (1) 
-0

>  <r_i_glide_rewards>  (1) 
-1.0442241630791724

>  <r_lp_Energy>  (1) 
58.143042999999999

>  <s_epik_Chemistry_Notes>  (1) 
This compound has an imine and may undergo hydrolysis.

>  <s_epik_cmdline>  (1) 
J2VwaWtfcHl0aG9uJywgJy1waHQnLCAnMS4wJywgJy1waCcsICc3LjQnLCAnLXRuJywgJzgnLCAnLW1hJywgJzUwMCcsICctaW1hZScsICc8aW5maWxlLm1hZT4nLCAnLW9tYWUnLCAnPG91dGZpbGUubWFlPic=

>  <s_epik_input>  (1) 
W2NIXTFbY0hdW2NIXWMoW0NIM10pW2NIXWMxL1tDSF09QyhDKD1PKVtDSDJdW0NIMl1bQ0gyXVtDQEhdMltDSDNdKVxbQ0BASF0yW0NIMl1bQ0BASF0zW0NIMl1bQ0gyXUMoL1tDSDJdW05IXTMpPVtDSF1cQzQ9W0NIXU49QyhbQ0BASF00NSlbQ0hdPVtDSF1bQ0hdPU41

>  <s_glide_docking_method>  (1) 
confgen

>  <s_i_glide_gridfile>  (1) 
gpcr_5ht2c_6bqh_protein_autoprepared_prepared

>  <s_lp_Force_Field>  (1) 
S-OPLS

>  <s_lp_Variant>  (1) 
DiffSBDD_16-8

>  <s_m_source_file>  (1) 
generated_GPCR_5HT2C_ligand_DiffSBDD_2026-06-23_prepared.sdf

>  <GenAI_Model>  (1) 
DiffSBDD

>  <Protein>  (1) 
GPCR_5HT2C

$$$$
DiffSBDD_19
     RDKit          3D

  0  0  0  0  0  0  0  0  0  0999 V3000
M  V30 BEGIN CTAB
M  V30 COUNTS 25 25 0 0 1
M  V30 BEGIN ATOM
M  V30 1 C 38.480345 32.319184 56.619604 0
M  V30 2 C 39.131151 28.140206 51.481847 0
M  V30 3 C 38.227725 28.464819 52.681993 0
M  V30 4 S 37.897400 30.295252 54.772856 0
M  V30 5 C 39.864832 30.469867 50.015145 0
M  V30 6 C 39.852249 30.330099 52.807463 0
M  V30 7 C 38.998027 29.380223 53.653478 0 CFG=2
M  V30 8 O 38.045300 33.314151 55.717536 0
M  V30 9 S 40.429257 29.401352 51.366581 0 CHG=1
M  V30 10 C 39.097607 31.139200 55.857350 0
M  V30 11 H 37.647053 31.997215 57.243312 0
M  V30 12 H 39.225739 32.761868 57.281613 0
M  V30 13 H 39.615728 27.175227 51.634367 0
M  V30 14 H 38.572003 28.067153 50.551671 0
M  V30 15 H 37.316527 28.941695 52.328125 0
M  V30 16 H 37.902162 27.548941 53.177055 0
M  V30 17 H 40.516462 31.340231 49.943351 0
M  V30 18 H 38.845139 30.819127 50.167510 0
M  V30 19 H 39.913101 29.932370 49.067921 0
M  V30 20 H 40.704390 30.725743 53.357646 0
M  V30 21 H 39.254063 31.186423 52.495412 0
M  V30 22 H 39.645043 28.749447 54.263825 0
M  V30 23 H 37.105366 33.197093 55.577298 0
M  V30 24 H 39.940289 31.515833 55.278707 0
M  V30 25 H 39.500874 30.407245 56.557311 0
M  V30 END ATOM
M  V30 BEGIN BOND
M  V30 1 1 3 2
M  V30 2 1 7 3
M  V30 3 1 7 4
M  V30 4 1 7 6
M  V30 5 1 8 1
M  V30 6 1 9 2
M  V30 7 1 9 5 CFG=3
M  V30 8 1 9 6
M  V30 9 1 10 1
M  V30 10 1 10 4
M  V30 11 1 11 1
M  V30 12 1 12 1
M  V30 13 1 13 2
M  V30 14 1 14 2
M  V30 15 1 15 3
M  V30 16 1 16 3
M  V30 17 1 17 5
M  V30 18 1 18 5
M  V30 19 1 19 5
M  V30 20 1 20 6
M  V30 21 1 21 6
M  V30 22 1 7 22 CFG=1
M  V30 23 1 23 8
M  V30 24 1 24 10
M  V30 25 1 25 10
M  V30 END BOND
M  V30 END CTAB
M  END
>  <i_epik_Tot_Q>  (1) 
1

>  <i_epik_Tot_abs_Q>  (1) 
1

>  <i_i_glide_confnum>  (1) 
3

>  <i_i_glide_lignum>  (1) 
46

>  <i_i_glide_posenum>  (1) 
397

>  <i_i_glide_rotatable_bonds>  (1) 
4

>  <i_lp_mmshare_version>  (1) 
72125

>  <i_m_source_file_index>  (1) 
20

>  <i_f3d_flags>  (1) 
0

>  <num_sample>  (1) 
100

>  <b_lp_Chiralities_Consistent>  (1) 
1

>  <r_epik_Charging_Adjusted_Penalty>  (1) 
0

>  <r_epik_Ionization_Penalty>  (1) 
5.2104904894925419e-08

>  <r_epik_Ionization_Penalty_Charging>  (1) 
0

>  <r_epik_Ionization_Penalty_Neutral>  (1) 
5.2104904894925419e-08

>  <r_epik_State_Penalty>  (1) 
-0

>  <r_glide_ring_energy>  (1) 
0

>  <r_i_docking_score>  (1) 
-4.5179138703663879

>  <r_i_glide_ecoul>  (1) 
-3.459852682537814

>  <r_i_glide_eff_state_penalty>  (1) 
-0

>  <r_i_glide_einternal>  (1) 
2.0588208934588867

>  <r_i_glide_emodel>  (1) 
-29.855269021663833

>  <r_i_glide_emodel_strain>  (1) 
1.1130944592157626

>  <r_i_glide_energy>  (1) 
-23.353234998431056

>  <r_i_glide_erotb>  (1) 
1.467360054184516

>  <r_i_glide_esite>  (1) 
0

>  <r_i_glide_evdw>  (1) 
-19.893382315893241

>  <r_i_glide_gscore>  (1) 
-4.5179138703663879

>  <r_i_glide_gscore_strain>  (1) 
0

>  <r_i_glide_hbond>  (1) 
-0.16

>  <r_i_glide_ligand_efficiency>  (1) 
-0.45179138703663879

>  <r_i_glide_ligand_efficiency_ln>  (1) 
-1.3679931759973378

>  <r_i_glide_ligand_efficiency_sa>  (1) 
-0.97335503688935576

>  <r_i_glide_lipo>  (1) 
-1.3528786212349018

>  <r_i_glide_metal>  (1) 
-0

>  <r_i_glide_rewards>  (1) 
-2.958748285140667

>  <r_lp_Energy>  (1) 
6.6492299999999993

>  <r_lp_tautomer_probability>  (1) 
1

>  <s_epik_cmdline>  (1) 
J2VwaWtfcHl0aG9uJywgJy1waHQnLCAnMS4wJywgJy1waCcsICc3LjQnLCAnLXRuJywgJzgnLCAnLW1hJywgJzUwMCcsICctaW1hZScsICc8aW5maWxlLm1hZT4nLCAnLW9tYWUnLCAnPG91dGZpbGUubWFlPic=

>  <s_epik_input>  (1) 
W09IXVtDSDJdW0NIMl1TW0NASF0xW0NIMl1bQ0gyXVtTK10oW0NIM10pW0NIMl0x

>  <s_glide_docking_method>  (1) 
confgen

>  <s_i_glide_gridfile>  (1) 
gpcr_5ht2c_6bqh_protein_autoprepared_prepared

>  <s_lp_Force_Field>  (1) 
S-OPLS

>  <s_lp_Variant>  (1) 
DiffSBDD_19-1

>  <s_m_source_file>  (1) 
generated_GPCR_5HT2C_ligand_DiffSBDD_2026-06-23_prepared.sdf

>  <GenAI_Model>  (1) 
DiffSBDD

>  <Protein>  (1) 
GPCR_5HT2C

$$$$
DiffSBDD_54
     RDKit          3D

  0  0  0  0  0  0  0  0  0  0999 V3000
M  V30 BEGIN CTAB
M  V30 COUNTS 41 42 0 0 1
M  V30 BEGIN ATOM
M  V30 1 C 38.366538 30.606492 54.212733 0
M  V30 2 C 38.480527 25.728515 56.143020 0
M  V30 3 C 40.511747 27.285080 56.266203 0
M  V30 4 C 41.128635 30.137924 49.788867 0
M  V30 5 C 39.817658 29.692109 51.897744 0
M  V30 6 S 38.046761 28.193817 55.304898 0 CHG=1
M  V30 7 C 37.615517 30.215839 56.608574 0
M  V30 8 N 37.733079 24.868696 55.477344 0
M  V30 9 C 37.714114 28.189536 52.183900 0
M  V30 10 C 37.248224 24.139838 56.552433 0
M  V30 11 N 37.692908 24.521650 57.767749 0
M  V30 12 N 38.483146 25.553234 57.443817 0
M  V30 13 N 38.852243 29.220443 54.171795 0
M  V30 14 C 39.032933 28.707286 52.799216 0 CFG=2
M  V30 15 C 38.379228 31.142751 55.653082 0
M  V30 16 C 40.284184 29.118339 50.562978 0
M  V30 17 O 38.226910 28.938135 56.588031 0
M  V30 18 C 39.247187 26.845897 55.501863 0 CFG=2
M  V30 19 H 37.354925 30.649181 53.811879 0
M  V30 20 H 38.979494 31.284556 53.623669 0
M  V30 21 H 41.240791 26.478840 56.315453 0
M  V30 22 H 40.293171 27.594868 57.288123 0
M  V30 23 H 40.989560 28.131592 55.774783 0
M  V30 24 H 41.427654 29.738077 48.821850 0
M  V30 25 H 42.033298 30.410355 50.333780 0
M  V30 26 H 40.566192 31.054235 49.605949 0
M  V30 27 H 40.690147 30.043841 52.443475 0
M  V30 28 H 39.245154 30.580250 51.664170 0
M  V30 29 H 37.649320 30.614655 57.622381 0
M  V30 30 H 36.562115 30.137673 56.332325 0
M  V30 31 H 37.860023 27.838960 51.164148 0
M  V30 32 H 36.929593 28.937131 52.167756 0
M  V30 33 H 37.324473 27.331851 52.730811 0
M  V30 34 H 36.561885 23.314133 56.435128 0
M  V30 35 H 38.978465 26.102038 58.133988 0
M  V30 36 H 39.668782 27.830008 52.883811 0
M  V30 37 H 39.409563 31.252753 55.994431 0
M  V30 38 H 37.934701 32.139305 55.678708 0
M  V30 39 H 40.844859 28.205402 50.750024 0
M  V30 40 H 39.429118 28.842690 49.945749 0
M  V30 41 H 39.540048 26.489068 54.516119 0
M  V30 END ATOM
M  V30 BEGIN BOND
M  V30 1 2 8 2
M  V30 2 1 10 8
M  V30 3 2 11 10
M  V30 4 1 12 2
M  V30 5 1 12 11
M  V30 6 1 13 1
M  V30 7 1 13 6
M  V30 8 1 14 5
M  V30 9 1 14 9
M  V30 10 1 14 13
M  V30 11 1 15 1
M  V30 12 1 15 7
M  V30 13 1 16 4
M  V30 14 1 16 5
M  V30 15 1 6 17 CFG=1
M  V30 16 1 17 7
M  V30 17 1 18 2
M  V30 18 1 18 3
M  V30 19 1 18 6
M  V30 20 1 19 1
M  V30 21 1 20 1
M  V30 22 1 21 3
M  V30 23 1 22 3
M  V30 24 1 23 3
M  V30 25 1 24 4
M  V30 26 1 25 4
M  V30 27 1 26 4
M  V30 28 1 27 5
M  V30 29 1 28 5
M  V30 30 1 29 7
M  V30 31 1 30 7
M  V30 32 1 31 9
M  V30 33 1 32 9
M  V30 34 1 33 9
M  V30 35 1 34 10
M  V30 36 1 35 12
M  V30 37 1 14 36 CFG=1
M  V30 38 1 37 15
M  V30 39 1 38 15
M  V30 40 1 39 16
M  V30 41 1 40 16
M  V30 42 1 18 41 CFG=3
M  V30 END BOND
M  V30 END CTAB
M  END
>  <i_epik_Tot_Q>  (1) 
1

>  <i_epik_Tot_abs_Q>  (1) 
1

>  <i_i_glide_confnum>  (1) 
9

>  <i_i_glide_lignum>  (1) 
119

>  <i_i_glide_posenum>  (1) 
136

>  <i_i_glide_rotatable_bonds>  (1) 
5

>  <i_lp_mmshare_version>  (1) 
72125

>  <i_m_source_file_index>  (1) 
55

>  <i_f3d_flags>  (1) 
0

>  <num_sample>  (1) 
100

>  <b_lp_Chiralities_Consistent>  (1) 
1

>  <r_epik_Charging_Adjusted_Penalty>  (1) 
1.0448623015598277

>  <r_epik_Ionization_Penalty>  (1) 
1.0474264341019792

>  <r_epik_Ionization_Penalty_Charging>  (1) 
0

>  <r_epik_Ionization_Penalty_Neutral>  (1) 
1.0474264341019792

>  <r_epik_State_Penalty>  (1) 
1.0448623015598277

>  <r_glide_ring_energy>  (1) 
0

>  <r_i_docking_score>  (1) 
-4.5132234249096017

>  <r_i_glide_ecoul>  (1) 
-1.3160915982978709

>  <r_i_glide_eff_state_penalty>  (1) 
1.0448623015598277

>  <r_i_glide_einternal>  (1) 
4.7673126719861934

>  <r_i_glide_emodel>  (1) 
-42.048997230341499

>  <r_i_glide_emodel_strain>  (1) 
1.507796661372371

>  <r_i_glide_energy>  (1) 
-31.698819300870255

>  <r_i_glide_erotb>  (1) 
0.97219657743730314

>  <r_i_glide_esite>  (1) 
0

>  <r_i_glide_evdw>  (1) 
-30.382727702572385

>  <r_i_glide_gscore>  (1) 
-5.5580857264694297

>  <r_i_glide_gscore_strain>  (1) 
0

>  <r_i_glide_hbond>  (1) 
0

>  <r_i_glide_ligand_efficiency>  (1) 
-0.25073463471720009

>  <r_i_glide_ligand_efficiency_ln>  (1) 
-1.1601008093247784

>  <r_i_glide_ligand_efficiency_sa>  (1) 
-0.65711063616521348

>  <r_i_glide_lipo>  (1) 
-2.0675947728066015

>  <r_i_glide_metal>  (1) 
-0

>  <r_i_glide_rewards>  (1) 
-2.7461374062268313

>  <r_lp_Energy>  (1) 
3.1792319999999998

>  <r_lp_tautomer_probability>  (1) 
0.94828448534560383

>  <s_epik_cmdline>  (1) 
J2VwaWtfcHl0aG9uJywgJy1waHQnLCAnMS4wJywgJy1waCcsICc3LjQnLCAnLXRuJywgJzgnLCAnLW1hJywgJzUwMCcsICctaW1hZScsICc8aW5maWxlLm1hZT4nLCAnLW9tYWUnLCAnPG91dGZpbGUubWFlPic=

>  <s_epik_input>  (1) 
W0NIM11bQ0gyXVtDSDJdW0NASF0oW0NIM10pTihbQ0gyXVtDSDJdW0NIMl1PMSlbUytdMVtDQEBIXShbQ0gzXSljMm5bY0hdbltuSF0y

>  <s_glide_docking_method>  (1) 
confgen

>  <s_i_glide_gridfile>  (1) 
gpcr_5ht2c_6bqh_protein_autoprepared_prepared

>  <s_lp_Force_Field>  (1) 
S-OPLS

>  <s_lp_Variant>  (1) 
DiffSBDD_54-5

>  <s_m_source_file>  (1) 
generated_GPCR_5HT2C_ligand_DiffSBDD_2026-06-23_prepared.sdf

>  <GenAI_Model>  (1) 
DiffSBDD

>  <Protein>  (1) 
GPCR_5HT2C

$$$$
DiffSBDD_22
     RDKit          3D

  0  0  0  0  0  0  0  0  0  0999 V3000
M  V30 BEGIN CTAB
M  V30 COUNTS 48 51 0 0 1
M  V30 BEGIN ATOM
M  V30 1 C 40.044734 30.746232 51.261231 0
M  V30 2 C 40.012984 31.417290 61.846187 0
M  V30 3 C 39.245106 28.471658 54.062575 0
M  V30 4 F 39.500635 30.537642 62.718957 0
M  V30 5 N 38.900108 29.348900 52.915459 0 CFG=2 CHG=1
M  V30 6 C 38.805269 28.647423 51.613886 0 CFG=1
M  V30 7 C 39.576185 29.472367 50.619496 0 CFG=2
M  V30 8 O 37.693969 29.498085 55.567185 0
M  V30 9 O 37.594173 26.213317 56.401400 0
M  V30 10 N 37.245142 30.311683 57.777398 0 CHG=1
M  V30 11 O 39.772813 26.263478 57.845837 0
M  V30 12 C 38.477080 28.266861 57.367167 0 CFG=1
M  V30 13 C 38.049580 28.239031 54.989883 0 CFG=2
M  V30 14 C 38.628835 30.821938 59.806646 0
M  V30 15 N 41.215079 31.782710 61.962798 0
M  V30 16 C 39.759757 30.559290 52.759434 0
M  V30 17 C 37.768294 31.371767 58.659392 0
M  V30 18 C 40.106454 28.132103 51.054432 0
M  V30 19 C 39.661501 27.402660 57.022745 0 CFG=2
M  V30 20 C 38.318155 29.662893 56.804883 0 CFG=1
M  V30 21 C 39.122111 31.942286 60.739936 0
M  V30 22 C 38.404200 27.357356 56.176148 0 CFG=2
M  V30 23 H 39.490774 31.588866 50.846587 0
M  V30 24 H 41.102412 30.913557 51.053856 0
M  V30 25 H 40.044528 28.922643 54.650112 0
M  V30 26 H 39.622524 27.510740 53.709050 0
M  V30 27 H 37.854622 28.180413 51.363194 0
M  V30 28 H 39.245139 29.531981 49.588337 0
M  V30 29 H 36.698268 26.484301 56.537370 0
M  V30 30 H 36.767218 29.610664 58.322599 0
M  V30 31 H 39.041048 25.703126 57.613932 0
M  V30 32 H 37.894697 27.999125 58.247919 0
M  V30 33 H 37.206242 27.825665 54.435369 0
M  V30 34 H 39.483182 30.277324 59.402406 0
M  V30 35 H 38.049048 30.097280 60.381102 0
M  V30 36 H 41.495549 32.462405 61.271570 0
M  V30 37 H 39.253921 31.429909 53.177952 0
M  V30 38 H 40.702067 30.459691 53.295305 0
M  V30 39 H 36.910127 31.906986 59.067686 0
M  V30 40 H 38.325596 32.094265 58.061236 0
M  V30 41 H 40.043729 27.307877 50.345976 0
M  V30 42 H 40.989064 28.137932 51.686939 0
M  V30 43 H 40.592678 27.833833 56.660787 0
M  V30 44 H 39.246538 30.232082 56.728878 0
M  V30 45 H 37.974483 29.706426 53.106343 0
M  V30 46 H 38.270927 32.448091 61.197228 0
M  V30 47 H 39.660322 32.698202 60.165666 0
M  V30 48 H 36.528923 30.801344 57.228078 0
M  V30 END ATOM
M  V30 BEGIN BOND
M  V30 1 1 4 2
M  V30 2 1 5 3
M  V30 3 1 6 5
M  V30 4 1 7 1
M  V30 5 1 7 6
M  V30 6 1 13 3
M  V30 7 1 13 8
M  V30 8 2 15 2
M  V30 9 1 16 1
M  V30 10 1 16 5
M  V30 11 1 17 10
M  V30 12 1 17 14
M  V30 13 1 18 6
M  V30 14 1 18 7
M  V30 15 1 19 11
M  V30 16 1 19 12
M  V30 17 1 20 8
M  V30 18 1 20 10
M  V30 19 1 20 12
M  V30 20 1 21 2
M  V30 21 1 21 14
M  V30 22 1 22 9 CFG=1
M  V30 23 1 22 12
M  V30 24 1 22 13
M  V30 25 1 22 19
M  V30 26 1 23 1
M  V30 27 1 24 1
M  V30 28 1 25 3
M  V30 29 1 26 3
M  V30 30 1 6 27 CFG=3
M  V30 31 1 7 28 CFG=3
M  V30 32 1 29 9
M  V30 33 1 30 10
M  V30 34 1 31 11
M  V30 35 1 12 32 CFG=1
M  V30 36 1 13 33 CFG=3
M  V30 37 1 34 14
M  V30 38 1 35 14
M  V30 39 1 36 15
M  V30 40 1 37 16
M  V30 41 1 38 16
M  V30 42 1 39 17
M  V30 43 1 40 17
M  V30 44 1 41 18
M  V30 45 1 42 18
M  V30 46 1 19 43 CFG=3
M  V30 47 1 20 44 CFG=3
M  V30 48 1 5 45 CFG=1
M  V30 49 1 46 21
M  V30 50 1 47 21
M  V30 51 1 48 10
M  V30 END BOND
M  V30 END CTAB
M  END
>  <i_epik_Tot_Q>  (1) 
2

>  <i_epik_Tot_abs_Q>  (1) 
2

>  <i_i_glide_confnum>  (1) 
84

>  <i_i_glide_lignum>  (1) 
55

>  <i_i_glide_posenum>  (1) 
16

>  <i_i_glide_rotatable_bonds>  (1) 
9

>  <i_lp_mmshare_version>  (1) 
72125

>  <i_m_source_file_index>  (1) 
23

>  <i_f3d_flags>  (1) 
0

>  <num_sample>  (1) 
100

>  <b_lp_Chiralities_Consistent>  (1) 
1

>  <r_epik_Charging_Adjusted_Penalty>  (1) 
1.666199543100769

>  <r_epik_Ionization_Penalty>  (1) 
0.63246952638049103

>  <r_epik_Ionization_Penalty_Charging>  (1) 
0.62883544751823761

>  <r_epik_Ionization_Penalty_Neutral>  (1) 
0.0036340788622534364

>  <r_epik_State_Penalty>  (1) 
1.0373640955825314

>  <r_glide_ring_energy>  (1) 
1.6455033096424563

>  <r_i_docking_score>  (1) 
-4.5121816161070196

>  <r_i_glide_ecoul>  (1) 
-4.6747779512496361

>  <r_i_glide_eff_state_penalty>  (1) 
1.0373640955825314

>  <r_i_glide_einternal>  (1) 
7.9726741631690254

>  <r_i_glide_emodel>  (1) 
-42.504331139420394

>  <r_i_glide_emodel_strain>  (1) 
0.48725041708284778

>  <r_i_glide_energy>  (1) 
-31.626020895138012

>  <r_i_glide_erotb>  (1) 
1.309053311580165

>  <r_i_glide_esite>  (1) 
-0.13472785755802269

>  <r_i_glide_evdw>  (1) 
-26.951242943888378

>  <r_i_glide_gscore>  (1) 
-5.549545711689551

>  <r_i_glide_gscore_strain>  (1) 
0

>  <r_i_glide_hbond>  (1) 
-0.20446065702594521

>  <r_i_glide_ligand_efficiency>  (1) 
-0.2050991643685009

>  <r_i_glide_ligand_efficiency_ln>  (1) 
-1.1029417727999846

>  <r_i_glide_ligand_efficiency_sa>  (1) 
-0.5746959252450935

>  <r_i_glide_lipo>  (1) 
-2.3433381953644221

>  <r_i_glide_metal>  (1) 
-0

>  <r_i_glide_rewards>  (1) 
-2.1272934734394613

>  <r_lp_Energy>  (1) 
22.761092999999999

>  <r_lp_tautomer_probability>  (1) 
0.49999300000000002

>  <s_epik_Chemistry_Notes>  (1) 
This compound has an imine and may undergo hydrolysis. This compound contains an acetal/aminal-like group ( X-CH(R)-Y where X, Y are N, S, or O) that may be acid/base labile, releasing an aldehyde.

>  <s_epik_cmdline>  (1) 
J2VwaWtfcHl0aG9uJywgJy1waHQnLCAnMS4wJywgJy1waCcsICc3LjQnLCAnLXRuJywgJzgnLCAnLW1hJywgJzUwMCcsICctaW1hZScsICc8aW5maWxlLm1hZT4nLCAnLW9tYWUnLCAnPG91dGZpbGUubWFlPic=

>  <s_epik_input>  (1) 
W0NAQEhdMTJbQ0BIXShbQ0gyXTIpW0NIMl1bQ0gyXU4xW0NIMl1bQ0BASF0zT1tDQEhdKFtDSF0oW0NASF00W09IXSlbQ0BAXTM0W09IXSlbTkhdW0NIMl1bQ0gyXVxbQ0hdPUMoXEYpW05IMl0=

>  <s_glide_docking_method>  (1) 
confgen

>  <s_i_glide_gridfile>  (1) 
gpcr_5ht2c_6bqh_protein_autoprepared_prepared

>  <s_lp_Force_Field>  (1) 
S-OPLS

>  <s_lp_Variant>  (1) 
DiffSBDD_22-3

>  <s_m_source_file>  (1) 
generated_GPCR_5HT2C_ligand_DiffSBDD_2026-06-23_prepared.sdf

>  <GenAI_Model>  (1) 
DiffSBDD

>  <Protein>  (1) 
GPCR_5HT2C

$$$$
DiffSBDD_0
     RDKit          3D

  0  0  0  0  0  0  0  0  0  0999 V3000
M  V30 BEGIN CTAB
M  V30 COUNTS 61 60 0 0 1
M  V30 BEGIN ATOM
M  V30 1 C 39.930230 30.482362 61.435774 0
M  V30 2 C 36.653575 33.581796 58.985717 0
M  V30 3 C 37.818705 24.643187 56.624251 0 CFG=1
M  V30 4 C 39.085102 32.480751 56.822079 0
M  V30 5 C 37.618563 32.384942 58.919452 0 CFG=1
M  V30 6 C 39.451593 29.378125 56.223491 0
M  V30 7 C 38.905633 25.613442 56.117738 0
M  V30 8 C 38.914506 30.452984 55.242554 0 CFG=2
M  V30 9 C 39.342330 30.731046 62.833881 0
M  V30 10 C 38.844634 32.806585 58.112414 0
M  V30 11 C 38.174349 31.632525 55.938037 0 CFG=2
M  V30 12 C 38.035591 31.898845 60.329086 0 CFG=1
M  V30 13 O 36.871218 31.634892 61.095388 0
M  V30 14 C 39.714835 26.345881 57.213163 0
M  V30 15 C 39.000012 27.506610 57.945732 0
M  V30 16 O 37.645160 32.469841 54.927403 0
M  V30 17 C 38.880651 30.600974 60.307123 0
M  V30 18 O 36.845108 25.337696 57.367757 0
M  V30 19 C 38.398746 28.609039 57.048056 0
M  V30 20 C 40.631597 29.114896 61.374805 0
M  V30 21 C 37.083708 23.945151 55.470191 0
M  V30 22 O 37.964904 29.832816 54.401197 0
M  V30 23 C 40.048439 30.937165 54.313090 0
M  V30 24 H 40.689324 31.247237 61.267061 0
M  V30 25 H 36.435629 33.957642 57.986295 0
M  V30 26 H 35.699814 33.309617 59.438689 0
M  V30 27 H 37.077895 34.403586 59.562628 0
M  V30 28 H 38.270219 23.892935 57.275311 0
M  V30 29 H 39.989463 32.842211 56.356574 0
M  V30 30 H 37.093521 31.557009 58.456019 0
M  V30 31 H 40.143971 29.840796 56.922096 0
M  V30 32 H 40.037117 28.660240 55.649200 0
M  V30 33 H 39.615556 25.027575 55.532141 0
M  V30 34 H 38.482469 26.327099 55.410962 0
M  V30 35 H 38.444336 30.137755 62.990072 0
M  V30 36 H 40.054513 30.483817 63.622007 0
M  V30 37 H 39.066130 31.776784 62.966854 0
M  V30 38 H 39.565035 33.417674 58.636163 0
M  V30 39 H 37.328478 31.217698 56.469631 0
M  V30 40 H 38.593838 32.697630 60.819682 0
M  V30 41 H 36.270405 31.154398 60.545025 0
M  V30 42 H 40.051371 25.616529 57.951335 0
M  V30 43 H 40.629105 26.734052 56.763262 0
M  V30 44 H 38.209896 27.103223 58.575942 0
M  V30 45 H 39.705580 27.962201 58.640808 0
M  V30 46 H 36.780263 32.789072 55.214700 0
M  V30 47 H 38.221153 29.731472 60.311313 0
M  V30 48 H 39.418860 30.530398 59.362947 0
M  V30 49 H 36.512377 26.044070 56.835006 0
M  V30 50 H 37.645304 28.176418 56.392912 0
M  V30 51 H 37.857606 29.308494 57.684570 0
M  V30 52 H 39.920838 28.301863 61.530666 0
M  V30 53 H 41.111841 28.955999 60.408828 0
M  V30 54 H 41.400169 29.024508 62.143558 0
M  V30 55 H 37.767216 23.369736 54.848849 0
M  V30 56 H 36.326642 23.255131 55.843311 0
M  V30 57 H 36.583819 24.664861 54.821318 0
M  V30 58 H 37.465688 30.544636 54.024062 0
M  V30 59 H 40.884464 31.340430 54.880657 0
M  V30 60 H 40.444480 30.129596 53.701080 0
M  V30 61 H 39.707969 31.709698 53.623409 0
M  V30 END ATOM
M  V30 BEGIN BOND
M  V30 1 1 5 2
M  V30 2 1 7 3
M  V30 3 1 8 6
M  V30 4 1 9 1
M  V30 5 2 10 4
M  V30 6 1 10 5
M  V30 7 1 11 4
M  V30 8 1 11 8
M  V30 9 1 12 5
M  V30 10 1 13 12
M  V30 11 1 14 7
M  V30 12 1 15 14
M  V30 13 1 16 11
M  V30 14 1 17 1
M  V30 15 1 17 12
M  V30 16 1 18 3
M  V30 17 1 19 6
M  V30 18 1 19 15
M  V30 19 1 20 1
M  V30 20 1 21 3
M  V30 21 1 8 22 CFG=3
M  V30 22 1 23 8
M  V30 23 1 24 1
M  V30 24 1 25 2
M  V30 25 1 26 2
M  V30 26 1 27 2
M  V30 27 1 3 28 CFG=1
M  V30 28 1 29 4
M  V30 29 1 5 30 CFG=3
M  V30 30 1 31 6
M  V30 31 1 32 6
M  V30 32 1 33 7
M  V30 33 1 34 7
M  V30 34 1 35 9
M  V30 35 1 36 9
M  V30 36 1 37 9
M  V30 37 1 38 10
M  V30 38 1 11 39 CFG=1
M  V30 39 1 12 40 CFG=1
M  V30 40 1 41 13
M  V30 41 1 42 14
M  V30 42 1 43 14
M  V30 43 1 44 15
M  V30 44 1 45 15
M  V30 45 1 46 16
M  V30 46 1 47 17
M  V30 47 1 48 17
M  V30 48 1 49 18
M  V30 49 1 50 19
M  V30 50 1 51 19
M  V30 51 1 52 20
M  V30 52 1 53 20
M  V30 53 1 54 20
M  V30 54 1 55 21
M  V30 55 1 56 21
M  V30 56 1 57 21
M  V30 57 1 58 22
M  V30 58 1 59 23
M  V30 59 1 60 23
M  V30 60 1 61 23
M  V30 END BOND
M  V30 END CTAB
M  END
>  <i_epik_Tot_Q>  (1) 
0

>  <i_epik_Tot_abs_Q>  (1) 
0

>  <i_i_glide_confnum>  (1) 
3510

>  <i_i_glide_lignum>  (1) 
2

>  <i_i_glide_posenum>  (1) 
71

>  <i_i_glide_rotatable_bonds>  (1) 
16

>  <i_lp_mmshare_version>  (1) 
72125

>  <i_m_source_file_index>  (1) 
1

>  <i_f3d_flags>  (1) 
0

>  <num_sample>  (1) 
100

>  <b_lp_Chiralities_Consistent>  (1) 
1

>  <r_epik_Charging_Adjusted_Penalty>  (1) 
0

>  <r_epik_Ionization_Penalty>  (1) 
5.9169763795933225e-07

>  <r_epik_Ionization_Penalty_Charging>  (1) 
0

>  <r_epik_Ionization_Penalty_Neutral>  (1) 
5.9169763795933225e-07

>  <r_epik_State_Penalty>  (1) 
-0

>  <r_glide_ring_energy>  (1) 
0

>  <r_i_docking_score>  (1) 
-4.4990138122798964

>  <r_i_glide_ecoul>  (1) 
-5.8141706798320563

>  <r_i_glide_eff_state_penalty>  (1) 
-0

>  <r_i_glide_einternal>  (1) 
7.2259037882098411

>  <r_i_glide_emodel>  (1) 
-43.898645317293543

>  <r_i_glide_emodel_strain>  (1) 
0.87759144678530276

>  <r_i_glide_energy>  (1) 
-38.37901331732769

>  <r_i_glide_erotb>  (1) 
1.894024340436764

>  <r_i_glide_esite>  (1) 
0

>  <r_i_glide_evdw>  (1) 
-32.56484263749563

>  <r_i_glide_gscore>  (1) 
-4.4990138122798964

>  <r_i_glide_gscore_strain>  (1) 
0

>  <r_i_glide_hbond>  (1) 
-0.325521475294197

>  <r_i_glide_ligand_efficiency>  (1) 
-0.19560929618608244

>  <r_i_glide_ligand_efficiency_ln>  (1) 
-1.0879023346110694

>  <r_i_glide_ligand_efficiency_sa>  (1) 
-0.55628681837560467

>  <r_i_glide_lipo>  (1) 
-2.1782735897346024

>  <r_i_glide_metal>  (1) 
-0

>  <r_i_glide_rewards>  (1) 
-1.388875353838271

>  <r_lp_Energy>  (1) 
14.425478999999999

>  <r_lp_tautomer_probability>  (1) 
1

>  <s_epik_cmdline>  (1) 
J2VwaWtfcHl0aG9uJywgJy1waHQnLCAnMS4wJywgJy1waCcsICc3LjQnLCAnLXRuJywgJzgnLCAnLW1hJywgJzUwMCcsICctaW1hZScsICc8aW5maWxlLm1hZT4nLCAnLW9tYWUnLCAnPG91dGZpbGUubWFlPic=

>  <s_epik_input>  (1) 
W0NIM11bQ0hdKFtDSDNdKVtDSDJdW0NASF0oW09IXSlbQ0BASF0oW0NIM10pL1tDSF09W0NIXVxbQ0BASF0oW09IXSlbQ0BAXShbT0hdKShbQ0gzXSlbQ0gyXVtDSDJdW0NIMl1bQ0gyXVtDSDJdW0NAQEhdKFtPSF0pW0NIM10=

>  <s_glide_docking_method>  (1) 
confgen

>  <s_i_glide_gridfile>  (1) 
gpcr_5ht2c_6bqh_protein_autoprepared_prepared

>  <s_lp_Force_Field>  (1) 
S-OPLS

>  <s_lp_Variant>  (1) 
DiffSBDD_0-2

>  <s_m_source_file>  (1) 
generated_GPCR_5HT2C_ligand_DiffSBDD_2026-06-23_prepared.sdf

>  <GenAI_Model>  (1) 
DiffSBDD

>  <Protein>  (1) 
GPCR_5HT2C

$$$$
DiffSBDD_93
     RDKit          3D

  0  0  0  0  0  0  0  0  0  0999 V3000
M  V30 BEGIN CTAB
M  V30 COUNTS 84 85 0 0 1
M  V30 BEGIN ATOM
M  V30 1 C 39.447338 28.268633 60.253332 0
M  V30 2 O 40.845780 28.141788 60.147028 0
M  V30 3 C 36.880227 29.951531 54.201019 0
M  V30 4 C 36.782521 36.814642 60.697055 0
M  V30 5 O 38.222981 30.577201 61.231858 0
M  V30 6 C 40.047119 33.229754 61.974902 0
M  V30 7 N 40.250853 32.866833 63.240581 0
M  V30 8 O 40.445270 32.564158 61.022885 0
M  V30 9 O 40.368073 25.737337 56.210565 0
M  V30 10 C 36.822571 37.180141 62.170223 0
M  V30 11 C 38.005016 30.003150 55.150069 0
M  V30 12 C 37.937881 31.631173 59.068403 0
M  V30 13 C 39.057601 29.269725 57.972824 0
M  V30 14 C 38.241692 34.525232 60.579002 0 CFG=1
M  V30 15 C 39.293674 34.556293 61.747494 0 CFG=2
M  V30 16 C 38.678168 28.418325 53.564925 0 CFG=1
M  V30 17 C 40.020986 28.656730 55.679158 0 CFG=1
M  V30 18 C 40.783150 29.912567 55.257145 0
M  V30 19 C 36.829026 32.578163 59.550330 0
M  V30 20 S 39.589653 26.536839 57.481831 0 CHG=1
M  V30 21 O 34.845393 33.015708 61.614974 0
M  V30 22 N 38.952548 29.383868 59.438612 0
M  V30 23 O 37.983409 26.464111 56.933890 0
M  V30 24 O 36.445235 27.737768 53.367902 0
M  V30 25 F 40.214853 26.537793 53.440406 0
M  V30 26 C 37.265338 38.181706 61.141858 0
M  V30 27 C 35.760654 34.035004 61.284192 0
M  V30 28 C 37.101194 33.458913 60.796561 0 CFG=2
M  V30 29 C 38.383489 30.478020 60.015375 0
M  V30 30 C 40.398025 35.652886 61.702324 0
M  V30 31 C 39.095421 27.044854 51.496958 0
M  V30 32 C 40.002926 28.307011 57.212689 0 CFG=2
M  V30 33 O 40.444979 35.967070 64.049622 0
M  V30 34 C 37.763508 35.894838 59.981772 0
M  V30 35 C 39.038650 26.997724 53.034689 0 CFG=2
M  V30 36 C 40.289881 36.529551 62.942371 0
M  V30 37 C 37.272403 28.850022 53.186878 0 CFG=1
M  V30 38 O 40.044889 37.737459 62.760676 0 CHG=-1
M  V30 39 N 38.692194 28.683958 55.028566 0 CFG=1 CHG=1
M  V30 40 H 39.230563 28.391750 61.316193 0
M  V30 41 H 38.945019 27.346894 59.975029 0
M  V30 42 H 41.221905 28.145422 61.017198 0
M  V30 43 H 36.045181 29.739403 54.862009 0
M  V30 44 H 36.795041 30.961768 53.803946 0
M  V30 45 H 35.832664 36.877784 60.168165 0
M  V30 46 H 39.928679 33.465507 63.992501 0
M  V30 47 H 40.748768 32.013044 63.445361 0
M  V30 48 H 41.156987 25.337321 56.564792 0
M  V30 49 H 35.875358 37.373799 62.669870 0
M  V30 50 H 37.574210 36.722612 62.801068 0
M  V30 51 H 37.623915 30.281859 56.123251 0
M  V30 52 H 38.599570 30.849718 54.808781 0
M  V30 53 H 38.815601 32.196393 58.756820 0
M  V30 54 H 37.500547 31.221066 58.160662 0
M  V30 55 H 39.346320 30.247144 57.594997 0
M  V30 56 H 38.037073 29.034921 57.678930 0
M  V30 57 H 38.845672 34.144599 59.760660 0
M  V30 58 H 38.677507 34.711551 62.624254 0
M  V30 59 H 39.347089 29.120002 53.072273 0
M  V30 60 H 40.577038 27.845937 55.256042 0
M  V30 61 H 41.834871 29.737678 55.367762 0
M  V30 62 H 40.708162 30.153851 54.199799 0
M  V30 63 H 40.445217 30.803132 55.790601 0
M  V30 64 H 36.546575 33.231093 58.721801 0
M  V30 65 H 35.959112 31.942183 59.706790 0
M  V30 66 H 34.567290 32.598609 60.812936 0
M  V30 67 H 37.506540 25.951759 57.570355 0
M  V30 68 H 36.547741 27.139311 52.636806 0
M  V30 69 H 38.329419 38.393495 61.066735 0
M  V30 70 H 36.614170 39.038625 60.974426 0
M  V30 71 H 35.898875 34.658443 62.167914 0
M  V30 72 H 35.294297 34.623936 60.495342 0
M  V30 73 H 37.408810 32.809686 61.610309 0
M  V30 74 H 41.414856 35.252742 61.717337 0
M  V30 75 H 40.375135 36.254155 60.805346 0
M  V30 76 H 38.108298 27.184287 51.056290 0
M  V30 77 H 39.730562 27.857817 51.147002 0
M  V30 78 H 39.510508 26.137634 51.082654 0
M  V30 79 H 41.019066 28.446264 57.577656 0
M  V30 80 H 38.617660 36.515381 59.767986 0
M  V30 81 H 37.315103 35.684504 59.009319 0
M  V30 82 H 38.340391 26.234102 53.376758 0
M  V30 83 H 37.245401 29.144369 52.138677 0
M  V30 84 H 38.097596 27.977116 55.444681 0
M  V30 END ATOM
M  V30 BEGIN BOND
M  V30 1 1 2 1
M  V30 2 1 7 6
M  V30 3 2 8 6
M  V30 4 1 10 4
M  V30 5 1 11 3
M  V30 6 1 15 6
M  V30 7 1 15 14
M  V30 8 1 18 17
M  V30 9 1 19 12
M  V30 10 1 20 9
M  V30 11 1 22 1
M  V30 12 1 22 13
M  V30 13 1 23 20
M  V30 14 1 26 4
M  V30 15 1 26 10
M  V30 16 1 27 21
M  V30 17 1 28 14
M  V30 18 1 28 19
M  V30 19 1 28 27
M  V30 20 2 29 5
M  V30 21 1 29 12
M  V30 22 1 29 22
M  V30 23 1 30 15
M  V30 24 1 32 13
M  V30 25 1 32 17
M  V30 26 1 32 20
M  V30 27 1 34 4
M  V30 28 1 34 14
M  V30 29 1 35 16
M  V30 30 1 35 25
M  V30 31 1 35 31
M  V30 32 1 36 30
M  V30 33 2 36 33
M  V30 34 1 37 3
M  V30 35 1 37 16
M  V30 36 1 37 24
M  V30 37 1 38 36
M  V30 38 1 39 11
M  V30 39 1 39 16
M  V30 40 1 39 17
M  V30 41 1 40 1
M  V30 42 1 41 1
M  V30 43 1 42 2
M  V30 44 1 43 3
M  V30 45 1 44 3
M  V30 46 1 45 4
M  V30 47 1 46 7
M  V30 48 1 47 7
M  V30 49 1 48 9
M  V30 50 1 49 10
M  V30 51 1 50 10
M  V30 52 1 51 11
M  V30 53 1 52 11
M  V30 54 1 53 12
M  V30 55 1 54 12
M  V30 56 1 55 13
M  V30 57 1 56 13
M  V30 58 1 14 57 CFG=3
M  V30 59 1 15 58 CFG=1
M  V30 60 1 16 59 CFG=3
M  V30 61 1 17 60 CFG=3
M  V30 62 1 61 18
M  V30 63 1 62 18
M  V30 64 1 63 18
M  V30 65 1 64 19
M  V30 66 1 65 19
M  V30 67 1 66 21
M  V30 68 1 67 23
M  V30 69 1 68 24
M  V30 70 1 69 26
M  V30 71 1 70 26
M  V30 72 1 71 27
M  V30 73 1 72 27
M  V30 74 1 28 73 CFG=1
M  V30 75 1 74 30
M  V30 76 1 75 30
M  V30 77 1 76 31
M  V30 78 1 77 31
M  V30 79 1 78 31
M  V30 80 1 32 79 CFG=1
M  V30 81 1 80 34
M  V30 82 1 81 34
M  V30 83 1 35 82 CFG=3
M  V30 84 1 37 83 CFG=3
M  V30 85 1 39 84 CFG=1
M  V30 END BOND
M  V30 END CTAB
M  END
>  <i_epik_Tot_Q>  (1) 
1

>  <i_epik_Tot_abs_Q>  (1) 
3

>  <i_i_glide_confnum>  (1) 
6513

>  <i_i_glide_lignum>  (1) 
218

>  <i_i_glide_posenum>  (1) 
6

>  <i_i_glide_rotatable_bonds>  (1) 
24

>  <i_lp_mmshare_version>  (1) 
72125

>  <i_m_source_file_index>  (1) 
94

>  <i_f3d_flags>  (1) 
0

>  <num_sample>  (1) 
100

>  <b_lp_Chiralities_Consistent>  (1) 
1

>  <r_epik_Charging_Adjusted_Penalty>  (1) 
0.90916677635763199

>  <r_epik_Ionization_Penalty>  (1) 
0.45507897092921873

>  <r_epik_Ionization_Penalty_Charging>  (1) 
0.45507471778648678

>  <r_epik_Ionization_Penalty_Neutral>  (1) 
4.2531427319391784e-06

>  <r_epik_State_Penalty>  (1) 
0.45409205857114521

>  <r_glide_ring_energy>  (1) 
0

>  <r_i_docking_score>  (1) 
-4.4758111220628027

>  <r_i_glide_ecoul>  (1) 
-8.2970231868603008

>  <r_i_glide_eff_state_penalty>  (1) 
0.45409205857114521

>  <r_i_glide_einternal>  (1) 
16.683079179078256

>  <r_i_glide_emodel>  (1) 
-19.981746051290273

>  <r_i_glide_emodel_strain>  (1) 
12.640827928459984

>  <r_i_glide_energy>  (1) 
-21.747176597738459

>  <r_i_glide_erotb>  (1) 
0.82188833391367333

>  <r_i_glide_esite>  (1) 
0

>  <r_i_glide_evdw>  (1) 
-13.450153410878157

>  <r_i_glide_gscore>  (1) 
-4.9299031806339482

>  <r_i_glide_gscore_strain>  (1) 
2.1602069821149961

>  <r_i_glide_hbond>  (1) 
-0.60955442013048544

>  <r_i_glide_ligand_efficiency>  (1) 
-0.11476438774520006

>  <r_i_glide_ligand_efficiency_ln>  (1) 
-0.95974095802450465

>  <r_i_glide_ligand_efficiency_sa>  (1) 
-0.38919030497203733

>  <r_i_glide_lipo>  (1) 
-3.222173296477572

>  <r_i_glide_metal>  (1) 
-0

>  <r_i_glide_rewards>  (1) 
-2.1632096314816081

>  <r_lp_Energy>  (1) 
13.278706999999999

>  <s_epik_Chemistry_Notes>  (1) 
This compound contains an acetal/aminal-like group ( X-CH(R)-Y where X, Y are N, S, or O) that may be acid/base labile, releasing an aldehyde.

>  <s_epik_cmdline>  (1) 
J2VwaWtfcHl0aG9uJywgJy1waHQnLCAnMS4wJywgJy1waCcsICc3LjQnLCAnLXRuJywgJzgnLCAnLW1hJywgJzUwMCcsICctaW1hZScsICc8aW5maWxlLm1hZT4nLCAnLW9tYWUnLCAnPG91dGZpbGUubWFlPic=

>  <s_epik_input>  (1) 
W0NIMl0xW0NIMl1bQ0hdMVtDSDJdW0NAQEhdKFtDQEBIXShDKD1PKVtOSDJdKVtDSDJdQyg9TylbT0hdKVtDQEBIXShbQ0gyXVtPSF0pW0NIMl1bQ0gyXUMoPU8pTihbQ0gyXVtPSF0pW0NIMl1bQ0BASF0oW1MrXShbT0hdKVtPSF0pW0NASF0oW0NIM10pTjJbQ0gyXVtDSDJdW0NASF0oW09IXSlbQ0BASF0yW0NASF0oRilbQ0gzXQ==

>  <s_glide_docking_method>  (1) 
confgen

>  <s_i_glide_gridfile>  (1) 
gpcr_5ht2c_6bqh_protein_autoprepared_prepared

>  <s_lp_Force_Field>  (1) 
S-OPLS

>  <s_lp_Variant>  (1) 
DiffSBDD_93-6

>  <s_m_source_file>  (1) 
generated_GPCR_5HT2C_ligand_DiffSBDD_2026-06-23_prepared.sdf

>  <GenAI_Model>  (1) 
DiffSBDD

>  <Protein>  (1) 
GPCR_5HT2C

$$$$
DiffSBDD_54
     RDKit          3D

  0  0  0  0  0  0  0  0  0  0999 V3000
M  V30 BEGIN CTAB
M  V30 COUNTS 41 42 0 0 1
M  V30 BEGIN ATOM
M  V30 1 C 38.959936 26.952795 53.846716 0
M  V30 2 C 38.433106 30.199032 57.509061 0
M  V30 3 C 38.676732 31.826886 55.586695 0
M  V30 4 C 36.845195 23.698704 56.128065 0
M  V30 5 C 37.846611 26.009063 56.422133 0
M  V30 6 S 37.882611 29.189715 54.981206 0 CHG=1
M  V30 7 C 37.971763 28.825941 52.532072 0
M  V30 8 N 39.250061 29.726073 58.431227 0
M  V30 9 C 40.419525 26.433819 56.504898 0
M  V30 10 C 38.403041 29.803018 59.525670 0
M  V30 11 N 37.171131 30.291589 59.280494 0
M  V30 12 N 37.245157 30.537751 57.962189 0
M  V30 13 N 38.965957 27.821605 55.027513 0
M  V30 14 C 39.016612 27.012917 56.254101 0 CFG=1
M  V30 15 C 39.070709 27.768039 52.565280 0
M  V30 16 C 38.069912 24.581841 55.884596 0
M  V30 17 O 38.166760 29.734882 53.615214 0
M  V30 18 C 38.806150 30.364831 56.054065 0 CFG=2
M  V30 19 H 38.016575 26.410582 53.801086 0
M  V30 20 H 39.766641 26.220566 53.878144 0
M  V30 21 H 39.274917 32.490182 56.213073 0
M  V30 22 H 37.643834 32.172992 55.634405 0
M  V30 23 H 39.021951 31.955126 54.559776 0
M  V30 24 H 36.845292 22.821880 55.479558 0
M  V30 25 H 35.916674 24.235354 55.936139 0
M  V30 26 H 36.845115 23.355674 57.162640 0
M  V30 27 H 36.937956 26.422515 55.985863 0
M  V30 28 H 37.636915 25.923661 57.489450 0
M  V30 29 H 38.048118 29.337722 51.576605 0
M  V30 30 H 36.976589 28.377183 52.563307 0
M  V30 31 H 40.451407 25.935685 57.473721 0
M  V30 32 H 41.176185 27.218745 56.517234 0
M  V30 33 H 40.719055 25.699279 55.760374 0
M  V30 34 H 38.701044 29.493324 60.517287 0
M  V30 35 H 36.469558 30.961498 57.430092 0
M  V30 36 H 38.877499 27.711692 57.068469 0
M  V30 37 H 40.045071 28.244370 52.488450 0
M  V30 38 H 38.982293 27.108083 51.701100 0
M  V30 39 H 38.286978 24.578282 54.818960 0
M  V30 40 H 38.939827 24.137083 56.365976 0
M  V30 41 H 39.860715 30.106056 55.951759 0
M  V30 END ATOM
M  V30 BEGIN BOND
M  V30 1 2 8 2
M  V30 2 1 10 8
M  V30 3 2 11 10
M  V30 4 1 12 2
M  V30 5 1 12 11
M  V30 6 1 13 1
M  V30 7 1 13 6
M  V30 8 1 14 5
M  V30 9 1 14 9
M  V30 10 1 14 13
M  V30 11 1 15 1
M  V30 12 1 15 7
M  V30 13 1 16 4
M  V30 14 1 16 5
M  V30 15 1 6 17 CFG=3
M  V30 16 1 17 7
M  V30 17 1 18 2
M  V30 18 1 18 3
M  V30 19 1 18 6
M  V30 20 1 19 1
M  V30 21 1 20 1
M  V30 22 1 21 3
M  V30 23 1 22 3
M  V30 24 1 23 3
M  V30 25 1 24 4
M  V30 26 1 25 4
M  V30 27 1 26 4
M  V30 28 1 27 5
M  V30 29 1 28 5
M  V30 30 1 29 7
M  V30 31 1 30 7
M  V30 32 1 31 9
M  V30 33 1 32 9
M  V30 34 1 33 9
M  V30 35 1 34 10
M  V30 36 1 35 12
M  V30 37 1 14 36 CFG=1
M  V30 38 1 37 15
M  V30 39 1 38 15
M  V30 40 1 39 16
M  V30 41 1 40 16
M  V30 42 1 18 41 CFG=1
M  V30 END BOND
M  V30 END CTAB
M  END
>  <i_epik_Tot_Q>  (1) 
1

>  <i_epik_Tot_abs_Q>  (1) 
1

>  <i_i_glide_confnum>  (1) 
13

>  <i_i_glide_lignum>  (1) 
120

>  <i_i_glide_posenum>  (1) 
339

>  <i_i_glide_rotatable_bonds>  (1) 
5

>  <i_lp_mmshare_version>  (1) 
72125

>  <i_m_source_file_index>  (1) 
55

>  <i_f3d_flags>  (1) 
0

>  <num_sample>  (1) 
100

>  <b_lp_Chiralities_Consistent>  (1) 
1

>  <r_epik_Charging_Adjusted_Penalty>  (1) 
1.0448623015598277

>  <r_epik_Ionization_Penalty>  (1) 
1.0474264341019792

>  <r_epik_Ionization_Penalty_Charging>  (1) 
0

>  <r_epik_Ionization_Penalty_Neutral>  (1) 
1.0474264341019792

>  <r_epik_State_Penalty>  (1) 
1.0448623015598277

>  <r_glide_ring_energy>  (1) 
0

>  <r_i_docking_score>  (1) 
-4.474678544074056

>  <r_i_glide_ecoul>  (1) 
-7.3457359891435114

>  <r_i_glide_eff_state_penalty>  (1) 
1.0448623015598277

>  <r_i_glide_einternal>  (1) 
5.3545175119025776

>  <r_i_glide_emodel>  (1) 
-45.553847612849765

>  <r_i_glide_emodel_strain>  (1) 
0.52551543962086456

>  <r_i_glide_energy>  (1) 
-32.2043737359107

>  <r_i_glide_erotb>  (1) 
0.97219657743730314

>  <r_i_glide_esite>  (1) 
-0.14319592629323116

>  <r_i_glide_evdw>  (1) 
-24.85863774676719

>  <r_i_glide_gscore>  (1) 
-5.5195408456338839

>  <r_i_glide_gscore_strain>  (1) 
0

>  <r_i_glide_hbond>  (1) 
-0.15419440488439853

>  <r_i_glide_ligand_efficiency>  (1) 
-0.24859325244855868

>  <r_i_glide_ligand_efficiency_ln>  (1) 
-1.1501930464593628

>  <r_i_glide_ligand_efficiency_sa>  (1) 
-0.65149862701295991

>  <r_i_glide_lipo>  (1) 
-1.9207468028088119

>  <r_i_glide_metal>  (1) 
-0

>  <r_i_glide_rewards>  (1) 
-1.9288080033748587

>  <r_lp_Energy>  (1) 
5.0378150000000002

>  <r_lp_tautomer_probability>  (1) 
0.94828448534560383

>  <s_epik_cmdline>  (1) 
J2VwaWtfcHl0aG9uJywgJy1waHQnLCAnMS4wJywgJy1waCcsICc3LjQnLCAnLXRuJywgJzgnLCAnLW1hJywgJzUwMCcsICctaW1hZScsICc8aW5maWxlLm1hZT4nLCAnLW9tYWUnLCAnPG91dGZpbGUubWFlPic=

>  <s_epik_input>  (1) 
W0NIM11bQ0gyXVtDSDJdW0NASF0oW0NIM10pTihbQ0gyXVtDSDJdW0NIMl1PMSlbUytdMVtDQEBIXShbQ0gzXSljMm5bY0hdbltuSF0y

>  <s_glide_docking_method>  (1) 
confgen

>  <s_i_glide_gridfile>  (1) 
gpcr_5ht2c_6bqh_protein_autoprepared_prepared

>  <s_lp_Force_Field>  (1) 
S-OPLS

>  <s_lp_Variant>  (1) 
DiffSBDD_54-6

>  <s_m_source_file>  (1) 
generated_GPCR_5HT2C_ligand_DiffSBDD_2026-06-23_prepared.sdf

>  <GenAI_Model>  (1) 
DiffSBDD

>  <Protein>  (1) 
GPCR_5HT2C

$$$$
DiffSBDD_53
     RDKit          3D

  0  0  0  0  0  0  0  0  0  0999 V3000
M  V30 BEGIN CTAB
M  V30 COUNTS 81 85 0 0 1
M  V30 BEGIN ATOM
M  V30 1 C 41.179520 28.283900 63.760658 0
M  V30 2 C 36.861169 33.274429 60.894284 0
M  V30 3 C 39.014002 29.913495 56.625845 0
M  V30 4 C 41.491665 29.708546 63.262933 0
M  V30 5 C 38.445133 32.588013 58.123436 0
M  V30 6 C 45.245090 29.601503 66.925833 0
M  V30 7 C 42.374465 26.288979 67.322393 0
M  V30 8 N 42.384033 27.557193 64.202974 0 CHG=1
M  V30 9 N 39.644902 30.589000 53.198000 0
M  V30 10 C 38.383372 35.797265 61.323091 0
M  V30 11 C 43.040679 28.088531 65.418432 0 CFG=1
M  V30 12 N 40.682150 30.030346 62.099597 0
M  V30 13 C 38.361815 31.323353 58.574994 0
M  V30 14 C 38.649205 33.712073 59.109513 0
M  V30 15 C 42.339183 27.666914 66.707110 0 CFG=1
M  V30 16 C 39.039281 31.977330 60.794496 0 CFG=1
M  V30 17 C 44.501405 27.628118 65.430412 0 CFG=2
M  V30 18 C 40.201253 30.384006 54.519965 0
M  V30 19 O 41.150460 28.384774 66.967835 0
M  V30 20 C 39.296177 30.298611 62.403213 0
M  V30 21 C 36.163797 34.635933 60.731078 0
M  V30 22 C 36.856981 35.769150 61.512373 0
M  V30 23 C 38.373592 33.353752 60.577571 0
M  V30 24 O 38.899028 31.606614 62.135499 0
M  V30 25 C 39.021041 34.407592 61.509474 0
M  V30 26 C 45.208690 28.070508 66.731141 0 CFG=2
M  V30 27 O 45.132557 28.155785 64.275332 0
M  V30 28 C 38.695874 32.151522 55.624680 0
M  V30 29 N 44.593456 27.429999 67.929265 0 CFG=2 CHG=1
M  V30 30 O 38.479648 31.036387 59.918103 0
M  V30 31 C 45.207164 26.138641 68.320617 0
M  V30 32 C 43.097120 27.447852 68.007766 0 CFG=2
M  V30 33 C 38.342028 32.924889 56.693907 0
M  V30 34 C 38.073632 30.127231 57.751017 0
M  V30 35 C 39.271656 30.796074 55.644713 0
M  V30 36 H 40.738940 27.695753 62.956488 0
M  V30 37 H 40.445134 28.311122 64.558103 0
M  V30 38 H 36.366094 32.538731 60.259454 0
M  V30 39 H 36.719317 32.932580 61.919512 0
M  V30 40 H 39.475853 28.937577 56.583588 0
M  V30 41 H 41.340737 30.445761 64.053456 0
M  V30 42 H 42.538670 29.782763 62.967757 0
M  V30 43 H 45.645114 30.105465 66.045092 0
M  V30 44 H 44.259768 30.022772 67.122880 0
M  V30 45 H 45.883196 29.872370 67.766571 0
M  V30 46 H 41.459979 25.923314 67.788118 0
M  V30 47 H 42.943645 25.526898 66.796308 0
M  V30 48 H 43.068955 27.619200 63.458307 0
M  V30 49 H 39.529130 31.580111 53.035227 0
M  V30 50 H 40.295146 30.266950 52.495550 0
M  V30 51 H 38.825413 36.503928 62.025608 0
M  V30 52 H 38.617727 36.181817 60.331045 0
M  V30 53 H 43.031046 29.178272 65.372888 0
M  V30 54 H 40.752557 29.301730 61.401329 0
M  V30 55 H 39.684763 34.032987 59.000137 0
M  V30 56 H 38.027089 34.537758 58.786173 0
M  V30 57 H 40.105195 32.043156 60.569318 0
M  V30 58 H 44.540460 26.540780 65.357813 0
M  V30 59 H 41.135242 30.940511 54.602053 0
M  V30 60 H 40.444353 29.337715 54.643356 0
M  V30 61 H 40.664824 27.978861 67.677852 0
M  V30 62 H 38.659367 29.609532 61.850594 0
M  V30 63 H 39.092751 30.137763 63.462165 0
M  V30 64 H 35.141574 34.534096 61.080492 0
M  V30 65 H 36.085807 34.902378 59.677187 0
M  V30 66 H 36.621432 35.669987 62.568136 0
M  V30 67 H 36.445106 36.732586 61.211016 0
M  V30 68 H 38.909484 34.106393 62.551817 0
M  V30 69 H 40.094669 34.470834 61.328525 0
M  V30 70 H 46.246427 27.737698 66.670051 0
M  V30 71 H 45.972333 27.737844 64.135143 0
M  V30 72 H 38.605998 32.617777 54.655457 0
M  V30 73 H 45.050771 25.369123 67.567026 0
M  V30 74 H 46.281944 26.250177 68.469521 0
M  V30 75 H 44.781353 25.782922 69.259771 0
M  V30 76 H 42.706018 27.815449 68.955541 0
M  V30 77 H 38.005563 33.925358 56.462666 0
M  V30 78 H 38.097171 29.243755 58.389717 0
M  V30 79 H 37.057258 30.190985 57.359806 0
M  V30 80 H 44.876346 28.045907 68.679068 0
M  V30 81 H 42.152331 26.585449 64.347617 0
M  V30 END ATOM
M  V30 BEGIN BOND
M  V30 1 1 4 1
M  V30 2 1 8 1
M  V30 3 1 11 8
M  V30 4 1 12 4
M  V30 5 2 13 5
M  V30 6 1 14 5
M  V30 7 1 15 7
M  V30 8 1 15 11
M  V30 9 1 17 11
M  V30 10 1 18 9
M  V30 11 1 15 19 CFG=1
M  V30 12 1 20 12
M  V30 13 1 21 2
M  V30 14 1 22 10
M  V30 15 1 22 21
M  V30 16 1 23 2
M  V30 17 1 23 14
M  V30 18 1 23 16
M  V30 19 1 24 16
M  V30 20 1 24 20
M  V30 21 1 25 10
M  V30 22 1 25 23
M  V30 23 1 26 6
M  V30 24 1 26 17
M  V30 25 1 27 17
M  V30 26 1 29 26
M  V30 27 1 30 13
M  V30 28 1 30 16
M  V30 29 1 31 29
M  V30 30 1 32 7
M  V30 31 1 32 15
M  V30 32 1 32 29
M  V30 33 1 33 5
M  V30 34 2 33 28
M  V30 35 1 34 3
M  V30 36 1 34 13
M  V30 37 2 35 3
M  V30 38 1 35 18
M  V30 39 1 35 28
M  V30 40 1 36 1
M  V30 41 1 37 1
M  V30 42 1 38 2
M  V30 43 1 39 2
M  V30 44 1 40 3
M  V30 45 1 41 4
M  V30 46 1 42 4
M  V30 47 1 43 6
M  V30 48 1 44 6
M  V30 49 1 45 6
M  V30 50 1 46 7
M  V30 51 1 47 7
M  V30 52 1 48 8
M  V30 53 1 49 9
M  V30 54 1 50 9
M  V30 55 1 51 10
M  V30 56 1 52 10
M  V30 57 1 11 53 CFG=3
M  V30 58 1 54 12
M  V30 59 1 55 14
M  V30 60 1 56 14
M  V30 61 1 16 57 CFG=3
M  V30 62 1 17 58 CFG=3
M  V30 63 1 59 18
M  V30 64 1 60 18
M  V30 65 1 61 19
M  V30 66 1 62 20
M  V30 67 1 63 20
M  V30 68 1 64 21
M  V30 69 1 65 21
M  V30 70 1 66 22
M  V30 71 1 67 22
M  V30 72 1 68 25
M  V30 73 1 69 25
M  V30 74 1 26 70 CFG=3
M  V30 75 1 71 27
M  V30 76 1 72 28
M  V30 77 1 73 31
M  V30 78 1 74 31
M  V30 79 1 75 31
M  V30 80 1 32 76 CFG=1
M  V30 81 1 77 33
M  V30 82 1 78 34
M  V30 83 1 79 34
M  V30 84 1 29 80 CFG=1
M  V30 85 1 81 8
M  V30 END BOND
M  V30 END CTAB
M  END
>  <i_epik_Tot_Q>  (1) 
2

>  <i_epik_Tot_abs_Q>  (1) 
2

>  <i_i_glide_confnum>  (1) 
548

>  <i_i_glide_lignum>  (1) 
111

>  <i_i_glide_posenum>  (1) 
66

>  <i_i_glide_rotatable_bonds>  (1) 
10

>  <i_lp_mmshare_version>  (1) 
72125

>  <i_m_source_file_index>  (1) 
54

>  <i_f3d_flags>  (1) 
0

>  <num_sample>  (1) 
100

>  <b_lp_Chiralities_Consistent>  (1) 
1

>  <r_epik_Charging_Adjusted_Penalty>  (1) 
1.1947924258661535

>  <r_epik_Ionization_Penalty>  (1) 
1.111601378610803

>  <r_epik_Ionization_Penalty_Charging>  (1) 
0.15856543202638063

>  <r_epik_Ionization_Penalty_Neutral>  (1) 
0.95303594658442226

>  <r_epik_State_Penalty>  (1) 
1.036226993839773

>  <r_glide_ring_energy>  (1) 
0.00054242717464313866

>  <r_i_docking_score>  (1) 
-4.4678050923693835

>  <r_i_glide_ecoul>  (1) 
-8.9380456508048258

>  <r_i_glide_eff_state_penalty>  (1) 
1.036226993839773

>  <r_i_glide_einternal>  (1) 
6.6826796024938746

>  <r_i_glide_emodel>  (1) 
-59.100740430736465

>  <r_i_glide_emodel_strain>  (1) 
0

>  <r_i_glide_energy>  (1) 
-47.599943470248242

>  <r_i_glide_erotb>  (1) 
0.59168961163588141

>  <r_i_glide_esite>  (1) 
-0.0061903518602832094

>  <r_i_glide_evdw>  (1) 
-38.661897819443418

>  <r_i_glide_gscore>  (1) 
-5.5040320862091567

>  <r_i_glide_gscore_strain>  (1) 
0

>  <r_i_glide_hbond>  (1) 
-0.44852236587853883

>  <r_i_glide_ligand_efficiency>  (1) 
-0.12765157406769667

>  <r_i_glide_ligand_efficiency_ln>  (1) 
-0.98078237536663515

>  <r_i_glide_ligand_efficiency_sa>  (1) 
-0.41755676337538605

>  <r_i_glide_lipo>  (1) 
-1.5922741097129607

>  <r_i_glide_metal>  (1) 
-0

>  <r_i_glide_rewards>  (1) 
-0.77493313180036016

>  <r_lp_Energy>  (1) 
67.197417000000002

>  <s_epik_Chemistry_Notes>  (1) 
This compound contains an acetal/aminal-like group ( X-CH(R)-Y where X, Y are N, S, or O) that may be acid/base labile, releasing an aldehyde.

>  <s_epik_cmdline>  (1) 
J2VwaWtfcHl0aG9uJywgJy1waHQnLCAnMS4wJywgJy1waCcsICc3LjQnLCAnLXRuJywgJzgnLCAnLW1hJywgJzUwMCcsICctaW1hZScsICc8aW5maWxlLm1hZT4nLCAnLW9tYWUnLCAnPG91dGZpbGUubWFlPic=

>  <s_epik_input>  (1) 
W09IXVtDQEBdMTJbQ0BASF0oW0NIMl0xKU4oW0NIM10pW0NASF0oW0NIM10pW0NASF0oW09IXSlbQ0BIXTJbTkhdW0NIMl1bQ0gyXVtOSF1bQ0gyXU9bQ0BIXTNPQyhbQ0gyXVtDSF09QyhbQ0gyXVtOSDJdKVtDSF09W0NIXTQpPUM0W0NIMl1DMzVbQ0gyXVtDSDJdW0NIMl1bQ0gyXVtDSDJdNQ==

>  <s_glide_docking_method>  (1) 
confgen

>  <s_i_glide_gridfile>  (1) 
gpcr_5ht2c_6bqh_protein_autoprepared_prepared

>  <s_lp_Force_Field>  (1) 
S-OPLS

>  <s_lp_Variant>  (1) 
DiffSBDD_53-3

>  <s_m_source_file>  (1) 
generated_GPCR_5HT2C_ligand_DiffSBDD_2026-06-23_prepared.sdf

>  <GenAI_Model>  (1) 
DiffSBDD

>  <Protein>  (1) 
GPCR_5HT2C

$$$$
DiffSBDD_36
     RDKit          3D

  0  0  0  0  0  0  0  0  0  0999 V3000
M  V30 BEGIN CTAB
M  V30 COUNTS 49 49 0 0 1
M  V30 BEGIN ATOM
M  V30 1 C 39.687390 28.551238 55.086857 0
M  V30 2 C 39.126145 27.226866 58.608420 0
M  V30 3 C 40.997044 27.882297 57.175383 0
M  V30 4 C 37.573513 26.592463 56.774958 0
M  V30 5 C 37.540147 31.312597 61.045210 0
M  V30 6 C 38.562673 27.686519 57.233400 0 CFG=1
M  V30 7 C 40.653960 27.173928 58.475299 0
M  V30 8 C 39.928497 29.540282 50.298139 0
M  V30 9 C 39.240917 28.163205 53.884072 0
M  V30 10 C 39.144300 29.076695 52.679809 0
M  V30 11 O 36.321652 31.447597 61.027230 0
M  V30 12 C 37.955960 30.151658 57.862289 0
M  V30 13 C 38.869568 30.298396 59.056938 0
M  V30 14 C 37.824834 29.050724 57.081799 0
M  V30 15 C 39.784470 27.627363 56.287165 0 CFG=1
M  V30 16 C 40.907708 30.704425 50.455893 0
M  V30 17 S 38.723841 32.372031 61.767740 0 CHG=-1
M  V30 18 C 38.123347 30.072714 60.381558 0
M  V30 19 C 39.468962 27.167468 51.026330 0
M  V30 20 C 39.952262 28.552325 51.475031 0 CFG=1
M  V30 21 H 40.002374 29.574200 55.237253 0
M  V30 22 H 38.794451 27.796377 59.464307 0
M  V30 23 H 38.794067 26.217952 58.855987 0
M  V30 24 H 41.108045 28.937816 57.376986 0
M  V30 25 H 41.932563 27.525065 56.746969 0
M  V30 26 H 38.023369 25.598042 56.797206 0
M  V30 27 H 36.693789 26.562169 57.417226 0
M  V30 28 H 37.245132 26.762742 55.749901 0
M  V30 29 H 41.173546 27.606594 59.332171 0
M  V30 30 H 40.961523 26.134752 58.373715 0
M  V30 31 H 40.179027 29.025337 49.371059 0
M  V30 32 H 38.921010 29.928737 50.168159 0
M  V30 33 H 38.924216 27.140945 53.741837 0
M  V30 34 H 38.090975 29.177485 52.414097 0
M  V30 35 H 39.488209 30.071883 52.960479 0
M  V30 36 H 37.360566 31.022685 57.624980 0
M  V30 37 H 39.755950 29.680814 58.988576 0
M  V30 38 H 39.244882 31.316537 59.009675 0
M  V30 39 H 37.140558 29.109676 56.256952 0
M  V30 40 H 39.896922 26.610825 55.905479 0
M  V30 41 H 40.874038 31.338583 49.572476 0
M  V30 42 H 40.665185 31.323277 51.319801 0
M  V30 43 H 41.934570 30.353737 50.567383 0
M  V30 44 H 37.310998 29.375636 60.167761 0
M  V30 45 H 38.784287 29.574464 61.092939 0
M  V30 46 H 38.416816 27.170248 50.750867 0
M  V30 47 H 40.043245 26.839870 50.167707 0
M  V30 48 H 39.617175 26.409561 51.794345 0
M  V30 49 H 40.994608 28.439596 51.767453 0
M  V30 END ATOM
M  V30 BEGIN BOND
M  V30 1 1 6 2
M  V30 2 1 6 4 CFG=3
M  V30 3 1 7 2
M  V30 4 1 7 3
M  V30 5 2 9 1
M  V30 6 1 10 9
M  V30 7 2 11 5
M  V30 8 1 13 12
M  V30 9 1 14 6
M  V30 10 2 14 12
M  V30 11 1 15 1
M  V30 12 1 15 3
M  V30 13 1 15 6
M  V30 14 1 16 8
M  V30 15 1 17 5
M  V30 16 1 18 5
M  V30 17 1 18 13
M  V30 18 1 20 8
M  V30 19 1 20 10
M  V30 20 1 20 19
M  V30 21 1 21 1
M  V30 22 1 22 2
M  V30 23 1 23 2
M  V30 24 1 24 3
M  V30 25 1 25 3
M  V30 26 1 26 4
M  V30 27 1 27 4
M  V30 28 1 28 4
M  V30 29 1 29 7
M  V30 30 1 30 7
M  V30 31 1 31 8
M  V30 32 1 32 8
M  V30 33 1 33 9
M  V30 34 1 34 10
M  V30 35 1 35 10
M  V30 36 1 36 12
M  V30 37 1 37 13
M  V30 38 1 38 13
M  V30 39 1 39 14
M  V30 40 1 15 40 CFG=3
M  V30 41 1 41 16
M  V30 42 1 42 16
M  V30 43 1 43 16
M  V30 44 1 44 18
M  V30 45 1 45 18
M  V30 46 1 46 19
M  V30 47 1 47 19
M  V30 48 1 48 19
M  V30 49 1 20 49 CFG=1
M  V30 END BOND
M  V30 END CTAB
M  END
>  <i_epik_Tot_Q>  (1) 
-1

>  <i_epik_Tot_abs_Q>  (1) 
1

>  <i_i_glide_confnum>  (1) 
149

>  <i_i_glide_lignum>  (1) 
82

>  <i_i_glide_posenum>  (1) 
296

>  <i_i_glide_rotatable_bonds>  (1) 
8

>  <i_lp_mmshare_version>  (1) 
72125

>  <i_m_source_file_index>  (1) 
37

>  <i_f3d_flags>  (1) 
0

>  <num_sample>  (1) 
100

>  <b_lp_Chiralities_Consistent>  (1) 
1

>  <r_epik_Charging_Adjusted_Penalty>  (1) 
9.4165288777969193e-05

>  <r_epik_Ionization_Penalty>  (1) 
9.4165288777969193e-05

>  <r_epik_Ionization_Penalty_Charging>  (1) 
9.4165288777969193e-05

>  <r_epik_Ionization_Penalty_Neutral>  (1) 
0

>  <r_epik_State_Penalty>  (1) 
-0

>  <r_glide_ring_energy>  (1) 
0

>  <r_i_docking_score>  (1) 
-4.4533482379224649

>  <r_i_glide_ecoul>  (1) 
-2.5082794725768864

>  <r_i_glide_eff_state_penalty>  (1) 
-0

>  <r_i_glide_einternal>  (1) 
8.2048028170058416

>  <r_i_glide_emodel>  (1) 
-29.963854312075348

>  <r_i_glide_emodel_strain>  (1) 
1.3912775551513548

>  <r_i_glide_energy>  (1) 
-27.71185058652938

>  <r_i_glide_erotb>  (1) 
2.5456975872200465

>  <r_i_glide_esite>  (1) 
0

>  <r_i_glide_evdw>  (1) 
-25.203571113952492

>  <r_i_glide_gscore>  (1) 
-4.4533482379224649

>  <r_i_glide_gscore_strain>  (1) 
0

>  <r_i_glide_hbond>  (1) 
-0.27728574002315948

>  <r_i_glide_ligand_efficiency>  (1) 
-0.22266741189612324

>  <r_i_glide_ligand_efficiency_ln>  (1) 
-1.1145261826967825

>  <r_i_glide_ligand_efficiency_sa>  (1) 
-0.60441234549243128

>  <r_i_glide_lipo>  (1) 
-2.9998363119988021

>  <r_i_glide_metal>  (1) 
-0

>  <r_i_glide_rewards>  (1) 
-2.085503296536392

>  <r_lp_Energy>  (1) 
17.800989999999999

>  <r_lp_tautomer_probability>  (1) 
1

>  <s_epik_cmdline>  (1) 
J2VwaWtfcHl0aG9uJywgJy1waHQnLCAnMS4wJywgJy1waCcsICc3LjQnLCAnLXRuJywgJzgnLCAnLW1hJywgJzUwMCcsICctaW1hZScsICc8aW5maWxlLm1hZT4nLCAnLW9tYWUnLCAnPG91dGZpbGUubWFlPic=

>  <s_epik_input>  (1) 
W0NIM11bQ0gyXVtDQEhdKFtDSDNdKVtDSDJdXFtDSF09W0NIXVxbQ0BIXTFbQ0gyXVtDSDJdW0NIMl1bQ0BAXTEoW0NIM10pL1tDSF09W0NIXVxbQ0gyXVtDSDJdQyg9TylbU0hd

>  <s_glide_docking_method>  (1) 
confgen

>  <s_i_glide_gridfile>  (1) 
gpcr_5ht2c_6bqh_protein_autoprepared_prepared

>  <s_lp_Force_Field>  (1) 
S-OPLS

>  <s_lp_Variant>  (1) 
DiffSBDD_36-3

>  <s_m_source_file>  (1) 
generated_GPCR_5HT2C_ligand_DiffSBDD_2026-06-23_prepared.sdf

>  <GenAI_Model>  (1) 
DiffSBDD

>  <Protein>  (1) 
GPCR_5HT2C

$$$$
DiffSBDD_75
     RDKit          3D

  0  0  0  0  0  0  0  0  0  0999 V3000
M  V30 BEGIN CTAB
M  V30 COUNTS 76 77 0 0 1
M  V30 BEGIN ATOM
M  V30 1 C 38.173149 31.728600 60.222401 0
M  V30 2 C 38.845127 28.136982 59.603910 0
M  V30 3 O 41.341361 29.455696 63.918865 0
M  V30 4 C 37.189249 34.564864 59.717356 0
M  V30 5 C 41.233258 32.716441 63.927746 0 CFG=2
M  V30 6 C 39.114670 29.040240 55.699997 0
M  V30 7 C 40.240982 30.308812 64.184838 0 CFG=2
M  V30 8 C 38.132234 28.514811 54.835137 0
M  V30 9 O 41.197943 35.093251 64.326505 0
M  V30 10 C 41.621716 31.396356 66.127388 0 CFG=1
M  V30 11 O 38.965968 24.937822 54.967847 0
M  V30 12 S 40.236150 30.260439 61.354356 0
M  V30 13 C 37.267307 34.819929 61.237701 0
M  V30 14 C 39.020707 26.274180 55.195658 0
M  V30 15 C 39.342045 30.483932 62.925344 0
M  V30 16 C 39.141229 30.521335 56.005242 0
M  V30 17 C 40.057381 28.180935 56.298621 0
M  V30 18 O 40.845136 33.207587 67.588351 0
M  V30 19 C 41.078881 30.340479 67.111261 0
M  V30 20 C 40.688440 31.625395 64.893019 0 CFG=1
M  V30 21 O 38.009651 35.996099 61.482198 0
M  V30 22 O 38.134919 29.340559 59.844203 0
M  V30 23 O 38.808829 33.037804 57.360768 0
M  V30 24 C 35.155387 33.147667 59.873138 0
M  V30 25 N 36.478225 33.352955 59.294876 0
M  V30 26 C 38.046265 32.137371 57.705740 0
M  V30 27 C 38.085872 27.131427 54.583539 0
M  V30 28 C 37.907467 30.878033 56.838964 0
M  V30 29 C 37.257688 32.126273 59.040029 0 CFG=1
M  V30 30 C 40.009060 26.799143 56.047054 0
M  V30 31 C 42.474387 33.829053 65.932340 0
M  V30 32 C 38.999515 30.445555 60.039848 0 CFG=1
M  V30 33 C 42.445181 32.288921 63.091408 0
M  V30 34 C 41.960417 32.719685 66.867328 0 CFG=2
M  V30 35 C 41.592711 33.989670 64.695097 0
M  V30 36 H 38.874439 32.538514 60.423082 0
M  V30 37 H 37.549430 31.625381 61.108742 0
M  V30 38 H 38.217006 27.398404 59.108905 0
M  V30 39 H 39.724499 28.285710 58.979935 0
M  V30 40 H 39.184723 27.737664 60.556543 0
M  V30 41 H 41.003698 28.648260 63.560822 0
M  V30 42 H 38.203729 34.537780 59.327808 0
M  V30 43 H 36.711021 35.423068 59.243500 0
M  V30 44 H 39.645089 29.767437 64.916662 0
M  V30 45 H 37.407847 29.171807 54.374840 0
M  V30 46 H 42.544665 34.779796 66.460665 0
M  V30 47 H 42.569113 31.003290 65.757992 0
M  V30 48 H 38.277582 24.689618 54.370515 0
M  V30 49 H 36.273227 34.942501 61.667902 0
M  V30 50 H 37.743855 33.994368 61.764131 0
M  V30 51 H 38.843479 31.451416 62.950778 0
M  V30 52 H 38.552419 29.737756 62.914857 0
M  V30 53 H 40.045122 30.768521 56.553658 0
M  V30 54 H 39.157830 31.093551 55.076551 0
M  V30 55 H 40.812121 28.580923 56.958862 0
M  V30 56 H 41.116253 33.950678 68.106512 0
M  V30 57 H 40.044318 30.555514 67.376075 0
M  V30 58 H 41.106682 29.337964 66.683178 0
M  V30 59 H 41.665008 30.306997 68.030142 0
M  V30 60 H 39.772180 32.046104 65.306688 0
M  V30 61 H 38.104995 36.109079 62.416488 0
M  V30 62 H 34.572593 34.069072 59.848450 0
M  V30 63 H 34.597918 32.402801 59.302539 0
M  V30 64 H 35.220737 32.801762 60.904840 0
M  V30 65 H 37.328072 26.727388 53.927852 0
M  V30 66 H 37.052756 30.938402 56.168364 0
M  V30 67 H 37.690686 30.054513 57.516628 0
M  V30 68 H 36.536819 31.314432 58.940738 0
M  V30 69 H 40.727336 26.139916 56.512479 0
M  V30 70 H 43.479230 33.581281 65.592783 0
M  V30 71 H 40.442298 33.002186 63.234081 0
M  V30 72 H 39.605170 30.536170 59.140699 0
M  V30 73 H 42.909607 33.156087 62.631004 0
M  V30 74 H 43.178774 31.737762 63.681075 0
M  V30 75 H 42.192480 31.650840 62.260276 0
M  V30 76 H 42.736753 32.511582 67.604199 0
M  V30 END ATOM
M  V30 BEGIN BOND
M  V30 1 1 7 3
M  V30 2 1 8 6
M  V30 3 1 13 4
M  V30 4 1 14 11
M  V30 5 1 15 7
M  V30 6 1 15 12
M  V30 7 1 16 6
M  V30 8 2 17 6
M  V30 9 1 19 10
M  V30 10 1 20 5
M  V30 11 1 20 7
M  V30 12 1 20 10
M  V30 13 1 21 13
M  V30 14 1 22 2
M  V30 15 1 25 4
M  V30 16 1 25 24
M  V30 17 2 26 23
M  V30 18 2 27 8
M  V30 19 1 27 14
M  V30 20 1 28 16
M  V30 21 1 28 26
M  V30 22 1 29 1
M  V30 23 1 29 25
M  V30 24 1 29 26
M  V30 25 2 30 14
M  V30 26 1 30 17
M  V30 27 1 32 1
M  V30 28 1 32 12
M  V30 29 1 32 22
M  V30 30 1 33 5
M  V30 31 1 34 10
M  V30 32 1 34 18
M  V30 33 1 34 31
M  V30 34 1 35 5
M  V30 35 2 35 9
M  V30 36 1 35 31
M  V30 37 1 36 1
M  V30 38 1 37 1
M  V30 39 1 38 2
M  V30 40 1 39 2
M  V30 41 1 40 2
M  V30 42 1 41 3
M  V30 43 1 42 4
M  V30 44 1 43 4
M  V30 45 1 7 44 CFG=1
M  V30 46 1 45 8
M  V30 47 1 46 31
M  V30 48 1 10 47 CFG=3
M  V30 49 1 48 11
M  V30 50 1 49 13
M  V30 51 1 50 13
M  V30 52 1 51 15
M  V30 53 1 52 15
M  V30 54 1 53 16
M  V30 55 1 54 16
M  V30 56 1 55 17
M  V30 57 1 56 18
M  V30 58 1 57 19
M  V30 59 1 58 19
M  V30 60 1 59 19
M  V30 61 1 20 60 CFG=1
M  V30 62 1 61 21
M  V30 63 1 62 24
M  V30 64 1 63 24
M  V30 65 1 64 24
M  V30 66 1 65 27
M  V30 67 1 66 28
M  V30 68 1 67 28
M  V30 69 1 29 68 CFG=3
M  V30 70 1 69 30
M  V30 71 1 70 31
M  V30 72 1 5 71 CFG=3
M  V30 73 1 32 72 CFG=3
M  V30 74 1 73 33
M  V30 75 1 74 33
M  V30 76 1 75 33
M  V30 77 1 34 76 CFG=1
M  V30 END BOND
M  V30 END CTAB
M  END
>  <i_epik_Tot_Q>  (1) 
0

>  <i_epik_Tot_abs_Q>  (1) 
0

>  <i_i_glide_confnum>  (1) 
6585

>  <i_i_glide_lignum>  (1) 
175

>  <i_i_glide_posenum>  (1) 
324

>  <i_i_glide_rotatable_bonds>  (1) 
18

>  <i_lp_mmshare_version>  (1) 
72125

>  <i_m_source_file_index>  (1) 
76

>  <i_f3d_flags>  (1) 
0

>  <num_sample>  (1) 
100

>  <b_lp_Chiralities_Consistent>  (1) 
1

>  <r_epik_Charging_Adjusted_Penalty>  (1) 
0.60615279515584763

>  <r_epik_Ionization_Penalty>  (1) 
0.6077244911787385

>  <r_epik_Ionization_Penalty_Charging>  (1) 
0

>  <r_epik_Ionization_Penalty_Neutral>  (1) 
0.6077244911787385

>  <r_epik_State_Penalty>  (1) 
0.60615279515584763

>  <r_glide_ring_energy>  (1) 
0

>  <r_i_docking_score>  (1) 
-4.4496790270547457

>  <r_i_glide_ecoul>  (1) 
-2.4861189303791829

>  <r_i_glide_eff_state_penalty>  (1) 
0.60615279515584763

>  <r_i_glide_einternal>  (1) 
5.2801179412196184

>  <r_i_glide_emodel>  (1) 
-56.313254010739371

>  <r_i_glide_emodel_strain>  (1) 
1.2045237229554928

>  <r_i_glide_energy>  (1) 
-45.311151402428997

>  <r_i_glide_erotb>  (1) 
1.0176109525924779

>  <r_i_glide_esite>  (1) 
-0.10000000000000001

>  <r_i_glide_evdw>  (1) 
-42.825032472049813

>  <r_i_glide_gscore>  (1) 
-5.0558318222105934

>  <r_i_glide_gscore_strain>  (1) 
0

>  <r_i_glide_hbond>  (1) 
0

>  <r_i_glide_ligand_efficiency>  (1) 
-0.12713368648727844

>  <r_i_glide_ligand_efficiency_ln>  (1) 
-0.9768033017437272

>  <r_i_glide_ligand_efficiency_sa>  (1) 
-0.41586271875861497

>  <r_i_glide_lipo>  (1) 
-2.8880409223159762

>  <r_i_glide_metal>  (1) 
-0

>  <r_i_glide_rewards>  (1) 
-0.5712323893277278

>  <r_lp_Energy>  (1) 
27.707881

>  <r_lp_tautomer_probability>  (1) 
0.99999993999736703

>  <s_epik_Chemistry_Notes>  (1) 
This compound contains an acetal/aminal-like group ( X-CH(R)-Y where X, Y are N, S, or O) that may be acid/base labile, releasing an aldehyde.

>  <s_epik_cmdline>  (1) 
J2VwaWtfcHl0aG9uJywgJy1waHQnLCAnMS4wJywgJy1waCcsICc3LjQnLCAnLXRuJywgJzgnLCAnLW1hJywgJzUwMCcsICctaW1hZScsICc8aW5maWxlLm1hZT4nLCAnLW9tYWUnLCAnPG91dGZpbGUubWFlPic=

>  <s_epik_input>  (1) 
W2NIXTFbY0hdYyhbT0hdKVtjSF1bY0hdYzFbQ0gyXVtDSDJdQyg9TylbQ0BIXShOKFtDSDNdKVtDSDJdW0NIMl1bT0hdKVtDSDJdW0NASF0oT1tDSDNdKVNbQ0gyXVtDQEBIXShbT0hdKVtDQEhdMltDQEBIXShbQ0gzXSlbQ0BIXShbT0hdKVtDSDJdQyhbT0hdKT1DMltDSDNd

>  <s_glide_docking_method>  (1) 
confgen

>  <s_i_glide_gridfile>  (1) 
gpcr_5ht2c_6bqh_protein_autoprepared_prepared

>  <s_lp_Force_Field>  (1) 
S-OPLS

>  <s_lp_Variant>  (1) 
DiffSBDD_75-12

>  <s_m_source_file>  (1) 
generated_GPCR_5HT2C_ligand_DiffSBDD_2026-06-23_prepared.sdf

>  <GenAI_Model>  (1) 
DiffSBDD

>  <Protein>  (1) 
GPCR_5HT2C

$$$$
DiffSBDD_8
     RDKit          3D

  0  0  0  0  0  0  0  0  0  0999 V3000
M  V30 BEGIN CTAB
M  V30 COUNTS 46 50 0 0 1
M  V30 BEGIN ATOM
M  V30 1 C 39.639263 29.301742 60.929869 0
M  V30 2 O 39.081935 26.863943 54.185129 0
M  V30 3 C 40.074926 28.416355 61.831446 0
M  V30 4 C 38.140309 31.503681 57.158632 0
M  V30 5 N 38.991057 30.407999 57.641273 0
M  V30 6 C 38.631850 28.645601 55.869032 0
M  V30 7 C 37.724570 32.557752 58.225227 0
M  V30 8 C 35.679528 31.737750 60.955454 0
M  V30 9 N 39.126309 30.536791 61.210712 0
M  V30 10 C 39.159408 29.201456 53.365097 0
M  V30 11 C 38.861061 31.367759 59.975168 0 CFG=1
M  V30 12 N 36.142725 32.850587 61.367709 0
M  V30 13 C 38.494962 27.840733 53.313833 0 CFG=1
M  V30 14 C 39.245140 28.246164 54.539489 0 CFG=1
M  V30 15 C 39.644164 29.102433 59.576997 0
M  V30 16 N 37.215270 33.136595 60.594300 0
M  V30 17 C 39.193160 30.192392 58.997965 0
M  V30 18 C 36.329821 31.058505 59.823002 0
M  V30 19 C 36.995154 27.737751 53.222089 0
M  V30 20 C 39.598012 29.574209 56.610282 0
M  V30 21 C 38.139006 34.121730 61.153548 0
M  V30 22 C 37.515961 32.021024 59.668216 0 CFG=1
M  V30 23 H 40.045126 28.635303 62.889229 0
M  V30 24 H 40.465523 27.458642 61.524767 0
M  V30 25 H 37.245139 31.036140 56.757408 0
M  V30 26 H 38.617900 32.007197 56.317622 0
M  V30 27 H 38.420665 27.759853 56.468792 0
M  V30 28 H 37.680565 29.142677 55.685749 0
M  V30 29 H 36.845180 33.105960 57.890122 0
M  V30 30 H 38.515027 33.308922 58.252073 0
M  V30 31 H 34.817635 31.278929 61.429387 0
M  V30 32 H 39.224198 30.974583 62.115367 0
M  V30 33 H 38.521501 30.078218 53.461083 0
M  V30 34 H 40.045130 29.337755 52.749733 0
M  V30 35 H 39.936086 28.191998 59.074373 0
M  V30 36 H 36.617302 30.038637 60.076903 0
M  V30 37 H 35.660645 31.038139 58.967762 0
M  V30 38 H 36.610819 28.400121 52.446881 0
M  V30 39 H 36.749253 26.710684 52.967763 0
M  V30 40 H 36.514904 27.973448 54.167764 0
M  V30 41 H 40.045014 30.259270 55.889086 0
M  V30 42 H 40.432259 28.998268 57.011494 0
M  V30 43 H 38.835520 34.458370 60.385756 0
M  V30 44 H 37.586569 34.985092 61.525502 0
M  V30 45 H 38.702808 33.679637 61.975378 0
M  V30 46 H 39.645141 32.118721 59.914163 0
M  V30 END ATOM
M  V30 BEGIN BOND
M  V30 1 2 3 1
M  V30 2 1 5 4
M  V30 3 1 7 4
M  V30 4 1 9 1
M  V30 5 1 11 9
M  V30 6 2 12 8
M  V30 7 1 13 2
M  V30 8 1 13 10
M  V30 9 1 14 2
M  V30 10 1 14 6 CFG=3
M  V30 11 1 14 10
M  V30 12 1 14 13
M  V30 13 1 15 1
M  V30 14 1 16 12
M  V30 15 1 17 5
M  V30 16 1 17 11
M  V30 17 2 17 15
M  V30 18 1 18 8
M  V30 19 1 13 19 CFG=1
M  V30 20 1 20 5
M  V30 21 1 20 6
M  V30 22 1 21 16
M  V30 23 1 22 7
M  V30 24 1 22 11
M  V30 25 1 22 16 CFG=1
M  V30 26 1 22 18
M  V30 27 1 23 3
M  V30 28 1 24 3
M  V30 29 1 25 4
M  V30 30 1 26 4
M  V30 31 1 27 6
M  V30 32 1 28 6
M  V30 33 1 29 7
M  V30 34 1 30 7
M  V30 35 1 31 8
M  V30 36 1 32 9
M  V30 37 1 33 10
M  V30 38 1 34 10
M  V30 39 1 35 15
M  V30 40 1 36 18
M  V30 41 1 37 18
M  V30 42 1 38 19
M  V30 43 1 39 19
M  V30 44 1 40 19
M  V30 45 1 41 20
M  V30 46 1 42 20
M  V30 47 1 43 21
M  V30 48 1 44 21
M  V30 49 1 45 21
M  V30 50 1 11 46 CFG=3
M  V30 END BOND
M  V30 END CTAB
M  END
>  <i_epik_Tot_Q>  (1) 
0

>  <i_epik_Tot_abs_Q>  (1) 
0

>  <i_i_glide_confnum>  (1) 
2

>  <i_i_glide_lignum>  (1) 
11

>  <i_i_glide_posenum>  (1) 
258

>  <i_i_glide_rotatable_bonds>  (1) 
3

>  <i_lp_mmshare_version>  (1) 
72125

>  <i_m_source_file_index>  (1) 
9

>  <i_f3d_flags>  (1) 
0

>  <num_sample>  (1) 
100

>  <b_lp_Chiralities_Consistent>  (1) 
1

>  <r_epik_Charging_Adjusted_Penalty>  (1) 
0.0013502642422006258

>  <r_epik_Ionization_Penalty>  (1) 
0.0017789760984620326

>  <r_epik_Ionization_Penalty_Charging>  (1) 
0.0013502642422006258

>  <r_epik_Ionization_Penalty_Neutral>  (1) 
0.00042871185626140696

>  <r_epik_State_Penalty>  (1) 
-0

>  <r_glide_ring_energy>  (1) 
0

>  <r_i_docking_score>  (1) 
-4.4450592513343716

>  <r_i_glide_ecoul>  (1) 
-1.8276796877864907

>  <r_i_glide_eff_state_penalty>  (1) 
-0

>  <r_i_glide_einternal>  (1) 
1.756595782566059

>  <r_i_glide_emodel>  (1) 
-36.1393033399616

>  <r_i_glide_emodel_strain>  (1) 
0.56638204024341121

>  <r_i_glide_energy>  (1) 
-29.115508550025666

>  <r_i_glide_erotb>  (1) 
0.61104831889555555

>  <r_i_glide_esite>  (1) 
-0.086601846155573856

>  <r_i_glide_evdw>  (1) 
-27.287828862239174

>  <r_i_glide_gscore>  (1) 
-4.4450592513343716

>  <r_i_glide_gscore_strain>  (1) 
0

>  <r_i_glide_hbond>  (1) 
0

>  <r_i_glide_ligand_efficiency>  (1) 
-0.20204814778792599

>  <r_i_glide_ligand_efficiency_ln>  (1) 
-1.0865346185018063

>  <r_i_glide_ligand_efficiency_sa>  (1) 
-0.56614685678784094

>  <r_i_glide_lipo>  (1) 
-1.676805906584439

>  <r_i_glide_metal>  (1) 
-0

>  <r_i_glide_rewards>  (1) 
-1.6541564212099829

>  <r_lp_Energy>  (1) 
30.330791999999999

>  <r_lp_tautomer_probability>  (1) 
1

>  <s_epik_Chemistry_Notes>  (1) 
This compound has an imine and may undergo hydrolysis.

>  <s_epik_cmdline>  (1) 
J2VwaWtfcHl0aG9uJywgJy1waHQnLCAnMS4wJywgJy1waCcsICc3LjQnLCAnLXRuJywgJzgnLCAnLW1hJywgJzUwMCcsICctaW1hZScsICc8aW5maWxlLm1hZT4nLCAnLW9tYWUnLCAnPG91dGZpbGUubWFlPic=

>  <s_epik_input>  (1) 
W0NIM11bQ0BAXTEyW0NAQF0oTzEpKFtDSDJdMilbQ0gyXVtDSDJdTihbQ0gyXVtDSDJdMyljKFtjSF1jKFtDSDNdKVtuSF00KWM0W0NAQF0zNU4oW0NIM10pTj1bQ0hdW0NIMl01

>  <s_glide_docking_method>  (1) 
confgen

>  <s_i_glide_gridfile>  (1) 
gpcr_5ht2c_6bqh_protein_autoprepared_prepared

>  <s_lp_Force_Field>  (1) 
S-OPLS

>  <s_lp_Variant>  (1) 
DiffSBDD_8-1

>  <s_m_source_file>  (1) 
generated_GPCR_5HT2C_ligand_DiffSBDD_2026-06-23_prepared.sdf

>  <GenAI_Model>  (1) 
DiffSBDD

>  <Protein>  (1) 
GPCR_5HT2C

$$$$
DiffSBDD_22
     RDKit          3D

  0  0  0  0  0  0  0  0  0  0999 V3000
M  V30 BEGIN CTAB
M  V30 COUNTS 48 51 0 0 1
M  V30 BEGIN ATOM
M  V30 1 C 40.426986 29.490208 49.234532 0
M  V30 2 C 36.327993 32.252525 60.302457 0
M  V30 3 C 39.557798 29.266334 52.849789 0
M  V30 4 F 36.843931 32.109898 61.534798 0
M  V30 5 N 39.440557 29.657883 51.430047 0 CFG=1 CHG=1
M  V30 6 C 40.045068 30.984702 51.142889 0 CFG=1
M  V30 7 C 40.626321 30.865483 49.767759 0 CFG=2
M  V30 8 O 38.292810 31.059240 53.994993 0
M  V30 9 O 38.045135 27.987825 55.658031 0
M  V30 10 N 37.699933 32.330531 55.987607 0 CHG=1
M  V30 11 O 40.232323 28.445805 57.029272 0
M  V30 12 C 38.914891 30.252607 56.094375 0 CFG=1
M  V30 13 C 38.409689 29.639732 53.797073 0 CFG=2
M  V30 14 C 37.361080 33.376785 58.254799 0
M  V30 15 N 35.102238 32.508617 60.167763 0
M  V30 16 C 40.051657 28.683944 50.487370 0
M  V30 17 C 38.272384 33.212933 57.027949 0
M  V30 18 C 39.406089 31.716406 49.997938 0
M  V30 19 C 40.053031 29.288299 55.904290 0 CFG=2
M  V30 20 C 38.813675 31.481313 55.223827 0 CFG=1
M  V30 21 C 37.244746 32.093535 59.107708 0
M  V30 22 C 38.748812 29.099475 55.168505 0 CFG=2
M  V30 23 H 41.243219 29.179549 48.574641 0
M  V30 24 H 39.581545 29.529774 48.567743 0
M  V30 25 H 40.451751 29.737766 53.234244 0
M  V30 26 H 39.645185 28.179871 52.904587 0
M  V30 27 H 40.595833 31.498773 51.925637 0
M  V30 28 H 41.588617 31.337491 49.585531 0
M  V30 29 H 38.488297 27.727372 56.457252 0
M  V30 30 H 36.994670 31.737737 56.424069 0
M  V30 31 H 40.894454 27.798469 56.827754 0
M  V30 32 H 38.370530 30.226172 57.037042 0
M  V30 33 H 37.458838 29.232373 53.451862 0
M  V30 34 H 36.382068 33.737789 57.939636 0
M  V30 35 H 37.771906 34.168645 58.882218 0
M  V30 36 H 34.835842 32.570494 59.193100 0
M  V30 37 H 40.940595 28.278103 50.967759 0
M  V30 38 H 39.378088 27.854949 50.265877 0
M  V30 39 H 38.444789 34.181946 56.563302 0
M  V30 40 H 39.244602 32.839847 57.354563 0
M  V30 41 H 39.520651 32.760773 49.767738 0
M  V30 42 H 38.445137 31.338785 49.752070 0
M  V30 43 H 40.947825 29.591536 55.367762 0
M  V30 44 H 39.751417 32.023812 55.096395 0
M  V30 45 H 38.461695 29.706846 51.187293 0
M  V30 46 H 38.230482 31.792823 59.462953 0
M  V30 47 H 36.865635 31.263024 58.514570 0
M  V30 48 H 37.155340 32.909825 55.355286 0
M  V30 END ATOM
M  V30 BEGIN BOND
M  V30 1 1 4 2
M  V30 2 1 5 3
M  V30 3 1 6 5
M  V30 4 1 7 1
M  V30 5 1 7 6
M  V30 6 1 13 3
M  V30 7 1 13 8
M  V30 8 2 15 2
M  V30 9 1 16 1
M  V30 10 1 16 5
M  V30 11 1 17 10
M  V30 12 1 17 14
M  V30 13 1 18 6
M  V30 14 1 18 7
M  V30 15 1 19 11
M  V30 16 1 19 12
M  V30 17 1 20 8
M  V30 18 1 20 10
M  V30 19 1 20 12
M  V30 20 1 21 2
M  V30 21 1 21 14
M  V30 22 1 22 9 CFG=1
M  V30 23 1 22 12
M  V30 24 1 22 13
M  V30 25 1 22 19
M  V30 26 1 23 1
M  V30 27 1 24 1
M  V30 28 1 25 3
M  V30 29 1 26 3
M  V30 30 1 6 27 CFG=1
M  V30 31 1 7 28 CFG=1
M  V30 32 1 29 9
M  V30 33 1 30 10
M  V30 34 1 31 11
M  V30 35 1 12 32 CFG=1
M  V30 36 1 13 33 CFG=3
M  V30 37 1 34 14
M  V30 38 1 35 14
M  V30 39 1 36 15
M  V30 40 1 37 16
M  V30 41 1 38 16
M  V30 42 1 39 17
M  V30 43 1 40 17
M  V30 44 1 41 18
M  V30 45 1 42 18
M  V30 46 1 19 43 CFG=3
M  V30 47 1 20 44 CFG=3
M  V30 48 1 5 45 CFG=3
M  V30 49 1 46 21
M  V30 50 1 47 21
M  V30 51 1 48 10
M  V30 END BOND
M  V30 END CTAB
M  END
>  <i_epik_Tot_Q>  (1) 
2

>  <i_epik_Tot_abs_Q>  (1) 
2

>  <i_i_glide_confnum>  (1) 
14

>  <i_i_glide_lignum>  (1) 
56

>  <i_i_glide_posenum>  (1) 
315

>  <i_i_glide_rotatable_bonds>  (1) 
9

>  <i_lp_mmshare_version>  (1) 
72125

>  <i_m_source_file_index>  (1) 
23

>  <i_f3d_flags>  (1) 
0

>  <num_sample>  (1) 
100

>  <b_lp_Chiralities_Consistent>  (1) 
1

>  <r_epik_Charging_Adjusted_Penalty>  (1) 
1.666199543100769

>  <r_epik_Ionization_Penalty>  (1) 
0.63246952638049103

>  <r_epik_Ionization_Penalty_Charging>  (1) 
0.62883544751823761

>  <r_epik_Ionization_Penalty_Neutral>  (1) 
0.0036340788622534364

>  <r_epik_State_Penalty>  (1) 
1.0373640955825314

>  <r_glide_ring_energy>  (1) 
1.6455033096424427

>  <r_i_docking_score>  (1) 
-4.4411332348195973

>  <r_i_glide_ecoul>  (1) 
-9.1667290106228307

>  <r_i_glide_eff_state_penalty>  (1) 
1.0373640955825314

>  <r_i_glide_einternal>  (1) 
7.9083342903395257

>  <r_i_glide_emodel>  (1) 
-39.592907328556706

>  <r_i_glide_emodel_strain>  (1) 
3.2904459909972701

>  <r_i_glide_energy>  (1) 
-28.021269382559616

>  <r_i_glide_erotb>  (1) 
1.309053311580165

>  <r_i_glide_esite>  (1) 
-0.19115966102288073

>  <r_i_glide_evdw>  (1) 
-18.854540371936785

>  <r_i_glide_gscore>  (1) 
-5.4784973304021287

>  <r_i_glide_gscore_strain>  (1) 
0

>  <r_i_glide_hbond>  (1) 
-0.29461840748741164

>  <r_i_glide_ligand_efficiency>  (1) 
-0.20186969249179987

>  <r_i_glide_ligand_efficiency_ln>  (1) 
-1.0855749568606636

>  <r_i_glide_ligand_efficiency_sa>  (1) 
-0.56564681802933181

>  <r_i_glide_lipo>  (1) 
-1.740266510185823

>  <r_i_glide_metal>  (1) 
-0

>  <r_i_glide_rewards>  (1) 
-2.2437696930959139

>  <r_lp_Energy>  (1) 
20.772855

>  <r_lp_tautomer_probability>  (1) 
0.49999300000000002

>  <s_epik_Chemistry_Notes>  (1) 
This compound has an imine and may undergo hydrolysis. This compound contains an acetal/aminal-like group ( X-CH(R)-Y where X, Y are N, S, or O) that may be acid/base labile, releasing an aldehyde.

>  <s_epik_cmdline>  (1) 
J2VwaWtfcHl0aG9uJywgJy1waHQnLCAnMS4wJywgJy1waCcsICc3LjQnLCAnLXRuJywgJzgnLCAnLW1hJywgJzUwMCcsICctaW1hZScsICc8aW5maWxlLm1hZT4nLCAnLW9tYWUnLCAnPG91dGZpbGUubWFlPic=

>  <s_epik_input>  (1) 
W0NAQEhdMTJbQ0BIXShbQ0gyXTIpW0NIMl1bQ0gyXU4xW0NIMl1bQ0BASF0zT1tDQEhdKFtDSF0oW0NASF00W09IXSlbQ0BAXTM0W09IXSlbTkhdW0NIMl1bQ0gyXVxbQ0hdPUMoXEYpW05IMl0=

>  <s_glide_docking_method>  (1) 
confgen

>  <s_i_glide_gridfile>  (1) 
gpcr_5ht2c_6bqh_protein_autoprepared_prepared

>  <s_lp_Force_Field>  (1) 
S-OPLS

>  <s_lp_Variant>  (1) 
DiffSBDD_22-4

>  <s_m_source_file>  (1) 
generated_GPCR_5HT2C_ligand_DiffSBDD_2026-06-23_prepared.sdf

>  <GenAI_Model>  (1) 
DiffSBDD

>  <Protein>  (1) 
GPCR_5HT2C

$$$$
DiffSBDD_54
     RDKit          3D

  0  0  0  0  0  0  0  0  0  0999 V3000
M  V30 BEGIN CTAB
M  V30 COUNTS 41 42 0 0 1
M  V30 BEGIN ATOM
M  V30 1 C 38.565749 30.769483 54.137716 0
M  V30 2 C 38.989134 26.319471 56.787983 0
M  V30 3 C 40.966031 27.804132 57.131978 0
M  V30 4 C 39.650619 29.416082 50.370319 0
M  V30 5 C 39.396845 27.908733 52.456498 0
M  V30 6 S 38.571506 28.917645 56.103140 0 CHG=1
M  V30 7 C 38.813540 31.315828 56.590208 0
M  V30 8 N 38.045135 26.382641 57.707976 0
M  V30 9 C 37.280117 27.477906 53.797809 0
M  V30 10 C 37.726478 25.035055 57.767758 0
M  V30 11 N 38.445769 24.227855 56.967762 0
M  V30 12 N 39.243958 25.109842 56.354837 0
M  V30 13 N 38.839269 29.359969 54.432613 0
M  V30 14 C 38.283881 28.547429 53.322408 0 CFG=1
M  V30 15 C 39.231160 31.695271 55.164889 0
M  V30 16 C 40.279905 28.898124 51.665783 0
M  V30 17 O 39.286496 30.001625 56.846073 0
M  V30 18 C 39.737922 27.504503 56.259080 0 CFG=2
M  V30 19 H 37.486916 30.934456 54.159646 0
M  V30 20 H 38.915622 31.033295 53.140123 0
M  V30 21 H 41.575819 26.911978 57.270227 0
M  V30 22 H 40.684773 28.165693 58.121704 0
M  V30 23 H 41.608961 28.537754 56.656285 0
M  V30 24 H 40.389181 29.945022 49.767338 0
M  V30 25 H 38.845138 30.116030 50.567761 0
M  V30 26 H 39.252509 28.599712 49.767762 0
M  V30 27 H 38.941142 27.221033 51.741943 0
M  V30 28 H 40.031259 27.273293 53.070271 0
M  V30 29 H 39.263383 32.002532 57.306591 0
M  V30 30 H 37.731372 31.390781 56.726224 0
M  V30 31 H 36.845139 26.936453 52.967758 0
M  V30 32 H 36.445157 27.930507 54.321910 0
M  V30 33 H 37.730451 26.718607 54.431859 0
M  V30 34 H 36.955269 24.645550 58.413827 0
M  V30 35 H 39.930988 24.839322 55.664042 0
M  V30 36 H 37.712492 29.191183 52.652199 0
M  V30 37 H 40.316511 31.644306 55.068741 0
M  V30 38 H 38.946321 32.729078 54.967584 0
M  V30 39 H 40.579858 29.737761 52.289736 0
M  V30 40 H 41.205587 28.397097 51.388911 0
M  V30 41 H 40.099001 27.248392 55.266405 0
M  V30 END ATOM
M  V30 BEGIN BOND
M  V30 1 2 8 2
M  V30 2 1 10 8
M  V30 3 2 11 10
M  V30 4 1 12 2
M  V30 5 1 12 11
M  V30 6 1 13 1
M  V30 7 1 13 6
M  V30 8 1 14 5
M  V30 9 1 14 9
M  V30 10 1 14 13
M  V30 11 1 15 1
M  V30 12 1 15 7
M  V30 13 1 16 4
M  V30 14 1 16 5
M  V30 15 1 6 17 CFG=1
M  V30 16 1 17 7
M  V30 17 1 18 2
M  V30 18 1 18 3
M  V30 19 1 18 6
M  V30 20 1 19 1
M  V30 21 1 20 1
M  V30 22 1 21 3
M  V30 23 1 22 3
M  V30 24 1 23 3
M  V30 25 1 24 4
M  V30 26 1 25 4
M  V30 27 1 26 4
M  V30 28 1 27 5
M  V30 29 1 28 5
M  V30 30 1 29 7
M  V30 31 1 30 7
M  V30 32 1 31 9
M  V30 33 1 32 9
M  V30 34 1 33 9
M  V30 35 1 34 10
M  V30 36 1 35 12
M  V30 37 1 14 36 CFG=3
M  V30 38 1 37 15
M  V30 39 1 38 15
M  V30 40 1 39 16
M  V30 41 1 40 16
M  V30 42 1 18 41 CFG=3
M  V30 END BOND
M  V30 END CTAB
M  END
>  <i_epik_Tot_Q>  (1) 
1

>  <i_epik_Tot_abs_Q>  (1) 
1

>  <i_i_glide_confnum>  (1) 
14

>  <i_i_glide_lignum>  (1) 
120

>  <i_i_glide_posenum>  (1) 
363

>  <i_i_glide_rotatable_bonds>  (1) 
5

>  <i_lp_mmshare_version>  (1) 
72125

>  <i_m_source_file_index>  (1) 
55

>  <i_f3d_flags>  (1) 
0

>  <num_sample>  (1) 
100

>  <b_lp_Chiralities_Consistent>  (1) 
1

>  <r_epik_Charging_Adjusted_Penalty>  (1) 
1.0448623015598277

>  <r_epik_Ionization_Penalty>  (1) 
1.0474264341019792

>  <r_epik_Ionization_Penalty_Charging>  (1) 
0

>  <r_epik_Ionization_Penalty_Neutral>  (1) 
1.0474264341019792

>  <r_epik_State_Penalty>  (1) 
1.0448623015598277

>  <r_glide_ring_energy>  (1) 
0

>  <r_i_docking_score>  (1) 
-4.4289964827192767

>  <r_i_glide_ecoul>  (1) 
-1.6844584527882356

>  <r_i_glide_eff_state_penalty>  (1) 
1.0448623015598277

>  <r_i_glide_einternal>  (1) 
7.2259623805583892

>  <r_i_glide_emodel>  (1) 
-43.741691812546016

>  <r_i_glide_emodel_strain>  (1) 
0

>  <r_i_glide_energy>  (1) 
-30.939418356607071

>  <r_i_glide_erotb>  (1) 
0.97219657743730314

>  <r_i_glide_esite>  (1) 
0

>  <r_i_glide_evdw>  (1) 
-29.254959903818836

>  <r_i_glide_gscore>  (1) 
-5.4738587842791047

>  <r_i_glide_gscore_strain>  (1) 
0

>  <r_i_glide_hbond>  (1) 
0

>  <r_i_glide_ligand_efficiency>  (1) 
-0.24605536015107093

>  <r_i_glide_ligand_efficiency_ln>  (1) 
-1.1384507081437352

>  <r_i_glide_ligand_efficiency_sa>  (1) 
-0.64484746761488987

>  <r_i_glide_lipo>  (1) 
-2.1237532929142922

>  <r_i_glide_metal>  (1) 
-0

>  <r_i_glide_rewards>  (1) 
-2.6068853056929386

>  <r_lp_Energy>  (1) 
5.0378150000000002

>  <r_lp_tautomer_probability>  (1) 
0.94828448534560383

>  <s_epik_cmdline>  (1) 
J2VwaWtfcHl0aG9uJywgJy1waHQnLCAnMS4wJywgJy1waCcsICc3LjQnLCAnLXRuJywgJzgnLCAnLW1hJywgJzUwMCcsICctaW1hZScsICc8aW5maWxlLm1hZT4nLCAnLW9tYWUnLCAnPG91dGZpbGUubWFlPic=

>  <s_epik_input>  (1) 
W0NIM11bQ0gyXVtDSDJdW0NASF0oW0NIM10pTihbQ0gyXVtDSDJdW0NIMl1PMSlbUytdMVtDQEBIXShbQ0gzXSljMm5bY0hdbltuSF0y

>  <s_glide_docking_method>  (1) 
confgen

>  <s_i_glide_gridfile>  (1) 
gpcr_5ht2c_6bqh_protein_autoprepared_prepared

>  <s_lp_Force_Field>  (1) 
S-OPLS

>  <s_lp_Variant>  (1) 
DiffSBDD_54-6

>  <s_m_source_file>  (1) 
generated_GPCR_5HT2C_ligand_DiffSBDD_2026-06-23_prepared.sdf

>  <GenAI_Model>  (1) 
DiffSBDD

>  <Protein>  (1) 
GPCR_5HT2C

$$$$
DiffSBDD_9
     RDKit          3D

  0  0  0  0  0  0  0  0  0  0999 V3000
M  V30 BEGIN CTAB
M  V30 COUNTS 66 67 0 0 1
M  V30 BEGIN ATOM
M  V30 1 C 37.964479 32.005824 60.859567 0 CFG=1
M  V30 2 C 36.818396 25.548209 56.569480 0
M  V30 3 C 37.645117 37.866657 60.934806 0
M  V30 4 C 39.720827 30.384717 51.679409 0
M  V30 5 O 37.427618 36.969731 61.905063 0
M  V30 6 O 39.313434 28.101208 51.444885 0
M  V30 7 C 37.229186 33.327430 60.906795 0 CFG=1
M  V30 8 C 37.126864 32.356554 62.055531 0
M  V30 9 N 37.413543 30.893600 60.101631 0
M  V30 10 C 38.094245 29.014811 56.924614 0
M  V30 11 C 39.149634 27.168159 55.574409 0 CFG=2
M  V30 12 C 38.670343 27.542332 54.164767 0
M  V30 13 C 39.010095 28.989600 53.729245 0 CFG=1
M  V30 14 C 37.273007 29.539319 58.073694 0
M  V30 15 C 38.863763 29.212073 52.198012 0 CFG=1
M  V30 16 C 37.556425 26.532848 57.497954 0
M  V30 17 C 38.783982 30.086157 56.065611 0
M  V30 18 C 41.126003 27.317117 56.990464 0
M  V30 19 C 37.864221 34.692702 61.069162 0
M  V30 20 C 39.477516 31.933219 60.991342 0
M  V30 21 O 36.326118 28.940044 58.567760 0
M  V30 22 C 37.671460 30.892660 58.667448 0
M  V30 23 O 37.448712 37.666672 59.736802 0
M  V30 24 C 36.845127 35.715396 61.586638 0
M  V30 25 C 38.235291 27.663574 56.681229 0
M  V30 26 C 38.292382 30.044663 54.595831 0
M  V30 27 O 36.081106 33.312252 60.084419 0
M  V30 28 O 40.478108 27.639158 55.767764 0
M  V30 29 C 38.556820 25.761283 58.368240 0
M  V30 30 H 36.282225 26.075884 55.783916 0
M  V30 31 H 37.488855 24.839190 56.084170 0
M  V30 32 H 36.091238 24.959771 57.125925 0
M  V30 33 H 38.025210 38.791383 61.367774 0
M  V30 34 H 39.564551 31.309332 52.233048 0
M  V30 35 H 40.783428 30.154477 51.761864 0
M  V30 36 H 39.518645 30.591198 50.627496 0
M  V30 37 H 39.124265 28.257694 50.531624 0
M  V30 38 H 37.682116 32.537755 62.967708 0
M  V30 39 H 36.181392 31.832548 62.167755 0
M  V30 40 H 37.780633 30.025874 60.479985 0
M  V30 41 H 39.221892 26.082548 55.611858 0
M  V30 42 H 39.163294 26.832923 53.502020 0
M  V30 43 H 37.602180 27.351433 54.056314 0
M  V30 44 H 40.045137 29.180826 53.941880 0
M  V30 45 H 37.810124 29.337744 51.959017 0
M  V30 46 H 36.779852 26.834791 58.166755 0
M  V30 47 H 38.560534 31.098063 56.396079 0
M  V30 48 H 39.867500 30.002331 56.136253 0
M  V30 49 H 42.156526 27.670429 56.967781 0
M  V30 50 H 40.647832 27.793054 57.845920 0
M  V30 51 H 41.148357 26.243208 57.151240 0
M  V30 52 H 38.698681 34.619953 61.766296 0
M  V30 53 H 38.273493 35.008257 60.109923 0
M  V30 54 H 39.807771 32.412451 61.912851 0
M  V30 55 H 39.826509 30.899976 61.006900 0
M  V30 56 H 39.953514 32.459396 60.167763 0
M  V30 57 H 37.140283 31.700658 58.167743 0
M  V30 58 H 38.737153 31.047508 58.501884 0
M  V30 59 H 36.057758 35.838063 60.841497 0
M  V30 60 H 36.359138 35.337858 62.486019 0
M  V30 61 H 38.472594 31.030909 54.168952 0
M  V30 62 H 37.210275 29.907519 54.557156 0
M  V30 63 H 36.055769 32.467687 59.649811 0
M  V30 64 H 39.085812 26.431136 59.044569 0
M  V30 65 H 38.045170 25.010163 58.967693 0
M  V30 66 H 39.291790 25.225265 57.769780 0
M  V30 END ATOM
M  V30 BEGIN BOND
M  V30 1 1 5 3
M  V30 2 1 7 1
M  V30 3 1 8 1
M  V30 4 1 8 7
M  V30 5 1 1 9 CFG=3
M  V30 6 1 12 11
M  V30 7 1 13 12
M  V30 8 1 14 10
M  V30 9 1 15 4
M  V30 10 1 15 6
M  V30 11 1 15 13
M  V30 12 1 16 2
M  V30 13 1 17 10
M  V30 14 1 19 7
M  V30 15 1 20 1
M  V30 16 2 21 14
M  V30 17 1 22 9
M  V30 18 1 22 14
M  V30 19 2 23 3
M  V30 20 1 24 5
M  V30 21 1 24 19
M  V30 22 2 25 10
M  V30 23 1 25 11
M  V30 24 1 25 16
M  V30 25 1 26 13
M  V30 26 1 26 17
M  V30 27 1 7 27 CFG=3
M  V30 28 1 28 11
M  V30 29 1 28 18
M  V30 30 1 29 16
M  V30 31 1 30 2
M  V30 32 1 31 2
M  V30 33 1 32 2
M  V30 34 1 33 3
M  V30 35 1 34 4
M  V30 36 1 35 4
M  V30 37 1 36 4
M  V30 38 1 37 6
M  V30 39 1 38 8
M  V30 40 1 39 8
M  V30 41 1 40 9
M  V30 42 1 11 41 CFG=3
M  V30 43 1 42 12
M  V30 44 1 43 12
M  V30 45 1 13 44 CFG=1
M  V30 46 1 15 45 CFG=1
M  V30 47 1 46 16
M  V30 48 1 47 17
M  V30 49 1 48 17
M  V30 50 1 49 18
M  V30 51 1 50 18
M  V30 52 1 51 18
M  V30 53 1 52 19
M  V30 54 1 53 19
M  V30 55 1 54 20
M  V30 56 1 55 20
M  V30 57 1 56 20
M  V30 58 1 57 22
M  V30 59 1 58 22
M  V30 60 1 59 24
M  V30 61 1 60 24
M  V30 62 1 61 26
M  V30 63 1 62 26
M  V30 64 1 63 27
M  V30 65 1 64 29
M  V30 66 1 65 29
M  V30 67 1 66 29
M  V30 END BOND
M  V30 END CTAB
M  END
>  <i_epik_Tot_Q>  (1) 
0

>  <i_epik_Tot_abs_Q>  (1) 
0

>  <i_i_glide_confnum>  (1) 
2818

>  <i_i_glide_lignum>  (1) 
15

>  <i_i_glide_posenum>  (1) 
12

>  <i_i_glide_rotatable_bonds>  (1) 
13

>  <i_lp_mmshare_version>  (1) 
72125

>  <i_m_source_file_index>  (1) 
10

>  <i_f3d_flags>  (1) 
0

>  <num_sample>  (1) 
100

>  <b_lp_Chiralities_Consistent>  (1) 
1

>  <r_epik_Charging_Adjusted_Penalty>  (1) 
0.70191645640278022

>  <r_epik_Ionization_Penalty>  (1) 
0.70191663338499877

>  <r_epik_Ionization_Penalty_Charging>  (1) 
0

>  <r_epik_Ionization_Penalty_Neutral>  (1) 
0.70191663338499877

>  <r_epik_State_Penalty>  (1) 
0.70191645640278022

>  <r_glide_ring_energy>  (1) 
0

>  <r_i_docking_score>  (1) 
-4.4288379819648558

>  <r_i_glide_ecoul>  (1) 
-1.0081804227949318

>  <r_i_glide_eff_state_penalty>  (1) 
0.70191645640278022

>  <r_i_glide_einternal>  (1) 
14.01549807387741

>  <r_i_glide_emodel>  (1) 
-32.677718487890843

>  <r_i_glide_emodel_strain>  (1) 
2.6712870867060019

>  <r_i_glide_energy>  (1) 
-31.913435701303317

>  <r_i_glide_erotb>  (1) 
0.93101816362055201

>  <r_i_glide_esite>  (1) 
-0.058199304015725588

>  <r_i_glide_evdw>  (1) 
-30.905255278508385

>  <r_i_glide_gscore>  (1) 
-5.130754438367636

>  <r_i_glide_gscore_strain>  (1) 
0

>  <r_i_glide_hbond>  (1) 
-0.0027748734564186314

>  <r_i_glide_ligand_efficiency>  (1) 
-0.15271855110223639

>  <r_i_glide_ligand_efficiency_ln>  (1) 
-1.0140915922287252

>  <r_i_glide_ligand_efficiency_sa>  (1) 
-0.46919977414576486

>  <r_i_glide_lipo>  (1) 
-2.9219030553931713

>  <r_i_glide_metal>  (1) 
-0

>  <r_i_glide_rewards>  (1) 
-1.3824055417782131

>  <r_lp_Energy>  (1) 
40.571261999999997

>  <s_epik_Chemistry_Notes>  (1) 
This compound has an ester and may undergo hydrolysis at high or low pH.

>  <s_epik_cmdline>  (1) 
J2VwaWtfcHl0aG9uJywgJy1waHQnLCAnMS4wJywgJy1waCcsICc3LjQnLCAnLXRuJywgJzgnLCAnLW1hJywgJzUwMCcsICctaW1hZScsICc8aW5maWxlLm1hZT4nLCAnLW9tYWUnLCAnPG91dGZpbGUubWFlPic=

>  <s_epik_input>  (1) 
Tz1bQ0hdT1tDSDJdW0NIMl1bQ0BAXShbQ0gyXTEpKFtPSF0pW0NAXTEoW0NIM10pW05IXVtDSDJdQyg9TylDMj1DKFtDSF0oW0NIM10pW0NIM10pW0NASF0oT1tDSDNdKVtDSDJdW0NAQEhdKFtDQEBIXShbQ0gzXSlbT0hdKVtDSDJdW0NIMl0y

>  <s_glide_docking_method>  (1) 
confgen

>  <s_i_glide_gridfile>  (1) 
gpcr_5ht2c_6bqh_protein_autoprepared_prepared

>  <s_lp_Force_Field>  (1) 
S-OPLS

>  <s_lp_Variant>  (1) 
DiffSBDD_9-3

>  <s_m_source_file>  (1) 
generated_GPCR_5HT2C_ligand_DiffSBDD_2026-06-23_prepared.sdf

>  <GenAI_Model>  (1) 
DiffSBDD

>  <Protein>  (1) 
GPCR_5HT2C

$$$$
DiffSBDD_21
     RDKit          3D

  0  0  0  0  0  0  0  0  0  0999 V3000
M  V30 BEGIN CTAB
M  V30 COUNTS 55 56 0 0 1
M  V30 BEGIN ATOM
M  V30 1 C 40.309684 33.586194 61.371846 0
M  V30 2 C 39.689600 34.765983 60.864812 0
M  V30 3 C 37.226282 24.279423 54.967757 0
M  V30 4 O 38.215416 26.937913 53.080333 0
M  V30 5 O 39.245083 29.735995 52.909891 0
M  V30 6 O 40.374759 27.737780 59.869488 0
M  V30 7 C 38.784517 30.517884 53.997735 0
M  V30 8 N 40.839062 32.635471 61.768193 0
M  V30 9 C 37.459606 33.095864 58.636517 0
M  V30 10 C 37.632826 33.492789 60.110829 0
M  V30 11 O 38.271441 25.223930 55.127680 0
M  V30 12 C 38.723025 32.492268 58.002908 0
M  V30 13 C 37.773312 26.507447 55.469989 0 CFG=2
M  V30 14 C 39.075536 28.320161 59.838916 0
M  V30 15 C 40.668732 28.134488 57.501698 0
M  V30 16 C 37.656831 27.421318 54.277585 0 CFG=1
M  V30 17 C 38.472355 31.923605 56.598772 0
M  V30 18 C 39.459671 30.094381 55.320694 0 CFG=1
M  V30 19 N 39.360411 28.783688 57.439558 0
M  V30 20 O 39.641942 31.234216 56.166343 0
M  V30 21 C 38.780382 28.923010 56.097257 0 CFG=2
M  V30 22 C 38.473808 28.190722 58.429072 0
M  V30 23 C 41.273725 28.281507 58.906324 0
M  V30 24 C 38.474595 34.743164 60.287638 0
M  V30 25 C 38.773372 27.633222 55.282121 0 CFG=1
M  V30 26 H 40.233183 35.694977 60.958076 0
M  V30 27 H 37.644570 23.310289 54.700921 0
M  V30 28 H 36.658700 24.157620 55.891167 0
M  V30 29 H 36.540510 24.575421 54.172928 0
M  V30 30 H 38.488301 26.045546 53.247296 0
M  V30 31 H 38.916779 28.846788 52.991711 0
M  V30 32 H 39.052982 31.549502 53.766838 0
M  V30 33 H 37.697133 30.486122 54.072491 0
M  V30 34 H 37.108155 33.945334 58.048819 0
M  V30 35 H 36.668010 32.349935 58.589244 0
M  V30 36 H 36.652638 33.702233 60.540524 0
M  V30 37 H 38.032606 32.653120 60.679292 0
M  V30 38 H 39.071519 31.679793 58.641357 0
M  V30 39 H 39.519712 33.235371 57.966018 0
M  V30 40 H 37.053768 26.537857 56.286290 0
M  V30 41 H 39.137180 29.367903 60.137294 0
M  V30 42 H 38.445408 27.813010 60.567806 0
M  V30 43 H 40.568407 27.073094 57.270138 0
M  V30 44 H 41.353402 28.538093 56.758358 0
M  V30 45 H 36.846684 28.141810 54.182969 0
M  V30 46 H 38.220353 32.714530 55.891258 0
M  V30 47 H 37.618273 31.255898 56.646620 0
M  V30 48 H 40.478353 29.791707 55.078688 0
M  V30 49 H 37.733428 29.197761 56.224100 0
M  V30 50 H 37.502430 28.685664 58.407244 0
M  V30 51 H 38.302250 27.138925 58.199644 0
M  V30 52 H 41.467310 29.331026 59.132896 0
M  V30 53 H 42.226365 27.755343 58.968020 0
M  V30 54 H 38.046924 35.663473 59.916568 0
M  V30 55 H 39.770654 27.314519 54.980505 0
M  V30 END ATOM
M  V30 BEGIN BOND
M  V30 1 1 2 1
M  V30 2 1 7 5
M  V30 3 3 8 1
M  V30 4 1 10 9
M  V30 5 1 11 3
M  V30 6 1 12 9
M  V30 7 1 13 11
M  V30 8 1 14 6
M  V30 9 1 16 4
M  V30 10 1 16 13
M  V30 11 1 17 12
M  V30 12 1 18 7
M  V30 13 1 19 15
M  V30 14 1 20 17
M  V30 15 1 20 18
M  V30 16 1 21 18
M  V30 17 1 21 19
M  V30 18 1 22 14
M  V30 19 1 22 19
M  V30 20 1 23 6
M  V30 21 1 23 15
M  V30 22 2 24 2
M  V30 23 1 24 10
M  V30 24 1 25 13
M  V30 25 1 25 16
M  V30 26 1 25 21
M  V30 27 1 26 2
M  V30 28 1 27 3
M  V30 29 1 28 3
M  V30 30 1 29 3
M  V30 31 1 30 4
M  V30 32 1 31 5
M  V30 33 1 32 7
M  V30 34 1 33 7
M  V30 35 1 34 9
M  V30 36 1 35 9
M  V30 37 1 36 10
M  V30 38 1 37 10
M  V30 39 1 38 12
M  V30 40 1 39 12
M  V30 41 1 13 40 CFG=1
M  V30 42 1 41 14
M  V30 43 1 42 14
M  V30 44 1 43 15
M  V30 45 1 44 15
M  V30 46 1 16 45 CFG=3
M  V30 47 1 46 17
M  V30 48 1 47 17
M  V30 49 1 18 48 CFG=3
M  V30 50 1 21 49 CFG=1
M  V30 51 1 50 22
M  V30 52 1 51 22
M  V30 53 1 52 23
M  V30 54 1 53 23
M  V30 55 1 54 24
M  V30 56 1 25 55 CFG=3
M  V30 END BOND
M  V30 END CTAB
M  END
>  <i_epik_Tot_Q>  (1) 
0

>  <i_epik_Tot_abs_Q>  (1) 
0

>  <i_i_glide_confnum>  (1) 
1793

>  <i_i_glide_lignum>  (1) 
51

>  <i_i_glide_posenum>  (1) 
258

>  <i_i_glide_rotatable_bonds>  (1) 
13

>  <i_lp_mmshare_version>  (1) 
72125

>  <i_m_source_file_index>  (1) 
22

>  <i_f3d_flags>  (1) 
0

>  <num_sample>  (1) 
100

>  <b_lp_Chiralities_Consistent>  (1) 
1

>  <r_epik_Charging_Adjusted_Penalty>  (1) 
0.033214284747091018

>  <r_epik_Ionization_Penalty>  (1) 
0.033214513384273246

>  <r_epik_Ionization_Penalty_Charging>  (1) 
0

>  <r_epik_Ionization_Penalty_Neutral>  (1) 
0.033214513384273246

>  <r_epik_State_Penalty>  (1) 
0.033214284747091018

>  <r_glide_ring_energy>  (1) 
0

>  <r_i_docking_score>  (1) 
-4.4209811363929061

>  <r_i_glide_ecoul>  (1) 
-0.22013291947632641

>  <r_i_glide_eff_state_penalty>  (1) 
0.033214284747091018

>  <r_i_glide_einternal>  (1) 
7.0764516225379062

>  <r_i_glide_emodel>  (1) 
-42.195967629304555

>  <r_i_glide_emodel_strain>  (1) 
0.42129447983311508

>  <r_i_glide_energy>  (1) 
-34.193482053982486

>  <r_i_glide_erotb>  (1) 
1.5209836995870194

>  <r_i_glide_esite>  (1) 
0

>  <r_i_glide_evdw>  (1) 
-33.973349134506158

>  <r_i_glide_gscore>  (1) 
-4.454195421139997

>  <r_i_glide_gscore_strain>  (1) 
0

>  <r_i_glide_hbond>  (1) 
0

>  <r_i_glide_ligand_efficiency>  (1) 
-0.17683924545571625

>  <r_i_glide_ligand_efficiency_ln>  (1) 
-1.0479050154388032

>  <r_i_glide_ligand_efficiency_sa>  (1) 
-0.51708109052469331

>  <r_i_glide_lipo>  (1) 
-2.9216671544114265

>  <r_i_glide_metal>  (1) 
-0

>  <r_i_glide_rewards>  (1) 
-1.3218245716688342

>  <r_lp_Energy>  (1) 
18.010252999999999

>  <s_epik_cmdline>  (1) 
J2VwaWtfcHl0aG9uJywgJy1waHQnLCAnMS4wJywgJy1waCcsICc3LjQnLCAnLXRuJywgJzgnLCAnLW1hJywgJzUwMCcsICctaW1hZScsICc8aW5maWxlLm1hZT4nLCAnLW9tYWUnLCAnPG91dGZpbGUubWFlPic=

>  <s_epik_input>  (1) 
TiNDL1tDSF09W0NIXVxbQ0gyXVtDSDJdW0NIMl1bQ0gyXU9bQ0BIXShbQ0gyXVtPSF0pW0NAQEhdKFtDQEBIXTFbQ0BASF0oW09IXSlbQ0BIXTFPW0NIM10pTjJbQ0gyXVtDSDJdT1tDSDJdW0NIMl0y

>  <s_glide_docking_method>  (1) 
confgen

>  <s_i_glide_gridfile>  (1) 
gpcr_5ht2c_6bqh_protein_autoprepared_prepared

>  <s_lp_Force_Field>  (1) 
S-OPLS

>  <s_lp_Variant>  (1) 
DiffSBDD_21-1

>  <s_m_source_file>  (1) 
generated_GPCR_5HT2C_ligand_DiffSBDD_2026-06-23_prepared.sdf

>  <GenAI_Model>  (1) 
DiffSBDD

>  <Protein>  (1) 
GPCR_5HT2C

$$$$
DiffSBDD_1
     RDKit          3D

  0  0  0  0  0  0  0  0  0  0999 V3000
M  V30 BEGIN CTAB
M  V30 COUNTS 52 53 0 0 1
M  V30 BEGIN ATOM
M  V30 1 C 38.663171 31.589177 55.619207 0
M  V30 2 C 38.384531 32.666418 60.871144 0
M  V30 3 C 39.481447 28.476115 55.999817 0
M  V30 4 C 37.058252 27.960999 53.622759 0
M  V30 5 C 38.691342 26.186612 56.022399 0
M  V30 6 C 38.757525 31.143909 54.150714 0
M  V30 7 C 37.630989 33.207981 59.632215 0 CFG=2
M  V30 8 C 39.163089 30.646327 62.248322 0
M  V30 9 C 38.467728 31.127484 60.971103 0
M  V30 10 C 38.527304 27.571377 53.849034 0 CFG=1
M  V30 11 C 39.132705 27.259529 56.688794 0
M  V30 12 C 38.552919 26.152143 54.509911 0
M  V30 13 C 39.260105 27.636183 52.500991 0
M  V30 14 C 39.221450 28.645325 54.688075 0
M  V30 15 C 39.630570 29.891145 53.920992 0 CFG=1
M  V30 16 C 36.151969 32.775783 59.642087 0
M  V30 17 N 37.645139 33.334193 57.114975 0 CHG=1
M  V30 18 C 38.360824 32.854054 58.317241 0
M  V30 19 S 39.645137 29.388121 52.167739 0
M  V30 20 C 38.309623 33.074973 55.816316 0
M  V30 21 H 39.614436 31.411175 56.120148 0
M  V30 22 H 37.920245 30.956514 56.108882 0
M  V30 23 H 37.901609 33.052434 61.770219 0
M  V30 24 H 39.394296 33.079095 60.883132 0
M  V30 25 H 39.973045 29.264429 56.547646 0
M  V30 26 H 36.554150 27.252816 52.968424 0
M  V30 27 H 36.948170 28.937755 53.161404 0
M  V30 28 H 36.527718 27.977198 54.567683 0
M  V30 29 H 38.444040 25.281955 56.558509 0
M  V30 30 H 37.750447 30.988502 53.767764 0
M  V30 31 H 39.177443 31.953631 53.556249 0
M  V30 32 H 37.636485 34.295713 59.718187 0
M  V30 33 H 39.245173 29.558989 62.259446 0
M  V30 34 H 38.604465 30.937732 63.135931 0
M  V30 35 H 40.169838 31.056400 62.332794 0
M  V30 36 H 37.469821 30.691009 60.936579 0
M  V30 37 H 39.010463 30.720733 60.118754 0
M  V30 38 H 39.239532 27.209250 57.762808 0
M  V30 39 H 39.422978 25.594058 54.167764 0
M  V30 40 H 37.677807 25.563409 54.231564 0
M  V30 41 H 40.200138 27.091814 52.567766 0
M  V30 42 H 38.687818 27.196519 51.682620 0
M  V30 43 H 40.653665 30.137758 54.205886 0
M  V30 44 H 36.035176 31.717926 59.405515 0
M  V30 45 H 35.566505 33.337655 58.914366 0
M  V30 46 H 35.695549 32.953063 60.616309 0
M  V30 47 H 36.743330 32.847604 57.072730 0
M  V30 48 H 38.474228 31.774169 58.244546 0
M  V30 49 H 39.363549 33.283210 58.325636 0
M  V30 50 H 39.207878 33.687530 55.735584 0
M  V30 51 H 37.645135 33.409157 55.021367 0
M  V30 52 H 37.460022 34.324045 57.200226 0
M  V30 END ATOM
M  V30 BEGIN BOND
M  V30 1 1 6 1
M  V30 2 1 7 2
M  V30 3 1 9 2
M  V30 4 1 9 8
M  V30 5 1 10 4 CFG=3
M  V30 6 1 11 3
M  V30 7 2 11 5
M  V30 8 1 12 5
M  V30 9 1 12 10
M  V30 10 1 13 10
M  V30 11 2 14 3
M  V30 12 1 14 10
M  V30 13 1 15 6
M  V30 14 1 15 14
M  V30 15 1 16 7
M  V30 16 1 18 7
M  V30 17 1 18 17
M  V30 18 1 19 13
M  V30 19 1 19 15
M  V30 20 1 20 1
M  V30 21 1 20 17
M  V30 22 1 21 1
M  V30 23 1 22 1
M  V30 24 1 23 2
M  V30 25 1 24 2
M  V30 26 1 25 3
M  V30 27 1 26 4
M  V30 28 1 27 4
M  V30 29 1 28 4
M  V30 30 1 29 5
M  V30 31 1 30 6
M  V30 32 1 31 6
M  V30 33 1 7 32 CFG=1
M  V30 34 1 33 8
M  V30 35 1 34 8
M  V30 36 1 35 8
M  V30 37 1 36 9
M  V30 38 1 37 9
M  V30 39 1 38 11
M  V30 40 1 39 12
M  V30 41 1 40 12
M  V30 42 1 41 13
M  V30 43 1 42 13
M  V30 44 1 15 43 CFG=1
M  V30 45 1 44 16
M  V30 46 1 45 16
M  V30 47 1 46 16
M  V30 48 1 47 17
M  V30 49 1 48 18
M  V30 50 1 49 18
M  V30 51 1 50 20
M  V30 52 1 51 20
M  V30 53 1 52 17
M  V30 END BOND
M  V30 END CTAB
M  END
>  <i_epik_Tot_Q>  (1) 
1

>  <i_epik_Tot_abs_Q>  (1) 
1

>  <i_i_glide_confnum>  (1) 
24

>  <i_i_glide_lignum>  (1) 
3

>  <i_i_glide_posenum>  (1) 
211

>  <i_i_glide_rotatable_bonds>  (1) 
8

>  <i_lp_mmshare_version>  (1) 
72125

>  <i_m_source_file_index>  (1) 
2

>  <i_f3d_flags>  (1) 
0

>  <num_sample>  (1) 
100

>  <b_lp_Chiralities_Consistent>  (1) 
1

>  <r_epik_Charging_Adjusted_Penalty>  (1) 
0.00045066838380530003

>  <r_epik_Ionization_Penalty>  (1) 
0.00045066838380530003

>  <r_epik_Ionization_Penalty_Charging>  (1) 
0.00045066838380530003

>  <r_epik_Ionization_Penalty_Neutral>  (1) 
0

>  <r_epik_State_Penalty>  (1) 
-0

>  <r_glide_ring_energy>  (1) 
0

>  <r_i_docking_score>  (1) 
-4.4095257445261229

>  <r_i_glide_ecoul>  (1) 
-3.9467053629920201

>  <r_i_glide_eff_state_penalty>  (1) 
-0

>  <r_i_glide_einternal>  (1) 
6.360510232252282

>  <r_i_glide_emodel>  (1) 
-41.68053428044594

>  <r_i_glide_emodel_strain>  (1) 
0.099659022143413267

>  <r_i_glide_energy>  (1) 
-33.375788582325988

>  <r_i_glide_erotb>  (1) 
2.9518461501230213

>  <r_i_glide_esite>  (1) 
-0.10000000000000001

>  <r_i_glide_evdw>  (1) 
-29.429083219333968

>  <r_i_glide_gscore>  (1) 
-4.4095257445261229

>  <r_i_glide_gscore_strain>  (1) 
0

>  <r_i_glide_hbond>  (1) 
-0.22361571706312025

>  <r_i_glide_ligand_efficiency>  (1) 
-0.22047628722630613

>  <r_i_glide_ligand_efficiency_ln>  (1) 
-1.103558857962244

>  <r_i_glide_ligand_efficiency_sa>  (1) 
-0.59846471808852397

>  <r_i_glide_lipo>  (1) 
-2.8815491302081893

>  <r_i_glide_metal>  (1) 
-0

>  <r_i_glide_rewards>  (1) 
-2.0927470819623331

>  <r_lp_Energy>  (1) 
21.853418999999999

>  <r_lp_tautomer_probability>  (1) 
1

>  <s_epik_cmdline>  (1) 
J2VwaWtfcHl0aG9uJywgJy1waHQnLCAnMS4wJywgJy1waCcsICc3LjQnLCAnLXRuJywgJzgnLCAnLW1hJywgJzUwMCcsICctaW1hZScsICc8aW5maWxlLm1hZT4nLCAnLW9tYWUnLCAnPG91dGZpbGUubWFlPic=

>  <s_epik_input>  (1) 
W0NIMl0xW0NIXT1bQ0hdW0NIXT1DKFtDQF0xMltDSDNdKVtDQEBIXShTW0NIMl0yKVtDSDJdW0NIMl1bQ0gyXVtOSF1bQ0gyXVtDQEBIXShbQ0gzXSlbQ0gyXVtDSDJdW0NIM10=

>  <s_glide_docking_method>  (1) 
confgen

>  <s_i_glide_gridfile>  (1) 
gpcr_5ht2c_6bqh_protein_autoprepared_prepared

>  <s_lp_Force_Field>  (1) 
S-OPLS

>  <s_lp_Variant>  (1) 
DiffSBDD_1-1

>  <s_m_source_file>  (1) 
generated_GPCR_5HT2C_ligand_DiffSBDD_2026-06-23_prepared.sdf

>  <GenAI_Model>  (1) 
DiffSBDD

>  <Protein>  (1) 
GPCR_5HT2C

$$$$
DiffSBDD_14
     RDKit          3D

  0  0  0  0  0  0  0  0  0  0999 V3000
M  V30 BEGIN CTAB
M  V30 COUNTS 49 48 0 0 1
M  V30 BEGIN ATOM
M  V30 1 C 39.141133 26.952388 58.680352 0
M  V30 2 C 39.645138 27.011355 52.769589 0
M  V30 3 C 38.609056 28.124384 59.481711 0
M  V30 4 C 39.608176 26.211155 55.155384 0
M  V30 5 O 35.719244 31.737755 61.367760 0 CHG=-1
M  V30 6 N 37.388463 31.669468 58.567760 0 CHG=1
M  V30 7 C 38.353157 26.092951 58.012147 0
M  V30 8 C 37.414286 31.003715 59.876535 0 CFG=2
M  V30 9 C 39.197563 27.882132 51.615605 0
M  V30 10 C 37.158703 25.380311 55.345564 0
M  V30 11 C 38.637931 25.130004 55.684677 0 CFG=2
M  V30 12 C 36.840471 32.000955 60.886113 0
M  V30 13 C 40.249337 28.983262 51.381889 0
M  V30 14 O 37.532596 33.008402 61.149259 0
M  V30 15 C 38.847228 30.555103 60.280064 0
M  V30 16 O 40.730142 29.114128 59.984530 0
M  V30 17 C 40.045138 29.799790 50.103413 0
M  V30 18 C 39.122391 27.063636 54.000160 0
M  V30 19 C 38.864897 24.918681 57.197664 0
M  V30 20 C 39.458207 29.403555 59.445250 0 CFG=1
M  V30 21 H 40.213685 26.822554 58.661582 0
M  V30 22 H 40.445134 26.318867 52.567761 0
M  V30 23 H 38.445137 27.800843 60.509929 0
M  V30 24 H 37.645137 28.362523 59.041526 0
M  V30 25 H 39.864006 26.920563 55.941804 0
M  V30 26 H 40.553010 25.737755 54.886926 0
M  V30 27 H 36.427079 31.780448 58.250286 0
M  V30 28 H 37.809663 32.582177 58.663882 0
M  V30 29 H 37.281769 26.226935 58.037509 0
M  V30 30 H 36.744351 30.145860 59.832925 0
M  V30 31 H 39.085053 27.253775 50.730803 0
M  V30 32 H 38.221547 28.324007 51.821709 0
M  V30 33 H 36.845135 26.369518 55.673522 0
M  V30 34 H 36.984100 25.315556 54.270954 0
M  V30 35 H 36.511434 24.643466 55.821882 0
M  V30 36 H 38.895551 24.197873 55.183081 0
M  V30 37 H 40.252444 29.664463 52.233585 0
M  V30 38 H 41.244291 28.537756 51.367410 0
M  V30 39 H 38.826025 30.246225 61.327184 0
M  V30 40 H 39.522733 31.411870 60.243752 0
M  V30 41 H 40.613102 28.672990 60.813381 0
M  V30 42 H 40.883713 30.477899 49.940030 0
M  V30 43 H 39.962153 29.157923 49.227716 0
M  V30 44 H 39.146878 30.409731 50.167761 0
M  V30 45 H 38.315126 27.750343 54.210304 0
M  V30 46 H 39.925449 24.756344 57.396986 0
M  V30 47 H 38.347930 24.019449 57.535040 0
M  V30 48 H 39.594815 29.726874 58.412342 0
M  V30 49 H 37.885637 31.124812 57.880727 0
M  V30 END ATOM
M  V30 BEGIN BOND
M  V30 1 1 3 1
M  V30 2 2 7 1
M  V30 3 1 8 6
M  V30 4 1 9 2
M  V30 5 1 11 4
M  V30 6 1 11 10
M  V30 7 1 12 5
M  V30 8 1 12 8
M  V30 9 1 13 9
M  V30 10 2 14 12
M  V30 11 1 15 8
M  V30 12 1 17 13
M  V30 13 2 18 2
M  V30 14 1 18 4
M  V30 15 1 19 7
M  V30 16 1 19 11
M  V30 17 1 20 3
M  V30 18 1 20 15
M  V30 19 1 20 16
M  V30 20 1 21 1
M  V30 21 1 22 2
M  V30 22 1 23 3
M  V30 23 1 24 3
M  V30 24 1 25 4
M  V30 25 1 26 4
M  V30 26 1 27 6
M  V30 27 1 28 6
M  V30 28 1 29 7
M  V30 29 1 8 30 CFG=3
M  V30 30 1 31 9
M  V30 31 1 32 9
M  V30 32 1 33 10
M  V30 33 1 34 10
M  V30 34 1 35 10
M  V30 35 1 11 36 CFG=3
M  V30 36 1 37 13
M  V30 37 1 38 13
M  V30 38 1 39 15
M  V30 39 1 40 15
M  V30 40 1 41 16
M  V30 41 1 42 17
M  V30 42 1 43 17
M  V30 43 1 44 17
M  V30 44 1 45 18
M  V30 45 1 46 19
M  V30 46 1 47 19
M  V30 47 1 20 48 CFG=3
M  V30 48 1 49 6
M  V30 END BOND
M  V30 END CTAB
M  END
>  <i_epik_Tot_Q>  (1) 
0

>  <i_epik_Tot_abs_Q>  (1) 
2

>  <i_i_glide_confnum>  (1) 
948

>  <i_i_glide_lignum>  (1) 
24

>  <i_i_glide_posenum>  (1) 
216

>  <i_i_glide_rotatable_bonds>  (1) 
12

>  <i_lp_mmshare_version>  (1) 
72125

>  <i_m_source_file_index>  (1) 
15

>  <i_f3d_flags>  (1) 
0

>  <num_sample>  (1) 
100

>  <b_lp_Chiralities_Consistent>  (1) 
1

>  <r_epik_Charging_Adjusted_Penalty>  (1) 
0.00991281995240933

>  <r_epik_Ionization_Penalty>  (1) 
0.0049587358016132182

>  <r_epik_Ionization_Penalty_Charging>  (1) 
0.0049586922537287062

>  <r_epik_Ionization_Penalty_Neutral>  (1) 
4.3547884512074136e-08

>  <r_epik_State_Penalty>  (1) 
0.0049541276986806238

>  <r_glide_ring_energy>  (1) 
0

>  <r_i_docking_score>  (1) 
-4.4092927502199384

>  <r_i_glide_ecoul>  (1) 
-6.3273703507279651

>  <r_i_glide_eff_state_penalty>  (1) 
0.0049541276986806238

>  <r_i_glide_einternal>  (1) 
8.3645524072863413

>  <r_i_glide_emodel>  (1) 
-41.164062753129087

>  <r_i_glide_emodel_strain>  (1) 
1.7839914330737567

>  <r_i_glide_energy>  (1) 
-34.906879260701714

>  <r_i_glide_erotb>  (1) 
4.0583376510001772

>  <r_i_glide_esite>  (1) 
-0.13198041463296628

>  <r_i_glide_evdw>  (1) 
-28.57950890997375

>  <r_i_glide_gscore>  (1) 
-4.414246877918619

>  <r_i_glide_gscore_strain>  (1) 
0

>  <r_i_glide_hbond>  (1) 
-0.36729572421854706

>  <r_i_glide_ligand_efficiency>  (1) 
-0.22046463751099693

>  <r_i_glide_ligand_efficiency_ln>  (1) 
-1.1035005471720725

>  <r_i_glide_ligand_efficiency_sa>  (1) 
-0.59843309589606031

>  <r_i_glide_lipo>  (1) 
-3.7454498939209442

>  <r_i_glide_metal>  (1) 
-0

>  <r_i_glide_rewards>  (1) 
-1.8497774980384556

>  <r_lp_Energy>  (1) 
-7.5592219999999992

>  <s_epik_cmdline>  (1) 
J2VwaWtfcHl0aG9uJywgJy1waHQnLCAnMS4wJywgJy1waCcsICc3LjQnLCAnLXRuJywgJzgnLCAnLW1hJywgJzUwMCcsICctaW1hZScsICc8aW5maWxlLm1hZT4nLCAnLW9tYWUnLCAnPG91dGZpbGUubWFlPic=

>  <s_epik_input>  (1) 
W09IXUMoPU8pW0NAQEhdKFtOSDJdKVtDSDJdW0NAQEhdKFtPSF0pW0NIMl0vW0NIXT1bQ0hdL1tDSDJdW0NAQEhdKFtDSDNdKVtDSDJdXFtDSF09W0NIXVxbQ0gyXVtDSDJdW0NIM10=

>  <s_glide_docking_method>  (1) 
confgen

>  <s_i_glide_gridfile>  (1) 
gpcr_5ht2c_6bqh_protein_autoprepared_prepared

>  <s_lp_Force_Field>  (1) 
S-OPLS

>  <s_lp_Variant>  (1) 
DiffSBDD_14-2

>  <s_m_source_file>  (1) 
generated_GPCR_5HT2C_ligand_DiffSBDD_2026-06-23_prepared.sdf

>  <GenAI_Model>  (1) 
DiffSBDD

>  <Protein>  (1) 
GPCR_5HT2C

$$$$
DiffSBDD_39
     RDKit          3D

  0  0  0  0  0  0  0  0  0  0999 V3000
M  V30 BEGIN CTAB
M  V30 COUNTS 44 46 0 0 1
M  V30 BEGIN ATOM
M  V30 1 C 39.276934 25.653801 57.031408 0
M  V30 2 C 37.189799 35.989364 61.459579 0
M  V30 3 C 39.468229 32.954732 60.294289 0
M  V30 4 O 37.000347 36.225405 60.113071 0
M  V30 5 O 39.645138 24.537755 57.367757 0
M  V30 6 C 35.943529 34.304962 59.425640 0 CFG=2
M  V30 7 C 38.207945 32.087075 57.625472 0
M  V30 8 C 40.175221 27.953501 56.486416 0
M  V30 9 O 35.288099 33.086839 59.728496 0
M  V30 10 C 40.086240 26.491062 56.034098 0 CFG=2
M  V30 11 N 37.431502 34.137766 59.447731 0
M  V30 12 O 36.908455 25.825685 56.761745 0
M  V30 13 C 37.991737 32.881837 59.900175 0 CFG=1
M  V30 14 C 38.794360 28.571061 56.704718 0 CFG=1
M  V30 15 C 38.019611 27.786478 57.781924 0
M  V30 16 O 37.832139 31.844116 58.978979 0
M  V30 17 C 36.789923 34.839543 60.519370 0 CFG=2
M  V30 18 O 39.034176 29.896769 57.143034 0
M  V30 19 C 39.526121 26.315548 54.611800 0
M  V30 20 C 37.979938 26.253445 57.577686 0 CFG=2
M  V30 21 C 37.976262 30.790582 56.850755 0
M  V30 22 H 36.445133 36.420079 62.121088 0
M  V30 23 H 38.221959 36.029191 61.800938 0
M  V30 24 H 39.590543 33.625408 61.144998 0
M  V30 25 H 39.835345 31.965221 60.567777 0
M  V30 26 H 40.045137 33.346452 59.461022 0
M  V30 27 H 35.467724 34.949337 58.688327 0
M  V30 28 H 39.245137 32.407137 57.534377 0
M  V30 29 H 37.587434 32.871994 57.192548 0
M  V30 30 H 40.747709 28.008221 57.414099 0
M  V30 31 H 40.738217 28.542381 55.764665 0
M  V30 32 H 35.209159 32.606985 58.907527 0
M  V30 33 H 41.103816 26.104323 56.033603 0
M  V30 34 H 36.903556 24.879921 56.753356 0
M  V30 35 H 37.447766 32.536801 60.781679 0
M  V30 36 H 38.245480 28.572078 55.761244 0
M  V30 37 H 37.004613 28.172970 57.873504 0
M  V30 38 H 38.492196 27.980858 58.745704 0
M  V30 39 H 39.645152 25.284273 54.289071 0
M  V30 40 H 38.465310 26.560168 54.549794 0
M  V30 41 H 40.045136 26.937758 53.887371 0
M  V30 42 H 37.810792 25.798970 58.553836 0
M  V30 43 H 37.959214 30.989110 55.778356 0
M  V30 44 H 37.013683 30.356697 57.120397 0
M  V30 END ATOM
M  V30 BEGIN BOND
M  V30 1 1 4 2
M  V30 2 2 5 1
M  V30 3 1 9 6
M  V30 4 1 10 1
M  V30 5 1 10 8
M  V30 6 1 11 6
M  V30 7 1 13 3
M  V30 8 1 13 11
M  V30 9 1 14 8
M  V30 10 1 15 14
M  V30 11 1 16 7
M  V30 12 1 16 13
M  V30 13 1 17 2
M  V30 14 1 17 4 CFG=3
M  V30 15 1 17 6
M  V30 16 1 17 11
M  V30 17 1 18 14
M  V30 18 1 19 10
M  V30 19 1 20 1
M  V30 20 1 20 12
M  V30 21 1 20 15
M  V30 22 1 21 7
M  V30 23 1 21 18
M  V30 24 1 22 2
M  V30 25 1 23 2
M  V30 26 1 24 3
M  V30 27 1 25 3
M  V30 28 1 26 3
M  V30 29 1 6 27 CFG=3
M  V30 30 1 28 7
M  V30 31 1 29 7
M  V30 32 1 30 8
M  V30 33 1 31 8
M  V30 34 1 32 9
M  V30 35 1 10 33 CFG=3
M  V30 36 1 34 12
M  V30 37 1 13 35 CFG=1
M  V30 38 1 14 36 CFG=3
M  V30 39 1 37 15
M  V30 40 1 38 15
M  V30 41 1 39 19
M  V30 42 1 40 19
M  V30 43 1 41 19
M  V30 44 1 20 42 CFG=1
M  V30 45 1 43 21
M  V30 46 1 44 21
M  V30 END BOND
M  V30 END CTAB
M  END
>  <i_epik_Tot_Q>  (1) 
0

>  <i_epik_Tot_abs_Q>  (1) 
0

>  <i_i_glide_confnum>  (1) 
200

>  <i_i_glide_lignum>  (1) 
86

>  <i_i_glide_posenum>  (1) 
342

>  <i_i_glide_rotatable_bonds>  (1) 
8

>  <i_lp_mmshare_version>  (1) 
72125

>  <i_m_source_file_index>  (1) 
40

>  <i_f3d_flags>  (1) 
0

>  <num_sample>  (1) 
100

>  <b_lp_Chiralities_Consistent>  (1) 
1

>  <r_epik_Charging_Adjusted_Penalty>  (1) 
0

>  <r_epik_Ionization_Penalty>  (1) 
7.7229051731594394e-07

>  <r_epik_Ionization_Penalty_Charging>  (1) 
0

>  <r_epik_Ionization_Penalty_Neutral>  (1) 
7.7229051731594394e-07

>  <r_epik_State_Penalty>  (1) 
-0

>  <r_glide_ring_energy>  (1) 
0

>  <r_i_docking_score>  (1) 
-4.3939300410126014

>  <r_i_glide_ecoul>  (1) 
-2.8262465623372566

>  <r_i_glide_eff_state_penalty>  (1) 
-0

>  <r_i_glide_einternal>  (1) 
3.9330811737920057

>  <r_i_glide_emodel>  (1) 
-39.182226065329402

>  <r_i_glide_emodel_strain>  (1) 
0.34159367237504057

>  <r_i_glide_energy>  (1) 
-30.936897791478639

>  <r_i_glide_erotb>  (1) 
1.2154630782883253

>  <r_i_glide_esite>  (1) 
-0.0118442877980914

>  <r_i_glide_evdw>  (1) 
-28.110651229141382

>  <r_i_glide_gscore>  (1) 
-4.3939300410126014

>  <r_i_glide_gscore_strain>  (1) 
0

>  <r_i_glide_hbond>  (1) 
-0.13422547219332784

>  <r_i_glide_ligand_efficiency>  (1) 
-0.20923476385774292

>  <r_i_glide_ligand_efficiency_ln>  (1) 
-1.0863903238687069

>  <r_i_glide_ligand_efficiency_sa>  (1) 
-0.57726284854652177

>  <r_i_glide_lipo>  (1) 
-1.5396240116235629

>  <r_i_glide_metal>  (1) 
-0

>  <r_i_glide_rewards>  (1) 
-2.0942298018782868

>  <r_lp_Energy>  (1) 
10.886961999999999

>  <r_lp_tautomer_probability>  (1) 
1

>  <s_epik_Chemistry_Notes>  (1) 
This compound contains an acetal/aminal-like group ( X-CH(R)-Y where X, Y are N, S, or O) that may be acid/base labile, releasing an aldehyde.

>  <s_epik_cmdline>  (1) 
J2VwaWtfcHl0aG9uJywgJy1waHQnLCAnMS4wJywgJy1waCcsICc3LjQnLCAnLXRuJywgJzgnLCAnLW1hJywgJzUwMCcsICctaW1hZScsICc8aW5maWxlLm1hZT4nLCAnLW9tYWUnLCAnPG91dGZpbGUubWFlPic=

>  <s_epik_input>  (1) 
Tz1DMVtDQEBIXShbQ0gzXSlbQ0gyXVtDQEBIXShbQ0gyXVtDQEhdMVtPSF0pT1tDSDJdW0NIMl1PW0NAQEhdKFtDSDNdKU4yW0NAQEhdKFtPSF0pQzIzW0NIMl1PMw==

>  <s_glide_docking_method>  (1) 
confgen

>  <s_i_glide_gridfile>  (1) 
gpcr_5ht2c_6bqh_protein_autoprepared_prepared

>  <s_lp_Force_Field>  (1) 
S-OPLS

>  <s_lp_Variant>  (1) 
DiffSBDD_39-1

>  <s_m_source_file>  (1) 
generated_GPCR_5HT2C_ligand_DiffSBDD_2026-06-23_prepared.sdf

>  <GenAI_Model>  (1) 
DiffSBDD

>  <Protein>  (1) 
GPCR_5HT2C

$$$$
DiffSBDD_57
     RDKit          3D

  0  0  0  0  0  0  0  0  0  0999 V3000
M  V30 BEGIN CTAB
M  V30 COUNTS 64 66 0 0 1
M  V30 BEGIN ATOM
M  V30 1 O 38.529237 29.543287 53.970679 0
M  V30 2 C 38.566493 33.149324 55.715283 0
M  V30 3 C 39.217979 26.733526 53.618976 0
M  V30 4 C 38.616010 30.943862 56.858227 0 CFG=2
M  V30 5 C 39.550667 31.495778 62.568109 0
M  V30 6 S 37.645143 33.465573 57.234547 0
M  V30 7 O 38.817124 30.551886 62.851162 0
M  V30 8 C 39.441060 31.929831 55.993587 0
M  V30 9 N 39.636635 35.905405 61.384815 0
M  V30 10 C 38.528430 25.360302 55.650860 0 CFG=2
M  V30 11 N 39.606314 32.035367 61.347635 0
M  V30 12 C 38.057347 29.203303 55.047687 0
M  V30 13 O 39.647066 25.063956 56.493037 0
M  V30 14 C 37.503807 30.280056 55.981297 0
M  V30 15 C 38.847369 32.183741 59.100921 0
M  V30 16 C 41.190280 34.609445 62.724491 0 CFG=2
M  V30 17 O 37.725314 24.142371 57.495648 0
M  V30 18 C 38.764552 31.638423 60.315463 0
M  V30 19 C 39.875139 35.397622 62.730177 0 CFG=1
M  V30 20 C 37.957635 31.839713 57.946148 0 CFG=2
M  V30 21 C 39.492792 29.821028 57.495511 0
M  V30 22 C 41.456654 33.155720 63.135037 0 CFG=2
M  V30 23 C 38.578423 26.688134 54.946547 0
M  V30 24 C 40.447644 32.127374 63.640223 0 CFG=2
M  V30 25 C 41.845830 34.280065 64.052455 0
M  V30 26 N 38.329132 25.385782 57.094384 0
M  V30 27 N 40.444931 26.137733 53.444196 0
M  V30 28 C 40.023732 36.682484 63.567431 0
M  V30 29 O 39.644530 36.537780 64.918227 0
M  V30 30 O 39.134910 34.820924 60.590018 0
M  V30 31 C 38.615150 27.331673 52.573147 0
M  V30 32 C 38.028179 27.789895 55.570203 0
M  V30 33 Cl 41.327721 30.846885 64.517980 0
M  V30 34 H 39.150705 34.018806 55.414281 0
M  V30 35 H 37.857898 32.941276 54.913478 0
M  V30 36 H 40.297486 32.294174 56.545438 0
M  V30 37 H 39.833728 31.490124 55.077385 0
M  V30 38 H 38.880654 36.576304 61.340883 0
M  V30 39 H 38.140711 24.527611 55.065354 0
M  V30 40 H 40.239867 32.801849 61.165426 0
M  V30 41 H 36.958192 31.017047 55.391362 0
M  V30 42 H 36.761614 29.818657 56.632376 0
M  V30 43 H 39.598597 32.938013 58.912967 0
M  V30 44 H 41.872431 35.005622 61.976913 0
M  V30 45 H 38.481881 23.637102 57.754518 0
M  V30 46 H 38.049079 30.872710 60.582479 0
M  V30 47 H 39.040068 34.786348 63.061716 0
M  V30 48 H 37.041415 31.395687 58.336807 0
M  V30 49 H 40.165803 30.137569 58.279856 0
M  V30 50 H 38.863995 29.058091 57.953996 0
M  V30 51 H 40.126592 29.331404 56.756042 0
M  V30 52 H 42.277124 32.689937 62.591613 0
M  V30 53 H 39.792981 32.602395 64.368312 0
M  V30 54 H 41.257488 34.411031 64.957880 0
M  V30 55 H 42.896210 34.523554 64.167180 0
M  V30 56 H 40.955366 25.740044 54.220698 0
M  V30 57 H 41.077463 36.937768 63.516271 0
M  V30 58 H 39.459631 37.527537 63.168671 0
M  V30 59 H 38.704653 36.450693 64.966465 0
M  V30 60 H 38.255212 34.699050 60.919259 0
M  V30 61 H 39.087840 27.361990 51.602589 0
M  V30 62 H 37.642682 27.791107 52.671370 0
M  V30 63 H 37.558349 27.655027 56.530545 0
M  V30 64 H 40.942042 26.197411 52.569534 0
M  V30 END ATOM
M  V30 BEGIN BOND
M  V30 1 1 6 2
M  V30 2 2 7 5
M  V30 3 1 8 2
M  V30 4 1 8 4
M  V30 5 1 11 5
M  V30 6 2 12 1
M  V30 7 1 13 10
M  V30 8 1 4 14 CFG=3
M  V30 9 1 14 12
M  V30 10 1 18 11
M  V30 11 2 18 15
M  V30 12 1 19 9
M  V30 13 1 19 16
M  V30 14 1 20 4
M  V30 15 1 20 6
M  V30 16 1 20 15
M  V30 17 1 21 4
M  V30 18 1 22 16
M  V30 19 1 23 3
M  V30 20 1 23 10
M  V30 21 1 24 5
M  V30 22 1 24 22
M  V30 23 1 25 16
M  V30 24 1 25 22
M  V30 25 1 26 10
M  V30 26 1 26 13
M  V30 27 1 26 17
M  V30 28 1 27 3
M  V30 29 1 28 19
M  V30 30 1 29 28
M  V30 31 1 30 9
M  V30 32 2 31 3
M  V30 33 1 32 12
M  V30 34 2 32 23
M  V30 35 1 33 24
M  V30 36 1 34 2
M  V30 37 1 35 2
M  V30 38 1 36 8
M  V30 39 1 37 8
M  V30 40 1 38 9
M  V30 41 1 10 39 CFG=3
M  V30 42 1 40 11
M  V30 43 1 41 14
M  V30 44 1 42 14
M  V30 45 1 43 15
M  V30 46 1 16 44 CFG=3
M  V30 47 1 45 17
M  V30 48 1 46 18
M  V30 49 1 19 47 CFG=1
M  V30 50 1 20 48 CFG=1
M  V30 51 1 49 21
M  V30 52 1 50 21
M  V30 53 1 51 21
M  V30 54 1 22 52 CFG=3
M  V30 55 1 24 53 CFG=1
M  V30 56 1 54 25
M  V30 57 1 55 25
M  V30 58 1 56 27
M  V30 59 1 57 28
M  V30 60 1 58 28
M  V30 61 1 59 29
M  V30 62 1 60 30
M  V30 63 1 61 31
M  V30 64 1 62 31
M  V30 65 1 63 32
M  V30 66 1 64 27
M  V30 END BOND
M  V30 END CTAB
M  END
>  <i_epik_Tot_Q>  (1) 
0

>  <i_epik_Tot_abs_Q>  (1) 
0

>  <i_i_glide_confnum>  (1) 
4083

>  <i_i_glide_lignum>  (1) 
128

>  <i_i_glide_posenum>  (1) 
34

>  <i_i_glide_rotatable_bonds>  (1) 
16

>  <i_lp_mmshare_version>  (1) 
72125

>  <i_m_source_file_index>  (1) 
58

>  <i_f3d_flags>  (1) 
0

>  <num_sample>  (1) 
100

>  <b_lp_Chiralities_Consistent>  (1) 
1

>  <r_epik_Charging_Adjusted_Penalty>  (1) 
0.024416195549470061

>  <r_epik_Ionization_Penalty>  (1) 
0.014246986074461085

>  <r_epik_Ionization_Penalty_Charging>  (1) 
6.6592516266621022e-05

>  <r_epik_Ionization_Penalty_Neutral>  (1) 
0.014180393558194464

>  <r_epik_State_Penalty>  (1) 
0.024349603033203441

>  <r_glide_ring_energy>  (1) 
0.20502008593199658

>  <r_i_docking_score>  (1) 
-4.3798885987748895

>  <r_i_glide_ecoul>  (1) 
2.6948503805880701

>  <r_i_glide_eff_state_penalty>  (1) 
0.024349603033203441

>  <r_i_glide_einternal>  (1) 
12.496607600572492

>  <r_i_glide_emodel>  (1) 
-34.343829961364349

>  <r_i_glide_emodel_strain>  (1) 
3.2033874300878296

>  <r_i_glide_energy>  (1) 
-32.89259892184814

>  <r_i_glide_erotb>  (1) 
1.0500022235395752

>  <r_i_glide_esite>  (1) 
0

>  <r_i_glide_evdw>  (1) 
-35.587449302436212

>  <r_i_glide_gscore>  (1) 
-4.4042382018080932

>  <r_i_glide_gscore_strain>  (1) 
0

>  <r_i_glide_hbond>  (1) 
0

>  <r_i_glide_ligand_efficiency>  (1) 
-0.13272389693257242

>  <r_i_glide_ligand_efficiency_ln>  (1) 
-0.97406454651806329

>  <r_i_glide_ligand_efficiency_sa>  (1) 
-0.42571645582205381

>  <r_i_glide_lipo>  (1) 
-2.3808560667951006

>  <r_i_glide_metal>  (1) 
-0

>  <r_i_glide_rewards>  (1) 
-1.6982394505189671

>  <r_lp_Energy>  (1) 
18.870881999999998

>  <s_epik_Chemistry_Notes>  (1) 
This compound has an imine and may undergo hydrolysis. This compound contains an acetal/aminal-like group ( X-CH(R)-Y where X, Y are N, S, or O) that may be acid/base labile, releasing an aldehyde. This compound has a N-S or N-O group and may undergo hydrolysis at high or low pH.

>  <s_epik_cmdline>  (1) 
J2VwaWtfcHl0aG9uJywgJy1waHQnLCAnMS4wJywgJy1waCcsICc3LjQnLCAnLXRuJywgJzgnLCAnLW1hJywgJzUwMCcsICctaW1hZScsICc8aW5maWxlLm1hZT4nLCAnLW9tYWUnLCAnPG91dGZpbGUubWFlPic=

>  <s_epik_input>  (1) 
W09IXU4xT1tDQEBIXTFDKC9DKD1OL1tIXSlbQ0gzXSk9W0NIXS9DKD1PKVtDSDJdW0NAQF0yKFtDSDNdKVtDSDJdW0NIMl1TW0NAQEhdMi9bQ0hdPVtDSF0vW05IXUMoPU8pW0NAQEhdKENsKVtDQEhdKFtDSDJdMylbQ0BIXTNbQ0BIXShbTkhdW09IXSlbQ0gyXVtPSF0=

>  <s_glide_docking_method>  (1) 
confgen

>  <s_i_glide_gridfile>  (1) 
gpcr_5ht2c_6bqh_protein_autoprepared_prepared

>  <s_lp_Force_Field>  (1) 
S-OPLS

>  <s_lp_Variant>  (1) 
DiffSBDD_57-4

>  <s_m_source_file>  (1) 
generated_GPCR_5HT2C_ligand_DiffSBDD_2026-06-23_prepared.sdf

>  <GenAI_Model>  (1) 
DiffSBDD

>  <Protein>  (1) 
GPCR_5HT2C

$$$$
DiffSBDD_93
     RDKit          3D

  0  0  0  0  0  0  0  0  0  0999 V3000
M  V30 BEGIN CTAB
M  V30 COUNTS 83 84 0 0 1
M  V30 BEGIN ATOM
M  V30 1 C 36.934793 29.741856 59.391772 0
M  V30 2 O 35.645186 30.137682 58.967777 0
M  V30 3 C 39.596162 27.029701 54.123439 0
M  V30 4 C 40.105450 36.916598 62.910752 0
M  V30 5 O 38.845126 32.626769 58.502436 0
M  V30 6 C 42.045536 34.345193 64.532288 0
M  V30 7 N 42.301727 35.644804 64.643523 0
M  V30 8 O 42.730563 33.503838 65.108637 0
M  V30 9 O 39.245107 28.230546 60.898887 0
M  V30 10 C 39.823271 38.288258 62.400962 0
M  V30 11 C 39.949714 27.872355 55.362507 0
M  V30 12 C 37.367037 32.433368 60.396178 0
M  V30 13 C 38.805507 29.950029 57.790054 0
M  V30 14 C 40.481230 34.481962 62.179936 0 CFG=1
M  V30 15 C 40.796871 33.909479 63.659556 0 CFG=1
M  V30 16 C 38.771772 26.001984 56.092018 0 CFG=1
M  V30 17 C 39.791076 27.497861 57.803516 0 CFG=1
M  V30 18 C 41.094437 26.676866 57.956833 0
M  V30 19 C 38.349621 32.915368 61.537037 0
M  V30 20 S 40.502295 28.941170 60.035373 0 CHG=1
M  V30 21 O 37.435098 35.363282 59.928502 0
M  V30 22 N 37.969283 30.576070 58.822019 0
M  V30 23 O 40.443861 30.521245 60.567769 0
M  V30 24 O 37.245138 26.825232 54.360591 0
M  V30 25 F 36.845175 26.323954 57.367742 0
M  V30 26 C 38.675194 37.354090 62.668656 0
M  V30 27 C 38.787036 35.090608 60.253550 0
M  V30 28 C 38.971936 34.355541 61.608684 0 CFG=2
M  V30 29 C 38.114868 31.887856 59.141682 0
M  V30 30 C 40.626336 32.363835 63.833637 0
M  V30 31 C 38.071090 24.499823 58.048030 0
M  V30 32 C 39.958574 28.969055 58.266312 0 CFG=2
M  V30 33 O 41.645107 30.289326 63.259657 0
M  V30 34 C 40.933248 35.961213 62.053304 0
M  V30 35 C 37.621147 25.367032 56.886801 0 CFG=2
M  V30 36 C 41.664090 31.526785 63.071851 0
M  V30 37 C 38.457720 26.140340 54.607871 0 CFG=1
M  V30 38 O 42.445086 32.137594 62.308531 0 CHG=-1
M  V30 39 N 39.182660 27.343913 56.480484 0
M  V30 40 H 37.103757 28.731991 59.020378 0
M  V30 41 H 37.007087 29.737727 60.473384 0
M  V30 42 H 35.681528 30.758568 58.236185 0
M  V30 43 H 39.329467 27.637618 53.258344 0
M  V30 44 H 40.447014 26.408374 53.840715 0
M  V30 45 H 40.293186 36.848950 63.974248 0
M  V30 46 H 41.717140 36.319624 64.171350 0
M  V30 47 H 43.084081 35.958701 65.197810 0
M  V30 48 H 39.657547 27.721927 61.583982 0
M  V30 49 H 40.045246 39.081016 63.098046 0
M  V30 50 H 40.044980 38.518906 61.367742 0
M  V30 51 H 39.695094 28.920907 55.204213 0
M  V30 52 H 41.017491 27.827106 55.546272 0
M  V30 53 H 36.636963 33.174037 60.088471 0
M  V30 54 H 36.716508 31.706842 60.867272 0
M  V30 55 H 39.264477 30.703360 57.148094 0
M  V30 56 H 38.108648 29.464839 57.110130 0
M  V30 57 H 41.101031 33.939549 61.469450 0
M  V30 58 H 40.045159 34.389289 64.242553 0
M  V30 59 H 39.631225 25.330631 56.145731 0
M  V30 60 H 39.082149 27.092002 58.520890 0
M  V30 61 H 41.693807 26.937788 58.823890 0
M  V30 62 H 40.852139 25.618380 58.040433 0
M  V30 63 H 41.781948 26.809349 57.125785 0
M  V30 64 H 37.842437 32.731921 62.484776 0
M  V30 65 H 39.181210 32.235173 61.539446 0
M  V30 66 H 37.375592 35.593418 59.012261 0
M  V30 67 H 39.530834 30.733174 60.664254 0
M  V30 68 H 36.585945 26.503560 54.956599 0
M  V30 69 H 38.109471 37.080741 61.786810 0
M  V30 70 H 38.071287 37.511153 63.560007 0
M  V30 71 H 39.195923 36.088251 60.206244 0
M  V30 72 H 39.341628 34.537778 59.507948 0
M  V30 73 H 38.339116 34.880187 62.313450 0
M  V30 74 H 40.708196 32.091631 64.886173 0
M  V30 75 H 39.636278 32.015793 63.584839 0
M  V30 76 H 38.847739 23.795605 57.750740 0
M  V30 77 H 38.445032 25.117790 58.861099 0
M  V30 78 H 37.245139 23.919328 58.432880 0
M  V30 79 H 40.845171 29.337541 57.756767 0
M  V30 80 H 41.984956 36.069205 62.300180 0
M  V30 81 H 40.981717 36.306231 61.025029 0
M  V30 82 H 37.002033 24.752766 56.231935 0
M  V30 83 H 38.422836 25.152016 54.167776 0
M  V30 END ATOM
M  V30 BEGIN BOND
M  V30 1 1 2 1
M  V30 2 1 7 6
M  V30 3 2 8 6
M  V30 4 1 10 4
M  V30 5 1 11 3
M  V30 6 1 15 6
M  V30 7 1 15 14
M  V30 8 1 18 17
M  V30 9 1 19 12
M  V30 10 1 20 9
M  V30 11 1 22 1
M  V30 12 1 22 13
M  V30 13 1 23 20
M  V30 14 1 26 4
M  V30 15 1 26 10
M  V30 16 1 27 21
M  V30 17 1 28 14
M  V30 18 1 28 19
M  V30 19 1 28 27
M  V30 20 2 29 5
M  V30 21 1 29 12
M  V30 22 1 29 22
M  V30 23 1 30 15
M  V30 24 1 32 13
M  V30 25 1 32 17
M  V30 26 1 32 20
M  V30 27 1 34 4
M  V30 28 1 34 14
M  V30 29 1 35 16
M  V30 30 1 35 25
M  V30 31 1 35 31
M  V30 32 1 36 30
M  V30 33 2 36 33
M  V30 34 1 37 3
M  V30 35 1 37 16
M  V30 36 1 37 24
M  V30 37 1 38 36
M  V30 38 1 39 11
M  V30 39 1 39 16
M  V30 40 1 39 17
M  V30 41 1 40 1
M  V30 42 1 41 1
M  V30 43 1 42 2
M  V30 44 1 43 3
M  V30 45 1 44 3
M  V30 46 1 45 4
M  V30 47 1 46 7
M  V30 48 1 47 7
M  V30 49 1 48 9
M  V30 50 1 49 10
M  V30 51 1 50 10
M  V30 52 1 51 11
M  V30 53 1 52 11
M  V30 54 1 53 12
M  V30 55 1 54 12
M  V30 56 1 55 13
M  V30 57 1 56 13
M  V30 58 1 14 57 CFG=3
M  V30 59 1 15 58 CFG=1
M  V30 60 1 16 59 CFG=3
M  V30 61 1 17 60 CFG=1
M  V30 62 1 61 18
M  V30 63 1 62 18
M  V30 64 1 63 18
M  V30 65 1 64 19
M  V30 66 1 65 19
M  V30 67 1 66 21
M  V30 68 1 67 23
M  V30 69 1 68 24
M  V30 70 1 69 26
M  V30 71 1 70 26
M  V30 72 1 71 27
M  V30 73 1 72 27
M  V30 74 1 28 73 CFG=1
M  V30 75 1 74 30
M  V30 76 1 75 30
M  V30 77 1 76 31
M  V30 78 1 77 31
M  V30 79 1 78 31
M  V30 80 1 32 79 CFG=3
M  V30 81 1 80 34
M  V30 82 1 81 34
M  V30 83 1 35 82 CFG=3
M  V30 84 1 37 83 CFG=3
M  V30 END BOND
M  V30 END CTAB
M  END
>  <i_epik_Tot_Q>  (1) 
0

>  <i_epik_Tot_abs_Q>  (1) 
2

>  <i_i_glide_confnum>  (1) 
6586

>  <i_i_glide_lignum>  (1) 
215

>  <i_i_glide_posenum>  (1) 
22

>  <i_i_glide_rotatable_bonds>  (1) 
24

>  <i_lp_mmshare_version>  (1) 
72125

>  <i_m_source_file_index>  (1) 
94

>  <i_f3d_flags>  (1) 
0

>  <num_sample>  (1) 
100

>  <b_lp_Chiralities_Consistent>  (1) 
1

>  <r_epik_Charging_Adjusted_Penalty>  (1) 
0.37121505818338452

>  <r_epik_Ionization_Penalty>  (1) 
0.37121789513022985

>  <r_epik_Ionization_Penalty_Charging>  (1) 
0.00098257200063165957

>  <r_epik_Ionization_Penalty_Neutral>  (1) 
0.37023532312959817

>  <r_epik_State_Penalty>  (1) 
0.37023248618275284

>  <r_glide_ring_energy>  (1) 
0

>  <r_i_docking_score>  (1) 
-4.3778290757165141

>  <r_i_glide_ecoul>  (1) 
-10.275733075239032

>  <r_i_glide_eff_state_penalty>  (1) 
0.37023248618275284

>  <r_i_glide_einternal>  (1) 
45.333344839161263

>  <r_i_glide_emodel>  (1) 
-21.549768529407174

>  <r_i_glide_emodel_strain>  (1) 
14.064123277999542

>  <r_i_glide_energy>  (1) 
-38.90269509824347

>  <r_i_glide_erotb>  (1) 
0.82577533054746977

>  <r_i_glide_esite>  (1) 
-0.14606170063403009

>  <r_i_glide_evdw>  (1) 
-28.626962023004438

>  <r_i_glide_gscore>  (1) 
-4.7480615618992674

>  <r_i_glide_gscore_strain>  (1) 
2.5160308194998855

>  <r_i_glide_hbond>  (1) 
-0.32764349525341752

>  <r_i_glide_ligand_efficiency>  (1) 
-0.11225202758247473

>  <r_i_glide_ligand_efficiency_ln>  (1) 
-0.93873082590207302

>  <r_i_glide_ligand_efficiency_sa>  (1) 
-0.38067036043923019

>  <r_i_glide_lipo>  (1) 
-3.6923864894830363

>  <r_i_glide_metal>  (1) 
-0

>  <r_i_glide_rewards>  (1) 
-0.95106796414006212

>  <r_lp_Energy>  (1) 
10.604659999999999

>  <s_epik_Chemistry_Notes>  (1) 
This compound contains an acetal/aminal-like group ( X-CH(R)-Y where X, Y are N, S, or O) that may be acid/base labile, releasing an aldehyde.

>  <s_epik_cmdline>  (1) 
J2VwaWtfcHl0aG9uJywgJy1waHQnLCAnMS4wJywgJy1waCcsICc3LjQnLCAnLXRuJywgJzgnLCAnLW1hJywgJzUwMCcsICctaW1hZScsICc8aW5maWxlLm1hZT4nLCAnLW9tYWUnLCAnPG91dGZpbGUubWFlPic=

>  <s_epik_input>  (1) 
W0NIMl0xW0NIMl1bQ0hdMVtDSDJdW0NAQEhdKFtDQEBIXShDKD1PKVtOSDJdKVtDSDJdQyg9TylbT0hdKVtDQEBIXShbQ0gyXVtPSF0pW0NIMl1bQ0gyXUMoPU8pTihbQ0gyXVtPSF0pW0NIMl1bQ0BASF0oW1MrXShbT0hdKVtPSF0pW0NASF0oW0NIM10pTjJbQ0gyXVtDSDJdW0NASF0oW09IXSlbQ0BASF0yW0NASF0oRilbQ0gzXQ==

>  <s_glide_docking_method>  (1) 
confgen

>  <s_i_glide_gridfile>  (1) 
gpcr_5ht2c_6bqh_protein_autoprepared_prepared

>  <s_lp_Force_Field>  (1) 
S-OPLS

>  <s_lp_Variant>  (1) 
DiffSBDD_93-3

>  <s_m_source_file>  (1) 
generated_GPCR_5HT2C_ligand_DiffSBDD_2026-06-23_prepared.sdf

>  <GenAI_Model>  (1) 
DiffSBDD

>  <Protein>  (1) 
GPCR_5HT2C

$$$$
DiffSBDD_36
     RDKit          3D

  0  0  0  0  0  0  0  0  0  0999 V3000
M  V30 BEGIN CTAB
M  V30 COUNTS 49 49 0 0 1
M  V30 BEGIN ATOM
M  V30 1 C 39.077016 27.892044 54.857534 0
M  V30 2 C 38.774294 25.699632 57.926749 0
M  V30 3 C 40.511350 26.717136 56.552109 0
M  V30 4 C 36.855820 25.831900 56.312734 0
M  V30 5 C 39.600747 30.460153 60.424100 0
M  V30 6 C 38.088223 26.577474 56.864179 0 CFG=1
M  V30 7 C 40.234551 26.135828 57.939788 0
M  V30 8 C 39.780087 30.333329 50.799543 0
M  V30 9 C 38.710152 27.814566 53.572927 0
M  V30 10 C 38.614411 29.011988 52.650874 0
M  V30 11 O 40.445192 29.571562 60.384645 0
M  V30 12 C 37.927705 28.464283 58.579882 0
M  V30 13 C 37.550770 29.860751 59.012618 0
M  V30 14 C 37.710633 27.985993 57.344605 0
M  V30 15 C 39.187117 26.692383 55.784582 0 CFG=1
M  V30 16 C 41.026539 30.495525 49.920525 0
M  V30 17 S 39.191920 31.483946 61.771068 0 CHG=-1
M  V30 18 C 38.802024 30.736774 59.154681 0
M  V30 19 C 39.632878 27.787539 50.700660 0
M  V30 20 C 39.745685 29.018855 51.606312 0 CFG=1
M  V30 21 H 39.317841 28.856347 55.284248 0
M  V30 22 H 38.308680 25.731074 58.909790 0
M  V30 23 H 38.740278 24.654745 57.614485 0
M  V30 24 H 40.908877 27.727844 56.657298 0
M  V30 25 H 41.245124 26.137755 56.004592 0
M  V30 26 H 37.108020 24.821025 55.989747 0
M  V30 27 H 36.075005 25.737735 57.067924 0
M  V30 28 H 36.445137 26.334543 55.438112 0
M  V30 29 H 40.407823 26.897927 58.700149 0
M  V30 30 H 40.877514 25.294245 58.167855 0
M  V30 31 H 38.896897 30.415152 50.167760 0
M  V30 32 H 39.743179 31.179850 51.487537 0
M  V30 33 H 38.465891 26.852553 53.144933 0
M  V30 34 H 37.640349 28.988889 52.163762 0
M  V30 35 H 38.651969 29.924805 53.248356 0
M  V30 36 H 38.399259 27.845490 59.326714 0
M  V30 37 H 36.890023 30.298743 58.262153 0
M  V30 38 H 36.981308 29.820808 59.941184 0
M  V30 39 H 37.245160 28.627044 56.615944 0
M  V30 40 H 39.172902 25.784272 55.177288 0
M  V30 41 H 40.999156 31.452153 49.409275 0
M  V30 42 H 41.943099 30.456452 50.510113 0
M  V30 43 H 41.079354 29.737752 49.142520 0
M  V30 44 H 39.443556 30.546026 58.292415 0
M  V30 45 H 38.521458 31.789752 59.085124 0
M  V30 46 H 38.692010 27.824949 50.167762 0
M  V30 47 H 40.445108 27.739985 49.984786 0
M  V30 48 H 39.645153 26.848472 51.251050 0
M  V30 49 H 40.688642 28.960326 52.142001 0
M  V30 END ATOM
M  V30 BEGIN BOND
M  V30 1 1 6 2
M  V30 2 1 6 4 CFG=3
M  V30 3 1 7 2
M  V30 4 1 7 3
M  V30 5 2 9 1
M  V30 6 1 10 9
M  V30 7 2 11 5
M  V30 8 1 13 12
M  V30 9 1 14 6
M  V30 10 2 14 12
M  V30 11 1 15 1
M  V30 12 1 15 3
M  V30 13 1 15 6
M  V30 14 1 16 8
M  V30 15 1 17 5
M  V30 16 1 18 5
M  V30 17 1 18 13
M  V30 18 1 20 8
M  V30 19 1 20 10
M  V30 20 1 20 19
M  V30 21 1 21 1
M  V30 22 1 22 2
M  V30 23 1 23 2
M  V30 24 1 24 3
M  V30 25 1 25 3
M  V30 26 1 26 4
M  V30 27 1 27 4
M  V30 28 1 28 4
M  V30 29 1 29 7
M  V30 30 1 30 7
M  V30 31 1 31 8
M  V30 32 1 32 8
M  V30 33 1 33 9
M  V30 34 1 34 10
M  V30 35 1 35 10
M  V30 36 1 36 12
M  V30 37 1 37 13
M  V30 38 1 38 13
M  V30 39 1 39 14
M  V30 40 1 15 40 CFG=3
M  V30 41 1 41 16
M  V30 42 1 42 16
M  V30 43 1 43 16
M  V30 44 1 44 18
M  V30 45 1 45 18
M  V30 46 1 46 19
M  V30 47 1 47 19
M  V30 48 1 48 19
M  V30 49 1 20 49 CFG=1
M  V30 END BOND
M  V30 END CTAB
M  END
>  <i_epik_Tot_Q>  (1) 
-1

>  <i_epik_Tot_abs_Q>  (1) 
1

>  <i_i_glide_confnum>  (1) 
300

>  <i_i_glide_lignum>  (1) 
80

>  <i_i_glide_posenum>  (1) 
347

>  <i_i_glide_rotatable_bonds>  (1) 
8

>  <i_lp_mmshare_version>  (1) 
72125

>  <i_m_source_file_index>  (1) 
37

>  <i_f3d_flags>  (1) 
0

>  <num_sample>  (1) 
100

>  <b_lp_Chiralities_Consistent>  (1) 
1

>  <r_epik_Charging_Adjusted_Penalty>  (1) 
9.4165288777969193e-05

>  <r_epik_Ionization_Penalty>  (1) 
9.4165288777969193e-05

>  <r_epik_Ionization_Penalty_Charging>  (1) 
9.4165288777969193e-05

>  <r_epik_Ionization_Penalty_Neutral>  (1) 
0

>  <r_epik_State_Penalty>  (1) 
-0

>  <r_glide_ring_energy>  (1) 
0

>  <r_i_docking_score>  (1) 
-4.3718306846971142

>  <r_i_glide_ecoul>  (1) 
-0.9104211302400258

>  <r_i_glide_eff_state_penalty>  (1) 
-0

>  <r_i_glide_einternal>  (1) 
2.6850341961021673

>  <r_i_glide_emodel>  (1) 
-32.415945983964086

>  <r_i_glide_emodel_strain>  (1) 
0.065384405523239764

>  <r_i_glide_energy>  (1) 
-26.652163181764671

>  <r_i_glide_erotb>  (1) 
2.5456975872200465

>  <r_i_glide_esite>  (1) 
0

>  <r_i_glide_evdw>  (1) 
-25.741742051524646

>  <r_i_glide_gscore>  (1) 
-4.3718306846971142

>  <r_i_glide_gscore_strain>  (1) 
0

>  <r_i_glide_hbond>  (1) 
-0.035796333225378903

>  <r_i_glide_ligand_efficiency>  (1) 
-0.21859153423485572

>  <r_i_glide_ligand_efficiency_ln>  (1) 
-1.0941250277533243

>  <r_i_glide_ligand_efficiency_sa>  (1) 
-0.59334871136560097

>  <r_i_glide_lipo>  (1) 
-3.4839644543372148

>  <r_i_glide_metal>  (1) 
-0

>  <r_i_glide_rewards>  (1) 
-1.9741172122423309

>  <r_lp_Energy>  (1) 
14.488792999999999

>  <r_lp_tautomer_probability>  (1) 
1

>  <s_epik_cmdline>  (1) 
J2VwaWtfcHl0aG9uJywgJy1waHQnLCAnMS4wJywgJy1waCcsICc3LjQnLCAnLXRuJywgJzgnLCAnLW1hJywgJzUwMCcsICctaW1hZScsICc8aW5maWxlLm1hZT4nLCAnLW9tYWUnLCAnPG91dGZpbGUubWFlPic=

>  <s_epik_input>  (1) 
W0NIM11bQ0gyXVtDQEhdKFtDSDNdKVtDSDJdXFtDSF09W0NIXVxbQ0BIXTFbQ0gyXVtDSDJdW0NIMl1bQ0BAXTEoW0NIM10pXFtDSF09W0NIXVxbQ0gyXVtDSDJdQyg9TylbU0hd

>  <s_glide_docking_method>  (1) 
confgen

>  <s_i_glide_gridfile>  (1) 
gpcr_5ht2c_6bqh_protein_autoprepared_prepared

>  <s_lp_Force_Field>  (1) 
S-OPLS

>  <s_lp_Variant>  (1) 
DiffSBDD_36-1

>  <s_m_source_file>  (1) 
generated_GPCR_5HT2C_ligand_DiffSBDD_2026-06-23_prepared.sdf

>  <GenAI_Model>  (1) 
DiffSBDD

>  <Protein>  (1) 
GPCR_5HT2C

$$$$
DiffSBDD_22
     RDKit          3D

  0  0  0  0  0  0  0  0  0  0999 V3000
M  V30 BEGIN CTAB
M  V30 COUNTS 47 50 0 0 1
M  V30 BEGIN ATOM
M  V30 1 C 39.842853 28.418245 50.572156 0
M  V30 2 C 37.167702 32.771304 60.838316 0
M  V30 3 C 39.431069 29.973689 53.951106 0
M  V30 4 F 37.757169 33.926961 60.494175 0
M  V30 5 N 39.245143 29.738015 52.495281 0 CFG=1 CHG=1
M  V30 6 C 40.212587 30.559228 51.720722 0 CFG=1
M  V30 7 C 40.602099 29.718424 50.536734 0 CFG=2
M  V30 8 O 38.677523 29.886764 56.177661 0
M  V30 9 O 37.645148 26.997705 54.431676 0
M  V30 10 N 37.245229 29.337763 57.934909 0
M  V30 11 O 39.680744 25.741471 55.572714 0
M  V30 12 C 38.478500 27.627406 56.584795 0 CFG=1
M  V30 13 C 38.397766 29.332739 54.891656 0 CFG=2
M  V30 14 C 36.137530 30.823222 59.534913 0
M  V30 15 N 37.603073 32.124778 61.828770 0
M  V30 16 C 39.326899 28.336859 52.007297 0
M  V30 17 C 37.374639 30.591050 58.657820 0
M  V30 18 C 39.856695 30.992576 50.321696 0
M  V30 19 C 39.680060 27.138336 55.810483 0 CFG=2
M  V30 20 C 38.443399 28.992184 57.224723 0 CFG=1
M  V30 21 C 35.992820 32.280033 60.017197 0
M  V30 22 C 38.548231 27.846011 55.106679 0 CFG=2
M  V30 23 H 40.445138 27.559644 50.289128 0
M  V30 24 H 39.012982 28.475975 49.866684 0
M  V30 25 H 39.345258 31.052851 54.093431 0
M  V30 26 H 40.445007 29.737755 54.266727 0
M  V30 27 H 40.877092 31.207383 52.278535 0
M  V30 28 H 41.645137 29.737755 50.242525 0
M  V30 29 H 37.942749 26.113290 54.612538 0
M  V30 30 H 36.453465 29.439887 57.312083 0
M  V30 31 H 40.292727 25.337180 56.172298 0
M  V30 32 H 37.798554 26.879283 56.990958 0
M  V30 33 H 37.370953 29.572689 54.611480 0
M  V30 34 H 36.159069 30.139244 60.382323 0
M  V30 35 H 35.245119 30.567273 58.967759 0
M  V30 36 H 38.390238 32.588525 62.260190 0
M  V30 37 H 40.035298 27.757240 52.597291 0
M  V30 38 H 38.357598 27.839336 52.052483 0
M  V30 39 H 37.474571 31.400460 57.932642 0
M  V30 40 H 38.277610 30.585160 59.269880 0
M  V30 41 H 40.451391 31.737754 49.814350 0
M  V30 42 H 38.845126 30.937750 49.981785 0
M  V30 43 H 40.654219 27.614886 55.906310 0
M  V30 44 H 39.284689 29.076737 57.914220 0
M  V30 45 H 38.325792 30.074717 52.255173 0
M  V30 46 H 35.084729 32.382264 60.612082 0
M  V30 47 H 35.872196 32.937527 59.154661 0
M  V30 END ATOM
M  V30 BEGIN BOND
M  V30 1 1 4 2
M  V30 2 1 5 3
M  V30 3 1 6 5
M  V30 4 1 7 1
M  V30 5 1 7 6
M  V30 6 1 13 3
M  V30 7 1 13 8
M  V30 8 2 15 2
M  V30 9 1 16 1
M  V30 10 1 16 5
M  V30 11 1 17 10
M  V30 12 1 17 14
M  V30 13 1 18 6
M  V30 14 1 18 7
M  V30 15 1 19 11
M  V30 16 1 19 12
M  V30 17 1 20 8
M  V30 18 1 20 10
M  V30 19 1 20 12
M  V30 20 1 21 2
M  V30 21 1 21 14
M  V30 22 1 22 9 CFG=3
M  V30 23 1 22 12
M  V30 24 1 22 13
M  V30 25 1 22 19
M  V30 26 1 23 1
M  V30 27 1 24 1
M  V30 28 1 25 3
M  V30 29 1 26 3
M  V30 30 1 6 27 CFG=1
M  V30 31 1 7 28 CFG=3
M  V30 32 1 29 9
M  V30 33 1 30 10
M  V30 34 1 31 11
M  V30 35 1 12 32 CFG=3
M  V30 36 1 13 33 CFG=3
M  V30 37 1 34 14
M  V30 38 1 35 14
M  V30 39 1 36 15
M  V30 40 1 37 16
M  V30 41 1 38 16
M  V30 42 1 39 17
M  V30 43 1 40 17
M  V30 44 1 41 18
M  V30 45 1 42 18
M  V30 46 1 19 43 CFG=1
M  V30 47 1 20 44 CFG=1
M  V30 48 1 5 45 CFG=3
M  V30 49 1 46 21
M  V30 50 1 47 21
M  V30 END BOND
M  V30 END CTAB
M  END
>  <i_epik_Tot_Q>  (1) 
1

>  <i_epik_Tot_abs_Q>  (1) 
1

>  <i_i_glide_confnum>  (1) 
333

>  <i_i_glide_lignum>  (1) 
54

>  <i_i_glide_posenum>  (1) 
306

>  <i_i_glide_rotatable_bonds>  (1) 
9

>  <i_lp_mmshare_version>  (1) 
72125

>  <i_m_source_file_index>  (1) 
23

>  <i_f3d_flags>  (1) 
0

>  <num_sample>  (1) 
100

>  <b_lp_Chiralities_Consistent>  (1) 
1

>  <r_epik_Charging_Adjusted_Penalty>  (1) 
0.69687758696528612

>  <r_epik_Ionization_Penalty>  (1) 
0.32102159834462574

>  <r_epik_Ionization_Penalty_Charging>  (1) 
0.0068758800046254996

>  <r_epik_Ionization_Penalty_Neutral>  (1) 
0.31414571834000021

>  <r_epik_State_Penalty>  (1) 
0.69000170696066065

>  <r_glide_ring_energy>  (1) 
1.6455033096424496

>  <r_i_docking_score>  (1) 
-4.3688997037606816

>  <r_i_glide_ecoul>  (1) 
-2.5573628785776181

>  <r_i_glide_eff_state_penalty>  (1) 
0.69000170696066065

>  <r_i_glide_einternal>  (1) 
13.597545996585424

>  <r_i_glide_emodel>  (1) 
-33.466551687003346

>  <r_i_glide_emodel_strain>  (1) 
0.98005989163370089

>  <r_i_glide_energy>  (1) 
-33.391433075199217

>  <r_i_glide_erotb>  (1) 
1.3164448029953435

>  <r_i_glide_esite>  (1) 
0

>  <r_i_glide_evdw>  (1) 
-30.834070196621596

>  <r_i_glide_gscore>  (1) 
-5.0589014107213419

>  <r_i_glide_gscore_strain>  (1) 
0

>  <r_i_glide_hbond>  (1) 
-0.030900621981012667

>  <r_i_glide_ligand_efficiency>  (1) 
-0.19858635017094006

>  <r_i_glide_ligand_efficiency_ln>  (1) 
-1.0679184470878014

>  <r_i_glide_ligand_efficiency_sa>  (1) 
-0.55644676371027735

>  <r_i_glide_lipo>  (1) 
-2.4244818549616376

>  <r_i_glide_metal>  (1) 
-0

>  <r_i_glide_rewards>  (1) 
-1.9946557951563133

>  <r_lp_Energy>  (1) 
10.052434999999999

>  <r_lp_tautomer_probability>  (1) 
0.49999300000000002

>  <s_epik_Chemistry_Notes>  (1) 
This compound has an imine and may undergo hydrolysis. This compound contains an acetal/aminal-like group ( X-CH(R)-Y where X, Y are N, S, or O) that may be acid/base labile, releasing an aldehyde.

>  <s_epik_cmdline>  (1) 
J2VwaWtfcHl0aG9uJywgJy1waHQnLCAnMS4wJywgJy1waCcsICc3LjQnLCAnLXRuJywgJzgnLCAnLW1hJywgJzUwMCcsICctaW1hZScsICc8aW5maWxlLm1hZT4nLCAnLW9tYWUnLCAnPG91dGZpbGUubWFlPic=

>  <s_epik_input>  (1) 
W0NAQEhdMTJbQ0BIXShbQ0gyXTIpW0NIMl1bQ0gyXU4xW0NIMl1bQ0BASF0zT1tDQEhdKFtDSF0oW0NASF00W09IXSlbQ0BAXTM0W09IXSlbTkhdW0NIMl1bQ0gyXVxbQ0hdPUMoXEYpW05IMl0=

>  <s_glide_docking_method>  (1) 
confgen

>  <s_i_glide_gridfile>  (1) 
gpcr_5ht2c_6bqh_protein_autoprepared_prepared

>  <s_lp_Force_Field>  (1) 
S-OPLS

>  <s_lp_Variant>  (1) 
DiffSBDD_22-2

>  <s_m_source_file>  (1) 
generated_GPCR_5HT2C_ligand_DiffSBDD_2026-06-23_prepared.sdf

>  <GenAI_Model>  (1) 
DiffSBDD

>  <Protein>  (1) 
GPCR_5HT2C

$$$$
DiffSBDD_20
     RDKit          3D

  0  0  0  0  0  0  0  0  0  0999 V3000
M  V30 BEGIN CTAB
M  V30 COUNTS 52 53 0 0 1
M  V30 BEGIN ATOM
M  V30 1 C 38.584877 27.709084 54.630015 0 CFG=2
M  V30 2 O 37.354260 29.803832 54.167958 0
M  V30 3 O 39.208198 26.937747 59.095531 0
M  V30 4 P 38.731406 26.848059 57.667234 0
M  V30 5 C 38.611639 28.618888 52.360627 0 CFG=1
M  V30 6 N 37.350479 31.851863 60.786971 0
M  V30 7 C 40.663501 29.395074 51.018134 0
M  V30 8 C 39.724616 31.272627 49.532503 0
M  V30 9 C 39.468183 28.528266 55.594263 0
M  V30 10 C 39.676109 29.548537 57.915681 0 CFG=2
M  V30 11 N 39.399674 26.822297 53.788456 0 CHG=1
M  V30 12 C 37.764426 28.554408 53.655326 0
M  V30 13 F 36.556123 33.186429 59.052207 0
M  V30 14 C 40.958091 30.641471 50.196427 0
M  V30 15 C 37.314266 32.143644 59.462244 0
M  V30 16 O 37.272668 26.469170 57.525136 0 CHG=-1
M  V30 17 O 39.624518 25.973372 56.802572 0 CHG=-1
M  V30 18 C 38.843866 30.339057 58.926451 0
M  V30 19 C 38.044600 31.411310 58.503301 0
M  V30 20 C 38.876331 28.574984 57.011841 0 CFG=2
M  V30 21 C 38.126837 30.818198 61.183770 0
M  V30 22 O 39.646421 30.937394 52.658196 0
M  V30 23 C 38.889352 30.036266 60.297826 0
M  V30 24 C 39.818580 29.591226 52.294331 0 CFG=1
M  V30 25 C 39.157866 27.175351 52.371505 0
M  V30 26 O 40.821690 28.930797 58.475991 0
M  V30 27 O 36.657040 27.738141 53.364512 0
M  V30 28 H 37.906310 27.057078 55.174877 0
M  V30 29 H 37.224551 29.740172 55.104042 0
M  V30 30 H 37.985355 28.797674 51.484358 0
M  V30 31 H 41.612411 28.969618 51.350898 0
M  V30 32 H 40.212922 28.660748 50.349993 0
M  V30 33 H 40.026173 32.139466 48.958510 0
M  V30 34 H 39.245148 30.571851 48.858384 0
M  V30 35 H 38.950958 31.619707 50.203931 0
M  V30 36 H 40.462126 28.086879 55.668633 0
M  V30 37 H 39.639979 29.535098 55.214703 0
M  V30 38 H 40.050984 30.330465 57.259961 0
M  V30 39 H 39.149249 25.865109 53.991627 0
M  V30 40 H 41.471224 31.338128 50.844146 0
M  V30 41 H 41.679240 30.393772 49.418139 0
M  V30 42 H 37.989953 31.676864 57.458136 0
M  V30 43 H 37.873999 28.988528 56.920432 0
M  V30 44 H 38.139239 30.610013 62.244256 0
M  V30 45 H 39.234963 31.410356 51.952292 0
M  V30 46 H 39.499057 29.222141 60.666020 0
M  V30 47 H 40.444588 29.340332 53.113485 0
M  V30 48 H 38.384711 26.537756 51.958532 0
M  V30 49 H 40.044418 27.000867 51.771569 0
M  V30 50 H 40.487976 28.141180 58.914676 0
M  V30 51 H 36.250936 27.469124 54.176652 0
M  V30 52 H 40.366172 26.954305 54.046795 0
M  V30 END ATOM
M  V30 BEGIN BOND
M  V30 1 2 4 3
M  V30 2 1 9 1
M  V30 3 1 11 1
M  V30 4 1 12 1
M  V30 5 1 12 2
M  V30 6 1 12 5
M  V30 7 1 14 7
M  V30 8 1 14 8
M  V30 9 2 15 6
M  V30 10 1 15 13
M  V30 11 1 16 4
M  V30 12 1 17 4
M  V30 13 1 18 10
M  V30 14 1 19 15
M  V30 15 2 19 18
M  V30 16 1 20 4
M  V30 17 1 20 9
M  V30 18 1 20 10
M  V30 19 1 21 6
M  V30 20 1 23 18
M  V30 21 2 23 21
M  V30 22 1 24 5
M  V30 23 1 24 7
M  V30 24 1 24 22
M  V30 25 1 25 5
M  V30 26 1 25 11
M  V30 27 1 26 10
M  V30 28 1 27 12
M  V30 29 1 1 28 CFG=1
M  V30 30 1 29 2
M  V30 31 1 5 30 CFG=3
M  V30 32 1 31 7
M  V30 33 1 32 7
M  V30 34 1 33 8
M  V30 35 1 34 8
M  V30 36 1 35 8
M  V30 37 1 36 9
M  V30 38 1 37 9
M  V30 39 1 10 38 CFG=3
M  V30 40 1 39 11
M  V30 41 1 40 14
M  V30 42 1 41 14
M  V30 43 1 42 19
M  V30 44 1 20 43 CFG=3
M  V30 45 1 44 21
M  V30 46 1 45 22
M  V30 47 1 46 23
M  V30 48 1 24 47 CFG=1
M  V30 49 1 48 25
M  V30 50 1 49 25
M  V30 51 1 50 26
M  V30 52 1 51 27
M  V30 53 1 52 11
M  V30 END BOND
M  V30 END CTAB
M  END
>  <i_epik_Tot_Q>  (1) 
-1

>  <i_epik_Tot_abs_Q>  (1) 
3

>  <i_i_glide_confnum>  (1) 
417

>  <i_i_glide_lignum>  (1) 
47

>  <i_i_glide_posenum>  (1) 
156

>  <i_i_glide_rotatable_bonds>  (1) 
12

>  <i_lp_mmshare_version>  (1) 
72125

>  <i_m_source_file_index>  (1) 
21

>  <i_f3d_flags>  (1) 
0

>  <num_sample>  (1) 
100

>  <b_lp_Chiralities_Consistent>  (1) 
1

>  <r_epik_Charging_Adjusted_Penalty>  (1) 
0.6119073465235404

>  <r_epik_Ionization_Penalty>  (1) 
0.30667552727884728

>  <r_epik_Ionization_Penalty_Charging>  (1) 
0.30666936404430589

>  <r_epik_Ionization_Penalty_Neutral>  (1) 
6.1632345413695363e-06

>  <r_epik_State_Penalty>  (1) 
0.3052379824792345

>  <r_glide_ring_energy>  (1) 
2.1684758099838057

>  <r_i_docking_score>  (1) 
-4.3643014900136148

>  <r_i_glide_ecoul>  (1) 
-0.7885871448390821

>  <r_i_glide_eff_state_penalty>  (1) 
0.3052379824792345

>  <r_i_glide_einternal>  (1) 
9.7484576078622673

>  <r_i_glide_emodel>  (1) 
-28.752076775450043

>  <r_i_glide_emodel_strain>  (1) 
6.4423301917079527

>  <r_i_glide_energy>  (1) 
-23.42420806926167

>  <r_i_glide_erotb>  (1) 
0.59271143775516177

>  <r_i_glide_esite>  (1) 
-0.095718043490653285

>  <r_i_glide_evdw>  (1) 
-22.635620924422589

>  <r_i_glide_gscore>  (1) 
-4.6695394724928496

>  <r_i_glide_gscore_strain>  (1) 
0.61058254792698818

>  <r_i_glide_hbond>  (1) 
0

>  <r_i_glide_ligand_efficiency>  (1) 
-0.16164079592643019

>  <r_i_glide_ligand_efficiency_ln>  (1) 
-1.01593743574182

>  <r_i_glide_ligand_efficiency_sa>  (1) 
-0.48492238777929064

>  <r_i_glide_lipo>  (1) 
-2.703029150202747

>  <r_i_glide_metal>  (1) 
-0

>  <r_i_glide_rewards>  (1) 
-1.8240171465346069

>  <r_lp_Energy>  (1) 
8.2369690000000002

>  <s_epik_cmdline>  (1) 
J2VwaWtfcHl0aG9uJywgJy1waHQnLCAnMS4wJywgJy1waCcsICc3LjQnLCAnLXRuJywgJzgnLCAnLW1hJywgJzUwMCcsICctaW1hZScsICc8aW5maWxlLm1hZT4nLCAnLW9tYWUnLCAnPG91dGZpbGUubWFlPic=

>  <s_epik_input>  (1) 
W0NIM11bQ0gyXVtDSDJdW0NAQEhdKFtPSF0pW0NASF0xW0NIMl1bTkhdW0NASF0oQzEoW09IXSlbT0hdKVtDSDJdW0NAQEhdKFAoPU8pKFtPSF0pW09IXSlbQ0BIXShbT0hdKWMoW2NIXTIpW2NIXVtjSF1uYzJG

>  <s_glide_docking_method>  (1) 
confgen

>  <s_i_glide_gridfile>  (1) 
gpcr_5ht2c_6bqh_protein_autoprepared_prepared

>  <s_lp_Force_Field>  (1) 
S-OPLS

>  <s_lp_Variant>  (1) 
DiffSBDD_20-1

>  <s_m_source_file>  (1) 
generated_GPCR_5HT2C_ligand_DiffSBDD_2026-06-23_prepared.sdf

>  <GenAI_Model>  (1) 
DiffSBDD

>  <Protein>  (1) 
GPCR_5HT2C

$$$$
DiffSBDD_19
     RDKit          3D

  0  0  0  0  0  0  0  0  0  0999 V3000
M  V30 BEGIN CTAB
M  V30 COUNTS 25 25 0 0 1
M  V30 BEGIN ATOM
M  V30 1 C 38.756953 32.425545 57.147758 0
M  V30 2 C 38.427278 28.672440 51.804978 0
M  V30 3 C 38.251192 28.623944 53.327189 0
M  V30 4 S 37.957456 30.865081 54.967947 0
M  V30 5 C 39.806148 30.458406 50.062202 0
M  V30 6 C 39.818162 30.550810 52.894743 0
M  V30 7 C 39.041631 29.784673 53.982493 0 CFG=2
M  V30 8 O 37.645194 33.294142 57.167560 0
M  V30 9 S 40.045171 29.398988 51.516021 0 CHG=1
M  V30 10 C 39.146087 32.016053 55.718974 0
M  V30 11 H 38.544172 31.548557 57.759243 0
M  V30 12 H 39.590252 32.946884 57.615874 0
M  V30 13 H 38.320273 27.698528 51.326382 0
M  V30 14 H 37.676156 29.331201 51.384189 0
M  V30 15 H 37.193797 28.644379 53.590974 0
M  V30 16 H 38.637189 27.674252 53.701940 0
M  V30 17 H 40.695428 31.068395 49.897748 0
M  V30 18 H 38.954806 31.127867 50.167755 0
M  V30 19 H 39.645136 29.839177 49.179858 0
M  V30 20 H 40.771037 30.936890 53.256515 0
M  V30 21 H 39.245124 31.413577 52.562494 0
M  V30 22 H 39.761831 29.342235 54.670270 0
M  V30 23 H 36.858505 32.786840 56.965365 0
M  V30 24 H 39.245361 32.893502 55.080435 0
M  V30 25 H 40.120067 31.529529 55.750083 0
M  V30 END ATOM
M  V30 BEGIN BOND
M  V30 1 1 3 2
M  V30 2 1 7 3
M  V30 3 1 7 4
M  V30 4 1 7 6
M  V30 5 1 8 1
M  V30 6 1 9 2
M  V30 7 1 9 5 CFG=3
M  V30 8 1 9 6
M  V30 9 1 10 1
M  V30 10 1 10 4
M  V30 11 1 11 1
M  V30 12 1 12 1
M  V30 13 1 13 2
M  V30 14 1 14 2
M  V30 15 1 15 3
M  V30 16 1 16 3
M  V30 17 1 17 5
M  V30 18 1 18 5
M  V30 19 1 19 5
M  V30 20 1 20 6
M  V30 21 1 21 6
M  V30 22 1 7 22 CFG=1
M  V30 23 1 23 8
M  V30 24 1 24 10
M  V30 25 1 25 10
M  V30 END BOND
M  V30 END CTAB
M  END
>  <i_epik_Tot_Q>  (1) 
1

>  <i_epik_Tot_abs_Q>  (1) 
1

>  <i_i_glide_confnum>  (1) 
9

>  <i_i_glide_lignum>  (1) 
46

>  <i_i_glide_posenum>  (1) 
230

>  <i_i_glide_rotatable_bonds>  (1) 
4

>  <i_lp_mmshare_version>  (1) 
72125

>  <i_m_source_file_index>  (1) 
20

>  <i_f3d_flags>  (1) 
0

>  <num_sample>  (1) 
100

>  <b_lp_Chiralities_Consistent>  (1) 
1

>  <r_epik_Charging_Adjusted_Penalty>  (1) 
0

>  <r_epik_Ionization_Penalty>  (1) 
5.2104904894925419e-08

>  <r_epik_Ionization_Penalty_Charging>  (1) 
0

>  <r_epik_Ionization_Penalty_Neutral>  (1) 
5.2104904894925419e-08

>  <r_epik_State_Penalty>  (1) 
-0

>  <r_glide_ring_energy>  (1) 
0

>  <r_i_docking_score>  (1) 
-4.3631288174838732

>  <r_i_glide_ecoul>  (1) 
-3.1776085612523546

>  <r_i_glide_eff_state_penalty>  (1) 
-0

>  <r_i_glide_einternal>  (1) 
1.8330300215986297

>  <r_i_glide_emodel>  (1) 
-27.475498860331452

>  <r_i_glide_emodel_strain>  (1) 
0.46696835108664558

>  <r_i_glide_energy>  (1) 
-20.510607729478597

>  <r_i_glide_erotb>  (1) 
1.467360054184516

>  <r_i_glide_esite>  (1) 
0

>  <r_i_glide_evdw>  (1) 
-17.332999168226241

>  <r_i_glide_gscore>  (1) 
-4.3631288174838732

>  <r_i_glide_gscore_strain>  (1) 
0

>  <r_i_glide_hbond>  (1) 
-0.18175634105795388

>  <r_i_glide_ligand_efficiency>  (1) 
-0.43631288174838734

>  <r_i_glide_ligand_efficiency_ln>  (1) 
-1.3211253289853504

>  <r_i_glide_ligand_efficiency_sa>  (1) 
-0.94000760814650486

>  <r_i_glide_lipo>  (1) 
-1.3726150046613679

>  <r_i_glide_metal>  (1) 
-0

>  <r_i_glide_rewards>  (1) 
-2.9328262833499021

>  <r_lp_Energy>  (1) 
6.6492299999999993

>  <r_lp_tautomer_probability>  (1) 
1

>  <s_epik_cmdline>  (1) 
J2VwaWtfcHl0aG9uJywgJy1waHQnLCAnMS4wJywgJy1waCcsICc3LjQnLCAnLXRuJywgJzgnLCAnLW1hJywgJzUwMCcsICctaW1hZScsICc8aW5maWxlLm1hZT4nLCAnLW9tYWUnLCAnPG91dGZpbGUubWFlPic=

>  <s_epik_input>  (1) 
W09IXVtDSDJdW0NIMl1TW0NASF0xW0NIMl1bQ0gyXVtTK10oW0NIM10pW0NIMl0x

>  <s_glide_docking_method>  (1) 
confgen

>  <s_i_glide_gridfile>  (1) 
gpcr_5ht2c_6bqh_protein_autoprepared_prepared

>  <s_lp_Force_Field>  (1) 
S-OPLS

>  <s_lp_Variant>  (1) 
DiffSBDD_19-1

>  <s_m_source_file>  (1) 
generated_GPCR_5HT2C_ligand_DiffSBDD_2026-06-23_prepared.sdf

>  <GenAI_Model>  (1) 
DiffSBDD

>  <Protein>  (1) 
GPCR_5HT2C

$$$$
DiffSBDD_42
     RDKit          3D

  0  0  0  0  0  0  0  0  0  0999 V3000
M  V30 BEGIN CTAB
M  V30 COUNTS 89 94 0 0 1
M  V30 BEGIN ATOM
M  V30 1 C 44.950607 27.882070 66.549853 0
M  V30 2 C 37.849604 34.139053 58.696123 0
M  V30 3 C 38.682463 28.086661 54.528391 0
M  V30 4 C 38.146496 25.639813 54.528520 0
M  V30 5 O 38.398529 32.759498 56.079014 0 CHG=-1
M  V30 6 C 39.674768 29.548488 56.168952 0
M  V30 7 C 37.629986 29.011663 54.350030 0
M  V30 8 C 38.642489 30.471369 56.021343 0
M  V30 9 C 44.065130 27.947682 70.094863 0 CFG=2
M  V30 10 C 39.851826 26.723867 52.758183 0
M  V30 11 C 42.618624 27.936707 67.458908 0 CFG=1
M  V30 12 C 39.564014 29.055515 61.005196 0 CFG=1
M  V30 13 C 43.022149 28.839927 65.251290 0
M  V30 14 C 38.502215 28.591705 60.037259 0
M  V30 15 C 40.329318 29.948219 63.646491 0
M  V30 16 C 36.973576 32.969294 58.427685 0
M  V30 17 C 40.990940 28.762665 60.554542 0
M  V30 18 O 39.363085 32.049459 63.034473 0
M  V30 19 C 38.939187 32.936956 60.581347 0
M  V30 20 O 44.727322 29.193950 70.131948 0
M  V30 21 C 39.624994 30.915780 62.660480 0
M  V30 22 C 39.143906 33.863526 59.409932 0
M  V30 23 O 42.101250 31.603405 63.473146 0
M  V30 24 C 38.311717 29.432806 58.839009 0
M  V30 25 C 44.494654 28.425666 65.217624 0
M  V30 26 C 42.158458 32.817252 64.212428 0
M  V30 27 N 37.645112 31.714942 58.016444 0 CFG=1 CHG=1
M  V30 28 C 44.589913 27.111441 68.911635 0
M  V30 29 C 38.651176 31.749089 56.869971 0 CFG=2
M  V30 30 C 37.604990 30.207801 55.103183 0
M  V30 31 C 41.664901 30.502649 64.222043 0 CFG=2
M  V30 32 C 42.545060 28.176034 69.999127 0
M  V30 33 C 38.738942 26.822648 53.771489 0 CFG=2
M  V30 34 C 39.689656 28.367790 55.444493 0
M  V30 35 C 38.878378 31.407443 60.285106 0 CFG=2
M  V30 36 C 42.135401 28.790267 68.648808 0
M  V30 37 O 42.647255 29.505235 64.110948 0
M  V30 38 N 42.214373 28.606138 66.219910 0
M  V30 39 C 44.115637 27.657982 67.572691 0
M  V30 40 C 37.866824 30.847417 59.230145 0 CFG=2
M  V30 41 N 39.354400 30.471483 61.386824 0
M  V30 42 O 38.490085 26.936900 52.361244 0
M  V30 43 H 46.006379 27.674587 66.655624 0
M  V30 44 H 37.279756 34.900666 59.230297 0
M  V30 45 H 38.045932 34.539597 57.712561 0
M  V30 46 H 37.932661 25.916554 55.562773 0
M  V30 47 H 37.215359 25.321344 54.062964 0
M  V30 48 H 38.841454 24.798943 54.568122 0
M  V30 49 H 40.445389 29.739340 56.867597 0
M  V30 50 H 36.844458 28.802462 53.645101 0
M  V30 51 H 44.288692 27.428770 71.026389 0
M  V30 52 H 40.444457 27.592845 52.542465 0
M  V30 53 H 40.354494 25.769166 52.567665 0
M  V30 54 H 42.114997 26.968749 67.506088 0
M  V30 55 H 39.326925 28.397432 61.838791 0
M  V30 56 H 38.505763 27.519364 59.837730 0
M  V30 57 H 37.645189 28.905966 60.542578 0
M  V30 58 H 40.537839 28.942942 63.307703 0
M  V30 59 H 39.660848 29.820375 64.498501 0
M  V30 60 H 36.249253 32.824347 59.226624 0
M  V30 61 H 36.446125 33.338795 57.575633 0
M  V30 62 H 41.098393 27.737712 60.210236 0
M  V30 63 H 41.316096 29.420178 59.750556 0
M  V30 64 H 41.659707 28.887154 61.396774 0
M  V30 65 H 38.095741 33.268928 61.186634 0
M  V30 66 H 39.856557 33.155845 61.126168 0
M  V30 67 H 44.537157 29.649982 69.326165 0
M  V30 68 H 39.531760 34.813110 59.774705 0
M  V30 69 H 39.903912 33.508467 58.719947 0
M  V30 70 H 39.313296 29.431286 58.467224 0
M  V30 71 H 37.619078 28.966588 58.134065 0
M  V30 72 H 45.108241 29.290658 64.951575 0
M  V30 73 H 44.639284 27.672731 64.438726 0
M  V30 74 H 42.467934 33.632682 63.558328 0
M  V30 75 H 41.182042 33.076258 64.626462 0
M  V30 76 H 42.868944 32.747369 65.034919 0
M  V30 77 H 45.677980 27.038262 68.943027 0
M  V30 78 H 44.215147 26.090299 68.999070 0
M  V30 79 H 39.622134 31.746417 57.354281 0
M  V30 80 H 36.795268 30.915939 54.980936 0
M  V30 81 H 41.513426 30.813596 65.260439 0
M  V30 82 H 42.037896 27.217238 70.116170 0
M  V30 83 H 42.197743 28.805060 70.823311 0
M  V30 84 H 40.490381 27.661127 55.592477 0
M  V30 85 H 39.645503 31.308052 59.594054 0
M  V30 86 H 42.530806 29.805239 68.564362 0
M  V30 87 H 41.048679 28.885732 68.614361 0
M  V30 88 H 36.891607 30.767143 59.719424 0
M  V30 89 H 36.831885 31.326055 57.537739 0
M  V30 END ATOM
M  V30 BEGIN BOND
M  V30 1 2 7 3
M  V30 2 1 8 6
M  V30 3 1 14 12
M  V30 4 1 16 2
M  V30 5 1 17 12
M  V30 6 1 20 9
M  V30 7 1 21 15
M  V30 8 2 21 18
M  V30 9 1 22 2
M  V30 10 1 22 19
M  V30 11 1 24 14
M  V30 12 1 25 1
M  V30 13 1 25 13
M  V30 14 1 26 23
M  V30 15 1 27 16
M  V30 16 1 28 9
M  V30 17 1 29 5
M  V30 18 1 29 8
M  V30 19 1 29 27
M  V30 20 1 30 7
M  V30 21 2 30 8
M  V30 22 1 31 15
M  V30 23 1 31 23
M  V30 24 1 32 9
M  V30 25 1 33 3
M  V30 26 1 33 4 CFG=1
M  V30 27 1 33 10
M  V30 28 1 34 3
M  V30 29 2 34 6
M  V30 30 1 35 19
M  V30 31 1 36 11
M  V30 32 1 36 32
M  V30 33 1 37 13
M  V30 34 1 37 31
M  V30 35 1 38 11
M  V30 36 2 38 13
M  V30 37 2 39 1
M  V30 38 1 39 11
M  V30 39 1 39 28
M  V30 40 1 40 24
M  V30 41 1 40 27
M  V30 42 1 40 35
M  V30 43 1 41 12
M  V30 44 1 41 21
M  V30 45 1 41 35
M  V30 46 1 42 10
M  V30 47 1 42 33
M  V30 48 1 43 1
M  V30 49 1 44 2
M  V30 50 1 45 2
M  V30 51 1 46 4
M  V30 52 1 47 4
M  V30 53 1 48 4
M  V30 54 1 49 6
M  V30 55 1 50 7
M  V30 56 1 9 51 CFG=1
M  V30 57 1 52 10
M  V30 58 1 53 10
M  V30 59 1 11 54 CFG=1
M  V30 60 1 12 55 CFG=1
M  V30 61 1 56 14
M  V30 62 1 57 14
M  V30 63 1 58 15
M  V30 64 1 59 15
M  V30 65 1 60 16
M  V30 66 1 61 16
M  V30 67 1 62 17
M  V30 68 1 63 17
M  V30 69 1 64 17
M  V30 70 1 65 19
M  V30 71 1 66 19
M  V30 72 1 67 20
M  V30 73 1 68 22
M  V30 74 1 69 22
M  V30 75 1 70 24
M  V30 76 1 71 24
M  V30 77 1 72 25
M  V30 78 1 73 25
M  V30 79 1 74 26
M  V30 80 1 75 26
M  V30 81 1 76 26
M  V30 82 1 77 28
M  V30 83 1 78 28
M  V30 84 1 29 79 CFG=1
M  V30 85 1 80 30
M  V30 86 1 31 81 CFG=1
M  V30 87 1 82 32
M  V30 88 1 83 32
M  V30 89 1 84 34
M  V30 90 1 35 85 CFG=3
M  V30 91 1 86 36
M  V30 92 1 87 36
M  V30 93 1 40 88 CFG=1
M  V30 94 1 27 89 CFG=3
M  V30 END BOND
M  V30 END CTAB
M  END
>  <i_epik_Tot_Q>  (1) 
0

>  <i_epik_Tot_abs_Q>  (1) 
2

>  <i_i_glide_confnum>  (1) 
301

>  <i_i_glide_lignum>  (1) 
93

>  <i_i_glide_posenum>  (1) 
393

>  <i_i_glide_rotatable_bonds>  (1) 
10

>  <i_lp_mmshare_version>  (1) 
72125

>  <i_m_source_file_index>  (1) 
43

>  <i_f3d_flags>  (1) 
0

>  <num_sample>  (1) 
100

>  <b_lp_Chiralities_Consistent>  (1) 
1

>  <r_epik_Charging_Adjusted_Penalty>  (1) 
0.10762157237222084

>  <r_epik_Ionization_Penalty>  (1) 
0.015049648649627746

>  <r_epik_Ionization_Penalty_Charging>  (1) 
0.014590701191951229

>  <r_epik_Ionization_Penalty_Neutral>  (1) 
0.0004589474576765184

>  <r_epik_State_Penalty>  (1) 
0.093030871180269606

>  <r_glide_ring_energy>  (1) 
0

>  <r_i_docking_score>  (1) 
-4.3471842670833301

>  <r_i_glide_ecoul>  (1) 
-3.8650476931691715

>  <r_i_glide_eff_state_penalty>  (1) 
0.093030871180269606

>  <r_i_glide_einternal>  (1) 
9.2107856548073457

>  <r_i_glide_emodel>  (1) 
-22.230746626730468

>  <r_i_glide_emodel_strain>  (1) 
8.4620052069120817

>  <r_i_glide_energy>  (1) 
-25.506609303222625

>  <r_i_glide_erotb>  (1) 
0.39316795176799535

>  <r_i_glide_esite>  (1) 
-0.16073690788158901

>  <r_i_glide_evdw>  (1) 
-21.641561610053454

>  <r_i_glide_gscore>  (1) 
-4.4402151382635999

>  <r_i_glide_gscore_strain>  (1) 
1.1155013017280204

>  <r_i_glide_hbond>  (1) 
-0.158628525950886

>  <r_i_glide_ligand_efficiency>  (1) 
-0.10350438731150786

>  <r_i_glide_ligand_efficiency_ln>  (1) 
-0.91757860242236033

>  <r_i_glide_ligand_efficiency_sa>  (1) 
-0.35978400815744838

>  <r_i_glide_lipo>  (1) 
-2.5795941287093185

>  <r_i_glide_metal>  (1) 
-0

>  <r_i_glide_rewards>  (1) 
-1.3880895947397747

>  <r_lp_Energy>  (1) 
80.091357000000002

>  <s_epik_Chemistry_Notes>  (1) 
This compound has an imine and may undergo hydrolysis. This compound contains an acetal/aminal-like group ( X-CH(R)-Y where X, Y are N, S, or O) that may be acid/base labile, releasing an aldehyde.

>  <s_epik_cmdline>  (1) 
J2VwaWtfcHl0aG9uJywgJy1waHQnLCAnMS4wJywgJy1waCcsICc3LjQnLCAnLXRuJywgJzgnLCAnLW1hJywgJzUwMCcsICctaW1hZScsICc8aW5maWxlLm1hZT4nLCAnLW9tYWUnLCAnPG91dGZpbGUubWFlPic=

>  <s_epik_input>  (1) 
W0NIMl0xW0NIMl1bQ0BIXShbT0hdKVtDSDJdQyhbQ0BASF0xMik9W0NIXVtDSDJdQyg9TjIpT1tDQEBIXShPW0NIM10pW0NIMl1DKD1PKU4zW0NASF0oW0NIM10pW0NIMl1bQ0gyXVtDQEBIXShbQ0BIXTM0KU4oW0NIMl1bQ0gyXVtDSDJdW0NIMl00KVtDQEhdKFtPSF0pYyhbY0hdW2NIXTUpW2NIXVtjSF1jNUM2KFtDSDNdKVtDSDJdTzY=

>  <s_glide_docking_method>  (1) 
confgen

>  <s_i_glide_gridfile>  (1) 
gpcr_5ht2c_6bqh_protein_autoprepared_prepared

>  <s_lp_Force_Field>  (1) 
S-OPLS

>  <s_lp_Variant>  (1) 
DiffSBDD_42-2

>  <s_m_source_file>  (1) 
generated_GPCR_5HT2C_ligand_DiffSBDD_2026-06-23_prepared.sdf

>  <GenAI_Model>  (1) 
DiffSBDD

>  <Protein>  (1) 
GPCR_5HT2C

$$$$
DiffSBDD_24
     RDKit          3D

  0  0  0  0  0  0  0  0  0  0999 V3000
M  V30 BEGIN CTAB
M  V30 COUNTS 76 79 0 0 1
M  V30 BEGIN ATOM
M  V30 1 C 37.134987 34.084611 58.836854 0
M  V30 2 C 41.645132 35.742392 63.314312 0
M  V30 3 C 37.415115 32.708844 58.903065 0
M  V30 4 N 41.633423 35.363716 65.811479 0 CHG=1
M  V30 5 C 39.423283 29.840838 60.040464 0 CFG=2
M  V30 6 N 41.550480 33.732642 61.917881 0
M  V30 7 C 41.395826 31.436315 62.791063 0
M  V30 8 C 40.184765 36.307397 67.584049 0
M  V30 9 O 42.618306 32.615901 68.919581 0 CHG=-1
M  V30 10 N 41.238359 34.133974 68.045264 0
M  V30 11 C 42.320262 33.337525 67.948183 0
M  V30 12 O 36.845221 29.735261 57.462203 0
M  V30 13 C 39.532952 30.852988 61.242192 0
M  V30 14 C 36.251666 34.667755 59.761474 0
M  V30 15 C 39.092887 28.946077 57.205239 0 CFG=2
M  V30 16 C 40.667661 28.262969 61.550587 0
M  V30 17 C 41.214757 35.148952 61.956594 0
M  V30 18 N 40.612502 29.226569 62.624901 0
M  V30 19 O 42.448031 31.084822 63.328855 0
M  V30 20 C 35.918295 32.498928 60.816573 0
M  V30 21 C 41.104008 34.930419 64.494581 0 CFG=2
M  V30 22 C 41.381308 33.434689 64.297206 0
M  V30 23 C 39.177629 28.899012 54.591731 0
M  V30 24 C 35.644996 33.872485 60.751376 0
M  V30 25 C 39.243755 29.736001 55.855966 0
M  V30 26 N 38.157849 30.007234 59.289984 0
M  V30 27 C 40.758480 35.019982 66.967327 0 CFG=2
M  V30 28 C 38.699367 27.446564 57.001189 0
M  V30 29 F 35.331309 31.738552 61.767572 0
M  V30 30 C 39.244567 27.562417 54.583731 0
M  V30 31 C 40.932615 32.895191 62.927712 0 CFG=1
M  V30 32 C 36.802226 31.909425 59.900452 0
M  V30 33 N 40.616450 30.532292 62.173176 0
M  V30 34 C 39.396343 26.737928 55.833823 0
M  V30 35 C 37.937219 29.603458 58.001579 0
M  V30 36 C 39.558194 28.399348 60.525433 0
M  V30 37 O 42.998968 33.345833 66.898331 0
M  V30 38 N 37.082645 30.536940 60.015031 0
M  V30 39 H 37.598342 34.692027 58.074528 0
M  V30 40 H 42.729691 35.791267 63.385275 0
M  V30 41 H 41.295125 36.772053 63.367917 0
M  V30 42 H 38.098517 32.271892 58.192957 0
M  V30 43 H 42.493699 34.843333 65.982439 0
M  V30 44 H 40.275966 30.076142 59.411655 0
M  V30 45 H 42.487160 33.479190 61.631960 0
M  V30 46 H 39.424848 36.078706 68.333014 0
M  V30 47 H 40.955633 36.904388 68.073256 0
M  V30 48 H 39.710871 36.939017 66.830344 0
M  V30 49 H 40.708279 34.116426 68.903317 0
M  V30 50 H 39.636504 31.859848 60.835884 0
M  V30 51 H 38.646098 30.850622 61.876556 0
M  V30 52 H 36.037600 35.725195 59.710694 0
M  V30 53 H 40.061839 28.962986 57.692716 0
M  V30 54 H 41.645535 28.283146 61.077212 0
M  V30 55 H 40.533013 27.319890 62.039864 0
M  V30 56 H 41.709007 35.666455 61.134549 0
M  V30 57 H 40.141043 35.269734 61.805407 0
M  V30 58 H 41.385555 29.094751 63.277239 0
M  V30 59 H 40.045165 35.128123 64.470014 0
M  V30 60 H 40.910105 32.850558 65.089170 0
M  V30 61 H 42.455676 33.291271 64.407268 0
M  V30 62 H 39.077005 29.435653 53.659217 0
M  V30 63 H 34.968881 34.316701 61.462849 0
M  V30 64 H 40.197231 30.260864 55.839020 0
M  V30 65 H 38.494691 30.520968 55.742764 0
M  V30 66 H 39.906003 34.466845 66.579360 0
M  V30 67 H 38.870602 26.874508 57.910658 0
M  V30 68 H 37.627856 27.360184 56.817779 0
M  V30 69 H 39.198709 27.026762 53.646592 0
M  V30 70 H 39.846407 32.963655 62.858171 0
M  V30 71 H 38.956410 25.752916 55.672815 0
M  V30 72 H 40.457053 26.591372 56.041691 0
M  V30 73 H 38.626920 28.062788 60.968878 0
M  V30 74 H 39.763366 27.717647 59.704301 0
M  V30 75 H 36.963037 30.171047 60.946061 0
M  V30 76 H 41.821435 36.357542 65.802516 0
M  V30 END ATOM
M  V30 BEGIN BOND
M  V30 1 1 3 1
M  V30 2 1 11 9
M  V30 3 1 11 10
M  V30 4 1 13 5
M  V30 5 2 14 1
M  V30 6 1 17 2
M  V30 7 1 17 6
M  V30 8 1 18 16
M  V30 9 2 19 7
M  V30 10 1 21 2
M  V30 11 1 21 4
M  V30 12 1 22 21
M  V30 13 1 24 14
M  V30 14 2 24 20
M  V30 15 1 25 15
M  V30 16 1 25 23
M  V30 17 1 26 5
M  V30 18 1 27 4
M  V30 19 1 27 8
M  V30 20 1 27 10
M  V30 21 1 28 15
M  V30 22 1 29 20
M  V30 23 2 30 23
M  V30 24 1 31 6
M  V30 25 1 31 7
M  V30 26 1 31 22
M  V30 27 2 32 3
M  V30 28 1 32 20
M  V30 29 1 33 7
M  V30 30 1 33 13
M  V30 31 1 33 18
M  V30 32 1 34 28
M  V30 33 1 34 30
M  V30 34 2 35 12
M  V30 35 1 35 15
M  V30 36 1 35 26
M  V30 37 1 36 5
M  V30 38 1 36 16
M  V30 39 2 37 11
M  V30 40 1 38 26
M  V30 41 1 38 32
M  V30 42 1 39 1
M  V30 43 1 40 2
M  V30 44 1 41 2
M  V30 45 1 42 3
M  V30 46 1 43 4
M  V30 47 1 5 44 CFG=3
M  V30 48 1 45 6
M  V30 49 1 46 8
M  V30 50 1 47 8
M  V30 51 1 48 8
M  V30 52 1 49 10
M  V30 53 1 50 13
M  V30 54 1 51 13
M  V30 55 1 52 14
M  V30 56 1 15 53 CFG=1
M  V30 57 1 54 16
M  V30 58 1 55 16
M  V30 59 1 56 17
M  V30 60 1 57 17
M  V30 61 1 58 18
M  V30 62 1 21 59 CFG=1
M  V30 63 1 60 22
M  V30 64 1 61 22
M  V30 65 1 62 23
M  V30 66 1 63 24
M  V30 67 1 64 25
M  V30 68 1 65 25
M  V30 69 1 27 66 CFG=3
M  V30 70 1 67 28
M  V30 71 1 68 28
M  V30 72 1 69 30
M  V30 73 1 31 70 CFG=1
M  V30 74 1 71 34
M  V30 75 1 72 34
M  V30 76 1 73 36
M  V30 77 1 74 36
M  V30 78 1 75 38
M  V30 79 1 76 4
M  V30 END BOND
M  V30 END CTAB
M  END
>  <i_epik_Tot_Q>  (1) 
0

>  <i_epik_Tot_abs_Q>  (1) 
2

>  <i_i_glide_confnum>  (1) 
1872

>  <i_i_glide_lignum>  (1) 
59

>  <i_i_glide_posenum>  (1) 
279

>  <i_i_glide_rotatable_bonds>  (1) 
11

>  <i_lp_mmshare_version>  (1) 
72125

>  <i_m_source_file_index>  (1) 
25

>  <i_f3d_flags>  (1) 
0

>  <num_sample>  (1) 
100

>  <b_lp_Chiralities_Consistent>  (1) 
1

>  <r_epik_Charging_Adjusted_Penalty>  (1) 
0.077750035834572392

>  <r_epik_Ionization_Penalty>  (1) 
0.10755876975778689

>  <r_epik_Ionization_Penalty_Charging>  (1) 
0.0083338926467225426

>  <r_epik_Ionization_Penalty_Neutral>  (1) 
0.099224877111064341

>  <r_epik_State_Penalty>  (1) 
0.069416143187849846

>  <r_glide_ring_energy>  (1) 
0

>  <r_i_docking_score>  (1) 
-4.3442177153098047

>  <r_i_glide_ecoul>  (1) 
-0.54900370756881101

>  <r_i_glide_eff_state_penalty>  (1) 
0.069416143187849846

>  <r_i_glide_einternal>  (1) 
51.022120583970718

>  <r_i_glide_emodel>  (1) 
-28.345261290382766

>  <r_i_glide_emodel_strain>  (1) 
10.244086078261347

>  <r_i_glide_energy>  (1) 
-48.058659420210056

>  <r_i_glide_erotb>  (1) 
0.72960086390203738

>  <r_i_glide_esite>  (1) 
-0.12204983855280034

>  <r_i_glide_evdw>  (1) 
-47.509655712641248

>  <r_i_glide_gscore>  (1) 
-4.4136338584976542

>  <r_i_glide_gscore_strain>  (1) 
1.5610215195653367

>  <r_i_glide_hbond>  (1) 
-0.00029052268682426926

>  <r_i_glide_ligand_efficiency>  (1) 
-0.11432151882394223

>  <r_i_glide_ligand_efficiency_ln>  (1) 
-0.93674113335850362

>  <r_i_glide_ligand_efficiency_sa>  (1) 
-0.38434613475399859

>  <r_i_glide_lipo>  (1) 
-2.9476909697476934

>  <r_i_glide_metal>  (1) 
-0

>  <r_i_glide_rewards>  (1) 
-1.1763915692103264

>  <r_lp_Energy>  (1) 
50.898903999999995

>  <s_epik_Chemistry_Notes>  (1) 
This compound contains an acetal/aminal-like group ( X-CH(R)-Y where X, Y are N, S, or O) that may be acid/base labile, releasing an aldehyde.

>  <s_epik_cmdline>  (1) 
J2VwaWtfcHl0aG9uJywgJy1waHQnLCAnMS4wJywgJy1waCcsICc3LjQnLCAnLXRuJywgJzgnLCAnLW1hJywgJzUwMCcsICctaW1hZScsICc8aW5maWxlLm1hZT4nLCAnLW9tYWUnLCAnPG91dGZpbGUubWFlPic=

>  <s_epik_input>  (1) 
RmMxW2NIXVtjSF1bY0hdW2NIXWMxW05IXU4oQyg9TylbQ0BASF0yW0NIMl1bQ0hdPVtDSF1bQ0gyXVtDSDJdMilbQ0BIXTNbQ0gyXU4oW05IXVtDSDJdW0NIMl0zKUMoPU8pW0NAQEhdKFtDSDJdNClbTkhdW0NIMl1bQ0gyXVtDQEBIXTRbTkhdW0NASF0oW0NIM10pW05IXUMoPU8pW09IXQ==

>  <s_glide_docking_method>  (1) 
confgen

>  <s_i_glide_gridfile>  (1) 
gpcr_5ht2c_6bqh_protein_autoprepared_prepared

>  <s_lp_Force_Field>  (1) 
S-OPLS

>  <s_lp_Variant>  (1) 
DiffSBDD_24-1

>  <s_m_source_file>  (1) 
generated_GPCR_5HT2C_ligand_DiffSBDD_2026-06-23_prepared.sdf

>  <GenAI_Model>  (1) 
DiffSBDD

>  <Protein>  (1) 
GPCR_5HT2C

$$$$
DiffSBDD_78
     RDKit          3D

  0  0  0  0  0  0  0  0  0  0999 V3000
M  V30 BEGIN CTAB
M  V30 COUNTS 104 109 0 0 1
M  V30 BEGIN ATOM
M  V30 1 O 38.109778 31.187766 54.427863 0
M  V30 2 C 42.313868 30.334415 63.723999 0
M  V30 3 C 36.966652 31.770669 61.304173 0 CFG=1
M  V30 4 C 41.151103 29.856388 50.973870 0
M  V30 5 O 39.522950 26.820771 52.030277 0
M  V30 6 C 41.155242 31.369189 61.573091 0 CFG=2
M  V30 7 C 39.486261 31.121883 54.173775 0
M  V30 8 O 39.136929 29.385499 52.556139 0
M  V30 9 C 42.257797 31.390806 62.634056 0 CFG=1
M  V30 10 O 39.883951 25.707621 57.168376 0
M  V30 11 C 37.853920 39.436344 60.967761 0
M  V30 12 N 38.384266 31.825238 61.047184 0
M  V30 13 N 41.130339 32.325297 62.678405 0
M  V30 14 C 35.830721 39.606281 62.209354 0
M  V30 15 C 41.631216 30.639800 65.043153 0
M  V30 16 C 35.989444 32.617504 60.533626 0 CFG=1
M  V30 17 N 38.789208 30.481953 61.048554 0
M  V30 18 C 37.657242 32.508818 54.366827 0
M  V30 19 C 40.155720 30.203136 61.480363 0 CFG=1
M  V30 20 C 36.434254 38.238173 62.164336 0
M  V30 21 C 39.792637 27.777742 60.847140 0
M  V30 22 C 39.658568 29.704143 51.260345 0 CFG=2
M  V30 23 C 37.841821 29.636489 58.879387 0
M  V30 24 C 38.401940 36.929292 61.277969 0
M  V30 25 C 39.502016 27.153800 50.656843 0
M  V30 26 C 39.793819 29.718861 53.759902 0 CFG=2
M  V30 27 C 36.676730 30.619437 58.879357 0
M  V30 28 C 38.045118 33.266504 55.647844 0
M  V30 29 O 42.890212 29.264864 63.552952 0
M  V30 30 C 40.155046 29.156768 60.314393 0
M  V30 31 C 37.523791 38.151391 61.490121 0
M  V30 32 C 41.377206 28.948021 59.416413 0
M  V30 33 C 38.027077 28.198987 55.007597 0
M  V30 34 C 40.148561 32.245066 63.771259 0
M  V30 35 C 37.879475 35.962760 60.196767 0
M  V30 36 C 36.939642 34.902033 60.776618 0
M  V30 37 O 36.846125 40.322537 61.367744 0
M  V30 38 N 38.871104 27.603941 58.078760 0
M  V30 39 S 37.750215 26.557427 55.820110 0
M  V30 40 C 37.809284 28.508054 58.131210 0
M  V30 41 C 39.074017 28.591620 50.404771 0
M  V30 42 C 39.002345 26.560643 57.146566 0
M  V30 43 C 40.197301 31.041657 64.732833 0
M  V30 44 C 36.541072 33.807945 59.775401 0
M  V30 45 O 38.845026 39.737552 60.310341 0
M  V30 46 C 39.071706 30.074102 59.695961 0 CFG=2
M  V30 47 C 36.124931 31.131756 60.214681 0 CFG=1
M  V30 48 C 39.509821 28.616907 54.831437 0
M  V30 49 H 36.666619 31.616104 62.328328 0
M  V30 50 H 41.334851 29.908977 49.900939 0
M  V30 51 H 41.706146 29.009023 51.367753 0
M  V30 52 H 41.517860 30.800652 51.367449 0
M  V30 53 H 39.530238 25.880153 52.118712 0
M  V30 54 H 41.416400 31.798265 60.609184 0
M  V30 55 H 40.072967 31.421903 55.044321 0
M  V30 56 H 39.779944 31.737862 53.326117 0
M  V30 57 H 43.212866 31.808199 62.328026 0
M  V30 58 H 38.866585 32.352627 61.772011 0
M  V30 59 H 35.809563 39.990324 63.229522 0
M  V30 60 H 42.161595 31.446474 65.549913 0
M  V30 61 H 41.656280 29.761758 65.689255 0
M  V30 62 H 35.067321 32.863412 61.059617 0
M  V30 63 H 38.045139 32.990739 53.476629 0
M  V30 64 H 36.597974 32.421011 54.167824 0
M  V30 65 H 40.096057 29.655133 62.414228 0
M  V30 66 H 35.973418 37.408382 62.679933 0
M  V30 67 H 40.045194 26.975102 60.159740 0
M  V30 68 H 38.730313 27.737753 61.076107 0
M  V30 69 H 40.333928 27.562717 61.767982 0
M  V30 70 H 39.245183 30.656139 50.946062 0
M  V30 71 H 38.467507 36.403778 62.230825 0
M  V30 72 H 39.425879 37.219214 61.103348 0
M  V30 73 H 40.445114 26.937825 50.167800 0
M  V30 74 H 38.757184 26.537023 50.168471 0
M  V30 75 H 40.844914 29.795436 53.553997 0
M  V30 76 H 37.008248 31.470488 58.292395 0
M  V30 77 H 35.857842 30.149820 58.330402 0
M  V30 78 H 37.645236 34.274184 55.639306 0
M  V30 79 H 39.125025 33.349772 55.766761 0
M  V30 80 H 37.645104 32.760645 56.525507 0
M  V30 81 H 34.844686 39.631667 61.767766 0
M  V30 82 H 41.119780 28.611514 58.415448 0
M  V30 83 H 42.045098 28.195384 59.824603 0
M  V30 84 H 41.933885 29.858158 59.250021 0
M  V30 85 H 37.549088 28.122698 54.030958 0
M  V30 86 H 37.486030 28.985361 55.528953 0
M  V30 87 H 40.340072 33.132832 64.372629 0
M  V30 88 H 39.153687 32.395441 63.367884 0
M  V30 89 H 37.417384 36.501513 59.368719 0
M  V30 90 H 38.719457 35.418075 59.770582 0
M  V30 91 H 37.463807 34.430978 61.606754 0
M  V30 92 H 36.045829 35.341992 61.212427 0
M  V30 93 H 39.599144 27.687383 58.773693 0
M  V30 94 H 36.961185 28.236040 57.532113 0
M  V30 95 H 38.019184 28.573395 50.583571 0
M  V30 96 H 39.245053 28.843895 49.367756 0
M  V30 97 H 39.645364 30.189549 64.341115 0
M  V30 98 H 39.686281 31.292207 65.662087 0
M  V30 99 H 37.400510 33.502711 59.179328 0
M  V30 100 H 35.787318 34.178499 59.078532 0
M  V30 101 H 39.525475 30.900599 59.156163 0
M  V30 102 H 35.308551 30.531527 60.590433 0
M  V30 103 H 40.045146 27.708335 54.565323 0
M  V30 104 H 39.936682 28.930802 55.784401 0
M  V30 END ATOM
M  V30 BEGIN BOND
M  V30 1 1 7 1
M  V30 2 1 9 2
M  V30 3 1 9 6
M  V30 4 1 12 3
M  V30 5 1 13 6
M  V30 6 1 13 9
M  V30 7 1 15 2
M  V30 8 1 16 3
M  V30 9 1 17 12
M  V30 10 1 18 1
M  V30 11 1 19 6
M  V30 12 1 19 17
M  V30 13 1 20 14
M  V30 14 1 22 4
M  V30 15 1 22 8
M  V30 16 1 25 5
M  V30 17 1 26 7
M  V30 18 1 26 8
M  V30 19 1 27 23
M  V30 20 1 28 18
M  V30 21 2 29 2
M  V30 22 1 30 19
M  V30 23 1 30 21
M  V30 24 1 31 11
M  V30 25 2 31 20
M  V30 26 1 31 24
M  V30 27 1 32 30
M  V30 28 1 34 13
M  V30 29 1 35 24
M  V30 30 1 36 35
M  V30 31 1 37 11
M  V30 32 1 37 14
M  V30 33 1 39 33
M  V30 34 2 40 23
M  V30 35 1 40 38
M  V30 36 1 41 22
M  V30 37 1 41 25
M  V30 38 2 42 10
M  V30 39 1 42 38
M  V30 40 1 42 39
M  V30 41 1 43 15
M  V30 42 1 43 34
M  V30 43 1 44 16
M  V30 44 1 44 36
M  V30 45 2 45 11
M  V30 46 1 46 17
M  V30 47 1 46 23
M  V30 48 1 46 30
M  V30 49 1 47 3
M  V30 50 1 47 16
M  V30 51 1 47 27
M  V30 52 1 48 26
M  V30 53 1 48 33
M  V30 54 1 3 49 CFG=1
M  V30 55 1 50 4
M  V30 56 1 51 4
M  V30 57 1 52 4
M  V30 58 1 53 5
M  V30 59 1 6 54 CFG=3
M  V30 60 1 55 7
M  V30 61 1 56 7
M  V30 62 1 9 57 CFG=3
M  V30 63 1 58 12
M  V30 64 1 59 14
M  V30 65 1 60 15
M  V30 66 1 61 15
M  V30 67 1 16 62 CFG=1
M  V30 68 1 63 18
M  V30 69 1 64 18
M  V30 70 1 19 65 CFG=1
M  V30 71 1 66 20
M  V30 72 1 67 21
M  V30 73 1 68 21
M  V30 74 1 69 21
M  V30 75 1 22 70 CFG=3
M  V30 76 1 71 24
M  V30 77 1 72 24
M  V30 78 1 73 25
M  V30 79 1 74 25
M  V30 80 1 26 75 CFG=3
M  V30 81 1 76 27
M  V30 82 1 77 27
M  V30 83 1 78 28
M  V30 84 1 79 28
M  V30 85 1 80 28
M  V30 86 1 81 14
M  V30 87 1 82 32
M  V30 88 1 83 32
M  V30 89 1 84 32
M  V30 90 1 85 33
M  V30 91 1 86 33
M  V30 92 1 87 34
M  V30 93 1 88 34
M  V30 94 1 89 35
M  V30 95 1 90 35
M  V30 96 1 91 36
M  V30 97 1 92 36
M  V30 98 1 93 38
M  V30 99 1 94 40
M  V30 100 1 95 41
M  V30 101 1 96 41
M  V30 102 1 97 43
M  V30 103 1 98 43
M  V30 104 1 99 44
M  V30 105 1 100 44
M  V30 106 1 46 101 CFG=3
M  V30 107 1 47 102 CFG=1
M  V30 108 1 103 48
M  V30 109 1 104 48
M  V30 END BOND
M  V30 END CTAB
M  END
>  <i_epik_Tot_Q>  (1) 
0

>  <i_epik_Tot_abs_Q>  (1) 
0

>  <i_i_glide_confnum>  (1) 
10668

>  <i_i_glide_lignum>  (1) 
184

>  <i_i_glide_posenum>  (1) 
142

>  <i_i_glide_rotatable_bonds>  (1) 
20

>  <i_lp_mmshare_version>  (1) 
72125

>  <i_m_source_file_index>  (1) 
79

>  <i_f3d_flags>  (1) 
0

>  <num_sample>  (1) 
100

>  <b_lp_Chiralities_Consistent>  (1) 
1

>  <r_epik_Charging_Adjusted_Penalty>  (1) 
0.92354502945683503

>  <r_epik_Ionization_Penalty>  (1) 
0.93156090309964268

>  <r_epik_Ionization_Penalty_Charging>  (1) 
0

>  <r_epik_Ionization_Penalty_Neutral>  (1) 
0.93156090309964268

>  <r_epik_State_Penalty>  (1) 
0.92354502945683503

>  <r_glide_ring_energy>  (1) 
0

>  <r_i_docking_score>  (1) 
-4.3339770621064657

>  <r_i_glide_ecoul>  (1) 
1.1897185784711333

>  <r_i_glide_eff_state_penalty>  (1) 
0.92354502945683503

>  <r_i_glide_einternal>  (1) 
27.796659302752751

>  <r_i_glide_emodel>  (1) 
-73.156212756719427

>  <r_i_glide_emodel_strain>  (1) 
7.7794908978438002

>  <r_i_glide_energy>  (1) 
-30.761284082190997

>  <r_i_glide_erotb>  (1) 
0.59596673808410561

>  <r_i_glide_esite>  (1) 
0

>  <r_i_glide_evdw>  (1) 
-31.95100266066213

>  <r_i_glide_gscore>  (1) 
-5.2575220915633007

>  <r_i_glide_gscore_strain>  (1) 
0.94487272446095005

>  <r_i_glide_hbond>  (1) 
-0.0077255144961257049

>  <r_i_glide_ligand_efficiency>  (1) 
-0.090291188793884702

>  <r_i_glide_ligand_efficiency_ln>  (1) 
-0.88971427218904731

>  <r_i_glide_ligand_efficiency_sa>  (1) 
-0.32813995701732485

>  <r_i_glide_lipo>  (1) 
-3.8742254759909036

>  <r_i_glide_metal>  (1) 
-0

>  <r_i_glide_rewards>  (1) 
-1.4973182173588913

>  <r_lp_Energy>  (1) 
40.470562000000001

>  <r_lp_tautomer_probability>  (1) 
0.99984117342658263

>  <s_epik_Chemistry_Notes>  (1) 
This compound has an ester and may undergo hydrolysis at high or low pH.

>  <s_epik_cmdline>  (1) 
J2VwaWtfcHl0aG9uJywgJy1waHQnLCAnMS4wJywgJy1waCcsICc3LjQnLCAnLXRuJywgJzgnLCAnLW1hJywgJzUwMCcsICctaW1hZScsICc8aW5maWxlLm1hZT4nLCAnLW9tYWUnLCAnPG91dGZpbGUubWFlPic=

>  <s_epik_input>  (1) 
W09IXVtDSDJdW0NIMl1bQ0BIXShbQ0gzXSlPW0NAQEhdKFtDSDJdT1tDSDJdW0NIM10pW0NIMl1bQ0gyXVNDKD1PKVtOSF1cW0NIXT1DKFtDQEhdMU4oW05IXTIpW0NAQEhdKEMxKFtDSDNdKVtDSDNdKVtDQEhdM04oW0NASF0zNClbQ0gyXVtDSDJdW0NIMl1DND1PKVxbQ0gyXVtDQEBIXShbQ0BASF0yNSlbQ0BASF01W0NIMl1bQ0gyXVtDSDJdW0NIMl1bQ0BASF0oQzY9TylbQ0hdPVtDSF1PNg==

>  <s_glide_docking_method>  (1) 
confgen

>  <s_i_glide_gridfile>  (1) 
gpcr_5ht2c_6bqh_protein_autoprepared_prepared

>  <s_lp_Force_Field>  (1) 
S-OPLS

>  <s_lp_Variant>  (1) 
DiffSBDD_78-6

>  <s_m_source_file>  (1) 
generated_GPCR_5HT2C_ligand_DiffSBDD_2026-06-23_prepared.sdf

>  <GenAI_Model>  (1) 
DiffSBDD

>  <Protein>  (1) 
GPCR_5HT2C

$$$$
DiffSBDD_93
     RDKit          3D

  0  0  0  0  0  0  0  0  0  0999 V3000
M  V30 BEGIN CTAB
M  V30 COUNTS 84 85 0 0 1
M  V30 BEGIN ATOM
M  V30 1 C 41.343955 27.031309 57.591466 0
M  V30 2 O 41.941446 28.137708 56.967819 0
M  V30 3 C 38.985959 26.970098 51.618983 0
M  V30 4 C 35.869349 34.217964 61.160551 0
M  V30 5 O 41.245132 28.513354 59.918219 0
M  V30 6 C 39.651891 33.134126 60.875701 0
M  V30 7 N 40.168692 34.320277 61.204615 0
M  V30 8 O 39.959923 32.099720 61.460051 0
M  V30 9 O 37.406327 24.426436 57.088677 0
M  V30 10 C 36.684115 35.470952 61.419154 0
M  V30 11 C 39.410886 26.820314 53.075777 0
M  V30 12 C 38.879040 28.643971 60.044841 0
M  V30 13 C 38.838340 26.999231 57.687880 0
M  V30 14 C 37.306419 32.318029 60.022497 0 CFG=1
M  V30 15 C 38.623480 33.118069 59.714737 0 CFG=2
M  V30 16 C 38.737717 29.072585 52.817858 0 CFG=1
M  V30 17 C 38.790113 28.051377 55.234721 0 CFG=1
M  V30 18 C 37.814750 29.178019 55.624145 0
M  V30 19 C 38.621615 30.059826 59.520013 0
M  V30 20 S 37.148744 25.737801 56.037858 0 CHG=1
M  V30 21 O 36.045156 29.737884 58.337980 0
M  V30 22 N 40.118872 27.443838 58.268161 0
M  V30 23 O 37.245174 24.937558 54.564756 0
M  V30 24 O 39.645203 28.894117 50.432331 0
M  V30 25 F 40.236509 30.342986 54.225722 0
M  V30 26 C 36.058044 35.260754 60.061205 0
M  V30 27 C 36.114221 30.090542 59.696357 0
M  V30 28 C 37.419038 30.766498 60.157808 0 CFG=2
M  V30 29 C 40.184487 28.187106 59.405748 0
M  V30 30 C 39.245194 32.937952 58.291725 0
M  V30 31 C 39.856227 31.310378 52.202916 0
M  V30 32 C 38.692313 26.733886 56.149139 0 CFG=2
M  V30 33 O 38.753698 32.774005 55.984974 0
M  V30 34 C 36.561848 32.866111 61.273724 0
M  V30 35 C 39.970218 29.999328 52.968793 0 CFG=2
M  V30 36 C 38.340102 33.168268 57.099326 0
M  V30 37 C 38.713310 28.439074 51.398086 0 CFG=1
M  V30 38 O 37.264749 33.737729 57.316776 0 CHG=-1
M  V30 39 N 38.659857 27.884070 53.742952 0 CFG=2 CHG=1
M  V30 40 H 41.206525 26.234923 56.870192 0
M  V30 41 H 42.051140 26.632761 58.320578 0
M  V30 42 H 42.850625 28.174045 57.228973 0
M  V30 43 H 39.670729 26.537924 50.895874 0
M  V30 44 H 38.017447 26.537760 51.469677 0
M  V30 45 H 34.887372 34.190086 61.626376 0
M  V30 46 H 39.887594 35.150196 60.702733 0
M  V30 47 H 40.839631 34.383448 61.954551 0
M  V30 48 H 38.328078 24.220666 57.060071 0
M  V30 49 H 36.264978 36.207559 62.101025 0
M  V30 50 H 37.760670 35.372066 61.501254 0
M  V30 51 H 40.476819 26.937704 53.168837 0
M  V30 52 H 39.187698 25.858078 53.501165 0
M  V30 53 H 38.045906 27.961760 59.941400 0
M  V30 54 H 39.050120 28.695746 61.120744 0
M  V30 55 H 38.009055 27.648730 57.937281 0
M  V30 56 H 38.641941 26.094758 58.260679 0
M  V30 57 H 36.614763 32.484368 59.199317 0
M  V30 58 H 38.365786 34.162221 59.683726 0
M  V30 59 H 37.840402 29.672365 52.968025 0
M  V30 60 H 39.797942 28.412443 55.418833 0
M  V30 61 H 37.667497 29.247505 56.683101 0
M  V30 62 H 38.179233 30.164490 55.343542 0
M  V30 63 H 36.845464 29.070169 55.143051 0
M  V30 64 H 39.532950 30.606332 59.714295 0
M  V30 65 H 38.533082 30.062099 58.439097 0
M  V30 66 H 35.865084 30.547127 57.839157 0
M  V30 67 H 37.821339 24.198581 54.682512 0
M  V30 68 H 39.174195 29.345335 49.742331 0
M  V30 69 H 36.688287 35.068692 59.212247 0
M  V30 70 H 35.245173 35.905150 59.767809 0
M  V30 71 H 36.045119 29.137050 60.167706 0
M  V30 72 H 35.245445 30.681021 59.971441 0
M  V30 73 H 37.520772 30.576739 61.227597 0
M  V30 74 H 40.045131 33.659591 58.185926 0
M  V30 75 H 39.624066 31.961193 58.051248 0
M  V30 76 H 39.557330 31.207780 51.162494 0
M  V30 77 H 39.179210 32.000563 52.705135 0
M  V30 78 H 40.845044 31.737739 52.167900 0
M  V30 79 H 39.458914 26.036303 55.818557 0
M  V30 80 H 35.773745 32.164453 61.549844 0
M  V30 81 H 37.218043 32.881364 62.145167 0
M  V30 82 H 40.845020 29.502012 52.567752 0
M  V30 83 H 37.720615 28.537857 50.970300 0
M  V30 84 H 37.701179 27.586942 53.621741 0
M  V30 END ATOM
M  V30 BEGIN BOND
M  V30 1 1 2 1
M  V30 2 1 7 6
M  V30 3 2 8 6
M  V30 4 1 10 4
M  V30 5 1 11 3
M  V30 6 1 15 6
M  V30 7 1 15 14
M  V30 8 1 18 17
M  V30 9 1 19 12
M  V30 10 1 20 9
M  V30 11 1 22 1
M  V30 12 1 22 13
M  V30 13 1 23 20
M  V30 14 1 26 4
M  V30 15 1 26 10
M  V30 16 1 27 21
M  V30 17 1 28 14
M  V30 18 1 28 19
M  V30 19 1 28 27
M  V30 20 2 29 5
M  V30 21 1 29 12
M  V30 22 1 29 22
M  V30 23 1 30 15
M  V30 24 1 32 13
M  V30 25 1 32 17
M  V30 26 1 32 20
M  V30 27 1 34 4
M  V30 28 1 34 14
M  V30 29 1 35 16
M  V30 30 1 35 25
M  V30 31 1 35 31
M  V30 32 1 36 30
M  V30 33 2 36 33
M  V30 34 1 37 3
M  V30 35 1 37 16
M  V30 36 1 37 24
M  V30 37 1 38 36
M  V30 38 1 39 11
M  V30 39 1 39 16
M  V30 40 1 39 17
M  V30 41 1 40 1
M  V30 42 1 41 1
M  V30 43 1 42 2
M  V30 44 1 43 3
M  V30 45 1 44 3
M  V30 46 1 45 4
M  V30 47 1 46 7
M  V30 48 1 47 7
M  V30 49 1 48 9
M  V30 50 1 49 10
M  V30 51 1 50 10
M  V30 52 1 51 11
M  V30 53 1 52 11
M  V30 54 1 53 12
M  V30 55 1 54 12
M  V30 56 1 55 13
M  V30 57 1 56 13
M  V30 58 1 14 57 CFG=3
M  V30 59 1 15 58 CFG=3
M  V30 60 1 16 59 CFG=3
M  V30 61 1 17 60 CFG=3
M  V30 62 1 61 18
M  V30 63 1 62 18
M  V30 64 1 63 18
M  V30 65 1 64 19
M  V30 66 1 65 19
M  V30 67 1 66 21
M  V30 68 1 67 23
M  V30 69 1 68 24
M  V30 70 1 69 26
M  V30 71 1 70 26
M  V30 72 1 71 27
M  V30 73 1 72 27
M  V30 74 1 28 73 CFG=1
M  V30 75 1 74 30
M  V30 76 1 75 30
M  V30 77 1 76 31
M  V30 78 1 77 31
M  V30 79 1 78 31
M  V30 80 1 32 79 CFG=3
M  V30 81 1 80 34
M  V30 82 1 81 34
M  V30 83 1 35 82 CFG=3
M  V30 84 1 37 83 CFG=3
M  V30 85 1 39 84 CFG=1
M  V30 END BOND
M  V30 END CTAB
M  END
>  <i_epik_Tot_Q>  (1) 
1

>  <i_epik_Tot_abs_Q>  (1) 
3

>  <i_i_glide_confnum>  (1) 
8248

>  <i_i_glide_lignum>  (1) 
217

>  <i_i_glide_posenum>  (1) 
16

>  <i_i_glide_rotatable_bonds>  (1) 
24

>  <i_lp_mmshare_version>  (1) 
72125

>  <i_m_source_file_index>  (1) 
94

>  <i_f3d_flags>  (1) 
0

>  <num_sample>  (1) 
100

>  <b_lp_Chiralities_Consistent>  (1) 
1

>  <r_epik_Charging_Adjusted_Penalty>  (1) 
0.90916677635763199

>  <r_epik_Ionization_Penalty>  (1) 
0.45507897092921873

>  <r_epik_Ionization_Penalty_Charging>  (1) 
0.45507471778648678

>  <r_epik_Ionization_Penalty_Neutral>  (1) 
4.2531427319391784e-06

>  <r_epik_State_Penalty>  (1) 
0.45409205857114521

>  <r_glide_ring_energy>  (1) 
0

>  <r_i_docking_score>  (1) 
-4.3103004000370078

>  <r_i_glide_ecoul>  (1) 
-5.204282902294243

>  <r_i_glide_eff_state_penalty>  (1) 
0.45409205857114521

>  <r_i_glide_einternal>  (1) 
9.5813496961134419

>  <r_i_glide_emodel>  (1) 
-27.64498708357317

>  <r_i_glide_emodel_strain>  (1) 
9.2010869416354524

>  <r_i_glide_energy>  (1) 
-24.084610864363384

>  <r_i_glide_erotb>  (1) 
0.82188833391367333

>  <r_i_glide_esite>  (1) 
-0.073184824496672171

>  <r_i_glide_evdw>  (1) 
-18.880327962069142

>  <r_i_glide_gscore>  (1) 
-4.7643924586081532

>  <r_i_glide_gscore_strain>  (1) 
1.3002717354088631

>  <r_i_glide_hbond>  (1) 
-0.39674963549282721

>  <r_i_glide_ligand_efficiency>  (1) 
-0.110520523077872

>  <r_i_glide_ligand_efficiency_ln>  (1) 
-0.92425076092093372

>  <r_i_glide_ligand_efficiency_sa>  (1) 
-0.37479846254959087

>  <r_i_glide_lipo>  (1) 
-2.8887944173605953

>  <r_i_glide_metal>  (1) 
-0

>  <r_i_glide_rewards>  (1) 
-1.8031648171330008

>  <r_lp_Energy>  (1) 
20.226026999999998

>  <s_epik_Chemistry_Notes>  (1) 
This compound contains an acetal/aminal-like group ( X-CH(R)-Y where X, Y are N, S, or O) that may be acid/base labile, releasing an aldehyde.

>  <s_epik_cmdline>  (1) 
J2VwaWtfcHl0aG9uJywgJy1waHQnLCAnMS4wJywgJy1waCcsICc3LjQnLCAnLXRuJywgJzgnLCAnLW1hJywgJzUwMCcsICctaW1hZScsICc8aW5maWxlLm1hZT4nLCAnLW9tYWUnLCAnPG91dGZpbGUubWFlPic=

>  <s_epik_input>  (1) 
W0NIMl0xW0NIMl1bQ0hdMVtDSDJdW0NAQEhdKFtDQEBIXShDKD1PKVtOSDJdKVtDSDJdQyg9TylbT0hdKVtDQEBIXShbQ0gyXVtPSF0pW0NIMl1bQ0gyXUMoPU8pTihbQ0gyXVtPSF0pW0NIMl1bQ0BASF0oW1MrXShbT0hdKVtPSF0pW0NASF0oW0NIM10pTjJbQ0gyXVtDSDJdW0NASF0oW09IXSlbQ0BASF0yW0NASF0oRilbQ0gzXQ==

>  <s_glide_docking_method>  (1) 
confgen

>  <s_i_glide_gridfile>  (1) 
gpcr_5ht2c_6bqh_protein_autoprepared_prepared

>  <s_lp_Force_Field>  (1) 
S-OPLS

>  <s_lp_Variant>  (1) 
DiffSBDD_93-5

>  <s_m_source_file>  (1) 
generated_GPCR_5HT2C_ligand_DiffSBDD_2026-06-23_prepared.sdf

>  <GenAI_Model>  (1) 
DiffSBDD

>  <Protein>  (1) 
GPCR_5HT2C

$$$$
DiffSBDD_9
     RDKit          3D

  0  0  0  0  0  0  0  0  0  0999 V3000
M  V30 BEGIN CTAB
M  V30 COUNTS 67 68 0 0 1
M  V30 BEGIN ATOM
M  V30 1 C 37.445248 33.447149 60.030958 0 CFG=1
M  V30 2 C 37.716389 26.062235 57.655225 0
M  V30 3 C 38.045186 39.176548 60.617525 0
M  V30 4 C 39.646127 29.752053 51.417835 0
M  V30 5 O 37.680209 38.203617 61.459195 0
M  V30 6 O 37.645296 28.537753 52.167727 0
M  V30 7 C 36.868212 34.846640 59.969507 0 CFG=1
M  V30 8 C 36.406955 33.887606 61.043180 0
M  V30 9 N 36.845027 32.523297 59.051009 0 CHG=1
M  V30 10 C 38.486901 29.763810 56.969423 0
M  V30 11 C 39.574896 27.667121 56.075995 0 CFG=2
M  V30 12 C 39.054690 27.689564 54.643313 0
M  V30 13 C 39.245152 29.011628 53.878289 0 CFG=1
M  V30 14 C 37.673714 30.517046 58.005070 0
M  V30 15 C 39.023236 28.727541 52.378036 0 CFG=2
M  V30 16 C 38.022904 27.512452 58.111358 0
M  V30 17 C 39.100405 30.615431 55.851992 0
M  V30 18 C 41.588051 27.877127 57.387098 0
M  V30 19 C 37.661457 36.100454 60.283205 0
M  V30 20 C 38.852198 33.091889 60.489817 0
M  V30 21 O 37.045777 29.970773 58.914985 0
M  V30 22 C 37.670046 32.050247 57.932722 0
M  V30 23 O 38.741552 40.139543 60.932619 0
M  V30 24 C 36.845287 37.147407 61.038040 0
M  V30 25 C 38.670572 28.401098 57.050155 0
M  V30 26 C 38.502282 30.215239 54.481344 0
M  V30 27 O 35.853578 35.005754 58.990832 0
M  V30 28 O 40.907532 28.143271 56.167752 0
M  V30 29 C 38.837113 27.584326 59.417380 0
M  V30 30 H 37.437371 26.030321 56.601957 0
M  V30 31 H 38.560205 25.387192 57.806155 0
M  V30 32 H 36.858932 25.635563 58.167778 0
M  V30 33 H 37.645154 38.980666 59.624134 0
M  V30 34 H 40.732703 29.659729 51.430456 0
M  V30 35 H 39.318864 29.587133 50.389778 0
M  V30 36 H 39.427309 30.781507 51.685506 0
M  V30 37 H 37.519450 28.042182 51.370622 0
M  V30 38 H 36.736872 34.078190 62.058836 0
M  V30 39 H 35.400331 33.479634 60.964477 0
M  V30 40 H 36.526495 31.680309 59.512589 0
M  V30 41 H 39.670083 26.615371 56.332208 0
M  V30 42 H 39.581623 26.893120 54.115212 0
M  V30 43 H 38.002262 27.404233 54.629153 0
M  V30 44 H 40.260702 29.338337 53.991665 0
M  V30 45 H 39.494384 27.777656 52.120866 0
M  V30 46 H 37.000305 27.864860 58.167735 0
M  V30 47 H 38.963811 31.686207 55.948050 0
M  V30 48 H 40.180863 30.503168 55.857854 0
M  V30 49 H 42.643350 28.127034 57.278885 0
M  V30 50 H 41.195223 28.487708 58.198779 0
M  V30 51 H 41.523207 26.826166 57.667383 0
M  V30 52 H 38.530421 35.834881 60.884624 0
M  V30 53 H 38.044802 36.537654 59.367767 0
M  V30 54 H 39.093402 33.604997 61.420387 0
M  V30 55 H 38.946299 32.019243 60.663349 0
M  V30 56 H 39.587490 33.394888 59.745210 0
M  V30 57 H 37.245147 32.411151 56.997615 0
M  V30 58 H 38.687412 32.429179 58.001652 0
M  V30 59 H 36.009194 37.514536 60.442362 0
M  V30 60 H 36.442197 36.694120 61.941803 0
M  V30 61 H 38.602736 31.067148 53.808527 0
M  V30 62 H 37.431217 30.018562 54.556575 0
M  V30 63 H 36.182823 35.488631 58.239114 0
M  V30 64 H 39.223183 28.587013 59.600407 0
M  V30 65 H 38.245183 27.337754 60.291586 0
M  V30 66 H 39.694112 26.913657 59.377474 0
M  V30 67 H 36.032351 32.973706 58.646237 0
M  V30 END ATOM
M  V30 BEGIN BOND
M  V30 1 1 5 3
M  V30 2 1 7 1
M  V30 3 1 8 1
M  V30 4 1 8 7
M  V30 5 1 9 1
M  V30 6 1 12 11
M  V30 7 1 13 12
M  V30 8 1 14 10
M  V30 9 1 15 4
M  V30 10 1 15 6
M  V30 11 1 15 13
M  V30 12 1 16 2
M  V30 13 1 17 10
M  V30 14 1 19 7
M  V30 15 1 1 20 CFG=1
M  V30 16 2 21 14
M  V30 17 1 22 9
M  V30 18 1 22 14
M  V30 19 2 23 3
M  V30 20 1 24 5
M  V30 21 1 24 19
M  V30 22 2 25 10
M  V30 23 1 25 11
M  V30 24 1 25 16
M  V30 25 1 26 13
M  V30 26 1 26 17
M  V30 27 1 7 27 CFG=3
M  V30 28 1 28 11
M  V30 29 1 28 18
M  V30 30 1 29 16
M  V30 31 1 30 2
M  V30 32 1 31 2
M  V30 33 1 32 2
M  V30 34 1 33 3
M  V30 35 1 34 4
M  V30 36 1 35 4
M  V30 37 1 36 4
M  V30 38 1 37 6
M  V30 39 1 38 8
M  V30 40 1 39 8
M  V30 41 1 40 9
M  V30 42 1 11 41 CFG=1
M  V30 43 1 42 12
M  V30 44 1 43 12
M  V30 45 1 13 44 CFG=3
M  V30 46 1 15 45 CFG=3
M  V30 47 1 46 16
M  V30 48 1 47 17
M  V30 49 1 48 17
M  V30 50 1 49 18
M  V30 51 1 50 18
M  V30 52 1 51 18
M  V30 53 1 52 19
M  V30 54 1 53 19
M  V30 55 1 54 20
M  V30 56 1 55 20
M  V30 57 1 56 20
M  V30 58 1 57 22
M  V30 59 1 58 22
M  V30 60 1 59 24
M  V30 61 1 60 24
M  V30 62 1 61 26
M  V30 63 1 62 26
M  V30 64 1 63 27
M  V30 65 1 64 29
M  V30 66 1 65 29
M  V30 67 1 66 29
M  V30 68 1 67 9
M  V30 END BOND
M  V30 END CTAB
M  END
>  <i_epik_Tot_Q>  (1) 
1

>  <i_epik_Tot_abs_Q>  (1) 
1

>  <i_i_glide_confnum>  (1) 
1394

>  <i_i_glide_lignum>  (1) 
14

>  <i_i_glide_posenum>  (1) 
294

>  <i_i_glide_rotatable_bonds>  (1) 
13

>  <i_lp_mmshare_version>  (1) 
72125

>  <i_m_source_file_index>  (1) 
10

>  <i_f3d_flags>  (1) 
0

>  <num_sample>  (1) 
100

>  <b_lp_Chiralities_Consistent>  (1) 
1

>  <r_epik_Charging_Adjusted_Penalty>  (1) 
0.43257487955488089

>  <r_epik_Ionization_Penalty>  (1) 
0.21628819114950359

>  <r_epik_Ionization_Penalty_Charging>  (1) 
0.21628743977744047

>  <r_epik_Ionization_Penalty_Neutral>  (1) 
7.5137206312442099e-07

>  <r_epik_State_Penalty>  (1) 
0.21628743977744042

>  <r_glide_ring_energy>  (1) 
0

>  <r_i_docking_score>  (1) 
-4.3040947111930974

>  <r_i_glide_ecoul>  (1) 
-11.246176172080407

>  <r_i_glide_eff_state_penalty>  (1) 
0.21628743977744042

>  <r_i_glide_einternal>  (1) 
16.31264427598213

>  <r_i_glide_emodel>  (1) 
-41.921818865928074

>  <r_i_glide_emodel_strain>  (1) 
1.6026084847177628

>  <r_i_glide_energy>  (1) 
-38.142416067395231

>  <r_i_glide_erotb>  (1) 
0.92691700141960698

>  <r_i_glide_esite>  (1) 
-0.19065015638069505

>  <r_i_glide_evdw>  (1) 
-26.896239895314825

>  <r_i_glide_gscore>  (1) 
-4.520382150970538

>  <r_i_glide_gscore_strain>  (1) 
0

>  <r_i_glide_hbond>  (1) 
-0.62897591215821536

>  <r_i_glide_ligand_efficiency>  (1) 
-0.14841705900665852

>  <r_i_glide_ligand_efficiency_ln>  (1) 
-0.98552854643840948

>  <r_i_glide_ligand_efficiency_sa>  (1) 
-0.45598422760496632

>  <r_i_glide_lipo>  (1) 
-3.0334521231985523

>  <r_i_glide_metal>  (1) 
-0

>  <r_i_glide_rewards>  (1) 
1.4375174599251199

>  <r_lp_Energy>  (1) 
42.298378999999997

>  <s_epik_Chemistry_Notes>  (1) 
This compound has an ester and may undergo hydrolysis at high or low pH.

>  <s_epik_cmdline>  (1) 
J2VwaWtfcHl0aG9uJywgJy1waHQnLCAnMS4wJywgJy1waCcsICc3LjQnLCAnLXRuJywgJzgnLCAnLW1hJywgJzUwMCcsICctaW1hZScsICc8aW5maWxlLm1hZT4nLCAnLW9tYWUnLCAnPG91dGZpbGUubWFlPic=

>  <s_epik_input>  (1) 
Tz1bQ0hdT1tDSDJdW0NIMl1bQ0BAXShbQ0gyXTEpKFtPSF0pW0NAXTEoW0NIM10pW05IXVtDSDJdQyg9TylDMj1DKFtDSF0oW0NIM10pW0NIM10pW0NASF0oT1tDSDNdKVtDSDJdW0NAQEhdKFtDQEBIXShbQ0gzXSlbT0hdKVtDSDJdW0NIMl0y

>  <s_glide_docking_method>  (1) 
confgen

>  <s_i_glide_gridfile>  (1) 
gpcr_5ht2c_6bqh_protein_autoprepared_prepared

>  <s_lp_Force_Field>  (1) 
S-OPLS

>  <s_lp_Variant>  (1) 
DiffSBDD_9-2

>  <s_m_source_file>  (1) 
generated_GPCR_5HT2C_ligand_DiffSBDD_2026-06-23_prepared.sdf

>  <GenAI_Model>  (1) 
DiffSBDD

>  <Protein>  (1) 
GPCR_5HT2C

$$$$
DiffSBDD_12
     RDKit          3D

  0  0  0  0  0  0  0  0  0  0999 V3000
M  V30 BEGIN CTAB
M  V30 COUNTS 68 70 0 0 1
M  V30 BEGIN ATOM
M  V30 1 C 38.138235 27.622627 54.944755 0 CFG=1
M  V30 2 C 40.045045 33.786978 60.768438 0
M  V30 3 N 38.714968 28.304351 56.138319 0 CFG=1 CHG=1
M  V30 4 C 35.882319 34.206601 60.270714 0
M  V30 5 O 38.045144 31.945444 56.847745 0
M  V30 6 O 38.636892 29.064193 53.031357 0
M  V30 7 N 40.845905 34.158045 63.463919 0 CHG=-1
M  V30 8 C 41.447294 34.008449 64.670065 0
M  V30 9 O 41.645138 36.536308 62.865776 0
M  V30 10 C 38.569411 29.777590 55.921407 0 CFG=1
M  V30 11 C 42.058587 31.096822 63.308952 0
M  V30 12 S 38.000275 30.902242 60.023782 0
M  V30 13 C 38.932100 33.384715 60.207681 0
M  V30 14 C 38.158342 27.757138 57.407591 0
M  V30 15 C 41.104275 31.551380 64.393790 0 CFG=1
M  V30 16 C 37.819380 30.044968 58.387009 0 CFG=1
M  V30 17 O 36.824541 30.537803 60.823036 0
M  V30 18 O 41.076631 29.244628 64.323754 0
M  V30 19 C 37.414476 29.920105 54.923456 0
M  V30 20 C 41.131497 30.304408 65.264328 0 CFG=2
M  V30 21 C 40.377868 35.243188 60.994763 0
M  V30 22 N 41.677623 29.710971 63.082784 0
M  V30 23 O 41.870631 34.922644 65.372672 0
M  V30 24 O 39.195207 36.123352 63.193113 0
M  V30 25 C 38.560900 30.678989 57.195141 0 CFG=2
M  V30 26 C 38.439497 28.655843 58.596967 0
M  V30 27 C 36.625307 33.326863 59.260956 0
M  V30 28 C 37.885475 32.695663 59.822316 0
M  V30 29 O 39.342579 30.586168 60.541509 0
M  V30 30 C 37.649860 28.730037 53.989611 0 CFG=2
M  V30 31 C 39.084338 26.575730 54.338215 0
M  V30 32 C 39.983794 30.173768 66.269375 0
M  V30 33 S 40.515336 35.607587 62.802366 0
M  V30 34 N 41.578971 32.740028 65.119932 0
M  V30 35 H 37.245153 27.076655 55.245513 0
M  V30 36 H 40.781591 33.072069 61.100278 0
M  V30 37 H 34.937061 34.537761 59.840030 0
M  V30 38 H 35.652896 33.655424 61.182800 0
M  V30 39 H 36.462392 35.088810 60.543894 0
M  V30 40 H 37.088342 31.900032 56.772533 0
M  V30 41 H 38.684200 28.375294 52.383868 0
M  V30 42 H 39.462523 30.075611 55.367846 0
M  V30 43 H 41.991023 31.692263 62.399733 0
M  V30 44 H 43.091167 31.124927 63.658682 0
M  V30 45 H 37.079195 27.618993 57.367767 0
M  V30 46 H 38.584545 26.766983 57.576899 0
M  V30 47 H 40.097340 31.691358 63.993183 0
M  V30 48 H 36.749039 29.988666 58.174590 0
M  V30 49 H 36.456397 29.824064 55.435662 0
M  V30 50 H 37.414835 30.877586 54.400896 0
M  V30 51 H 42.086087 30.232025 65.789413 0
M  V30 52 H 41.350691 35.473689 60.567758 0
M  V30 53 H 39.638615 35.919392 60.568000 0
M  V30 54 H 42.501325 29.135049 62.966796 0
M  V30 55 H 39.598469 30.835098 57.489829 0
M  V30 56 H 38.045147 28.197041 59.503337 0
M  V30 57 H 39.517059 28.731178 58.751524 0
M  V30 58 H 36.860819 33.894192 58.359161 0
M  V30 59 H 35.956033 32.519064 58.967743 0
M  V30 60 H 36.747229 28.436486 53.454178 0
M  V30 61 H 38.635317 26.137855 53.447727 0
M  V30 62 H 40.043031 26.999487 54.049016 0
M  V30 63 H 39.281666 25.766485 55.042274 0
M  V30 64 H 40.009166 30.986104 66.993991 0
M  V30 65 H 39.015253 30.183680 65.768627 0
M  V30 66 H 40.057146 29.234536 66.818530 0
M  V30 67 H 42.021672 32.592211 66.013744 0
M  V30 68 H 39.708997 28.128093 56.154093 0
M  V30 END ATOM
M  V30 BEGIN BOND
M  V30 1 1 3 1
M  V30 2 1 8 7
M  V30 3 1 10 3
M  V30 4 2 13 2
M  V30 5 1 14 3
M  V30 6 1 15 11
M  V30 7 1 16 12
M  V30 8 2 17 12
M  V30 9 1 19 10
M  V30 10 1 20 15
M  V30 11 1 20 18
M  V30 12 1 21 2
M  V30 13 1 22 11
M  V30 14 1 22 18
M  V30 15 2 23 8
M  V30 16 1 25 5
M  V30 17 1 25 10
M  V30 18 1 25 16
M  V30 19 1 26 14
M  V30 20 1 26 16
M  V30 21 1 27 4
M  V30 22 1 28 12
M  V30 23 2 28 13
M  V30 24 1 28 27
M  V30 25 2 29 12
M  V30 26 1 30 1
M  V30 27 1 30 6
M  V30 28 1 30 19
M  V30 29 1 31 1
M  V30 30 1 32 20
M  V30 31 1 33 7
M  V30 32 2 33 9
M  V30 33 1 33 21
M  V30 34 2 33 24
M  V30 35 1 34 8
M  V30 36 1 34 15
M  V30 37 1 1 35 CFG=1
M  V30 38 1 36 2
M  V30 39 1 37 4
M  V30 40 1 38 4
M  V30 41 1 39 4
M  V30 42 1 40 5
M  V30 43 1 41 6
M  V30 44 1 10 42 CFG=3
M  V30 45 1 43 11
M  V30 46 1 44 11
M  V30 47 1 45 14
M  V30 48 1 46 14
M  V30 49 1 15 47 CFG=3
M  V30 50 1 16 48 CFG=3
M  V30 51 1 49 19
M  V30 52 1 50 19
M  V30 53 1 20 51 CFG=1
M  V30 54 1 52 21
M  V30 55 1 53 21
M  V30 56 1 54 22
M  V30 57 1 25 55 CFG=1
M  V30 58 1 56 26
M  V30 59 1 57 26
M  V30 60 1 58 27
M  V30 61 1 59 27
M  V30 62 1 30 60 CFG=3
M  V30 63 1 61 31
M  V30 64 1 62 31
M  V30 65 1 63 31
M  V30 66 1 64 32
M  V30 67 1 65 32
M  V30 68 1 66 32
M  V30 69 1 67 34
M  V30 70 1 3 68 CFG=1
M  V30 END BOND
M  V30 END CTAB
M  END
>  <i_epik_Tot_Q>  (1) 
0

>  <i_epik_Tot_abs_Q>  (1) 
2

>  <i_i_glide_confnum>  (1) 
1275

>  <i_i_glide_lignum>  (1) 
19

>  <i_i_glide_posenum>  (1) 
346

>  <i_i_glide_rotatable_bonds>  (1) 
11

>  <i_lp_mmshare_version>  (1) 
72125

>  <i_m_source_file_index>  (1) 
13

>  <i_f3d_flags>  (1) 
0

>  <num_sample>  (1) 
100

>  <b_lp_Chiralities_Consistent>  (1) 
1

>  <r_epik_Charging_Adjusted_Penalty>  (1) 
0.60912623126161669

>  <r_epik_Ionization_Penalty>  (1) 
0.30573665464692801

>  <r_epik_Ionization_Penalty_Charging>  (1) 
0.30464155940026277

>  <r_epik_Ionization_Penalty_Neutral>  (1) 
0.0010950952466652615

>  <r_epik_State_Penalty>  (1) 
0.30448467186135392

>  <r_glide_ring_energy>  (1) 
0

>  <r_i_docking_score>  (1) 
-4.2925718673758126

>  <r_i_glide_ecoul>  (1) 
-3.6439736410869941

>  <r_i_glide_eff_state_penalty>  (1) 
0.30448467186135392

>  <r_i_glide_einternal>  (1) 
19.239212011216654

>  <r_i_glide_emodel>  (1) 
-42.98065698643309

>  <r_i_glide_emodel_strain>  (1) 
4.2013363916880735

>  <r_i_glide_energy>  (1) 
-45.799591066286773

>  <r_i_glide_erotb>  (1) 
0.67758354065758886

>  <r_i_glide_esite>  (1) 
-0.065362903038585218

>  <r_i_glide_evdw>  (1) 
-42.155617425199779

>  <r_i_glide_gscore>  (1) 
-4.5970565392371663

>  <r_i_glide_gscore_strain>  (1) 
0.050334097922018373

>  <r_i_glide_hbond>  (1) 
-0.16

>  <r_i_glide_ligand_efficiency>  (1) 
-0.12625211374634743

>  <r_i_glide_ligand_efficiency_ln>  (1) 
-0.94834952806589035

>  <r_i_glide_ligand_efficiency_sa>  (1) 
-0.40900783762889437

>  <r_i_glide_lipo>  (1) 
-2.1054019520879161

>  <r_i_glide_metal>  (1) 
-0

>  <r_i_glide_rewards>  (1) 
-0.33983240526723446

>  <r_lp_Energy>  (1) 
-2.0210079999999997

>  <s_epik_Chemistry_Notes>  (1) 
This compound has a N-S or N-O group and may undergo hydrolysis at high or low pH.

>  <s_epik_cmdline>  (1) 
J2VwaWtfcHl0aG9uJywgJy1waHQnLCAnMS4wJywgJy1waCcsICc3LjQnLCAnLXRuJywgJzgnLCAnLW1hJywgJzUwMCcsICctaW1hZScsICc8aW5maWxlLm1hZT4nLCAnLW9tYWUnLCAnPG91dGZpbGUubWFlPic=

>  <s_epik_input>  (1) 
W0NIM11bQ0BASF0xW0NASF0oW09IXSlbQ0gyXVtDQEhdKE4xMilbQ0BASF0oW09IXSlbQ0BASF0oW0NIMl1bQ0gyXTIpUyg9TykoPU8pQyhbQ0gyXVtDSDNdKT1DPVtDSF1bQ0gyXVMoPU8pKD1PKVtOSF1DKD1PKVtOSF1bQ0BIXTNbQ0gyXVtOSF1PW0NAQEhdM1tDSDNd

>  <s_glide_docking_method>  (1) 
confgen

>  <s_i_glide_gridfile>  (1) 
gpcr_5ht2c_6bqh_protein_autoprepared_prepared

>  <s_lp_Force_Field>  (1) 
S-OPLS

>  <s_lp_Variant>  (1) 
DiffSBDD_12-1

>  <s_m_source_file>  (1) 
generated_GPCR_5HT2C_ligand_DiffSBDD_2026-06-23_prepared.sdf

>  <GenAI_Model>  (1) 
DiffSBDD

>  <Protein>  (1) 
GPCR_5HT2C

$$$$
DiffSBDD_78
     RDKit          3D

  0  0  0  0  0  0  0  0  0  0999 V3000
M  V30 BEGIN CTAB
M  V30 COUNTS 104 109 0 0 1
M  V30 BEGIN ATOM
M  V30 1 O 38.068147 31.802687 56.172242 0
M  V30 2 C 43.574279 28.683266 67.650785 0
M  V30 3 C 40.001648 32.289640 63.538052 0 CFG=1
M  V30 4 C 39.159062 31.569594 52.967774 0
M  V30 5 O 39.645116 28.542218 50.271913 0
M  V30 6 C 43.039970 30.439964 65.744566 0 CFG=2
M  V30 7 C 39.249152 31.037829 56.026663 0
M  V30 8 O 38.177662 29.723090 54.177012 0
M  V30 9 C 43.858050 29.980894 66.938852 0 CFG=1
M  V30 10 O 42.444931 27.145259 58.650932 0
M  V30 11 C 37.645130 37.700534 60.694334 0
M  V30 12 N 41.264647 31.809834 64.042631 0
M  V30 13 N 42.838143 31.038453 67.062666 0
M  V30 14 C 36.559905 35.864672 59.617599 0
M  V30 15 C 42.678309 28.734190 68.872878 0
M  V30 16 C 39.828506 33.248255 62.405448 0 CFG=1
M  V30 17 N 41.110897 30.401387 64.085338 0
M  V30 18 C 38.264241 33.023196 56.863169 0
M  V30 19 C 41.859706 29.676390 65.110214 0 CFG=1
M  V30 20 C 37.321697 35.533372 60.867626 0
M  V30 21 C 40.975725 27.507545 63.999234 0
M  V30 22 C 38.826855 30.072043 52.967743 0 CFG=2
M  V30 23 C 41.207527 29.714800 61.665550 0
M  V30 24 C 38.753536 36.565251 62.696555 0
M  V30 25 C 40.427718 29.408592 51.062114 0
M  V30 26 C 38.920415 29.677909 55.377838 0 CFG=2
M  V30 27 C 40.463639 30.979741 61.195558 0
M  V30 28 C 38.245097 32.806612 58.381373 0
M  V30 29 O 44.055848 27.619228 67.270865 0
M  V30 30 C 42.058313 28.603432 63.998964 0
M  V30 31 C 37.904811 36.535984 61.431213 0
M  V30 32 C 43.413704 27.890949 63.960345 0
M  V30 33 C 38.781818 28.386621 57.579960 0
M  V30 34 C 41.586716 30.784779 67.810365 0
M  V30 35 C 40.275154 36.614840 62.426333 0
M  V30 36 C 41.095975 35.392053 62.892158 0
M  V30 37 O 36.846081 37.337712 59.594424 0
M  V30 38 N 40.808052 28.539858 59.583692 0
M  V30 39 S 40.362518 27.621310 57.114062 0
M  V30 40 C 41.358933 28.633020 60.864286 0
M  V30 41 C 40.044742 29.286714 52.540588 0
M  V30 42 C 41.370778 27.737684 58.587086 0
M  V30 43 C 41.373845 29.389231 68.447439 0
M  V30 44 C 40.988616 34.134603 61.997485 0
M  V30 45 O 38.044700 38.836025 60.955434 0
M  V30 46 C 41.902888 29.810336 63.037647 0 CFG=2
M  V30 47 C 39.581889 31.759602 62.170139 0 CFG=1
M  V30 48 C 38.058222 28.800070 56.301904 0
M  V30 49 H 39.255632 32.537774 64.261888 0
M  V30 50 H 39.245155 31.967933 51.958218 0
M  V30 51 H 40.114507 31.737754 53.443163 0
M  V30 52 H 38.394505 32.148278 53.485675 0
M  V30 53 H 39.724885 27.658143 50.596527 0
M  V30 54 H 43.611068 31.033885 65.034488 0
M  V30 55 H 39.714468 30.871730 56.992253 0
M  V30 56 H 39.999784 31.594975 55.478515 0
M  V30 57 H 44.896295 30.304841 66.962472 0
M  V30 58 H 41.439200 32.182188 64.974449 0
M  V30 59 H 35.496701 35.648772 59.710811 0
M  V30 60 H 43.167178 29.318624 69.651710 0
M  V30 61 H 42.506514 27.730797 69.263616 0
M  V30 62 H 38.904588 33.805116 62.444423 0
M  V30 63 H 39.191322 33.490271 56.536735 0
M  V30 64 H 37.459443 33.704132 56.589170 0
M  V30 65 H 41.135737 29.312769 65.827667 0
M  V30 66 H 37.358664 34.523240 61.237568 0
M  V30 67 H 41.370499 26.519476 63.767787 0
M  V30 68 H 40.180155 27.737694 63.290223 0
M  V30 69 H 40.502429 27.405505 64.976543 0
M  V30 70 H 38.078380 29.737753 52.252582 0
M  V30 71 H 38.499404 35.737652 63.348096 0
M  V30 72 H 38.465592 37.444533 63.271503 0
M  V30 73 H 41.476661 29.143158 50.967762 0
M  V30 74 H 40.334778 30.428490 50.689246 0
M  V30 75 H 39.856870 29.185523 55.135175 0
M  V30 76 H 41.239922 31.654575 60.841051 0
M  V30 77 H 39.849970 30.758125 60.324618 0
M  V30 78 H 38.457634 33.734942 58.907824 0
M  V30 79 H 38.991226 32.085662 58.701547 0
M  V30 80 H 37.270081 32.439221 58.704238 0
M  V30 81 H 36.970664 35.367208 58.741209 0
M  V30 82 H 43.513541 27.265559 63.074281 0
M  V30 83 H 43.547724 27.237088 64.819874 0
M  V30 84 H 44.246078 28.595068 63.950373 0
M  V30 85 H 38.185214 27.670855 58.146455 0
M  V30 86 H 38.897800 29.269852 58.203009 0
M  V30 87 H 41.606303 31.501812 68.630779 0
M  V30 88 H 40.720039 31.073560 67.214055 0
M  V30 89 H 40.486067 36.827675 61.378100 0
M  V30 90 H 40.658061 37.477917 62.967774 0
M  V30 91 H 42.137042 35.708963 62.911834 0
M  V30 92 H 40.857882 35.147348 63.928654 0
M  V30 93 H 39.986060 29.075779 59.356245 0
M  V30 94 H 41.950184 27.774024 61.142930 0
M  V30 95 H 40.845098 29.737790 53.103089 0
M  V30 96 H 39.927082 28.235172 52.803289 0
M  V30 97 H 40.845831 28.717551 67.772184 0
M  V30 98 H 40.720983 29.474760 69.314625 0
M  V30 99 H 41.916378 33.562682 62.042586 0
M  V30 100 H 40.846145 34.435873 60.964219 0
M  V30 101 H 42.852345 30.345399 62.943638 0
M  V30 102 H 38.545206 31.427360 62.141731 0
M  V30 103 H 37.142944 29.337946 56.550565 0
M  V30 104 H 37.759062 27.901064 55.762345 0
M  V30 END ATOM
M  V30 BEGIN BOND
M  V30 1 1 7 1
M  V30 2 1 9 2
M  V30 3 1 9 6
M  V30 4 1 12 3
M  V30 5 1 13 6
M  V30 6 1 13 9
M  V30 7 1 15 2
M  V30 8 1 16 3
M  V30 9 1 17 12
M  V30 10 1 18 1
M  V30 11 1 19 6
M  V30 12 1 19 17
M  V30 13 1 20 14
M  V30 14 1 22 4
M  V30 15 1 22 8
M  V30 16 1 25 5
M  V30 17 1 26 7
M  V30 18 1 26 8
M  V30 19 1 27 23
M  V30 20 1 28 18
M  V30 21 2 29 2
M  V30 22 1 30 19
M  V30 23 1 30 21
M  V30 24 1 31 11
M  V30 25 2 31 20
M  V30 26 1 31 24
M  V30 27 1 32 30
M  V30 28 1 34 13
M  V30 29 1 35 24
M  V30 30 1 36 35
M  V30 31 1 37 11
M  V30 32 1 37 14
M  V30 33 1 39 33
M  V30 34 2 40 23
M  V30 35 1 40 38
M  V30 36 1 41 22
M  V30 37 1 41 25
M  V30 38 2 42 10
M  V30 39 1 42 38
M  V30 40 1 42 39
M  V30 41 1 43 15
M  V30 42 1 43 34
M  V30 43 1 44 16
M  V30 44 1 44 36
M  V30 45 2 45 11
M  V30 46 1 46 17
M  V30 47 1 46 23
M  V30 48 1 46 30
M  V30 49 1 47 3
M  V30 50 1 47 16
M  V30 51 1 47 27
M  V30 52 1 48 26
M  V30 53 1 48 33
M  V30 54 1 3 49 CFG=1
M  V30 55 1 50 4
M  V30 56 1 51 4
M  V30 57 1 52 4
M  V30 58 1 53 5
M  V30 59 1 6 54 CFG=3
M  V30 60 1 55 7
M  V30 61 1 56 7
M  V30 62 1 9 57 CFG=3
M  V30 63 1 58 12
M  V30 64 1 59 14
M  V30 65 1 60 15
M  V30 66 1 61 15
M  V30 67 1 16 62 CFG=1
M  V30 68 1 63 18
M  V30 69 1 64 18
M  V30 70 1 19 65 CFG=1
M  V30 71 1 66 20
M  V30 72 1 67 21
M  V30 73 1 68 21
M  V30 74 1 69 21
M  V30 75 1 22 70 CFG=3
M  V30 76 1 71 24
M  V30 77 1 72 24
M  V30 78 1 73 25
M  V30 79 1 74 25
M  V30 80 1 26 75 CFG=3
M  V30 81 1 76 27
M  V30 82 1 77 27
M  V30 83 1 78 28
M  V30 84 1 79 28
M  V30 85 1 80 28
M  V30 86 1 81 14
M  V30 87 1 82 32
M  V30 88 1 83 32
M  V30 89 1 84 32
M  V30 90 1 85 33
M  V30 91 1 86 33
M  V30 92 1 87 34
M  V30 93 1 88 34
M  V30 94 1 89 35
M  V30 95 1 90 35
M  V30 96 1 91 36
M  V30 97 1 92 36
M  V30 98 1 93 38
M  V30 99 1 94 40
M  V30 100 1 95 41
M  V30 101 1 96 41
M  V30 102 1 97 43
M  V30 103 1 98 43
M  V30 104 1 99 44
M  V30 105 1 100 44
M  V30 106 1 46 101 CFG=3
M  V30 107 1 47 102 CFG=1
M  V30 108 1 103 48
M  V30 109 1 104 48
M  V30 END BOND
M  V30 END CTAB
M  END
>  <i_epik_Tot_Q>  (1) 
0

>  <i_epik_Tot_abs_Q>  (1) 
0

>  <i_i_glide_confnum>  (1) 
4101

>  <i_i_glide_lignum>  (1) 
183

>  <i_i_glide_posenum>  (1) 
365

>  <i_i_glide_rotatable_bonds>  (1) 
20

>  <i_lp_mmshare_version>  (1) 
72125

>  <i_m_source_file_index>  (1) 
79

>  <i_f3d_flags>  (1) 
0

>  <num_sample>  (1) 
100

>  <b_lp_Chiralities_Consistent>  (1) 
1

>  <r_epik_Charging_Adjusted_Penalty>  (1) 
0.92354502945683503

>  <r_epik_Ionization_Penalty>  (1) 
0.93156090309964268

>  <r_epik_Ionization_Penalty_Charging>  (1) 
0

>  <r_epik_Ionization_Penalty_Neutral>  (1) 
0.93156090309964268

>  <r_epik_State_Penalty>  (1) 
0.92354502945683503

>  <r_glide_ring_energy>  (1) 
0

>  <r_i_docking_score>  (1) 
-4.2892772810417572

>  <r_i_glide_ecoul>  (1) 
0.5821856834192457

>  <r_i_glide_eff_state_penalty>  (1) 
0.92354502945683503

>  <r_i_glide_einternal>  (1) 
32.463612253156569

>  <r_i_glide_emodel>  (1) 
-17.887953769666431

>  <r_i_glide_emodel_strain>  (1) 
5.8213045084241628

>  <r_i_glide_energy>  (1) 
-34.189680749564474

>  <r_i_glide_erotb>  (1) 
0.59596673808410561

>  <r_i_glide_esite>  (1) 
0

>  <r_i_glide_evdw>  (1) 
-34.771866432983721

>  <r_i_glide_gscore>  (1) 
-5.2128223104985922

>  <r_i_glide_gscore_strain>  (1) 
0.4553261271060407

>  <r_i_glide_hbond>  (1) 
-0.01894090840856379

>  <r_i_glide_ligand_efficiency>  (1) 
-0.089359943355036608

>  <r_i_glide_ligand_efficiency_ln>  (1) 
-0.88053793539559255

>  <r_i_glide_ligand_efficiency_sa>  (1) 
-0.32475558648950115

>  <r_i_glide_lipo>  (1) 
-3.4616767689413073

>  <r_i_glide_metal>  (1) 
-0

>  <r_i_glide_rewards>  (1) 
-1.1322320292025669

>  <r_lp_Energy>  (1) 
40.557254

>  <r_lp_tautomer_probability>  (1) 
0.99984117342658263

>  <s_epik_Chemistry_Notes>  (1) 
This compound has an ester and may undergo hydrolysis at high or low pH.

>  <s_epik_cmdline>  (1) 
J2VwaWtfcHl0aG9uJywgJy1waHQnLCAnMS4wJywgJy1waCcsICc3LjQnLCAnLXRuJywgJzgnLCAnLW1hJywgJzUwMCcsICctaW1hZScsICc8aW5maWxlLm1hZT4nLCAnLW9tYWUnLCAnPG91dGZpbGUubWFlPic=

>  <s_epik_input>  (1) 
W09IXVtDSDJdW0NIMl1bQ0BIXShbQ0gzXSlPW0NAQEhdKFtDSDJdT1tDSDJdW0NIM10pW0NIMl1bQ0gyXVNDKD1PKVtOSF0vW0NIXT1DKFtDQEhdMU4oW05IXTIpW0NAQEhdKEMxKFtDSDNdKVtDSDNdKVtDQEhdM04oW0NASF0zNClbQ0gyXVtDSDJdW0NIMl1DND1PKVxbQ0gyXVtDQEBIXShbQ0BASF0yNSlbQ0BASF01W0NIMl1bQ0gyXVtDSDJdW0NIMl1bQ0BASF0oQzY9TylbQ0hdPVtDSF1PNg==

>  <s_glide_docking_method>  (1) 
confgen

>  <s_i_glide_gridfile>  (1) 
gpcr_5ht2c_6bqh_protein_autoprepared_prepared

>  <s_lp_Force_Field>  (1) 
S-OPLS

>  <s_lp_Variant>  (1) 
DiffSBDD_78-5

>  <s_m_source_file>  (1) 
generated_GPCR_5HT2C_ligand_DiffSBDD_2026-06-23_prepared.sdf

>  <GenAI_Model>  (1) 
DiffSBDD

>  <Protein>  (1) 
GPCR_5HT2C

$$$$
DiffSBDD_14
     RDKit          3D

  0  0  0  0  0  0  0  0  0  0999 V3000
M  V30 BEGIN CTAB
M  V30 COUNTS 49 48 0 0 1
M  V30 BEGIN ATOM
M  V30 1 C 37.656732 26.834673 56.965684 0
M  V30 2 C 39.682071 28.607710 50.358323 0
M  V30 3 C 38.406614 27.972746 57.638477 0
M  V30 4 C 39.599078 27.102170 52.389749 0
M  V30 5 O 36.872366 31.737755 61.767545 0 CHG=-1
M  V30 6 N 37.245199 32.420709 58.567852 0 CHG=1
M  V30 7 C 37.960530 26.306443 55.761371 0
M  V30 8 C 37.238013 31.264557 59.469850 0 CFG=2
M  V30 9 C 40.730197 29.550382 50.921852 0
M  V30 10 C 37.201360 27.406535 53.237918 0
M  V30 11 C 38.697712 27.526221 53.572814 0 CFG=1
M  V30 12 C 37.705603 31.769531 60.837420 0
M  V30 13 C 40.104893 30.879883 51.322886 0
M  V30 14 O 38.883862 32.183795 60.921081 0
M  V30 15 C 38.150823 30.125267 58.955387 0
M  V30 16 O 37.245143 29.857334 56.717578 0
M  V30 17 C 39.587849 31.597197 50.076789 0
M  V30 18 C 39.186605 27.540206 51.004314 0
M  V30 19 C 39.112834 26.757315 54.862880 0
M  V30 20 C 37.493279 29.177144 57.934668 0 CFG=1
M  V30 21 H 36.816151 26.432989 57.514437 0
M  V30 22 H 39.320854 28.834035 49.367917 0
M  V30 23 H 39.286490 28.307632 57.095263 0
M  V30 24 H 38.780495 27.564981 58.577918 0
M  V30 25 H 40.623840 27.337755 52.567785 0
M  V30 26 H 39.645478 26.038127 52.306521 0
M  V30 27 H 36.840914 33.206529 59.054609 0
M  V30 28 H 38.194132 32.635247 58.300155 0
M  V30 29 H 37.351785 25.498311 55.380440 0
M  V30 30 H 36.209165 30.905349 59.553302 0
M  V30 31 H 41.245265 29.124168 51.767777 0
M  V30 32 H 41.490720 29.737832 50.166841 0
M  V30 33 H 36.939305 26.374797 53.005517 0
M  V30 34 H 36.580867 27.740996 54.069013 0
M  V30 35 H 36.927711 28.029888 52.385380 0
M  V30 36 H 38.876781 28.586314 53.757816 0
M  V30 37 H 39.315586 30.709683 52.056415 0
M  V30 38 H 40.845108 31.499454 51.822215 0
M  V30 39 H 38.452624 29.516027 59.811100 0
M  V30 40 H 39.081559 30.528398 58.552157 0
M  V30 41 H 36.464120 30.401459 56.793346 0
M  V30 42 H 39.091531 32.537739 50.282751 0
M  V30 43 H 40.399172 31.738402 49.367385 0
M  V30 44 H 38.845137 30.999985 49.587181 0
M  V30 45 H 38.443106 26.932908 50.522157 0
M  V30 46 H 39.877383 27.320027 55.391647 0
M  V30 47 H 39.616164 25.829490 54.590120 0
M  V30 48 H 36.536991 28.823910 58.325610 0
M  V30 49 H 36.667061 32.205194 57.755440 0
M  V30 END ATOM
M  V30 BEGIN BOND
M  V30 1 1 3 1
M  V30 2 2 7 1
M  V30 3 1 8 6
M  V30 4 1 9 2
M  V30 5 1 11 4
M  V30 6 1 11 10
M  V30 7 1 12 5
M  V30 8 1 12 8
M  V30 9 1 13 9
M  V30 10 2 14 12
M  V30 11 1 15 8
M  V30 12 1 17 13
M  V30 13 2 18 2
M  V30 14 1 18 4
M  V30 15 1 19 7
M  V30 16 1 19 11
M  V30 17 1 20 3
M  V30 18 1 20 15
M  V30 19 1 20 16
M  V30 20 1 21 1
M  V30 21 1 22 2
M  V30 22 1 23 3
M  V30 23 1 24 3
M  V30 24 1 25 4
M  V30 25 1 26 4
M  V30 26 1 27 6
M  V30 27 1 28 6
M  V30 28 1 29 7
M  V30 29 1 8 30 CFG=1
M  V30 30 1 31 9
M  V30 31 1 32 9
M  V30 32 1 33 10
M  V30 33 1 34 10
M  V30 34 1 35 10
M  V30 35 1 11 36 CFG=1
M  V30 36 1 37 13
M  V30 37 1 38 13
M  V30 38 1 39 15
M  V30 39 1 40 15
M  V30 40 1 41 16
M  V30 41 1 42 17
M  V30 42 1 43 17
M  V30 43 1 44 17
M  V30 44 1 45 18
M  V30 45 1 46 19
M  V30 46 1 47 19
M  V30 47 1 20 48 CFG=1
M  V30 48 1 49 6
M  V30 END BOND
M  V30 END CTAB
M  END
>  <i_epik_Tot_Q>  (1) 
0

>  <i_epik_Tot_abs_Q>  (1) 
2

>  <i_i_glide_confnum>  (1) 
293

>  <i_i_glide_lignum>  (1) 
29

>  <i_i_glide_posenum>  (1) 
44

>  <i_i_glide_rotatable_bonds>  (1) 
12

>  <i_lp_mmshare_version>  (1) 
72125

>  <i_m_source_file_index>  (1) 
15

>  <i_f3d_flags>  (1) 
0

>  <num_sample>  (1) 
100

>  <b_lp_Chiralities_Consistent>  (1) 
1

>  <r_epik_Charging_Adjusted_Penalty>  (1) 
0.00991281995240933

>  <r_epik_Ionization_Penalty>  (1) 
0.0049587358016132182

>  <r_epik_Ionization_Penalty_Charging>  (1) 
0.0049586922537287062

>  <r_epik_Ionization_Penalty_Neutral>  (1) 
4.3547884512074136e-08

>  <r_epik_State_Penalty>  (1) 
0.0049541276986806238

>  <r_glide_ring_energy>  (1) 
0

>  <r_i_docking_score>  (1) 
-4.282186080920499

>  <r_i_glide_ecoul>  (1) 
-11.071795859877236

>  <r_i_glide_eff_state_penalty>  (1) 
0.0049541276986806238

>  <r_i_glide_einternal>  (1) 
12.439655693879203

>  <r_i_glide_emodel>  (1) 
-31.8129838435473

>  <r_i_glide_emodel_strain>  (1) 
2.0979519863873364

>  <r_i_glide_energy>  (1) 
-28.472867997002233

>  <r_i_glide_erotb>  (1) 
4.0583376510001772

>  <r_i_glide_esite>  (1) 
-0.10000000000000001

>  <r_i_glide_evdw>  (1) 
-17.401072137124995

>  <r_i_glide_gscore>  (1) 
-4.2871402086191797

>  <r_i_glide_gscore_strain>  (1) 
0

>  <r_i_glide_hbond>  (1) 
-0.52000000000000002

>  <r_i_glide_ligand_efficiency>  (1) 
-0.21410930404602496

>  <r_i_glide_ligand_efficiency_ln>  (1) 
-1.0716899401049518

>  <r_i_glide_ligand_efficiency_sa>  (1) 
-0.58118206677940532

>  <r_i_glide_lipo>  (1) 
-3.0334651347316615

>  <r_i_glide_metal>  (1) 
-0

>  <r_i_glide_rewards>  (1) 
-2.1611897390498589

>  <r_lp_Energy>  (1) 
-3.7149109999999999

>  <s_epik_cmdline>  (1) 
J2VwaWtfcHl0aG9uJywgJy1waHQnLCAnMS4wJywgJy1waCcsICc3LjQnLCAnLXRuJywgJzgnLCAnLW1hJywgJzUwMCcsICctaW1hZScsICc8aW5maWxlLm1hZT4nLCAnLW9tYWUnLCAnPG91dGZpbGUubWFlPic=

>  <s_epik_input>  (1) 
W09IXUMoPU8pW0NAQEhdKFtOSDJdKVtDSDJdW0NAQEhdKFtPSF0pW0NIMl0vW0NIXT1bQ0hdXFtDSDJdW0NAQEhdKFtDSDNdKVtDSDJdL1tDSF09W0NIXVxbQ0gyXVtDSDJdW0NIM10=

>  <s_glide_docking_method>  (1) 
confgen

>  <s_i_glide_gridfile>  (1) 
gpcr_5ht2c_6bqh_protein_autoprepared_prepared

>  <s_lp_Force_Field>  (1) 
S-OPLS

>  <s_lp_Variant>  (1) 
DiffSBDD_14-7

>  <s_m_source_file>  (1) 
generated_GPCR_5HT2C_ligand_DiffSBDD_2026-06-23_prepared.sdf

>  <GenAI_Model>  (1) 
DiffSBDD

>  <Protein>  (1) 
GPCR_5HT2C

$$$$
DiffSBDD_93
     RDKit          3D

  0  0  0  0  0  0  0  0  0  0999 V3000
M  V30 BEGIN CTAB
M  V30 COUNTS 84 85 0 0 1
M  V30 BEGIN ATOM
M  V30 1 C 40.734676 26.876373 57.617946 0
M  V30 2 O 40.042807 25.649055 57.769018 0
M  V30 3 C 39.512046 27.085201 50.718440 0
M  V30 4 C 35.031361 33.194088 60.640486 0
M  V30 5 O 39.556634 27.812883 59.946039 0
M  V30 6 C 37.901574 35.321416 60.396827 0
M  V30 7 N 38.193075 36.067750 61.466854 0
M  V30 8 O 37.244932 35.758258 59.457195 0
M  V30 9 O 39.056188 25.207320 55.176788 0
M  V30 10 C 35.275575 32.241951 61.767738 0
M  V30 11 C 39.880396 27.314190 52.173559 0
M  V30 12 C 38.291094 29.573739 58.917697 0
M  V30 13 C 39.493622 28.708557 56.435291 0
M  V30 14 C 37.478855 32.774345 59.701501 0 CFG=2
M  V30 15 C 38.438997 33.853465 60.380183 0 CFG=2
M  V30 16 C 39.007999 29.337802 51.440974 0 CFG=1
M  V30 17 C 39.015909 28.933128 53.973938 0 CFG=1
M  V30 18 C 37.728160 29.760516 54.170538 0
M  V30 19 C 38.969358 30.934663 58.623100 0
M  V30 20 S 38.051430 26.561959 55.339410 0 CHG=1
M  V30 21 O 38.046515 32.707726 56.038173 0
M  V30 22 N 39.801568 28.003481 57.694703 0
M  V30 23 O 37.259993 26.498505 53.839081 0
M  V30 24 O 40.421013 28.973374 49.499965 0
M  V30 25 F 39.646417 31.337759 52.621426 0
M  V30 26 C 35.344365 33.736685 61.999200 0
M  V30 27 C 38.460091 33.142029 57.322600 0
M  V30 28 C 38.019382 32.124464 58.394622 0 CFG=2
M  V30 29 C 39.276461 28.385546 58.897565 0
M  V30 30 C 38.999440 33.421834 61.784212 0
M  V30 31 C 39.643852 31.545499 50.317006 0
M  V30 32 C 39.285435 27.905030 55.129320 0 CFG=2
M  V30 33 O 41.012171 32.232281 61.368319 0
M  V30 34 C 35.963859 33.104508 59.465973 0
M  V30 35 C 39.883164 30.622702 51.533877 0 CFG=2
M  V30 36 C 39.829723 32.141674 61.767878 0
M  V30 37 C 39.307385 28.497272 50.202999 0 CFG=1
M  V30 38 O 39.263262 31.096041 62.150225 0 CHG=-1
M  V30 39 N 38.984703 28.388853 52.583261 0 CFG=2 CHG=1
M  V30 40 H 41.315587 26.871559 56.696773 0
M  V30 41 H 41.485739 26.971048 58.405710 0
M  V30 42 H 40.438921 25.178099 58.491517 0
M  V30 43 H 40.274078 26.540379 50.167581 0
M  V30 44 H 38.572084 26.537781 50.633713 0
M  V30 45 H 33.994576 33.331773 60.340826 0
M  V30 46 H 38.736557 35.675764 62.221679 0
M  V30 47 H 37.863665 37.020003 61.518589 0
M  V30 48 H 39.352866 25.000637 56.057845 0
M  V30 49 H 34.445137 31.704701 62.200237 0
M  V30 50 H 36.216297 31.723843 61.892061 0
M  V30 51 H 40.868683 27.737789 52.167679 0
M  V30 52 H 39.840436 26.409965 52.781838 0
M  V30 53 H 37.429727 29.374921 58.279950 0
M  V30 54 H 37.870974 29.618385 59.923218 0
M  V30 55 H 40.293964 29.431191 56.273147 0
M  V30 56 H 38.580589 29.267831 56.549359 0
M  V30 57 H 37.483695 31.922144 60.363063 0
M  V30 58 H 39.328974 33.913220 59.751891 0
M  V30 59 H 37.992325 29.612760 51.335268 0
M  V30 60 H 39.868153 29.605751 54.036176 0
M  V30 61 H 37.673013 30.325798 55.094728 0
M  V30 62 H 37.644906 30.513200 53.397533 0
M  V30 63 H 36.845138 29.131449 54.109999 0
M  V30 64 H 39.629786 31.126486 59.453941 0
M  V30 65 H 39.622166 30.873991 57.759940 0
M  V30 66 H 37.089554 32.667198 56.041930 0
M  V30 67 H 36.445125 26.040684 53.995366 0
M  V30 68 H 40.175805 29.770370 49.051971 0
M  V30 69 H 36.298564 34.206074 62.162016 0
M  V30 70 H 34.549946 34.131824 62.609872 0
M  V30 71 H 37.980695 34.106018 57.483065 0
M  V30 72 H 39.536776 33.305508 57.355078 0
M  V30 73 H 37.210763 31.593044 57.926920 0
M  V30 74 H 39.649181 34.178476 62.220398 0
M  V30 75 H 38.194418 33.252603 62.493606 0
M  V30 76 H 38.980794 31.106180 49.585810 0
M  V30 77 H 39.134267 32.471478 50.567786 0
M  V30 78 H 40.578147 31.737476 49.796203 0
M  V30 79 H 40.225943 27.407511 54.912323 0
M  V30 80 H 35.793158 33.935193 58.785710 0
M  V30 81 H 35.528863 32.247311 58.968294 0
M  V30 82 H 40.933973 30.363893 51.602147 0
M  V30 83 H 38.469985 28.537278 49.532368 0
M  V30 84 H 38.078987 27.940556 52.529294 0
M  V30 END ATOM
M  V30 BEGIN BOND
M  V30 1 1 2 1
M  V30 2 1 7 6
M  V30 3 2 8 6
M  V30 4 1 10 4
M  V30 5 1 11 3
M  V30 6 1 15 6
M  V30 7 1 15 14
M  V30 8 1 18 17
M  V30 9 1 19 12
M  V30 10 1 20 9
M  V30 11 1 22 1
M  V30 12 1 22 13
M  V30 13 1 23 20
M  V30 14 1 26 4
M  V30 15 1 26 10
M  V30 16 1 27 21
M  V30 17 1 28 14
M  V30 18 1 28 19
M  V30 19 1 28 27
M  V30 20 2 29 5
M  V30 21 1 29 12
M  V30 22 1 29 22
M  V30 23 1 30 15
M  V30 24 1 32 13
M  V30 25 1 32 17
M  V30 26 1 32 20
M  V30 27 1 34 4
M  V30 28 1 34 14
M  V30 29 1 35 16
M  V30 30 1 35 25
M  V30 31 1 35 31
M  V30 32 1 36 30
M  V30 33 2 36 33
M  V30 34 1 37 3
M  V30 35 1 37 16
M  V30 36 1 37 24
M  V30 37 1 38 36
M  V30 38 1 39 11
M  V30 39 1 39 16
M  V30 40 1 39 17
M  V30 41 1 40 1
M  V30 42 1 41 1
M  V30 43 1 42 2
M  V30 44 1 43 3
M  V30 45 1 44 3
M  V30 46 1 45 4
M  V30 47 1 46 7
M  V30 48 1 47 7
M  V30 49 1 48 9
M  V30 50 1 49 10
M  V30 51 1 50 10
M  V30 52 1 51 11
M  V30 53 1 52 11
M  V30 54 1 53 12
M  V30 55 1 54 12
M  V30 56 1 55 13
M  V30 57 1 56 13
M  V30 58 1 14 57 CFG=1
M  V30 59 1 15 58 CFG=3
M  V30 60 1 16 59 CFG=3
M  V30 61 1 17 60 CFG=3
M  V30 62 1 61 18
M  V30 63 1 62 18
M  V30 64 1 63 18
M  V30 65 1 64 19
M  V30 66 1 65 19
M  V30 67 1 66 21
M  V30 68 1 67 23
M  V30 69 1 68 24
M  V30 70 1 69 26
M  V30 71 1 70 26
M  V30 72 1 71 27
M  V30 73 1 72 27
M  V30 74 1 28 73 CFG=3
M  V30 75 1 74 30
M  V30 76 1 75 30
M  V30 77 1 76 31
M  V30 78 1 77 31
M  V30 79 1 78 31
M  V30 80 1 32 79 CFG=3
M  V30 81 1 80 34
M  V30 82 1 81 34
M  V30 83 1 35 82 CFG=1
M  V30 84 1 37 83 CFG=3
M  V30 85 1 39 84 CFG=1
M  V30 END BOND
M  V30 END CTAB
M  END
>  <i_epik_Tot_Q>  (1) 
1

>  <i_epik_Tot_abs_Q>  (1) 
3

>  <i_i_glide_confnum>  (1) 
2402

>  <i_i_glide_lignum>  (1) 
223

>  <i_i_glide_posenum>  (1) 
21

>  <i_i_glide_rotatable_bonds>  (1) 
24

>  <i_lp_mmshare_version>  (1) 
72125

>  <i_m_source_file_index>  (1) 
94

>  <i_f3d_flags>  (1) 
0

>  <num_sample>  (1) 
100

>  <b_lp_Chiralities_Consistent>  (1) 
1

>  <r_epik_Charging_Adjusted_Penalty>  (1) 
0.90916677635763199

>  <r_epik_Ionization_Penalty>  (1) 
0.45507897092921873

>  <r_epik_Ionization_Penalty_Charging>  (1) 
0.45507471778648678

>  <r_epik_Ionization_Penalty_Neutral>  (1) 
4.2531427319391784e-06

>  <r_epik_State_Penalty>  (1) 
0.45409205857114521

>  <r_glide_ring_energy>  (1) 
0

>  <r_i_docking_score>  (1) 
-4.2763347519964006

>  <r_i_glide_ecoul>  (1) 
-3.93107805672292

>  <r_i_glide_eff_state_penalty>  (1) 
0.45409205857114521

>  <r_i_glide_einternal>  (1) 
7.5462698082328359

>  <r_i_glide_emodel>  (1) 
-22.121646082245817

>  <r_i_glide_emodel_strain>  (1) 
8.7804865712168549

>  <r_i_glide_energy>  (1) 
-16.966569083037346

>  <r_i_glide_erotb>  (1) 
0.82188833391367333

>  <r_i_glide_esite>  (1) 
0

>  <r_i_glide_evdw>  (1) 
-13.035491026314427

>  <r_i_glide_gscore>  (1) 
-4.730426810567546

>  <r_i_glide_gscore_strain>  (1) 
1.1951216428042137

>  <r_i_glide_hbond>  (1) 
-0.27748748605342843

>  <r_i_glide_ligand_efficiency>  (1) 
-0.10964960902554874

>  <r_i_glide_ligand_efficiency_ln>  (1) 
-0.91696756180877104

>  <r_i_glide_ligand_efficiency_sa>  (1) 
-0.37184500884947036

>  <r_i_glide_lipo>  (1) 
-2.7554469901738363

>  <r_i_glide_metal>  (1) 
-0

>  <r_i_glide_rewards>  (1) 
-2.4730660512340079

>  <r_lp_Energy>  (1) 
33.071545

>  <s_epik_Chemistry_Notes>  (1) 
This compound contains an acetal/aminal-like group ( X-CH(R)-Y where X, Y are N, S, or O) that may be acid/base labile, releasing an aldehyde.

>  <s_epik_cmdline>  (1) 
J2VwaWtfcHl0aG9uJywgJy1waHQnLCAnMS4wJywgJy1waCcsICc3LjQnLCAnLXRuJywgJzgnLCAnLW1hJywgJzUwMCcsICctaW1hZScsICc8aW5maWxlLm1hZT4nLCAnLW9tYWUnLCAnPG91dGZpbGUubWFlPic=

>  <s_epik_input>  (1) 
W0NIMl0xW0NIMl1bQ0hdMVtDSDJdW0NAQEhdKFtDQEBIXShDKD1PKVtOSDJdKVtDSDJdQyg9TylbT0hdKVtDQEBIXShbQ0gyXVtPSF0pW0NIMl1bQ0gyXUMoPU8pTihbQ0gyXVtPSF0pW0NIMl1bQ0BASF0oW1MrXShbT0hdKVtPSF0pW0NASF0oW0NIM10pTjJbQ0gyXVtDSDJdW0NASF0oW09IXSlbQ0BASF0yW0NASF0oRilbQ0gzXQ==

>  <s_glide_docking_method>  (1) 
confgen

>  <s_i_glide_gridfile>  (1) 
gpcr_5ht2c_6bqh_protein_autoprepared_prepared

>  <s_lp_Force_Field>  (1) 
S-OPLS

>  <s_lp_Variant>  (1) 
DiffSBDD_93-11

>  <s_m_source_file>  (1) 
generated_GPCR_5HT2C_ligand_DiffSBDD_2026-06-23_prepared.sdf

>  <GenAI_Model>  (1) 
DiffSBDD

>  <Protein>  (1) 
GPCR_5HT2C

$$$$
DiffSBDD_93
     RDKit          3D

  0  0  0  0  0  0  0  0  0  0999 V3000
M  V30 BEGIN CTAB
M  V30 COUNTS 84 85 0 0 1
M  V30 BEGIN ATOM
M  V30 1 C 39.753105 28.296107 61.157570 0
M  V30 2 O 39.694734 29.273533 62.168933 0
M  V30 3 C 39.083046 26.772081 53.979880 0
M  V30 4 C 40.727885 34.170507 61.788725 0
M  V30 5 O 37.615420 29.356536 59.767581 0
M  V30 6 C 36.835703 35.019312 61.485730 0
M  V30 7 N 36.847424 36.159881 62.171105 0
M  V30 8 O 36.091240 34.091552 61.767606 0
M  V30 9 O 43.393535 26.537774 58.967770 0
M  V30 10 C 41.171578 35.396431 61.025533 0
M  V30 11 C 39.573424 27.579197 55.182884 0
M  V30 12 C 38.888130 30.347811 58.004743 0
M  V30 13 C 41.157875 28.848267 59.157912 0
M  V30 14 C 38.661823 33.626852 60.158458 0 CFG=2
M  V30 15 C 37.804961 34.919206 60.306859 0 CFG=1
M  V30 16 C 38.698460 25.610464 56.080254 0 CFG=1
M  V30 17 C 40.098842 27.031840 57.577330 0 CFG=1
M  V30 18 C 40.031296 25.886805 58.567567 0
M  V30 19 C 38.507117 31.858116 58.201884 0
M  V30 20 S 42.911968 27.356438 57.579361 0 CHG=1
M  V30 21 O 36.068657 31.345816 60.853810 0
M  V30 22 N 39.834841 28.906898 59.825514 0
M  V30 23 O 43.917667 28.699419 57.367928 0
M  V30 24 O 37.260105 25.135215 54.167790 0
M  V30 25 F 37.330120 26.829128 57.767589 0
M  V30 26 C 40.572167 35.545777 62.400524 0
M  V30 27 C 36.432349 32.094431 59.703954 0
M  V30 28 C 37.970668 32.324431 59.604888 0 CFG=2
M  V30 29 C 38.726288 29.482172 59.272173 0
M  V30 30 C 37.100601 35.425369 59.037126 0
M  V30 31 C 36.444126 24.933157 57.066990 0
M  V30 32 C 41.251881 28.039337 57.828678 0 CFG=2
M  V30 33 O 35.781661 37.337230 58.567963 0
M  V30 34 C 39.530413 33.289389 61.423944 0
M  V30 35 C 37.331862 26.093079 56.667994 0 CFG=2
M  V30 36 C 36.819903 36.934963 59.113103 0
M  V30 37 C 38.586211 25.443628 54.579254 0 CFG=1
M  V30 38 O 37.644889 37.651107 59.717797 0 CHG=-1
M  V30 39 N 39.843728 26.553548 56.203216 0 CFG=2 CHG=1
M  V30 40 H 38.829830 27.738017 61.235133 0
M  V30 41 H 40.566875 27.607178 61.378841 0
M  V30 42 H 39.108970 28.963793 62.854432 0
M  V30 43 H 38.301261 27.317448 53.448784 0
M  V30 44 H 39.898796 26.583624 53.278588 0
M  V30 45 H 41.536528 33.584068 62.230905 0
M  V30 46 H 37.458823 36.910827 61.879033 0
M  V30 47 H 36.228369 36.281559 62.957430 0
M  V30 48 H 43.607720 27.170503 59.651997 0
M  V30 49 H 42.238577 35.544698 60.932295 0
M  V30 50 H 40.595591 35.740742 60.171990 0
M  V30 51 H 38.778778 28.236514 55.532976 0
M  V30 52 H 40.434466 28.204487 54.971858 0
M  V30 53 H 39.859298 30.300333 57.530932 0
M  V30 54 H 38.195697 29.932098 57.272102 0
M  V30 55 H 41.833612 28.371760 59.864619 0
M  V30 56 H 41.598042 29.820165 59.028589 0
M  V30 57 H 39.397587 33.905346 59.407039 0
M  V30 58 H 38.557750 35.657596 60.533903 0
M  V30 59 H 38.974879 24.649620 56.520512 0
M  V30 60 H 39.253014 27.655101 57.719455 0
M  V30 61 H 40.045084 26.330904 59.545206 0
M  V30 62 H 39.094776 25.338833 58.565791 0
M  V30 63 H 40.843954 25.179638 58.442582 0
M  V30 64 H 39.367942 32.452630 57.903584 0
M  V30 65 H 37.775117 32.130930 57.439196 0
M  V30 66 H 36.399098 30.466738 60.698342 0
M  V30 67 H 43.803480 29.254652 58.122270 0
M  V30 68 H 37.217780 25.130883 53.222708 0
M  V30 69 H 39.570071 35.958381 62.486858 0
M  V30 70 H 41.243898 35.804266 63.220258 0
M  V30 71 H 35.828128 32.986808 59.593334 0
M  V30 72 H 36.121101 31.442202 58.896384 0
M  V30 73 H 38.331122 31.625494 60.335847 0
M  V30 74 H 37.644792 35.165957 58.132351 0
M  V30 75 H 36.127012 34.954080 58.913065 0
M  V30 76 H 36.200073 24.269420 56.238208 0
M  V30 77 H 36.900793 24.329621 57.850427 0
M  V30 78 H 35.513800 25.337781 57.457046 0
M  V30 79 H 41.181476 28.753056 57.015819 0
M  V30 80 H 38.896682 33.170865 62.302206 0
M  V30 81 H 39.994787 32.314188 61.277151 0
M  V30 82 H 36.845648 26.715152 55.932507 0
M  V30 83 H 39.306676 24.648713 54.397607 0
M  V30 84 H 40.656187 26.036802 55.898386 0
M  V30 END ATOM
M  V30 BEGIN BOND
M  V30 1 1 2 1
M  V30 2 1 7 6
M  V30 3 2 8 6
M  V30 4 1 10 4
M  V30 5 1 11 3
M  V30 6 1 15 6
M  V30 7 1 15 14
M  V30 8 1 18 17
M  V30 9 1 19 12
M  V30 10 1 20 9
M  V30 11 1 22 1
M  V30 12 1 22 13
M  V30 13 1 23 20
M  V30 14 1 26 4
M  V30 15 1 26 10
M  V30 16 1 27 21
M  V30 17 1 28 14
M  V30 18 1 28 19
M  V30 19 1 28 27
M  V30 20 2 29 5
M  V30 21 1 29 12
M  V30 22 1 29 22
M  V30 23 1 30 15
M  V30 24 1 32 13
M  V30 25 1 32 17
M  V30 26 1 32 20
M  V30 27 1 34 4
M  V30 28 1 34 14
M  V30 29 1 35 16
M  V30 30 1 35 25
M  V30 31 1 35 31
M  V30 32 1 36 30
M  V30 33 2 36 33
M  V30 34 1 37 3
M  V30 35 1 37 16
M  V30 36 1 37 24
M  V30 37 1 38 36
M  V30 38 1 39 11
M  V30 39 1 39 16
M  V30 40 1 39 17
M  V30 41 1 40 1
M  V30 42 1 41 1
M  V30 43 1 42 2
M  V30 44 1 43 3
M  V30 45 1 44 3
M  V30 46 1 45 4
M  V30 47 1 46 7
M  V30 48 1 47 7
M  V30 49 1 48 9
M  V30 50 1 49 10
M  V30 51 1 50 10
M  V30 52 1 51 11
M  V30 53 1 52 11
M  V30 54 1 53 12
M  V30 55 1 54 12
M  V30 56 1 55 13
M  V30 57 1 56 13
M  V30 58 1 14 57 CFG=3
M  V30 59 1 15 58 CFG=1
M  V30 60 1 16 59 CFG=1
M  V30 61 1 17 60 CFG=1
M  V30 62 1 61 18
M  V30 63 1 62 18
M  V30 64 1 63 18
M  V30 65 1 64 19
M  V30 66 1 65 19
M  V30 67 1 66 21
M  V30 68 1 67 23
M  V30 69 1 68 24
M  V30 70 1 69 26
M  V30 71 1 70 26
M  V30 72 1 71 27
M  V30 73 1 72 27
M  V30 74 1 28 73 CFG=1
M  V30 75 1 74 30
M  V30 76 1 75 30
M  V30 77 1 76 31
M  V30 78 1 77 31
M  V30 79 1 78 31
M  V30 80 1 32 79 CFG=3
M  V30 81 1 80 34
M  V30 82 1 81 34
M  V30 83 1 35 82 CFG=3
M  V30 84 1 37 83 CFG=3
M  V30 85 1 39 84 CFG=3
M  V30 END BOND
M  V30 END CTAB
M  END
>  <i_epik_Tot_Q>  (1) 
1

>  <i_epik_Tot_abs_Q>  (1) 
3

>  <i_i_glide_confnum>  (1) 
1532

>  <i_i_glide_lignum>  (1) 
223

>  <i_i_glide_posenum>  (1) 
180

>  <i_i_glide_rotatable_bonds>  (1) 
24

>  <i_lp_mmshare_version>  (1) 
72125

>  <i_m_source_file_index>  (1) 
94

>  <i_f3d_flags>  (1) 
0

>  <num_sample>  (1) 
100

>  <b_lp_Chiralities_Consistent>  (1) 
1

>  <r_epik_Charging_Adjusted_Penalty>  (1) 
0.90916677635763199

>  <r_epik_Ionization_Penalty>  (1) 
0.45507897092921873

>  <r_epik_Ionization_Penalty_Charging>  (1) 
0.45507471778648678

>  <r_epik_Ionization_Penalty_Neutral>  (1) 
4.2531427319391784e-06

>  <r_epik_State_Penalty>  (1) 
0.45409205857114521

>  <r_glide_ring_energy>  (1) 
0

>  <r_i_docking_score>  (1) 
-4.2698298766422038

>  <r_i_glide_ecoul>  (1) 
-16.329749111799476

>  <r_i_glide_eff_state_penalty>  (1) 
0.45409205857114521

>  <r_i_glide_einternal>  (1) 
13.611670782902777

>  <r_i_glide_emodel>  (1) 
-17.298064974328831

>  <r_i_glide_emodel_strain>  (1) 
14.157270208723077

>  <r_i_glide_energy>  (1) 
-20.576823576239466

>  <r_i_glide_erotb>  (1) 
0.82188833391367333

>  <r_i_glide_esite>  (1) 
-0.0080912364695048776

>  <r_i_glide_evdw>  (1) 
-4.24707446443999

>  <r_i_glide_gscore>  (1) 
-4.7239219352133492

>  <r_i_glide_gscore_strain>  (1) 
2.5393175521807692

>  <r_i_glide_hbond>  (1) 
-0.79357353507661232

>  <r_i_glide_ligand_efficiency>  (1) 
-0.1094828173498001

>  <r_i_glide_ligand_efficiency_ln>  (1) 
-0.91557273188096355

>  <r_i_glide_ligand_efficiency_sa>  (1) 
-0.37127938301007207

>  <r_i_glide_lipo>  (1) 
-3.3141567933564327

>  <r_i_glide_metal>  (1) 
-0

>  <r_i_glide_rewards>  (1) 
-1.3074901664133198

>  <r_lp_Energy>  (1) 
33.071545

>  <s_epik_Chemistry_Notes>  (1) 
This compound contains an acetal/aminal-like group ( X-CH(R)-Y where X, Y are N, S, or O) that may be acid/base labile, releasing an aldehyde.

>  <s_epik_cmdline>  (1) 
J2VwaWtfcHl0aG9uJywgJy1waHQnLCAnMS4wJywgJy1waCcsICc3LjQnLCAnLXRuJywgJzgnLCAnLW1hJywgJzUwMCcsICctaW1hZScsICc8aW5maWxlLm1hZT4nLCAnLW9tYWUnLCAnPG91dGZpbGUubWFlPic=

>  <s_epik_input>  (1) 
W0NIMl0xW0NIMl1bQ0hdMVtDSDJdW0NAQEhdKFtDQEBIXShDKD1PKVtOSDJdKVtDSDJdQyg9TylbT0hdKVtDQEBIXShbQ0gyXVtPSF0pW0NIMl1bQ0gyXUMoPU8pTihbQ0gyXVtPSF0pW0NIMl1bQ0BASF0oW1MrXShbT0hdKVtPSF0pW0NASF0oW0NIM10pTjJbQ0gyXVtDSDJdW0NASF0oW09IXSlbQ0BASF0yW0NASF0oRilbQ0gzXQ==

>  <s_glide_docking_method>  (1) 
confgen

>  <s_i_glide_gridfile>  (1) 
gpcr_5ht2c_6bqh_protein_autoprepared_prepared

>  <s_lp_Force_Field>  (1) 
S-OPLS

>  <s_lp_Variant>  (1) 
DiffSBDD_93-11

>  <s_m_source_file>  (1) 
generated_GPCR_5HT2C_ligand_DiffSBDD_2026-06-23_prepared.sdf

>  <GenAI_Model>  (1) 
DiffSBDD

>  <Protein>  (1) 
GPCR_5HT2C

$$$$
DiffSBDD_58
     RDKit          3D

  0  0  0  0  0  0  0  0  0  0999 V3000
M  V30 BEGIN CTAB
M  V30 COUNTS 76 76 0 0 1
M  V30 BEGIN ATOM
M  V30 1 C 40.207652 34.144988 61.057829 0
M  V30 2 C 39.481856 31.483156 61.117328 0 CFG=1
M  V30 3 C 39.666493 30.528474 55.537018 0
M  V30 4 C 36.974739 30.972225 60.461583 0 CFG=1
M  V30 5 C 36.862376 35.261330 62.166727 0
M  V30 6 C 39.628791 25.823351 57.308520 0
M  V30 7 O 40.844981 36.787021 62.967735 0
M  V30 8 C 37.472251 30.342974 56.752282 0
M  V30 9 N 38.974106 25.815415 56.125677 0
M  V30 10 C 38.642868 37.094820 61.960777 0 CFG=2
M  V30 11 C 37.544547 37.416219 59.516808 0
M  V30 12 C 40.162778 31.245791 63.611968 0
M  V30 13 C 39.924390 29.184362 62.132994 0
M  V30 14 C 40.164561 37.341626 61.857396 0
M  V30 15 N 39.567346 28.238821 57.578937 0
M  V30 16 C 38.485024 29.612408 55.856362 0 CFG=2
M  V30 17 N 37.948937 30.642434 58.132032 0 CHG=1
M  V30 18 O 35.697820 31.318799 60.967997 0
M  V30 19 C 39.919015 27.008563 58.019743 0
M  V30 20 C 40.268648 32.710582 60.567761 0
M  V30 21 O 36.749473 36.258611 59.367754 0
M  V30 22 C 36.960291 31.371886 58.967755 0 CFG=2
M  V30 23 C 40.272409 30.683646 62.187092 0
M  V30 24 O 38.166232 39.295202 60.904796 0
M  V30 25 C 38.216943 35.632664 61.839987 0
M  V30 26 C 36.045140 36.053702 62.874022 0
M  V30 27 C 37.757906 37.943438 60.966303 0 CFG=2
M  V30 28 C 38.615884 27.037681 55.674442 0
M  V30 29 C 37.974931 31.647861 61.419634 0
M  V30 30 C 38.907420 28.236794 56.393719 0
M  V30 31 N 37.937317 27.079872 54.455847 0
M  V30 32 C 39.105852 34.757034 61.420009 0
M  V30 33 C 37.011505 32.901572 58.744950 0
M  V30 34 H 41.149737 34.672637 61.072186 0
M  V30 35 H 39.519962 30.808240 60.263403 0
M  V30 36 H 40.462002 30.002013 55.007291 0
M  V30 37 H 39.353599 31.370000 54.917354 0
M  V30 38 H 40.047650 30.946278 56.462418 0
M  V30 39 H 37.079664 29.892576 60.534845 0
M  V30 40 H 36.489866 34.304569 61.842311 0
M  V30 41 H 39.929404 24.861800 57.698140 0
M  V30 42 H 41.053125 37.466577 63.603352 0
M  V30 43 H 36.552351 29.757573 56.800286 0
M  V30 44 H 37.248415 31.285096 56.253123 0
M  V30 45 H 38.397416 37.422550 62.970271 0
M  V30 46 H 38.445128 37.337732 58.939566 0
M  V30 47 H 36.982243 38.137747 58.967863 0
M  V30 48 H 39.245197 30.923314 64.098288 0
M  V30 49 H 40.987288 30.885963 64.228402 0
M  V30 50 H 40.195803 32.335490 63.621915 0
M  V30 51 H 38.846690 29.024575 62.174938 0
M  V30 52 H 40.275390 28.733106 61.203836 0
M  V30 53 H 40.383979 28.634558 62.956446 0
M  V30 54 H 40.624012 36.923106 60.967771 0
M  V30 55 H 40.323012 38.408595 61.810756 0
M  V30 56 H 37.976094 29.485922 54.903619 0
M  V30 57 H 38.796299 31.185605 58.077654 0
M  V30 58 H 35.507627 32.216071 60.731207 0
M  V30 59 H 40.442881 26.967418 58.963316 0
M  V30 60 H 40.023934 32.884516 59.524291 0
M  V30 61 H 41.323590 32.444546 60.568710 0
M  V30 62 H 36.549329 36.136585 58.445706 0
M  V30 63 H 36.007858 30.976390 58.619826 0
M  V30 64 H 41.328940 30.740823 61.931102 0
M  V30 65 H 37.456193 39.777510 60.502968 0
M  V30 66 H 35.046274 35.737876 63.097699 0
M  V30 67 H 36.358086 37.017172 63.238753 0
M  V30 68 H 36.754709 38.028941 61.377219 0
M  V30 69 H 37.769426 31.261066 62.416551 0
M  V30 70 H 37.712023 32.684038 61.494285 0
M  V30 71 H 37.655579 27.952577 54.034760 0
M  V30 72 H 37.741480 26.236403 53.934173 0
M  V30 73 H 36.182399 33.398708 59.247760 0
M  V30 74 H 37.928374 33.343985 59.119068 0
M  V30 75 H 36.941930 33.174992 57.694046 0
M  V30 76 H 38.163794 29.754331 58.563251 0
M  V30 END ATOM
M  V30 BEGIN BOND
M  V30 1 1 9 6
M  V30 2 1 14 7
M  V30 3 1 14 10
M  V30 4 1 16 3
M  V30 5 1 16 8
M  V30 6 1 17 8
M  V30 7 1 18 4
M  V30 8 2 19 6
M  V30 9 1 19 15
M  V30 10 1 20 1
M  V30 11 1 20 2
M  V30 12 1 21 11
M  V30 13 1 22 4
M  V30 14 1 22 17
M  V30 15 1 23 2
M  V30 16 1 23 12
M  V30 17 1 23 13
M  V30 18 1 25 5
M  V30 19 1 25 10
M  V30 20 2 26 5
M  V30 21 1 27 10
M  V30 22 1 27 11
M  V30 23 1 27 24
M  V30 24 2 28 9
M  V30 25 1 29 2
M  V30 26 1 29 4
M  V30 27 2 30 15
M  V30 28 1 30 16
M  V30 29 1 30 28
M  V30 30 1 31 28
M  V30 31 2 32 1
M  V30 32 2 32 25
M  V30 33 1 33 22
M  V30 34 1 34 1
M  V30 35 1 2 35 CFG=3
M  V30 36 1 36 3
M  V30 37 1 37 3
M  V30 38 1 38 3
M  V30 39 1 4 39 CFG=3
M  V30 40 1 40 5
M  V30 41 1 41 6
M  V30 42 1 42 7
M  V30 43 1 43 8
M  V30 44 1 44 8
M  V30 45 1 10 45 CFG=1
M  V30 46 1 46 11
M  V30 47 1 47 11
M  V30 48 1 48 12
M  V30 49 1 49 12
M  V30 50 1 50 12
M  V30 51 1 51 13
M  V30 52 1 52 13
M  V30 53 1 53 13
M  V30 54 1 54 14
M  V30 55 1 55 14
M  V30 56 1 16 56 CFG=3
M  V30 57 1 57 17
M  V30 58 1 58 18
M  V30 59 1 59 19
M  V30 60 1 60 20
M  V30 61 1 61 20
M  V30 62 1 62 21
M  V30 63 1 22 63 CFG=3
M  V30 64 1 64 23
M  V30 65 1 65 24
M  V30 66 1 66 26
M  V30 67 1 67 26
M  V30 68 1 27 68 CFG=1
M  V30 69 1 69 29
M  V30 70 1 70 29
M  V30 71 1 71 31
M  V30 72 1 72 31
M  V30 73 1 73 33
M  V30 74 1 74 33
M  V30 75 1 75 33
M  V30 76 1 76 17
M  V30 END BOND
M  V30 END CTAB
M  END
>  <i_epik_Tot_Q>  (1) 
1

>  <i_epik_Tot_abs_Q>  (1) 
1

>  <i_i_glide_confnum>  (1) 
7881

>  <i_i_glide_lignum>  (1) 
129

>  <i_i_glide_posenum>  (1) 
372

>  <i_i_glide_rotatable_bonds>  (1) 
19

>  <i_lp_mmshare_version>  (1) 
72125

>  <i_m_source_file_index>  (1) 
59

>  <i_f3d_flags>  (1) 
0

>  <num_sample>  (1) 
100

>  <b_lp_Chiralities_Consistent>  (1) 
1

>  <r_epik_Charging_Adjusted_Penalty>  (1) 
0.031800499123457865

>  <r_epik_Ionization_Penalty>  (1) 
0.015929061655920795

>  <r_epik_Ionization_Penalty_Charging>  (1) 
0.015900249561728946

>  <r_epik_Ionization_Penalty_Neutral>  (1) 
2.8812094191846713e-05

>  <r_epik_State_Penalty>  (1) 
0.015900249561728919

>  <r_glide_ring_energy>  (1) 
0

>  <r_i_docking_score>  (1) 
-4.2593482498846491

>  <r_i_glide_ecoul>  (1) 
-11.186925454073782

>  <r_i_glide_eff_state_penalty>  (1) 
0.015900249561728919

>  <r_i_glide_einternal>  (1) 
15.27202846238054

>  <r_i_glide_emodel>  (1) 
-28.357077105580657

>  <r_i_glide_emodel_strain>  (1) 
11.675619082514089

>  <r_i_glide_energy>  (1) 
-33.263832701888347

>  <r_i_glide_erotb>  (1) 
1.3125063474323406

>  <r_i_glide_esite>  (1) 
-0.075459555792773178

>  <r_i_glide_evdw>  (1) 
-22.076907247814567

>  <r_i_glide_gscore>  (1) 
-4.275248499446378

>  <r_i_glide_gscore_strain>  (1) 
1.9189047706285223

>  <r_i_glide_hbond>  (1) 
-0.84667624060837587

>  <r_i_glide_ligand_efficiency>  (1) 
-0.12907115908741362

>  <r_i_glide_ligand_efficiency_ln>  (1) 
-0.94725699704939803

>  <r_i_glide_ligand_efficiency_sa>  (1) 
-0.41400017378523196

>  <r_i_glide_lipo>  (1) 
-3.0206189903225558

>  <r_i_glide_metal>  (1) 
-0

>  <r_i_glide_rewards>  (1) 
-0.78202065028174061

>  <r_lp_Energy>  (1) 
16.863154999999999

>  <r_lp_tautomer_probability>  (1) 
0.99999990128000804

>  <s_epik_cmdline>  (1) 
J2VwaWtfcHl0aG9uJywgJy1waHQnLCAnMS4wJywgJy1waCcsICc3LjQnLCAnLXRuJywgJzgnLCAnLW1hJywgJzUwMCcsICctaW1hZScsICc8aW5maWxlLm1hZT4nLCAnLW9tYWUnLCAnPG91dGZpbGUubWFlPic=

>  <s_epik_input>  (1) 
W09IXVtDSDJdW0NASF0oW09IXSlbQ0BIXShbQ0gyXVtPSF0pQyhbQ0hdPVtDSDJdKT1DPVtDSF1bQ0gyXVtDQEBIXShbQ0hdKFtDSDNdKVtDSDNdKVtDSDJdW0NAQEhdKFtPSF0pW0NAQEhdKFtDSDNdKVtOSF1bQ0gyXVtDQEBIXShbQ0gzXSljMW5bY0hdW2NIXW5jMVtOSDJd

>  <s_glide_docking_method>  (1) 
confgen

>  <s_i_glide_gridfile>  (1) 
gpcr_5ht2c_6bqh_protein_autoprepared_prepared

>  <s_lp_Force_Field>  (1) 
S-OPLS

>  <s_lp_Variant>  (1) 
DiffSBDD_58-1

>  <s_m_source_file>  (1) 
generated_GPCR_5HT2C_ligand_DiffSBDD_2026-06-23_prepared.sdf

>  <GenAI_Model>  (1) 
DiffSBDD

>  <Protein>  (1) 
GPCR_5HT2C

$$$$
DiffSBDD_93
     RDKit          3D

  0  0  0  0  0  0  0  0  0  0999 V3000
M  V30 BEGIN CTAB
M  V30 COUNTS 84 85 0 0 1
M  V30 BEGIN ATOM
M  V30 1 C 39.943468 31.078351 61.544807 0
M  V30 2 O 38.819320 30.541341 62.201018 0
M  V30 3 C 38.319404 26.199091 57.876648 0
M  V30 4 C 34.855263 37.154882 63.397498 0
M  V30 5 O 40.222962 33.741823 62.237902 0
M  V30 6 C 39.348392 37.190859 62.778322 0
M  V30 7 N 40.583518 36.937130 62.339809 0
M  V30 8 O 39.081195 37.219387 63.975317 0
M  V30 9 O 35.849185 29.413304 58.569257 0
M  V30 10 C 34.366270 38.076623 64.472655 0
M  V30 11 C 38.768314 27.564862 58.417493 0
M  V30 12 C 39.451052 34.602509 60.152835 0
M  V30 13 C 38.927735 31.940223 59.370604 0
M  V30 14 C 36.944754 36.576716 61.872760 0 CFG=1
M  V30 15 C 38.237707 37.414832 61.697235 0 CFG=1
M  V30 16 C 38.134981 27.929166 56.148154 0 CFG=1
M  V30 17 C 38.631043 29.995517 57.647150 0 CFG=1
M  V30 18 C 38.100718 30.916387 56.523969 0
M  V30 19 C 37.959346 35.031965 60.073818 0
M  V30 20 S 36.611386 30.389906 59.708286 0 CHG=1
M  V30 21 O 35.245591 34.138344 62.374430 0
M  V30 22 N 39.561225 32.216526 60.697493 0
M  V30 23 O 35.799164 31.836783 59.367313 0
M  V30 24 O 37.923173 25.507104 55.537710 0
M  V30 25 F 39.125757 27.599957 54.070970 0
M  V30 26 C 34.264601 38.478243 63.013247 0
M  V30 27 C 35.946403 34.317490 61.212939 0
M  V30 28 C 37.200246 35.129621 61.411149 0 CFG=2
M  V30 29 C 39.767500 33.479424 61.124851 0
M  V30 30 C 37.637887 38.766647 61.281843 0
M  V30 31 C 40.606081 27.152344 55.791821 0
M  V30 32 C 38.347993 30.535640 59.089166 0 CFG=2
M  V30 33 O 37.996014 40.936138 60.567649 0
M  V30 34 C 36.324955 36.846922 63.300930 0
M  V30 35 C 39.435254 28.006180 55.308299 0 CFG=2
M  V30 36 C 38.538526 39.904618 60.966467 0
M  V30 37 C 37.667020 26.500105 56.510385 0 CFG=1
M  V30 38 O 39.752113 39.737708 61.141115 0 CHG=-1
M  V30 39 N 38.199653 28.567983 57.486773 0 CFG=2 CHG=1
M  V30 40 H 40.496260 30.338158 60.969027 0
M  V30 41 H 40.657918 31.359177 62.324052 0
M  V30 42 H 39.107871 30.026108 62.951867 0
M  V30 43 H 39.176655 25.532125 57.811212 0
M  V30 44 H 37.633308 25.695949 58.560429 0
M  V30 45 H 34.228877 36.279256 63.367786 0
M  V30 46 H 40.781127 36.946234 61.350625 0
M  V30 47 H 41.330667 36.804532 63.008169 0
M  V30 48 H 35.530152 30.000600 57.876992 0
M  V30 49 H 33.461193 37.775498 64.996613 0
M  V30 50 H 35.116739 38.550610 65.097897 0
M  V30 51 H 39.856434 27.642876 58.431243 0
M  V30 52 H 38.420460 27.704275 59.442156 0
M  V30 53 H 40.110612 35.432427 60.351391 0
M  V30 54 H 39.805986 34.278141 59.180042 0
M  V30 55 H 39.525482 32.322191 58.549446 0
M  V30 56 H 38.085525 32.580108 59.255643 0
M  V30 57 H 36.199161 36.947708 61.158918 0
M  V30 58 H 38.779539 37.181887 60.801142 0
M  V30 59 H 37.367958 28.418227 55.546367 0
M  V30 60 H 39.716692 29.993337 57.554749 0
M  V30 61 H 38.136414 31.976343 56.781285 0
M  V30 62 H 38.706162 30.817561 55.628126 0
M  V30 63 H 37.082987 30.677012 56.231201 0
M  V30 64 H 37.847401 35.959893 59.513476 0
M  V30 65 H 37.413805 34.399818 59.388205 0
M  V30 66 H 35.148879 34.961251 62.826533 0
M  V30 67 H 35.645012 31.890646 58.404116 0
M  V30 68 H 38.011109 25.923447 54.688449 0
M  V30 69 H 34.938590 39.250749 62.659095 0
M  V30 70 H 33.268012 38.491637 62.574439 0
M  V30 71 H 35.307562 34.661676 60.397319 0
M  V30 72 H 36.285702 33.325801 60.998668 0
M  V30 73 H 37.779308 34.647067 62.166545 0
M  V30 74 H 37.167776 38.597663 60.309616 0
M  V30 75 H 36.852267 39.113798 61.962270 0
M  V30 76 H 41.275926 27.691276 56.464184 0
M  V30 77 H 40.344774 26.201804 56.231804 0
M  V30 78 H 41.144746 26.844420 54.909642 0
M  V30 79 H 38.879247 29.830324 59.711442 0
M  V30 80 H 36.496626 36.061677 64.020384 0
M  V30 81 H 36.790901 37.724315 63.747181 0
M  V30 82 H 39.791709 29.027775 55.175020 0
M  V30 83 H 36.589116 26.526901 56.664027 0
M  V30 84 H 37.214338 28.598711 57.745323 0
M  V30 END ATOM
M  V30 BEGIN BOND
M  V30 1 1 2 1
M  V30 2 1 7 6
M  V30 3 2 8 6
M  V30 4 1 10 4
M  V30 5 1 11 3
M  V30 6 1 15 6
M  V30 7 1 15 14
M  V30 8 1 18 17
M  V30 9 1 19 12
M  V30 10 1 20 9
M  V30 11 1 22 1
M  V30 12 1 22 13
M  V30 13 1 23 20
M  V30 14 1 26 4
M  V30 15 1 26 10
M  V30 16 1 27 21
M  V30 17 1 28 14
M  V30 18 1 28 19
M  V30 19 1 28 27
M  V30 20 2 29 5
M  V30 21 1 29 12
M  V30 22 1 29 22
M  V30 23 1 30 15
M  V30 24 1 32 13
M  V30 25 1 32 17
M  V30 26 1 32 20
M  V30 27 1 34 4
M  V30 28 1 34 14
M  V30 29 1 35 16
M  V30 30 1 35 25
M  V30 31 1 35 31
M  V30 32 1 36 30
M  V30 33 2 36 33
M  V30 34 1 37 3
M  V30 35 1 37 16
M  V30 36 1 37 24
M  V30 37 1 38 36
M  V30 38 1 39 11
M  V30 39 1 39 16
M  V30 40 1 39 17
M  V30 41 1 40 1
M  V30 42 1 41 1
M  V30 43 1 42 2
M  V30 44 1 43 3
M  V30 45 1 44 3
M  V30 46 1 45 4
M  V30 47 1 46 7
M  V30 48 1 47 7
M  V30 49 1 48 9
M  V30 50 1 49 10
M  V30 51 1 50 10
M  V30 52 1 51 11
M  V30 53 1 52 11
M  V30 54 1 53 12
M  V30 55 1 54 12
M  V30 56 1 55 13
M  V30 57 1 56 13
M  V30 58 1 14 57 CFG=3
M  V30 59 1 15 58 CFG=3
M  V30 60 1 16 59 CFG=3
M  V30 61 1 17 60 CFG=3
M  V30 62 1 61 18
M  V30 63 1 62 18
M  V30 64 1 63 18
M  V30 65 1 64 19
M  V30 66 1 65 19
M  V30 67 1 66 21
M  V30 68 1 67 23
M  V30 69 1 68 24
M  V30 70 1 69 26
M  V30 71 1 70 26
M  V30 72 1 71 27
M  V30 73 1 72 27
M  V30 74 1 28 73 CFG=1
M  V30 75 1 74 30
M  V30 76 1 75 30
M  V30 77 1 76 31
M  V30 78 1 77 31
M  V30 79 1 78 31
M  V30 80 1 32 79 CFG=1
M  V30 81 1 80 34
M  V30 82 1 81 34
M  V30 83 1 35 82 CFG=3
M  V30 84 1 37 83 CFG=1
M  V30 85 1 39 84 CFG=1
M  V30 END BOND
M  V30 END CTAB
M  END
>  <i_epik_Tot_Q>  (1) 
1

>  <i_epik_Tot_abs_Q>  (1) 
3

>  <i_i_glide_confnum>  (1) 
2906

>  <i_i_glide_lignum>  (1) 
221

>  <i_i_glide_posenum>  (1) 
43

>  <i_i_glide_rotatable_bonds>  (1) 
24

>  <i_lp_mmshare_version>  (1) 
72125

>  <i_m_source_file_index>  (1) 
94

>  <i_f3d_flags>  (1) 
0

>  <num_sample>  (1) 
100

>  <b_lp_Chiralities_Consistent>  (1) 
1

>  <r_epik_Charging_Adjusted_Penalty>  (1) 
0.90916677635763199

>  <r_epik_Ionization_Penalty>  (1) 
0.45507897092921873

>  <r_epik_Ionization_Penalty_Charging>  (1) 
0.45507471778648678

>  <r_epik_Ionization_Penalty_Neutral>  (1) 
4.2531427319391784e-06

>  <r_epik_State_Penalty>  (1) 
0.45409205857114521

>  <r_glide_ring_energy>  (1) 
0

>  <r_i_docking_score>  (1) 
-4.2539840424217168

>  <r_i_glide_ecoul>  (1) 
-19.741567369753138

>  <r_i_glide_eff_state_penalty>  (1) 
0.45409205857114521

>  <r_i_glide_einternal>  (1) 
37.878324897326294

>  <r_i_glide_emodel>  (1) 
-3.0619104714401075

>  <r_i_glide_emodel_strain>  (1) 
14.987520118325037

>  <r_i_glide_energy>  (1) 
-20.717192024105135

>  <r_i_glide_erotb>  (1) 
0.82188833391367333

>  <r_i_glide_esite>  (1) 
-0.061665169280351796

>  <r_i_glide_evdw>  (1) 
-0.9756246543519973

>  <r_i_glide_gscore>  (1) 
-4.7080761009928622

>  <r_i_glide_gscore_strain>  (1) 
2.7468800295812592

>  <r_i_glide_hbond>  (1) 
-0.58292513444588678

>  <r_i_glide_ligand_efficiency>  (1) 
-0.10907651390824914

>  <r_i_glide_ligand_efficiency_ln>  (1) 
-0.9121749352133377

>  <r_i_glide_ligand_efficiency_sa>  (1) 
-0.36990152212974847

>  <r_i_glide_lipo>  (1) 
-2.4959229138346508

>  <r_i_glide_metal>  (1) 
-0

>  <r_i_glide_rewards>  (1) 
-2.1263149087463349

>  <r_lp_Energy>  (1) 
28.475997

>  <s_epik_Chemistry_Notes>  (1) 
This compound contains an acetal/aminal-like group ( X-CH(R)-Y where X, Y are N, S, or O) that may be acid/base labile, releasing an aldehyde.

>  <s_epik_cmdline>  (1) 
J2VwaWtfcHl0aG9uJywgJy1waHQnLCAnMS4wJywgJy1waCcsICc3LjQnLCAnLXRuJywgJzgnLCAnLW1hJywgJzUwMCcsICctaW1hZScsICc8aW5maWxlLm1hZT4nLCAnLW9tYWUnLCAnPG91dGZpbGUubWFlPic=

>  <s_epik_input>  (1) 
W0NIMl0xW0NIMl1bQ0hdMVtDSDJdW0NAQEhdKFtDQEBIXShDKD1PKVtOSDJdKVtDSDJdQyg9TylbT0hdKVtDQEBIXShbQ0gyXVtPSF0pW0NIMl1bQ0gyXUMoPU8pTihbQ0gyXVtPSF0pW0NIMl1bQ0BASF0oW1MrXShbT0hdKVtPSF0pW0NASF0oW0NIM10pTjJbQ0gyXVtDSDJdW0NASF0oW09IXSlbQ0BASF0yW0NASF0oRilbQ0gzXQ==

>  <s_glide_docking_method>  (1) 
confgen

>  <s_i_glide_gridfile>  (1) 
gpcr_5ht2c_6bqh_protein_autoprepared_prepared

>  <s_lp_Force_Field>  (1) 
S-OPLS

>  <s_lp_Variant>  (1) 
DiffSBDD_93-9

>  <s_m_source_file>  (1) 
generated_GPCR_5HT2C_ligand_DiffSBDD_2026-06-23_prepared.sdf

>  <GenAI_Model>  (1) 
DiffSBDD

>  <Protein>  (1) 
GPCR_5HT2C

$$$$
DiffSBDD_14
     RDKit          3D

  0  0  0  0  0  0  0  0  0  0999 V3000
M  V30 BEGIN CTAB
M  V30 COUNTS 49 48 0 0 1
M  V30 BEGIN ATOM
M  V30 1 C 39.745170 27.692309 58.750565 0
M  V30 2 C 39.262870 28.768980 52.391070 0
M  V30 3 C 38.780181 28.472322 59.634444 0
M  V30 4 C 38.206634 28.407736 54.657153 0
M  V30 5 O 35.245144 31.737636 61.367767 0 CHG=-1
M  V30 6 N 37.245143 31.699432 58.567769 0 CHG=1
M  V30 7 C 39.427759 27.126456 57.567637 0
M  V30 8 C 37.012458 31.133997 59.905249 0 CFG=2
M  V30 9 C 39.359165 28.593076 50.887669 0
M  V30 10 C 38.970786 25.953433 54.834540 0
M  V30 11 C 38.028507 27.047868 55.373451 0 CFG=1
M  V30 12 C 36.214117 32.163608 60.709321 0
M  V30 13 C 39.668916 29.877843 50.102094 0
M  V30 14 O 36.595197 33.354722 60.651879 0
M  V30 15 C 38.333135 30.824005 60.651522 0
M  V30 16 O 40.468484 29.772780 60.732445 0
M  V30 17 C 40.969131 30.566723 50.519547 0
M  V30 18 C 38.279905 28.255701 53.146568 0
M  V30 19 C 38.045043 27.171895 56.918501 0
M  V30 20 C 39.314489 29.884406 59.924324 0 CFG=1
M  V30 21 H 40.756257 27.597433 59.121315 0
M  V30 22 H 40.046434 29.337870 52.860657 0
M  V30 23 H 38.650117 27.922670 60.566799 0
M  V30 24 H 37.792610 28.538011 59.192135 0
M  V30 25 H 37.375243 29.070680 54.899511 0
M  V30 26 H 39.112897 28.898397 55.014997 0
M  V30 27 H 36.367744 31.737745 58.038310 0
M  V30 28 H 37.584207 32.643527 58.684510 0
M  V30 29 H 40.193599 26.592553 57.027480 0
M  V30 30 H 36.419837 30.226042 59.787822 0
M  V30 31 H 40.147197 27.865523 50.694379 0
M  V30 32 H 38.444903 28.137419 50.517019 0
M  V30 33 H 40.017149 26.257705 54.864913 0
M  V30 34 H 38.867170 25.021595 55.391895 0
M  V30 35 H 38.734906 25.737764 53.795144 0
M  V30 36 H 37.023724 26.711109 55.114207 0
M  V30 37 H 39.741638 29.616559 49.045757 0
M  V30 38 H 38.849192 30.590978 50.167824 0
M  V30 39 H 38.092460 30.400806 61.628224 0
M  V30 40 H 38.854579 31.760797 60.859217 0
M  V30 41 H 40.227540 29.348043 61.543855 0
M  V30 42 H 41.242495 31.337703 49.799828 0
M  V30 43 H 40.860934 31.047475 51.491455 0
M  V30 44 H 41.795243 29.861863 50.576428 0
M  V30 45 H 37.486094 27.690126 52.678007 0
M  V30 46 H 37.481483 26.337086 57.336226 0
M  V30 47 H 37.502292 28.072824 57.194131 0
M  V30 48 H 39.614086 30.339648 58.981293 0
M  V30 49 H 37.908990 31.143496 58.052832 0
M  V30 END ATOM
M  V30 BEGIN BOND
M  V30 1 1 3 1
M  V30 2 2 7 1
M  V30 3 1 8 6
M  V30 4 1 9 2
M  V30 5 1 11 4
M  V30 6 1 11 10
M  V30 7 1 12 5
M  V30 8 1 12 8
M  V30 9 1 13 9
M  V30 10 2 14 12
M  V30 11 1 15 8
M  V30 12 1 17 13
M  V30 13 2 18 2
M  V30 14 1 18 4
M  V30 15 1 19 7
M  V30 16 1 19 11
M  V30 17 1 20 3
M  V30 18 1 20 15
M  V30 19 1 20 16
M  V30 20 1 21 1
M  V30 21 1 22 2
M  V30 22 1 23 3
M  V30 23 1 24 3
M  V30 24 1 25 4
M  V30 25 1 26 4
M  V30 26 1 27 6
M  V30 27 1 28 6
M  V30 28 1 29 7
M  V30 29 1 8 30 CFG=3
M  V30 30 1 31 9
M  V30 31 1 32 9
M  V30 32 1 33 10
M  V30 33 1 34 10
M  V30 34 1 35 10
M  V30 35 1 11 36 CFG=1
M  V30 36 1 37 13
M  V30 37 1 38 13
M  V30 38 1 39 15
M  V30 39 1 40 15
M  V30 40 1 41 16
M  V30 41 1 42 17
M  V30 42 1 43 17
M  V30 43 1 44 17
M  V30 44 1 45 18
M  V30 45 1 46 19
M  V30 46 1 47 19
M  V30 47 1 20 48 CFG=3
M  V30 48 1 49 6
M  V30 END BOND
M  V30 END CTAB
M  END
>  <i_epik_Tot_Q>  (1) 
0

>  <i_epik_Tot_abs_Q>  (1) 
2

>  <i_i_glide_confnum>  (1) 
591

>  <i_i_glide_lignum>  (1) 
27

>  <i_i_glide_posenum>  (1) 
98

>  <i_i_glide_rotatable_bonds>  (1) 
12

>  <i_lp_mmshare_version>  (1) 
72125

>  <i_m_source_file_index>  (1) 
15

>  <i_f3d_flags>  (1) 
0

>  <num_sample>  (1) 
100

>  <b_lp_Chiralities_Consistent>  (1) 
1

>  <r_epik_Charging_Adjusted_Penalty>  (1) 
0.00991281995240933

>  <r_epik_Ionization_Penalty>  (1) 
0.0049587358016132182

>  <r_epik_Ionization_Penalty_Charging>  (1) 
0.0049586922537287062

>  <r_epik_Ionization_Penalty_Neutral>  (1) 
4.3547884512074136e-08

>  <r_epik_State_Penalty>  (1) 
0.0049541276986806238

>  <r_glide_ring_energy>  (1) 
0

>  <r_i_docking_score>  (1) 
-4.1990931608103317

>  <r_i_glide_ecoul>  (1) 
-8.4824520282698348

>  <r_i_glide_eff_state_penalty>  (1) 
0.0049541276986806238

>  <r_i_glide_einternal>  (1) 
10.861638244836355

>  <r_i_glide_emodel>  (1) 
-39.755413361461251

>  <r_i_glide_emodel_strain>  (1) 
1.2553714722103351

>  <r_i_glide_energy>  (1) 
-34.75294541500093

>  <r_i_glide_erotb>  (1) 
4.0583376510001772

>  <r_i_glide_esite>  (1) 
-0.14565845363088609

>  <r_i_glide_evdw>  (1) 
-26.270493386731093

>  <r_i_glide_gscore>  (1) 
-4.2040472885090123

>  <r_i_glide_gscore_strain>  (1) 
0

>  <r_i_glide_hbond>  (1) 
-0.43448308453611506

>  <r_i_glide_ligand_efficiency>  (1) 
-0.20995465804051658

>  <r_i_glide_ligand_efficiency_ln>  (1) 
-1.0508945227893014

>  <r_i_glide_ligand_efficiency_sa>  (1) 
-0.56990462247133766

>  <r_i_glide_lipo>  (1) 
-3.2059558809912829

>  <r_i_glide_metal>  (1) 
-0

>  <r_i_glide_rewards>  (1) 
-1.8903950467738746

>  <r_lp_Energy>  (1) 
-5.4588899999999994

>  <s_epik_cmdline>  (1) 
J2VwaWtfcHl0aG9uJywgJy1waHQnLCAnMS4wJywgJy1waCcsICc3LjQnLCAnLXRuJywgJzgnLCAnLW1hJywgJzUwMCcsICctaW1hZScsICc8aW5maWxlLm1hZT4nLCAnLW9tYWUnLCAnPG91dGZpbGUubWFlPic=

>  <s_epik_input>  (1) 
W09IXUMoPU8pW0NAQEhdKFtOSDJdKVtDSDJdW0NAQEhdKFtPSF0pW0NIMl0vW0NIXT1bQ0hdXFtDSDJdW0NAQEhdKFtDSDNdKVtDSDJdXFtDSF09W0NIXVxbQ0gyXVtDSDJdW0NIM10=

>  <s_glide_docking_method>  (1) 
confgen

>  <s_i_glide_gridfile>  (1) 
gpcr_5ht2c_6bqh_protein_autoprepared_prepared

>  <s_lp_Force_Field>  (1) 
S-OPLS

>  <s_lp_Variant>  (1) 
DiffSBDD_14-5

>  <s_m_source_file>  (1) 
generated_GPCR_5HT2C_ligand_DiffSBDD_2026-06-23_prepared.sdf

>  <GenAI_Model>  (1) 
DiffSBDD

>  <Protein>  (1) 
GPCR_5HT2C

$$$$
DiffSBDD_22
     RDKit          3D

  0  0  0  0  0  0  0  0  0  0999 V3000
M  V30 BEGIN CTAB
M  V30 COUNTS 48 51 0 0 1
M  V30 BEGIN ATOM
M  V30 1 C 40.445027 29.547040 49.239188 0
M  V30 2 C 36.396770 31.855191 60.325526 0
M  V30 3 C 39.632647 29.216867 52.838058 0
M  V30 4 F 36.878315 31.677157 61.566883 0
M  V30 5 N 39.502412 29.647233 51.432347 0 CFG=1 CHG=1
M  V30 6 C 40.044907 31.003646 51.156883 0 CFG=1
M  V30 7 C 40.609490 30.912857 49.769112 0 CFG=2
M  V30 8 O 38.283689 30.824300 54.062973 0
M  V30 9 O 37.791480 27.643987 55.356193 0
M  V30 10 N 37.895380 32.066481 56.080369 0 CHG=1
M  V30 11 O 39.823086 27.862663 57.032877 0
M  V30 12 C 38.771647 29.810437 56.086190 0 CFG=1
M  V30 13 C 38.415834 29.437042 53.730078 0 CFG=2
M  V30 14 C 37.625574 32.961979 58.407657 0
M  V30 15 N 35.195217 32.191765 60.167777 0
M  V30 16 C 40.163545 28.717753 50.491402 0
M  V30 17 C 38.546110 32.772239 57.197040 0
M  V30 18 C 39.383386 31.737737 50.017756 0
M  V30 19 C 39.858778 28.784116 55.965384 0 CFG=2
M  V30 20 C 38.868216 31.094480 55.297069 0 CFG=1
M  V30 21 C 37.321718 31.645029 59.148683 0
M  V30 22 C 38.640854 28.733523 55.056453 0 CFG=2
M  V30 23 H 41.309131 29.337736 48.619925 0
M  V30 24 H 39.603040 29.536196 48.567690 0
M  V30 25 H 40.466406 29.737775 53.290862 0
M  V30 26 H 39.814841 28.141890 52.838786 0
M  V30 27 H 40.611231 31.509435 51.934178 0
M  V30 28 H 41.598456 31.337841 49.647880 0
M  V30 29 H 38.058972 26.891688 54.847244 0
M  V30 30 H 37.068541 31.585774 56.434448 0
M  V30 31 H 38.963079 27.462654 57.024615 0
M  V30 32 H 38.082270 29.760323 56.926464 0
M  V30 33 H 37.503791 29.071269 53.256428 0
M  V30 34 H 36.703527 33.455989 58.098354 0
M  V30 35 H 38.108846 33.649642 59.103531 0
M  V30 36 H 34.950470 32.289213 59.188763 0
M  V30 37 H 41.094263 28.406228 50.967808 0
M  V30 38 H 39.556891 27.832992 50.288540 0
M  V30 39 H 38.845251 33.738592 56.810142 0
M  V30 40 H 39.450914 32.251677 57.501478 0
M  V30 41 H 39.479243 32.781912 49.767763 0
M  V30 42 H 38.445130 31.337863 49.735087 0
M  V30 43 H 40.844915 29.075616 55.614086 0
M  V30 44 H 39.881266 31.486951 55.190130 0
M  V30 45 H 38.524425 29.652193 51.181418 0
M  V30 46 H 38.243746 31.183714 59.500556 0
M  V30 47 H 36.850106 30.926821 58.477423 0
M  V30 48 H 37.523260 32.770626 55.454850 0
M  V30 END ATOM
M  V30 BEGIN BOND
M  V30 1 1 4 2
M  V30 2 1 5 3
M  V30 3 1 6 5
M  V30 4 1 7 1
M  V30 5 1 7 6
M  V30 6 1 13 3
M  V30 7 1 13 8
M  V30 8 2 15 2
M  V30 9 1 16 1
M  V30 10 1 16 5
M  V30 11 1 17 10
M  V30 12 1 17 14
M  V30 13 1 18 6
M  V30 14 1 18 7
M  V30 15 1 19 11
M  V30 16 1 19 12
M  V30 17 1 20 8
M  V30 18 1 20 10
M  V30 19 1 20 12
M  V30 20 1 21 2
M  V30 21 1 21 14
M  V30 22 1 22 9 CFG=1
M  V30 23 1 22 12
M  V30 24 1 22 13
M  V30 25 1 22 19
M  V30 26 1 23 1
M  V30 27 1 24 1
M  V30 28 1 25 3
M  V30 29 1 26 3
M  V30 30 1 6 27 CFG=1
M  V30 31 1 7 28 CFG=1
M  V30 32 1 29 9
M  V30 33 1 30 10
M  V30 34 1 31 11
M  V30 35 1 12 32 CFG=1
M  V30 36 1 13 33 CFG=3
M  V30 37 1 34 14
M  V30 38 1 35 14
M  V30 39 1 36 15
M  V30 40 1 37 16
M  V30 41 1 38 16
M  V30 42 1 39 17
M  V30 43 1 40 17
M  V30 44 1 41 18
M  V30 45 1 42 18
M  V30 46 1 19 43 CFG=3
M  V30 47 1 20 44 CFG=3
M  V30 48 1 5 45 CFG=3
M  V30 49 1 46 21
M  V30 50 1 47 21
M  V30 51 1 48 10
M  V30 END BOND
M  V30 END CTAB
M  END
>  <i_epik_Tot_Q>  (1) 
2

>  <i_epik_Tot_abs_Q>  (1) 
2

>  <i_i_glide_confnum>  (1) 
14

>  <i_i_glide_lignum>  (1) 
56

>  <i_i_glide_posenum>  (1) 
315

>  <i_i_glide_rotatable_bonds>  (1) 
9

>  <i_lp_mmshare_version>  (1) 
72125

>  <i_m_source_file_index>  (1) 
23

>  <i_f3d_flags>  (1) 
0

>  <num_sample>  (1) 
100

>  <b_lp_Chiralities_Consistent>  (1) 
1

>  <r_epik_Charging_Adjusted_Penalty>  (1) 
1.666199543100769

>  <r_epik_Ionization_Penalty>  (1) 
0.63246952638049103

>  <r_epik_Ionization_Penalty_Charging>  (1) 
0.62883544751823761

>  <r_epik_Ionization_Penalty_Neutral>  (1) 
0.0036340788622534364

>  <r_epik_State_Penalty>  (1) 
1.0373640955825314

>  <r_glide_ring_energy>  (1) 
1.6455033096424427

>  <r_i_docking_score>  (1) 
-4.1953886084413066

>  <r_i_glide_ecoul>  (1) 
-8.0775135868968828

>  <r_i_glide_eff_state_penalty>  (1) 
1.0373640955825314

>  <r_i_glide_einternal>  (1) 
8.3963017375380424

>  <r_i_glide_emodel>  (1) 
-35.969611177309019

>  <r_i_glide_emodel_strain>  (1) 
2.8949223154032211

>  <r_i_glide_energy>  (1) 
-25.090458988039558

>  <r_i_glide_erotb>  (1) 
1.309053311580165

>  <r_i_glide_esite>  (1) 
-0.2229887536035233

>  <r_i_glide_evdw>  (1) 
-17.012945401142677

>  <r_i_glide_gscore>  (1) 
-5.232752704023838

>  <r_i_glide_gscore_strain>  (1) 
0

>  <r_i_glide_hbond>  (1) 
-0.24979614287601298

>  <r_i_glide_ligand_efficiency>  (1) 
-0.19069948220187757

>  <r_i_glide_ligand_efficiency_ln>  (1) 
-1.0255060064207677

>  <r_i_glide_ligand_efficiency_sa>  (1) 
-0.53434744946527801

>  <r_i_glide_lipo>  (1) 
-1.7642625022303695

>  <r_i_glide_metal>  (1) 
-0

>  <r_i_glide_rewards>  (1) 
-2.24248430880243

>  <r_lp_Energy>  (1) 
20.772855

>  <r_lp_tautomer_probability>  (1) 
0.49999300000000002

>  <s_epik_Chemistry_Notes>  (1) 
This compound has an imine and may undergo hydrolysis. This compound contains an acetal/aminal-like group ( X-CH(R)-Y where X, Y are N, S, or O) that may be acid/base labile, releasing an aldehyde.

>  <s_epik_cmdline>  (1) 
J2VwaWtfcHl0aG9uJywgJy1waHQnLCAnMS4wJywgJy1waCcsICc3LjQnLCAnLXRuJywgJzgnLCAnLW1hJywgJzUwMCcsICctaW1hZScsICc8aW5maWxlLm1hZT4nLCAnLW9tYWUnLCAnPG91dGZpbGUubWFlPic=

>  <s_epik_input>  (1) 
W0NAQEhdMTJbQ0BIXShbQ0gyXTIpW0NIMl1bQ0gyXU4xW0NIMl1bQ0BASF0zT1tDQEhdKFtDSF0oW0NASF00W09IXSlbQ0BAXTM0W09IXSlbTkhdW0NIMl1bQ0gyXVxbQ0hdPUMoXEYpW05IMl0=

>  <s_glide_docking_method>  (1) 
confgen

>  <s_i_glide_gridfile>  (1) 
gpcr_5ht2c_6bqh_protein_autoprepared_prepared

>  <s_lp_Force_Field>  (1) 
S-OPLS

>  <s_lp_Variant>  (1) 
DiffSBDD_22-4

>  <s_m_source_file>  (1) 
generated_GPCR_5HT2C_ligand_DiffSBDD_2026-06-23_prepared.sdf

>  <GenAI_Model>  (1) 
DiffSBDD

>  <Protein>  (1) 
GPCR_5HT2C

$$$$
DiffSBDD_86
     RDKit          3D

  0  0  0  0  0  0  0  0  0  0999 V3000
M  V30 BEGIN CTAB
M  V30 COUNTS 78 80 0 0 1
M  V30 BEGIN ATOM
M  V30 1 C 39.520727 29.445996 52.906614 0
M  V30 2 C 41.100106 29.818961 68.411485 0
M  V30 3 C 37.178179 30.837404 59.202144 0 CFG=2
M  V30 4 C 42.530989 30.090814 68.902486 0
M  V30 5 N 37.813773 31.546174 58.062695 0
M  V30 6 C 40.216654 35.454769 64.226088 0
M  V30 7 N 39.641123 30.302449 53.997706 0
M  V30 8 C 39.473304 30.992760 62.410413 0
M  V30 9 O 38.787050 28.237206 59.422383 0
M  V30 10 O 42.445238 32.600300 61.802494 0
M  V30 11 C 40.384860 33.325721 62.680358 0 CFG=2
M  V30 12 C 38.814657 31.442680 61.100034 0
M  V30 13 C 38.255319 32.827861 58.134672 0
M  V30 14 N 39.790254 32.101025 63.365110 0 CFG=2 CHG=1
M  V30 15 C 41.886536 33.229974 62.728709 0
M  V30 16 C 39.815361 29.708690 51.540822 0
M  V30 17 C 39.188154 27.426658 50.936489 0
M  V30 18 O 38.132842 33.468862 59.200675 0
M  V30 19 C 37.899749 30.808875 56.798952 0
M  V30 20 C 38.895026 27.149180 52.275006 0
M  V30 21 C 35.921656 31.547592 59.771801 0
M  V30 22 S 38.786040 28.040806 54.968323 0
M  V30 23 O 42.445116 33.740424 63.717281 0 CHG=-1
M  V30 24 C 40.570818 31.575728 64.561795 0
M  V30 25 C 38.188471 30.342193 60.270543 0 CFG=2
M  V30 26 C 39.913470 35.691744 61.717787 0
M  V30 27 O 39.257921 29.581532 59.719786 0
M  V30 28 N 41.066229 28.934698 67.229592 0 CHG=1
M  V30 29 C 39.329625 30.388899 56.453881 0
M  V30 30 C 39.059429 28.136760 53.240089 0
M  V30 31 O 40.273461 30.938127 51.168026 0
M  V30 32 C 40.212845 30.201819 65.190786 0
M  V30 33 C 39.309943 29.703524 55.148966 0
M  V30 34 C 38.568323 35.232883 62.167907 0
M  V30 35 C 39.804834 34.754536 62.927488 0
M  V30 36 O 38.781450 33.337733 57.124403 0 CHG=-1
M  V30 37 C 39.646589 28.703101 50.567454 0
M  V30 38 C 41.419845 29.612570 65.965330 0
M  V30 39 H 40.606277 30.761240 68.167127 0
M  V30 40 H 40.530999 29.338157 69.208413 0
M  V30 41 H 36.756758 29.915280 58.805565 0
M  V30 42 H 42.521323 30.758383 69.765184 0
M  V30 43 H 43.035081 29.172388 69.204806 0
M  V30 44 H 43.142946 30.571933 68.140444 0
M  V30 45 H 39.437510 36.137706 64.564242 0
M  V30 46 H 40.445340 34.754556 65.028789 0
M  V30 47 H 41.117167 36.051411 64.065224 0
M  V30 48 H 38.777384 30.314656 62.903373 0
M  V30 49 H 40.376014 30.426264 62.180518 0
M  V30 50 H 39.049539 27.774127 60.204145 0
M  V30 51 H 40.224196 33.274915 61.620314 0
M  V30 52 H 39.553608 31.875634 60.432131 0
M  V30 53 H 38.068778 32.196009 61.345675 0
M  V30 54 H 39.062153 26.659227 50.185866 0
M  V30 55 H 37.238932 29.941535 56.789173 0
M  V30 56 H 37.522820 31.450017 55.999127 0
M  V30 57 H 38.546523 26.173948 52.567753 0
M  V30 58 H 35.428326 30.924575 60.513606 0
M  V30 59 H 36.137019 32.499797 60.248039 0
M  V30 60 H 35.197186 31.751317 58.981206 0
M  V30 61 H 41.600193 31.379338 64.270407 0
M  V30 62 H 40.604739 32.347999 65.332633 0
M  V30 63 H 37.645406 29.737787 60.967481 0
M  V30 64 H 40.178227 36.732371 61.898463 0
M  V30 65 H 40.272403 35.297300 60.767765 0
M  V30 66 H 40.146775 28.518812 67.146417 0
M  V30 67 H 40.008677 31.240493 56.396386 0
M  V30 68 H 39.727109 29.704305 57.202895 0
M  V30 69 H 40.543557 31.010602 50.265748 0
M  V30 70 H 39.309379 30.273325 65.796887 0
M  V30 71 H 40.044946 29.449514 64.422414 0
M  V30 72 H 38.043004 34.512097 61.548829 0
M  V30 73 H 37.933557 35.986482 62.632242 0
M  V30 74 H 39.872987 28.913515 49.532530 0
M  V30 75 H 41.906544 28.870583 65.329793 0
M  V30 76 H 42.179179 30.371135 66.152105 0
M  V30 77 H 41.727089 28.188172 67.397668 0
M  V30 78 H 38.897847 32.418470 63.711366 0
M  V30 END ATOM
M  V30 BEGIN BOND
M  V30 1 1 4 2
M  V30 2 1 5 3
M  V30 3 1 7 1
M  V30 4 1 12 8
M  V30 5 1 13 5
M  V30 6 1 14 8
M  V30 7 1 14 11
M  V30 8 2 15 10
M  V30 9 1 15 11
M  V30 10 2 16 1
M  V30 11 2 18 13
M  V30 12 1 19 5
M  V30 13 1 20 17
M  V30 14 1 21 3
M  V30 15 1 23 15
M  V30 16 1 24 14
M  V30 17 1 25 3
M  V30 18 1 25 12
M  V30 19 1 27 9
M  V30 20 1 27 25
M  V30 21 1 28 2
M  V30 22 1 29 19
M  V30 23 1 30 1
M  V30 24 2 30 20
M  V30 25 1 30 22
M  V30 26 1 31 16
M  V30 27 1 32 24
M  V30 28 2 33 7
M  V30 29 1 33 22
M  V30 30 1 33 29
M  V30 31 1 34 26
M  V30 32 1 35 6
M  V30 33 1 35 11
M  V30 34 1 35 26
M  V30 35 1 35 34
M  V30 36 1 36 13
M  V30 37 1 37 16
M  V30 38 2 37 17
M  V30 39 1 38 28
M  V30 40 1 38 32
M  V30 41 1 39 2
M  V30 42 1 40 2
M  V30 43 1 3 41 CFG=3
M  V30 44 1 42 4
M  V30 45 1 43 4
M  V30 46 1 44 4
M  V30 47 1 45 6
M  V30 48 1 46 6
M  V30 49 1 47 6
M  V30 50 1 48 8
M  V30 51 1 49 8
M  V30 52 1 50 9
M  V30 53 1 11 51 CFG=3
M  V30 54 1 52 12
M  V30 55 1 53 12
M  V30 56 1 54 17
M  V30 57 1 55 19
M  V30 58 1 56 19
M  V30 59 1 57 20
M  V30 60 1 58 21
M  V30 61 1 59 21
M  V30 62 1 60 21
M  V30 63 1 61 24
M  V30 64 1 62 24
M  V30 65 1 25 63 CFG=1
M  V30 66 1 64 26
M  V30 67 1 65 26
M  V30 68 1 66 28
M  V30 69 1 67 29
M  V30 70 1 68 29
M  V30 71 1 69 31
M  V30 72 1 70 32
M  V30 73 1 71 32
M  V30 74 1 72 34
M  V30 75 1 73 34
M  V30 76 1 74 37
M  V30 77 1 75 38
M  V30 78 1 76 38
M  V30 79 1 77 28
M  V30 80 1 14 78 CFG=1
M  V30 END BOND
M  V30 END CTAB
M  END
>  <i_epik_Tot_Q>  (1) 
0

>  <i_epik_Tot_abs_Q>  (1) 
4

>  <i_i_glide_confnum>  (1) 
9524

>  <i_i_glide_lignum>  (1) 
204

>  <i_i_glide_posenum>  (1) 
260

>  <i_i_glide_rotatable_bonds>  (1) 
20

>  <i_lp_mmshare_version>  (1) 
72125

>  <i_m_source_file_index>  (1) 
87

>  <i_f3d_flags>  (1) 
0

>  <num_sample>  (1) 
100

>  <b_lp_Chiralities_Consistent>  (1) 
1

>  <r_epik_Charging_Adjusted_Penalty>  (1) 
0.22044164317972559

>  <r_epik_Ionization_Penalty>  (1) 
0.19516572318186753

>  <r_epik_Ionization_Penalty_Charging>  (1) 
0.026579669222116228

>  <r_epik_Ionization_Penalty_Neutral>  (1) 
0.16858605395975129

>  <r_epik_State_Penalty>  (1) 
0.19386197395760935

>  <r_glide_ring_energy>  (1) 
0

>  <r_i_docking_score>  (1) 
-4.18306434184891

>  <r_i_glide_ecoul>  (1) 
-4.2599562784503089

>  <r_i_glide_eff_state_penalty>  (1) 
0.19386197395760935

>  <r_i_glide_einternal>  (1) 
6.2430258053699461

>  <r_i_glide_emodel>  (1) 
-44.18571345000521

>  <r_i_glide_emodel_strain>  (1) 
9.7942991107384927

>  <r_i_glide_energy>  (1) 
-39.85411770998391

>  <r_i_glide_erotb>  (1) 
0.94715796475939662

>  <r_i_glide_esite>  (1) 
-0.16718026296073857

>  <r_i_glide_evdw>  (1) 
-35.5941614315336

>  <r_i_glide_gscore>  (1) 
-4.3769263158065197

>  <r_i_glide_gscore_strain>  (1) 
1.4485747776846232

>  <r_i_glide_hbond>  (1) 
0

>  <r_i_glide_ligand_efficiency>  (1) 
-0.11008064057497131

>  <r_i_glide_ligand_efficiency_ln>  (1) 
-0.90199172538838779

>  <r_i_glide_ligand_efficiency_sa>  (1) 
-0.37008840637772972

>  <r_i_glide_lipo>  (1) 
-3.4320633062474339

>  <r_i_glide_metal>  (1) 
-0

>  <r_i_glide_rewards>  (1) 
-0.75471397569814069

>  <r_lp_Energy>  (1) 
44.186366999999997

>  <s_epik_cmdline>  (1) 
J2VwaWtfcHl0aG9uJywgJy1waHQnLCAnMS4wJywgJy1waCcsICc3LjQnLCAnLXRuJywgJzgnLCAnLW1hJywgJzUwMCcsICctaW1hZScsICc8aW5maWxlLm1hZT4nLCAnLW9tYWUnLCAnPG91dGZpbGUubWFlPic=

>  <s_epik_input>  (1) 
W09IXWMxW2NIXVtjSF1bY0hdYyhjMTIpc2MobjIpW0NIMl1bQ0gyXU4oQyg9TylbT0hdKVtDQEhdKFtDSDNdKVtDQEBIXShPW09IXSlbQ0gyXVtDSDJdTihbQ0BIXShDKD1PKVtPSF0pQzMoW0NIM10pW0NIMl1bQ0gyXTMpW0NIMl1bQ0gyXVtDSDJdW05IXVtDSDJdW0NIM10=

>  <s_glide_docking_method>  (1) 
confgen

>  <s_i_glide_gridfile>  (1) 
gpcr_5ht2c_6bqh_protein_autoprepared_prepared

>  <s_lp_Force_Field>  (1) 
S-OPLS

>  <s_lp_Variant>  (1) 
DiffSBDD_86-1

>  <s_m_source_file>  (1) 
generated_GPCR_5HT2C_ligand_DiffSBDD_2026-06-23_prepared.sdf

>  <GenAI_Model>  (1) 
DiffSBDD

>  <Protein>  (1) 
GPCR_5HT2C

$$$$
DiffSBDD_0
     RDKit          3D

  0  0  0  0  0  0  0  0  0  0999 V3000
M  V30 BEGIN CTAB
M  V30 COUNTS 61 60 0 0 1
M  V30 BEGIN ATOM
M  V30 1 C 39.924647 30.335743 61.215143 0
M  V30 2 C 36.744928 33.545178 58.786312 0
M  V30 3 C 37.601305 25.262050 55.806828 0 CFG=1
M  V30 4 C 39.109962 32.304290 56.596352 0
M  V30 5 C 37.659066 32.309621 58.703556 0 CFG=1
M  V30 6 C 39.461868 29.192446 56.093233 0
M  V30 7 C 38.689924 24.975669 56.860320 0
M  V30 8 C 38.920088 30.234544 55.080693 0 CFG=2
M  V30 9 C 39.274347 30.438030 62.601470 0
M  V30 10 C 38.881616 32.685387 57.873398 0
M  V30 11 C 38.184366 31.429753 55.751312 0 CFG=2
M  V30 12 C 38.076152 31.799417 60.104044 0 CFG=1
M  V30 13 O 36.907377 31.549354 60.867260 0
M  V30 14 C 39.629391 26.147553 57.214944 0
M  V30 15 C 38.970629 27.376471 57.881355 0
M  V30 16 O 37.645015 32.233534 54.722560 0
M  V30 17 C 38.900772 30.488866 60.068286 0
M  V30 18 O 38.171023 25.835882 54.649386 0
M  V30 19 C 38.396261 28.450740 56.931940 0
M  V30 20 C 40.680704 29.003482 61.083244 0
M  V30 21 C 36.873731 23.982365 55.378633 0
M  V30 22 O 37.964201 29.586842 54.266558 0
M  V30 23 C 40.042597 30.692612 54.122228 0
M  V30 24 H 40.654801 31.142886 61.131392 0
M  V30 25 H 36.505605 33.905990 57.784714 0
M  V30 26 H 35.797519 33.318450 59.274682 0
M  V30 27 H 37.216358 34.363081 59.331636 0
M  V30 28 H 36.862845 25.951467 56.215395 0
M  V30 29 H 40.015773 32.636849 56.113057 0
M  V30 30 H 37.099992 31.502186 58.246202 0
M  V30 31 H 40.153637 29.680557 56.777154 0
M  V30 32 H 40.052544 28.463390 55.540757 0
M  V30 33 H 38.211560 24.613888 57.771349 0
M  V30 34 H 39.310110 24.148921 56.511675 0
M  V30 35 H 38.443755 29.737776 62.669486 0
M  V30 36 H 39.978209 30.200994 63.400312 0
M  V30 37 H 38.892194 31.440401 62.796275 0
M  V30 38 H 39.613323 33.311369 58.367264 0
M  V30 39 H 37.334114 31.035579 56.296329 0
M  V30 40 H 38.652596 32.578472 60.604896 0
M  V30 41 H 36.287970 31.104399 60.306561 0
M  V30 42 H 40.362645 25.753408 57.920134 0
M  V30 43 H 40.218910 26.430209 56.344573 0
M  V30 44 H 38.190007 27.039411 58.564750 0
M  V30 45 H 39.716819 27.858731 58.511640 0
M  V30 46 H 36.894355 32.703005 55.082797 0
M  V30 47 H 38.229874 29.628497 60.045088 0
M  V30 48 H 39.455488 30.426539 59.134007 0
M  V30 49 H 38.465020 26.711056 54.858113 0
M  V30 50 H 37.645029 28.010981 56.282782 0
M  V30 51 H 37.858246 29.180428 57.536673 0
M  V30 52 H 39.998091 28.154831 61.146227 0
M  V30 53 H 41.205440 28.935156 60.130052 0
M  V30 54 H 41.418890 28.882440 61.876262 0
M  V30 55 H 36.443946 23.471420 56.239198 0
M  V30 56 H 36.066198 24.200461 54.679059 0
M  V30 57 H 37.554270 23.286661 54.888648 0
M  V30 58 H 37.456323 30.285675 53.877094 0
M  V30 59 H 40.887780 31.123696 54.657952 0
M  V30 60 H 40.420881 29.865656 53.525917 0
M  V30 61 H 39.689624 31.438994 53.411246 0
M  V30 END ATOM
M  V30 BEGIN BOND
M  V30 1 1 5 2
M  V30 2 1 7 3
M  V30 3 1 8 6
M  V30 4 1 9 1
M  V30 5 2 10 4
M  V30 6 1 10 5
M  V30 7 1 11 4
M  V30 8 1 11 8
M  V30 9 1 12 5
M  V30 10 1 13 12
M  V30 11 1 14 7
M  V30 12 1 15 14
M  V30 13 1 16 11
M  V30 14 1 17 1
M  V30 15 1 17 12
M  V30 16 1 18 3
M  V30 17 1 19 6
M  V30 18 1 19 15
M  V30 19 1 20 1
M  V30 20 1 21 3
M  V30 21 1 8 22 CFG=3
M  V30 22 1 23 8
M  V30 23 1 24 1
M  V30 24 1 25 2
M  V30 25 1 26 2
M  V30 26 1 27 2
M  V30 27 1 3 28 CFG=1
M  V30 28 1 29 4
M  V30 29 1 5 30 CFG=3
M  V30 30 1 31 6
M  V30 31 1 32 6
M  V30 32 1 33 7
M  V30 33 1 34 7
M  V30 34 1 35 9
M  V30 35 1 36 9
M  V30 36 1 37 9
M  V30 37 1 38 10
M  V30 38 1 11 39 CFG=1
M  V30 39 1 12 40 CFG=1
M  V30 40 1 41 13
M  V30 41 1 42 14
M  V30 42 1 43 14
M  V30 43 1 44 15
M  V30 44 1 45 15
M  V30 45 1 46 16
M  V30 46 1 47 17
M  V30 47 1 48 17
M  V30 48 1 49 18
M  V30 49 1 50 19
M  V30 50 1 51 19
M  V30 51 1 52 20
M  V30 52 1 53 20
M  V30 53 1 54 20
M  V30 54 1 55 21
M  V30 55 1 56 21
M  V30 56 1 57 21
M  V30 57 1 58 22
M  V30 58 1 59 23
M  V30 59 1 60 23
M  V30 60 1 61 23
M  V30 END BOND
M  V30 END CTAB
M  END
>  <i_epik_Tot_Q>  (1) 
0

>  <i_epik_Tot_abs_Q>  (1) 
0

>  <i_i_glide_confnum>  (1) 
3510

>  <i_i_glide_lignum>  (1) 
2

>  <i_i_glide_posenum>  (1) 
71

>  <i_i_glide_rotatable_bonds>  (1) 
16

>  <i_lp_mmshare_version>  (1) 
72125

>  <i_m_source_file_index>  (1) 
1

>  <i_f3d_flags>  (1) 
0

>  <num_sample>  (1) 
100

>  <b_lp_Chiralities_Consistent>  (1) 
1

>  <r_epik_Charging_Adjusted_Penalty>  (1) 
0

>  <r_epik_Ionization_Penalty>  (1) 
5.9169763795933225e-07

>  <r_epik_Ionization_Penalty_Charging>  (1) 
0

>  <r_epik_Ionization_Penalty_Neutral>  (1) 
5.9169763795933225e-07

>  <r_epik_State_Penalty>  (1) 
-0

>  <r_glide_ring_energy>  (1) 
0

>  <r_i_docking_score>  (1) 
-4.1812611558936457

>  <r_i_glide_ecoul>  (1) 
-3.6804262225523461

>  <r_i_glide_eff_state_penalty>  (1) 
-0

>  <r_i_glide_einternal>  (1) 
11.087323755119836

>  <r_i_glide_emodel>  (1) 
-39.818979105482761

>  <r_i_glide_emodel_strain>  (1) 
0.69822775713500107

>  <r_i_glide_energy>  (1) 
-36.757683850599484

>  <r_i_glide_erotb>  (1) 
1.894024340436764

>  <r_i_glide_esite>  (1) 
0

>  <r_i_glide_evdw>  (1) 
-33.077257628047136

>  <r_i_glide_gscore>  (1) 
-4.1812611558936457

>  <r_i_glide_gscore_strain>  (1) 
0

>  <r_i_glide_hbond>  (1) 
-0.18886294804220072

>  <r_i_glide_ligand_efficiency>  (1) 
-0.18179396329972372

>  <r_i_glide_ligand_efficiency_ln>  (1) 
-1.0110668610750828

>  <r_i_glide_ligand_efficiency_sa>  (1) 
-0.51699784936443172

>  <r_i_glide_lipo>  (1) 
-2.2932010787703265

>  <r_i_glide_metal>  (1) 
-0

>  <r_i_glide_rewards>  (1) 
-1.3872946547326748

>  <r_lp_Energy>  (1) 
14.425478999999999

>  <r_lp_tautomer_probability>  (1) 
1

>  <s_epik_cmdline>  (1) 
J2VwaWtfcHl0aG9uJywgJy1waHQnLCAnMS4wJywgJy1waCcsICc3LjQnLCAnLXRuJywgJzgnLCAnLW1hJywgJzUwMCcsICctaW1hZScsICc8aW5maWxlLm1hZT4nLCAnLW9tYWUnLCAnPG91dGZpbGUubWFlPic=

>  <s_epik_input>  (1) 
W0NIM11bQ0hdKFtDSDNdKVtDSDJdW0NASF0oW09IXSlbQ0BASF0oW0NIM10pL1tDSF09W0NIXVxbQ0BASF0oW09IXSlbQ0BAXShbT0hdKShbQ0gzXSlbQ0gyXVtDSDJdW0NIMl1bQ0gyXVtDSDJdW0NAQEhdKFtPSF0pW0NIM10=

>  <s_glide_docking_method>  (1) 
confgen

>  <s_i_glide_gridfile>  (1) 
gpcr_5ht2c_6bqh_protein_autoprepared_prepared

>  <s_lp_Force_Field>  (1) 
S-OPLS

>  <s_lp_Variant>  (1) 
DiffSBDD_0-2

>  <s_m_source_file>  (1) 
generated_GPCR_5HT2C_ligand_DiffSBDD_2026-06-23_prepared.sdf

>  <GenAI_Model>  (1) 
DiffSBDD

>  <Protein>  (1) 
GPCR_5HT2C

$$$$
DiffSBDD_86
     RDKit          3D

  0  0  0  0  0  0  0  0  0  0999 V3000
M  V30 BEGIN CTAB
M  V30 COUNTS 77 79 0 0 1
M  V30 BEGIN ATOM
M  V30 1 C 38.495625 25.898080 55.696285 0
M  V30 2 C 41.465204 28.753115 64.006440 0
M  V30 3 C 37.826461 30.558472 56.574183 0 CFG=2
M  V30 4 C 41.173496 27.348851 64.543905 0
M  V30 5 N 39.086019 29.799388 56.396405 0
M  V30 6 C 36.416703 34.566371 61.635332 0
M  V30 7 N 39.293403 26.953971 55.290724 0
M  V30 8 C 38.805684 33.329446 59.239182 0
M  V30 9 O 38.045200 33.313104 55.280278 0
M  V30 10 O 39.538218 35.754519 63.216534 0
M  V30 11 C 38.886884 35.019629 61.026843 0 CFG=2
M  V30 12 C 38.059857 32.088330 58.711059 0
M  V30 13 C 39.645683 29.104259 57.437316 0
M  V30 14 N 38.884075 33.529584 60.719598 0 CFG=2 CHG=1
M  V30 15 C 39.938226 35.509302 62.061053 0
M  V30 16 C 38.648341 25.071234 56.836968 0
M  V30 17 C 36.719425 23.736781 56.167574 0
M  V30 18 O 39.047506 29.059944 58.536670 0
M  V30 19 C 39.765331 29.920609 55.067546 0
M  V30 20 C 36.537532 24.543862 55.049108 0
M  V30 21 C 36.947246 30.433026 55.286808 0
M  V30 22 S 37.335134 26.891973 53.583284 0
M  V30 23 O 41.120307 35.610306 61.661382 0 CHG=-1
M  V30 24 C 39.940095 32.699910 61.402972 0
M  V30 25 C 38.241959 31.960564 57.173846 0 CFG=2
M  V30 26 C 37.240876 37.056772 61.627697 0
M  V30 27 O 37.645707 33.134869 56.658078 0
M  V30 28 N 40.445244 29.226228 63.040748 0 CHG=1
M  V30 29 C 39.268477 29.005764 53.892929 0
M  V30 30 C 37.392893 25.636580 54.834442 0
M  V30 31 O 39.666120 25.303518 57.713546 0 CHG=-1
M  V30 32 C 39.595749 31.224083 61.710315 0
M  V30 33 C 38.745196 27.665722 54.315520 0
M  V30 34 C 37.013366 36.674959 60.200776 0
M  V30 35 C 37.455571 35.604489 61.196242 0
M  V30 36 O 40.750141 28.538061 57.276013 0 CHG=-1
M  V30 37 C 37.754645 24.015511 57.077465 0
M  V30 38 C 40.620789 30.660678 62.717902 0
M  V30 39 H 42.451237 28.775643 63.537705 0
M  V30 40 H 41.501184 29.439727 64.854616 0
M  V30 41 H 37.215007 30.055888 57.323380 0
M  V30 42 H 41.889764 27.084626 65.320200 0
M  V30 43 H 40.181063 27.286850 64.987123 0
M  V30 44 H 41.245197 26.590983 63.769733 0
M  V30 45 H 35.670402 34.988526 62.308904 0
M  V30 46 H 35.886801 34.163613 60.769431 0
M  V30 47 H 36.870375 33.736360 62.167570 0
M  V30 48 H 39.808512 33.388616 58.824387 0
M  V30 49 H 38.246066 34.157308 58.811999 0
M  V30 50 H 37.217719 33.095971 54.862729 0
M  V30 51 H 39.289267 35.518167 60.153026 0
M  V30 52 H 36.998430 32.143048 58.956019 0
M  V30 53 H 38.429882 31.207174 59.205214 0
M  V30 54 H 36.053393 22.904627 56.345808 0
M  V30 55 H 39.733427 30.961130 54.743735 0
M  V30 56 H 40.829507 29.729103 55.195839 0
M  V30 57 H 35.726729 24.348331 54.369334 0
M  V30 58 H 35.872396 30.539961 55.367995 0
M  V30 59 H 37.284825 31.058493 54.465648 0
M  V30 60 H 36.959338 29.401602 54.957295 0
M  V30 61 H 40.879765 32.771862 60.855955 0
M  V30 62 H 40.141607 33.088033 62.397886 0
M  V30 63 H 39.308995 32.091692 56.977720 0
M  V30 64 H 36.371551 37.281472 62.241912 0
M  V30 65 H 38.104965 37.687722 61.822326 0
M  V30 66 H 39.529402 29.075761 63.456790 0
M  V30 67 H 38.475012 29.513032 53.348137 0
M  V30 68 H 40.035200 28.900297 53.123499 0
M  V30 69 H 38.591055 31.147082 62.132166 0
M  V30 70 H 39.623741 30.615062 60.809207 0
M  V30 71 H 37.740149 37.043388 59.478114 0
M  V30 72 H 35.986492 36.654353 59.840744 0
M  V30 73 H 37.882491 23.394428 57.950899 0
M  V30 74 H 41.629149 30.809817 62.331807 0
M  V30 75 H 40.567656 31.226734 63.649179 0
M  V30 76 H 40.499578 28.674514 62.194784 0
M  V30 77 H 38.005603 33.225603 61.108504 0
M  V30 END ATOM
M  V30 BEGIN BOND
M  V30 1 1 4 2
M  V30 2 1 5 3
M  V30 3 1 7 1
M  V30 4 1 12 8
M  V30 5 1 13 5
M  V30 6 1 14 8
M  V30 7 1 14 11
M  V30 8 2 15 10
M  V30 9 1 15 11
M  V30 10 2 16 1
M  V30 11 2 18 13
M  V30 12 1 19 5
M  V30 13 1 20 17
M  V30 14 1 21 3
M  V30 15 1 23 15
M  V30 16 1 24 14
M  V30 17 1 25 3
M  V30 18 1 25 12
M  V30 19 1 27 9
M  V30 20 1 27 25
M  V30 21 1 28 2
M  V30 22 1 29 19
M  V30 23 1 30 1
M  V30 24 2 30 20
M  V30 25 1 30 22
M  V30 26 1 31 16
M  V30 27 1 32 24
M  V30 28 2 33 7
M  V30 29 1 33 22
M  V30 30 1 33 29
M  V30 31 1 34 26
M  V30 32 1 35 6
M  V30 33 1 35 11
M  V30 34 1 35 26
M  V30 35 1 35 34
M  V30 36 1 36 13
M  V30 37 1 37 16
M  V30 38 2 37 17
M  V30 39 1 38 28
M  V30 40 1 38 32
M  V30 41 1 39 2
M  V30 42 1 40 2
M  V30 43 1 3 41 CFG=1
M  V30 44 1 42 4
M  V30 45 1 43 4
M  V30 46 1 44 4
M  V30 47 1 45 6
M  V30 48 1 46 6
M  V30 49 1 47 6
M  V30 50 1 48 8
M  V30 51 1 49 8
M  V30 52 1 50 9
M  V30 53 1 11 51 CFG=3
M  V30 54 1 52 12
M  V30 55 1 53 12
M  V30 56 1 54 17
M  V30 57 1 55 19
M  V30 58 1 56 19
M  V30 59 1 57 20
M  V30 60 1 58 21
M  V30 61 1 59 21
M  V30 62 1 60 21
M  V30 63 1 61 24
M  V30 64 1 62 24
M  V30 65 1 25 63 CFG=1
M  V30 66 1 64 26
M  V30 67 1 65 26
M  V30 68 1 66 28
M  V30 69 1 67 29
M  V30 70 1 68 29
M  V30 71 1 69 32
M  V30 72 1 70 32
M  V30 73 1 71 34
M  V30 74 1 72 34
M  V30 75 1 73 37
M  V30 76 1 74 38
M  V30 77 1 75 38
M  V30 78 1 76 28
M  V30 79 1 14 77 CFG=1
M  V30 END BOND
M  V30 END CTAB
M  END
>  <i_epik_Tot_Q>  (1) 
-1

>  <i_epik_Tot_abs_Q>  (1) 
5

>  <i_i_glide_confnum>  (1) 
1379

>  <i_i_glide_lignum>  (1) 
206

>  <i_i_glide_posenum>  (1) 
333

>  <i_i_glide_rotatable_bonds>  (1) 
19

>  <i_lp_mmshare_version>  (1) 
72125

>  <i_m_source_file_index>  (1) 
87

>  <i_f3d_flags>  (1) 
0

>  <num_sample>  (1) 
100

>  <b_lp_Chiralities_Consistent>  (1) 
1

>  <r_epik_Charging_Adjusted_Penalty>  (1) 
1.7068457012274814

>  <r_epik_Ionization_Penalty>  (1) 
0.85572285372979207

>  <r_epik_Ionization_Penalty_Charging>  (1) 
0.8536556191236474

>  <r_epik_Ionization_Penalty_Neutral>  (1) 
0.0020672346061446629

>  <r_epik_State_Penalty>  (1) 
0.85319008210383396

>  <r_glide_ring_energy>  (1) 
0

>  <r_i_docking_score>  (1) 
-4.1734253634625098

>  <r_i_glide_ecoul>  (1) 
-2.4508966873251339

>  <r_i_glide_eff_state_penalty>  (1) 
0.85319008210383396

>  <r_i_glide_einternal>  (1) 
11.779866724283925

>  <r_i_glide_emodel>  (1) 
-38.303978839034002

>  <r_i_glide_emodel_strain>  (1) 
9.8706145333580508

>  <r_i_glide_energy>  (1) 
-36.13793477255232

>  <r_i_glide_erotb>  (1) 
0.88358493265308913

>  <r_i_glide_esite>  (1) 
-0.21584893454089782

>  <r_i_glide_evdw>  (1) 
-33.687038085227186

>  <r_i_glide_gscore>  (1) 
-5.0266154455663434

>  <r_i_glide_gscore_strain>  (1) 
1.4676536333395127

>  <r_i_glide_hbond>  (1) 
-0.10733839461544921

>  <r_i_glide_ligand_efficiency>  (1) 
-0.10982698324901341

>  <r_i_glide_ligand_efficiency_ln>  (1) 
-0.89991327809826371

>  <r_i_glide_ligand_efficiency_sa>  (1) 
-0.36923561668610488

>  <r_i_glide_lipo>  (1) 
-3.993195697345874

>  <r_i_glide_metal>  (1) 
-0

>  <r_i_glide_rewards>  (1) 
-1.0094845776965946

>  <r_lp_Energy>  (1) 
38.436468999999995

>  <s_epik_cmdline>  (1) 
J2VwaWtfcHl0aG9uJywgJy1waHQnLCAnMS4wJywgJy1waCcsICc3LjQnLCAnLXRuJywgJzgnLCAnLW1hJywgJzUwMCcsICctaW1hZScsICc8aW5maWxlLm1hZT4nLCAnLW9tYWUnLCAnPG91dGZpbGUubWFlPic=

>  <s_epik_input>  (1) 
W09IXWMxW2NIXVtjSF1bY0hdYyhjMTIpc2MobjIpW0NIMl1bQ0gyXU4oQyg9TylbT0hdKVtDQEhdKFtDSDNdKVtDQEBIXShPW09IXSlbQ0gyXVtDSDJdTihbQ0BIXShDKD1PKVtPSF0pQzMoW0NIM10pW0NIMl1bQ0gyXTMpW0NIMl1bQ0gyXVtDSDJdW05IXVtDSDJdW0NIM10=

>  <s_glide_docking_method>  (1) 
confgen

>  <s_i_glide_gridfile>  (1) 
gpcr_5ht2c_6bqh_protein_autoprepared_prepared

>  <s_lp_Force_Field>  (1) 
S-OPLS

>  <s_lp_Variant>  (1) 
DiffSBDD_86-3

>  <s_m_source_file>  (1) 
generated_GPCR_5HT2C_ligand_DiffSBDD_2026-06-23_prepared.sdf

>  <GenAI_Model>  (1) 
DiffSBDD

>  <Protein>  (1) 
GPCR_5HT2C

$$$$
DiffSBDD_86
     RDKit          3D

  0  0  0  0  0  0  0  0  0  0999 V3000
M  V30 BEGIN CTAB
M  V30 COUNTS 77 79 0 0 1
M  V30 BEGIN ATOM
M  V30 1 C 41.642352 33.471300 64.220717 0
M  V30 2 C 38.032873 24.533118 57.733907 0
M  V30 3 C 37.643218 30.932361 59.565133 0 CFG=2
M  V30 4 C 36.962598 24.452319 56.632502 0
M  V30 5 N 38.785446 30.423801 60.376718 0
M  V30 6 C 39.630484 29.679742 51.410886 0
M  V30 7 N 41.644979 32.578317 63.151372 0
M  V30 8 C 37.263634 29.839032 55.726860 0
M  V30 9 O 39.201605 32.041999 56.516357 0
M  V30 10 O 37.245151 27.120096 53.367754 0
M  V30 11 C 38.445325 29.150216 53.651242 0 CFG=2
M  V30 12 C 37.116784 29.759200 57.253666 0
M  V30 13 C 39.329493 29.188691 60.200659 0
M  V30 14 N 38.546014 29.350808 55.138211 0 CFG=2 CHG=1
M  V30 15 C 38.360362 27.665222 53.250639 0
M  V30 16 C 42.166866 33.280822 65.529830 0
M  V30 17 C 41.437714 35.521983 66.184446 0
M  V30 18 O 38.857591 28.426779 59.335424 0
M  V30 19 C 39.277109 31.315271 61.436292 0
M  V30 20 C 40.921267 35.736976 64.899363 0
M  V30 21 C 36.291461 30.398964 60.051386 0
M  V30 22 S 40.452376 34.718686 62.268409 0
M  V30 23 O 39.410100 27.104420 52.865626 0 CHG=-1
M  V30 24 C 39.443120 28.432496 55.929531 0
M  V30 25 C 37.775142 30.944984 58.014645 0 CFG=2
M  V30 26 C 39.186707 31.529521 53.125288 0
M  V30 27 O 39.131491 31.116098 57.641510 0
M  V30 28 N 39.393681 24.764766 57.199395 0 CHG=1
M  V30 29 C 40.483084 32.160233 61.004356 0
M  V30 30 C 41.019535 34.726723 63.933739 0
M  V30 31 O 42.777468 32.101507 65.858007 0 CHG=-1
M  V30 32 C 38.916212 27.011454 56.243802 0
M  V30 33 C 40.911816 33.025047 62.130899 0
M  V30 34 C 40.445140 30.912357 53.584021 0
M  V30 35 C 39.414503 30.055722 52.880689 0
M  V30 36 O 40.294775 28.841021 60.916126 0 CHG=-1
M  V30 37 C 42.058094 34.298525 66.499359 0
M  V30 38 C 39.830965 26.177829 57.148224 0
M  V30 39 H 38.031296 23.582251 58.265598 0
M  V30 40 H 37.790607 25.304028 58.466678 0
M  V30 41 H 37.609506 31.997662 59.797156 0
M  V30 42 H 36.045162 24.937901 56.963225 0
M  V30 43 H 37.252199 24.937046 55.702015 0
M  V30 44 H 36.729571 23.415185 56.388974 0
M  V30 45 H 39.975823 30.533008 50.827132 0
M  V30 46 H 40.386469 28.900224 51.315954 0
M  V30 47 H 38.703380 29.323707 50.961374 0
M  V30 48 H 36.445177 29.337758 55.237742 0
M  V30 49 H 37.114010 30.872856 55.416011 0
M  V30 50 H 39.207955 32.874148 56.967483 0
M  V30 51 H 37.474659 29.540806 53.348143 0
M  V30 52 H 37.413475 28.796737 57.621876 0
M  V30 53 H 36.047559 29.746671 57.463291 0
M  V30 54 H 41.360132 36.295327 66.933120 0
M  V30 55 H 38.475040 31.967398 61.782747 0
M  V30 56 H 39.543617 30.730135 62.319114 0
M  V30 57 H 40.445372 36.674871 64.656522 0
M  V30 58 H 35.475786 30.937820 59.567484 0
M  V30 59 H 36.175587 29.342281 59.810503 0
M  V30 60 H 36.184024 30.537780 61.126727 0
M  V30 61 H 40.388022 28.346906 55.393191 0
M  V30 62 H 39.710276 28.913959 56.867298 0
M  V30 63 H 37.245193 31.849760 57.718402 0
M  V30 64 H 39.245139 32.137746 52.232149 0
M  V30 65 H 38.471437 31.861063 53.873023 0
M  V30 66 H 39.460770 24.366444 56.273814 0
M  V30 67 H 41.318409 31.533902 60.693964 0
M  V30 68 H 40.204573 32.798970 60.167749 0
M  V30 69 H 37.911520 27.048585 56.655050 0
M  V30 70 H 38.847529 26.414754 55.345795 0
M  V30 71 H 40.627623 30.804831 54.648991 0
M  V30 72 H 41.245125 31.337752 53.019424 0
M  V30 73 H 42.455948 34.137642 67.489958 0
M  V30 74 H 40.845113 26.199006 56.749290 0
M  V30 75 H 39.889690 26.576053 58.158194 0
M  V30 76 H 40.046606 24.278148 57.797271 0
M  V30 77 H 39.082651 30.205936 55.195891 0
M  V30 END ATOM
M  V30 BEGIN BOND
M  V30 1 1 4 2
M  V30 2 1 5 3
M  V30 3 1 7 1
M  V30 4 1 12 8
M  V30 5 1 13 5
M  V30 6 1 14 8
M  V30 7 1 14 11
M  V30 8 2 15 10
M  V30 9 1 15 11
M  V30 10 2 16 1
M  V30 11 2 18 13
M  V30 12 1 19 5
M  V30 13 1 20 17
M  V30 14 1 21 3
M  V30 15 1 23 15
M  V30 16 1 24 14
M  V30 17 1 25 3
M  V30 18 1 25 12
M  V30 19 1 27 9
M  V30 20 1 27 25
M  V30 21 1 28 2
M  V30 22 1 29 19
M  V30 23 1 30 1
M  V30 24 2 30 20
M  V30 25 1 30 22
M  V30 26 1 31 16
M  V30 27 1 32 24
M  V30 28 2 33 7
M  V30 29 1 33 22
M  V30 30 1 33 29
M  V30 31 1 34 26
M  V30 32 1 35 6
M  V30 33 1 35 11
M  V30 34 1 35 26
M  V30 35 1 35 34
M  V30 36 1 36 13
M  V30 37 1 37 16
M  V30 38 2 37 17
M  V30 39 1 38 28
M  V30 40 1 38 32
M  V30 41 1 39 2
M  V30 42 1 40 2
M  V30 43 1 3 41 CFG=1
M  V30 44 1 42 4
M  V30 45 1 43 4
M  V30 46 1 44 4
M  V30 47 1 45 6
M  V30 48 1 46 6
M  V30 49 1 47 6
M  V30 50 1 48 8
M  V30 51 1 49 8
M  V30 52 1 50 9
M  V30 53 1 11 51 CFG=3
M  V30 54 1 52 12
M  V30 55 1 53 12
M  V30 56 1 54 17
M  V30 57 1 55 19
M  V30 58 1 56 19
M  V30 59 1 57 20
M  V30 60 1 58 21
M  V30 61 1 59 21
M  V30 62 1 60 21
M  V30 63 1 61 24
M  V30 64 1 62 24
M  V30 65 1 25 63 CFG=3
M  V30 66 1 64 26
M  V30 67 1 65 26
M  V30 68 1 66 28
M  V30 69 1 67 29
M  V30 70 1 68 29
M  V30 71 1 69 32
M  V30 72 1 70 32
M  V30 73 1 71 34
M  V30 74 1 72 34
M  V30 75 1 73 37
M  V30 76 1 74 38
M  V30 77 1 75 38
M  V30 78 1 76 28
M  V30 79 1 14 77 CFG=3
M  V30 END BOND
M  V30 END CTAB
M  END
>  <i_epik_Tot_Q>  (1) 
-1

>  <i_epik_Tot_abs_Q>  (1) 
5

>  <i_i_glide_confnum>  (1) 
6121

>  <i_i_glide_lignum>  (1) 
206

>  <i_i_glide_posenum>  (1) 
263

>  <i_i_glide_rotatable_bonds>  (1) 
19

>  <i_lp_mmshare_version>  (1) 
72125

>  <i_m_source_file_index>  (1) 
87

>  <i_f3d_flags>  (1) 
0

>  <num_sample>  (1) 
100

>  <b_lp_Chiralities_Consistent>  (1) 
1

>  <r_epik_Charging_Adjusted_Penalty>  (1) 
1.7068457012274814

>  <r_epik_Ionization_Penalty>  (1) 
0.85572285372979207

>  <r_epik_Ionization_Penalty_Charging>  (1) 
0.8536556191236474

>  <r_epik_Ionization_Penalty_Neutral>  (1) 
0.0020672346061446629

>  <r_epik_State_Penalty>  (1) 
0.85319008210383396

>  <r_glide_ring_energy>  (1) 
0

>  <r_i_docking_score>  (1) 
-4.1723203648708358

>  <r_i_glide_ecoul>  (1) 
-1.2496413711569998

>  <r_i_glide_eff_state_penalty>  (1) 
0.85319008210383396

>  <r_i_glide_einternal>  (1) 
30.277443889765983

>  <r_i_glide_emodel>  (1) 
-36.601764420859354

>  <r_i_glide_emodel_strain>  (1) 
8.5255714091434811

>  <r_i_glide_energy>  (1) 
-42.343406607477739

>  <r_i_glide_erotb>  (1) 
0.88358493265308913

>  <r_i_glide_esite>  (1) 
-0.043781070518513543

>  <r_i_glide_evdw>  (1) 
-41.093765236320742

>  <r_i_glide_gscore>  (1) 
-5.0255104469746694

>  <r_i_glide_gscore_strain>  (1) 
1.1313928522858703

>  <r_i_glide_hbond>  (1) 
0

>  <r_i_glide_ligand_efficiency>  (1) 
-0.1097979043387062

>  <r_i_glide_ligand_efficiency_ln>  (1) 
-0.89967500789613353

>  <r_i_glide_ligand_efficiency_sa>  (1) 
-0.36913785410479555

>  <r_i_glide_lipo>  (1) 
-3.8121934079842399

>  <r_i_glide_metal>  (1) 
-0

>  <r_i_glide_rewards>  (1) 
-0.94237928592128783

>  <r_lp_Energy>  (1) 
38.436468999999995

>  <s_epik_cmdline>  (1) 
J2VwaWtfcHl0aG9uJywgJy1waHQnLCAnMS4wJywgJy1waCcsICc3LjQnLCAnLXRuJywgJzgnLCAnLW1hJywgJzUwMCcsICctaW1hZScsICc8aW5maWxlLm1hZT4nLCAnLW9tYWUnLCAnPG91dGZpbGUubWFlPic=

>  <s_epik_input>  (1) 
W09IXWMxW2NIXVtjSF1bY0hdYyhjMTIpc2MobjIpW0NIMl1bQ0gyXU4oQyg9TylbT0hdKVtDQEhdKFtDSDNdKVtDQEBIXShPW09IXSlbQ0gyXVtDSDJdTihbQ0BIXShDKD1PKVtPSF0pQzMoW0NIM10pW0NIMl1bQ0gyXTMpW0NIMl1bQ0gyXVtDSDJdW05IXVtDSDJdW0NIM10=

>  <s_glide_docking_method>  (1) 
confgen

>  <s_i_glide_gridfile>  (1) 
gpcr_5ht2c_6bqh_protein_autoprepared_prepared

>  <s_lp_Force_Field>  (1) 
S-OPLS

>  <s_lp_Variant>  (1) 
DiffSBDD_86-3

>  <s_m_source_file>  (1) 
generated_GPCR_5HT2C_ligand_DiffSBDD_2026-06-23_prepared.sdf

>  <GenAI_Model>  (1) 
DiffSBDD

>  <Protein>  (1) 
GPCR_5HT2C

$$$$
DiffSBDD_39
     RDKit          3D

  0  0  0  0  0  0  0  0  0  0999 V3000
M  V30 BEGIN CTAB
M  V30 COUNTS 44 46 0 0 1
M  V30 BEGIN ATOM
M  V30 1 C 38.834834 28.907646 53.288266 0
M  V30 2 C 34.807776 33.329930 59.367528 0
M  V30 3 C 35.993149 29.651995 58.936787 0
M  V30 4 O 35.235534 33.171442 60.669864 0
M  V30 5 O 38.879558 28.971041 52.061575 0
M  V30 6 C 37.496800 32.874961 60.340732 0 CFG=2
M  V30 7 C 38.795500 28.734392 59.329261 0
M  V30 8 C 39.835542 29.908122 55.399309 0
M  V30 9 O 38.559591 32.921060 59.404834 0
M  V30 10 C 38.970086 30.170709 54.161473 0 CFG=2
M  V30 11 N 36.736557 31.581527 60.316359 0
M  V30 12 O 37.248075 27.331885 54.167549 0
M  V30 13 C 37.154656 30.539319 59.404025 0 CFG=1
M  V30 14 C 39.340169 28.704036 56.216682 0 CFG=1
M  V30 15 C 39.391903 27.439553 55.347074 0
M  V30 16 O 38.096286 29.737690 60.061955 0
M  V30 17 C 36.193491 32.735153 59.658276 0 CFG=2
M  V30 18 O 40.190812 28.502456 57.339442 0
M  V30 19 C 37.604916 30.760519 54.559652 0
M  V30 20 C 38.632265 27.564809 54.005618 0 CFG=2
M  V30 21 C 39.907132 29.335647 58.457923 0
M  V30 22 H 34.747790 34.356576 59.011657 0
M  V30 23 H 34.034502 32.644602 59.031446 0
M  V30 24 H 35.169812 30.261882 58.567676 0
M  V30 25 H 36.298681 29.003378 58.119330 0
M  V30 26 H 35.643930 29.047337 59.767745 0
M  V30 27 H 37.600160 33.469934 61.246756 0
M  V30 28 H 38.122139 28.109730 58.746736 0
M  V30 29 H 39.247393 28.052466 60.050554 0
M  V30 30 H 40.859941 29.737600 55.081193 0
M  V30 31 H 39.868946 30.811823 56.006307 0
M  V30 32 H 38.414981 33.657600 58.828980 0
M  V30 33 H 39.488978 30.922805 53.565627 0
M  V30 34 H 36.869644 27.217141 53.306693 0
M  V30 35 H 37.604983 30.972762 58.511227 0
M  V30 36 H 38.311062 28.863555 56.542001 0
M  V30 37 H 39.006906 26.589537 55.911431 0
M  V30 38 H 40.437279 27.202970 55.140010 0
M  V30 39 H 37.242628 31.407179 53.767929 0
M  V30 40 H 36.848715 29.998995 54.757230 0
M  V30 41 H 37.675727 31.384841 55.451635 0
M  V30 42 H 39.000016 26.782784 53.339912 0
M  V30 43 H 40.812430 29.433532 59.056464 0
M  V30 44 H 39.644684 30.341051 58.134891 0
M  V30 END ATOM
M  V30 BEGIN BOND
M  V30 1 1 4 2
M  V30 2 2 5 1
M  V30 3 1 9 6
M  V30 4 1 10 1
M  V30 5 1 10 8
M  V30 6 1 11 6
M  V30 7 1 13 3
M  V30 8 1 13 11
M  V30 9 1 14 8
M  V30 10 1 15 14
M  V30 11 1 16 7
M  V30 12 1 16 13
M  V30 13 1 17 2
M  V30 14 1 17 4 CFG=1
M  V30 15 1 17 6
M  V30 16 1 17 11
M  V30 17 1 18 14
M  V30 18 1 19 10
M  V30 19 1 20 1
M  V30 20 1 20 12
M  V30 21 1 20 15
M  V30 22 1 21 7
M  V30 23 1 21 18
M  V30 24 1 22 2
M  V30 25 1 23 2
M  V30 26 1 24 3
M  V30 27 1 25 3
M  V30 28 1 26 3
M  V30 29 1 6 27 CFG=1
M  V30 30 1 28 7
M  V30 31 1 29 7
M  V30 32 1 30 8
M  V30 33 1 31 8
M  V30 34 1 32 9
M  V30 35 1 10 33 CFG=3
M  V30 36 1 34 12
M  V30 37 1 13 35 CFG=3
M  V30 38 1 14 36 CFG=1
M  V30 39 1 37 15
M  V30 40 1 38 15
M  V30 41 1 39 19
M  V30 42 1 40 19
M  V30 43 1 41 19
M  V30 44 1 20 42 CFG=3
M  V30 45 1 43 21
M  V30 46 1 44 21
M  V30 END BOND
M  V30 END CTAB
M  END
>  <i_epik_Tot_Q>  (1) 
0

>  <i_epik_Tot_abs_Q>  (1) 
0

>  <i_i_glide_confnum>  (1) 
269

>  <i_i_glide_lignum>  (1) 
86

>  <i_i_glide_posenum>  (1) 
396

>  <i_i_glide_rotatable_bonds>  (1) 
8

>  <i_lp_mmshare_version>  (1) 
72125

>  <i_m_source_file_index>  (1) 
40

>  <i_f3d_flags>  (1) 
0

>  <num_sample>  (1) 
100

>  <b_lp_Chiralities_Consistent>  (1) 
1

>  <r_epik_Charging_Adjusted_Penalty>  (1) 
0

>  <r_epik_Ionization_Penalty>  (1) 
7.7229051731594394e-07

>  <r_epik_Ionization_Penalty_Charging>  (1) 
0

>  <r_epik_Ionization_Penalty_Neutral>  (1) 
7.7229051731594394e-07

>  <r_epik_State_Penalty>  (1) 
-0

>  <r_glide_ring_energy>  (1) 
0

>  <r_i_docking_score>  (1) 
-4.1537883218009197

>  <r_i_glide_ecoul>  (1) 
-3.2789933354343486

>  <r_i_glide_eff_state_penalty>  (1) 
-0

>  <r_i_glide_einternal>  (1) 
4.8177589584009297

>  <r_i_glide_emodel>  (1) 
-40.313476282315818

>  <r_i_glide_emodel_strain>  (1) 
0.40660961039017707

>  <r_i_glide_energy>  (1) 
-33.152281852716314

>  <r_i_glide_erotb>  (1) 
1.2154630782883253

>  <r_i_glide_esite>  (1) 
-0.13245357919301487

>  <r_i_glide_evdw>  (1) 
-29.873288517281967

>  <r_i_glide_gscore>  (1) 
-4.1537883218009197

>  <r_i_glide_gscore_strain>  (1) 
0

>  <r_i_glide_hbond>  (1) 
0

>  <r_i_glide_ligand_efficiency>  (1) 
-0.1977994438952819

>  <r_i_glide_ligand_efficiency_ln>  (1) 
-1.0270157690456529

>  <r_i_glide_ligand_efficiency_sa>  (1) 
-0.54571366783743436

>  <r_i_glide_lipo>  (1) 
-1.3628227847665557

>  <r_i_glide_metal>  (1) 
-0

>  <r_i_glide_rewards>  (1) 
-1.8884616099504226

>  <r_lp_Energy>  (1) 
10.886961999999999

>  <r_lp_tautomer_probability>  (1) 
1

>  <s_epik_Chemistry_Notes>  (1) 
This compound contains an acetal/aminal-like group ( X-CH(R)-Y where X, Y are N, S, or O) that may be acid/base labile, releasing an aldehyde.

>  <s_epik_cmdline>  (1) 
J2VwaWtfcHl0aG9uJywgJy1waHQnLCAnMS4wJywgJy1waCcsICc3LjQnLCAnLXRuJywgJzgnLCAnLW1hJywgJzUwMCcsICctaW1hZScsICc8aW5maWxlLm1hZT4nLCAnLW9tYWUnLCAnPG91dGZpbGUubWFlPic=

>  <s_epik_input>  (1) 
Tz1DMVtDQEBIXShbQ0gzXSlbQ0gyXVtDQEBIXShbQ0gyXVtDQEhdMVtPSF0pT1tDSDJdW0NIMl1PW0NAQEhdKFtDSDNdKU4yW0NAQEhdKFtPSF0pQzIzW0NIMl1PMw==

>  <s_glide_docking_method>  (1) 
confgen

>  <s_i_glide_gridfile>  (1) 
gpcr_5ht2c_6bqh_protein_autoprepared_prepared

>  <s_lp_Force_Field>  (1) 
S-OPLS

>  <s_lp_Variant>  (1) 
DiffSBDD_39-1

>  <s_m_source_file>  (1) 
generated_GPCR_5HT2C_ligand_DiffSBDD_2026-06-23_prepared.sdf

>  <GenAI_Model>  (1) 
DiffSBDD

>  <Protein>  (1) 
GPCR_5HT2C

$$$$
DiffSBDD_14
     RDKit          3D

  0  0  0  0  0  0  0  0  0  0999 V3000
M  V30 BEGIN CTAB
M  V30 COUNTS 49 48 0 0 1
M  V30 BEGIN ATOM
M  V30 1 C 38.045052 27.886127 58.166395 0
M  V30 2 C 38.579456 28.149949 51.859593 0
M  V30 3 C 38.636159 28.446942 59.443346 0
M  V30 4 C 37.933613 26.655333 53.794982 0
M  V30 5 O 38.851999 33.129877 60.765566 0 CHG=-1
M  V30 6 N 36.750617 32.578732 58.967760 0 CHG=1
M  V30 7 C 38.443994 26.736446 57.598969 0
M  V30 8 C 37.495515 31.518125 59.656575 0 CFG=2
M  V30 9 C 39.452813 28.546767 50.689362 0
M  V30 10 C 39.953379 25.640052 55.016557 0
M  V30 11 C 38.740202 26.579764 55.108888 0 CFG=2
M  V30 12 C 38.049446 32.181386 60.922426 0
M  V30 13 C 39.899097 30.014863 50.756814 0
M  V30 14 O 37.644825 31.737754 62.017729 0
M  V30 15 C 38.591355 30.952424 58.715555 0
M  V30 16 O 40.153479 30.021566 60.386021 0
M  V30 17 C 41.193249 30.274121 49.989449 0
M  V30 18 C 38.796689 27.061334 52.613427 0
M  V30 19 C 37.863613 26.182147 56.313315 0
M  V30 20 C 39.432995 29.737753 59.205267 0 CFG=1
M  V30 21 H 37.260039 28.466053 57.701623 0
M  V30 22 H 37.742019 28.795961 52.079535 0
M  V30 23 H 39.289263 27.690409 59.879127 0
M  V30 24 H 37.848090 28.627534 60.167751 0
M  V30 25 H 37.464509 25.697007 53.578982 0
M  V30 26 H 37.118296 27.372370 53.903431 0
M  V30 27 H 36.045663 32.937910 59.594002 0
M  V30 28 H 37.393484 33.321012 58.733717 0
M  V30 29 H 39.229015 26.156593 58.062982 0
M  V30 30 H 36.788419 30.731122 59.920880 0
M  V30 31 H 40.323217 27.890294 50.660756 0
M  V30 32 H 38.902066 28.370046 49.767758 0
M  V30 33 H 39.645135 24.640939 54.709069 0
M  V30 34 H 40.700939 26.000052 54.310367 0
M  V30 35 H 40.451210 25.544422 55.980627 0
M  V30 36 H 39.118750 27.588170 55.289258 0
M  V30 37 H 39.120405 30.647260 50.336558 0
M  V30 38 H 40.036223 30.330758 51.792096 0
M  V30 39 H 39.245137 31.773564 58.431825 0
M  V30 40 H 38.113405 30.669312 57.776831 0
M  V30 41 H 40.445147 29.206652 60.765078 0
M  V30 42 H 41.335524 31.337751 49.819773 0
M  V30 43 H 42.045133 29.923117 50.567761 0
M  V30 44 H 41.195040 29.776859 49.018826 0
M  V30 45 H 39.633285 26.418594 52.384343 0
M  V30 46 H 37.775500 25.098081 56.392907 0
M  V30 47 H 36.845140 26.537753 56.188544 0
M  V30 48 H 40.182099 29.523766 58.441035 0
M  V30 49 H 36.299850 32.221370 58.121418 0
M  V30 END ATOM
M  V30 BEGIN BOND
M  V30 1 1 3 1
M  V30 2 2 7 1
M  V30 3 1 8 6
M  V30 4 1 9 2
M  V30 5 1 11 4
M  V30 6 1 11 10
M  V30 7 1 12 5
M  V30 8 1 12 8
M  V30 9 1 13 9
M  V30 10 2 14 12
M  V30 11 1 15 8
M  V30 12 1 17 13
M  V30 13 2 18 2
M  V30 14 1 18 4
M  V30 15 1 19 7
M  V30 16 1 19 11
M  V30 17 1 20 3
M  V30 18 1 20 15
M  V30 19 1 20 16
M  V30 20 1 21 1
M  V30 21 1 22 2
M  V30 22 1 23 3
M  V30 23 1 24 3
M  V30 24 1 25 4
M  V30 25 1 26 4
M  V30 26 1 27 6
M  V30 27 1 28 6
M  V30 28 1 29 7
M  V30 29 1 8 30 CFG=1
M  V30 30 1 31 9
M  V30 31 1 32 9
M  V30 32 1 33 10
M  V30 33 1 34 10
M  V30 34 1 35 10
M  V30 35 1 11 36 CFG=1
M  V30 36 1 37 13
M  V30 37 1 38 13
M  V30 38 1 39 15
M  V30 39 1 40 15
M  V30 40 1 41 16
M  V30 41 1 42 17
M  V30 42 1 43 17
M  V30 43 1 44 17
M  V30 44 1 45 18
M  V30 45 1 46 19
M  V30 46 1 47 19
M  V30 47 1 20 48 CFG=3
M  V30 48 1 49 6
M  V30 END BOND
M  V30 END CTAB
M  END
>  <i_epik_Tot_Q>  (1) 
0

>  <i_epik_Tot_abs_Q>  (1) 
2

>  <i_i_glide_confnum>  (1) 
795

>  <i_i_glide_lignum>  (1) 
24

>  <i_i_glide_posenum>  (1) 
370

>  <i_i_glide_rotatable_bonds>  (1) 
12

>  <i_lp_mmshare_version>  (1) 
72125

>  <i_m_source_file_index>  (1) 
15

>  <i_f3d_flags>  (1) 
0

>  <num_sample>  (1) 
100

>  <b_lp_Chiralities_Consistent>  (1) 
1

>  <r_epik_Charging_Adjusted_Penalty>  (1) 
0.00991281995240933

>  <r_epik_Ionization_Penalty>  (1) 
0.0049587358016132182

>  <r_epik_Ionization_Penalty_Charging>  (1) 
0.0049586922537287062

>  <r_epik_Ionization_Penalty_Neutral>  (1) 
4.3547884512074136e-08

>  <r_epik_State_Penalty>  (1) 
0.0049541276986806238

>  <r_glide_ring_energy>  (1) 
0

>  <r_i_docking_score>  (1) 
-4.150597400566161

>  <r_i_glide_ecoul>  (1) 
-6.9163127992525322

>  <r_i_glide_eff_state_penalty>  (1) 
0.0049541276986806238

>  <r_i_glide_einternal>  (1) 
8.4926018983578615

>  <r_i_glide_emodel>  (1) 
-39.320042213548291

>  <r_i_glide_emodel_strain>  (1) 
0.74509983941780256

>  <r_i_glide_energy>  (1) 
-32.804342827372551

>  <r_i_glide_erotb>  (1) 
4.0583376510001772

>  <r_i_glide_esite>  (1) 
-0.10000000000000001

>  <r_i_glide_evdw>  (1) 
-25.888030028120021

>  <r_i_glide_gscore>  (1) 
-4.1555515282648416

>  <r_i_glide_gscore_strain>  (1) 
0

>  <r_i_glide_hbond>  (1) 
-0.32235651967256973

>  <r_i_glide_ligand_efficiency>  (1) 
-0.20752987002830806

>  <r_i_glide_ligand_efficiency_ln>  (1) 
-1.038757633497408

>  <r_i_glide_ligand_efficiency_sa>  (1) 
-0.56332273517449072

>  <r_i_glide_lipo>  (1) 
-3.377552631186671

>  <r_i_glide_metal>  (1) 
-0

>  <r_i_glide_rewards>  (1) 
-2.0821316071118967

>  <r_lp_Energy>  (1) 
-7.5592219999999992

>  <s_epik_cmdline>  (1) 
J2VwaWtfcHl0aG9uJywgJy1waHQnLCAnMS4wJywgJy1waCcsICc3LjQnLCAnLXRuJywgJzgnLCAnLW1hJywgJzUwMCcsICctaW1hZScsICc8aW5maWxlLm1hZT4nLCAnLW9tYWUnLCAnPG91dGZpbGUubWFlPic=

>  <s_epik_input>  (1) 
W09IXUMoPU8pW0NAQEhdKFtOSDJdKVtDSDJdW0NAQEhdKFtPSF0pW0NIMl0vW0NIXT1bQ0hdL1tDSDJdW0NAQEhdKFtDSDNdKVtDSDJdXFtDSF09W0NIXVxbQ0gyXVtDSDJdW0NIM10=

>  <s_glide_docking_method>  (1) 
confgen

>  <s_i_glide_gridfile>  (1) 
gpcr_5ht2c_6bqh_protein_autoprepared_prepared

>  <s_lp_Force_Field>  (1) 
S-OPLS

>  <s_lp_Variant>  (1) 
DiffSBDD_14-2

>  <s_m_source_file>  (1) 
generated_GPCR_5HT2C_ligand_DiffSBDD_2026-06-23_prepared.sdf

>  <GenAI_Model>  (1) 
DiffSBDD

>  <Protein>  (1) 
GPCR_5HT2C

$$$$
DiffSBDD_14
     RDKit          3D

  0  0  0  0  0  0  0  0  0  0999 V3000
M  V30 BEGIN CTAB
M  V30 COUNTS 49 48 0 0 1
M  V30 BEGIN ATOM
M  V30 1 C 39.985321 27.987551 59.081519 0
M  V30 2 C 38.221978 27.851398 52.029763 0
M  V30 3 C 39.490513 28.357255 60.471411 0
M  V30 4 C 39.022846 26.933173 54.279612 0
M  V30 5 O 37.525031 32.810945 61.326524 0 CHG=-1
M  V30 6 N 37.245162 31.827333 58.567760 0 CHG=1
M  V30 7 C 39.204957 27.452917 58.125331 0
M  V30 8 C 37.573377 31.023691 59.751046 0 CFG=2
M  V30 9 C 39.599934 28.219859 51.493120 0
M  V30 10 C 39.058934 29.199318 55.469145 0
M  V30 11 C 38.818924 27.684592 55.614666 0 CFG=2
M  V30 12 C 36.934672 31.786438 60.919470 0
M  V30 13 C 39.690105 29.724590 51.187297 0
M  V30 14 O 35.860131 31.337774 61.367383 0
M  V30 15 C 39.116443 30.861994 59.848478 0
M  V30 16 O 39.249360 30.086417 62.157356 0
M  V30 17 C 40.968395 30.135861 50.451043 0
M  V30 18 C 37.971309 27.294671 53.236199 0
M  V30 19 C 39.693575 27.081116 56.735549 0
M  V30 20 C 39.707519 29.835644 60.844278 0 CFG=1
M  V30 21 H 41.029856 28.175023 58.875517 0
M  V30 22 H 37.392170 28.061980 51.374073 0
M  V30 23 H 40.027781 27.737755 61.187964 0
M  V30 24 H 38.445137 28.088002 60.563907 0
M  V30 25 H 40.045010 27.036746 53.939779 0
M  V30 26 H 38.900440 25.864798 54.459440 0
M  V30 27 H 36.262360 31.738034 58.318310 0
M  V30 28 H 37.441665 32.794276 58.780596 0
M  V30 29 H 38.161153 27.264719 58.333356 0
M  V30 30 H 37.109342 30.043369 59.632168 0
M  V30 31 H 40.416926 27.930107 52.143330 0
M  V30 32 H 39.741506 27.655262 50.570245 0
M  V30 33 H 40.082385 29.411250 55.159144 0
M  V30 34 H 38.391385 29.638691 54.727116 0
M  V30 35 H 38.883483 29.721108 56.409932 0
M  V30 36 H 37.776697 27.541534 55.904003 0
M  V30 37 H 38.845288 30.022634 50.567798 0
M  V30 38 H 39.615582 30.284871 52.120492 0
M  V30 39 H 39.572252 31.832265 60.053170 0
M  V30 40 H 39.467058 30.571004 58.858375 0
M  V30 41 H 39.430202 29.344123 62.717618 0
M  V30 42 H 41.039063 31.221256 50.373782 0
M  V30 43 H 41.855843 29.776141 50.967690 0
M  V30 44 H 40.980549 29.737836 49.436357 0
M  V30 45 H 36.947779 27.078500 53.505881 0
M  V30 46 H 40.739016 27.366100 56.602935 0
M  V30 47 H 39.664565 25.992950 56.676861 0
M  V30 48 H 40.786236 29.995408 60.864078 0
M  V30 49 H 37.791128 31.531007 57.773291 0
M  V30 END ATOM
M  V30 BEGIN BOND
M  V30 1 1 3 1
M  V30 2 2 7 1
M  V30 3 1 8 6
M  V30 4 1 9 2
M  V30 5 1 11 4
M  V30 6 1 11 10
M  V30 7 1 12 5
M  V30 8 1 12 8
M  V30 9 1 13 9
M  V30 10 2 14 12
M  V30 11 1 15 8
M  V30 12 1 17 13
M  V30 13 2 18 2
M  V30 14 1 18 4
M  V30 15 1 19 7
M  V30 16 1 19 11
M  V30 17 1 20 3
M  V30 18 1 20 15
M  V30 19 1 20 16
M  V30 20 1 21 1
M  V30 21 1 22 2
M  V30 22 1 23 3
M  V30 23 1 24 3
M  V30 24 1 25 4
M  V30 25 1 26 4
M  V30 26 1 27 6
M  V30 27 1 28 6
M  V30 28 1 29 7
M  V30 29 1 8 30 CFG=3
M  V30 30 1 31 9
M  V30 31 1 32 9
M  V30 32 1 33 10
M  V30 33 1 34 10
M  V30 34 1 35 10
M  V30 35 1 11 36 CFG=1
M  V30 36 1 37 13
M  V30 37 1 38 13
M  V30 38 1 39 15
M  V30 39 1 40 15
M  V30 40 1 41 16
M  V30 41 1 42 17
M  V30 42 1 43 17
M  V30 43 1 44 17
M  V30 44 1 45 18
M  V30 45 1 46 19
M  V30 46 1 47 19
M  V30 47 1 20 48 CFG=1
M  V30 48 1 49 6
M  V30 END BOND
M  V30 END CTAB
M  END
>  <i_epik_Tot_Q>  (1) 
0

>  <i_epik_Tot_abs_Q>  (1) 
2

>  <i_i_glide_confnum>  (1) 
128

>  <i_i_glide_lignum>  (1) 
26

>  <i_i_glide_posenum>  (1) 
235

>  <i_i_glide_rotatable_bonds>  (1) 
12

>  <i_lp_mmshare_version>  (1) 
72125

>  <i_m_source_file_index>  (1) 
15

>  <i_f3d_flags>  (1) 
0

>  <num_sample>  (1) 
100

>  <b_lp_Chiralities_Consistent>  (1) 
1

>  <r_epik_Charging_Adjusted_Penalty>  (1) 
0.00991281995240933

>  <r_epik_Ionization_Penalty>  (1) 
0.0049587358016132182

>  <r_epik_Ionization_Penalty_Charging>  (1) 
0.0049586922537287062

>  <r_epik_Ionization_Penalty_Neutral>  (1) 
4.3547884512074136e-08

>  <r_epik_State_Penalty>  (1) 
0.0049541276986806238

>  <r_glide_ring_energy>  (1) 
0

>  <r_i_docking_score>  (1) 
-4.1475503374607712

>  <r_i_glide_ecoul>  (1) 
-8.6381172764758958

>  <r_i_glide_eff_state_penalty>  (1) 
0.0049541276986806238

>  <r_i_glide_einternal>  (1) 
2.1805432816462385

>  <r_i_glide_emodel>  (1) 
-43.205517142704657

>  <r_i_glide_emodel_strain>  (1) 
0.75184659815787036

>  <r_i_glide_energy>  (1) 
-34.056763988926093

>  <r_i_glide_erotb>  (1) 
4.0583376510001772

>  <r_i_glide_esite>  (1) 
-0.12999231691732466

>  <r_i_glide_evdw>  (1) 
-25.418646712450194

>  <r_i_glide_gscore>  (1) 
-4.1525044651594518

>  <r_i_glide_gscore_strain>  (1) 
0

>  <r_i_glide_hbond>  (1) 
-0.37772821899701464

>  <r_i_glide_ligand_efficiency>  (1) 
-0.20737751687303857

>  <r_i_glide_ligand_efficiency_ln>  (1) 
-1.0379950541009961

>  <r_i_glide_ligand_efficiency_sa>  (1) 
-0.56290918508588339

>  <r_i_glide_lipo>  (1) 
-3.1973830956392058

>  <r_i_glide_metal>  (1) 
-0

>  <r_i_glide_rewards>  (1) 
-1.9390885575121903

>  <r_lp_Energy>  (1) 
-3.8776999999999999

>  <s_epik_cmdline>  (1) 
J2VwaWtfcHl0aG9uJywgJy1waHQnLCAnMS4wJywgJy1waCcsICc3LjQnLCAnLXRuJywgJzgnLCAnLW1hJywgJzUwMCcsICctaW1hZScsICc8aW5maWxlLm1hZT4nLCAnLW9tYWUnLCAnPG91dGZpbGUubWFlPic=

>  <s_epik_input>  (1) 
W09IXUMoPU8pW0NAQEhdKFtOSDJdKVtDSDJdW0NAQEhdKFtPSF0pW0NIMl0vW0NIXT1bQ0hdL1tDSDJdW0NAQEhdKFtDSDNdKVtDSDJdL1tDSF09W0NIXVxbQ0gyXVtDSDJdW0NIM10=

>  <s_glide_docking_method>  (1) 
confgen

>  <s_i_glide_gridfile>  (1) 
gpcr_5ht2c_6bqh_protein_autoprepared_prepared

>  <s_lp_Force_Field>  (1) 
S-OPLS

>  <s_lp_Variant>  (1) 
DiffSBDD_14-4

>  <s_m_source_file>  (1) 
generated_GPCR_5HT2C_ligand_DiffSBDD_2026-06-23_prepared.sdf

>  <GenAI_Model>  (1) 
DiffSBDD

>  <Protein>  (1) 
GPCR_5HT2C

$$$$
DiffSBDD_20
     RDKit          3D

  0  0  0  0  0  0  0  0  0  0999 V3000
M  V30 BEGIN CTAB
M  V30 COUNTS 52 53 0 0 1
M  V30 BEGIN ATOM
M  V30 1 C 39.104538 26.853554 55.473364 0 CFG=2
M  V30 2 O 37.245185 27.828412 54.223466 0
M  V30 3 O 38.845155 27.737762 59.924325 0
M  V30 4 P 38.862976 27.145258 58.532588 0
M  V30 5 C 39.194466 26.811933 53.047311 0 CFG=1
M  V30 6 N 37.224999 31.691049 61.278907 0
M  V30 7 C 40.283437 28.193222 51.108530 0
M  V30 8 C 41.173149 30.538145 50.548939 0
M  V30 9 C 39.466739 28.256979 56.043132 0
M  V30 10 C 39.560749 29.791161 58.114112 0 CFG=2
M  V30 11 N 40.324092 26.137445 55.119705 0 CHG=1
M  V30 12 C 38.203786 26.799453 54.239249 0
M  V30 13 F 35.428470 31.908863 59.808385 0
M  V30 14 C 40.217355 29.413722 50.164974 0
M  V30 15 C 36.699818 31.499995 60.040303 0
M  V30 16 O 37.645264 26.320990 58.167735 0 CHG=-1
M  V30 17 O 40.147215 26.404628 58.211451 0 CHG=-1
M  V30 18 C 38.740735 30.467506 59.227844 0
M  V30 19 C 37.424294 30.893789 58.991657 0
M  V30 20 C 38.851945 28.591063 57.423955 0 CFG=2
M  V30 21 C 38.496854 31.281359 61.492424 0
M  V30 22 O 38.087810 28.537103 51.819964 0
M  V30 23 C 39.289160 30.670739 60.508947 0
M  V30 24 C 39.355139 28.200709 52.335211 0 CFG=1
M  V30 25 C 40.457806 26.138006 53.656183 0
M  V30 26 O 40.830751 29.337733 58.567843 0
M  V30 27 O 37.549776 25.549979 54.287413 0
M  V30 28 H 38.673892 26.174856 56.184199 0
M  V30 29 H 36.415192 27.434158 54.001791 0
M  V30 30 H 38.845406 26.141548 52.271898 0
M  V30 31 H 41.306949 28.138042 51.460066 0
M  V30 32 H 40.059813 27.301363 50.519507 0
M  V30 33 H 41.108761 31.337779 49.814806 0
M  V30 34 H 40.914387 30.961663 51.520993 0
M  V30 35 H 42.207927 30.199605 50.567822 0
M  V30 36 H 40.551957 28.324144 56.149420 0
M  V30 37 H 39.215333 29.047812 55.337681 0
M  V30 38 H 39.736274 30.560170 57.362130 0
M  V30 39 H 40.195523 25.186556 55.438980 0
M  V30 40 H 40.447199 29.085959 49.152382 0
M  V30 41 H 39.219657 29.829095 50.096561 0
M  V30 42 H 36.968459 30.758339 58.022711 0
M  V30 43 H 37.810698 28.849387 57.236188 0
M  V30 44 H 38.893271 31.446075 62.481997 0
M  V30 45 H 37.488364 28.519761 52.557980 0
M  V30 46 H 40.295487 30.355828 60.736523 0
M  V30 47 H 39.645348 28.982838 53.035803 0
M  V30 48 H 40.534982 25.101902 53.367787 0
M  V30 49 H 41.413866 26.537758 53.367739 0
M  V30 50 H 40.658648 28.646076 59.199942 0
M  V30 51 H 37.217568 25.416752 55.166250 0
M  V30 52 H 41.111370 26.519653 55.625930 0
M  V30 END ATOM
M  V30 BEGIN BOND
M  V30 1 2 4 3
M  V30 2 1 9 1
M  V30 3 1 11 1
M  V30 4 1 12 1
M  V30 5 1 12 2
M  V30 6 1 12 5
M  V30 7 1 14 7
M  V30 8 1 14 8
M  V30 9 2 15 6
M  V30 10 1 15 13
M  V30 11 1 16 4
M  V30 12 1 17 4
M  V30 13 1 18 10
M  V30 14 1 19 15
M  V30 15 2 19 18
M  V30 16 1 20 4
M  V30 17 1 20 9
M  V30 18 1 20 10
M  V30 19 1 21 6
M  V30 20 1 23 18
M  V30 21 2 23 21
M  V30 22 1 24 5
M  V30 23 1 24 7
M  V30 24 1 24 22
M  V30 25 1 25 5
M  V30 26 1 25 11
M  V30 27 1 26 10
M  V30 28 1 27 12
M  V30 29 1 1 28 CFG=1
M  V30 30 1 29 2
M  V30 31 1 5 30 CFG=3
M  V30 32 1 31 7
M  V30 33 1 32 7
M  V30 34 1 33 8
M  V30 35 1 34 8
M  V30 36 1 35 8
M  V30 37 1 36 9
M  V30 38 1 37 9
M  V30 39 1 10 38 CFG=3
M  V30 40 1 39 11
M  V30 41 1 40 14
M  V30 42 1 41 14
M  V30 43 1 42 19
M  V30 44 1 20 43 CFG=3
M  V30 45 1 44 21
M  V30 46 1 45 22
M  V30 47 1 46 23
M  V30 48 1 24 47 CFG=1
M  V30 49 1 48 25
M  V30 50 1 49 25
M  V30 51 1 50 26
M  V30 52 1 51 27
M  V30 53 1 52 11
M  V30 END BOND
M  V30 END CTAB
M  END
>  <i_epik_Tot_Q>  (1) 
-1

>  <i_epik_Tot_abs_Q>  (1) 
3

>  <i_i_glide_confnum>  (1) 
500

>  <i_i_glide_lignum>  (1) 
47

>  <i_i_glide_posenum>  (1) 
77

>  <i_i_glide_rotatable_bonds>  (1) 
12

>  <i_lp_mmshare_version>  (1) 
72125

>  <i_m_source_file_index>  (1) 
21

>  <i_f3d_flags>  (1) 
0

>  <num_sample>  (1) 
100

>  <b_lp_Chiralities_Consistent>  (1) 
1

>  <r_epik_Charging_Adjusted_Penalty>  (1) 
0.6119073465235404

>  <r_epik_Ionization_Penalty>  (1) 
0.30667552727884728

>  <r_epik_Ionization_Penalty_Charging>  (1) 
0.30666936404430589

>  <r_epik_Ionization_Penalty_Neutral>  (1) 
6.1632345413695363e-06

>  <r_epik_State_Penalty>  (1) 
0.3052379824792345

>  <r_glide_ring_energy>  (1) 
2.1684758099838057

>  <r_i_docking_score>  (1) 
-4.1453908557847958

>  <r_i_glide_ecoul>  (1) 
-1.5288926302211556

>  <r_i_glide_eff_state_penalty>  (1) 
0.3052379824792345

>  <r_i_glide_einternal>  (1) 
17.764468380360533

>  <r_i_glide_emodel>  (1) 
-26.105675726820792

>  <r_i_glide_emodel_strain>  (1) 
6.8555767224591904

>  <r_i_glide_energy>  (1) 
-25.979359060599219

>  <r_i_glide_erotb>  (1) 
0.59271143775516177

>  <r_i_glide_esite>  (1) 
-0.10000000000000001

>  <r_i_glide_evdw>  (1) 
-24.450466430378064

>  <r_i_glide_gscore>  (1) 
-4.4506288382640307

>  <r_i_glide_gscore_strain>  (1) 
0.71389418061479759

>  <r_i_glide_hbond>  (1) 
-0.13585041118001026

>  <r_i_glide_ligand_efficiency>  (1) 
-0.15353299465869613

>  <r_i_glide_ligand_efficiency_ln>  (1) 
-0.96497864911721676

>  <r_i_glide_ligand_efficiency_sa>  (1) 
-0.46059898397608851

>  <r_i_glide_lipo>  (1) 
-2.3877395706191109

>  <r_i_glide_metal>  (1) 
-0

>  <r_i_glide_rewards>  (1) 
-1.6817872587827918

>  <r_lp_Energy>  (1) 
8.2369690000000002

>  <s_epik_cmdline>  (1) 
J2VwaWtfcHl0aG9uJywgJy1waHQnLCAnMS4wJywgJy1waCcsICc3LjQnLCAnLXRuJywgJzgnLCAnLW1hJywgJzUwMCcsICctaW1hZScsICc8aW5maWxlLm1hZT4nLCAnLW9tYWUnLCAnPG91dGZpbGUubWFlPic=

>  <s_epik_input>  (1) 
W0NIM11bQ0gyXVtDSDJdW0NAQEhdKFtPSF0pW0NASF0xW0NIMl1bTkhdW0NASF0oQzEoW09IXSlbT0hdKVtDSDJdW0NAQEhdKFAoPU8pKFtPSF0pW09IXSlbQ0BIXShbT0hdKWMoW2NIXTIpW2NIXVtjSF1uYzJG

>  <s_glide_docking_method>  (1) 
confgen

>  <s_i_glide_gridfile>  (1) 
gpcr_5ht2c_6bqh_protein_autoprepared_prepared

>  <s_lp_Force_Field>  (1) 
S-OPLS

>  <s_lp_Variant>  (1) 
DiffSBDD_20-1

>  <s_m_source_file>  (1) 
generated_GPCR_5HT2C_ligand_DiffSBDD_2026-06-23_prepared.sdf

>  <GenAI_Model>  (1) 
DiffSBDD

>  <Protein>  (1) 
GPCR_5HT2C

$$$$
DiffSBDD_14
     RDKit          3D

  0  0  0  0  0  0  0  0  0  0999 V3000
M  V30 BEGIN CTAB
M  V30 COUNTS 49 48 0 0 1
M  V30 BEGIN ATOM
M  V30 1 C 38.219337 27.479418 58.214465 0
M  V30 2 C 38.470128 28.209651 52.887452 0
M  V30 3 C 38.502083 28.778439 58.950942 0
M  V30 4 C 38.015907 26.476003 54.670948 0
M  V30 5 O 35.245414 32.937707 61.279936 0 CHG=-1
M  V30 6 N 36.777440 33.541025 58.965422 0 CHG=1
M  V30 7 C 39.160395 26.732334 57.627498 0
M  V30 8 C 36.581585 32.174496 59.465436 0 CFG=2
M  V30 9 C 38.908319 28.650952 51.507349 0
M  V30 10 C 40.508518 26.185218 55.087559 0
M  V30 11 C 39.107322 25.618069 55.356397 0 CFG=1
M  V30 12 C 36.266460 32.288782 60.967548 0
M  V30 13 C 39.973848 29.749503 51.560067 0
M  V30 14 O 37.051843 31.737755 61.767755 0
M  V30 15 C 37.774731 31.249226 59.084971 0
M  V30 16 O 36.845136 29.737756 57.500873 0
M  V30 17 C 40.351089 30.281613 50.172712 0
M  V30 18 C 38.437673 26.929019 53.284337 0
M  V30 19 C 38.870467 25.450153 56.872167 0
M  V30 20 C 37.344350 29.791089 58.823393 0 CFG=1
M  V30 21 H 37.189641 27.163612 58.167759 0
M  V30 22 H 38.173838 28.989971 53.573755 0
M  V30 23 H 39.421564 29.206294 58.548308 0
M  V30 24 H 38.688894 28.564634 60.003667 0
M  V30 25 H 37.091256 25.904782 54.594533 0
M  V30 26 H 37.788139 27.357470 55.271602 0
M  V30 27 H 35.992074 34.094535 59.278311 0
M  V30 28 H 37.631742 33.920367 59.344034 0
M  V30 29 H 40.194025 27.043368 57.674359 0
M  V30 30 H 35.678514 31.805530 58.981896 0
M  V30 31 H 39.283228 27.793302 50.946430 0
M  V30 32 H 38.045095 29.009356 50.967793 0
M  V30 33 H 40.535031 27.259297 55.274273 0
M  V30 34 H 41.245125 25.737758 55.744570 0
M  V30 35 H 40.835487 26.012831 54.061451 0
M  V30 36 H 39.071300 24.620224 54.917071 0
M  V30 37 H 39.645027 30.580403 52.185593 0
M  V30 38 H 40.849682 29.337725 52.046772 0
M  V30 39 H 38.553934 31.274469 59.846940 0
M  V30 40 H 38.272208 31.629992 58.191244 0
M  V30 41 H 36.203695 30.438810 57.367754 0
M  V30 42 H 41.198785 30.963925 50.235716 0
M  V30 43 H 40.622964 29.472246 49.495668 0
M  V30 44 H 39.520015 30.826867 49.725133 0
M  V30 45 H 38.731754 26.154953 52.596001 0
M  V30 46 H 39.519185 24.668893 57.270993 0
M  V30 47 H 37.845239 25.126976 57.058246 0
M  V30 48 H 36.545009 29.502085 59.507651 0
M  V30 49 H 36.804219 33.523037 57.955262 0
M  V30 END ATOM
M  V30 BEGIN BOND
M  V30 1 1 3 1
M  V30 2 2 7 1
M  V30 3 1 8 6
M  V30 4 1 9 2
M  V30 5 1 11 4
M  V30 6 1 11 10
M  V30 7 1 12 5
M  V30 8 1 12 8
M  V30 9 1 13 9
M  V30 10 2 14 12
M  V30 11 1 15 8
M  V30 12 1 17 13
M  V30 13 2 18 2
M  V30 14 1 18 4
M  V30 15 1 19 7
M  V30 16 1 19 11
M  V30 17 1 20 3
M  V30 18 1 20 15
M  V30 19 1 20 16
M  V30 20 1 21 1
M  V30 21 1 22 2
M  V30 22 1 23 3
M  V30 23 1 24 3
M  V30 24 1 25 4
M  V30 25 1 26 4
M  V30 26 1 27 6
M  V30 27 1 28 6
M  V30 28 1 29 7
M  V30 29 1 8 30 CFG=3
M  V30 30 1 31 9
M  V30 31 1 32 9
M  V30 32 1 33 10
M  V30 33 1 34 10
M  V30 34 1 35 10
M  V30 35 1 11 36 CFG=3
M  V30 36 1 37 13
M  V30 37 1 38 13
M  V30 38 1 39 15
M  V30 39 1 40 15
M  V30 40 1 41 16
M  V30 41 1 42 17
M  V30 42 1 43 17
M  V30 43 1 44 17
M  V30 44 1 45 18
M  V30 45 1 46 19
M  V30 46 1 47 19
M  V30 47 1 20 48 CFG=1
M  V30 48 1 49 6
M  V30 END BOND
M  V30 END CTAB
M  END
>  <i_epik_Tot_Q>  (1) 
0

>  <i_epik_Tot_abs_Q>  (1) 
2

>  <i_i_glide_confnum>  (1) 
629

>  <i_i_glide_lignum>  (1) 
28

>  <i_i_glide_posenum>  (1) 
190

>  <i_i_glide_rotatable_bonds>  (1) 
12

>  <i_lp_mmshare_version>  (1) 
72125

>  <i_m_source_file_index>  (1) 
15

>  <i_f3d_flags>  (1) 
0

>  <num_sample>  (1) 
100

>  <b_lp_Chiralities_Consistent>  (1) 
1

>  <r_epik_Charging_Adjusted_Penalty>  (1) 
0.00991281995240933

>  <r_epik_Ionization_Penalty>  (1) 
0.0049587358016132182

>  <r_epik_Ionization_Penalty_Charging>  (1) 
0.0049586922537287062

>  <r_epik_Ionization_Penalty_Neutral>  (1) 
4.3547884512074136e-08

>  <r_epik_State_Penalty>  (1) 
0.0049541276986806238

>  <r_glide_ring_energy>  (1) 
0

>  <r_i_docking_score>  (1) 
-4.1090931105388648

>  <r_i_glide_ecoul>  (1) 
-9.0403115599815731

>  <r_i_glide_eff_state_penalty>  (1) 
0.0049541276986806238

>  <r_i_glide_einternal>  (1) 
8.1815786230256826

>  <r_i_glide_emodel>  (1) 
-37.423911300674099

>  <r_i_glide_emodel_strain>  (1) 
2.6579258961475336

>  <r_i_glide_energy>  (1) 
-33.413034445604318

>  <r_i_glide_erotb>  (1) 
4.0583376510001772

>  <r_i_glide_esite>  (1) 
-0.10772116211778521

>  <r_i_glide_evdw>  (1) 
-24.372722885622743

>  <r_i_glide_gscore>  (1) 
-4.1140472382375455

>  <r_i_glide_gscore_strain>  (1) 
0

>  <r_i_glide_hbond>  (1) 
-0.32000000000000001

>  <r_i_glide_ligand_efficiency>  (1) 
-0.20545465552694325

>  <r_i_glide_ligand_efficiency_ln>  (1) 
-1.0283704786066774

>  <r_i_glide_ligand_efficiency_sa>  (1) 
-0.55768973637377284

>  <r_i_glide_lipo>  (1) 
-3.3331229389152495

>  <r_i_glide_metal>  (1) 
-0

>  <r_i_glide_rewards>  (1) 
-1.8368579099263156

>  <r_lp_Energy>  (1) 
-4.2601749999999994

>  <s_epik_cmdline>  (1) 
J2VwaWtfcHl0aG9uJywgJy1waHQnLCAnMS4wJywgJy1waCcsICc3LjQnLCAnLXRuJywgJzgnLCAnLW1hJywgJzUwMCcsICctaW1hZScsICc8aW5maWxlLm1hZT4nLCAnLW9tYWUnLCAnPG91dGZpbGUubWFlPic=

>  <s_epik_input>  (1) 
W09IXUMoPU8pW0NAQEhdKFtOSDJdKVtDSDJdW0NAQEhdKFtPSF0pW0NIMl0vW0NIXT1bQ0hdL1tDSDJdW0NAQEhdKFtDSDNdKVtDSDJdXFtDSF09W0NIXVxbQ0gyXVtDSDJdW0NIM10=

>  <s_glide_docking_method>  (1) 
confgen

>  <s_i_glide_gridfile>  (1) 
gpcr_5ht2c_6bqh_protein_autoprepared_prepared

>  <s_lp_Force_Field>  (1) 
S-OPLS

>  <s_lp_Variant>  (1) 
DiffSBDD_14-6

>  <s_m_source_file>  (1) 
generated_GPCR_5HT2C_ligand_DiffSBDD_2026-06-23_prepared.sdf

>  <GenAI_Model>  (1) 
DiffSBDD

>  <Protein>  (1) 
GPCR_5HT2C

$$$$
DiffSBDD_14
     RDKit          3D

  0  0  0  0  0  0  0  0  0  0999 V3000
M  V30 BEGIN CTAB
M  V30 COUNTS 49 48 0 0 1
M  V30 BEGIN ATOM
M  V30 1 C 39.028189 27.784918 58.569989 0
M  V30 2 C 38.644823 28.208713 52.041341 0
M  V30 3 C 38.815093 29.210040 58.074511 0
M  V30 4 C 37.988111 26.819966 54.045836 0
M  V30 5 O 38.178213 33.416605 61.072444 0 CHG=-1
M  V30 6 N 36.713800 33.706274 58.786984 0 CHG=1
M  V30 7 C 38.636276 26.675906 57.910080 0
M  V30 8 C 36.851489 32.371214 59.390971 0 CFG=2
M  V30 9 C 39.486427 28.522722 50.823198 0
M  V30 10 C 39.751304 25.468149 55.300186 0
M  V30 11 C 38.826146 26.694074 55.337840 0 CFG=2
M  V30 12 C 37.332321 32.521754 60.841426 0
M  V30 13 C 40.382268 29.735696 51.076767 0
M  V30 14 O 36.844887 31.737963 61.685778 0
M  V30 15 C 37.828101 31.500615 58.566359 0
M  V30 16 O 36.477695 29.523110 58.567885 0
M  V30 17 C 40.827055 30.439783 49.794793 0
M  V30 18 C 38.826968 27.131428 52.818765 0
M  V30 19 C 37.906706 26.676812 56.575801 0
M  V30 20 C 37.771876 29.995488 58.889089 0 CFG=1
M  V30 21 H 39.533760 27.680652 59.519643 0
M  V30 22 H 37.859348 28.911472 52.278830 0
M  V30 23 H 38.576204 29.246576 57.012200 0
M  V30 24 H 39.781949 29.703020 58.169111 0
M  V30 25 H 37.426620 25.903819 53.860367 0
M  V30 26 H 37.248406 27.613826 54.168301 0
M  V30 27 H 36.044107 34.236466 59.323243 0
M  V30 28 H 37.608255 34.172732 58.819493 0
M  V30 29 H 38.842157 25.706204 58.340669 0
M  V30 30 H 35.855547 31.926020 59.382224 0
M  V30 31 H 40.098253 27.661119 50.560601 0
M  V30 32 H 38.844495 28.701301 49.967275 0
M  V30 33 H 39.187189 24.538778 55.221257 0
M  V30 34 H 40.428492 25.522819 54.449380 0
M  V30 35 H 40.373154 25.407409 56.193953 0
M  V30 36 H 39.455906 27.583137 55.406456 0
M  V30 37 H 39.873501 30.463385 51.710488 0
M  V30 38 H 41.245134 29.391210 51.637417 0
M  V30 39 H 38.845517 31.858168 58.725355 0
M  V30 40 H 37.645500 31.640738 57.499256 0
M  V30 41 H 36.145595 30.013438 57.824339 0
M  V30 42 H 41.606168 31.172005 50.005814 0
M  V30 43 H 41.212847 29.743149 49.050989 0
M  V30 44 H 39.980171 30.974695 49.367999 0
M  V30 45 H 39.611403 26.431238 52.577157 0
M  V30 46 H 37.247735 25.807690 56.543330 0
M  V30 47 H 37.245147 27.536404 56.557916 0
M  V30 48 H 37.951735 29.828508 59.952430 0
M  V30 49 H 36.397090 33.593131 57.833416 0
M  V30 END ATOM
M  V30 BEGIN BOND
M  V30 1 1 3 1
M  V30 2 2 7 1
M  V30 3 1 8 6
M  V30 4 1 9 2
M  V30 5 1 11 4
M  V30 6 1 11 10
M  V30 7 1 12 5
M  V30 8 1 12 8
M  V30 9 1 13 9
M  V30 10 2 14 12
M  V30 11 1 15 8
M  V30 12 1 17 13
M  V30 13 2 18 2
M  V30 14 1 18 4
M  V30 15 1 19 7
M  V30 16 1 19 11
M  V30 17 1 20 3
M  V30 18 1 20 15
M  V30 19 1 20 16
M  V30 20 1 21 1
M  V30 21 1 22 2
M  V30 22 1 23 3
M  V30 23 1 24 3
M  V30 24 1 25 4
M  V30 25 1 26 4
M  V30 26 1 27 6
M  V30 27 1 28 6
M  V30 28 1 29 7
M  V30 29 1 8 30 CFG=1
M  V30 30 1 31 9
M  V30 31 1 32 9
M  V30 32 1 33 10
M  V30 33 1 34 10
M  V30 34 1 35 10
M  V30 35 1 11 36 CFG=1
M  V30 36 1 37 13
M  V30 37 1 38 13
M  V30 38 1 39 15
M  V30 39 1 40 15
M  V30 40 1 41 16
M  V30 41 1 42 17
M  V30 42 1 43 17
M  V30 43 1 44 17
M  V30 44 1 45 18
M  V30 45 1 46 19
M  V30 46 1 47 19
M  V30 47 1 20 48 CFG=1
M  V30 48 1 49 6
M  V30 END BOND
M  V30 END CTAB
M  END
>  <i_epik_Tot_Q>  (1) 
0

>  <i_epik_Tot_abs_Q>  (1) 
2

>  <i_i_glide_confnum>  (1) 
879

>  <i_i_glide_lignum>  (1) 
23

>  <i_i_glide_posenum>  (1) 
132

>  <i_i_glide_rotatable_bonds>  (1) 
12

>  <i_lp_mmshare_version>  (1) 
72125

>  <i_m_source_file_index>  (1) 
15

>  <i_f3d_flags>  (1) 
0

>  <num_sample>  (1) 
100

>  <b_lp_Chiralities_Consistent>  (1) 
1

>  <r_epik_Charging_Adjusted_Penalty>  (1) 
0.00991281995240933

>  <r_epik_Ionization_Penalty>  (1) 
0.0049587358016132182

>  <r_epik_Ionization_Penalty_Charging>  (1) 
0.0049586922537287062

>  <r_epik_Ionization_Penalty_Neutral>  (1) 
4.3547884512074136e-08

>  <r_epik_State_Penalty>  (1) 
0.0049541276986806238

>  <r_glide_ring_energy>  (1) 
0

>  <r_i_docking_score>  (1) 
-4.0923240091461848

>  <r_i_glide_ecoul>  (1) 
-6.8552791312928392

>  <r_i_glide_eff_state_penalty>  (1) 
0.0049541276986806238

>  <r_i_glide_einternal>  (1) 
5.2853674302049498

>  <r_i_glide_emodel>  (1) 
-43.330995256411285

>  <r_i_glide_emodel_strain>  (1) 
0.92128168141896349

>  <r_i_glide_energy>  (1) 
-35.129767366640053

>  <r_i_glide_erotb>  (1) 
4.0583376510001772

>  <r_i_glide_esite>  (1) 
-0.074384172567400111

>  <r_i_glide_evdw>  (1) 
-28.274488235347214

>  <r_i_glide_gscore>  (1) 
-4.0972781368448654

>  <r_i_glide_gscore_strain>  (1) 
0

>  <r_i_glide_hbond>  (1) 
-0.32830870219837149

>  <r_i_glide_ligand_efficiency>  (1) 
-0.20461620045730924

>  <r_i_glide_ligand_efficiency_ln>  (1) 
-1.0241737256100696

>  <r_i_glide_ligand_efficiency_sa>  (1) 
-0.55541381916203503

>  <r_i_glide_lipo>  (1) 
-3.3077224799816549

>  <r_i_glide_metal>  (1) 
-0

>  <r_i_glide_rewards>  (1) 
-2.0031841516363302

>  <r_lp_Energy>  (1) 
-4.478593

>  <s_epik_cmdline>  (1) 
J2VwaWtfcHl0aG9uJywgJy1waHQnLCAnMS4wJywgJy1waCcsICc3LjQnLCAnLXRuJywgJzgnLCAnLW1hJywgJzUwMCcsICctaW1hZScsICc8aW5maWxlLm1hZT4nLCAnLW9tYWUnLCAnPG91dGZpbGUubWFlPic=

>  <s_epik_input>  (1) 
W09IXUMoPU8pW0NAQEhdKFtOSDJdKVtDSDJdW0NAQEhdKFtPSF0pW0NIMl0vW0NIXT1bQ0hdXFtDSDJdW0NAQEhdKFtDSDNdKVtDSDJdXFtDSF09W0NIXVxbQ0gyXVtDSDJdW0NIM10=

>  <s_glide_docking_method>  (1) 
confgen

>  <s_i_glide_gridfile>  (1) 
gpcr_5ht2c_6bqh_protein_autoprepared_prepared

>  <s_lp_Force_Field>  (1) 
S-OPLS

>  <s_lp_Variant>  (1) 
DiffSBDD_14-1

>  <s_m_source_file>  (1) 
generated_GPCR_5HT2C_ligand_DiffSBDD_2026-06-23_prepared.sdf

>  <GenAI_Model>  (1) 
DiffSBDD

>  <Protein>  (1) 
GPCR_5HT2C

$$$$
DiffSBDD_14
     RDKit          3D

  0  0  0  0  0  0  0  0  0  0999 V3000
M  V30 BEGIN CTAB
M  V30 COUNTS 49 48 0 0 1
M  V30 BEGIN ATOM
M  V30 1 C 39.226873 29.729412 56.736050 0
M  V30 2 C 39.086824 29.337815 52.636181 0
M  V30 3 C 37.791840 30.121708 57.049135 0
M  V30 4 C 38.014182 27.291147 53.718708 0
M  V30 5 O 38.244194 32.292700 62.167760 0 CHG=-1
M  V30 6 N 36.845147 32.729515 58.967762 0 CHG=1
M  V30 7 C 39.616161 28.486944 56.387395 0
M  V30 8 C 37.288330 31.837874 60.051269 0 CFG=2
M  V30 9 C 39.722946 28.593821 51.473690 0
M  V30 10 C 38.102163 25.169934 55.095927 0
M  V30 11 C 38.720999 26.564905 54.897596 0 CFG=2
M  V30 12 C 38.228293 32.622921 60.967975 0
M  V30 13 C 39.929049 29.546321 50.287130 0
M  V30 14 O 38.918633 33.529573 60.446086 0
M  V30 15 C 38.038550 30.569110 59.573446 0
M  V30 16 O 35.976062 29.737755 58.567763 0
M  V30 17 C 41.088114 30.537759 50.456453 0
M  V30 18 C 38.341141 28.773798 53.605479 0
M  V30 19 C 38.675719 27.294524 56.260596 0
M  V30 20 C 37.379963 29.716830 58.471652 0 CFG=1
M  V30 21 H 39.964292 30.515169 56.805738 0
M  V30 22 H 39.258198 30.403899 52.668384 0
M  V30 23 H 37.116240 29.661374 56.331447 0
M  V30 24 H 37.680485 31.193313 56.887804 0
M  V30 25 H 38.219062 26.755534 52.795056 0
M  V30 26 H 36.933887 27.230514 53.853916 0
M  V30 27 H 36.334728 33.501627 59.368693 0
M  V30 28 H 37.667176 33.094026 58.508326 0
M  V30 29 H 40.660344 28.298050 56.181396 0
M  V30 30 H 36.398328 31.542446 60.609033 0
M  V30 31 H 40.675425 28.156059 51.767756 0
M  V30 32 H 39.079404 27.779162 51.146216 0
M  V30 33 H 37.084743 25.242533 55.482273 0
M  V30 34 H 38.045008 24.613062 54.167779 0
M  V30 35 H 38.683809 24.573223 55.799636 0
M  V30 36 H 39.768004 26.426334 54.622080 0
M  V30 37 H 40.069890 28.973872 49.369944 0
M  V30 38 H 39.015338 30.122808 50.167763 0
M  V30 39 H 38.157217 29.925968 60.447489 0
M  V30 40 H 39.058458 30.816226 59.275167 0
M  V30 41 H 35.645066 30.369479 57.929884 0
M  V30 42 H 41.164381 31.192193 49.588157 0
M  V30 43 H 40.944512 31.175802 51.327864 0
M  V30 44 H 42.045034 30.034046 50.567765 0
M  V30 45 H 37.934787 29.404852 54.374874 0
M  V30 46 H 38.986624 26.602974 57.044658 0
M  V30 47 H 37.645131 27.548142 56.498036 0
M  V30 48 H 37.676588 28.679564 58.631471 0
M  V30 49 H 36.257333 32.240949 58.296795 0
M  V30 END ATOM
M  V30 BEGIN BOND
M  V30 1 1 3 1
M  V30 2 2 7 1
M  V30 3 1 8 6
M  V30 4 1 9 2
M  V30 5 1 11 4
M  V30 6 1 11 10
M  V30 7 1 12 5
M  V30 8 1 12 8
M  V30 9 1 13 9
M  V30 10 2 14 12
M  V30 11 1 15 8
M  V30 12 1 17 13
M  V30 13 2 18 2
M  V30 14 1 18 4
M  V30 15 1 19 7
M  V30 16 1 19 11
M  V30 17 1 20 3
M  V30 18 1 20 15
M  V30 19 1 20 16
M  V30 20 1 21 1
M  V30 21 1 22 2
M  V30 22 1 23 3
M  V30 23 1 24 3
M  V30 24 1 25 4
M  V30 25 1 26 4
M  V30 26 1 27 6
M  V30 27 1 28 6
M  V30 28 1 29 7
M  V30 29 1 8 30 CFG=1
M  V30 30 1 31 9
M  V30 31 1 32 9
M  V30 32 1 33 10
M  V30 33 1 34 10
M  V30 34 1 35 10
M  V30 35 1 11 36 CFG=3
M  V30 36 1 37 13
M  V30 37 1 38 13
M  V30 38 1 39 15
M  V30 39 1 40 15
M  V30 40 1 41 16
M  V30 41 1 42 17
M  V30 42 1 43 17
M  V30 43 1 44 17
M  V30 44 1 45 18
M  V30 45 1 46 19
M  V30 46 1 47 19
M  V30 47 1 20 48 CFG=1
M  V30 48 1 49 6
M  V30 END BOND
M  V30 END CTAB
M  END
>  <i_epik_Tot_Q>  (1) 
0

>  <i_epik_Tot_abs_Q>  (1) 
2

>  <i_i_glide_confnum>  (1) 
611

>  <i_i_glide_lignum>  (1) 
25

>  <i_i_glide_posenum>  (1) 
115

>  <i_i_glide_rotatable_bonds>  (1) 
12

>  <i_lp_mmshare_version>  (1) 
72125

>  <i_m_source_file_index>  (1) 
15

>  <i_f3d_flags>  (1) 
0

>  <num_sample>  (1) 
100

>  <b_lp_Chiralities_Consistent>  (1) 
1

>  <r_epik_Charging_Adjusted_Penalty>  (1) 
0.00991281995240933

>  <r_epik_Ionization_Penalty>  (1) 
0.0049587358016132182

>  <r_epik_Ionization_Penalty_Charging>  (1) 
0.0049586922537287062

>  <r_epik_Ionization_Penalty_Neutral>  (1) 
4.3547884512074136e-08

>  <r_epik_State_Penalty>  (1) 
0.0049541276986806238

>  <r_glide_ring_energy>  (1) 
0

>  <r_i_docking_score>  (1) 
-4.0769650822209158

>  <r_i_glide_ecoul>  (1) 
-8.7917848147132371

>  <r_i_glide_eff_state_penalty>  (1) 
0.0049541276986806238

>  <r_i_glide_einternal>  (1) 
9.5146830100774906

>  <r_i_glide_emodel>  (1) 
-38.178758652125694

>  <r_i_glide_emodel_strain>  (1) 
2.1540831484358272

>  <r_i_glide_energy>  (1) 
-34.848985451389822

>  <r_i_glide_erotb>  (1) 
4.0583376510001772

>  <r_i_glide_esite>  (1) 
-0.10000000000000001

>  <r_i_glide_evdw>  (1) 
-26.057200636676583

>  <r_i_glide_gscore>  (1) 
-4.0819192099195964

>  <r_i_glide_gscore_strain>  (1) 
0

>  <r_i_glide_hbond>  (1) 
-0.35999999999999999

>  <r_i_glide_ligand_efficiency>  (1) 
-0.20384825411104579

>  <r_i_glide_ligand_efficiency_ln>  (1) 
-1.0203298927719882

>  <r_i_glide_ligand_efficiency_sa>  (1) 
-0.55332929207113779

>  <r_i_glide_lipo>  (1) 
-2.8176303657375952

>  <r_i_glide_metal>  (1) 
-0

>  <r_i_glide_rewards>  (1) 
-2.2409987411413645

>  <r_lp_Energy>  (1) 
-2.0844119999999999

>  <s_epik_cmdline>  (1) 
J2VwaWtfcHl0aG9uJywgJy1waHQnLCAnMS4wJywgJy1waCcsICc3LjQnLCAnLXRuJywgJzgnLCAnLW1hJywgJzUwMCcsICctaW1hZScsICc8aW5maWxlLm1hZT4nLCAnLW9tYWUnLCAnPG91dGZpbGUubWFlPic=

>  <s_epik_input>  (1) 
W09IXUMoPU8pW0NAQEhdKFtOSDJdKVtDSDJdW0NAQEhdKFtPSF0pW0NIMl0vW0NIXT1bQ0hdXFtDSDJdW0NAQEhdKFtDSDNdKVtDSDJdL1tDSF09W0NIXVxbQ0gyXVtDSDJdW0NIM10=

>  <s_glide_docking_method>  (1) 
confgen

>  <s_i_glide_gridfile>  (1) 
gpcr_5ht2c_6bqh_protein_autoprepared_prepared

>  <s_lp_Force_Field>  (1) 
S-OPLS

>  <s_lp_Variant>  (1) 
DiffSBDD_14-3

>  <s_m_source_file>  (1) 
generated_GPCR_5HT2C_ligand_DiffSBDD_2026-06-23_prepared.sdf

>  <GenAI_Model>  (1) 
DiffSBDD

>  <Protein>  (1) 
GPCR_5HT2C

$$$$
DiffSBDD_36
     RDKit          3D

  0  0  0  0  0  0  0  0  0  0999 V3000
M  V30 BEGIN CTAB
M  V30 COUNTS 49 49 0 0 1
M  V30 BEGIN ATOM
M  V30 1 C 39.645183 30.172391 56.210788 0
M  V30 2 C 39.206135 27.823214 59.177730 0
M  V30 3 C 40.963853 28.500146 57.631352 0
M  V30 4 C 37.245169 28.593822 57.767261 0
M  V30 5 C 38.956838 31.778048 61.843663 0
M  V30 6 C 38.663934 28.929941 58.238615 0 CFG=1
M  V30 7 C 40.601156 27.440203 58.659121 0
M  V30 8 C 39.907112 30.294095 52.099320 0
M  V30 9 C 39.213413 30.313047 54.940384 0
M  V30 10 C 38.609452 29.205444 54.080721 0
M  V30 11 O 37.858615 31.337776 62.166620 0
M  V30 12 C 37.785443 31.229891 58.923133 0
M  V30 13 C 37.869091 32.572437 59.641809 0
M  V30 14 C 38.746182 30.281920 58.959577 0
M  V30 15 C 39.615532 28.877285 57.020846 0 CFG=1
M  V30 16 C 40.460221 30.167248 50.674114 0
M  V30 17 S 40.503316 31.430057 62.568760 0 CHG=-1
M  V30 18 C 39.016575 32.745589 60.664585 0
M  V30 19 C 38.185317 28.360874 51.768088 0
M  V30 20 C 39.244186 29.011996 52.674860 0 CFG=1
M  V30 21 H 40.045205 31.035474 56.716976 0
M  V30 22 H 38.565874 26.940440 59.179554 0
M  V30 23 H 39.254907 28.163400 60.214137 0
M  V30 24 H 41.682520 28.138448 56.894427 0
M  V30 25 H 41.407329 29.337815 58.167867 0
M  V30 26 H 37.226209 27.579902 57.367431 0
M  V30 27 H 36.513009 28.662000 58.567739 0
M  V30 28 H 36.924371 29.273939 56.975864 0
M  V30 29 H 40.566441 26.460056 58.181700 0
M  V30 30 H 41.347970 27.405453 59.449050 0
M  V30 31 H 39.245197 31.151496 52.158425 0
M  V30 32 H 40.739970 30.570599 52.742940 0
M  V30 33 H 39.286276 31.285035 54.475755 0
M  V30 34 H 38.532140 28.239852 54.569660 0
M  V30 35 H 37.574486 29.523733 53.952969 0
M  V30 36 H 36.885222 31.055939 58.352966 0
M  V30 37 H 37.944850 33.348130 58.879206 0
M  V30 38 H 36.912996 32.739043 60.139481 0
M  V30 39 H 39.644849 30.459676 59.528387 0
M  V30 40 H 39.338917 28.026520 56.406924 0
M  V30 41 H 40.996396 31.071673 50.385179 0
M  V30 42 H 41.160632 29.337757 50.606066 0
M  V30 43 H 39.667800 30.015959 49.941007 0
M  V30 44 H 39.974672 32.687326 60.147179 0
M  V30 45 H 38.967646 33.755362 61.073819 0
M  V30 46 H 37.263271 28.937725 51.767810 0
M  V30 47 H 38.522589 28.228961 50.741052 0
M  V30 48 H 37.924793 27.369683 52.141303 0
M  V30 49 H 40.041656 28.274636 52.734259 0
M  V30 END ATOM
M  V30 BEGIN BOND
M  V30 1 1 6 2
M  V30 2 1 6 4 CFG=3
M  V30 3 1 7 2
M  V30 4 1 7 3
M  V30 5 2 9 1
M  V30 6 1 10 9
M  V30 7 2 11 5
M  V30 8 1 13 12
M  V30 9 1 14 6
M  V30 10 2 14 12
M  V30 11 1 15 1
M  V30 12 1 15 3
M  V30 13 1 15 6
M  V30 14 1 16 8
M  V30 15 1 17 5
M  V30 16 1 18 5
M  V30 17 1 18 13
M  V30 18 1 20 8
M  V30 19 1 20 10
M  V30 20 1 20 19
M  V30 21 1 21 1
M  V30 22 1 22 2
M  V30 23 1 23 2
M  V30 24 1 24 3
M  V30 25 1 25 3
M  V30 26 1 26 4
M  V30 27 1 27 4
M  V30 28 1 28 4
M  V30 29 1 29 7
M  V30 30 1 30 7
M  V30 31 1 31 8
M  V30 32 1 32 8
M  V30 33 1 33 9
M  V30 34 1 34 10
M  V30 35 1 35 10
M  V30 36 1 36 12
M  V30 37 1 37 13
M  V30 38 1 38 13
M  V30 39 1 39 14
M  V30 40 1 15 40 CFG=3
M  V30 41 1 41 16
M  V30 42 1 42 16
M  V30 43 1 43 16
M  V30 44 1 44 18
M  V30 45 1 45 18
M  V30 46 1 46 19
M  V30 47 1 47 19
M  V30 48 1 48 19
M  V30 49 1 20 49 CFG=1
M  V30 END BOND
M  V30 END CTAB
M  END
>  <i_epik_Tot_Q>  (1) 
-1

>  <i_epik_Tot_abs_Q>  (1) 
1

>  <i_i_glide_confnum>  (1) 
307

>  <i_i_glide_lignum>  (1) 
81

>  <i_i_glide_posenum>  (1) 
276

>  <i_i_glide_rotatable_bonds>  (1) 
8

>  <i_lp_mmshare_version>  (1) 
72125

>  <i_m_source_file_index>  (1) 
37

>  <i_f3d_flags>  (1) 
0

>  <num_sample>  (1) 
100

>  <b_lp_Chiralities_Consistent>  (1) 
1

>  <r_epik_Charging_Adjusted_Penalty>  (1) 
9.4165288777969193e-05

>  <r_epik_Ionization_Penalty>  (1) 
9.4165288777969193e-05

>  <r_epik_Ionization_Penalty_Charging>  (1) 
9.4165288777969193e-05

>  <r_epik_Ionization_Penalty_Neutral>  (1) 
0

>  <r_epik_State_Penalty>  (1) 
-0

>  <r_glide_ring_energy>  (1) 
0

>  <r_i_docking_score>  (1) 
-4.0658821111599099

>  <r_i_glide_ecoul>  (1) 
-2.9846371728825116

>  <r_i_glide_eff_state_penalty>  (1) 
-0

>  <r_i_glide_einternal>  (1) 
5.0651157183742832

>  <r_i_glide_emodel>  (1) 
-26.803326743406192

>  <r_i_glide_emodel_strain>  (1) 
1.9754728347919475

>  <r_i_glide_energy>  (1) 
-25.542642089150217

>  <r_i_glide_erotb>  (1) 
2.5456975872200465

>  <r_i_glide_esite>  (1) 
0

>  <r_i_glide_evdw>  (1) 
-22.558004916267706

>  <r_i_glide_gscore>  (1) 
-4.0658821111599099

>  <r_i_glide_gscore_strain>  (1) 
0

>  <r_i_glide_hbond>  (1) 
-0.2403549676594301

>  <r_i_glide_ligand_efficiency>  (1) 
-0.20329410555799549

>  <r_i_glide_ligand_efficiency_ln>  (1) 
-1.0175561906562685

>  <r_i_glide_ligand_efficiency_sa>  (1) 
-0.55182510147652752

>  <r_i_glide_lipo>  (1) 
-2.6078035247983213

>  <r_i_glide_metal>  (1) 
-0

>  <r_i_glide_rewards>  (1) 
-2.1878253841764428

>  <r_lp_Energy>  (1) 
16.069313999999999

>  <r_lp_tautomer_probability>  (1) 
1

>  <s_epik_cmdline>  (1) 
J2VwaWtfcHl0aG9uJywgJy1waHQnLCAnMS4wJywgJy1waCcsICc3LjQnLCAnLXRuJywgJzgnLCAnLW1hJywgJzUwMCcsICctaW1hZScsICc8aW5maWxlLm1hZT4nLCAnLW9tYWUnLCAnPG91dGZpbGUubWFlPic=

>  <s_epik_input>  (1) 
W0NIM11bQ0gyXVtDQEhdKFtDSDNdKVtDSDJdL1tDSF09W0NIXVxbQ0BIXTFbQ0gyXVtDSDJdW0NIMl1bQ0BAXTEoW0NIM10pXFtDSF09W0NIXVxbQ0gyXVtDSDJdQyg9TylbU0hd

>  <s_glide_docking_method>  (1) 
confgen

>  <s_i_glide_gridfile>  (1) 
gpcr_5ht2c_6bqh_protein_autoprepared_prepared

>  <s_lp_Force_Field>  (1) 
S-OPLS

>  <s_lp_Variant>  (1) 
DiffSBDD_36-2

>  <s_m_source_file>  (1) 
generated_GPCR_5HT2C_ligand_DiffSBDD_2026-06-23_prepared.sdf

>  <GenAI_Model>  (1) 
DiffSBDD

>  <Protein>  (1) 
GPCR_5HT2C

$$$$
DiffSBDD_21
     RDKit          3D

  0  0  0  0  0  0  0  0  0  0999 V3000
M  V30 BEGIN CTAB
M  V30 COUNTS 55 56 0 0 1
M  V30 BEGIN ATOM
M  V30 1 C 39.546793 28.331451 51.479700 0
M  V30 2 C 40.445092 29.428948 51.353946 0
M  V30 3 C 37.025139 37.078470 61.066760 0
M  V30 4 O 35.671265 34.537366 59.367773 0
M  V30 5 O 36.328349 29.737757 58.879468 0
M  V30 6 O 40.585232 31.988899 63.787194 0
M  V30 7 C 36.700932 30.912690 59.562197 0
M  V30 8 N 38.845136 27.420672 51.597363 0
M  V30 9 C 39.776093 30.757747 54.593673 0
M  V30 10 C 39.257931 30.756561 53.155826 0
M  V30 11 O 37.188165 35.702339 61.361524 0
M  V30 12 C 38.656766 31.173224 55.561436 0
M  V30 13 C 37.905143 35.026942 60.340976 0 CFG=2
M  V30 14 C 41.295817 32.729253 62.800853 0
M  V30 15 C 38.936820 31.294266 62.134281 0
M  V30 16 C 37.071787 34.399378 59.246857 0 CFG=1
M  V30 17 C 39.162611 31.418179 56.979383 0
M  V30 18 C 38.140495 31.319410 59.166982 0 CFG=1
M  V30 19 N 39.600037 32.087393 61.098920 0
M  V30 20 O 38.045137 31.708007 57.801860 0
M  V30 21 C 38.730776 32.509932 59.983423 0 CFG=2
M  V30 22 C 40.309505 33.204286 61.722188 0
M  V30 23 C 39.911659 30.856897 63.244953 0
M  V30 24 C 40.331323 30.536705 52.106844 0
M  V30 25 C 37.653693 33.532622 60.350187 0 CFG=1
M  V30 26 H 41.235515 29.344700 50.624375 0
M  V30 27 H 36.476370 37.564614 61.873483 0
M  V30 28 H 37.990286 37.576680 60.965365 0
M  V30 29 H 36.460222 37.219543 60.144252 0
M  V30 30 H 35.264706 33.931730 58.763491 0
M  V30 31 H 36.141928 30.004069 57.985611 0
M  V30 32 H 35.976712 31.692674 59.328483 0
M  V30 33 H 36.621543 30.716358 60.629517 0
M  V30 34 H 40.616534 31.445404 54.682093 0
M  V30 35 H 40.154630 29.770381 54.860375 0
M  V30 36 H 38.445158 30.037254 53.054608 0
M  V30 37 H 38.845137 31.745341 52.967760 0
M  V30 38 H 37.883954 30.403474 55.577145 0
M  V30 39 H 38.170550 32.083987 55.207673 0
M  V30 40 H 38.918531 35.383529 60.167758 0
M  V30 41 H 42.085170 32.115383 62.363974 0
M  V30 42 H 41.779176 33.582909 63.275932 0
M  V30 43 H 38.118892 31.866274 62.570863 0
M  V30 44 H 38.501685 30.394330 61.702360 0
M  V30 45 H 37.453521 34.338738 58.229316 0
M  V30 46 H 39.833876 32.274983 56.967763 0
M  V30 47 H 39.708248 30.537782 57.321593 0
M  V30 48 H 38.784412 30.444256 59.272664 0
M  V30 49 H 39.393266 33.026160 59.287458 0
M  V30 50 H 40.845139 33.778887 60.967755 0
M  V30 51 H 39.597669 33.887812 62.186714 0
M  V30 52 H 40.641792 30.146338 62.855133 0
M  V30 53 H 39.371534 30.351358 64.044972 0
M  V30 54 H 41.038696 31.337754 51.973054 0
M  V30 55 H 36.955526 33.188930 61.111401 0
M  V30 END ATOM
M  V30 BEGIN BOND
M  V30 1 1 2 1
M  V30 2 1 7 5
M  V30 3 3 8 1
M  V30 4 1 10 9
M  V30 5 1 11 3
M  V30 6 1 12 9
M  V30 7 1 13 11
M  V30 8 1 14 6
M  V30 9 1 16 4
M  V30 10 1 16 13
M  V30 11 1 17 12
M  V30 12 1 18 7
M  V30 13 1 19 15
M  V30 14 1 20 17
M  V30 15 1 20 18
M  V30 16 1 21 18
M  V30 17 1 21 19
M  V30 18 1 22 14
M  V30 19 1 22 19
M  V30 20 1 23 6
M  V30 21 1 23 15
M  V30 22 2 24 2
M  V30 23 1 24 10
M  V30 24 1 25 13
M  V30 25 1 25 16
M  V30 26 1 25 21
M  V30 27 1 26 2
M  V30 28 1 27 3
M  V30 29 1 28 3
M  V30 30 1 29 3
M  V30 31 1 30 4
M  V30 32 1 31 5
M  V30 33 1 32 7
M  V30 34 1 33 7
M  V30 35 1 34 9
M  V30 36 1 35 9
M  V30 37 1 36 10
M  V30 38 1 37 10
M  V30 39 1 38 12
M  V30 40 1 39 12
M  V30 41 1 13 40 CFG=3
M  V30 42 1 41 14
M  V30 43 1 42 14
M  V30 44 1 43 15
M  V30 45 1 44 15
M  V30 46 1 16 45 CFG=3
M  V30 47 1 46 17
M  V30 48 1 47 17
M  V30 49 1 18 48 CFG=3
M  V30 50 1 21 49 CFG=3
M  V30 51 1 50 22
M  V30 52 1 51 22
M  V30 53 1 52 23
M  V30 54 1 53 23
M  V30 55 1 54 24
M  V30 56 1 25 55 CFG=1
M  V30 END BOND
M  V30 END CTAB
M  END
>  <i_epik_Tot_Q>  (1) 
0

>  <i_epik_Tot_abs_Q>  (1) 
0

>  <i_i_glide_confnum>  (1) 
99

>  <i_i_glide_lignum>  (1) 
51

>  <i_i_glide_posenum>  (1) 
375

>  <i_i_glide_rotatable_bonds>  (1) 
13

>  <i_lp_mmshare_version>  (1) 
72125

>  <i_m_source_file_index>  (1) 
22

>  <i_f3d_flags>  (1) 
0

>  <num_sample>  (1) 
100

>  <b_lp_Chiralities_Consistent>  (1) 
1

>  <r_epik_Charging_Adjusted_Penalty>  (1) 
0.033214284747091018

>  <r_epik_Ionization_Penalty>  (1) 
0.033214513384273246

>  <r_epik_Ionization_Penalty_Charging>  (1) 
0

>  <r_epik_Ionization_Penalty_Neutral>  (1) 
0.033214513384273246

>  <r_epik_State_Penalty>  (1) 
0.033214284747091018

>  <r_glide_ring_energy>  (1) 
0

>  <r_i_docking_score>  (1) 
-4.0530136450002434

>  <r_i_glide_ecoul>  (1) 
-0.4329710007039278

>  <r_i_glide_eff_state_penalty>  (1) 
0.033214284747091018

>  <r_i_glide_einternal>  (1) 
7.2211266419555535

>  <r_i_glide_emodel>  (1) 
-42.3683238679167

>  <r_i_glide_emodel_strain>  (1) 
0.74655528700371576

>  <r_i_glide_energy>  (1) 
-35.751635122229445

>  <r_i_glide_erotb>  (1) 
1.5209836995870194

>  <r_i_glide_esite>  (1) 
0

>  <r_i_glide_evdw>  (1) 
-35.318664121525515

>  <r_i_glide_gscore>  (1) 
-4.0862279297473343

>  <r_i_glide_gscore_strain>  (1) 
0

>  <r_i_glide_hbond>  (1) 
-0.055114806749114828

>  <r_i_glide_ligand_efficiency>  (1) 
-0.16212054580000973

>  <r_i_glide_ligand_efficiency_ln>  (1) 
-0.96068569288285721

>  <r_i_glide_ligand_efficiency_sa>  (1) 
-0.47404335164797984

>  <r_i_glide_lipo>  (1) 
-1.9771051807279119

>  <r_i_glide_metal>  (1) 
-0

>  <r_i_glide_rewards>  (1) 
-1.7441127856754619

>  <r_lp_Energy>  (1) 
18.010252999999999

>  <s_epik_cmdline>  (1) 
J2VwaWtfcHl0aG9uJywgJy1waHQnLCAnMS4wJywgJy1waCcsICc3LjQnLCAnLXRuJywgJzgnLCAnLW1hJywgJzUwMCcsICctaW1hZScsICc8aW5maWxlLm1hZT4nLCAnLW9tYWUnLCAnPG91dGZpbGUubWFlPic=

>  <s_epik_input>  (1) 
TiNDL1tDSF09W0NIXVxbQ0gyXVtDSDJdW0NIMl1bQ0gyXU9bQ0BIXShbQ0gyXVtPSF0pW0NAQEhdKFtDQEBIXTFbQ0BASF0oW09IXSlbQ0BIXTFPW0NIM10pTjJbQ0gyXVtDSDJdT1tDSDJdW0NIMl0y

>  <s_glide_docking_method>  (1) 
confgen

>  <s_i_glide_gridfile>  (1) 
gpcr_5ht2c_6bqh_protein_autoprepared_prepared

>  <s_lp_Force_Field>  (1) 
S-OPLS

>  <s_lp_Variant>  (1) 
DiffSBDD_21-1

>  <s_m_source_file>  (1) 
generated_GPCR_5HT2C_ligand_DiffSBDD_2026-06-23_prepared.sdf

>  <GenAI_Model>  (1) 
DiffSBDD

>  <Protein>  (1) 
GPCR_5HT2C

$$$$
DiffSBDD_43
     RDKit          3D

  0  0  0  0  0  0  0  0  0  0999 V3000
M  V30 BEGIN CTAB
M  V30 COUNTS 83 85 0 0 1
M  V30 BEGIN ATOM
M  V30 1 C 36.875486 35.578425 61.933951 0
M  V30 2 C 37.086500 24.072436 56.504877 0
M  V30 3 C 39.251034 31.751784 54.960819 0
M  V30 4 C 40.408307 30.016839 60.545512 0 CFG=2
M  V30 5 C 39.155341 29.053570 58.438281 0 CFG=1
M  V30 6 O 39.534948 29.174249 51.717613 0
M  V30 7 O 38.353499 25.649231 57.614013 0
M  V30 8 N 37.448508 37.733302 60.032047 0 CHG=1
M  V30 9 C 39.243705 30.914472 53.827385 0
M  V30 10 C 36.773145 23.675507 55.062746 0
M  V30 11 C 40.372420 31.122153 61.625141 0
M  V30 12 C 35.901790 32.918768 60.829846 0
M  V30 13 N 38.607142 27.329357 52.835095 0
M  V30 14 C 38.828075 29.566099 53.947414 0
M  V30 15 C 38.527420 24.545030 56.752261 0
M  V30 16 N 38.808217 28.710706 52.822705 0
M  V30 17 C 39.159661 30.047019 59.635242 0 CFG=1
M  V30 18 O 40.060302 26.974126 56.759536 0
M  V30 19 C 37.640307 38.041468 61.456863 0 CFG=1
M  V30 20 C 38.791010 27.591034 58.779934 0
M  V30 21 C 37.626095 36.312712 59.680350 0
M  V30 22 C 36.221456 31.415538 60.679109 0 CFG=1
M  V30 23 C 38.866270 31.255007 56.211173 0
M  V30 24 O 38.041006 29.872063 60.474594 0
M  V30 25 C 35.828435 30.809865 59.334037 0
M  V30 26 C 36.641742 35.395775 60.422625 0 CFG=1
M  V30 27 O 40.561775 28.760541 61.175255 0
M  V30 28 C 39.426633 26.473469 57.914848 0 CFG=1
M  V30 29 C 38.427540 29.077034 55.210127 0
M  V30 30 N 36.444683 33.740722 58.567769 0 CHG=1
M  V30 31 C 36.308521 38.225460 62.154912 0
M  V30 32 C 36.774888 33.893387 59.995159 0 CFG=2
M  V30 33 O 37.593504 31.215135 60.990934 0
M  V30 34 C 37.150124 36.992038 62.421856 0 CFG=1
M  V30 35 O 38.093692 29.440980 57.561537 0
M  V30 36 O 41.644927 31.369000 62.168999 0
M  V30 37 C 38.461772 29.920513 56.340683 0
M  V30 38 H 36.044963 35.185647 62.521058 0
M  V30 39 H 37.761925 34.990276 62.167711 0
M  V30 40 H 36.845303 23.259216 57.188298 0
M  V30 41 H 36.394422 24.878688 56.752253 0
M  V30 42 H 39.558670 32.778939 54.870134 0
M  V30 43 H 41.267796 30.137736 59.895621 0
M  V30 44 H 40.132304 29.128326 57.956739 0
M  V30 45 H 38.893606 29.448116 51.078522 0
M  V30 46 H 36.518946 38.036998 59.774374 0
M  V30 47 H 39.550469 31.309535 52.869995 0
M  V30 48 H 35.695686 23.549338 54.967735 0
M  V30 49 H 37.078397 24.450647 54.357920 0
M  V30 50 H 37.245026 22.737771 54.775601 0
M  V30 51 H 40.029333 32.064523 61.195956 0
M  V30 52 H 39.684528 30.863288 62.432308 0
M  V30 53 H 34.842688 33.097991 60.639839 0
M  V30 54 H 36.043117 33.124270 61.886495 0
M  V30 55 H 37.985780 27.068177 52.069907 0
M  V30 56 H 39.500962 26.860272 52.701666 0
M  V30 57 H 39.000347 24.843410 55.815932 0
M  V30 58 H 39.139226 23.772986 57.222573 0
M  V30 59 H 39.097725 31.045880 59.202869 0
M  V30 60 H 39.453996 27.553959 56.326400 0
M  V30 61 H 38.548361 38.584058 61.704685 0
M  V30 62 H 38.937322 27.342364 59.826845 0
M  V30 63 H 37.718500 27.519696 58.585149 0
M  V30 64 H 38.648850 36.018381 59.914370 0
M  V30 65 H 37.459592 36.242456 58.606186 0
M  V30 66 H 35.629879 30.890561 61.424393 0
M  V30 67 H 38.880517 31.901583 57.075480 0
M  V30 68 H 34.844960 31.141993 59.004812 0
M  V30 69 H 36.545787 31.087369 58.567787 0
M  V30 70 H 35.807416 29.720956 59.367982 0
M  V30 71 H 35.645139 35.734597 60.166829 0
M  V30 72 H 39.877042 28.658870 61.820916 0
M  V30 73 H 40.173274 25.911879 58.477684 0
M  V30 74 H 38.099818 28.052970 55.313428 0
M  V30 75 H 35.550026 34.167890 58.372194 0
M  V30 76 H 37.140732 34.174766 57.979577 0
M  V30 77 H 35.403896 38.137866 61.557551 0
M  V30 78 H 36.248463 38.964488 62.950731 0
M  V30 79 H 37.817946 33.595927 60.113787 0
M  V30 80 H 37.611222 36.994300 63.408348 0
M  V30 81 H 41.550560 31.936306 62.920344 0
M  V30 82 H 36.354994 32.764090 58.293640 0
M  V30 83 H 38.115596 38.280650 59.505358 0
M  V30 END ATOM
M  V30 BEGIN BOND
M  V30 1 1 9 3
M  V30 2 1 10 2
M  V30 3 1 11 4
M  V30 4 2 14 9
M  V30 5 1 15 2
M  V30 6 1 15 7
M  V30 7 1 16 6
M  V30 8 1 16 13
M  V30 9 1 16 14
M  V30 10 1 17 4
M  V30 11 1 17 5
M  V30 12 1 19 8
M  V30 13 1 20 5
M  V30 14 1 21 8
M  V30 15 1 22 12
M  V30 16 2 23 3
M  V30 17 1 24 17
M  V30 18 1 25 22
M  V30 19 1 26 1
M  V30 20 1 26 21
M  V30 21 1 27 4
M  V30 22 1 28 7
M  V30 23 1 28 18
M  V30 24 1 28 20
M  V30 25 1 29 14
M  V30 26 1 31 19
M  V30 27 1 32 12
M  V30 28 1 32 26
M  V30 29 1 32 30
M  V30 30 1 33 22
M  V30 31 1 33 24
M  V30 32 1 34 1
M  V30 33 1 34 19
M  V30 34 1 34 31
M  V30 35 1 35 5
M  V30 36 1 36 11
M  V30 37 1 37 23
M  V30 38 2 37 29
M  V30 39 1 37 35
M  V30 40 1 38 1
M  V30 41 1 39 1
M  V30 42 1 40 2
M  V30 43 1 41 2
M  V30 44 1 42 3
M  V30 45 1 4 43 CFG=3
M  V30 46 1 5 44 CFG=3
M  V30 47 1 45 6
M  V30 48 1 46 8
M  V30 49 1 47 9
M  V30 50 1 48 10
M  V30 51 1 49 10
M  V30 52 1 50 10
M  V30 53 1 51 11
M  V30 54 1 52 11
M  V30 55 1 53 12
M  V30 56 1 54 12
M  V30 57 1 55 13
M  V30 58 1 56 13
M  V30 59 1 57 15
M  V30 60 1 58 15
M  V30 61 1 17 59 CFG=3
M  V30 62 1 60 18
M  V30 63 1 19 61 CFG=3
M  V30 64 1 62 20
M  V30 65 1 63 20
M  V30 66 1 64 21
M  V30 67 1 65 21
M  V30 68 1 22 66 CFG=1
M  V30 69 1 67 23
M  V30 70 1 68 25
M  V30 71 1 69 25
M  V30 72 1 70 25
M  V30 73 1 26 71 CFG=1
M  V30 74 1 72 27
M  V30 75 1 28 73 CFG=1
M  V30 76 1 74 29
M  V30 77 1 75 30
M  V30 78 1 76 30
M  V30 79 1 77 31
M  V30 80 1 78 31
M  V30 81 1 32 79 CFG=3
M  V30 82 1 34 80 CFG=1
M  V30 83 1 81 36
M  V30 84 1 82 30
M  V30 85 1 83 8
M  V30 END BOND
M  V30 END CTAB
M  END
>  <i_epik_Tot_Q>  (1) 
2

>  <i_epik_Tot_abs_Q>  (1) 
2

>  <i_i_glide_confnum>  (1) 
815

>  <i_i_glide_lignum>  (1) 
96

>  <i_i_glide_posenum>  (1) 
341

>  <i_i_glide_rotatable_bonds>  (1) 
21

>  <i_lp_mmshare_version>  (1) 
72125

>  <i_m_source_file_index>  (1) 
44

>  <i_f3d_flags>  (1) 
0

>  <num_sample>  (1) 
100

>  <b_lp_Chiralities_Consistent>  (1) 
1

>  <r_epik_Charging_Adjusted_Penalty>  (1) 
0.054628322637716921

>  <r_epik_Ionization_Penalty>  (1) 
0.057286365922034427

>  <r_epik_Ionization_Penalty_Charging>  (1) 
0.054628322637716921

>  <r_epik_Ionization_Penalty_Neutral>  (1) 
0.0026580432843175059

>  <r_epik_State_Penalty>  (1) 
-0

>  <r_glide_ring_energy>  (1) 
0

>  <r_i_docking_score>  (1) 
-4.0426925937189484

>  <r_i_glide_ecoul>  (1) 
-5.8263664635697969

>  <r_i_glide_eff_state_penalty>  (1) 
-0

>  <r_i_glide_einternal>  (1) 
31.529139181563863

>  <r_i_glide_emodel>  (1) 
-42.338940329482206

>  <r_i_glide_emodel_strain>  (1) 
9.7225029295249854

>  <r_i_glide_energy>  (1) 
-51.116224320410005

>  <r_i_glide_erotb>  (1) 
1.0980815572756908

>  <r_i_glide_esite>  (1) 
-0.072778807048868285

>  <r_i_glide_evdw>  (1) 
-45.289857856840207

>  <r_i_glide_gscore>  (1) 
-4.0426925937189484

>  <r_i_glide_gscore_strain>  (1) 
1.4306257323812464

>  <r_i_glide_hbond>  (1) 
-0.32622437910606816

>  <r_i_glide_ligand_efficiency>  (1) 
-0.10926196199240401

>  <r_i_glide_ligand_efficiency_ln>  (1) 
-0.87676524941659284

>  <r_i_glide_ligand_efficiency_sa>  (1) 
-0.36408509730479832

>  <r_i_glide_lipo>  (1) 
-3.360925914758548

>  <r_i_glide_metal>  (1) 
-0

>  <r_i_glide_rewards>  (1) 
0.32697707991507752

>  <r_lp_Energy>  (1) 
40.181405999999996

>  <r_lp_tautomer_probability>  (1) 
1

>  <s_epik_Chemistry_Notes>  (1) 
This compound contains an acetal/aminal-like group ( X-CH(R)-Y where X, Y are N, S, or O) that may be acid/base labile, releasing an aldehyde. This compound has a N-S or N-O group and may undergo hydrolysis at high or low pH.

>  <s_epik_cmdline>  (1) 
J2VwaWtfcHl0aG9uJywgJy1waHQnLCAnMS4wJywgJy1waCcsICc3LjQnLCAnLXRuJywgJzgnLCAnLW1hJywgJzUwMCcsICctaW1hZScsICc8aW5maWxlLm1hZT4nLCAnLW9tYWUnLCAnPG91dGZpbGUubWFlPic=

>  <s_epik_input>  (1) 
W0NASF0xMltDQEBIXShbQ0gyXTIpW0NIMl1bQ0BASF0oW0NIMl1bTkhdMSlbQ0BIXShbTkgyXSlbQ0gyXVtDQEBIXShbQ0gzXSlPT1tDQEBIXShbQ0BIXShbT0hdKVtDSDJdW09IXSlbQ0BASF0oW0NIMl1bQ0BIXShbT0hdKU9bQ0gyXVtDSDJdW0NIM10pT2MoW2NIXTMpW2NIXVtjSF1bY0hdYzNOKFtPSF0pW05IMl0=

>  <s_glide_docking_method>  (1) 
confgen

>  <s_i_glide_gridfile>  (1) 
gpcr_5ht2c_6bqh_protein_autoprepared_prepared

>  <s_lp_Force_Field>  (1) 
S-OPLS

>  <s_lp_Variant>  (1) 
DiffSBDD_43-2

>  <s_m_source_file>  (1) 
generated_GPCR_5HT2C_ligand_DiffSBDD_2026-06-23_prepared.sdf

>  <GenAI_Model>  (1) 
DiffSBDD

>  <Protein>  (1) 
GPCR_5HT2C

$$$$
DiffSBDD_93
     RDKit          3D

  0  0  0  0  0  0  0  0  0  0999 V3000
M  V30 BEGIN CTAB
M  V30 COUNTS 83 84 0 0 1
M  V30 BEGIN ATOM
M  V30 1 C 38.527723 26.575187 58.323837 0
M  V30 2 O 37.245193 26.368275 57.767758 0
M  V30 3 C 39.514203 27.984622 50.722497 0
M  V30 4 C 36.144951 33.258728 61.744000 0
M  V30 5 O 39.855010 29.550800 56.818489 0
M  V30 6 C 40.379882 34.371363 61.367879 0
M  V30 7 N 40.774700 34.469942 62.638982 0
M  V30 8 O 40.343837 35.337745 60.612122 0
M  V30 9 O 36.759345 24.804490 55.470556 0
M  V30 10 C 35.245142 34.233172 62.412734 0
M  V30 11 C 39.085991 27.167824 51.934682 0
M  V30 12 C 38.436440 29.372486 58.744815 0
M  V30 13 C 40.037027 26.812891 56.345491 0
M  V30 14 C 38.398448 32.893106 60.553246 0 CFG=1
M  V30 15 C 39.950356 32.965035 60.863842 0 CFG=2
M  V30 16 C 38.841771 29.354716 52.617647 0 CFG=1
M  V30 17 C 38.479035 27.537311 54.300462 0 CFG=1
M  V30 18 C 36.993494 27.283203 54.012374 0
M  V30 19 C 38.695159 30.868035 58.951495 0
M  V30 20 S 38.426758 24.708123 55.236131 0 CHG=1
M  V30 21 O 35.314427 31.337761 59.767803 0
M  V30 22 N 39.278329 27.454573 57.435524 0
M  V30 23 O 38.845101 24.137762 56.771232 0
M  V30 24 O 40.748805 29.986006 51.165897 0
M  V30 25 F 40.324169 30.505697 54.117365 0
M  V30 26 C 35.246896 34.137757 60.907508 0
M  V30 27 C 36.502076 31.739296 59.148259 0
M  V30 28 C 37.793661 31.550961 59.970092 0 CFG=2
M  V30 29 C 39.254308 28.797881 57.577227 0
M  V30 30 C 40.676519 31.800656 61.630974 0
M  V30 31 C 38.064807 31.027023 54.517946 0
M  V30 32 C 39.212766 26.386517 55.088443 0 CFG=2
M  V30 33 O 39.190644 30.537809 62.967710 0
M  V30 34 C 37.623653 33.440019 61.767746 0
M  V30 35 C 39.147925 30.605812 53.502267 0 CFG=2
M  V30 36 C 40.058445 31.433196 62.971552 0
M  V30 37 C 39.453540 29.434982 51.199854 0 CFG=1
M  V30 38 O 40.463143 32.063725 63.973691 0 CHG=-1
M  V30 39 N 39.217782 28.023458 53.111935 0
M  V30 40 H 39.072215 25.656379 58.506863 0
M  V30 41 H 38.437347 26.933314 59.344501 0
M  V30 42 H 37.144951 25.448992 57.557781 0
M  V30 43 H 40.500265 27.699344 50.385810 0
M  V30 44 H 38.845151 27.818669 49.881909 0
M  V30 45 H 35.851266 32.227263 61.911824 0
M  V30 46 H 40.772088 33.637583 63.237862 0
M  V30 47 H 41.058331 35.362761 63.011455 0
M  V30 48 H 36.362361 24.310602 54.769009 0
M  V30 49 H 34.445132 33.745388 62.959796 0
M  V30 50 H 35.645214 35.139452 62.859635 0
M  V30 51 H 39.645189 26.238311 52.033309 0
M  V30 52 H 38.045253 26.918775 51.750364 0
M  V30 53 H 37.384069 29.141804 58.580152 0
M  V30 54 H 38.727343 28.909183 59.686778 0
M  V30 55 H 40.584308 25.963611 56.751035 0
M  V30 56 H 40.836030 27.474957 56.006112 0
M  V30 57 H 38.247299 33.629566 59.761327 0
M  V30 58 H 40.399349 32.937763 59.879996 0
M  V30 59 H 37.768877 29.337750 52.438787 0
M  V30 60 H 38.473986 28.356476 55.005006 0
M  V30 61 H 36.485078 27.052428 54.934000 0
M  V30 62 H 36.480744 28.132152 53.566438 0
M  V30 63 H 36.845109 26.420870 53.365486 0
M  V30 64 H 39.645147 30.874556 59.377679 0
M  V30 65 H 38.751563 31.440428 58.022289 0
M  V30 66 H 34.654650 31.349901 59.088141 0
M  V30 67 H 39.450240 23.423850 56.640600 0
M  V30 68 H 41.279285 29.509609 51.785988 0
M  V30 69 H 35.716710 34.938861 60.341371 0
M  V30 70 H 34.367302 33.696580 60.444769 0
M  V30 71 H 36.425437 32.746234 58.736559 0
M  V30 72 H 36.514331 31.053377 58.304968 0
M  V30 73 H 37.628843 30.851291 60.791752 0
M  V30 74 H 40.750437 30.880608 61.058706 0
M  V30 75 H 41.718312 32.075145 61.810281 0
M  V30 76 H 37.111520 31.241634 54.043034 0
M  V30 77 H 37.868515 30.289701 55.290686 0
M  V30 78 H 38.367222 31.939585 55.033205 0
M  V30 79 H 40.020725 26.096859 54.416339 0
M  V30 80 H 37.969070 32.937762 62.661932 0
M  V30 81 H 37.817892 34.505047 61.891805 0
M  V30 82 H 39.271882 31.463025 52.839265 0
M  V30 83 H 38.845133 30.044532 50.540442 0
M  V30 END ATOM
M  V30 BEGIN BOND
M  V30 1 1 2 1
M  V30 2 1 7 6
M  V30 3 2 8 6
M  V30 4 1 10 4
M  V30 5 1 11 3
M  V30 6 1 15 6
M  V30 7 1 15 14
M  V30 8 1 18 17
M  V30 9 1 19 12
M  V30 10 1 20 9
M  V30 11 1 22 1
M  V30 12 1 22 13
M  V30 13 1 23 20
M  V30 14 1 26 4
M  V30 15 1 26 10
M  V30 16 1 27 21
M  V30 17 1 28 14
M  V30 18 1 28 19
M  V30 19 1 28 27
M  V30 20 2 29 5
M  V30 21 1 29 12
M  V30 22 1 29 22
M  V30 23 1 30 15
M  V30 24 1 32 13
M  V30 25 1 32 17
M  V30 26 1 32 20
M  V30 27 1 34 4
M  V30 28 1 34 14
M  V30 29 1 35 16
M  V30 30 1 35 25
M  V30 31 1 35 31
M  V30 32 1 36 30
M  V30 33 2 36 33
M  V30 34 1 37 3
M  V30 35 1 37 16
M  V30 36 1 37 24
M  V30 37 1 38 36
M  V30 38 1 39 11
M  V30 39 1 39 16
M  V30 40 1 39 17
M  V30 41 1 40 1
M  V30 42 1 41 1
M  V30 43 1 42 2
M  V30 44 1 43 3
M  V30 45 1 44 3
M  V30 46 1 45 4
M  V30 47 1 46 7
M  V30 48 1 47 7
M  V30 49 1 48 9
M  V30 50 1 49 10
M  V30 51 1 50 10
M  V30 52 1 51 11
M  V30 53 1 52 11
M  V30 54 1 53 12
M  V30 55 1 54 12
M  V30 56 1 55 13
M  V30 57 1 56 13
M  V30 58 1 14 57 CFG=3
M  V30 59 1 15 58 CFG=3
M  V30 60 1 16 59 CFG=3
M  V30 61 1 17 60 CFG=1
M  V30 62 1 61 18
M  V30 63 1 62 18
M  V30 64 1 63 18
M  V30 65 1 64 19
M  V30 66 1 65 19
M  V30 67 1 66 21
M  V30 68 1 67 23
M  V30 69 1 68 24
M  V30 70 1 69 26
M  V30 71 1 70 26
M  V30 72 1 71 27
M  V30 73 1 72 27
M  V30 74 1 28 73 CFG=1
M  V30 75 1 74 30
M  V30 76 1 75 30
M  V30 77 1 76 31
M  V30 78 1 77 31
M  V30 79 1 78 31
M  V30 80 1 32 79 CFG=3
M  V30 81 1 80 34
M  V30 82 1 81 34
M  V30 83 1 35 82 CFG=3
M  V30 84 1 37 83 CFG=3
M  V30 END BOND
M  V30 END CTAB
M  END
>  <i_epik_Tot_Q>  (1) 
0

>  <i_epik_Tot_abs_Q>  (1) 
2

>  <i_i_glide_confnum>  (1) 
8562

>  <i_i_glide_lignum>  (1) 
213

>  <i_i_glide_posenum>  (1) 
14

>  <i_i_glide_rotatable_bonds>  (1) 
24

>  <i_lp_mmshare_version>  (1) 
72125

>  <i_m_source_file_index>  (1) 
94

>  <i_f3d_flags>  (1) 
0

>  <num_sample>  (1) 
100

>  <b_lp_Chiralities_Consistent>  (1) 
1

>  <r_epik_Charging_Adjusted_Penalty>  (1) 
0.37121505818338452

>  <r_epik_Ionization_Penalty>  (1) 
0.37121789513022985

>  <r_epik_Ionization_Penalty_Charging>  (1) 
0.00098257200063165957

>  <r_epik_Ionization_Penalty_Neutral>  (1) 
0.37023532312959817

>  <r_epik_State_Penalty>  (1) 
0.37023248618275284

>  <r_glide_ring_energy>  (1) 
0

>  <r_i_docking_score>  (1) 
-4.0287664202602702

>  <r_i_glide_ecoul>  (1) 
-1.4593336619899371

>  <r_i_glide_eff_state_penalty>  (1) 
0.37023248618275284

>  <r_i_glide_einternal>  (1) 
40.289517307385957

>  <r_i_glide_emodel>  (1) 
-15.499503893836572

>  <r_i_glide_emodel_strain>  (1) 
9.867104986007206

>  <r_i_glide_energy>  (1) 
-29.947266086763918

>  <r_i_glide_erotb>  (1) 
0.82577533054746977

>  <r_i_glide_esite>  (1) 
0

>  <r_i_glide_evdw>  (1) 
-28.48793242477398

>  <r_i_glide_gscore>  (1) 
-4.3989989064430226

>  <r_i_glide_gscore_strain>  (1) 
1.4667762465018015

>  <r_i_glide_hbond>  (1) 
-0.023816466781082419

>  <r_i_glide_ligand_efficiency>  (1) 
-0.10330170308359667

>  <r_i_glide_ligand_efficiency_ln>  (1) 
-0.86388188383953257

>  <r_i_glide_ligand_efficiency_sa>  (1) 
-0.3503179175799449

>  <r_i_glide_lipo>  (1) 
-3.2265001348094988

>  <r_i_glide_metal>  (1) 
-0

>  <r_i_glide_rewards>  (1) 
-1.7979372113645222

>  <r_lp_Energy>  (1) 
14.863111

>  <s_epik_Chemistry_Notes>  (1) 
This compound contains an acetal/aminal-like group ( X-CH(R)-Y where X, Y are N, S, or O) that may be acid/base labile, releasing an aldehyde.

>  <s_epik_cmdline>  (1) 
J2VwaWtfcHl0aG9uJywgJy1waHQnLCAnMS4wJywgJy1waCcsICc3LjQnLCAnLXRuJywgJzgnLCAnLW1hJywgJzUwMCcsICctaW1hZScsICc8aW5maWxlLm1hZT4nLCAnLW9tYWUnLCAnPG91dGZpbGUubWFlPic=

>  <s_epik_input>  (1) 
W0NIMl0xW0NIMl1bQ0hdMVtDSDJdW0NAQEhdKFtDQEBIXShDKD1PKVtOSDJdKVtDSDJdQyg9TylbT0hdKVtDQEBIXShbQ0gyXVtPSF0pW0NIMl1bQ0gyXUMoPU8pTihbQ0gyXVtPSF0pW0NIMl1bQ0BASF0oW1MrXShbT0hdKVtPSF0pW0NASF0oW0NIM10pTjJbQ0gyXVtDSDJdW0NASF0oW09IXSlbQ0BASF0yW0NASF0oRilbQ0gzXQ==

>  <s_glide_docking_method>  (1) 
confgen

>  <s_i_glide_gridfile>  (1) 
gpcr_5ht2c_6bqh_protein_autoprepared_prepared

>  <s_lp_Force_Field>  (1) 
S-OPLS

>  <s_lp_Variant>  (1) 
DiffSBDD_93-1

>  <s_m_source_file>  (1) 
generated_GPCR_5HT2C_ligand_DiffSBDD_2026-06-23_prepared.sdf

>  <GenAI_Model>  (1) 
DiffSBDD

>  <Protein>  (1) 
GPCR_5HT2C

$$$$
DiffSBDD_22
     RDKit          3D

  0  0  0  0  0  0  0  0  0  0999 V3000
M  V30 BEGIN CTAB
M  V30 COUNTS 48 51 0 0 1
M  V30 BEGIN ATOM
M  V30 1 C 39.937311 30.064895 51.588508 0
M  V30 2 C 40.331313 30.225194 61.908087 0
M  V30 3 C 39.014485 27.533874 54.159231 0
M  V30 4 F 41.246952 29.261088 61.753609 0
M  V30 5 N 38.928080 28.797919 53.385247 0 CFG=1 CHG=1
M  V30 6 C 39.649099 29.933456 54.015368 0 CFG=1
M  V30 7 C 40.134450 30.801129 52.889725 0 CFG=2
M  V30 8 O 38.448307 28.602305 56.282137 0
M  V30 9 O 36.845111 25.579014 56.260092 0
M  V30 10 N 38.312220 28.752128 58.675604 0 CHG=1
M  V30 11 O 38.860637 24.293871 57.295898 0
M  V30 12 C 38.584987 26.657954 57.539538 0 CFG=1
M  V30 13 C 38.068249 27.566380 55.365525 0 CFG=2
M  V30 14 C 38.288863 30.569192 60.395738 0
M  V30 15 N 40.697659 31.379475 62.255759 0
M  V30 16 C 39.391199 28.687907 51.980438 0
M  V30 17 C 38.855097 30.071306 59.048356 0
M  V30 18 C 39.023053 31.280068 53.795801 0
M  V30 19 C 39.238471 25.545773 56.770971 0 CFG=2
M  V30 20 C 39.046438 28.087277 57.431667 0 CFG=1
M  V30 21 C 38.885331 29.886021 61.650011 0
M  V30 22 C 38.064463 26.288288 56.182213 0 CFG=2
M  V30 23 H 40.887073 29.975675 51.058744 0
M  V30 24 H 39.245140 30.607951 50.945984 0
M  V30 25 H 40.038690 27.335809 54.469036 0
M  V30 26 H 38.717242 26.704900 53.514980 0
M  V30 27 H 40.327391 29.734805 54.845213 0
M  V30 28 H 41.067426 31.337642 53.004835 0
M  V30 29 H 36.678818 25.162004 55.424721 0
M  V30 30 H 38.418190 28.151964 59.479784 0
M  V30 31 H 37.910415 24.272698 57.279880 0
M  V30 32 H 38.015547 26.368883 58.421678 0
M  V30 33 H 37.077408 27.767975 54.967033 0
M  V30 34 H 37.203950 30.449138 60.401393 0
M  V30 35 H 38.456996 31.644925 60.466238 0
M  V30 36 H 39.935499 32.030878 62.366623 0
M  V30 37 H 40.190497 27.948583 51.905007 0
M  V30 38 H 38.582833 28.360959 51.323421 0
M  V30 39 H 38.603135 30.772835 58.250834 0
M  V30 40 H 39.942486 30.010893 59.089493 0
M  V30 41 H 39.265672 32.062098 54.514560 0
M  V30 42 H 38.026832 31.334741 53.385894 0
M  V30 43 H 40.242255 25.637566 56.360314 0
M  V30 44 H 40.131639 28.199997 57.444773 0
M  V30 45 H 37.954220 29.062976 53.346140 0
M  V30 46 H 38.844718 28.802560 61.553946 0
M  V30 47 H 38.308909 30.142508 62.537806 0
M  V30 48 H 37.324846 28.856681 58.480271 0
M  V30 END ATOM
M  V30 BEGIN BOND
M  V30 1 1 4 2
M  V30 2 1 5 3
M  V30 3 1 6 5
M  V30 4 1 7 1
M  V30 5 1 7 6
M  V30 6 1 13 3
M  V30 7 1 13 8
M  V30 8 2 15 2
M  V30 9 1 16 1
M  V30 10 1 16 5
M  V30 11 1 17 10
M  V30 12 1 17 14
M  V30 13 1 18 6
M  V30 14 1 18 7
M  V30 15 1 19 11
M  V30 16 1 19 12
M  V30 17 1 20 8
M  V30 18 1 20 10
M  V30 19 1 20 12
M  V30 20 1 21 2
M  V30 21 1 21 14
M  V30 22 1 22 9 CFG=1
M  V30 23 1 22 12
M  V30 24 1 22 13
M  V30 25 1 22 19
M  V30 26 1 23 1
M  V30 27 1 24 1
M  V30 28 1 25 3
M  V30 29 1 26 3
M  V30 30 1 6 27 CFG=1
M  V30 31 1 7 28 CFG=1
M  V30 32 1 29 9
M  V30 33 1 30 10
M  V30 34 1 31 11
M  V30 35 1 12 32 CFG=1
M  V30 36 1 13 33 CFG=3
M  V30 37 1 34 14
M  V30 38 1 35 14
M  V30 39 1 36 15
M  V30 40 1 37 16
M  V30 41 1 38 16
M  V30 42 1 39 17
M  V30 43 1 40 17
M  V30 44 1 41 18
M  V30 45 1 42 18
M  V30 46 1 19 43 CFG=3
M  V30 47 1 20 44 CFG=3
M  V30 48 1 5 45 CFG=3
M  V30 49 1 46 21
M  V30 50 1 47 21
M  V30 51 1 48 10
M  V30 END BOND
M  V30 END CTAB
M  END
>  <i_epik_Tot_Q>  (1) 
2

>  <i_epik_Tot_abs_Q>  (1) 
2

>  <i_i_glide_confnum>  (1) 
7

>  <i_i_glide_lignum>  (1) 
56

>  <i_i_glide_posenum>  (1) 
301

>  <i_i_glide_rotatable_bonds>  (1) 
9

>  <i_lp_mmshare_version>  (1) 
72125

>  <i_m_source_file_index>  (1) 
23

>  <i_f3d_flags>  (1) 
0

>  <num_sample>  (1) 
100

>  <b_lp_Chiralities_Consistent>  (1) 
1

>  <r_epik_Charging_Adjusted_Penalty>  (1) 
1.666199543100769

>  <r_epik_Ionization_Penalty>  (1) 
0.63246952638049103

>  <r_epik_Ionization_Penalty_Charging>  (1) 
0.62883544751823761

>  <r_epik_Ionization_Penalty_Neutral>  (1) 
0.0036340788622534364

>  <r_epik_State_Penalty>  (1) 
1.0373640955825314

>  <r_glide_ring_energy>  (1) 
1.6455033096424427

>  <r_i_docking_score>  (1) 
-4.0263423465058272

>  <r_i_glide_ecoul>  (1) 
-2.581192433405024

>  <r_i_glide_eff_state_penalty>  (1) 
1.0373640955825314

>  <r_i_glide_einternal>  (1) 
4.521711473571437

>  <r_i_glide_emodel>  (1) 
-39.649562660151453

>  <r_i_glide_emodel_strain>  (1) 
1.8154948812545939

>  <r_i_glide_energy>  (1) 
-26.334288152819511

>  <r_i_glide_erotb>  (1) 
1.309053311580165

>  <r_i_glide_esite>  (1) 
-0.093556880894985761

>  <r_i_glide_evdw>  (1) 
-23.753095719414485

>  <r_i_glide_gscore>  (1) 
-5.0637064420883586

>  <r_i_glide_gscore_strain>  (1) 
0

>  <r_i_glide_hbond>  (1) 
0

>  <r_i_glide_ligand_efficiency>  (1) 
-0.18301556120481033

>  <r_i_glide_ligand_efficiency_ln>  (1) 
-0.98418493389151296

>  <r_i_glide_ligand_efficiency_sa>  (1) 
-0.51281680061784685

>  <r_i_glide_lipo>  (1) 
-2.7121050604292782

>  <r_i_glide_metal>  (1) 
-0

>  <r_i_glide_rewards>  (1) 
-1.9922641613627818

>  <r_lp_Energy>  (1) 
20.772855

>  <r_lp_tautomer_probability>  (1) 
0.49999300000000002

>  <s_epik_Chemistry_Notes>  (1) 
This compound has an imine and may undergo hydrolysis. This compound contains an acetal/aminal-like group ( X-CH(R)-Y where X, Y are N, S, or O) that may be acid/base labile, releasing an aldehyde.

>  <s_epik_cmdline>  (1) 
J2VwaWtfcHl0aG9uJywgJy1waHQnLCAnMS4wJywgJy1waCcsICc3LjQnLCAnLXRuJywgJzgnLCAnLW1hJywgJzUwMCcsICctaW1hZScsICc8aW5maWxlLm1hZT4nLCAnLW9tYWUnLCAnPG91dGZpbGUubWFlPic=

>  <s_epik_input>  (1) 
W0NAQEhdMTJbQ0BIXShbQ0gyXTIpW0NIMl1bQ0gyXU4xW0NIMl1bQ0BASF0zT1tDQEhdKFtDSF0oW0NASF00W09IXSlbQ0BAXTM0W09IXSlbTkhdW0NIMl1bQ0gyXVxbQ0hdPUMoXEYpW05IMl0=

>  <s_glide_docking_method>  (1) 
confgen

>  <s_i_glide_gridfile>  (1) 
gpcr_5ht2c_6bqh_protein_autoprepared_prepared

>  <s_lp_Force_Field>  (1) 
S-OPLS

>  <s_lp_Variant>  (1) 
DiffSBDD_22-4

>  <s_m_source_file>  (1) 
generated_GPCR_5HT2C_ligand_DiffSBDD_2026-06-23_prepared.sdf

>  <GenAI_Model>  (1) 
DiffSBDD

>  <Protein>  (1) 
GPCR_5HT2C

$$$$
DiffSBDD_76
     RDKit          3D

  0  0  0  0  0  0  0  0  0  0999 V3000
M  V30 BEGIN CTAB
M  V30 COUNTS 22 21 0 0 1
M  V30 BEGIN ATOM
M  V30 1 C 39.527846 25.737779 54.932247 0
M  V30 2 C 38.185044 26.268727 54.458140 0
M  V30 3 C 40.287970 30.611959 50.639896 0
M  V30 4 S 39.645085 25.737765 56.738486 0
M  V30 5 C 40.242909 29.118449 50.982738 0
M  V30 6 C 39.157251 28.772680 52.011619 0
M  V30 7 C 39.069332 27.265593 52.285546 0
M  V30 8 C 37.984753 26.937766 53.303203 0
M  V30 9 H 40.364944 26.323141 54.558347 0
M  V30 10 H 39.645138 24.714266 54.578737 0
M  V30 11 H 37.342846 26.082617 55.109159 0
M  V30 12 H 41.100893 30.828546 49.945936 0
M  V30 13 H 39.359343 30.937158 50.169216 0
M  V30 14 H 40.445005 31.219860 51.531671 0
M  V30 15 H 40.927333 25.350141 56.783932 0
M  V30 16 H 41.215621 28.809562 51.367761 0
M  V30 17 H 40.071097 28.549027 50.068505 0
M  V30 18 H 38.190440 29.122962 51.650275 0
M  V30 19 H 39.354056 29.305764 52.942881 0
M  V30 20 H 40.045065 26.881717 52.568913 0
M  V30 21 H 38.815090 26.754578 51.356244 0
M  V30 22 H 36.987547 27.274191 53.058358 0
M  V30 END ATOM
M  V30 BEGIN BOND
M  V30 1 1 2 1
M  V30 2 1 4 1
M  V30 3 1 5 3
M  V30 4 1 6 5
M  V30 5 1 7 6
M  V30 6 2 8 2
M  V30 7 1 8 7
M  V30 8 1 9 1
M  V30 9 1 10 1
M  V30 10 1 11 2
M  V30 11 1 12 3
M  V30 12 1 13 3
M  V30 13 1 14 3
M  V30 14 1 15 4
M  V30 15 1 16 5
M  V30 16 1 17 5
M  V30 17 1 18 6
M  V30 18 1 19 6
M  V30 19 1 20 7
M  V30 20 1 21 7
M  V30 21 1 22 8
M  V30 END BOND
M  V30 END CTAB
M  END
>  <i_epik_Tot_Q>  (1) 
0

>  <i_epik_Tot_abs_Q>  (1) 
0

>  <i_i_glide_confnum>  (1) 
1

>  <i_i_glide_lignum>  (1) 
177

>  <i_i_glide_posenum>  (1) 
158

>  <i_i_glide_rotatable_bonds>  (1) 
5

>  <i_lp_mmshare_version>  (1) 
72125

>  <i_m_source_file_index>  (1) 
77

>  <i_f3d_flags>  (1) 
0

>  <num_sample>  (1) 
100

>  <b_lp_Chiralities_Consistent>  (1) 
1

>  <r_epik_Charging_Adjusted_Penalty>  (1) 
0.0051523938583426443

>  <r_epik_Ionization_Penalty>  (1) 
0.0051523938583426451

>  <r_epik_Ionization_Penalty_Charging>  (1) 
0

>  <r_epik_Ionization_Penalty_Neutral>  (1) 
0.0051523938583426451

>  <r_epik_State_Penalty>  (1) 
0.0051523938583426443

>  <r_glide_ring_energy>  (1) 
0

>  <r_i_docking_score>  (1) 
-4.0048439521426564

>  <r_i_glide_ecoul>  (1) 
-0.707816873576535

>  <r_i_glide_eff_state_penalty>  (1) 
0.0051523938583426443

>  <r_i_glide_einternal>  (1) 
0.19195924252086161

>  <r_i_glide_emodel>  (1) 
-25.691237817694446

>  <r_i_glide_emodel_strain>  (1) 
0.1032386107580735

>  <r_i_glide_energy>  (1) 
-20.860245877418876

>  <r_i_glide_erotb>  (1) 
2.4507048939468694

>  <r_i_glide_esite>  (1) 
0

>  <r_i_glide_evdw>  (1) 
-20.152429003842339

>  <r_i_glide_gscore>  (1) 
-4.0099963460009986

>  <r_i_glide_gscore_strain>  (1) 
0

>  <r_i_glide_hbond>  (1) 
-0.32000000000000001

>  <r_i_glide_ligand_efficiency>  (1) 
-0.50060549401783205

>  <r_i_glide_ligand_efficiency_ln>  (1) 
-1.3005098158018658

>  <r_i_glide_ligand_efficiency_sa>  (1) 
-1.0012109880356643

>  <r_i_glide_lipo>  (1) 
-2.126250093511878

>  <r_i_glide_metal>  (1) 
-0

>  <r_i_glide_rewards>  (1) 
-2.9006571652073934

>  <r_lp_Energy>  (1) 
-0.67296199999999995

>  <s_epik_cmdline>  (1) 
J2VwaWtfcHl0aG9uJywgJy1waHQnLCAnMS4wJywgJy1waCcsICc3LjQnLCAnLXRuJywgJzgnLCAnLW1hJywgJzUwMCcsICctaW1hZScsICc8aW5maWxlLm1hZT4nLCAnLW9tYWUnLCAnPG91dGZpbGUubWFlPic=

>  <s_epik_input>  (1) 
W1NIXVtDSDJdL1tDSF09W0NIXVxbQ0gyXVtDSDJdW0NIMl1bQ0gzXQ==

>  <s_glide_docking_method>  (1) 
confgen

>  <s_i_glide_gridfile>  (1) 
gpcr_5ht2c_6bqh_protein_autoprepared_prepared

>  <s_lp_Force_Field>  (1) 
S-OPLS

>  <s_lp_Variant>  (1) 
DiffSBDD_76-2

>  <s_m_source_file>  (1) 
generated_GPCR_5HT2C_ligand_DiffSBDD_2026-06-23_prepared.sdf

>  <GenAI_Model>  (1) 
DiffSBDD

>  <Protein>  (1) 
GPCR_5HT2C

$$$$
DiffSBDD_22
     RDKit          3D

  0  0  0  0  0  0  0  0  0  0999 V3000
M  V30 BEGIN CTAB
M  V30 COUNTS 48 51 0 0 1
M  V30 BEGIN ATOM
M  V30 1 C 40.445649 29.548665 49.286756 0
M  V30 2 C 35.757283 33.152426 60.317582 0
M  V30 3 C 39.649708 29.337309 52.907350 0
M  V30 4 F 35.802936 33.789873 61.495694 0
M  V30 5 N 39.535143 29.706943 51.485232 0 CFG=1 CHG=1
M  V30 6 C 40.050949 31.059314 51.166005 0 CFG=1
M  V30 7 C 40.602397 30.930526 49.770672 0 CFG=2
M  V30 8 O 38.656400 31.186442 54.206656 0
M  V30 9 O 37.849515 27.937382 55.334267 0
M  V30 10 N 38.044940 32.309883 56.270817 0 CHG=1
M  V30 11 O 39.766937 27.955126 57.099727 0
M  V30 12 C 38.873363 30.030632 56.230265 0 CFG=1
M  V30 13 C 38.544616 29.798817 53.844739 0 CFG=2
M  V30 14 C 37.422361 33.466652 58.410027 0
M  V30 15 N 34.645696 32.946072 59.765509 0
M  V30 16 C 40.228236 28.762158 50.577195 0
M  V30 17 C 38.509751 32.727380 57.610628 0
M  V30 18 C 39.378194 31.745598 50.013118 0
M  V30 19 C 39.896386 28.937181 56.081959 0 CFG=2
M  V30 20 C 39.084017 31.358921 55.531212 0 CFG=1
M  V30 21 C 37.053768 32.693282 59.691453 0
M  V30 22 C 38.702230 29.034088 55.139780 0 CFG=2
M  V30 23 H 41.300523 29.336444 48.660388 0
M  V30 24 H 39.596345 29.492355 48.623241 0
M  V30 25 H 40.578556 29.737755 53.289085 0
M  V30 26 H 39.663359 28.246959 52.967280 0
M  V30 27 H 40.609802 31.595962 51.926720 0
M  V30 28 H 41.580727 31.362635 49.608782 0
M  V30 29 H 38.185919 27.479510 56.099115 0
M  V30 30 H 37.132911 31.862889 56.372918 0
M  V30 31 H 40.530256 27.390799 57.089806 0
M  V30 32 H 38.147951 29.969802 57.039854 0
M  V30 33 H 37.563195 29.604725 53.409002 0
M  V30 34 H 36.541993 33.637241 57.789104 0
M  V30 35 H 37.766979 34.465855 58.677389 0
M  V30 36 H 34.753432 32.476343 58.871716 0
M  V30 37 H 41.194255 28.514079 51.021544 0
M  V30 38 H 39.669619 27.837953 50.420217 0
M  V30 39 H 39.404199 33.335991 57.505647 0
M  V30 40 H 38.837608 31.848263 58.164285 0
M  V30 41 H 39.451455 32.791639 49.767065 0
M  V30 42 H 38.440857 31.338187 49.767557 0
M  V30 43 H 40.910815 29.159963 55.765863 0
M  V30 44 H 40.101795 31.752041 55.584733 0
M  V30 45 H 38.560811 29.671919 51.224662 0
M  V30 46 H 37.857856 32.781234 60.426244 0
M  V30 47 H 36.952074 31.630392 59.467725 0
M  V30 48 H 37.887282 33.143428 55.721513 0
M  V30 END ATOM
M  V30 BEGIN BOND
M  V30 1 1 4 2
M  V30 2 1 5 3
M  V30 3 1 6 5
M  V30 4 1 7 1
M  V30 5 1 7 6
M  V30 6 1 13 3
M  V30 7 1 13 8
M  V30 8 2 15 2
M  V30 9 1 16 1
M  V30 10 1 16 5
M  V30 11 1 17 10
M  V30 12 1 17 14
M  V30 13 1 18 6
M  V30 14 1 18 7
M  V30 15 1 19 11
M  V30 16 1 19 12
M  V30 17 1 20 8
M  V30 18 1 20 10
M  V30 19 1 20 12
M  V30 20 1 21 2
M  V30 21 1 21 14
M  V30 22 1 22 9 CFG=1
M  V30 23 1 22 12
M  V30 24 1 22 13
M  V30 25 1 22 19
M  V30 26 1 23 1
M  V30 27 1 24 1
M  V30 28 1 25 3
M  V30 29 1 26 3
M  V30 30 1 6 27 CFG=1
M  V30 31 1 7 28 CFG=1
M  V30 32 1 29 9
M  V30 33 1 30 10
M  V30 34 1 31 11
M  V30 35 1 12 32 CFG=1
M  V30 36 1 13 33 CFG=3
M  V30 37 1 34 14
M  V30 38 1 35 14
M  V30 39 1 36 15
M  V30 40 1 37 16
M  V30 41 1 38 16
M  V30 42 1 39 17
M  V30 43 1 40 17
M  V30 44 1 41 18
M  V30 45 1 42 18
M  V30 46 1 19 43 CFG=3
M  V30 47 1 20 44 CFG=3
M  V30 48 1 5 45 CFG=3
M  V30 49 1 46 21
M  V30 50 1 47 21
M  V30 51 1 48 10
M  V30 END BOND
M  V30 END CTAB
M  END
>  <i_epik_Tot_Q>  (1) 
2

>  <i_epik_Tot_abs_Q>  (1) 
2

>  <i_i_glide_confnum>  (1) 
258

>  <i_i_glide_lignum>  (1) 
56

>  <i_i_glide_posenum>  (1) 
200

>  <i_i_glide_rotatable_bonds>  (1) 
9

>  <i_lp_mmshare_version>  (1) 
72125

>  <i_m_source_file_index>  (1) 
23

>  <i_f3d_flags>  (1) 
0

>  <num_sample>  (1) 
100

>  <b_lp_Chiralities_Consistent>  (1) 
1

>  <r_epik_Charging_Adjusted_Penalty>  (1) 
1.666199543100769

>  <r_epik_Ionization_Penalty>  (1) 
0.63246952638049103

>  <r_epik_Ionization_Penalty_Charging>  (1) 
0.62883544751823761

>  <r_epik_Ionization_Penalty_Neutral>  (1) 
0.0036340788622534364

>  <r_epik_State_Penalty>  (1) 
1.0373640955825314

>  <r_glide_ring_energy>  (1) 
1.6455033096424427

>  <r_i_docking_score>  (1) 
-3.9725467637783414

>  <r_i_glide_ecoul>  (1) 
-5.5655937469791326

>  <r_i_glide_eff_state_penalty>  (1) 
1.0373640955825314

>  <r_i_glide_einternal>  (1) 
8.0225539104613546

>  <r_i_glide_emodel>  (1) 
-33.524448525983097

>  <r_i_glide_emodel_strain>  (1) 
3.9578697906323157

>  <r_i_glide_energy>  (1) 
-24.286734531790668

>  <r_i_glide_erotb>  (1) 
1.309053311580165

>  <r_i_glide_esite>  (1) 
-0.10000000000000001

>  <r_i_glide_evdw>  (1) 
-18.721140784811535

>  <r_i_glide_gscore>  (1) 
-5.0099108593608728

>  <r_i_glide_gscore_strain>  (1) 
0

>  <r_i_glide_hbond>  (1) 
-0.33930516218926643

>  <r_i_glide_ligand_efficiency>  (1) 
-0.18057030744447006

>  <r_i_glide_ligand_efficiency_ln>  (1) 
-0.97103533123135832

>  <r_i_glide_ligand_efficiency_sa>  (1) 
-0.50596510340794043

>  <r_i_glide_lipo>  (1) 
-1.7265637451897291

>  <r_i_glide_metal>  (1) 
-0

>  <r_i_glide_rewards>  (1) 
-2.3821991622745946

>  <r_lp_Energy>  (1) 
20.772855

>  <r_lp_tautomer_probability>  (1) 
0.49999300000000002

>  <s_epik_Chemistry_Notes>  (1) 
This compound has an imine and may undergo hydrolysis. This compound contains an acetal/aminal-like group ( X-CH(R)-Y where X, Y are N, S, or O) that may be acid/base labile, releasing an aldehyde.

>  <s_epik_cmdline>  (1) 
J2VwaWtfcHl0aG9uJywgJy1waHQnLCAnMS4wJywgJy1waCcsICc3LjQnLCAnLXRuJywgJzgnLCAnLW1hJywgJzUwMCcsICctaW1hZScsICc8aW5maWxlLm1hZT4nLCAnLW9tYWUnLCAnPG91dGZpbGUubWFlPic=

>  <s_epik_input>  (1) 
W0NAQEhdMTJbQ0BIXShbQ0gyXTIpW0NIMl1bQ0gyXU4xW0NIMl1bQ0BASF0zT1tDQEhdKFtDSF0oW0NASF00W09IXSlbQ0BAXTM0W09IXSlbTkhdW0NIMl1bQ0gyXVxbQ0hdPUMoXEYpW05IMl0=

>  <s_glide_docking_method>  (1) 
confgen

>  <s_i_glide_gridfile>  (1) 
gpcr_5ht2c_6bqh_protein_autoprepared_prepared

>  <s_lp_Force_Field>  (1) 
S-OPLS

>  <s_lp_Variant>  (1) 
DiffSBDD_22-4

>  <s_m_source_file>  (1) 
generated_GPCR_5HT2C_ligand_DiffSBDD_2026-06-23_prepared.sdf

>  <GenAI_Model>  (1) 
DiffSBDD

>  <Protein>  (1) 
GPCR_5HT2C

$$$$
DiffSBDD_21
     RDKit          3D

  0  0  0  0  0  0  0  0  0  0999 V3000
M  V30 BEGIN CTAB
M  V30 COUNTS 55 56 0 0 1
M  V30 BEGIN ATOM
M  V30 1 C 37.683084 25.839798 54.783480 0
M  V30 2 C 37.709442 27.076598 54.077210 0
M  V30 3 C 37.432737 36.994640 61.004116 0
M  V30 4 O 35.885746 34.544066 59.367731 0
M  V30 5 O 36.045129 29.737773 58.967681 0
M  V30 6 O 41.446196 31.142708 63.279531 0
M  V30 7 C 36.516734 30.886159 59.629592 0
M  V30 8 N 37.645193 24.841995 55.368792 0
M  V30 9 C 38.941788 30.525062 54.474486 0
M  V30 10 C 37.794234 29.601147 54.020472 0
M  V30 11 O 37.442839 35.626175 61.368606 0
M  V30 12 C 38.589062 31.474187 55.638462 0
M  V30 13 C 38.122245 34.824105 60.415822 0 CFG=2
M  V30 14 C 40.543218 32.191908 63.598937 0
M  V30 15 C 40.114435 30.531976 61.358201 0
M  V30 16 C 37.266598 34.249979 59.314321 0 CFG=1
M  V30 17 C 38.292689 30.757094 56.959180 0
M  V30 18 C 38.005641 31.158054 59.307534 0 CFG=1
M  V30 19 N 39.183951 31.656252 61.544686 0
M  V30 20 O 38.159032 31.711674 58.003104 0
M  V30 21 C 38.663296 32.203206 60.266314 0 CFG=2
M  V30 22 C 39.877957 32.703288 62.309229 0
M  V30 23 C 40.774586 30.053884 62.664090 0
M  V30 24 C 37.767947 28.254157 54.719985 0
M  V30 25 C 37.693880 33.371030 60.481861 0 CFG=1
M  V30 26 H 37.679723 27.038216 52.997902 0
M  V30 27 H 36.870038 37.566284 61.742170 0
M  V30 28 H 38.445286 37.397173 60.967358 0
M  V30 29 H 36.959941 37.143508 60.032213 0
M  V30 30 H 35.444118 33.982669 58.745907 0
M  V30 31 H 35.817719 30.015290 58.086876 0
M  V30 32 H 35.877001 31.728454 59.367670 0
M  V30 33 H 36.401294 30.711355 60.699271 0
M  V30 34 H 39.222977 31.151111 53.626312 0
M  V30 35 H 39.832193 29.941216 54.711798 0
M  V30 36 H 36.834540 30.097104 54.167788 0
M  V30 37 H 37.889074 29.414962 52.950546 0
M  V30 38 H 37.737092 32.100669 55.368014 0
M  V30 39 H 39.426568 32.155065 55.794239 0
M  V30 40 H 39.169466 35.066671 60.243934 0
M  V30 41 H 41.091195 32.998271 64.086444 0
M  V30 42 H 39.798952 31.835874 64.310523 0
M  V30 43 H 39.597265 29.664933 60.953040 0
M  V30 44 H 40.889382 30.808161 60.642648 0
M  V30 45 H 37.684486 34.135225 58.316567 0
M  V30 46 H 39.104622 30.063834 57.183547 0
M  V30 47 H 37.374256 30.182274 56.861274 0
M  V30 48 H 38.548569 30.217468 59.329866 0
M  V30 49 H 39.520790 32.608332 59.727004 0
M  V30 50 H 40.645261 33.165554 61.686334 0
M  V30 51 H 39.182304 33.495771 62.582968 0
M  V30 52 H 41.494919 29.262056 62.457198 0
M  V30 53 H 40.033390 29.636519 63.346719 0
M  V30 54 H 37.796373 28.267814 55.798636 0
M  V30 55 H 36.921934 33.151805 61.218539 0
M  V30 END ATOM
M  V30 BEGIN BOND
M  V30 1 1 2 1
M  V30 2 1 7 5
M  V30 3 3 8 1
M  V30 4 1 10 9
M  V30 5 1 11 3
M  V30 6 1 12 9
M  V30 7 1 13 11
M  V30 8 1 14 6
M  V30 9 1 16 4
M  V30 10 1 16 13
M  V30 11 1 17 12
M  V30 12 1 18 7
M  V30 13 1 19 15
M  V30 14 1 20 17
M  V30 15 1 20 18
M  V30 16 1 21 18
M  V30 17 1 21 19
M  V30 18 1 22 14
M  V30 19 1 22 19
M  V30 20 1 23 6
M  V30 21 1 23 15
M  V30 22 2 24 2
M  V30 23 1 24 10
M  V30 24 1 25 13
M  V30 25 1 25 16
M  V30 26 1 25 21
M  V30 27 1 26 2
M  V30 28 1 27 3
M  V30 29 1 28 3
M  V30 30 1 29 3
M  V30 31 1 30 4
M  V30 32 1 31 5
M  V30 33 1 32 7
M  V30 34 1 33 7
M  V30 35 1 34 9
M  V30 36 1 35 9
M  V30 37 1 36 10
M  V30 38 1 37 10
M  V30 39 1 38 12
M  V30 40 1 39 12
M  V30 41 1 13 40 CFG=3
M  V30 42 1 41 14
M  V30 43 1 42 14
M  V30 44 1 43 15
M  V30 45 1 44 15
M  V30 46 1 16 45 CFG=3
M  V30 47 1 46 17
M  V30 48 1 47 17
M  V30 49 1 18 48 CFG=3
M  V30 50 1 21 49 CFG=3
M  V30 51 1 50 22
M  V30 52 1 51 22
M  V30 53 1 52 23
M  V30 54 1 53 23
M  V30 55 1 54 24
M  V30 56 1 25 55 CFG=1
M  V30 END BOND
M  V30 END CTAB
M  END
>  <i_epik_Tot_Q>  (1) 
0

>  <i_epik_Tot_abs_Q>  (1) 
0

>  <i_i_glide_confnum>  (1) 
3620

>  <i_i_glide_lignum>  (1) 
52

>  <i_i_glide_posenum>  (1) 
124

>  <i_i_glide_rotatable_bonds>  (1) 
13

>  <i_lp_mmshare_version>  (1) 
72125

>  <i_m_source_file_index>  (1) 
22

>  <i_f3d_flags>  (1) 
0

>  <num_sample>  (1) 
100

>  <b_lp_Chiralities_Consistent>  (1) 
1

>  <r_epik_Charging_Adjusted_Penalty>  (1) 
0.033214284747091018

>  <r_epik_Ionization_Penalty>  (1) 
0.033214513384273246

>  <r_epik_Ionization_Penalty_Charging>  (1) 
0

>  <r_epik_Ionization_Penalty_Neutral>  (1) 
0.033214513384273246

>  <r_epik_State_Penalty>  (1) 
0.033214284747091018

>  <r_glide_ring_energy>  (1) 
0

>  <r_i_docking_score>  (1) 
-3.9714271778160253

>  <r_i_glide_ecoul>  (1) 
-2.114171750869259

>  <r_i_glide_eff_state_penalty>  (1) 
0.033214284747091018

>  <r_i_glide_einternal>  (1) 
8.8985138059241891

>  <r_i_glide_emodel>  (1) 
-40.228861585997116

>  <r_i_glide_emodel_strain>  (1) 
1.3921918149357637

>  <r_i_glide_energy>  (1) 
-37.033302714769988

>  <r_i_glide_erotb>  (1) 
1.5209836995870194

>  <r_i_glide_esite>  (1) 
0

>  <r_i_glide_evdw>  (1) 
-34.919130963900727

>  <r_i_glide_gscore>  (1) 
-4.0046414625631161

>  <r_i_glide_gscore_strain>  (1) 
0

>  <r_i_glide_hbond>  (1) 
-0.080083338223207345

>  <r_i_glide_ligand_efficiency>  (1) 
-0.15885708711264102

>  <r_i_glide_ligand_efficiency_ln>  (1) 
-0.94134725521107132

>  <r_i_glide_ligand_efficiency_sa>  (1) 
-0.46450094055818886

>  <r_i_glide_lipo>  (1) 
-1.7936485635809334

>  <r_i_glide_metal>  (1) 
-0

>  <r_i_glide_rewards>  (1) 
-1.5888109495205689

>  <r_lp_Energy>  (1) 
16.758039999999998

>  <s_epik_cmdline>  (1) 
J2VwaWtfcHl0aG9uJywgJy1waHQnLCAnMS4wJywgJy1waCcsICc3LjQnLCAnLXRuJywgJzgnLCAnLW1hJywgJzUwMCcsICctaW1hZScsICc8aW5maWxlLm1hZT4nLCAnLW9tYWUnLCAnPG91dGZpbGUubWFlPic=

>  <s_epik_input>  (1) 
TiNDL1tDSF09W0NIXS9bQ0gyXVtDSDJdW0NIMl1bQ0gyXU9bQ0BIXShbQ0gyXVtPSF0pW0NAQEhdKFtDQEBIXTFbQ0BASF0oW09IXSlbQ0BIXTFPW0NIM10pTjJbQ0gyXVtDSDJdT1tDSDJdW0NIMl0y

>  <s_glide_docking_method>  (1) 
confgen

>  <s_i_glide_gridfile>  (1) 
gpcr_5ht2c_6bqh_protein_autoprepared_prepared

>  <s_lp_Force_Field>  (1) 
S-OPLS

>  <s_lp_Variant>  (1) 
DiffSBDD_21-2

>  <s_m_source_file>  (1) 
generated_GPCR_5HT2C_ligand_DiffSBDD_2026-06-23_prepared.sdf

>  <GenAI_Model>  (1) 
DiffSBDD

>  <Protein>  (1) 
GPCR_5HT2C

$$$$
DiffSBDD_93
     RDKit          3D

  0  0  0  0  0  0  0  0  0  0999 V3000
M  V30 BEGIN CTAB
M  V30 COUNTS 83 84 0 0 1
M  V30 BEGIN ATOM
M  V30 1 C 37.290139 34.837661 59.244444 0
M  V30 2 O 36.045370 35.130970 59.822689 0
M  V30 3 C 41.136764 33.707840 64.870672 0
M  V30 4 C 40.828874 27.066120 57.329243 0
M  V30 5 O 38.398034 33.601103 56.999815 0
M  V30 6 C 38.037354 27.647824 53.423784 0
M  V30 7 N 38.045256 27.337755 52.134584 0
M  V30 8 O 37.123729 27.338231 54.173310 0
M  V30 9 O 40.070163 30.359652 62.400122 0
M  V30 10 C 42.185039 27.744028 57.370074 0
M  V30 11 C 40.590479 32.867240 63.728180 0
M  V30 12 C 38.270357 31.389551 57.863075 0
M  V30 13 C 37.154767 32.505889 60.271279 0
M  V30 14 C 39.503976 28.481517 55.494067 0 CFG=1
M  V30 15 C 39.255502 28.413177 53.942946 0 CFG=2
M  V30 16 C 40.291040 35.063463 63.020270 0 CFG=1
M  V30 17 C 39.314096 33.279353 61.615014 0 CFG=1
M  V30 18 C 40.445244 32.936705 60.664102 0
M  V30 19 C 38.824602 30.744586 56.580893 0
M  V30 20 S 38.445287 30.537803 61.955769 0 CHG=1
M  V30 21 O 36.685138 28.937799 58.167760 0
M  V30 22 N 37.563548 33.390250 59.117098 0
M  V30 23 O 38.485040 29.690118 60.504607 0
M  V30 24 O 40.845722 36.060526 65.263681 0
M  V30 25 F 38.255194 36.030372 62.117591 0
M  V30 26 C 41.098178 28.221229 58.289089 0
M  V30 27 C 37.822203 28.419246 57.506766 0
M  V30 28 C 38.387583 29.255763 56.307540 0 CFG=2
M  V30 29 C 38.085845 32.890674 57.952162 0
M  V30 30 C 39.467291 29.788330 53.228146 0
M  V30 31 C 40.027082 37.460003 62.319423 0
M  V30 32 C 38.121680 32.309232 61.504429 0 CFG=2
M  V30 33 O 40.045118 30.820088 51.155276 0
M  V30 34 C 39.963097 27.095751 56.058963 0
M  V30 35 C 39.301545 36.256918 62.906190 0 CFG=2
M  V30 36 C 39.974707 29.735555 51.766471 0
M  V30 37 C 41.203752 35.111380 64.276301 0 CFG=1
M  V30 38 O 40.276552 28.613863 51.299837 0 CHG=-1
M  V30 39 N 39.695526 33.727086 62.967721 0
M  V30 40 H 38.081036 35.364066 59.767676 0
M  V30 41 H 37.245252 35.310842 58.265182 0
M  V30 42 H 35.879484 36.053512 59.716121 0
M  V30 43 H 40.444648 33.677283 65.714411 0
M  V30 44 H 42.102847 33.354919 65.231630 0
M  V30 45 H 40.809668 26.083318 57.796009 0
M  V30 46 H 38.839744 27.625552 51.553537 0
M  V30 47 H 37.266796 26.823670 51.727587 0
M  V30 48 H 40.059425 29.874461 63.213946 0
M  V30 49 H 43.013572 27.199676 57.818506 0
M  V30 50 H 42.456414 28.422894 56.567791 0
M  V30 51 H 40.064788 32.008822 64.140369 0
M  V30 52 H 41.422990 32.522126 63.112422 0
M  V30 53 H 38.886358 31.084666 58.693805 0
M  V30 54 H 37.244076 31.099815 57.965226 0
M  V30 55 H 36.781968 31.541152 59.943189 0
M  V30 56 H 36.227177 32.906815 60.679853 0
M  V30 57 H 40.422283 29.061537 55.565617 0
M  V30 58 H 40.018784 27.729889 53.575649 0
M  V30 59 H 40.974906 35.144385 62.173333 0
M  V30 60 H 38.916873 34.174063 61.172135 0
M  V30 61 H 40.150337 33.300613 59.683585 0
M  V30 62 H 41.376348 33.406573 60.967825 0
M  V30 63 H 40.643614 31.874312 60.569262 0
M  V30 64 H 38.544760 31.340140 55.711427 0
M  V30 65 H 39.908243 30.829850 56.634829 0
M  V30 66 H 36.144925 29.394024 57.534648 0
M  V30 67 H 39.249255 29.990017 60.041398 0
M  V30 68 H 41.233386 36.900043 65.032168 0
M  V30 69 H 40.693235 29.207676 58.083739 0
M  V30 70 H 41.210287 27.982763 59.345561 0
M  V30 71 H 37.492040 27.446242 57.143503 0
M  V30 72 H 38.565197 28.222413 58.269296 0
M  V30 73 H 37.522581 29.362759 55.656354 0
M  V30 74 H 38.546622 30.367518 53.273083 0
M  V30 75 H 40.209824 30.375552 53.765550 0
M  V30 76 H 40.844912 37.737723 62.968012 0
M  V30 77 H 40.480314 37.202577 61.368094 0
M  V30 78 H 39.371119 38.314048 62.168297 0
M  V30 79 H 37.495484 32.613605 62.346866 0
M  V30 80 H 39.116199 26.423139 56.183931 0
M  V30 81 H 40.568483 26.588056 55.306730 0
M  V30 82 H 38.856363 36.501962 63.869898 0
M  V30 83 H 42.228346 35.322956 63.969581 0
M  V30 END ATOM
M  V30 BEGIN BOND
M  V30 1 1 2 1
M  V30 2 1 7 6
M  V30 3 2 8 6
M  V30 4 1 10 4
M  V30 5 1 11 3
M  V30 6 1 15 6
M  V30 7 1 15 14
M  V30 8 1 18 17
M  V30 9 1 19 12
M  V30 10 1 20 9
M  V30 11 1 22 1
M  V30 12 1 22 13
M  V30 13 1 23 20
M  V30 14 1 26 4
M  V30 15 1 26 10
M  V30 16 1 27 21
M  V30 17 1 28 14
M  V30 18 1 28 19
M  V30 19 1 28 27
M  V30 20 2 29 5
M  V30 21 1 29 12
M  V30 22 1 29 22
M  V30 23 1 30 15
M  V30 24 1 32 13
M  V30 25 1 32 17
M  V30 26 1 32 20
M  V30 27 1 34 4
M  V30 28 1 34 14
M  V30 29 1 35 16
M  V30 30 1 35 25
M  V30 31 1 35 31
M  V30 32 1 36 30
M  V30 33 2 36 33
M  V30 34 1 37 3
M  V30 35 1 37 16
M  V30 36 1 37 24
M  V30 37 1 38 36
M  V30 38 1 39 11
M  V30 39 1 39 16
M  V30 40 1 39 17
M  V30 41 1 40 1
M  V30 42 1 41 1
M  V30 43 1 42 2
M  V30 44 1 43 3
M  V30 45 1 44 3
M  V30 46 1 45 4
M  V30 47 1 46 7
M  V30 48 1 47 7
M  V30 49 1 48 9
M  V30 50 1 49 10
M  V30 51 1 50 10
M  V30 52 1 51 11
M  V30 53 1 52 11
M  V30 54 1 53 12
M  V30 55 1 54 12
M  V30 56 1 55 13
M  V30 57 1 56 13
M  V30 58 1 14 57 CFG=3
M  V30 59 1 15 58 CFG=3
M  V30 60 1 16 59 CFG=3
M  V30 61 1 17 60 CFG=3
M  V30 62 1 61 18
M  V30 63 1 62 18
M  V30 64 1 63 18
M  V30 65 1 64 19
M  V30 66 1 65 19
M  V30 67 1 66 21
M  V30 68 1 67 23
M  V30 69 1 68 24
M  V30 70 1 69 26
M  V30 71 1 70 26
M  V30 72 1 71 27
M  V30 73 1 72 27
M  V30 74 1 28 73 CFG=3
M  V30 75 1 74 30
M  V30 76 1 75 30
M  V30 77 1 76 31
M  V30 78 1 77 31
M  V30 79 1 78 31
M  V30 80 1 32 79 CFG=1
M  V30 81 1 80 34
M  V30 82 1 81 34
M  V30 83 1 35 82 CFG=1
M  V30 84 1 37 83 CFG=3
M  V30 END BOND
M  V30 END CTAB
M  END
>  <i_epik_Tot_Q>  (1) 
0

>  <i_epik_Tot_abs_Q>  (1) 
2

>  <i_i_glide_confnum>  (1) 
1701

>  <i_i_glide_lignum>  (1) 
213

>  <i_i_glide_posenum>  (1) 
49

>  <i_i_glide_rotatable_bonds>  (1) 
24

>  <i_lp_mmshare_version>  (1) 
72125

>  <i_m_source_file_index>  (1) 
94

>  <i_f3d_flags>  (1) 
0

>  <num_sample>  (1) 
100

>  <b_lp_Chiralities_Consistent>  (1) 
1

>  <r_epik_Charging_Adjusted_Penalty>  (1) 
0.37121505818338452

>  <r_epik_Ionization_Penalty>  (1) 
0.37121789513022985

>  <r_epik_Ionization_Penalty_Charging>  (1) 
0.00098257200063165957

>  <r_epik_Ionization_Penalty_Neutral>  (1) 
0.37023532312959817

>  <r_epik_State_Penalty>  (1) 
0.37023248618275284

>  <r_glide_ring_energy>  (1) 
0

>  <r_i_docking_score>  (1) 
-3.95025144368002

>  <r_i_glide_ecoul>  (1) 
-9.2047828451514917

>  <r_i_glide_eff_state_penalty>  (1) 
0.37023248618275284

>  <r_i_glide_einternal>  (1) 
29.451487681302019

>  <r_i_glide_emodel>  (1) 
-26.262238331636155

>  <r_i_glide_emodel_strain>  (1) 
16.332191595149013

>  <r_i_glide_energy>  (1) 
-42.033866220269935

>  <r_i_glide_erotb>  (1) 
0.82577533054746977

>  <r_i_glide_esite>  (1) 
-0.12443732795603808

>  <r_i_glide_evdw>  (1) 
-32.829083375118444

>  <r_i_glide_gscore>  (1) 
-4.3204839298627729

>  <r_i_glide_gscore_strain>  (1) 
3.0830478987872532

>  <r_i_glide_hbond>  (1) 
-0.60799999999999998

>  <r_i_glide_ligand_efficiency>  (1) 
-0.10128849855589794

>  <r_i_glide_ligand_efficiency_ln>  (1) 
-0.84704604408057682

>  <r_i_glide_ligand_efficiency_sa>  (1) 
-0.34349071534848508

>  <r_i_glide_lipo>  (1) 
-2.7677411423339051

>  <r_i_glide_metal>  (1) 
-0

>  <r_i_glide_rewards>  (1) 
-1.7069570933789062

>  <r_lp_Energy>  (1) 
14.863111

>  <s_epik_Chemistry_Notes>  (1) 
This compound contains an acetal/aminal-like group ( X-CH(R)-Y where X, Y are N, S, or O) that may be acid/base labile, releasing an aldehyde.

>  <s_epik_cmdline>  (1) 
J2VwaWtfcHl0aG9uJywgJy1waHQnLCAnMS4wJywgJy1waCcsICc3LjQnLCAnLXRuJywgJzgnLCAnLW1hJywgJzUwMCcsICctaW1hZScsICc8aW5maWxlLm1hZT4nLCAnLW9tYWUnLCAnPG91dGZpbGUubWFlPic=

>  <s_epik_input>  (1) 
W0NIMl0xW0NIMl1bQ0hdMVtDSDJdW0NAQEhdKFtDQEBIXShDKD1PKVtOSDJdKVtDSDJdQyg9TylbT0hdKVtDQEBIXShbQ0gyXVtPSF0pW0NIMl1bQ0gyXUMoPU8pTihbQ0gyXVtPSF0pW0NIMl1bQ0BASF0oW1MrXShbT0hdKVtPSF0pW0NASF0oW0NIM10pTjJbQ0gyXVtDSDJdW0NASF0oW09IXSlbQ0BASF0yW0NASF0oRilbQ0gzXQ==

>  <s_glide_docking_method>  (1) 
confgen

>  <s_i_glide_gridfile>  (1) 
gpcr_5ht2c_6bqh_protein_autoprepared_prepared

>  <s_lp_Force_Field>  (1) 
S-OPLS

>  <s_lp_Variant>  (1) 
DiffSBDD_93-1

>  <s_m_source_file>  (1) 
generated_GPCR_5HT2C_ligand_DiffSBDD_2026-06-23_prepared.sdf

>  <GenAI_Model>  (1) 
DiffSBDD

>  <Protein>  (1) 
GPCR_5HT2C

$$$$
DiffSBDD_21
     RDKit          3D

  0  0  0  0  0  0  0  0  0  0999 V3000
M  V30 BEGIN CTAB
M  V30 COUNTS 55 56 0 0 1
M  V30 BEGIN ATOM
M  V30 1 C 39.585293 28.404609 51.459554 0
M  V30 2 C 39.998913 29.727410 51.133539 0
M  V30 3 C 36.853486 36.764921 61.654936 0
M  V30 4 O 35.423489 34.213722 59.368229 0
M  V30 5 O 37.137659 29.737717 59.442932 0
M  V30 6 O 40.546016 31.687249 63.512013 0
M  V30 7 C 37.098711 30.901016 58.654255 0
M  V30 8 N 39.245041 27.337753 51.747318 0
M  V30 9 C 38.512284 31.073635 53.947735 0
M  V30 10 C 39.866110 30.481154 53.552024 0
M  V30 11 O 36.845133 35.355417 61.514014 0
M  V30 12 C 38.206032 31.071433 55.446947 0
M  V30 13 C 37.593951 34.933062 60.388435 0 CFG=2
M  V30 14 C 41.157049 32.708630 62.732741 0
M  V30 15 C 39.086376 31.084075 61.661325 0
M  V30 16 C 36.822451 34.344818 59.232668 0 CFG=1
M  V30 17 C 39.095662 32.011461 56.265870 0
M  V30 18 C 38.451272 31.652233 58.596366 0 CFG=1
M  V30 19 N 39.645118 32.150485 60.832552 0
M  V30 20 O 38.444865 32.483409 57.436579 0
M  V30 21 C 38.775520 32.655461 59.749671 0 CFG=2
M  V30 22 C 40.149127 33.222718 61.691885 0
M  V30 23 C 40.095778 30.594433 62.718280 0
M  V30 24 C 40.130945 30.684916 52.068655 0
M  V30 25 C 37.545099 33.429003 60.208538 0 CFG=1
M  V30 26 H 40.205457 29.944038 50.095692 0
M  V30 27 H 36.264957 37.052157 62.527034 0
M  V30 28 H 37.867730 37.138064 61.802680 0
M  V30 29 H 36.430267 37.252216 60.775436 0
M  V30 30 H 35.138618 33.541965 58.763106 0
M  V30 31 H 36.322438 29.277121 59.314297 0
M  V30 32 H 36.845146 30.537562 57.663736 0
M  V30 33 H 36.269237 31.531911 58.967782 0
M  V30 34 H 37.738501 30.479724 53.464946 0
M  V30 35 H 38.422788 32.091592 53.563990 0
M  V30 36 H 40.675348 30.955024 54.108216 0
M  V30 37 H 39.883318 29.426090 53.820958 0
M  V30 38 H 38.241858 30.059054 55.850003 0
M  V30 39 H 37.178886 31.410292 55.545773 0
M  V30 40 H 38.546689 35.437106 60.231488 0
M  V30 41 H 42.054533 32.321867 62.247663 0
M  V30 42 H 41.472262 33.518948 63.390029 0
M  V30 43 H 38.175156 31.422615 62.155220 0
M  V30 44 H 38.824455 30.229239 61.046439 0
M  V30 45 H 37.180738 34.492048 58.215967 0
M  V30 46 H 39.323939 32.896003 55.670698 0
M  V30 47 H 40.045145 31.538927 56.498121 0
M  V30 48 H 39.245138 30.914524 58.508286 0
M  V30 49 H 39.394926 33.404853 59.253991 0
M  V30 50 H 40.622370 33.997109 61.087703 0
M  V30 51 H 39.321170 33.699208 62.218608 0
M  V30 52 H 40.949544 30.116903 62.235667 0
M  V30 53 H 39.645076 29.845710 63.367804 0
M  V30 54 H 40.443422 31.674795 51.769928 0
M  V30 55 H 36.913407 32.883318 60.907426 0
M  V30 END ATOM
M  V30 BEGIN BOND
M  V30 1 1 2 1
M  V30 2 1 7 5
M  V30 3 3 8 1
M  V30 4 1 10 9
M  V30 5 1 11 3
M  V30 6 1 12 9
M  V30 7 1 13 11
M  V30 8 1 14 6
M  V30 9 1 16 4
M  V30 10 1 16 13
M  V30 11 1 17 12
M  V30 12 1 18 7
M  V30 13 1 19 15
M  V30 14 1 20 17
M  V30 15 1 20 18
M  V30 16 1 21 18
M  V30 17 1 21 19
M  V30 18 1 22 14
M  V30 19 1 22 19
M  V30 20 1 23 6
M  V30 21 1 23 15
M  V30 22 2 24 2
M  V30 23 1 24 10
M  V30 24 1 25 13
M  V30 25 1 25 16
M  V30 26 1 25 21
M  V30 27 1 26 2
M  V30 28 1 27 3
M  V30 29 1 28 3
M  V30 30 1 29 3
M  V30 31 1 30 4
M  V30 32 1 31 5
M  V30 33 1 32 7
M  V30 34 1 33 7
M  V30 35 1 34 9
M  V30 36 1 35 9
M  V30 37 1 36 10
M  V30 38 1 37 10
M  V30 39 1 38 12
M  V30 40 1 39 12
M  V30 41 1 13 40 CFG=3
M  V30 42 1 41 14
M  V30 43 1 42 14
M  V30 44 1 43 15
M  V30 45 1 44 15
M  V30 46 1 16 45 CFG=3
M  V30 47 1 46 17
M  V30 48 1 47 17
M  V30 49 1 18 48 CFG=3
M  V30 50 1 21 49 CFG=3
M  V30 51 1 50 22
M  V30 52 1 51 22
M  V30 53 1 52 23
M  V30 54 1 53 23
M  V30 55 1 54 24
M  V30 56 1 25 55 CFG=1
M  V30 END BOND
M  V30 END CTAB
M  END
>  <i_epik_Tot_Q>  (1) 
0

>  <i_epik_Tot_abs_Q>  (1) 
0

>  <i_i_glide_confnum>  (1) 
4223

>  <i_i_glide_lignum>  (1) 
51

>  <i_i_glide_posenum>  (1) 
118

>  <i_i_glide_rotatable_bonds>  (1) 
13

>  <i_lp_mmshare_version>  (1) 
72125

>  <i_m_source_file_index>  (1) 
22

>  <i_f3d_flags>  (1) 
0

>  <num_sample>  (1) 
100

>  <b_lp_Chiralities_Consistent>  (1) 
1

>  <r_epik_Charging_Adjusted_Penalty>  (1) 
0.033214284747091018

>  <r_epik_Ionization_Penalty>  (1) 
0.033214513384273246

>  <r_epik_Ionization_Penalty_Charging>  (1) 
0

>  <r_epik_Ionization_Penalty_Neutral>  (1) 
0.033214513384273246

>  <r_epik_State_Penalty>  (1) 
0.033214284747091018

>  <r_glide_ring_energy>  (1) 
0

>  <r_i_docking_score>  (1) 
-3.9489295525307693

>  <r_i_glide_ecoul>  (1) 
-1.6498363909741309

>  <r_i_glide_eff_state_penalty>  (1) 
0.033214284747091018

>  <r_i_glide_einternal>  (1) 
11.319979801487204

>  <r_i_glide_emodel>  (1) 
-39.969551827840171

>  <r_i_glide_emodel_strain>  (1) 
0.68277519731763192

>  <r_i_glide_energy>  (1) 
-35.618033573090848

>  <r_i_glide_erotb>  (1) 
1.5209836995870194

>  <r_i_glide_esite>  (1) 
0

>  <r_i_glide_evdw>  (1) 
-33.968197182116718

>  <r_i_glide_gscore>  (1) 
-3.9821438372778601

>  <r_i_glide_gscore_strain>  (1) 
0

>  <r_i_glide_hbond>  (1) 
0

>  <r_i_glide_ligand_efficiency>  (1) 
-0.15795718210123078

>  <r_i_glide_ligand_efficiency_ln>  (1) 
-0.93601464381904032

>  <r_i_glide_ligand_efficiency_sa>  (1) 
-0.46186960234211866

>  <r_i_glide_lipo>  (1) 
-1.810398123602309

>  <r_i_glide_metal>  (1) 
-0

>  <r_i_glide_rewards>  (1) 
-1.7468440955106148

>  <r_lp_Energy>  (1) 
18.010252999999999

>  <s_epik_cmdline>  (1) 
J2VwaWtfcHl0aG9uJywgJy1waHQnLCAnMS4wJywgJy1waCcsICc3LjQnLCAnLXRuJywgJzgnLCAnLW1hJywgJzUwMCcsICctaW1hZScsICc8aW5maWxlLm1hZT4nLCAnLW9tYWUnLCAnPG91dGZpbGUubWFlPic=

>  <s_epik_input>  (1) 
TiNDL1tDSF09W0NIXVxbQ0gyXVtDSDJdW0NIMl1bQ0gyXU9bQ0BIXShbQ0gyXVtPSF0pW0NAQEhdKFtDQEBIXTFbQ0BASF0oW09IXSlbQ0BIXTFPW0NIM10pTjJbQ0gyXVtDSDJdT1tDSDJdW0NIMl0y

>  <s_glide_docking_method>  (1) 
confgen

>  <s_i_glide_gridfile>  (1) 
gpcr_5ht2c_6bqh_protein_autoprepared_prepared

>  <s_lp_Force_Field>  (1) 
S-OPLS

>  <s_lp_Variant>  (1) 
DiffSBDD_21-1

>  <s_m_source_file>  (1) 
generated_GPCR_5HT2C_ligand_DiffSBDD_2026-06-23_prepared.sdf

>  <GenAI_Model>  (1) 
DiffSBDD

>  <Protein>  (1) 
GPCR_5HT2C

$$$$
DiffSBDD_57
     RDKit          3D

  0  0  0  0  0  0  0  0  0  0999 V3000
M  V30 BEGIN CTAB
M  V30 COUNTS 64 66 0 0 1
M  V30 BEGIN ATOM
M  V30 1 O 42.439999 31.866899 62.575694 0
M  V30 2 C 37.695472 33.843788 61.525952 0
M  V30 3 C 42.382495 32.272754 65.537771 0
M  V30 4 C 39.140491 31.795095 61.499085 0 CFG=2
M  V30 5 C 38.045380 30.912882 56.958600 0
M  V30 6 S 37.862197 33.421312 59.787991 0
M  V30 7 O 38.639251 31.827577 57.482533 0
M  V30 8 C 38.154147 32.627866 62.332542 0
M  V30 9 N 39.062857 27.073642 56.759783 0
M  V30 10 C 41.066426 34.410517 65.994476 0 CFG=2
M  V30 11 N 37.245808 30.012754 57.603500 0
M  V30 12 C 41.423268 32.548696 62.589687 0
M  V30 13 O 42.049637 35.416134 66.235108 0
M  V30 14 C 40.513959 32.535878 61.356712 0
M  V30 15 C 37.308993 30.731429 60.055329 0
M  V30 16 C 39.648814 28.612569 55.030333 0 CFG=2
M  V30 17 O 39.953963 36.462335 66.325834 0
M  V30 18 C 36.828202 30.013681 58.987431 0
M  V30 19 C 38.596008 27.602274 55.483087 0 CFG=1
M  V30 20 C 38.467126 31.720555 60.101815 0 CFG=2
M  V30 21 C 39.358749 30.389470 62.125946 0
M  V30 22 C 39.427729 30.107433 55.052569 0 CFG=2
M  V30 23 C 41.494652 33.358862 65.022242 0
M  V30 24 C 38.130585 30.744431 55.451252 0 CFG=2
M  V30 25 C 39.518602 29.416360 53.730780 0
M  V30 26 N 40.841881 35.738874 65.447921 0
M  V30 27 N 43.299305 32.568777 66.524836 0
M  V30 28 C 38.391870 26.457906 54.466939 0
M  V30 29 O 37.643163 26.936422 53.368031 0
M  V30 30 O 37.938218 26.411567 57.380745 0
M  V30 31 C 42.297056 31.004477 65.087956 0
M  V30 32 C 41.032194 33.449785 63.718319 0
M  V30 33 Cl 38.046303 32.344794 54.682124 0
M  V30 34 H 36.667966 34.125555 61.760622 0
M  V30 35 H 38.333270 34.704666 61.727014 0
M  V30 36 H 37.277226 32.033862 62.576382 0
M  V30 37 H 38.591584 32.937637 63.272293 0
M  V30 38 H 39.281203 27.797579 57.431745 0
M  V30 39 H 40.513693 34.065882 66.867129 0
M  V30 40 H 36.795893 29.319167 57.026081 0
M  V30 41 H 40.372008 33.567348 61.032141 0
M  V30 42 H 41.091080 32.057514 60.568027 0
M  V30 43 H 36.816559 30.578475 61.000228 0
M  V30 44 H 40.649410 28.340576 55.368161 0
M  V30 45 H 39.112411 36.095615 66.102850 0
M  V30 46 H 36.008410 29.329007 59.137187 0
M  V30 47 H 37.645678 28.106311 55.637822 0
M  V30 48 H 39.268535 31.334389 59.495759 0
M  V30 49 H 38.443378 29.811132 62.229268 0
M  V30 50 H 40.053273 29.795023 61.532091 0
M  V30 51 H 39.756773 30.452459 63.135835 0
M  V30 52 H 40.299144 30.698612 55.330767 0
M  V30 53 H 37.278748 30.179082 55.071557 0
M  V30 54 H 38.598874 29.327289 53.157671 0
M  V30 55 H 40.381295 29.737783 53.148100 0
M  V30 56 H 43.418008 33.509433 66.874364 0
M  V30 57 H 39.347258 26.053561 54.127819 0
M  V30 58 H 37.832165 25.631712 54.905425 0
M  V30 59 H 37.446610 26.221040 52.778923 0
M  V30 60 H 38.279973 25.541960 57.534398 0
M  V30 61 H 42.951377 30.237498 65.475632 0
M  V30 62 H 41.579186 30.711447 64.346565 0
M  V30 63 H 40.342115 34.242808 63.471284 0
M  V30 64 H 43.939063 31.874132 66.882980 0
M  V30 END ATOM
M  V30 BEGIN BOND
M  V30 1 1 6 2
M  V30 2 2 7 5
M  V30 3 1 8 2
M  V30 4 1 8 4
M  V30 5 1 11 5
M  V30 6 2 12 1
M  V30 7 1 13 10
M  V30 8 1 4 14 CFG=3
M  V30 9 1 14 12
M  V30 10 1 18 11
M  V30 11 2 18 15
M  V30 12 1 19 9
M  V30 13 1 19 16
M  V30 14 1 20 4
M  V30 15 1 20 6
M  V30 16 1 20 15
M  V30 17 1 21 4
M  V30 18 1 22 16
M  V30 19 1 23 3
M  V30 20 1 23 10
M  V30 21 1 24 5
M  V30 22 1 24 22
M  V30 23 1 25 16
M  V30 24 1 25 22
M  V30 25 1 26 10
M  V30 26 1 26 13
M  V30 27 1 26 17
M  V30 28 1 27 3
M  V30 29 1 28 19
M  V30 30 1 29 28
M  V30 31 1 30 9
M  V30 32 2 31 3
M  V30 33 1 32 12
M  V30 34 2 32 23
M  V30 35 1 33 24
M  V30 36 1 34 2
M  V30 37 1 35 2
M  V30 38 1 36 8
M  V30 39 1 37 8
M  V30 40 1 38 9
M  V30 41 1 10 39 CFG=1
M  V30 42 1 40 11
M  V30 43 1 41 14
M  V30 44 1 42 14
M  V30 45 1 43 15
M  V30 46 1 16 44 CFG=3
M  V30 47 1 45 17
M  V30 48 1 46 18
M  V30 49 1 19 47 CFG=1
M  V30 50 1 20 48 CFG=3
M  V30 51 1 49 21
M  V30 52 1 50 21
M  V30 53 1 51 21
M  V30 54 1 22 52 CFG=3
M  V30 55 1 24 53 CFG=3
M  V30 56 1 54 25
M  V30 57 1 55 25
M  V30 58 1 56 27
M  V30 59 1 57 28
M  V30 60 1 58 28
M  V30 61 1 59 29
M  V30 62 1 60 30
M  V30 63 1 61 31
M  V30 64 1 62 31
M  V30 65 1 63 32
M  V30 66 1 64 27
M  V30 END BOND
M  V30 END CTAB
M  END
>  <i_epik_Tot_Q>  (1) 
0

>  <i_epik_Tot_abs_Q>  (1) 
0

>  <i_i_glide_confnum>  (1) 
3131

>  <i_i_glide_lignum>  (1) 
127

>  <i_i_glide_posenum>  (1) 
175

>  <i_i_glide_rotatable_bonds>  (1) 
16

>  <i_lp_mmshare_version>  (1) 
72125

>  <i_m_source_file_index>  (1) 
58

>  <i_f3d_flags>  (1) 
0

>  <num_sample>  (1) 
100

>  <b_lp_Chiralities_Consistent>  (1) 
1

>  <r_epik_Charging_Adjusted_Penalty>  (1) 
0.024416195549470061

>  <r_epik_Ionization_Penalty>  (1) 
0.014246986074461085

>  <r_epik_Ionization_Penalty_Charging>  (1) 
6.6592516266621022e-05

>  <r_epik_Ionization_Penalty_Neutral>  (1) 
0.014180393558194464

>  <r_epik_State_Penalty>  (1) 
0.024349603033203441

>  <r_glide_ring_energy>  (1) 
0.20502008593201695

>  <r_i_docking_score>  (1) 
-3.9424680106349839

>  <r_i_glide_ecoul>  (1) 
1.138374193106948

>  <r_i_glide_eff_state_penalty>  (1) 
0.024349603033203441

>  <r_i_glide_einternal>  (1) 
22.646875388446652

>  <r_i_glide_emodel>  (1) 
-35.641366546734119

>  <r_i_glide_emodel_strain>  (1) 
2.5720741775083411

>  <r_i_glide_energy>  (1) 
-38.353583166899966

>  <r_i_glide_erotb>  (1) 
1.0500022235395752

>  <r_i_glide_esite>  (1) 
-0.22683085201436604

>  <r_i_glide_evdw>  (1) 
-39.491957360006914

>  <r_i_glide_gscore>  (1) 
-3.9668176136681872

>  <r_i_glide_gscore_strain>  (1) 
0

>  <r_i_glide_hbond>  (1) 
-0.055446058425893043

>  <r_i_glide_ligand_efficiency>  (1) 
-0.1194687275949995

>  <r_i_glide_ligand_efficiency_ln>  (1) 
-0.87678447255834191

>  <r_i_glide_ligand_efficiency_sa>  (1) 
-0.38320004512188072

>  <r_i_glide_lipo>  (1) 
-1.9832452633501894

>  <r_i_glide_metal>  (1) 
-0

>  <r_i_glide_rewards>  (1) 
-0.94745592438301063

>  <r_lp_Energy>  (1) 
20.021283

>  <s_epik_Chemistry_Notes>  (1) 
This compound has an imine and may undergo hydrolysis. This compound contains an acetal/aminal-like group ( X-CH(R)-Y where X, Y are N, S, or O) that may be acid/base labile, releasing an aldehyde. This compound has a N-S or N-O group and may undergo hydrolysis at high or low pH.

>  <s_epik_cmdline>  (1) 
J2VwaWtfcHl0aG9uJywgJy1waHQnLCAnMS4wJywgJy1waCcsICc3LjQnLCAnLXRuJywgJzgnLCAnLW1hJywgJzUwMCcsICctaW1hZScsICc8aW5maWxlLm1hZT4nLCAnLW9tYWUnLCAnPG91dGZpbGUubWFlPic=

>  <s_epik_input>  (1) 
W09IXU4xT1tDQEBIXTFDKC9DKD1OL1tIXSlbQ0gzXSk9W0NIXS9DKD1PKVtDSDJdW0NAQF0yKFtDSDNdKVtDSDJdW0NIMl1TW0NAQEhdMi9bQ0hdPVtDSF1cW05IXUMoPU8pW0NAQEhdKENsKVtDQEhdKFtDSDJdMylbQ0BIXTNbQ0BIXShbTkhdW09IXSlbQ0gyXVtPSF0=

>  <s_glide_docking_method>  (1) 
confgen

>  <s_i_glide_gridfile>  (1) 
gpcr_5ht2c_6bqh_protein_autoprepared_prepared

>  <s_lp_Force_Field>  (1) 
S-OPLS

>  <s_lp_Variant>  (1) 
DiffSBDD_57-3

>  <s_m_source_file>  (1) 
generated_GPCR_5HT2C_ligand_DiffSBDD_2026-06-23_prepared.sdf

>  <GenAI_Model>  (1) 
DiffSBDD

>  <Protein>  (1) 
GPCR_5HT2C

$$$$
DiffSBDD_54
     RDKit          3D

  0  0  0  0  0  0  0  0  0  0999 V3000
M  V30 BEGIN CTAB
M  V30 COUNTS 41 42 0 0 1
M  V30 BEGIN ATOM
M  V30 1 C 38.409768 31.862758 55.571668 0
M  V30 2 C 39.226197 27.268542 57.109546 0
M  V30 3 C 40.076611 28.484383 59.120414 0
M  V30 4 C 38.432115 27.851927 51.989728 0
M  V30 5 C 37.776222 29.144723 54.164154 0
M  V30 6 S 38.410986 29.871247 57.349032 0 CHG=1
M  V30 7 C 38.320046 32.233344 58.091356 0
M  V30 8 N 37.992328 26.815808 57.233350 0
M  V30 9 C 39.957430 30.419130 53.566133 0
M  V30 10 C 38.153628 25.595154 56.595330 0
M  V30 11 N 39.391723 25.337751 56.127139 0
M  V30 12 N 40.045121 26.450361 56.490993 0
M  V30 13 N 38.988848 30.547937 55.854098 0
M  V30 14 C 39.135864 29.693827 54.660406 0 CFG=1
M  V30 15 C 38.775440 32.794000 56.734007 0
M  V30 16 C 37.826941 27.804449 53.400009 0
M  V30 17 O 38.845143 30.930716 58.313133 0
M  V30 18 C 39.698710 28.595197 57.632854 0 CFG=2
M  V30 19 H 37.326800 31.777203 55.463175 0
M  V30 20 H 38.785063 32.317959 54.658987 0
M  V30 21 H 40.840034 27.721077 59.273079 0
M  V30 22 H 39.212241 28.214160 59.728433 0
M  V30 23 H 40.480778 29.420362 59.506267 0
M  V30 24 H 38.194181 26.938704 51.441695 0
M  V30 25 H 39.517616 27.921378 52.016997 0
M  V30 26 H 38.045496 28.691407 51.412350 0
M  V30 27 H 37.256902 29.899253 53.585317 0
M  V30 28 H 37.126004 28.969703 55.017063 0
M  V30 29 H 38.673700 32.885534 58.890360 0
M  V30 30 H 37.240024 32.219574 58.167760 0
M  V30 31 H 40.362178 29.737680 52.824992 0
M  V30 32 H 40.812138 30.942224 53.997395 0
M  V30 33 H 39.362544 31.142795 53.008852 0
M  V30 34 H 37.344873 24.889007 56.473236 0
M  V30 35 H 41.029774 26.593175 56.305138 0
M  V30 36 H 39.737211 28.841484 54.967560 0
M  V30 37 H 39.855868 32.937638 56.744317 0
M  V30 38 H 38.329252 33.775797 56.571573 0
M  V30 39 H 38.351680 27.055858 53.992692 0
M  V30 40 H 36.804466 27.436776 53.307848 0
M  V30 41 H 40.595830 28.894761 57.091151 0
M  V30 END ATOM
M  V30 BEGIN BOND
M  V30 1 2 8 2
M  V30 2 1 10 8
M  V30 3 2 11 10
M  V30 4 1 12 2
M  V30 5 1 12 11
M  V30 6 1 13 1
M  V30 7 1 13 6
M  V30 8 1 14 5
M  V30 9 1 14 9
M  V30 10 1 14 13
M  V30 11 1 15 1
M  V30 12 1 15 7
M  V30 13 1 16 4
M  V30 14 1 16 5
M  V30 15 1 6 17 CFG=1
M  V30 16 1 17 7
M  V30 17 1 18 2
M  V30 18 1 18 3
M  V30 19 1 18 6
M  V30 20 1 19 1
M  V30 21 1 20 1
M  V30 22 1 21 3
M  V30 23 1 22 3
M  V30 24 1 23 3
M  V30 25 1 24 4
M  V30 26 1 25 4
M  V30 27 1 26 4
M  V30 28 1 27 5
M  V30 29 1 28 5
M  V30 30 1 29 7
M  V30 31 1 30 7
M  V30 32 1 31 9
M  V30 33 1 32 9
M  V30 34 1 33 9
M  V30 35 1 34 10
M  V30 36 1 35 12
M  V30 37 1 14 36 CFG=1
M  V30 38 1 37 15
M  V30 39 1 38 15
M  V30 40 1 39 16
M  V30 41 1 40 16
M  V30 42 1 18 41 CFG=3
M  V30 END BOND
M  V30 END CTAB
M  END
>  <i_epik_Tot_Q>  (1) 
1

>  <i_epik_Tot_abs_Q>  (1) 
1

>  <i_i_glide_confnum>  (1) 
7

>  <i_i_glide_lignum>  (1) 
120

>  <i_i_glide_posenum>  (1) 
347

>  <i_i_glide_rotatable_bonds>  (1) 
5

>  <i_lp_mmshare_version>  (1) 
72125

>  <i_m_source_file_index>  (1) 
55

>  <i_f3d_flags>  (1) 
0

>  <num_sample>  (1) 
100

>  <b_lp_Chiralities_Consistent>  (1) 
1

>  <r_epik_Charging_Adjusted_Penalty>  (1) 
1.0448623015598277

>  <r_epik_Ionization_Penalty>  (1) 
1.0474264341019792

>  <r_epik_Ionization_Penalty_Charging>  (1) 
0

>  <r_epik_Ionization_Penalty_Neutral>  (1) 
1.0474264341019792

>  <r_epik_State_Penalty>  (1) 
1.0448623015598277

>  <r_glide_ring_energy>  (1) 
0

>  <r_i_docking_score>  (1) 
-3.9391101102861352

>  <r_i_glide_ecoul>  (1) 
-2.1850271868111308

>  <r_i_glide_eff_state_penalty>  (1) 
1.0448623015598277

>  <r_i_glide_einternal>  (1) 
6.919962181578116

>  <r_i_glide_emodel>  (1) 
-43.401941632994713

>  <r_i_glide_emodel_strain>  (1) 
0

>  <r_i_glide_energy>  (1) 
-31.915761429827032

>  <r_i_glide_erotb>  (1) 
0.97219657743730314

>  <r_i_glide_esite>  (1) 
-0.030933133208097919

>  <r_i_glide_evdw>  (1) 
-29.730734243015903

>  <r_i_glide_gscore>  (1) 
-4.9839724118459632

>  <r_i_glide_gscore_strain>  (1) 
0

>  <r_i_glide_hbond>  (1) 
0

>  <r_i_glide_ligand_efficiency>  (1) 
-0.21883945057145196

>  <r_i_glide_ligand_efficiency_ln>  (1) 
-1.0125279421667217

>  <r_i_glide_ligand_efficiency_sa>  (1) 
-0.57352160679853592

>  <r_i_glide_lipo>  (1) 
-1.7362643271333451

>  <r_i_glide_metal>  (1) 
-0

>  <r_i_glide_rewards>  (1) 
-2.3746807387693583

>  <r_lp_Energy>  (1) 
5.0378150000000002

>  <r_lp_tautomer_probability>  (1) 
0.94828448534560383

>  <s_epik_cmdline>  (1) 
J2VwaWtfcHl0aG9uJywgJy1waHQnLCAnMS4wJywgJy1waCcsICc3LjQnLCAnLXRuJywgJzgnLCAnLW1hJywgJzUwMCcsICctaW1hZScsICc8aW5maWxlLm1hZT4nLCAnLW9tYWUnLCAnPG91dGZpbGUubWFlPic=

>  <s_epik_input>  (1) 
W0NIM11bQ0gyXVtDSDJdW0NASF0oW0NIM10pTihbQ0gyXVtDSDJdW0NIMl1PMSlbUytdMVtDQEBIXShbQ0gzXSljMm5bY0hdbltuSF0y

>  <s_glide_docking_method>  (1) 
confgen

>  <s_i_glide_gridfile>  (1) 
gpcr_5ht2c_6bqh_protein_autoprepared_prepared

>  <s_lp_Force_Field>  (1) 
S-OPLS

>  <s_lp_Variant>  (1) 
DiffSBDD_54-6

>  <s_m_source_file>  (1) 
generated_GPCR_5HT2C_ligand_DiffSBDD_2026-06-23_prepared.sdf

>  <GenAI_Model>  (1) 
DiffSBDD

>  <Protein>  (1) 
GPCR_5HT2C

$$$$
DiffSBDD_54
     RDKit          3D

  0  0  0  0  0  0  0  0  0  0999 V3000
M  V30 BEGIN CTAB
M  V30 COUNTS 41 42 0 0 1
M  V30 BEGIN ATOM
M  V30 1 C 38.440411 31.213021 54.691070 0
M  V30 2 C 38.835098 26.760717 56.805126 0
M  V30 3 C 40.252387 28.099262 58.377153 0
M  V30 4 C 39.101715 27.857235 50.644676 0
M  V30 5 C 39.566555 29.340522 52.708276 0
M  V30 6 S 38.465335 29.443281 56.687652 0 CHG=1
M  V30 7 C 38.652045 31.849502 57.158967 0
M  V30 8 N 37.645149 26.529212 57.328800 0
M  V30 9 C 37.350158 28.481880 53.699152 0
M  V30 10 C 37.447929 25.247779 56.838561 0
M  V30 11 N 38.446782 24.749722 56.083052 0
M  V30 12 N 39.319598 25.767489 56.098898 0
M  V30 13 N 38.911453 29.876481 55.066330 0
M  V30 14 C 38.805945 28.883034 53.981323 0 CFG=2
M  V30 15 C 38.984473 32.231191 55.707054 0
M  V30 16 C 40.043809 28.194982 51.800400 0
M  V30 17 O 39.144243 30.544284 57.437864 0
M  V30 18 C 39.603202 28.038320 56.983463 0 CFG=2
M  V30 19 H 37.349376 31.232462 54.686077 0
M  V30 20 H 38.771422 31.516793 53.700079 0
M  V30 21 H 40.907412 27.242876 58.540009 0
M  V30 22 H 39.499769 28.095438 59.166479 0
M  V30 23 H 40.860594 28.996065 58.497407 0
M  V30 24 H 39.429593 26.937690 50.167775 0
M  V30 25 H 39.100130 28.645828 49.892978 0
M  V30 26 H 38.076052 27.698835 50.967969 0
M  V30 27 H 40.445116 29.905872 53.015960 0
M  V30 28 H 38.978762 30.039659 52.121797 0
M  V30 29 H 39.130561 32.555366 57.838167 0
M  V30 30 H 37.584105 31.914827 57.354062 0
M  V30 31 H 37.280589 27.709892 52.937375 0
M  V30 32 H 36.776589 29.337441 53.367755 0
M  V30 33 H 36.854486 28.064895 54.567761 0
M  V30 34 H 36.553884 24.676888 57.041080 0
M  V30 35 H 40.211624 25.732308 55.623468 0
M  V30 36 H 39.314349 27.988624 54.332139 0
M  V30 37 H 40.065566 32.295052 55.603209 0
M  V30 38 H 38.589793 33.223352 55.485159 0
M  V30 39 H 41.009038 28.467271 51.370879 0
M  V30 40 H 40.206152 27.302079 52.401695 0
M  V30 41 H 40.411258 28.083475 56.252847 0
M  V30 END ATOM
M  V30 BEGIN BOND
M  V30 1 2 8 2
M  V30 2 1 10 8
M  V30 3 2 11 10
M  V30 4 1 12 2
M  V30 5 1 12 11
M  V30 6 1 13 1
M  V30 7 1 13 6
M  V30 8 1 14 5
M  V30 9 1 14 9
M  V30 10 1 14 13
M  V30 11 1 15 1
M  V30 12 1 15 7
M  V30 13 1 16 4
M  V30 14 1 16 5
M  V30 15 1 6 17 CFG=1
M  V30 16 1 17 7
M  V30 17 1 18 2
M  V30 18 1 18 3
M  V30 19 1 18 6
M  V30 20 1 19 1
M  V30 21 1 20 1
M  V30 22 1 21 3
M  V30 23 1 22 3
M  V30 24 1 23 3
M  V30 25 1 24 4
M  V30 26 1 25 4
M  V30 27 1 26 4
M  V30 28 1 27 5
M  V30 29 1 28 5
M  V30 30 1 29 7
M  V30 31 1 30 7
M  V30 32 1 31 9
M  V30 33 1 32 9
M  V30 34 1 33 9
M  V30 35 1 34 10
M  V30 36 1 35 12
M  V30 37 1 14 36 CFG=1
M  V30 38 1 37 15
M  V30 39 1 38 15
M  V30 40 1 39 16
M  V30 41 1 40 16
M  V30 42 1 18 41 CFG=3
M  V30 END BOND
M  V30 END CTAB
M  END
>  <i_epik_Tot_Q>  (1) 
1

>  <i_epik_Tot_abs_Q>  (1) 
1

>  <i_i_glide_confnum>  (1) 
34

>  <i_i_glide_lignum>  (1) 
119

>  <i_i_glide_posenum>  (1) 
232

>  <i_i_glide_rotatable_bonds>  (1) 
5

>  <i_lp_mmshare_version>  (1) 
72125

>  <i_m_source_file_index>  (1) 
55

>  <i_f3d_flags>  (1) 
0

>  <num_sample>  (1) 
100

>  <b_lp_Chiralities_Consistent>  (1) 
1

>  <r_epik_Charging_Adjusted_Penalty>  (1) 
1.0448623015598277

>  <r_epik_Ionization_Penalty>  (1) 
1.0474264341019792

>  <r_epik_Ionization_Penalty_Charging>  (1) 
0

>  <r_epik_Ionization_Penalty_Neutral>  (1) 
1.0474264341019792

>  <r_epik_State_Penalty>  (1) 
1.0448623015598277

>  <r_glide_ring_energy>  (1) 
0

>  <r_i_docking_score>  (1) 
-3.9386085162719784

>  <r_i_glide_ecoul>  (1) 
-1.9473719693010585

>  <r_i_glide_eff_state_penalty>  (1) 
1.0448623015598277

>  <r_i_glide_einternal>  (1) 
5.159284478199595

>  <r_i_glide_emodel>  (1) 
-41.324229071843476

>  <r_i_glide_emodel_strain>  (1) 
0.15906421538666748

>  <r_i_glide_energy>  (1) 
-31.293655667218342

>  <r_i_glide_erotb>  (1) 
0.97219657743730314

>  <r_i_glide_esite>  (1) 
-0.0081111693137470488

>  <r_i_glide_evdw>  (1) 
-29.346283697917283

>  <r_i_glide_gscore>  (1) 
-4.9834708178318063

>  <r_i_glide_gscore_strain>  (1) 
0

>  <r_i_glide_hbond>  (1) 
0

>  <r_i_glide_ligand_efficiency>  (1) 
-0.21881158423733213

>  <r_i_glide_ligand_efficiency_ln>  (1) 
-1.012399010011809

>  <r_i_glide_ligand_efficiency_sa>  (1) 
-0.57344857634320323

>  <r_i_glide_lipo>  (1) 
-1.8373992248320283

>  <r_i_glide_metal>  (1) 
-0

>  <r_i_glide_rewards>  (1) 
-2.3507370208323102

>  <r_lp_Energy>  (1) 
3.1792319999999998

>  <r_lp_tautomer_probability>  (1) 
0.94828448534560383

>  <s_epik_cmdline>  (1) 
J2VwaWtfcHl0aG9uJywgJy1waHQnLCAnMS4wJywgJy1waCcsICc3LjQnLCAnLXRuJywgJzgnLCAnLW1hJywgJzUwMCcsICctaW1hZScsICc8aW5maWxlLm1hZT4nLCAnLW9tYWUnLCAnPG91dGZpbGUubWFlPic=

>  <s_epik_input>  (1) 
W0NIM11bQ0gyXVtDSDJdW0NASF0oW0NIM10pTihbQ0gyXVtDSDJdW0NIMl1PMSlbUytdMVtDQEBIXShbQ0gzXSljMm5bY0hdbltuSF0y

>  <s_glide_docking_method>  (1) 
confgen

>  <s_i_glide_gridfile>  (1) 
gpcr_5ht2c_6bqh_protein_autoprepared_prepared

>  <s_lp_Force_Field>  (1) 
S-OPLS

>  <s_lp_Variant>  (1) 
DiffSBDD_54-5

>  <s_m_source_file>  (1) 
generated_GPCR_5HT2C_ligand_DiffSBDD_2026-06-23_prepared.sdf

>  <GenAI_Model>  (1) 
DiffSBDD

>  <Protein>  (1) 
GPCR_5HT2C

$$$$
DiffSBDD_57
     RDKit          3D

  0  0  0  0  0  0  0  0  0  0999 V3000
M  V30 BEGIN CTAB
M  V30 COUNTS 64 66 0 0 1
M  V30 BEGIN ATOM
M  V30 1 O 42.001928 32.605206 62.350185 0
M  V30 2 C 37.117016 33.724996 61.715285 0
M  V30 3 C 40.677137 35.825800 65.055246 0
M  V30 4 C 38.896830 32.016200 61.253025 0 CFG=2
M  V30 5 C 38.280881 30.186288 57.408110 0
M  V30 6 S 36.953577 33.402934 59.960395 0
M  V30 7 O 39.245136 30.137700 58.172393 0
M  V30 8 C 37.958117 32.593211 62.322639 0
M  V30 9 N 38.899838 26.888698 57.190689 0
M  V30 10 C 42.225184 33.755639 64.845589 0 CFG=2
M  V30 11 N 37.011500 29.960845 57.790947 0
M  V30 12 C 40.994129 33.289611 62.167426 0
M  V30 13 O 42.091357 33.345570 66.221403 0
M  V30 14 C 40.089160 32.982354 60.960701 0
M  V30 15 C 36.990529 30.707459 60.133428 0
M  V30 16 C 39.620157 28.183701 55.222703 0 CFG=2
M  V30 17 O 42.844693 31.486896 64.994968 0
M  V30 18 C 36.582433 29.889052 59.126294 0
M  V30 19 C 38.547071 27.283103 55.828099 0 CFG=1
M  V30 20 C 37.960856 31.901764 60.018400 0 CFG=2
M  V30 21 C 39.459841 30.638761 61.694682 0
M  V30 22 C 39.586297 29.699818 55.284414 0 CFG=2
M  V30 23 C 41.149701 34.657285 64.279590 0
M  V30 24 C 38.484295 30.503750 55.932135 0 CFG=2
M  V30 25 C 39.303525 29.012195 53.977947 0
M  V30 26 N 41.746393 32.405483 65.150667 0
M  V30 27 N 39.645171 36.612505 64.577968 0
M  V30 28 C 38.216131 26.053207 54.958335 0
M  V30 29 O 37.586458 26.471664 53.767772 0
M  V30 30 O 40.044945 26.004063 57.124171 0
M  V30 31 C 41.249267 36.137735 66.233880 0
M  V30 32 C 40.584477 34.422617 63.051784 0
M  V30 33 Cl 38.845197 32.242405 55.764366 0
M  V30 34 H 36.129002 33.806564 62.167760 0
M  V30 35 H 37.617229 34.688069 61.814914 0
M  V30 36 H 37.286704 31.819469 62.685145 0
M  V30 37 H 38.509963 32.937775 63.187450 0
M  V30 38 H 38.206243 26.317866 57.653824 0
M  V30 39 H 43.245089 33.976962 64.546150 0
M  V30 40 H 36.294922 29.881893 57.081612 0
M  V30 41 H 39.725784 33.925486 60.553426 0
M  V30 42 H 40.704400 32.537851 60.183747 0
M  V30 43 H 36.584065 30.537825 61.114918 0
M  V30 44 H 40.623614 27.787637 55.367756 0
M  V30 45 H 42.924633 31.459376 64.051455 0
M  V30 46 H 35.852058 29.110496 59.284659 0
M  V30 47 H 37.641479 27.874109 55.912987 0
M  V30 48 H 38.524728 32.033437 59.111045 0
M  V30 49 H 38.681158 29.925649 61.961871 0
M  V30 50 H 40.055522 30.189970 60.899014 0
M  V30 51 H 40.093777 30.715661 62.577314 0
M  V30 52 H 40.562072 30.170688 55.367080 0
M  V30 53 H 37.548032 30.335553 55.398757 0
M  V30 54 H 38.275123 29.036738 53.624006 0
M  V30 55 H 40.042974 29.178762 53.195811 0
M  V30 56 H 39.264425 36.477258 63.654775 0
M  V30 57 H 39.108587 25.476162 54.710674 0
M  V30 58 H 37.532181 25.385927 55.484445 0
M  V30 59 H 38.214373 26.940592 53.239454 0
M  V30 60 H 40.705114 26.491038 57.598725 0
M  V30 61 H 40.907425 36.988112 66.805100 0
M  V30 62 H 42.057680 35.561983 66.641114 0
M  V30 63 H 39.804342 35.068825 62.685150 0
M  V30 64 H 39.392151 37.476680 65.035211 0
M  V30 END ATOM
M  V30 BEGIN BOND
M  V30 1 1 6 2
M  V30 2 2 7 5
M  V30 3 1 8 2
M  V30 4 1 8 4
M  V30 5 1 11 5
M  V30 6 2 12 1
M  V30 7 1 13 10
M  V30 8 1 4 14 CFG=3
M  V30 9 1 14 12
M  V30 10 1 18 11
M  V30 11 2 18 15
M  V30 12 1 19 9
M  V30 13 1 19 16
M  V30 14 1 20 4
M  V30 15 1 20 6
M  V30 16 1 20 15
M  V30 17 1 21 4
M  V30 18 1 22 16
M  V30 19 1 23 3
M  V30 20 1 23 10
M  V30 21 1 24 5
M  V30 22 1 24 22
M  V30 23 1 25 16
M  V30 24 1 25 22
M  V30 25 1 26 10
M  V30 26 1 26 13
M  V30 27 1 26 17
M  V30 28 1 27 3
M  V30 29 1 28 19
M  V30 30 1 29 28
M  V30 31 1 30 9
M  V30 32 2 31 3
M  V30 33 1 32 12
M  V30 34 2 32 23
M  V30 35 1 33 24
M  V30 36 1 34 2
M  V30 37 1 35 2
M  V30 38 1 36 8
M  V30 39 1 37 8
M  V30 40 1 38 9
M  V30 41 1 10 39 CFG=3
M  V30 42 1 40 11
M  V30 43 1 41 14
M  V30 44 1 42 14
M  V30 45 1 43 15
M  V30 46 1 16 44 CFG=3
M  V30 47 1 45 17
M  V30 48 1 46 18
M  V30 49 1 19 47 CFG=1
M  V30 50 1 20 48 CFG=3
M  V30 51 1 49 21
M  V30 52 1 50 21
M  V30 53 1 51 21
M  V30 54 1 22 52 CFG=3
M  V30 55 1 24 53 CFG=3
M  V30 56 1 54 25
M  V30 57 1 55 25
M  V30 58 1 56 27
M  V30 59 1 57 28
M  V30 60 1 58 28
M  V30 61 1 59 29
M  V30 62 1 60 30
M  V30 63 1 61 31
M  V30 64 1 62 31
M  V30 65 1 63 32
M  V30 66 1 64 27
M  V30 END BOND
M  V30 END CTAB
M  END
>  <i_epik_Tot_Q>  (1) 
0

>  <i_epik_Tot_abs_Q>  (1) 
0

>  <i_i_glide_confnum>  (1) 
5008

>  <i_i_glide_lignum>  (1) 
125

>  <i_i_glide_posenum>  (1) 
17

>  <i_i_glide_rotatable_bonds>  (1) 
16

>  <i_lp_mmshare_version>  (1) 
72125

>  <i_m_source_file_index>  (1) 
58

>  <i_f3d_flags>  (1) 
0

>  <num_sample>  (1) 
100

>  <b_lp_Chiralities_Consistent>  (1) 
1

>  <r_epik_Charging_Adjusted_Penalty>  (1) 
0.024416195549470061

>  <r_epik_Ionization_Penalty>  (1) 
0.014246986074461085

>  <r_epik_Ionization_Penalty_Charging>  (1) 
6.6592516266621022e-05

>  <r_epik_Ionization_Penalty_Neutral>  (1) 
0.014180393558194464

>  <r_epik_State_Penalty>  (1) 
0.024349603033203441

>  <r_glide_ring_energy>  (1) 
0.20506540225093017

>  <r_i_docking_score>  (1) 
-3.9373587143375426

>  <r_i_glide_ecoul>  (1) 
1.0058807349469501

>  <r_i_glide_eff_state_penalty>  (1) 
0.024349603033203441

>  <r_i_glide_einternal>  (1) 
11.232233258109769

>  <r_i_glide_emodel>  (1) 
-42.484398693761534

>  <r_i_glide_emodel_strain>  (1) 
0.6499480877265853

>  <r_i_glide_energy>  (1) 
-37.111565226862496

>  <r_i_glide_erotb>  (1) 
1.0500022235395752

>  <r_i_glide_esite>  (1) 
-0.16995112418727509

>  <r_i_glide_evdw>  (1) 
-38.117445961809445

>  <r_i_glide_gscore>  (1) 
-3.9617083173707459

>  <r_i_glide_gscore_strain>  (1) 
0

>  <r_i_glide_hbond>  (1) 
-0.018823415164091872

>  <r_i_glide_ligand_efficiency>  (1) 
-0.11931390043447099

>  <r_i_glide_ligand_efficiency_ln>  (1) 
-0.87564819151631146

>  <r_i_glide_ligand_efficiency_sa>  (1) 
-0.38270343168926968

>  <r_i_glide_lipo>  (1) 
-1.7999796040492624

>  <r_i_glide_metal>  (1) 
-0

>  <r_i_glide_rewards>  (1) 
-1.2679662096612623

>  <r_lp_Energy>  (1) 
21.778162999999999

>  <s_epik_Chemistry_Notes>  (1) 
This compound has an imine and may undergo hydrolysis. This compound contains an acetal/aminal-like group ( X-CH(R)-Y where X, Y are N, S, or O) that may be acid/base labile, releasing an aldehyde. This compound has a N-S or N-O group and may undergo hydrolysis at high or low pH.

>  <s_epik_cmdline>  (1) 
J2VwaWtfcHl0aG9uJywgJy1waHQnLCAnMS4wJywgJy1waCcsICc3LjQnLCAnLXRuJywgJzgnLCAnLW1hJywgJzUwMCcsICctaW1hZScsICc8aW5maWxlLm1hZT4nLCAnLW9tYWUnLCAnPG91dGZpbGUubWFlPic=

>  <s_epik_input>  (1) 
W09IXU4xT1tDQEBIXTFDKC9DKD1OL1tIXSlbQ0gzXSk9W0NIXVxDKD1PKVtDSDJdW0NAQF0yKFtDSDNdKVtDSDJdW0NIMl1TW0NAQEhdMi9bQ0hdPVtDSF1cW05IXUMoPU8pW0NAQEhdKENsKVtDQEhdKFtDSDJdMylbQ0BIXTNbQ0BIXShbTkhdW09IXSlbQ0gyXVtPSF0=

>  <s_glide_docking_method>  (1) 
confgen

>  <s_i_glide_gridfile>  (1) 
gpcr_5ht2c_6bqh_protein_autoprepared_prepared

>  <s_lp_Force_Field>  (1) 
S-OPLS

>  <s_lp_Variant>  (1) 
DiffSBDD_57-1

>  <s_m_source_file>  (1) 
generated_GPCR_5HT2C_ligand_DiffSBDD_2026-06-23_prepared.sdf

>  <GenAI_Model>  (1) 
DiffSBDD

>  <Protein>  (1) 
GPCR_5HT2C

$$$$
DiffSBDD_36
     RDKit          3D

  0  0  0  0  0  0  0  0  0  0999 V3000
M  V30 BEGIN CTAB
M  V30 COUNTS 49 49 0 0 1
M  V30 BEGIN ATOM
M  V30 1 C 39.971353 30.409250 55.210224 0
M  V30 2 C 37.566846 28.686255 57.541836 0
M  V30 3 C 39.988968 28.891737 57.295475 0
M  V30 4 C 36.877021 29.920074 55.391089 0
M  V30 5 C 38.534800 31.872541 61.377046 0
M  V30 6 C 37.884147 29.834290 56.555879 0 CFG=1
M  V30 7 C 38.899485 28.319738 58.214481 0
M  V30 8 C 40.076912 30.461981 50.724303 0
M  V30 9 C 40.045124 30.416478 53.864658 0
M  V30 10 C 39.405461 29.372254 52.951128 0
M  V30 11 O 37.379024 31.737755 61.768237 0
M  V30 12 C 37.727526 31.487235 58.501738 0
M  V30 13 C 37.821742 32.868026 59.122288 0
M  V30 14 C 37.985654 31.225115 57.206936 0
M  V30 15 C 39.245958 29.356749 56.035543 0 CFG=1
M  V30 16 C 41.263811 30.537756 49.767760 0
M  V30 17 S 39.947765 30.987825 61.891378 0 CHG=-1
M  V30 18 C 38.803620 32.929932 60.306863 0
M  V30 19 C 39.522186 27.991291 50.849200 0
M  V30 20 C 40.114744 29.192601 51.595550 0 CFG=1
M  V30 21 H 40.445139 31.200390 55.764927 0
M  V30 22 H 37.245186 27.810556 56.978709 0
M  V30 23 H 36.758426 28.899958 58.240422 0
M  V30 24 H 40.775022 28.168998 57.073728 0
M  V30 25 H 40.445256 29.737766 57.802558 0
M  V30 26 H 36.845135 28.996787 54.812984 0
M  V30 27 H 35.873718 30.137753 55.750829 0
M  V30 28 H 37.137498 30.722931 54.701251 0
M  V30 29 H 38.993541 27.239131 58.330603 0
M  V30 30 H 38.974583 28.763829 59.208388 0
M  V30 31 H 39.144429 30.513126 50.167760 0
M  V30 32 H 40.092738 31.363822 51.330863 0
M  V30 33 H 40.584594 31.213444 53.379119 0
M  V30 34 H 39.368464 28.399017 53.432681 0
M  V30 35 H 38.370879 29.665052 52.780889 0
M  V30 36 H 37.430141 30.690335 59.162366 0
M  V30 37 H 38.105934 33.599437 58.364937 0
M  V30 38 H 36.821788 33.144899 59.458346 0
M  V30 39 H 38.280975 32.035245 56.557122 0
M  V30 40 H 39.081637 28.455040 55.452484 0
M  V30 41 H 41.245136 31.477607 49.231990 0
M  V30 42 H 42.210608 30.504111 50.306078 0
M  V30 43 H 41.245137 29.737757 49.029784 0
M  V30 44 H 39.819901 32.880943 59.913936 0
M  V30 45 H 38.723858 33.908426 60.781702 0
M  V30 46 H 38.478865 28.157070 50.578784 0
M  V30 47 H 40.084296 27.809557 49.939212 0
M  V30 48 H 39.571467 27.080294 51.446551 0
M  V30 49 H 41.161585 28.947090 51.767760 0
M  V30 END ATOM
M  V30 BEGIN BOND
M  V30 1 1 6 2
M  V30 2 1 6 4 CFG=3
M  V30 3 1 7 2
M  V30 4 1 7 3
M  V30 5 2 9 1
M  V30 6 1 10 9
M  V30 7 2 11 5
M  V30 8 1 13 12
M  V30 9 1 14 6
M  V30 10 2 14 12
M  V30 11 1 15 1
M  V30 12 1 15 3
M  V30 13 1 15 6
M  V30 14 1 16 8
M  V30 15 1 17 5
M  V30 16 1 18 5
M  V30 17 1 18 13
M  V30 18 1 20 8
M  V30 19 1 20 10
M  V30 20 1 20 19
M  V30 21 1 21 1
M  V30 22 1 22 2
M  V30 23 1 23 2
M  V30 24 1 24 3
M  V30 25 1 25 3
M  V30 26 1 26 4
M  V30 27 1 27 4
M  V30 28 1 28 4
M  V30 29 1 29 7
M  V30 30 1 30 7
M  V30 31 1 31 8
M  V30 32 1 32 8
M  V30 33 1 33 9
M  V30 34 1 34 10
M  V30 35 1 35 10
M  V30 36 1 36 12
M  V30 37 1 37 13
M  V30 38 1 38 13
M  V30 39 1 39 14
M  V30 40 1 15 40 CFG=3
M  V30 41 1 41 16
M  V30 42 1 42 16
M  V30 43 1 43 16
M  V30 44 1 44 18
M  V30 45 1 45 18
M  V30 46 1 46 19
M  V30 47 1 47 19
M  V30 48 1 48 19
M  V30 49 1 20 49 CFG=1
M  V30 END BOND
M  V30 END CTAB
M  END
>  <i_epik_Tot_Q>  (1) 
-1

>  <i_epik_Tot_abs_Q>  (1) 
1

>  <i_i_glide_confnum>  (1) 
434

>  <i_i_glide_lignum>  (1) 
81

>  <i_i_glide_posenum>  (1) 
211

>  <i_i_glide_rotatable_bonds>  (1) 
8

>  <i_lp_mmshare_version>  (1) 
72125

>  <i_m_source_file_index>  (1) 
37

>  <i_f3d_flags>  (1) 
0

>  <num_sample>  (1) 
100

>  <b_lp_Chiralities_Consistent>  (1) 
1

>  <r_epik_Charging_Adjusted_Penalty>  (1) 
9.4165288777969193e-05

>  <r_epik_Ionization_Penalty>  (1) 
9.4165288777969193e-05

>  <r_epik_Ionization_Penalty_Charging>  (1) 
9.4165288777969193e-05

>  <r_epik_Ionization_Penalty_Neutral>  (1) 
0

>  <r_epik_State_Penalty>  (1) 
-0

>  <r_glide_ring_energy>  (1) 
0

>  <r_i_docking_score>  (1) 
-3.9366442203458671

>  <r_i_glide_ecoul>  (1) 
-2.3495313537203737

>  <r_i_glide_eff_state_penalty>  (1) 
-0

>  <r_i_glide_einternal>  (1) 
6.9124619379939514

>  <r_i_glide_emodel>  (1) 
-30.527923968050956

>  <r_i_glide_emodel_strain>  (1) 
0.099128618316790096

>  <r_i_glide_energy>  (1) 
-28.497932255552545

>  <r_i_glide_erotb>  (1) 
2.5456975872200465

>  <r_i_glide_esite>  (1) 
0

>  <r_i_glide_evdw>  (1) 
-26.148400901832172

>  <r_i_glide_gscore>  (1) 
-3.9366442203458671

>  <r_i_glide_gscore_strain>  (1) 
0

>  <r_i_glide_hbond>  (1) 
-0.30345701555855031

>  <r_i_glide_ligand_efficiency>  (1) 
-0.19683221101729337

>  <r_i_glide_ligand_efficiency_ln>  (1) 
-0.98521220913643248

>  <r_i_glide_ligand_efficiency_sa>  (1) 
-0.53428482109866715

>  <r_i_glide_lipo>  (1) 
-2.1804606525586681

>  <r_i_glide_metal>  (1) 
-0

>  <r_i_glide_rewards>  (1) 
-2.3385743912990309

>  <r_lp_Energy>  (1) 
16.069313999999999

>  <r_lp_tautomer_probability>  (1) 
1

>  <s_epik_cmdline>  (1) 
J2VwaWtfcHl0aG9uJywgJy1waHQnLCAnMS4wJywgJy1waCcsICc3LjQnLCAnLXRuJywgJzgnLCAnLW1hJywgJzUwMCcsICctaW1hZScsICc8aW5maWxlLm1hZT4nLCAnLW9tYWUnLCAnPG91dGZpbGUubWFlPic=

>  <s_epik_input>  (1) 
W0NIM11bQ0gyXVtDQEhdKFtDSDNdKVtDSDJdL1tDSF09W0NIXVxbQ0BIXTFbQ0gyXVtDSDJdW0NIMl1bQ0BAXTEoW0NIM10pXFtDSF09W0NIXVxbQ0gyXVtDSDJdQyg9TylbU0hd

>  <s_glide_docking_method>  (1) 
confgen

>  <s_i_glide_gridfile>  (1) 
gpcr_5ht2c_6bqh_protein_autoprepared_prepared

>  <s_lp_Force_Field>  (1) 
S-OPLS

>  <s_lp_Variant>  (1) 
DiffSBDD_36-2

>  <s_m_source_file>  (1) 
generated_GPCR_5HT2C_ligand_DiffSBDD_2026-06-23_prepared.sdf

>  <GenAI_Model>  (1) 
DiffSBDD

>  <Protein>  (1) 
GPCR_5HT2C

$$$$
DiffSBDD_16
     RDKit          3D

  0  0  0  0  0  0  0  0  0  0999 V3000
M  V30 BEGIN CTAB
M  V30 COUNTS 69 73 0 0 1
M  V30 BEGIN ATOM
M  V30 1 C 38.204309 29.182694 58.936977 0
M  V30 2 C 42.848972 30.891218 66.287123 0
M  V30 3 C 39.597959 33.371074 61.354578 0 CFG=1
M  V30 4 C 40.737579 34.320730 61.792538 0
M  V30 5 C 40.445351 28.414875 58.278885 0
M  V30 6 C 39.870170 27.390019 57.507927 0
M  V30 7 C 36.151397 33.659979 60.414769 0
M  V30 8 C 35.855197 34.021727 58.944552 0
M  V30 9 C 39.201455 33.490844 59.889882 0
M  V30 10 C 38.476451 27.252026 57.452713 0
M  V30 11 O 35.551058 31.561253 61.366299 0
M  V30 12 C 41.849258 32.484636 64.745367 0
M  V30 13 C 40.930083 32.878635 63.811784 0
M  V30 14 C 39.865337 31.967733 63.179632 0
M  V30 15 C 42.021116 31.123333 65.297338 0
M  V30 16 C 39.618301 29.318118 58.990349 0
M  V30 17 N 42.932807 29.584035 66.705390 0
M  V30 18 C 41.753914 27.179569 64.316341 0
M  V30 19 N 39.940529 32.004873 61.727892 0
M  V30 20 C 41.394374 28.164494 63.243864 0
M  V30 21 C 41.952104 28.537381 58.355573 0
M  V30 22 C 37.050417 34.031230 57.958979 0
M  V30 23 C 38.958669 32.841175 56.711651 0
M  V30 24 C 37.897940 32.762493 57.825592 0 CFG=1
M  V30 25 C 37.276425 30.091085 59.689856 0
M  V30 26 C 38.467794 32.318044 59.166809 0 CFG=2
M  V30 27 C 36.320331 32.150884 60.607600 0
M  V30 28 C 41.320456 29.911720 64.824712 0 CFG=2
M  V30 29 C 37.394137 31.444487 59.844112 0
M  V30 30 C 42.203443 29.042160 65.784865 0
M  V30 31 N 41.418853 29.433193 63.434247 0
M  V30 32 C 37.649621 28.137755 58.167593 0
M  V30 33 C 40.884894 34.315133 63.319388 0
M  V30 34 C 42.171219 27.610730 65.523170 0
M  V30 35 H 43.458241 31.636708 66.777547 0
M  V30 36 H 38.699717 33.679723 61.889265 0
M  V30 37 H 41.685787 33.998888 61.367759 0
M  V30 38 H 40.553996 35.336390 61.438779 0
M  V30 39 H 40.502576 26.702273 56.964153 0
M  V30 40 H 35.269571 33.937902 60.993834 0
M  V30 41 H 36.946455 34.242841 60.861298 0
M  V30 42 H 35.088587 33.345004 58.567771 0
M  V30 43 H 35.386771 35.006177 58.922464 0
M  V30 44 H 38.662633 34.428275 59.841139 0
M  V30 45 H 40.045135 33.727831 59.272243 0
M  V30 46 H 38.036346 26.461462 56.862890 0
M  V30 47 H 42.521515 33.245319 65.115701 0
M  V30 48 H 39.686450 30.978423 63.550028 0
M  V30 49 H 38.897501 32.419345 63.367787 0
M  V30 50 H 40.070491 30.080278 59.601870 0
M  V30 51 H 41.712077 26.132538 64.057276 0
M  V30 52 H 39.244057 31.375891 61.353606 0
M  V30 53 H 41.129191 27.737792 62.276166 0
M  V30 54 H 42.265259 29.556262 58.568597 0
M  V30 55 H 42.334423 27.882864 59.139227 0
M  V30 56 H 42.411135 28.233096 57.413457 0
M  V30 57 H 36.661748 34.137746 56.967815 0
M  V30 58 H 37.645131 34.927903 58.094877 0
M  V30 59 H 39.862548 33.337521 57.043082 0
M  V30 60 H 39.258421 31.839252 56.402535 0
M  V30 61 H 38.583654 33.355479 55.826374 0
M  V30 62 H 37.245138 31.968540 57.476371 0
M  V30 63 H 36.414036 29.607462 60.120013 0
M  V30 64 H 39.245138 31.672933 58.852140 0
M  V30 65 H 40.293372 29.884771 65.194149 0
M  V30 66 H 36.578363 28.021845 58.121284 0
M  V30 67 H 40.033799 34.822135 63.767846 0
M  V30 68 H 41.774956 34.868534 63.621290 0
M  V30 69 H 42.501715 26.947734 66.308223 0
M  V30 END ATOM
M  V30 BEGIN BOND
M  V30 1 1 4 3
M  V30 2 1 6 5
M  V30 3 1 8 7
M  V30 4 1 9 3
M  V30 5 2 10 6
M  V30 6 2 13 12
M  V30 7 1 14 13
M  V30 8 2 15 2
M  V30 9 1 15 12
M  V30 10 1 16 1
M  V30 11 2 16 5
M  V30 12 1 17 2
M  V30 13 1 19 3
M  V30 14 1 19 14
M  V30 15 1 20 18
M  V30 16 1 21 5
M  V30 17 1 22 8
M  V30 18 1 24 22
M  V30 19 1 24 23
M  V30 20 1 25 1
M  V30 21 1 26 9
M  V30 22 1 26 24
M  V30 23 1 27 7
M  V30 24 2 27 11
M  V30 25 1 28 15
M  V30 26 2 29 25
M  V30 27 1 29 26
M  V30 28 1 29 27
M  V30 29 2 30 17
M  V30 30 1 30 28
M  V30 31 2 31 20
M  V30 32 1 31 28
M  V30 33 2 32 1
M  V30 34 1 32 10
M  V30 35 1 33 4
M  V30 36 1 33 13
M  V30 37 2 34 18
M  V30 38 1 34 30
M  V30 39 1 35 2
M  V30 40 1 3 36 CFG=1
M  V30 41 1 37 4
M  V30 42 1 38 4
M  V30 43 1 39 6
M  V30 44 1 40 7
M  V30 45 1 41 7
M  V30 46 1 42 8
M  V30 47 1 43 8
M  V30 48 1 44 9
M  V30 49 1 45 9
M  V30 50 1 46 10
M  V30 51 1 47 12
M  V30 52 1 48 14
M  V30 53 1 49 14
M  V30 54 1 50 16
M  V30 55 1 51 18
M  V30 56 1 52 19
M  V30 57 1 53 20
M  V30 58 1 54 21
M  V30 59 1 55 21
M  V30 60 1 56 21
M  V30 61 1 57 22
M  V30 62 1 58 22
M  V30 63 1 59 23
M  V30 64 1 60 23
M  V30 65 1 61 23
M  V30 66 1 24 62 CFG=3
M  V30 67 1 63 25
M  V30 68 1 26 64 CFG=3
M  V30 69 1 28 65 CFG=1
M  V30 70 1 66 32
M  V30 71 1 67 33
M  V30 72 1 68 33
M  V30 73 1 69 34
M  V30 END BOND
M  V30 END CTAB
M  END
>  <i_epik_Tot_Q>  (1) 
0

>  <i_epik_Tot_abs_Q>  (1) 
0

>  <i_i_glide_confnum>  (1) 
11

>  <i_i_glide_lignum>  (1) 
39

>  <i_i_glide_posenum>  (1) 
221

>  <i_i_glide_rotatable_bonds>  (1) 
4

>  <i_lp_mmshare_version>  (1) 
72125

>  <i_m_source_file_index>  (1) 
17

>  <i_f3d_flags>  (1) 
0

>  <num_sample>  (1) 
100

>  <b_lp_Chiralities_Consistent>  (1) 
1

>  <r_epik_Charging_Adjusted_Penalty>  (1) 
0.56391873878667209

>  <r_epik_Ionization_Penalty>  (1) 
0.56391873878667209

>  <r_epik_Ionization_Penalty_Charging>  (1) 
0

>  <r_epik_Ionization_Penalty_Neutral>  (1) 
0.56391873878667209

>  <r_epik_State_Penalty>  (1) 
0.56391873878667209

>  <r_glide_ring_energy>  (1) 
0

>  <r_i_docking_score>  (1) 
-3.9277134556519888

>  <r_i_glide_ecoul>  (1) 
-4.2187004612067671

>  <r_i_glide_eff_state_penalty>  (1) 
0.56391873878667209

>  <r_i_glide_einternal>  (1) 
2.9766411159376922

>  <r_i_glide_emodel>  (1) 
-30.113729904731876

>  <r_i_glide_emodel_strain>  (1) 
11.517196287783094

>  <r_i_glide_energy>  (1) 
-33.963953261212566

>  <r_i_glide_erotb>  (1) 
0.29265828080580603

>  <r_i_glide_esite>  (1) 
-0.049588836193697798

>  <r_i_glide_evdw>  (1) 
-29.745252800005801

>  <r_i_glide_gscore>  (1) 
-4.4916321944386608

>  <r_i_glide_gscore_strain>  (1) 
1.8792990719457734

>  <r_i_glide_hbond>  (1) 
-0.30608101126360615

>  <r_i_glide_ligand_efficiency>  (1) 
-0.11552098398976438

>  <r_i_glide_ligand_efficiency_ln>  (1) 
-0.86774207098429512

>  <r_i_glide_ligand_efficiency_sa>  (1) 
-0.37424314302842793

>  <r_i_glide_lipo>  (1) 
-2.7469064644110501

>  <r_i_glide_metal>  (1) 
-0

>  <r_i_glide_rewards>  (1) 
-1.4409455261405815

>  <r_lp_Energy>  (1) 
57.867013

>  <s_epik_Chemistry_Notes>  (1) 
This compound has an imine and may undergo hydrolysis.

>  <s_epik_cmdline>  (1) 
J2VwaWtfcHl0aG9uJywgJy1waHQnLCAnMS4wJywgJy1waCcsICc3LjQnLCAnLXRuJywgJzgnLCAnLW1hJywgJzUwMCcsICctaW1hZScsICc8aW5maWxlLm1hZT4nLCAnLW9tYWUnLCAnPG91dGZpbGUubWFlPic=

>  <s_epik_input>  (1) 
W2NIXTFbY0hdW2NIXWMoW0NIM10pW2NIXWMxL1tDSF09QyhDKD1PKVtDSDJdW0NIMl1bQ0gyXVtDQEhdMltDSDNdKVxbQ0BASF0yW0NIMl1bQ0BASF0zW0NIMl1bQ0gyXUMoXFtDSDJdW05IXTMpPVtDSF1cQzQ9W0NIXU49QyhbQ0BASF00NSlbQ0hdPVtDSF1bQ0hdPU41

>  <s_glide_docking_method>  (1) 
confgen

>  <s_i_glide_gridfile>  (1) 
gpcr_5ht2c_6bqh_protein_autoprepared_prepared

>  <s_lp_Force_Field>  (1) 
S-OPLS

>  <s_lp_Variant>  (1) 
DiffSBDD_16-7

>  <s_m_source_file>  (1) 
generated_GPCR_5HT2C_ligand_DiffSBDD_2026-06-23_prepared.sdf

>  <GenAI_Model>  (1) 
DiffSBDD

>  <Protein>  (1) 
GPCR_5HT2C

$$$$
DiffSBDD_83
     RDKit          3D

  0  0  0  0  0  0  0  0  0  0999 V3000
M  V30 BEGIN CTAB
M  V30 COUNTS 54 55 0 0 1
M  V30 BEGIN ATOM
M  V30 1 C 39.559756 26.521840 54.611386 0
M  V30 2 C 38.554518 32.328311 56.940134 0
M  V30 3 N 38.445203 33.104295 55.857994 0
M  V30 4 O 37.244978 36.210797 59.851293 0
M  V30 5 O 39.645502 27.551056 55.452751 0
M  V30 6 C 39.244033 28.224925 52.731648 0
M  V30 7 C 39.024989 28.517440 51.261439 0
M  V30 8 C 37.052188 36.516834 62.039104 0
M  V30 9 C 37.337877 30.322412 60.096362 0
M  V30 10 C 39.350018 26.932650 53.173838 0
M  V30 11 C 38.751153 32.954173 58.279972 0
M  V30 12 C 38.027459 29.796844 54.352423 0
M  V30 13 N 38.237266 32.221526 54.871582 0
M  V30 14 O 39.812741 27.160580 56.848574 0
M  V30 15 C 37.389789 33.811041 60.296544 0 CFG=1
M  V30 16 C 35.328396 32.344278 61.016000 0
M  V30 17 C 37.476440 36.977993 60.914823 0
M  V30 18 O 39.645135 25.347064 54.969162 0
M  V30 19 C 36.566906 35.101390 60.511284 0 CFG=1
M  V30 20 C 38.445187 30.937113 56.624577 0
M  V30 21 O 36.445134 35.337738 61.937319 0
M  V30 22 C 37.693333 31.359479 61.178001 0
M  V30 23 C 36.834538 32.648336 61.191511 0 CFG=1
M  V30 24 C 38.232182 30.923716 55.286198 0
M  V30 25 Cl 37.249882 37.337693 63.536041 0
M  V30 26 C 39.325888 29.469676 53.618919 0
M  V30 27 C 37.417308 33.517536 58.786764 0
M  V30 28 H 38.095592 32.523272 53.917357 0
M  V30 29 H 39.830276 29.136141 50.863890 0
M  V30 30 H 38.976672 27.600143 50.671692 0
M  V30 31 H 38.079488 29.039471 51.136005 0
M  V30 32 H 38.028390 29.479140 60.124724 0
M  V30 33 H 36.329821 29.928227 60.206888 0
M  V30 34 H 37.377348 30.745766 59.100646 0
M  V30 35 H 39.278736 26.137822 52.453167 0
M  V30 36 H 39.147552 32.214697 58.969643 0
M  V30 37 H 39.503382 33.737691 58.232422 0
M  V30 38 H 37.245127 30.041388 53.652020 0
M  V30 39 H 37.652795 28.939246 54.908463 0
M  V30 40 H 40.734659 26.949856 56.866212 0
M  V30 41 H 38.401803 34.045562 60.629310 0
M  V30 42 H 35.078990 32.034475 60.001025 0
M  V30 43 H 35.008070 31.547538 61.688164 0
M  V30 44 H 34.715599 33.212247 61.255927 0
M  V30 45 H 37.998447 37.901503 60.711882 0
M  V30 46 H 35.570262 35.009142 60.079159 0
M  V30 47 H 38.500096 30.086213 57.286821 0
M  V30 48 H 38.747502 31.626124 61.100664 0
M  V30 49 H 37.610046 30.869115 62.147522 0
M  V30 50 H 36.936747 33.000731 62.214697 0
M  V30 51 H 40.156877 29.474464 54.315614 0
M  V30 52 H 39.565903 30.314141 52.970897 0
M  V30 53 H 37.192827 34.403797 58.192078 0
M  V30 54 H 36.606136 32.827998 58.567560 0
M  V30 END ATOM
M  V30 BEGIN BOND
M  V30 1 2 3 2
M  V30 2 1 5 1
M  V30 3 1 7 6
M  V30 4 1 10 1
M  V30 5 2 10 6
M  V30 6 1 11 2
M  V30 7 1 13 3
M  V30 8 1 14 5
M  V30 9 1 17 4
M  V30 10 2 17 8
M  V30 11 2 18 1
M  V30 12 1 19 4
M  V30 13 1 19 15
M  V30 14 1 20 2
M  V30 15 1 21 8
M  V30 16 1 21 19
M  V30 17 1 22 9
M  V30 18 1 23 15
M  V30 19 1 23 16
M  V30 20 1 23 22
M  V30 21 1 24 12
M  V30 22 1 24 13
M  V30 23 2 24 20
M  V30 24 1 25 8
M  V30 25 1 26 6
M  V30 26 1 26 12
M  V30 27 1 27 11
M  V30 28 1 27 15
M  V30 29 1 28 13
M  V30 30 1 29 7
M  V30 31 1 30 7
M  V30 32 1 31 7
M  V30 33 1 32 9
M  V30 34 1 33 9
M  V30 35 1 34 9
M  V30 36 1 35 10
M  V30 37 1 36 11
M  V30 38 1 37 11
M  V30 39 1 38 12
M  V30 40 1 39 12
M  V30 41 1 40 14
M  V30 42 1 15 41 CFG=1
M  V30 43 1 42 16
M  V30 44 1 43 16
M  V30 45 1 44 16
M  V30 46 1 45 17
M  V30 47 1 19 46 CFG=3
M  V30 48 1 47 20
M  V30 49 1 48 22
M  V30 50 1 49 22
M  V30 51 1 23 50 CFG=1
M  V30 52 1 51 26
M  V30 53 1 52 26
M  V30 54 1 53 27
M  V30 55 1 54 27
M  V30 END BOND
M  V30 END CTAB
M  END
>  <i_epik_Tot_Q>  (1) 
0

>  <i_epik_Tot_abs_Q>  (1) 
0

>  <i_i_glide_confnum>  (1) 
995

>  <i_i_glide_lignum>  (1) 
194

>  <i_i_glide_posenum>  (1) 
292

>  <i_i_glide_rotatable_bonds>  (1) 
12

>  <i_lp_mmshare_version>  (1) 
72125

>  <i_m_source_file_index>  (1) 
84

>  <i_f3d_flags>  (1) 
0

>  <num_sample>  (1) 
100

>  <b_lp_Chiralities_Consistent>  (1) 
1

>  <r_epik_Charging_Adjusted_Penalty>  (1) 
0.41067983895260396

>  <r_epik_Ionization_Penalty>  (1) 
0.00090540554532319911

>  <r_epik_Ionization_Penalty_Charging>  (1) 
0

>  <r_epik_Ionization_Penalty_Neutral>  (1) 
0.00090540554532319911

>  <r_epik_State_Penalty>  (1) 
0.41067983895260396

>  <r_glide_ring_energy>  (1) 
0

>  <r_i_docking_score>  (1) 
-3.9222150352332217

>  <r_i_glide_ecoul>  (1) 
0.37616473896435987

>  <r_i_glide_eff_state_penalty>  (1) 
0.41067983895260396

>  <r_i_glide_einternal>  (1) 
5.6711919762124827

>  <r_i_glide_emodel>  (1) 
-46.1260743647235

>  <r_i_glide_emodel_strain>  (1) 
0

>  <r_i_glide_energy>  (1) 
-39.03413241516408

>  <r_i_glide_erotb>  (1) 
1.1080255732668134

>  <r_i_glide_esite>  (1) 
-0.017586898062485114

>  <r_i_glide_evdw>  (1) 
-39.410297154128443

>  <r_i_glide_gscore>  (1) 
-4.3328948741858255

>  <r_i_glide_gscore_strain>  (1) 
0

>  <r_i_glide_hbond>  (1) 
0

>  <r_i_glide_ligand_efficiency>  (1) 
-0.14526722352715635

>  <r_i_glide_ligand_efficiency_ln>  (1) 
-0.91302699743376825

>  <r_i_glide_ligand_efficiency_sa>  (1) 
-0.43580167058146918

>  <r_i_glide_lipo>  (1) 
-1.7357588906028019

>  <r_i_glide_metal>  (1) 
-0

>  <r_i_glide_rewards>  (1) 
-1.7734845119255844

>  <r_lp_Energy>  (1) 
15.108011999999999

>  <r_lp_tautomer_probability>  (1) 
0.5

>  <s_epik_Chemistry_Notes>  (1) 
This compound contains an acetal/aminal-like group ( X-CH(R)-Y where X, Y are N, S, or O) that may be acid/base labile, releasing an aldehyde.

>  <s_epik_cmdline>  (1) 
J2VwaWtfcHl0aG9uJywgJy1waHQnLCAnMS4wJywgJy1waCcsICc3LjQnLCAnLXRuJywgJzgnLCAnLW1hJywgJzUwMCcsICctaW1hZScsICc8aW5maWxlLm1hZT4nLCAnLW9tYWUnLCAnPG91dGZpbGUubWFlPic=

>  <s_epik_input>  (1) 
W09IXU9DKD1PKVxbQ0hdPUMoXFtDSDNdKVtDSDJdW0NIMl1jKFtjSF0xKW5bbkhdYzFbQ0gyXVtDSDJdW0NASF0oW0NAQEhdKFtDSDNdKVtDSDJdW0NIM10pW0NAQEhdKE8yKU9bQ0hdPUMyQ2w=

>  <s_glide_docking_method>  (1) 
confgen

>  <s_i_glide_gridfile>  (1) 
gpcr_5ht2c_6bqh_protein_autoprepared_prepared

>  <s_lp_Force_Field>  (1) 
S-OPLS

>  <s_lp_Variant>  (1) 
DiffSBDD_83-5

>  <s_m_source_file>  (1) 
generated_GPCR_5HT2C_ligand_DiffSBDD_2026-06-23_prepared.sdf

>  <GenAI_Model>  (1) 
DiffSBDD

>  <Protein>  (1) 
GPCR_5HT2C

$$$$
DiffSBDD_14
     RDKit          3D

  0  0  0  0  0  0  0  0  0  0999 V3000
M  V30 BEGIN CTAB
M  V30 COUNTS 49 48 0 0 1
M  V30 BEGIN ATOM
M  V30 1 C 38.908472 26.597395 58.661971 0
M  V30 2 C 39.573905 26.899638 52.977055 0
M  V30 3 C 40.095060 27.383410 58.122538 0
M  V30 4 C 38.073744 26.204217 54.912399 0
M  V30 5 O 37.204722 30.996874 61.232206 0 CHG=-1
M  V30 6 N 36.446029 30.138064 58.568715 0 CHG=1
M  V30 7 C 38.415908 25.466423 58.113224 0
M  V30 8 C 37.743125 29.869136 59.203713 0 CFG=2
M  V30 9 C 38.473523 27.480597 52.109322 0
M  V30 10 C 36.603289 24.381946 55.934102 0
M  V30 11 C 38.037341 24.849944 55.640895 0 CFG=2
M  V30 12 C 37.954159 30.997803 60.230152 0
M  V30 13 C 38.848727 28.902176 51.666970 0
M  V30 14 O 38.844251 31.838243 59.987889 0
M  V30 15 C 38.867197 29.694444 58.134488 0
M  V30 16 O 40.437707 28.988735 59.920992 0
M  V30 17 C 40.146989 28.991404 50.842223 0
M  V30 18 C 39.405588 26.355377 54.194320 0
M  V30 19 C 38.971840 24.784773 56.877148 0
M  V30 20 C 40.117817 28.871666 58.549175 0 CFG=1
M  V30 21 H 38.445199 26.990177 59.548903 0
M  V30 22 H 40.554543 26.938176 52.567759 0
M  V30 23 H 40.105836 27.335996 57.036151 0
M  V30 24 H 41.014517 26.899472 58.452793 0
M  V30 25 H 37.234531 26.247062 54.220523 0
M  V30 26 H 37.937973 27.020694 55.618443 0
M  V30 27 H 35.748406 30.254521 59.290904 0
M  V30 28 H 36.473453 31.000543 58.030617 0
M  V30 29 H 37.565706 24.986558 58.568631 0
M  V30 30 H 37.621631 28.940790 59.757301 0
M  V30 31 H 38.362703 26.858543 51.221975 0
M  V30 32 H 37.496553 27.501279 52.589157 0
M  V30 33 H 36.058698 25.096767 56.549194 0
M  V30 34 H 36.045137 24.251345 55.004799 0
M  V30 35 H 36.597116 23.423348 56.450306 0
M  V30 36 H 38.432415 24.134208 54.924960 0
M  V30 37 H 38.044996 29.285241 51.053956 0
M  V30 38 H 38.910831 29.569857 52.528229 0
M  V30 39 H 39.188374 30.669255 57.761570 0
M  V30 40 H 38.445494 29.214213 57.251766 0
M  V30 41 H 39.688740 28.753609 60.447013 0
M  V30 42 H 40.265909 29.983336 50.402039 0
M  V30 43 H 41.031270 28.800823 51.447875 0
M  V30 44 H 40.136081 28.264344 50.028913 0
M  V30 45 H 40.273185 25.987607 54.718889 0
M  V30 46 H 39.978309 25.129620 56.654759 0
M  V30 47 H 39.117790 23.738375 57.146527 0
M  V30 48 H 40.966452 29.316178 58.031689 0
M  V30 49 H 36.179368 29.387315 57.949827 0
M  V30 END ATOM
M  V30 BEGIN BOND
M  V30 1 1 3 1
M  V30 2 2 7 1
M  V30 3 1 8 6
M  V30 4 1 9 2
M  V30 5 1 11 4
M  V30 6 1 11 10
M  V30 7 1 12 5
M  V30 8 1 12 8
M  V30 9 1 13 9
M  V30 10 2 14 12
M  V30 11 1 15 8
M  V30 12 1 17 13
M  V30 13 2 18 2
M  V30 14 1 18 4
M  V30 15 1 19 7
M  V30 16 1 19 11
M  V30 17 1 20 3
M  V30 18 1 20 15
M  V30 19 1 20 16
M  V30 20 1 21 1
M  V30 21 1 22 2
M  V30 22 1 23 3
M  V30 23 1 24 3
M  V30 24 1 25 4
M  V30 25 1 26 4
M  V30 26 1 27 6
M  V30 27 1 28 6
M  V30 28 1 29 7
M  V30 29 1 8 30 CFG=1
M  V30 30 1 31 9
M  V30 31 1 32 9
M  V30 32 1 33 10
M  V30 33 1 34 10
M  V30 34 1 35 10
M  V30 35 1 11 36 CFG=3
M  V30 36 1 37 13
M  V30 37 1 38 13
M  V30 38 1 39 15
M  V30 39 1 40 15
M  V30 40 1 41 16
M  V30 41 1 42 17
M  V30 42 1 43 17
M  V30 43 1 44 17
M  V30 44 1 45 18
M  V30 45 1 46 19
M  V30 46 1 47 19
M  V30 47 1 20 48 CFG=3
M  V30 48 1 49 6
M  V30 END BOND
M  V30 END CTAB
M  END
>  <i_epik_Tot_Q>  (1) 
0

>  <i_epik_Tot_abs_Q>  (1) 
2

>  <i_i_glide_confnum>  (1) 
598

>  <i_i_glide_lignum>  (1) 
25

>  <i_i_glide_posenum>  (1) 
354

>  <i_i_glide_rotatable_bonds>  (1) 
12

>  <i_lp_mmshare_version>  (1) 
72125

>  <i_m_source_file_index>  (1) 
15

>  <i_f3d_flags>  (1) 
0

>  <num_sample>  (1) 
100

>  <b_lp_Chiralities_Consistent>  (1) 
1

>  <r_epik_Charging_Adjusted_Penalty>  (1) 
0.00991281995240933

>  <r_epik_Ionization_Penalty>  (1) 
0.0049587358016132182

>  <r_epik_Ionization_Penalty_Charging>  (1) 
0.0049586922537287062

>  <r_epik_Ionization_Penalty_Neutral>  (1) 
4.3547884512074136e-08

>  <r_epik_State_Penalty>  (1) 
0.0049541276986806238

>  <r_glide_ring_energy>  (1) 
0

>  <r_i_docking_score>  (1) 
-3.9130582282837754

>  <r_i_glide_ecoul>  (1) 
-5.5728438893316801

>  <r_i_glide_eff_state_penalty>  (1) 
0.0049541276986806238

>  <r_i_glide_einternal>  (1) 
5.6165534094384215

>  <r_i_glide_emodel>  (1) 
-38.740205147741776

>  <r_i_glide_emodel_strain>  (1) 
1.0113858716319477

>  <r_i_glide_energy>  (1) 
-32.729898616583853

>  <r_i_glide_erotb>  (1) 
4.0583376510001772

>  <r_i_glide_esite>  (1) 
-0.10000000000000001

>  <r_i_glide_evdw>  (1) 
-27.157054727252174

>  <r_i_glide_gscore>  (1) 
-3.918012355982456

>  <r_i_glide_gscore_strain>  (1) 
0

>  <r_i_glide_hbond>  (1) 
-0.29564897176145888

>  <r_i_glide_ligand_efficiency>  (1) 
-0.19565291141418878

>  <r_i_glide_ligand_efficiency_ln>  (1) 
-0.97930941324137277

>  <r_i_glide_ligand_efficiency_sa>  (1) 
-0.53108370948075667

>  <r_i_glide_lipo>  (1) 
-3.7754400909911046

>  <r_i_glide_metal>  (1) 
-0

>  <r_i_glide_rewards>  (1) 
-1.6114816244677084

>  <r_lp_Energy>  (1) 
-2.0844119999999999

>  <s_epik_cmdline>  (1) 
J2VwaWtfcHl0aG9uJywgJy1waHQnLCAnMS4wJywgJy1waCcsICc3LjQnLCAnLXRuJywgJzgnLCAnLW1hJywgJzUwMCcsICctaW1hZScsICc8aW5maWxlLm1hZT4nLCAnLW9tYWUnLCAnPG91dGZpbGUubWFlPic=

>  <s_epik_input>  (1) 
W09IXUMoPU8pW0NAQEhdKFtOSDJdKVtDSDJdW0NAQEhdKFtPSF0pW0NIMl0vW0NIXT1bQ0hdXFtDSDJdW0NAQEhdKFtDSDNdKVtDSDJdL1tDSF09W0NIXVxbQ0gyXVtDSDJdW0NIM10=

>  <s_glide_docking_method>  (1) 
confgen

>  <s_i_glide_gridfile>  (1) 
gpcr_5ht2c_6bqh_protein_autoprepared_prepared

>  <s_lp_Force_Field>  (1) 
S-OPLS

>  <s_lp_Variant>  (1) 
DiffSBDD_14-3

>  <s_m_source_file>  (1) 
generated_GPCR_5HT2C_ligand_DiffSBDD_2026-06-23_prepared.sdf

>  <GenAI_Model>  (1) 
DiffSBDD

>  <Protein>  (1) 
GPCR_5HT2C

$$$$
DiffSBDD_14
     RDKit          3D

  0  0  0  0  0  0  0  0  0  0999 V3000
M  V30 BEGIN CTAB
M  V30 COUNTS 49 48 0 0 1
M  V30 BEGIN ATOM
M  V30 1 C 40.132382 26.720976 57.633442 0
M  V30 2 C 38.905547 29.324556 52.403272 0
M  V30 3 C 40.275916 28.241116 57.624300 0
M  V30 4 C 37.670925 27.613042 53.782778 0
M  V30 5 O 37.245139 31.058325 61.183278 0 CHG=-1
M  V30 6 N 37.245137 30.137755 57.759348 0 CHG=1
M  V30 7 C 39.179020 26.032105 56.972400 0
M  V30 8 C 37.385414 29.773661 59.182314 0 CFG=2
M  V30 9 C 39.897382 30.453499 52.197144 0
M  V30 10 C 39.730115 26.137759 54.167756 0
M  V30 11 C 38.274974 26.442150 54.590708 0 CFG=1
M  V30 12 C 37.708236 31.020850 60.022082 0
M  V30 13 C 40.881819 30.127571 51.063909 0
M  V30 14 O 38.412676 31.905492 59.485501 0
M  V30 15 C 38.423470 28.640731 59.414360 0
M  V30 16 O 40.762242 28.442934 59.961884 0
M  V30 17 C 40.240852 29.899920 49.692665 0
M  V30 18 C 38.647291 28.758473 53.590551 0
M  V30 19 C 38.093100 26.663610 56.112264 0
M  V30 20 C 39.880233 28.905783 58.960224 0 CFG=1
M  V30 21 H 40.859366 26.179632 58.218826 0
M  V30 22 H 38.390146 28.967742 51.524141 0
M  V30 23 H 39.745215 28.708103 56.799733 0
M  V30 24 H 41.325952 28.454508 57.420945 0
M  V30 25 H 37.366279 27.250145 52.800127 0
M  V30 26 H 36.766404 27.987586 54.256691 0
M  V30 27 H 36.496479 30.819474 57.644381 0
M  V30 28 H 38.104822 30.572571 57.457914 0
M  V30 29 H 39.165675 24.953665 57.041441 0
M  V30 30 H 36.407104 29.406639 59.497191 0
M  V30 31 H 39.392278 31.395911 51.993309 0
M  V30 32 H 40.445139 30.617597 53.125179 0
M  V30 33 H 40.428657 26.872455 54.567785 0
M  V30 34 H 40.045128 25.159961 54.529925 0
M  V30 35 H 39.839549 26.137755 53.082975 0
M  V30 36 H 37.693301 25.553967 54.337104 0
M  V30 37 H 41.604760 30.937751 50.967760 0
M  V30 38 H 41.452295 29.240450 51.340165 0
M  V30 39 H 38.048592 27.721456 58.967758 0
M  V30 40 H 38.445136 28.430703 60.484785 0
M  V30 41 H 40.503120 28.821293 60.789215 0
M  V30 42 H 41.019618 29.737755 48.950601 0
M  V30 43 H 39.602625 29.017740 49.676756 0
M  V30 44 H 39.646092 30.759426 49.381183 0
M  V30 45 H 39.154052 29.116235 54.474636 0
M  V30 46 H 37.140351 26.232914 56.422134 0
M  V30 47 H 37.987903 27.721417 56.329292 0
M  V30 48 H 40.045141 29.975148 58.872691 0
M  V30 49 H 37.043046 29.323370 57.201107 0
M  V30 END ATOM
M  V30 BEGIN BOND
M  V30 1 1 3 1
M  V30 2 2 7 1
M  V30 3 1 8 6
M  V30 4 1 9 2
M  V30 5 1 11 4
M  V30 6 1 11 10
M  V30 7 1 12 5
M  V30 8 1 12 8
M  V30 9 1 13 9
M  V30 10 2 14 12
M  V30 11 1 15 8
M  V30 12 1 17 13
M  V30 13 2 18 2
M  V30 14 1 18 4
M  V30 15 1 19 7
M  V30 16 1 19 11
M  V30 17 1 20 3
M  V30 18 1 20 15
M  V30 19 1 20 16
M  V30 20 1 21 1
M  V30 21 1 22 2
M  V30 22 1 23 3
M  V30 23 1 24 3
M  V30 24 1 25 4
M  V30 25 1 26 4
M  V30 26 1 27 6
M  V30 27 1 28 6
M  V30 28 1 29 7
M  V30 29 1 8 30 CFG=1
M  V30 30 1 31 9
M  V30 31 1 32 9
M  V30 32 1 33 10
M  V30 33 1 34 10
M  V30 34 1 35 10
M  V30 35 1 11 36 CFG=3
M  V30 36 1 37 13
M  V30 37 1 38 13
M  V30 38 1 39 15
M  V30 39 1 40 15
M  V30 40 1 41 16
M  V30 41 1 42 17
M  V30 42 1 43 17
M  V30 43 1 44 17
M  V30 44 1 45 18
M  V30 45 1 46 19
M  V30 46 1 47 19
M  V30 47 1 20 48 CFG=3
M  V30 48 1 49 6
M  V30 END BOND
M  V30 END CTAB
M  END
>  <i_epik_Tot_Q>  (1) 
0

>  <i_epik_Tot_abs_Q>  (1) 
2

>  <i_i_glide_confnum>  (1) 
292

>  <i_i_glide_lignum>  (1) 
27

>  <i_i_glide_posenum>  (1) 
145

>  <i_i_glide_rotatable_bonds>  (1) 
12

>  <i_lp_mmshare_version>  (1) 
72125

>  <i_m_source_file_index>  (1) 
15

>  <i_f3d_flags>  (1) 
0

>  <num_sample>  (1) 
100

>  <b_lp_Chiralities_Consistent>  (1) 
1

>  <r_epik_Charging_Adjusted_Penalty>  (1) 
0.00991281995240933

>  <r_epik_Ionization_Penalty>  (1) 
0.0049587358016132182

>  <r_epik_Ionization_Penalty_Charging>  (1) 
0.0049586922537287062

>  <r_epik_Ionization_Penalty_Neutral>  (1) 
4.3547884512074136e-08

>  <r_epik_State_Penalty>  (1) 
0.0049541276986806238

>  <r_glide_ring_energy>  (1) 
0

>  <r_i_docking_score>  (1) 
-3.9041408870898335

>  <r_i_glide_ecoul>  (1) 
-4.8095411716513681

>  <r_i_glide_eff_state_penalty>  (1) 
0.0049541276986806238

>  <r_i_glide_einternal>  (1) 
14.742558712132773

>  <r_i_glide_emodel>  (1) 
-33.049851219880196

>  <r_i_glide_emodel_strain>  (1) 
2.423064090568392

>  <r_i_glide_energy>  (1) 
-31.975602165801106

>  <r_i_glide_erotb>  (1) 
4.0583376510001772

>  <r_i_glide_esite>  (1) 
-0.11253576524282614

>  <r_i_glide_evdw>  (1) 
-27.166060994149738

>  <r_i_glide_gscore>  (1) 
-3.9090950147885142

>  <r_i_glide_gscore_strain>  (1) 
0

>  <r_i_glide_hbond>  (1) 
-0.32912398872631143

>  <r_i_glide_ligand_efficiency>  (1) 
-0.19520704435449168

>  <r_i_glide_ligand_efficiency_ln>  (1) 
-0.97707769685412593

>  <r_i_glide_ligand_efficiency_sa>  (1) 
-0.52987344007925552

>  <r_i_glide_lipo>  (1) 
-3.5802514416283868

>  <r_i_glide_metal>  (1) 
-0

>  <r_i_glide_rewards>  (1) 
-1.8657872447359751

>  <r_lp_Energy>  (1) 
-5.4588899999999994

>  <s_epik_cmdline>  (1) 
J2VwaWtfcHl0aG9uJywgJy1waHQnLCAnMS4wJywgJy1waCcsICc3LjQnLCAnLXRuJywgJzgnLCAnLW1hJywgJzUwMCcsICctaW1hZScsICc8aW5maWxlLm1hZT4nLCAnLW9tYWUnLCAnPG91dGZpbGUubWFlPic=

>  <s_epik_input>  (1) 
W09IXUMoPU8pW0NAQEhdKFtOSDJdKVtDSDJdW0NAQEhdKFtPSF0pW0NIMl0vW0NIXT1bQ0hdXFtDSDJdW0NAQEhdKFtDSDNdKVtDSDJdXFtDSF09W0NIXVxbQ0gyXVtDSDJdW0NIM10=

>  <s_glide_docking_method>  (1) 
confgen

>  <s_i_glide_gridfile>  (1) 
gpcr_5ht2c_6bqh_protein_autoprepared_prepared

>  <s_lp_Force_Field>  (1) 
S-OPLS

>  <s_lp_Variant>  (1) 
DiffSBDD_14-5

>  <s_m_source_file>  (1) 
generated_GPCR_5HT2C_ligand_DiffSBDD_2026-06-23_prepared.sdf

>  <GenAI_Model>  (1) 
DiffSBDD

>  <Protein>  (1) 
GPCR_5HT2C

$$$$
DiffSBDD_90
     RDKit          3D

  0  0  0  0  0  0  0  0  0  0999 V3000
M  V30 BEGIN CTAB
M  V30 COUNTS 54 56 0 0 1
M  V30 BEGIN ATOM
M  V30 1 Cl 42.585866 29.651873 64.674627 0
M  V30 2 O 35.839310 34.610490 60.135697 0
M  V30 3 C 39.935502 31.525447 61.479900 0
M  V30 4 C 41.580577 30.363108 63.465446 0
M  V30 5 C 39.062575 30.692676 56.716674 0 CFG=1
M  V30 6 C 37.068227 35.066594 59.649772 0 CFG=1
M  V30 7 C 38.638622 28.346402 55.019300 0
M  V30 8 O 37.899732 32.799423 57.336988 0
M  V30 9 C 33.882794 33.337760 59.629391 0
M  V30 10 C 38.365564 31.329788 59.300304 0 CFG=1
M  V30 11 C 40.918772 29.542752 62.532654 0
M  V30 12 O 37.025953 36.465831 59.472490 0
M  V30 13 C 38.301042 31.945347 54.569217 0
M  V30 14 C 40.098850 30.114052 61.540173 0
M  V30 15 C 39.257372 29.255183 57.256458 0
M  V30 16 C 38.791509 33.460202 60.489645 0
M  V30 17 C 36.844217 31.226597 59.465539 0
M  V30 18 C 38.176972 30.672376 55.425142 0 CFG=1
M  V30 19 C 38.225697 34.642147 60.554660 0
M  V30 20 C 39.657844 28.276929 56.152988 0
M  V30 21 F 42.057960 32.549085 64.313755 0
M  V30 22 C 40.605464 32.345067 62.427421 0
M  V30 23 O 38.554886 35.640776 61.382378 0
M  V30 24 C 35.362889 33.348145 59.855554 0
M  V30 25 C 38.740364 31.781342 57.822365 0 CFG=1
M  V30 26 C 41.423391 31.762164 63.413060 0
M  V30 27 C 36.074723 32.248180 59.767771 0
M  V30 28 O 38.633071 29.669507 54.513695 0
M  V30 29 O 36.432729 29.986974 59.170541 0
M  V30 30 C 39.040831 32.165384 60.435742 0
M  V30 31 H 40.044936 30.973231 56.340414 0
M  V30 32 H 37.226728 34.671319 58.651407 0
M  V30 33 H 38.918824 27.662883 54.218245 0
M  V30 34 H 37.645183 28.055730 55.358551 0
M  V30 35 H 37.035018 32.430379 57.150571 0
M  V30 36 H 33.645102 32.447541 59.051495 0
M  V30 37 H 33.337256 33.337749 60.567652 0
M  V30 38 H 33.576011 34.205084 59.045412 0
M  V30 39 H 38.730827 30.330145 59.388440 0
M  V30 40 H 41.038753 28.469700 62.579292 0
M  V30 41 H 36.539971 36.614577 58.673014 0
M  V30 42 H 37.645418 32.749089 54.899185 0
M  V30 43 H 39.323246 32.318108 54.568881 0
M  V30 44 H 38.045138 31.752084 53.530995 0
M  V30 45 H 39.598593 29.465847 60.848042 0
M  V30 46 H 40.029020 29.237814 58.026309 0
M  V30 47 H 38.333684 28.895065 57.709171 0
M  V30 48 H 37.131241 30.481383 55.671230 0
M  V30 49 H 40.648889 28.524004 55.770412 0
M  V30 50 H 39.715202 27.262381 56.548739 0
M  V30 51 H 40.491587 33.418522 62.400907 0
M  V30 52 H 38.004829 36.367986 61.116279 0
M  V30 53 H 39.645129 32.374481 57.894148 0
M  V30 54 H 35.493340 30.028855 59.070420 0
M  V30 END ATOM
M  V30 BEGIN BOND
M  V30 1 1 4 1
M  V30 2 1 6 2
M  V30 3 1 11 4
M  V30 4 1 12 6
M  V30 5 1 14 3
M  V30 6 2 14 11
M  V30 7 1 15 5
M  V30 8 1 17 10
M  V30 9 1 18 5
M  V30 10 1 18 13
M  V30 11 1 19 6
M  V30 12 2 19 16
M  V30 13 1 20 7
M  V30 14 1 20 15
M  V30 15 2 22 3
M  V30 16 1 23 19
M  V30 17 1 24 2
M  V30 18 1 24 9
M  V30 19 1 25 5
M  V30 20 1 25 8
M  V30 21 1 25 10
M  V30 22 2 26 4
M  V30 23 1 26 21
M  V30 24 1 26 22
M  V30 25 2 27 17
M  V30 26 2 27 24
M  V30 27 1 28 7
M  V30 28 1 28 18
M  V30 29 1 29 17
M  V30 30 1 30 3
M  V30 31 1 30 10
M  V30 32 2 30 16
M  V30 33 1 5 31 CFG=3
M  V30 34 1 6 32 CFG=3
M  V30 35 1 33 7
M  V30 36 1 34 7
M  V30 37 1 35 8
M  V30 38 1 36 9
M  V30 39 1 37 9
M  V30 40 1 38 9
M  V30 41 1 10 39 CFG=1
M  V30 42 1 40 11
M  V30 43 1 41 12
M  V30 44 1 42 13
M  V30 45 1 43 13
M  V30 46 1 44 13
M  V30 47 1 45 14
M  V30 48 1 46 15
M  V30 49 1 47 15
M  V30 50 1 18 48 CFG=1
M  V30 51 1 49 20
M  V30 52 1 50 20
M  V30 53 1 51 22
M  V30 54 1 52 23
M  V30 55 1 25 53 CFG=1
M  V30 56 1 54 29
M  V30 END BOND
M  V30 END CTAB
M  END
>  <i_epik_Tot_Q>  (1) 
0

>  <i_epik_Tot_abs_Q>  (1) 
0

>  <i_i_glide_confnum>  (1) 
27

>  <i_i_glide_lignum>  (1) 
210

>  <i_i_glide_posenum>  (1) 
226

>  <i_i_glide_rotatable_bonds>  (1) 
7

>  <i_lp_mmshare_version>  (1) 
72125

>  <i_m_source_file_index>  (1) 
91

>  <i_f3d_flags>  (1) 
0

>  <num_sample>  (1) 
100

>  <b_lp_Chiralities_Consistent>  (1) 
1

>  <r_epik_Charging_Adjusted_Penalty>  (1) 
0

>  <r_epik_Ionization_Penalty>  (1) 
0.00021640466764567947

>  <r_epik_Ionization_Penalty_Charging>  (1) 
0

>  <r_epik_Ionization_Penalty_Neutral>  (1) 
0.00021640466764567947

>  <r_epik_State_Penalty>  (1) 
-0

>  <r_glide_ring_energy>  (1) 
0

>  <r_i_docking_score>  (1) 
-3.896521059190631

>  <r_i_glide_ecoul>  (1) 
-4.7145094897539952

>  <r_i_glide_eff_state_penalty>  (1) 
-0

>  <r_i_glide_einternal>  (1) 
17.005146626656654

>  <r_i_glide_emodel>  (1) 
-32.394599374156286

>  <r_i_glide_emodel_strain>  (1) 
10.597337399790035

>  <r_i_glide_energy>  (1) 
-45.69354568006424

>  <r_i_glide_erotb>  (1) 
0.31077181142347338

>  <r_i_glide_esite>  (1) 
0

>  <r_i_glide_evdw>  (1) 
-40.979036190310246

>  <r_i_glide_gscore>  (1) 
-3.896521059190631

>  <r_i_glide_gscore_strain>  (1) 
1.6493343499475088

>  <r_i_glide_hbond>  (1) 
-0.21728424256682041

>  <r_i_glide_ligand_efficiency>  (1) 
-0.12988403530635437

>  <r_i_glide_ligand_efficiency_ln>  (1) 
-0.88533204064550974

>  <r_i_glide_ligand_efficiency_sa>  (1) 
-0.40357989650836301

>  <r_i_glide_lipo>  (1) 
-1.554251357981256

>  <r_i_glide_metal>  (1) 
-0

>  <r_i_glide_rewards>  (1) 
-1.3289633870349244

>  <r_lp_Energy>  (1) 
4.0027919999999995

>  <r_lp_tautomer_probability>  (1) 
1

>  <s_epik_Chemistry_Notes>  (1) 
This compound contains an acetal/aminal-like group ( X-CH(R)-Y where X, Y are N, S, or O) that may be acid/base labile, releasing an aldehyde.

>  <s_epik_cmdline>  (1) 
J2VwaWtfcHl0aG9uJywgJy1waHQnLCAnMS4wJywgJy1waCcsICc3LjQnLCAnLXRuJywgJzgnLCAnLW1hJywgJzUwMCcsICctaW1hZScsICc8aW5maWxlLm1hZT4nLCAnLW9tYWUnLCAnPG91dGZpbGUubWFlPic=

>  <s_epik_input>  (1) 
RmMoW2NIXTEpYyhDbClbY0hdW2NIXWMxQyg9Qz1DMltPSF0pW0NAQEhdKEMoW09IXSk9Qz1DKFtDSDNdKU9bQ0BIXTJbT0hdKVtDQEhdKFtPSF0pW0NASF0zW0NIMl1bQ0gyXVtDSDJdT1tDQEBIXTNbQ0gzXQ==

>  <s_glide_docking_method>  (1) 
confgen

>  <s_i_glide_gridfile>  (1) 
gpcr_5ht2c_6bqh_protein_autoprepared_prepared

>  <s_lp_Force_Field>  (1) 
S-OPLS

>  <s_lp_Variant>  (1) 
DiffSBDD_90-1

>  <s_m_source_file>  (1) 
generated_GPCR_5HT2C_ligand_DiffSBDD_2026-06-23_prepared.sdf

>  <GenAI_Model>  (1) 
DiffSBDD

>  <Protein>  (1) 
GPCR_5HT2C

$$$$
DiffSBDD_54
     RDKit          3D

  0  0  0  0  0  0  0  0  0  0999 V3000
M  V30 BEGIN CTAB
M  V30 COUNTS 41 42 0 0 1
M  V30 BEGIN ATOM
M  V30 1 C 38.411559 32.012334 55.596502 0
M  V30 2 C 39.183342 27.241213 56.775388 0
M  V30 3 C 40.262138 28.410458 58.704373 0
M  V30 4 C 40.249823 30.499590 50.817116 0
M  V30 5 C 39.457115 30.574590 53.248592 0
M  V30 6 S 38.388679 29.835661 57.177691 0 CHG=1
M  V30 7 C 38.287421 32.112388 58.130947 0
M  V30 8 N 37.977897 26.770361 57.034460 0
M  V30 9 C 37.278755 29.515224 54.184454 0
M  V30 10 C 38.071171 25.568974 56.347443 0
M  V30 11 N 39.245174 25.339232 55.724751 0
M  V30 12 N 39.927980 26.450312 56.038354 0
M  V30 13 N 38.888885 30.627651 55.710196 0
M  V30 14 C 38.756424 29.874134 54.446064 0 CFG=2
M  V30 15 C 38.783538 32.805591 56.854601 0
M  V30 16 C 39.620763 29.714671 51.975833 0
M  V30 17 O 38.845136 30.809121 58.218410 0
M  V30 18 C 39.705506 28.558631 57.277088 0 CFG=2
M  V30 19 H 37.329144 32.029585 55.463538 0
M  V30 20 H 38.847761 32.535737 54.749466 0
M  V30 21 H 41.039126 27.646305 58.742210 0
M  V30 22 H 39.479836 28.120845 59.406973 0
M  V30 23 H 40.709369 29.337737 59.061909 0
M  V30 24 H 40.341740 29.873750 49.928938 0
M  V30 25 H 41.245155 30.861500 51.071877 0
M  V30 26 H 39.645063 31.365718 50.548529 0
M  V30 27 H 40.445139 30.912511 53.563516 0
M  V30 28 H 38.910598 31.473741 52.968128 0
M  V30 29 H 38.606035 32.684013 59.002722 0
M  V30 30 H 37.200818 32.073260 58.167785 0
M  V30 31 H 37.147875 28.961275 53.254934 0
M  V30 32 H 36.639048 30.396544 54.167760 0
M  V30 33 H 36.888781 28.872351 54.967723 0
M  V30 34 H 37.260688 24.855773 56.306785 0
M  V30 35 H 40.880792 26.609951 55.740101 0
M  V30 36 H 39.289318 28.934762 54.584303 0
M  V30 37 H 39.864054 32.937742 56.897824 0
M  V30 38 H 38.353160 33.805584 56.790933 0
M  V30 39 H 40.231661 28.834356 52.167776 0
M  V30 40 H 38.653632 29.337751 51.644385 0
M  V30 41 H 40.529478 28.876103 56.637454 0
M  V30 END ATOM
M  V30 BEGIN BOND
M  V30 1 2 8 2
M  V30 2 1 10 8
M  V30 3 2 11 10
M  V30 4 1 12 2
M  V30 5 1 12 11
M  V30 6 1 13 1
M  V30 7 1 13 6
M  V30 8 1 14 5
M  V30 9 1 14 9
M  V30 10 1 14 13
M  V30 11 1 15 1
M  V30 12 1 15 7
M  V30 13 1 16 4
M  V30 14 1 16 5
M  V30 15 1 6 17 CFG=1
M  V30 16 1 17 7
M  V30 17 1 18 2
M  V30 18 1 18 3
M  V30 19 1 18 6
M  V30 20 1 19 1
M  V30 21 1 20 1
M  V30 22 1 21 3
M  V30 23 1 22 3
M  V30 24 1 23 3
M  V30 25 1 24 4
M  V30 26 1 25 4
M  V30 27 1 26 4
M  V30 28 1 27 5
M  V30 29 1 28 5
M  V30 30 1 29 7
M  V30 31 1 30 7
M  V30 32 1 31 9
M  V30 33 1 32 9
M  V30 34 1 33 9
M  V30 35 1 34 10
M  V30 36 1 35 12
M  V30 37 1 14 36 CFG=1
M  V30 38 1 37 15
M  V30 39 1 38 15
M  V30 40 1 39 16
M  V30 41 1 40 16
M  V30 42 1 18 41 CFG=3
M  V30 END BOND
M  V30 END CTAB
M  END
>  <i_epik_Tot_Q>  (1) 
1

>  <i_epik_Tot_abs_Q>  (1) 
1

>  <i_i_glide_confnum>  (1) 
34

>  <i_i_glide_lignum>  (1) 
119

>  <i_i_glide_posenum>  (1) 
244

>  <i_i_glide_rotatable_bonds>  (1) 
5

>  <i_lp_mmshare_version>  (1) 
72125

>  <i_m_source_file_index>  (1) 
55

>  <i_f3d_flags>  (1) 
0

>  <num_sample>  (1) 
100

>  <b_lp_Chiralities_Consistent>  (1) 
1

>  <r_epik_Charging_Adjusted_Penalty>  (1) 
1.0448623015598277

>  <r_epik_Ionization_Penalty>  (1) 
1.0474264341019792

>  <r_epik_Ionization_Penalty_Charging>  (1) 
0

>  <r_epik_Ionization_Penalty_Neutral>  (1) 
1.0474264341019792

>  <r_epik_State_Penalty>  (1) 
1.0448623015598277

>  <r_glide_ring_energy>  (1) 
0

>  <r_i_docking_score>  (1) 
-3.8787737230329089

>  <r_i_glide_ecoul>  (1) 
-1.7190776363151006

>  <r_i_glide_eff_state_penalty>  (1) 
1.0448623015598277

>  <r_i_glide_einternal>  (1) 
3.2848171178417704

>  <r_i_glide_emodel>  (1) 
-42.970211536749645

>  <r_i_glide_emodel_strain>  (1) 
0.077331386451724882

>  <r_i_glide_energy>  (1) 
-32.073987905599864

>  <r_i_glide_erotb>  (1) 
0.97219657743730314

>  <r_i_glide_esite>  (1) 
-0.03137026809129103

>  <r_i_glide_evdw>  (1) 
-30.354910269284762

>  <r_i_glide_gscore>  (1) 
-4.9236360245927369

>  <r_i_glide_gscore_strain>  (1) 
0

>  <r_i_glide_hbond>  (1) 
0

>  <r_i_glide_ligand_efficiency>  (1) 
-0.21548742905738383

>  <r_i_glide_ligand_efficiency_ln>  (1) 
-0.99701878494266893

>  <r_i_glide_ligand_efficiency_sa>  (1) 
-0.56473682526233882

>  <r_i_glide_lipo>  (1) 
-1.6063248025362606

>  <r_i_glide_metal>  (1) 
-0

>  <r_i_glide_rewards>  (1) 
-2.4825303724909848

>  <r_lp_Energy>  (1) 
3.1792319999999998

>  <r_lp_tautomer_probability>  (1) 
0.94828448534560383

>  <s_epik_cmdline>  (1) 
J2VwaWtfcHl0aG9uJywgJy1waHQnLCAnMS4wJywgJy1waCcsICc3LjQnLCAnLXRuJywgJzgnLCAnLW1hJywgJzUwMCcsICctaW1hZScsICc8aW5maWxlLm1hZT4nLCAnLW9tYWUnLCAnPG91dGZpbGUubWFlPic=

>  <s_epik_input>  (1) 
W0NIM11bQ0gyXVtDSDJdW0NASF0oW0NIM10pTihbQ0gyXVtDSDJdW0NIMl1PMSlbUytdMVtDQEBIXShbQ0gzXSljMm5bY0hdbltuSF0y

>  <s_glide_docking_method>  (1) 
confgen

>  <s_i_glide_gridfile>  (1) 
gpcr_5ht2c_6bqh_protein_autoprepared_prepared

>  <s_lp_Force_Field>  (1) 
S-OPLS

>  <s_lp_Variant>  (1) 
DiffSBDD_54-5

>  <s_m_source_file>  (1) 
generated_GPCR_5HT2C_ligand_DiffSBDD_2026-06-23_prepared.sdf

>  <GenAI_Model>  (1) 
DiffSBDD

>  <Protein>  (1) 
GPCR_5HT2C

$$$$
DiffSBDD_93
     RDKit          3D

  0  0  0  0  0  0  0  0  0  0999 V3000
M  V30 BEGIN CTAB
M  V30 COUNTS 84 85 0 0 1
M  V30 BEGIN ATOM
M  V30 1 C 37.441687 30.240933 58.996846 0
M  V30 2 O 38.327277 29.631958 59.920052 0
M  V30 3 C 39.062425 26.137763 53.605686 0
M  V30 4 C 39.343827 36.575223 61.787704 0
M  V30 5 O 38.467942 33.337582 57.396581 0
M  V30 6 C 40.839451 32.209374 62.006216 0
M  V30 7 N 42.104922 32.541355 61.767779 0
M  V30 8 O 40.297859 31.239955 61.474428 0
M  V30 9 O 38.045053 31.985437 54.759451 0
M  V30 10 C 39.848910 37.163229 63.090735 0
M  V30 11 C 39.645133 27.260403 54.340479 0
M  V30 12 C 37.052237 33.081106 59.286885 0
M  V30 13 C 39.201453 30.688495 57.303511 0
M  V30 14 C 39.101303 34.170087 62.346328 0 CFG=2
M  V30 15 C 40.060080 33.102958 62.998964 0 CFG=2
M  V30 16 C 38.893046 25.903272 56.043514 0 CFG=1
M  V30 17 C 39.402506 28.352992 56.516741 0 CFG=1
M  V30 18 C 40.949623 28.374508 56.606591 0
M  V30 19 C 37.900544 32.821089 60.553582 0
M  V30 20 S 38.818086 30.480013 54.605302 0 CHG=1
M  V30 21 O 35.375000 33.912305 61.676339 0
M  V30 22 N 38.140066 31.216581 58.123099 0
M  V30 23 O 37.645152 29.588561 53.767682 0
M  V30 24 O 37.185322 24.992077 54.571760 0
M  V30 25 F 38.476876 26.107135 58.359401 0
M  V30 26 C 40.334420 37.677389 61.767759 0
M  V30 27 C 36.570734 34.665350 61.716500 0
M  V30 28 C 37.732898 33.650372 61.801152 0 CFG=2
M  V30 29 C 37.929603 32.552865 58.172754 0
M  V30 30 C 40.981976 33.755535 64.088842 0
M  V30 31 C 37.950754 24.054249 57.542895 0
M  V30 32 C 38.701759 29.721965 56.262358 0 CFG=2
M  V30 33 O 41.565450 33.243315 66.337126 0
M  V30 34 C 39.777471 35.179409 61.409271 0
M  V30 35 C 37.984614 25.556572 57.252006 0 CFG=2
M  V30 36 C 41.492986 32.793980 65.173129 0
M  V30 37 C 38.572169 25.182434 54.719410 0 CFG=1
M  V30 38 O 41.802869 31.637819 64.815446 0 CHG=-1
M  V30 39 N 38.896845 27.315059 55.598215 0 CFG=1 CHG=1
M  V30 40 H 36.567257 30.617778 59.522436 0
M  V30 41 H 37.011741 29.438791 58.401105 0
M  V30 42 H 38.804763 30.294631 60.408631 0
M  V30 43 H 38.262381 26.477751 52.943694 0
M  V30 44 H 39.900865 25.737848 53.024703 0
M  V30 45 H 38.328636 36.838454 61.501957 0
M  V30 46 H 42.511784 33.332345 62.241830 0
M  V30 47 H 42.657049 31.993554 61.134294 0
M  V30 48 H 37.356899 31.918238 55.410979 0
M  V30 49 H 39.132707 37.737757 63.666861 0
M  V30 50 H 40.571293 36.604658 63.680174 0
M  V30 51 H 39.645115 28.141443 53.712356 0
M  V30 52 H 40.667118 26.937757 54.554230 0
M  V30 53 H 36.934612 34.144942 59.086042 0
M  V30 54 H 36.051528 32.653312 59.300184 0
M  V30 55 H 39.848801 30.200528 58.024562 0
M  V30 56 H 39.837156 31.447358 56.849050 0
M  V30 57 H 38.845142 34.779883 63.201033 0
M  V30 58 H 39.419501 32.405347 63.535024 0
M  V30 59 H 39.913019 25.631689 56.324277 0
M  V30 60 H 39.067002 28.082876 57.511878 0
M  V30 61 H 41.310484 28.825536 57.529343 0
M  V30 62 H 41.379153 27.373005 56.622093 0
M  V30 63 H 41.375863 28.922993 55.767770 0
M  V30 64 H 37.752580 31.810564 60.909160 0
M  V30 65 H 38.949694 32.879850 60.275516 0
M  V30 66 H 35.313914 33.489862 60.833145 0
M  V30 67 H 36.807978 29.914308 54.065453 0
M  V30 68 H 37.020687 24.536086 53.757869 0
M  V30 69 H 41.292825 37.337747 61.377082 0
M  V30 70 H 39.996495 38.659413 61.440367 0
M  V30 71 H 36.519146 35.337916 62.567768 0
M  V30 72 H 36.641663 35.318873 60.849596 0
M  V30 73 H 37.414023 32.937692 62.567701 0
M  V30 74 H 41.833452 34.274899 63.650535 0
M  V30 75 H 40.445153 34.533065 64.627104 0
M  V30 76 H 37.257207 23.538412 56.877762 0
M  V30 77 H 38.941569 23.616656 57.424673 0
M  V30 78 H 37.645123 23.853445 58.567662 0
M  V30 79 H 37.629719 29.561492 56.378041 0
M  V30 80 H 40.862038 35.110822 61.505705 0
M  V30 81 H 39.550075 35.007872 60.357021 0
M  V30 82 H 36.974425 25.948469 57.127363 0
M  V30 83 H 39.064309 24.213362 54.677318 0
M  V30 84 H 37.931337 27.518821 55.374088 0
M  V30 END ATOM
M  V30 BEGIN BOND
M  V30 1 1 2 1
M  V30 2 1 7 6
M  V30 3 2 8 6
M  V30 4 1 10 4
M  V30 5 1 11 3
M  V30 6 1 15 6
M  V30 7 1 15 14
M  V30 8 1 18 17
M  V30 9 1 19 12
M  V30 10 1 20 9
M  V30 11 1 22 1
M  V30 12 1 22 13
M  V30 13 1 23 20
M  V30 14 1 26 4
M  V30 15 1 26 10
M  V30 16 1 27 21
M  V30 17 1 28 14
M  V30 18 1 28 19
M  V30 19 1 28 27
M  V30 20 2 29 5
M  V30 21 1 29 12
M  V30 22 1 29 22
M  V30 23 1 30 15
M  V30 24 1 32 13
M  V30 25 1 32 17
M  V30 26 1 32 20
M  V30 27 1 34 4
M  V30 28 1 34 14
M  V30 29 1 35 16
M  V30 30 1 35 25
M  V30 31 1 35 31
M  V30 32 1 36 30
M  V30 33 2 36 33
M  V30 34 1 37 3
M  V30 35 1 37 16
M  V30 36 1 37 24
M  V30 37 1 38 36
M  V30 38 1 39 11
M  V30 39 1 39 16
M  V30 40 1 39 17
M  V30 41 1 40 1
M  V30 42 1 41 1
M  V30 43 1 42 2
M  V30 44 1 43 3
M  V30 45 1 44 3
M  V30 46 1 45 4
M  V30 47 1 46 7
M  V30 48 1 47 7
M  V30 49 1 48 9
M  V30 50 1 49 10
M  V30 51 1 50 10
M  V30 52 1 51 11
M  V30 53 1 52 11
M  V30 54 1 53 12
M  V30 55 1 54 12
M  V30 56 1 55 13
M  V30 57 1 56 13
M  V30 58 1 14 57 CFG=1
M  V30 59 1 15 58 CFG=1
M  V30 60 1 16 59 CFG=1
M  V30 61 1 17 60 CFG=1
M  V30 62 1 61 18
M  V30 63 1 62 18
M  V30 64 1 63 18
M  V30 65 1 64 19
M  V30 66 1 65 19
M  V30 67 1 66 21
M  V30 68 1 67 23
M  V30 69 1 68 24
M  V30 70 1 69 26
M  V30 71 1 70 26
M  V30 72 1 71 27
M  V30 73 1 72 27
M  V30 74 1 28 73 CFG=1
M  V30 75 1 74 30
M  V30 76 1 75 30
M  V30 77 1 76 31
M  V30 78 1 77 31
M  V30 79 1 78 31
M  V30 80 1 32 79 CFG=1
M  V30 81 1 80 34
M  V30 82 1 81 34
M  V30 83 1 35 82 CFG=3
M  V30 84 1 37 83 CFG=1
M  V30 85 1 39 84 CFG=3
M  V30 END BOND
M  V30 END CTAB
M  END
>  <i_epik_Tot_Q>  (1) 
1

>  <i_epik_Tot_abs_Q>  (1) 
3

>  <i_i_glide_confnum>  (1) 
1545

>  <i_i_glide_lignum>  (1) 
220

>  <i_i_glide_posenum>  (1) 
290

>  <i_i_glide_rotatable_bonds>  (1) 
24

>  <i_lp_mmshare_version>  (1) 
72125

>  <i_m_source_file_index>  (1) 
94

>  <i_f3d_flags>  (1) 
0

>  <num_sample>  (1) 
100

>  <b_lp_Chiralities_Consistent>  (1) 
1

>  <r_epik_Charging_Adjusted_Penalty>  (1) 
0.90916677635763199

>  <r_epik_Ionization_Penalty>  (1) 
0.45507897092921873

>  <r_epik_Ionization_Penalty_Charging>  (1) 
0.45507471778648678

>  <r_epik_Ionization_Penalty_Neutral>  (1) 
4.2531427319391784e-06

>  <r_epik_State_Penalty>  (1) 
0.45409205857114521

>  <r_glide_ring_energy>  (1) 
0

>  <r_i_docking_score>  (1) 
-3.8782140747563565

>  <r_i_glide_ecoul>  (1) 
-1.2354225615588401

>  <r_i_glide_eff_state_penalty>  (1) 
0.45409205857114521

>  <r_i_glide_einternal>  (1) 
32.867395286568716

>  <r_i_glide_emodel>  (1) 
-21.783419898851321

>  <r_i_glide_emodel_strain>  (1) 
11.203154612081264

>  <r_i_glide_energy>  (1) 
-30.978911952396359

>  <r_i_glide_erotb>  (1) 
0.82188833391367333

>  <r_i_glide_esite>  (1) 
-0.22295769560530165

>  <r_i_glide_evdw>  (1) 
-29.743489390837517

>  <r_i_glide_gscore>  (1) 
-4.3323061333275019

>  <r_i_glide_gscore_strain>  (1) 
1.8007886530203159

>  <r_i_glide_hbond>  (1) 
0

>  <r_i_glide_ligand_efficiency>  (1) 
-0.099441386532214265

>  <r_i_glide_ligand_efficiency_ln>  (1) 
-0.83159918728102145

>  <r_i_glide_ligand_efficiency_sa>  (1) 
-0.33722676791723993

>  <r_i_glide_lipo>  (1) 
-3.468800757294539

>  <r_i_glide_metal>  (1) 
-0

>  <r_i_glide_rewards>  (1) 
-1.5907368135859488

>  <r_lp_Energy>  (1) 
27.354928999999998

>  <s_epik_Chemistry_Notes>  (1) 
This compound contains an acetal/aminal-like group ( X-CH(R)-Y where X, Y are N, S, or O) that may be acid/base labile, releasing an aldehyde.

>  <s_epik_cmdline>  (1) 
J2VwaWtfcHl0aG9uJywgJy1waHQnLCAnMS4wJywgJy1waCcsICc3LjQnLCAnLXRuJywgJzgnLCAnLW1hJywgJzUwMCcsICctaW1hZScsICc8aW5maWxlLm1hZT4nLCAnLW9tYWUnLCAnPG91dGZpbGUubWFlPic=

>  <s_epik_input>  (1) 
W0NIMl0xW0NIMl1bQ0hdMVtDSDJdW0NAQEhdKFtDQEBIXShDKD1PKVtOSDJdKVtDSDJdQyg9TylbT0hdKVtDQEBIXShbQ0gyXVtPSF0pW0NIMl1bQ0gyXUMoPU8pTihbQ0gyXVtPSF0pW0NIMl1bQ0BASF0oW1MrXShbT0hdKVtPSF0pW0NASF0oW0NIM10pTjJbQ0gyXVtDSDJdW0NASF0oW09IXSlbQ0BASF0yW0NASF0oRilbQ0gzXQ==

>  <s_glide_docking_method>  (1) 
confgen

>  <s_i_glide_gridfile>  (1) 
gpcr_5ht2c_6bqh_protein_autoprepared_prepared

>  <s_lp_Force_Field>  (1) 
S-OPLS

>  <s_lp_Variant>  (1) 
DiffSBDD_93-8

>  <s_m_source_file>  (1) 
generated_GPCR_5HT2C_ligand_DiffSBDD_2026-06-23_prepared.sdf

>  <GenAI_Model>  (1) 
DiffSBDD

>  <Protein>  (1) 
GPCR_5HT2C

$$$$
DiffSBDD_5
     RDKit          3D

  0  0  0  0  0  0  0  0  0  0999 V3000
M  V30 BEGIN CTAB
M  V30 COUNTS 20 19 0 0 1
M  V30 BEGIN ATOM
M  V30 1 C 37.826295 27.472916 54.122748 0
M  V30 2 C 38.694539 27.507435 52.853109 0
M  V30 3 C 40.173138 30.737205 50.614854 0
M  V30 4 S 40.045203 28.952997 50.913369 0
M  V30 5 O 38.604579 24.572536 56.316059 0
M  V30 6 C 37.635893 26.066129 54.739454 0
M  V30 7 O 39.922726 26.129388 55.418581 0 CHG=-1
M  V30 8 C 38.824700 25.546245 55.561043 0
M  V30 9 C 38.887516 28.926615 52.306597 0
M  V30 10 H 38.245105 28.146497 54.871261 0
M  V30 11 H 36.845050 27.881754 53.881513 0
M  V30 12 H 38.239720 26.888385 52.080863 0
M  V30 13 H 39.668600 27.072884 53.066052 0
M  V30 14 H 41.012563 30.945001 49.952527 0
M  V30 15 H 40.337144 31.276271 51.547931 0
M  V30 16 H 39.263744 31.116809 50.150638 0
M  V30 17 H 36.784080 26.091512 55.417582 0
M  V30 18 H 37.391024 25.334638 53.968060 0
M  V30 19 H 39.271929 29.578455 53.091479 0
M  V30 20 H 37.935931 29.337755 51.978285 0
M  V30 END ATOM
M  V30 BEGIN BOND
M  V30 1 1 2 1
M  V30 2 1 4 3
M  V30 3 1 6 1
M  V30 4 2 8 5
M  V30 5 1 8 6
M  V30 6 1 8 7
M  V30 7 1 9 2
M  V30 8 1 9 4
M  V30 9 1 10 1
M  V30 10 1 11 1
M  V30 11 1 12 2
M  V30 12 1 13 2
M  V30 13 1 14 3
M  V30 14 1 15 3
M  V30 15 1 16 3
M  V30 16 1 17 6
M  V30 17 1 18 6
M  V30 18 1 19 9
M  V30 19 1 20 9
M  V30 END BOND
M  V30 END CTAB
M  END
>  <i_epik_Tot_Q>  (1) 
-1

>  <i_epik_Tot_abs_Q>  (1) 
1

>  <i_i_glide_confnum>  (1) 
10

>  <i_i_glide_lignum>  (1) 
8

>  <i_i_glide_posenum>  (1) 
85

>  <i_i_glide_rotatable_bonds>  (1) 
5

>  <i_lp_mmshare_version>  (1) 
72125

>  <i_m_source_file_index>  (1) 
6

>  <i_f3d_flags>  (1) 
0

>  <num_sample>  (1) 
100

>  <b_lp_Chiralities_Consistent>  (1) 
1

>  <r_epik_Charging_Adjusted_Penalty>  (1) 
0.0016234785268329083

>  <r_epik_Ionization_Penalty>  (1) 
0.0016234785268329083

>  <r_epik_Ionization_Penalty_Charging>  (1) 
0.0016234785268329083

>  <r_epik_Ionization_Penalty_Neutral>  (1) 
0

>  <r_epik_State_Penalty>  (1) 
-0

>  <r_glide_ring_energy>  (1) 
0

>  <r_i_docking_score>  (1) 
-3.8535622196484711

>  <r_i_glide_ecoul>  (1) 
-0.036656388988286548

>  <r_i_glide_eff_state_penalty>  (1) 
-0

>  <r_i_glide_einternal>  (1) 
0.69604788973774179

>  <r_i_glide_emodel>  (1) 
-23.89891803415437

>  <r_i_glide_emodel_strain>  (1) 
0.42811821656754245

>  <r_i_glide_energy>  (1) 
-19.788437988565814

>  <r_i_glide_erotb>  (1) 
2.0195253186786486

>  <r_i_glide_esite>  (1) 
0

>  <r_i_glide_evdw>  (1) 
-19.751781599577527

>  <r_i_glide_gscore>  (1) 
-3.8535622196484711

>  <r_i_glide_gscore_strain>  (1) 
0

>  <r_i_glide_hbond>  (1) 
0

>  <r_i_glide_ligand_efficiency>  (1) 
-0.42817357996094124

>  <r_i_glide_ligand_efficiency_ln>  (1) 
-1.2052835596738349

>  <r_i_glide_ligand_efficiency_sa>  (1) 
-0.89063693713497494

>  <r_i_glide_lipo>  (1) 
-1.98

>  <r_i_glide_metal>  (1) 
-0

>  <r_i_glide_rewards>  (1) 
-2.8999999999999999

>  <r_lp_Energy>  (1) 
4.776243

>  <r_lp_tautomer_probability>  (1) 
1

>  <s_epik_cmdline>  (1) 
J2VwaWtfcHl0aG9uJywgJy1waHQnLCAnMS4wJywgJy1waCcsICc3LjQnLCAnLXRuJywgJzgnLCAnLW1hJywgJzUwMCcsICctaW1hZScsICc8aW5maWxlLm1hZT4nLCAnLW9tYWUnLCAnPG91dGZpbGUubWFlPic=

>  <s_epik_input>  (1) 
Tz1DKFtPSF0pW0NIMl1bQ0gyXVtDSDJdW0NIMl1TW0NIM10=

>  <s_glide_docking_method>  (1) 
confgen

>  <s_i_glide_gridfile>  (1) 
gpcr_5ht2c_6bqh_protein_autoprepared_prepared

>  <s_lp_Force_Field>  (1) 
S-OPLS

>  <s_lp_Variant>  (1) 
DiffSBDD_5-1

>  <s_m_source_file>  (1) 
generated_GPCR_5HT2C_ligand_DiffSBDD_2026-06-23_prepared.sdf

>  <GenAI_Model>  (1) 
DiffSBDD

>  <Protein>  (1) 
GPCR_5HT2C

$$$$
DiffSBDD_9
     RDKit          3D

  0  0  0  0  0  0  0  0  0  0999 V3000
M  V30 BEGIN CTAB
M  V30 COUNTS 66 67 0 0 1
M  V30 BEGIN ATOM
M  V30 1 C 38.629198 27.824812 58.410239 0 CFG=1
M  V30 2 C 34.838687 33.325254 61.767766 0
M  V30 3 C 38.304530 29.449581 54.449056 0
M  V30 4 C 40.080463 36.547349 62.641519 0
M  V30 5 O 38.822789 28.796099 55.499442 0
M  V30 6 O 41.563343 35.258468 61.368559 0
M  V30 7 C 40.010615 27.643085 57.828320 0 CFG=1
M  V30 8 C 39.617980 26.856336 59.035537 0
M  V30 9 N 38.374166 29.064989 59.142126 0
M  V30 10 C 37.302388 32.499568 59.501097 0
M  V30 11 C 36.811854 34.890891 60.150862 0 CFG=2
M  V30 12 C 37.828919 35.031013 61.301328 0
M  V30 13 C 39.288495 34.742296 60.906553 0 CFG=1
M  V30 14 C 36.919358 31.040217 59.375648 0
M  V30 15 C 40.305553 35.167907 61.996417 0 CFG=2
M  V30 16 C 34.936140 33.130305 60.257775 0
M  V30 17 C 38.746575 32.843419 59.207978 0
M  V30 18 C 37.226229 36.942359 59.005525 0
M  V30 19 C 40.243729 27.043718 56.468871 0
M  V30 20 C 37.382298 27.218493 57.767758 0
M  V30 21 O 36.028193 30.530846 60.036145 0
M  V30 22 C 37.698597 30.142004 58.406674 0
M  V30 23 O 38.814044 29.495583 53.329389 0
M  V30 24 C 40.032262 28.068845 55.357812 0
M  V30 25 C 36.400983 33.434663 59.925478 0
M  V30 26 C 39.462838 33.252799 60.513087 0
M  V30 27 O 40.960316 28.617559 58.213400 0
M  V30 28 O 37.245137 35.522210 58.967749 0
M  V30 29 C 33.971019 33.919218 59.367756 0
M  V30 30 H 35.677333 32.762242 62.167760 0
M  V30 31 H 34.955960 34.353858 62.100154 0
M  V30 32 H 33.941557 32.937854 62.229270 0
M  V30 33 H 37.368851 29.927373 54.739713 0
M  V30 34 H 39.203211 36.552628 63.289018 0
M  V30 35 H 40.926326 36.826562 63.270304 0
M  V30 36 H 39.955626 37.328549 61.890246 0
M  V30 37 H 41.576436 36.024652 60.813179 0
M  V30 38 H 39.446744 25.789089 58.908767 0
M  V30 39 H 40.045165 27.145725 59.993833 0
M  V30 40 H 39.273426 29.411252 59.464838 0
M  V30 41 H 35.932104 35.437950 60.467292 0
M  V30 42 H 37.733227 36.039754 61.695653 0
M  V30 43 H 37.545604 34.377309 62.121155 0
M  V30 44 H 39.515272 35.358422 60.042934 0
M  V30 45 H 40.352207 34.412504 62.781916 0
M  V30 46 H 34.563044 32.139092 60.063177 0
M  V30 47 H 39.245139 31.990636 58.796625 0
M  V30 48 H 38.815827 33.618843 58.444903 0
M  V30 49 H 37.975062 37.337732 58.319613 0
M  V30 50 H 36.241261 37.310567 58.716859 0
M  V30 51 H 37.467701 37.359387 59.981298 0
M  V30 52 H 41.245194 26.620244 56.422960 0
M  V30 53 H 39.553439 26.212194 56.325810 0
M  V30 54 H 37.321052 26.150877 57.980479 0
M  V30 55 H 36.475631 27.688742 58.144917 0
M  V30 56 H 37.391217 27.328372 56.688803 0
M  V30 57 H 38.360689 30.651301 57.710438 0
M  V30 58 H 36.926007 29.730118 57.758507 0
M  V30 59 H 40.845145 28.792559 55.367871 0
M  V30 60 H 40.045109 27.537459 54.406399 0
M  V30 61 H 40.512827 33.007026 60.416551 0
M  V30 62 H 39.124278 32.616481 61.332583 0
M  V30 63 H 41.786240 28.185197 58.375211 0
M  V30 64 H 33.918161 33.442135 58.397304 0
M  V30 65 H 32.958402 33.917135 59.767526 0
M  V30 66 H 34.289944 34.937767 59.169176 0
M  V30 END ATOM
M  V30 BEGIN BOND
M  V30 1 1 5 3
M  V30 2 1 7 1
M  V30 3 1 8 1
M  V30 4 1 8 7
M  V30 5 1 1 9 CFG=1
M  V30 6 1 12 11
M  V30 7 1 13 12
M  V30 8 1 14 10
M  V30 9 1 15 4
M  V30 10 1 15 6
M  V30 11 1 15 13
M  V30 12 1 16 2
M  V30 13 1 17 10
M  V30 14 1 19 7
M  V30 15 1 20 1
M  V30 16 2 21 14
M  V30 17 1 22 9
M  V30 18 1 22 14
M  V30 19 2 23 3
M  V30 20 1 24 5
M  V30 21 1 24 19
M  V30 22 2 25 10
M  V30 23 1 25 11
M  V30 24 1 25 16
M  V30 25 1 26 13
M  V30 26 1 26 17
M  V30 27 1 7 27 CFG=1
M  V30 28 1 28 11
M  V30 29 1 28 18
M  V30 30 1 29 16
M  V30 31 1 30 2
M  V30 32 1 31 2
M  V30 33 1 32 2
M  V30 34 1 33 3
M  V30 35 1 34 4
M  V30 36 1 35 4
M  V30 37 1 36 4
M  V30 38 1 37 6
M  V30 39 1 38 8
M  V30 40 1 39 8
M  V30 41 1 40 9
M  V30 42 1 11 41 CFG=1
M  V30 43 1 42 12
M  V30 44 1 43 12
M  V30 45 1 13 44 CFG=3
M  V30 46 1 15 45 CFG=1
M  V30 47 1 46 16
M  V30 48 1 47 17
M  V30 49 1 48 17
M  V30 50 1 49 18
M  V30 51 1 50 18
M  V30 52 1 51 18
M  V30 53 1 52 19
M  V30 54 1 53 19
M  V30 55 1 54 20
M  V30 56 1 55 20
M  V30 57 1 56 20
M  V30 58 1 57 22
M  V30 59 1 58 22
M  V30 60 1 59 24
M  V30 61 1 60 24
M  V30 62 1 61 26
M  V30 63 1 62 26
M  V30 64 1 63 27
M  V30 65 1 64 29
M  V30 66 1 65 29
M  V30 67 1 66 29
M  V30 END BOND
M  V30 END CTAB
M  END
>  <i_epik_Tot_Q>  (1) 
0

>  <i_epik_Tot_abs_Q>  (1) 
0

>  <i_i_glide_confnum>  (1) 
831

>  <i_i_glide_lignum>  (1) 
16

>  <i_i_glide_posenum>  (1) 
230

>  <i_i_glide_rotatable_bonds>  (1) 
13

>  <i_lp_mmshare_version>  (1) 
72125

>  <i_m_source_file_index>  (1) 
10

>  <i_f3d_flags>  (1) 
0

>  <num_sample>  (1) 
100

>  <b_lp_Chiralities_Consistent>  (1) 
1

>  <r_epik_Charging_Adjusted_Penalty>  (1) 
0.70191645640278022

>  <r_epik_Ionization_Penalty>  (1) 
0.70191663338499877

>  <r_epik_Ionization_Penalty_Charging>  (1) 
0

>  <r_epik_Ionization_Penalty_Neutral>  (1) 
0.70191663338499877

>  <r_epik_State_Penalty>  (1) 
0.70191645640278022

>  <r_glide_ring_energy>  (1) 
0

>  <r_i_docking_score>  (1) 
-3.8462662650804402

>  <r_i_glide_ecoul>  (1) 
-2.5962183156328154

>  <r_i_glide_eff_state_penalty>  (1) 
0.70191645640278022

>  <r_i_glide_einternal>  (1) 
14.902321151978484

>  <r_i_glide_emodel>  (1) 
-23.143381829204536

>  <r_i_glide_emodel_strain>  (1) 
4.5521787658075681

>  <r_i_glide_energy>  (1) 
-28.695005575946578

>  <r_i_glide_erotb>  (1) 
0.93101816362055201

>  <r_i_glide_esite>  (1) 
-0.08995692733836512

>  <r_i_glide_evdw>  (1) 
-26.098787260313763

>  <r_i_glide_gscore>  (1) 
-4.5481827214832204

>  <r_i_glide_gscore_strain>  (1) 
0.13804469145189202

>  <r_i_glide_hbond>  (1) 
-0.012415143032315831

>  <r_i_glide_ligand_efficiency>  (1) 
-0.13262987120967035

>  <r_i_glide_ligand_efficiency_ln>  (1) 
-0.88069744180630694

>  <r_i_glide_ligand_efficiency_sa>  (1) 
-0.40748098490601725

>  <r_i_glide_lipo>  (1) 
-2.6299859867657376

>  <r_i_glide_metal>  (1) 
-0

>  <r_i_glide_rewards>  (1) 
-1.1905154090586356

>  <r_lp_Energy>  (1) 
41.088991

>  <s_epik_Chemistry_Notes>  (1) 
This compound has an ester and may undergo hydrolysis at high or low pH.

>  <s_epik_cmdline>  (1) 
J2VwaWtfcHl0aG9uJywgJy1waHQnLCAnMS4wJywgJy1waCcsICc3LjQnLCAnLXRuJywgJzgnLCAnLW1hJywgJzUwMCcsICctaW1hZScsICc8aW5maWxlLm1hZT4nLCAnLW9tYWUnLCAnPG91dGZpbGUubWFlPic=

>  <s_epik_input>  (1) 
Tz1bQ0hdT1tDSDJdW0NIMl1bQ0BAXShbQ0gyXTEpKFtPSF0pW0NAXTEoW0NIM10pW05IXVtDSDJdQyg9TylDMj1DKFtDSF0oW0NIM10pW0NIM10pW0NASF0oT1tDSDNdKVtDSDJdW0NAQEhdKFtDQEBIXShbQ0gzXSlbT0hdKVtDSDJdW0NIMl0y

>  <s_glide_docking_method>  (1) 
confgen

>  <s_i_glide_gridfile>  (1) 
gpcr_5ht2c_6bqh_protein_autoprepared_prepared

>  <s_lp_Force_Field>  (1) 
S-OPLS

>  <s_lp_Variant>  (1) 
DiffSBDD_9-4

>  <s_m_source_file>  (1) 
generated_GPCR_5HT2C_ligand_DiffSBDD_2026-06-23_prepared.sdf

>  <GenAI_Model>  (1) 
DiffSBDD

>  <Protein>  (1) 
GPCR_5HT2C

$$$$
DiffSBDD_78
     RDKit          3D

  0  0  0  0  0  0  0  0  0  0999 V3000
M  V30 BEGIN CTAB
M  V30 COUNTS 104 109 0 0 1
M  V30 BEGIN ATOM
M  V30 1 O 37.692084 30.665400 55.274424 0
M  V30 2 C 43.537271 30.343248 67.603830 0
M  V30 3 C 39.497543 32.146206 62.940815 0 CFG=1
M  V30 4 C 39.372591 26.960755 52.057840 0
M  V30 5 O 41.105600 30.537603 50.376328 0
M  V30 6 C 43.076002 31.197762 65.158337 0 CFG=2
M  V30 7 C 38.771300 30.855817 54.373024 0
M  V30 8 O 39.418455 28.636004 53.699705 0
M  V30 9 C 43.909836 31.200589 66.425017 0 CFG=1
M  V30 10 O 38.541847 27.813091 58.312960 0
M  V30 11 C 37.414214 37.784280 61.742393 0
M  V30 12 N 40.825085 32.002238 63.544999 0
M  V30 13 N 42.976054 32.297739 66.112659 0
M  V30 14 C 35.755053 37.320274 63.387337 0
M  V30 15 C 42.719158 30.986538 68.706555 0
M  V30 16 C 39.222036 33.111052 61.797469 0 CFG=1
M  V30 17 N 40.960312 30.615914 63.884646 0
M  V30 18 C 36.571626 29.902483 54.848638 0
M  V30 19 C 41.907821 30.232974 64.928113 0 CFG=1
M  V30 20 C 37.175138 37.084995 63.810081 0
M  V30 21 C 41.295176 27.741641 64.474898 0
M  V30 22 C 39.781783 28.415663 52.314166 0 CFG=2
M  V30 23 C 40.755274 29.614930 61.728657 0
M  V30 24 C 39.571062 37.255939 63.013764 0
M  V30 25 C 39.886773 30.685692 51.075858 0
M  V30 26 C 39.837870 29.745385 54.518438 0 CFG=2
M  V30 27 C 40.340521 30.834537 60.945059 0
M  V30 28 C 36.845346 28.480619 54.249779 0
M  V30 29 O 43.879878 29.166589 67.680926 0
M  V30 30 C 42.137851 28.954502 64.056870 0
M  V30 31 C 38.055667 37.337738 62.910040 0
M  V30 32 C 43.580454 28.429983 64.006147 0
M  V30 33 C 40.897951 28.390958 56.689741 0
M  V30 34 C 41.717657 32.468770 66.862820 0
M  V30 35 C 40.129031 35.859006 62.752731 0
M  V30 36 C 40.029845 35.448657 61.281096 0
M  V30 37 O 36.045157 37.818214 61.999520 0
M  V30 38 N 39.243108 28.132958 60.517556 0
M  V30 39 S 41.095664 28.538243 58.543899 0
M  V30 40 C 40.245729 28.389913 61.479391 0
M  V30 41 C 39.184056 29.316434 51.227393 0
M  V30 42 C 39.417379 28.114126 59.116399 0
M  V30 43 C 41.447795 31.542962 68.068837 0
M  V30 44 C 40.229892 33.953868 61.062303 0
M  V30 45 O 37.954687 38.103845 60.688612 0
M  V30 46 C 41.716930 29.897480 62.883138 0 CFG=2
M  V30 47 C 39.257691 31.625961 61.583674 0 CFG=1
M  V30 48 C 39.908677 29.412706 56.062586 0
M  V30 49 H 38.678053 31.623514 63.367736 0
M  V30 50 H 39.645266 26.642613 51.054030 0
M  V30 51 H 38.295176 26.825405 52.168050 0
M  V30 52 H 39.866167 26.294896 52.765875 0
M  V30 53 H 41.485439 31.398258 50.251810 0
M  V30 54 H 43.645052 31.377257 64.255188 0
M  V30 55 H 39.233727 31.801831 54.653749 0
M  V30 56 H 38.399303 30.987882 53.367804 0
M  V30 57 H 44.971350 31.408195 66.302421 0
M  V30 58 H 40.909360 32.584133 64.376227 0
M  V30 59 H 35.268198 38.081615 63.998500 0
M  V30 60 H 43.301737 31.782062 69.170504 0
M  V30 61 H 42.479646 30.256155 69.478607 0
M  V30 62 H 38.224873 33.548088 61.788805 0
M  V30 63 H 35.962520 29.813543 55.742004 0
M  V30 64 H 36.010671 30.538383 54.167966 0
M  V30 65 H 41.366053 29.970646 65.833566 0
M  V30 66 H 37.411087 36.747074 64.805617 0
M  V30 67 H 41.532962 26.846854 63.899758 0
M  V30 68 H 40.238009 27.931511 64.354594 0
M  V30 69 H 41.452464 27.494183 65.524935 0
M  V30 70 H 40.845490 28.467430 52.167661 0
M  V30 71 H 39.837923 37.543421 64.030774 0
M  V30 72 H 40.041416 37.991681 62.359346 0
M  V30 73 H 40.108002 31.157375 52.030855 0
M  V30 74 H 39.262662 31.381164 50.513576 0
M  V30 75 H 40.793789 30.137629 54.167389 0
M  V30 76 H 39.760371 30.473474 60.167494 0
M  V30 77 H 41.172312 31.425998 60.568422 0
M  V30 78 H 36.045129 27.737750 54.167529 0
M  V30 79 H 37.572879 27.947299 54.857522 0
M  V30 80 H 37.173963 28.582678 53.222387 0
M  V30 81 H 35.166886 36.402629 63.368366 0
M  V30 82 H 43.673721 27.552359 63.367517 0
M  V30 83 H 43.936583 28.141521 64.995665 0
M  V30 84 H 44.277222 29.170782 63.615837 0
M  V30 85 H 41.888106 28.537622 56.266010 0
M  V30 86 H 40.599865 27.370934 56.437848 0
M  V30 87 H 41.767414 33.489802 67.243300 0
M  V30 88 H 40.862222 32.468308 66.189377 0
M  V30 89 H 41.173252 35.816041 63.060386 0
M  V30 90 H 39.597806 35.152019 63.386781 0
M  V30 91 H 39.054609 35.704604 60.876243 0
M  V30 92 H 40.755593 36.012255 60.693996 0
M  V30 93 H 38.363013 27.769369 60.851450 0
M  V30 94 H 40.474226 27.534189 62.084145 0
M  V30 95 H 39.292205 28.825712 50.259736 0
M  V30 96 H 38.106345 29.338479 51.371092 0
M  V30 97 H 40.809587 30.712355 67.764843 0
M  V30 98 H 40.867857 32.091108 68.812072 0
M  V30 99 H 41.240691 33.656131 61.344231 0
M  V30 100 H 40.053227 33.748165 60.004412 0
M  V30 101 H 42.553940 30.515202 62.567783 0
M  V30 102 H 38.273958 31.179031 61.430205 0
M  V30 103 H 40.045048 30.357308 56.590183 0
M  V30 104 H 38.926490 29.066427 56.357239 0
M  V30 END ATOM
M  V30 BEGIN BOND
M  V30 1 1 7 1
M  V30 2 1 9 2
M  V30 3 1 9 6
M  V30 4 1 12 3
M  V30 5 1 13 6
M  V30 6 1 13 9
M  V30 7 1 15 2
M  V30 8 1 16 3
M  V30 9 1 17 12
M  V30 10 1 18 1
M  V30 11 1 19 6
M  V30 12 1 19 17
M  V30 13 1 20 14
M  V30 14 1 22 4
M  V30 15 1 22 8
M  V30 16 1 25 5
M  V30 17 1 26 7
M  V30 18 1 26 8
M  V30 19 1 27 23
M  V30 20 1 28 18
M  V30 21 2 29 2
M  V30 22 1 30 19
M  V30 23 1 30 21
M  V30 24 1 31 11
M  V30 25 2 31 20
M  V30 26 1 31 24
M  V30 27 1 32 30
M  V30 28 1 34 13
M  V30 29 1 35 24
M  V30 30 1 36 35
M  V30 31 1 37 11
M  V30 32 1 37 14
M  V30 33 1 39 33
M  V30 34 2 40 23
M  V30 35 1 40 38
M  V30 36 1 41 22
M  V30 37 1 41 25
M  V30 38 2 42 10
M  V30 39 1 42 38
M  V30 40 1 42 39
M  V30 41 1 43 15
M  V30 42 1 43 34
M  V30 43 1 44 16
M  V30 44 1 44 36
M  V30 45 2 45 11
M  V30 46 1 46 17
M  V30 47 1 46 23
M  V30 48 1 46 30
M  V30 49 1 47 3
M  V30 50 1 47 16
M  V30 51 1 47 27
M  V30 52 1 48 26
M  V30 53 1 48 33
M  V30 54 1 3 49 CFG=1
M  V30 55 1 50 4
M  V30 56 1 51 4
M  V30 57 1 52 4
M  V30 58 1 53 5
M  V30 59 1 6 54 CFG=3
M  V30 60 1 55 7
M  V30 61 1 56 7
M  V30 62 1 9 57 CFG=3
M  V30 63 1 58 12
M  V30 64 1 59 14
M  V30 65 1 60 15
M  V30 66 1 61 15
M  V30 67 1 16 62 CFG=1
M  V30 68 1 63 18
M  V30 69 1 64 18
M  V30 70 1 19 65 CFG=1
M  V30 71 1 66 20
M  V30 72 1 67 21
M  V30 73 1 68 21
M  V30 74 1 69 21
M  V30 75 1 22 70 CFG=1
M  V30 76 1 71 24
M  V30 77 1 72 24
M  V30 78 1 73 25
M  V30 79 1 74 25
M  V30 80 1 26 75 CFG=3
M  V30 81 1 76 27
M  V30 82 1 77 27
M  V30 83 1 78 28
M  V30 84 1 79 28
M  V30 85 1 80 28
M  V30 86 1 81 14
M  V30 87 1 82 32
M  V30 88 1 83 32
M  V30 89 1 84 32
M  V30 90 1 85 33
M  V30 91 1 86 33
M  V30 92 1 87 34
M  V30 93 1 88 34
M  V30 94 1 89 35
M  V30 95 1 90 35
M  V30 96 1 91 36
M  V30 97 1 92 36
M  V30 98 1 93 38
M  V30 99 1 94 40
M  V30 100 1 95 41
M  V30 101 1 96 41
M  V30 102 1 97 43
M  V30 103 1 98 43
M  V30 104 1 99 44
M  V30 105 1 100 44
M  V30 106 1 46 101 CFG=3
M  V30 107 1 47 102 CFG=1
M  V30 108 1 103 48
M  V30 109 1 104 48
M  V30 END BOND
M  V30 END CTAB
M  END
>  <i_epik_Tot_Q>  (1) 
0

>  <i_epik_Tot_abs_Q>  (1) 
0

>  <i_i_glide_confnum>  (1) 
972

>  <i_i_glide_lignum>  (1) 
183

>  <i_i_glide_posenum>  (1) 
268

>  <i_i_glide_rotatable_bonds>  (1) 
20

>  <i_lp_mmshare_version>  (1) 
72125

>  <i_m_source_file_index>  (1) 
79

>  <i_f3d_flags>  (1) 
0

>  <num_sample>  (1) 
100

>  <b_lp_Chiralities_Consistent>  (1) 
1

>  <r_epik_Charging_Adjusted_Penalty>  (1) 
0.92354502945683503

>  <r_epik_Ionization_Penalty>  (1) 
0.93156090309964268

>  <r_epik_Ionization_Penalty_Charging>  (1) 
0

>  <r_epik_Ionization_Penalty_Neutral>  (1) 
0.93156090309964268

>  <r_epik_State_Penalty>  (1) 
0.92354502945683503

>  <r_glide_ring_energy>  (1) 
0

>  <r_i_docking_score>  (1) 
-3.8425667906057024

>  <r_i_glide_ecoul>  (1) 
-1.0522236065000907

>  <r_i_glide_eff_state_penalty>  (1) 
0.92354502945683503

>  <r_i_glide_einternal>  (1) 
18.497540610460522

>  <r_i_glide_emodel>  (1) 
-23.012332975353388

>  <r_i_glide_emodel_strain>  (1) 
14.298286595224056

>  <r_i_glide_energy>  (1) 
-41.300868486137368

>  <r_i_glide_erotb>  (1) 
0.59596673808410561

>  <r_i_glide_esite>  (1) 
0

>  <r_i_glide_evdw>  (1) 
-40.248644879637276

>  <r_i_glide_gscore>  (1) 
-4.7661118200625374

>  <r_i_glide_gscore_strain>  (1) 
2.574571648806014

>  <r_i_glide_hbond>  (1) 
0

>  <r_i_glide_ligand_efficiency>  (1) 
-0.080053474804285471

>  <r_i_glide_ligand_efficiency_ln>  (1) 
-0.78883355090483687

>  <r_i_glide_ligand_efficiency_sa>  (1) 
-0.29093363518927196

>  <r_i_glide_lipo>  (1) 
-4.8982728665313129

>  <r_i_glide_metal>  (1) 
-0

>  <r_i_glide_rewards>  (1) 
-0.86811155546446772

>  <r_lp_Energy>  (1) 
40.557254

>  <r_lp_tautomer_probability>  (1) 
0.99984117342658263

>  <s_epik_Chemistry_Notes>  (1) 
This compound has an ester and may undergo hydrolysis at high or low pH.

>  <s_epik_cmdline>  (1) 
J2VwaWtfcHl0aG9uJywgJy1waHQnLCAnMS4wJywgJy1waCcsICc3LjQnLCAnLXRuJywgJzgnLCAnLW1hJywgJzUwMCcsICctaW1hZScsICc8aW5maWxlLm1hZT4nLCAnLW9tYWUnLCAnPG91dGZpbGUubWFlPic=

>  <s_epik_input>  (1) 
W09IXVtDSDJdW0NIMl1bQ0BIXShbQ0gzXSlPW0NAQEhdKFtDSDJdT1tDSDJdW0NIM10pW0NIMl1bQ0gyXVNDKD1PKVtOSF0vW0NIXT1DKFtDQEhdMU4oW05IXTIpW0NAQEhdKEMxKFtDSDNdKVtDSDNdKVtDQEhdM04oW0NASF0zNClbQ0gyXVtDSDJdW0NIMl1DND1PKVxbQ0gyXVtDQEBIXShbQ0BASF0yNSlbQ0BASF01W0NIMl1bQ0gyXVtDSDJdW0NIMl1bQ0BASF0oQzY9TylbQ0hdPVtDSF1PNg==

>  <s_glide_docking_method>  (1) 
confgen

>  <s_i_glide_gridfile>  (1) 
gpcr_5ht2c_6bqh_protein_autoprepared_prepared

>  <s_lp_Force_Field>  (1) 
S-OPLS

>  <s_lp_Variant>  (1) 
DiffSBDD_78-5

>  <s_m_source_file>  (1) 
generated_GPCR_5HT2C_ligand_DiffSBDD_2026-06-23_prepared.sdf

>  <GenAI_Model>  (1) 
DiffSBDD

>  <Protein>  (1) 
GPCR_5HT2C

$$$$
DiffSBDD_53
     RDKit          3D

  0  0  0  0  0  0  0  0  0  0999 V3000
M  V30 BEGIN CTAB
M  V30 COUNTS 82 86 0 0 1
M  V30 BEGIN ATOM
M  V30 1 C 42.024636 31.795224 63.562982 0
M  V30 2 C 36.337910 32.321430 59.350090 0
M  V30 3 C 38.444769 28.582989 56.352892 0
M  V30 4 C 40.746234 32.595094 63.873146 0
M  V30 5 C 38.692392 31.595049 57.291193 0
M  V30 6 C 45.095855 28.010166 66.412952 0
M  V30 7 C 40.845096 27.671879 64.760636 0
M  V30 8 N 41.886913 30.375450 63.900786 0
M  V30 9 N 38.435564 27.810457 53.153757 0 CHG=1
M  V30 10 C 37.098268 34.333613 61.367808 0
M  V30 11 C 42.051336 30.077232 65.327760 0 CFG=1
M  V30 12 N 39.803594 32.603695 62.739897 0 CHG=1
M  V30 13 C 38.833871 30.470237 58.016734 0
M  V30 14 C 38.419354 32.903539 58.008345 0
M  V30 15 C 41.356801 28.767694 65.690422 0 CFG=1
M  V30 16 C 38.699875 31.690416 60.118146 0 CFG=1
M  V30 17 C 43.553733 30.022892 65.732065 0 CFG=2
M  V30 18 C 37.486714 28.440338 54.087963 0
M  V30 19 O 40.865423 28.769356 67.011758 0
M  V30 20 C 39.197372 31.184074 62.341749 0
M  V30 21 C 35.491395 32.558313 60.607379 0
M  V30 22 C 35.635399 33.997321 61.094030 0
M  V30 23 C 37.822708 32.760358 59.424446 0
M  V30 24 O 38.208464 31.459563 61.406634 0
M  V30 25 C 37.972075 34.143488 60.120132 0
M  V30 26 C 44.283526 28.703276 65.294212 0 CFG=2
M  V30 27 O 43.596522 30.215400 67.134088 0
M  V30 28 C 38.608157 30.603585 54.923433 0
M  V30 29 N 43.332344 27.772006 64.625761 0 CFG=1 CHG=1
M  V30 30 O 38.730688 30.492418 59.393471 0
M  V30 31 C 43.913312 26.537650 64.072170 0
M  V30 32 C 42.152543 27.501947 65.468473 0 CFG=2
M  V30 33 C 38.813364 31.620718 55.819849 0
M  V30 34 C 39.205164 29.135349 57.495128 0
M  V30 35 C 38.206996 29.205952 55.187476 0
M  V30 36 H 42.845149 32.234214 64.124926 0
M  V30 37 H 42.291367 31.911365 62.512042 0
M  V30 38 H 35.886293 32.937722 58.569489 0
M  V30 39 H 36.242101 31.287475 59.016117 0
M  V30 40 H 38.113857 27.560667 56.469879 0
M  V30 41 H 40.240954 32.247079 64.774711 0
M  V30 42 H 41.019535 33.633937 64.062266 0
M  V30 43 H 45.743220 28.721724 66.922828 0
M  V30 44 H 44.451570 27.563667 67.170363 0
M  V30 45 H 45.741800 27.225710 66.018960 0
M  V30 46 H 40.045160 27.025017 65.104422 0
M  V30 47 H 40.855832 27.848287 63.686463 0
M  V30 48 H 40.970528 30.042803 63.616066 0
M  V30 49 H 37.921810 27.302384 52.445182 0
M  V30 50 H 39.001444 28.520683 52.711800 0
M  V30 51 H 37.450737 33.692527 62.167680 0
M  V30 52 H 37.181162 35.358380 61.730782 0
M  V30 53 H 41.560859 30.863857 65.902915 0
M  V30 54 H 39.043070 33.218037 62.996721 0
M  V30 55 H 39.378634 33.416547 58.067782 0
M  V30 56 H 37.780273 33.528831 57.381727 0
M  V30 57 H 39.727465 32.054098 60.167703 0
M  V30 58 H 44.095774 30.871084 65.313531 0
M  V30 59 H 36.845158 27.667691 54.511905 0
M  V30 60 H 36.845151 29.121426 53.533040 0
M  V30 61 H 40.176403 28.126714 67.118065 0
M  V30 62 H 39.950313 30.505097 61.937348 0
M  V30 63 H 38.735141 30.722751 63.215978 0
M  V30 64 H 35.760074 31.860416 61.398914 0
M  V30 65 H 34.445560 32.362349 60.370675 0
M  V30 66 H 35.040392 34.138172 61.996817 0
M  V30 67 H 35.245147 34.669886 60.330409 0
M  V30 68 H 39.015701 34.357321 60.352027 0
M  V30 69 H 37.666975 34.915842 59.411717 0
M  V30 70 H 45.000109 28.992273 64.523159 0
M  V30 71 H 42.949276 29.652602 67.539664 0
M  V30 72 H 38.691023 30.879841 53.882267 0
M  V30 73 H 44.048037 25.807860 64.868615 0
M  V30 74 H 43.230411 26.078161 63.367854 0
M  V30 75 H 44.844909 26.741114 63.542149 0
M  V30 76 H 42.278638 26.783657 66.278411 0
M  V30 77 H 39.036540 32.584965 55.386410 0
M  V30 78 H 40.262468 29.146900 57.230450 0
M  V30 79 H 39.113965 28.419966 58.313379 0
M  V30 80 H 42.990224 28.301570 63.833817 0
M  V30 81 H 39.030758 27.170024 53.658453 0
M  V30 82 H 40.270117 33.015906 61.945646 0
M  V30 END ATOM
M  V30 BEGIN BOND
M  V30 1 1 4 1
M  V30 2 1 8 1
M  V30 3 1 11 8
M  V30 4 1 12 4
M  V30 5 2 13 5
M  V30 6 1 14 5
M  V30 7 1 15 7
M  V30 8 1 15 11
M  V30 9 1 17 11
M  V30 10 1 18 9
M  V30 11 1 15 19 CFG=1
M  V30 12 1 20 12
M  V30 13 1 21 2
M  V30 14 1 22 10
M  V30 15 1 22 21
M  V30 16 1 23 2
M  V30 17 1 23 14
M  V30 18 1 23 16
M  V30 19 1 24 16
M  V30 20 1 24 20
M  V30 21 1 25 10
M  V30 22 1 25 23
M  V30 23 1 26 6
M  V30 24 1 26 17
M  V30 25 1 27 17
M  V30 26 1 29 26
M  V30 27 1 30 13
M  V30 28 1 30 16
M  V30 29 1 31 29
M  V30 30 1 32 7
M  V30 31 1 32 15
M  V30 32 1 32 29
M  V30 33 1 33 5
M  V30 34 2 33 28
M  V30 35 1 34 3
M  V30 36 1 34 13
M  V30 37 2 35 3
M  V30 38 1 35 18
M  V30 39 1 35 28
M  V30 40 1 36 1
M  V30 41 1 37 1
M  V30 42 1 38 2
M  V30 43 1 39 2
M  V30 44 1 40 3
M  V30 45 1 41 4
M  V30 46 1 42 4
M  V30 47 1 43 6
M  V30 48 1 44 6
M  V30 49 1 45 6
M  V30 50 1 46 7
M  V30 51 1 47 7
M  V30 52 1 48 8
M  V30 53 1 49 9
M  V30 54 1 50 9
M  V30 55 1 51 10
M  V30 56 1 52 10
M  V30 57 1 11 53 CFG=1
M  V30 58 1 54 12
M  V30 59 1 55 14
M  V30 60 1 56 14
M  V30 61 1 16 57 CFG=1
M  V30 62 1 17 58 CFG=3
M  V30 63 1 59 18
M  V30 64 1 60 18
M  V30 65 1 61 19
M  V30 66 1 62 20
M  V30 67 1 63 20
M  V30 68 1 64 21
M  V30 69 1 65 21
M  V30 70 1 66 22
M  V30 71 1 67 22
M  V30 72 1 68 25
M  V30 73 1 69 25
M  V30 74 1 26 70 CFG=3
M  V30 75 1 71 27
M  V30 76 1 72 28
M  V30 77 1 73 31
M  V30 78 1 74 31
M  V30 79 1 75 31
M  V30 80 1 32 76 CFG=1
M  V30 81 1 77 33
M  V30 82 1 78 34
M  V30 83 1 79 34
M  V30 84 1 29 80 CFG=3
M  V30 85 1 81 9
M  V30 86 1 82 12
M  V30 END BOND
M  V30 END CTAB
M  END
>  <i_epik_Tot_Q>  (1) 
3

>  <i_epik_Tot_abs_Q>  (1) 
3

>  <i_i_glide_confnum>  (1) 
195

>  <i_i_glide_lignum>  (1) 
114

>  <i_i_glide_posenum>  (1) 
234

>  <i_i_glide_rotatable_bonds>  (1) 
10

>  <i_lp_mmshare_version>  (1) 
72125

>  <i_m_source_file_index>  (1) 
54

>  <i_f3d_flags>  (1) 
0

>  <num_sample>  (1) 
100

>  <b_lp_Chiralities_Consistent>  (1) 
1

>  <r_epik_Charging_Adjusted_Penalty>  (1) 
1.5449594399157651

>  <r_epik_Ionization_Penalty>  (1) 
0.47240059175592303

>  <r_epik_Ionization_Penalty_Charging>  (1) 
0.40568266018177357

>  <r_epik_Ionization_Penalty_Neutral>  (1) 
0.066717931574149458

>  <r_epik_State_Penalty>  (1) 
1.1392767797339916

>  <r_glide_ring_energy>  (1) 
0.00056355326545655675

>  <r_i_docking_score>  (1) 
-3.8302771677145877

>  <r_i_glide_ecoul>  (1) 
-4.9708002647849732

>  <r_i_glide_eff_state_penalty>  (1) 
1.1392767797339916

>  <r_i_glide_einternal>  (1) 
5.6490684267537734

>  <r_i_glide_emodel>  (1) 
-49.730758274200021

>  <r_i_glide_emodel_strain>  (1) 
0.36268987001967901

>  <r_i_glide_energy>  (1) 
-43.050682905402752

>  <r_i_glide_erotb>  (1) 
0.58947078011706677

>  <r_i_glide_esite>  (1) 
0

>  <r_i_glide_evdw>  (1) 
-38.079882640617782

>  <r_i_glide_gscore>  (1) 
-4.9695539474485795

>  <r_i_glide_gscore_strain>  (1) 
0

>  <r_i_glide_hbond>  (1) 
-0.096398931576957864

>  <r_i_glide_ligand_efficiency>  (1) 
-0.10943649050613108

>  <r_i_glide_ligand_efficiency_ln>  (1) 
-0.84083084673495689

>  <r_i_glide_ligand_efficiency_sa>  (1) 
-0.35797401719987887

>  <r_i_glide_lipo>  (1) 
-1.8716172177833961

>  <r_i_glide_metal>  (1) 
-0

>  <r_i_glide_rewards>  (1) 
-0.94139440645665662

>  <r_lp_Energy>  (1) 
63.319117999999996

>  <s_epik_Chemistry_Notes>  (1) 
This compound contains an acetal/aminal-like group ( X-CH(R)-Y where X, Y are N, S, or O) that may be acid/base labile, releasing an aldehyde.

>  <s_epik_cmdline>  (1) 
J2VwaWtfcHl0aG9uJywgJy1waHQnLCAnMS4wJywgJy1waCcsICc3LjQnLCAnLXRuJywgJzgnLCAnLW1hJywgJzUwMCcsICctaW1hZScsICc8aW5maWxlLm1hZT4nLCAnLW9tYWUnLCAnPG91dGZpbGUubWFlPic=

>  <s_epik_input>  (1) 
W09IXVtDQEBdMTJbQ0BASF0oW0NIMl0xKU4oW0NIM10pW0NASF0oW0NIM10pW0NASF0oW09IXSlbQ0BIXTJbTkhdW0NIMl1bQ0gyXVtOSF1bQ0gyXU9bQ0BIXTNPQyhbQ0gyXVtDSF09QyhbQ0gyXVtOSDJdKVtDSF09W0NIXTQpPUM0W0NIMl1DMzVbQ0gyXVtDSDJdW0NIMl1bQ0gyXVtDSDJdNQ==

>  <s_glide_docking_method>  (1) 
confgen

>  <s_i_glide_gridfile>  (1) 
gpcr_5ht2c_6bqh_protein_autoprepared_prepared

>  <s_lp_Force_Field>  (1) 
S-OPLS

>  <s_lp_Variant>  (1) 
DiffSBDD_53-6

>  <s_m_source_file>  (1) 
generated_GPCR_5HT2C_ligand_DiffSBDD_2026-06-23_prepared.sdf

>  <GenAI_Model>  (1) 
DiffSBDD

>  <Protein>  (1) 
GPCR_5HT2C

$$$$
DiffSBDD_5
     RDKit          3D

  0  0  0  0  0  0  0  0  0  0999 V3000
M  V30 BEGIN CTAB
M  V30 COUNTS 20 19 0 0 1
M  V30 BEGIN ATOM
M  V30 1 C 38.928999 27.174852 53.217484 0
M  V30 2 C 38.280737 27.753971 51.952093 0
M  V30 3 C 40.532851 30.513382 49.880204 0
M  V30 4 S 40.045077 29.850307 51.488449 0
M  V30 5 O 37.746240 24.960635 55.941262 0
M  V30 6 C 37.889183 26.517901 54.150866 0
M  V30 7 O 39.747086 25.816412 55.468671 0 CHG=-1
M  V30 8 C 38.515825 25.695410 55.284335 0
M  V30 9 C 39.276246 28.312397 50.931131 0
M  V30 10 H 39.682884 26.443805 52.923304 0
M  V30 11 H 39.455308 27.961257 53.758731 0
M  V30 12 H 37.542787 28.513284 52.214944 0
M  V30 13 H 37.733724 26.955961 51.461772 0
M  V30 14 H 41.233578 31.337444 50.002189 0
M  V30 15 H 39.645310 30.882784 49.367761 0
M  V30 16 H 41.001261 29.738139 49.272573 0
M  V30 17 H 37.243054 27.280403 54.584972 0
M  V30 18 H 37.245564 25.849015 53.578898 0
M  V30 19 H 38.756152 28.527542 50.000809 0
M  V30 20 H 40.045263 27.579493 50.689595 0
M  V30 END ATOM
M  V30 BEGIN BOND
M  V30 1 1 2 1
M  V30 2 1 4 3
M  V30 3 1 6 1
M  V30 4 2 8 5
M  V30 5 1 8 6
M  V30 6 1 8 7
M  V30 7 1 9 2
M  V30 8 1 9 4
M  V30 9 1 10 1
M  V30 10 1 11 1
M  V30 11 1 12 2
M  V30 12 1 13 2
M  V30 13 1 14 3
M  V30 14 1 15 3
M  V30 15 1 16 3
M  V30 16 1 17 6
M  V30 17 1 18 6
M  V30 18 1 19 9
M  V30 19 1 20 9
M  V30 END BOND
M  V30 END CTAB
M  END
>  <i_epik_Tot_Q>  (1) 
-1

>  <i_epik_Tot_abs_Q>  (1) 
1

>  <i_i_glide_confnum>  (1) 
8

>  <i_i_glide_lignum>  (1) 
8

>  <i_i_glide_posenum>  (1) 
244

>  <i_i_glide_rotatable_bonds>  (1) 
5

>  <i_lp_mmshare_version>  (1) 
72125

>  <i_m_source_file_index>  (1) 
6

>  <i_f3d_flags>  (1) 
0

>  <num_sample>  (1) 
100

>  <b_lp_Chiralities_Consistent>  (1) 
1

>  <r_epik_Charging_Adjusted_Penalty>  (1) 
0.0016234785268329083

>  <r_epik_Ionization_Penalty>  (1) 
0.0016234785268329083

>  <r_epik_Ionization_Penalty_Charging>  (1) 
0.0016234785268329083

>  <r_epik_Ionization_Penalty_Neutral>  (1) 
0

>  <r_epik_State_Penalty>  (1) 
-0

>  <r_glide_ring_energy>  (1) 
0

>  <r_i_docking_score>  (1) 
-3.8133735755388223

>  <r_i_glide_ecoul>  (1) 
-0.56046662497840227

>  <r_i_glide_eff_state_penalty>  (1) 
-0

>  <r_i_glide_einternal>  (1) 
4.5746403890965555

>  <r_i_glide_emodel>  (1) 
-22.305040315495301

>  <r_i_glide_emodel_strain>  (1) 
0.1331325686090612

>  <r_i_glide_energy>  (1) 
-19.889833256450498

>  <r_i_glide_erotb>  (1) 
2.0195253186786486

>  <r_i_glide_esite>  (1) 
0

>  <r_i_glide_evdw>  (1) 
-19.329366631472094

>  <r_i_glide_gscore>  (1) 
-3.8133735755388223

>  <r_i_glide_gscore_strain>  (1) 
0

>  <r_i_glide_hbond>  (1) 
0

>  <r_i_glide_ligand_efficiency>  (1) 
-0.42370817505986913

>  <r_i_glide_ligand_efficiency_ln>  (1) 
-1.1927137063095985

>  <r_i_glide_ligand_efficiency_sa>  (1) 
-0.88134852063687819

>  <r_i_glide_lipo>  (1) 
-1.9042493899822834

>  <r_i_glide_metal>  (1) 
-0

>  <r_i_glide_rewards>  (1) 
-2.8781111789148222

>  <r_lp_Energy>  (1) 
4.776243

>  <r_lp_tautomer_probability>  (1) 
1

>  <s_epik_cmdline>  (1) 
J2VwaWtfcHl0aG9uJywgJy1waHQnLCAnMS4wJywgJy1waCcsICc3LjQnLCAnLXRuJywgJzgnLCAnLW1hJywgJzUwMCcsICctaW1hZScsICc8aW5maWxlLm1hZT4nLCAnLW9tYWUnLCAnPG91dGZpbGUubWFlPic=

>  <s_epik_input>  (1) 
Tz1DKFtPSF0pW0NIMl1bQ0gyXVtDSDJdW0NIMl1TW0NIM10=

>  <s_glide_docking_method>  (1) 
confgen

>  <s_i_glide_gridfile>  (1) 
gpcr_5ht2c_6bqh_protein_autoprepared_prepared

>  <s_lp_Force_Field>  (1) 
S-OPLS

>  <s_lp_Variant>  (1) 
DiffSBDD_5-1

>  <s_m_source_file>  (1) 
generated_GPCR_5HT2C_ligand_DiffSBDD_2026-06-23_prepared.sdf

>  <GenAI_Model>  (1) 
DiffSBDD

>  <Protein>  (1) 
GPCR_5HT2C

$$$$
DiffSBDD_82
     RDKit          3D

  0  0  0  0  0  0  0  0  0  0999 V3000
M  V30 BEGIN CTAB
M  V30 COUNTS 37 38 0 0 1
M  V30 BEGIN ATOM
M  V30 1 C 37.732880 30.104717 57.046453 0 CFG=2
M  V30 2 O 37.986952 31.849683 60.670610 0
M  V30 3 C 37.430515 30.440989 58.515805 0 CFG=2
M  V30 4 O 38.445138 28.552837 59.596124 0
M  V30 5 C 40.838307 28.074129 57.230696 0
M  V30 6 C 38.744674 29.049793 56.599573 0 CFG=2
M  V30 7 C 39.441899 30.171644 54.413337 0
M  V30 8 C 38.183323 31.417862 57.645172 0
M  V30 9 O 39.982589 29.206371 57.291471 0
M  V30 10 N 38.525326 30.537507 60.669911 0
M  V30 11 C 38.940601 29.030845 55.083140 0
M  V30 12 F 39.737715 31.294219 55.108670 0
M  V30 13 C 42.961224 27.077797 58.199074 0
M  V30 14 C 39.354714 28.967314 52.290664 0
M  V30 15 C 38.634400 27.864267 54.346624 0
M  V30 16 C 38.843152 27.833737 52.952128 0
M  V30 17 C 38.172898 29.751133 59.630242 0
M  V30 18 C 39.645137 30.137765 53.019903 0
M  V30 19 Cl 39.645102 28.917572 50.590723 0
M  V30 20 C 41.946391 28.218362 58.282928 0
M  V30 21 H 36.849700 30.131637 56.409469 0
M  V30 22 H 38.432723 32.280239 61.384516 0
M  V30 23 H 36.387136 30.656728 58.733173 0
M  V30 24 H 40.284158 27.154665 57.425418 0
M  V30 25 H 41.259507 27.990278 56.228553 0
M  V30 26 H 38.308245 28.092723 56.890604 0
M  V30 27 H 37.646713 32.316334 57.346990 0
M  V30 28 H 39.244888 31.562275 57.829972 0
M  V30 29 H 38.945300 30.300014 61.557573 0
M  V30 30 H 43.844890 27.265814 58.798822 0
M  V30 31 H 42.529167 26.147883 58.567698 0
M  V30 32 H 43.305877 26.937814 57.176529 0
M  V30 33 H 38.250141 26.990198 54.852842 0
M  V30 34 H 38.619538 26.937819 52.391833 0
M  V30 35 H 40.037873 31.006418 52.512090 0
M  V30 36 H 42.471436 29.164084 58.167773 0
M  V30 37 H 41.505682 28.243849 59.280116 0
M  V30 END ATOM
M  V30 BEGIN BOND
M  V30 1 1 3 1
M  V30 2 1 6 1
M  V30 3 1 8 1
M  V30 4 1 8 3
M  V30 5 1 9 5
M  V30 6 1 9 6
M  V30 7 1 10 2
M  V30 8 1 11 6
M  V30 9 2 11 7
M  V30 10 1 12 7
M  V30 11 1 15 11
M  V30 12 1 16 14
M  V30 13 2 16 15
M  V30 14 1 17 3
M  V30 15 2 17 4
M  V30 16 1 17 10
M  V30 17 1 18 7
M  V30 18 2 18 14
M  V30 19 1 19 14
M  V30 20 1 20 5
M  V30 21 1 20 13
M  V30 22 1 1 21 CFG=3
M  V30 23 1 22 2
M  V30 24 1 3 23 CFG=1
M  V30 25 1 24 5
M  V30 26 1 25 5
M  V30 27 1 6 26 CFG=1
M  V30 28 1 27 8
M  V30 29 1 28 8
M  V30 30 1 29 10
M  V30 31 1 30 13
M  V30 32 1 31 13
M  V30 33 1 32 13
M  V30 34 1 33 15
M  V30 35 1 34 16
M  V30 36 1 35 18
M  V30 37 1 36 20
M  V30 38 1 37 20
M  V30 END BOND
M  V30 END CTAB
M  END
>  <i_epik_Tot_Q>  (1) 
0

>  <i_epik_Tot_abs_Q>  (1) 
0

>  <i_i_glide_confnum>  (1) 
14

>  <i_i_glide_lignum>  (1) 
189

>  <i_i_glide_posenum>  (1) 
357

>  <i_i_glide_rotatable_bonds>  (1) 
8

>  <i_lp_mmshare_version>  (1) 
72125

>  <i_m_source_file_index>  (1) 
83

>  <i_f3d_flags>  (1) 
0

>  <num_sample>  (1) 
100

>  <b_lp_Chiralities_Consistent>  (1) 
1

>  <r_epik_Charging_Adjusted_Penalty>  (1) 
0

>  <r_epik_Ionization_Penalty>  (1) 
0.011497294520252079

>  <r_epik_Ionization_Penalty_Charging>  (1) 
0

>  <r_epik_Ionization_Penalty_Neutral>  (1) 
0.011497294520252079

>  <r_epik_State_Penalty>  (1) 
-0

>  <r_glide_ring_energy>  (1) 
0

>  <r_i_docking_score>  (1) 
-3.7552639915766388

>  <r_i_glide_ecoul>  (1) 
-0.87604248980421739

>  <r_i_glide_eff_state_penalty>  (1) 
-0

>  <r_i_glide_einternal>  (1) 
4.0544373829082403

>  <r_i_glide_emodel>  (1) 
-37.022062996193043

>  <r_i_glide_emodel_strain>  (1) 
0.065022144817632466

>  <r_i_glide_energy>  (1) 
-30.912640338897756

>  <r_i_glide_erotb>  (1) 
1.2126053731810509

>  <r_i_glide_esite>  (1) 
0

>  <r_i_glide_evdw>  (1) 
-30.036597849093539

>  <r_i_glide_gscore>  (1) 
-3.7552639915766388

>  <r_i_glide_gscore_strain>  (1) 
0

>  <r_i_glide_hbond>  (1) 
0

>  <r_i_glide_ligand_efficiency>  (1) 
-0.18776319957883195

>  <r_i_glide_ligand_efficiency_ln>  (1) 
-0.93981872019581825

>  <r_i_glide_ligand_efficiency_sa>  (1) 
-0.50966773668500676

>  <r_i_glide_lipo>  (1) 
-2.4796393831609094

>  <r_i_glide_metal>  (1) 
-0

>  <r_i_glide_rewards>  (1) 
-0.85499371567146909

>  <r_lp_Energy>  (1) 
29.806459999999998

>  <r_lp_tautomer_probability>  (1) 
1

>  <s_epik_Chemistry_Notes>  (1) 
This compound has a N-S or N-O group and may undergo hydrolysis at high or low pH.

>  <s_epik_cmdline>  (1) 
J2VwaWtfcHl0aG9uJywgJy1waHQnLCAnMS4wJywgJy1waCcsICc3LjQnLCAnLXRuJywgJzgnLCAnLW1hJywgJzUwMCcsICctaW1hZScsICc8aW5maWxlLm1hZT4nLCAnLW9tYWUnLCAnPG91dGZpbGUubWFlPic=

>  <s_epik_input>  (1) 
W09IXVtOSF1DKD1PKVtDQEBIXShbQ0gyXTEpW0NAQEhdMVtDQEhdKE9bQ0gyXVtDSDJdW0NIM10pYyhjMkYpW2NIXVtjSF1jKENsKVtjSF0y

>  <s_glide_docking_method>  (1) 
confgen

>  <s_i_glide_gridfile>  (1) 
gpcr_5ht2c_6bqh_protein_autoprepared_prepared

>  <s_lp_Force_Field>  (1) 
S-OPLS

>  <s_lp_Variant>  (1) 
DiffSBDD_82-1

>  <s_m_source_file>  (1) 
generated_GPCR_5HT2C_ligand_DiffSBDD_2026-06-23_prepared.sdf

>  <GenAI_Model>  (1) 
DiffSBDD

>  <Protein>  (1) 
GPCR_5HT2C

$$$$
DiffSBDD_14
     RDKit          3D

  0  0  0  0  0  0  0  0  0  0999 V3000
M  V30 BEGIN CTAB
M  V30 COUNTS 49 48 0 0 1
M  V30 BEGIN ATOM
M  V30 1 C 39.248656 30.294753 55.990118 0
M  V30 2 C 39.441823 27.177684 52.393710 0
M  V30 3 C 38.869449 31.622122 56.636031 0
M  V30 4 C 38.520671 26.062374 54.465826 0
M  V30 5 O 36.448112 31.737583 61.367841 0 CHG=-1
M  V30 6 N 36.048606 34.479862 59.550272 0 CHG=1
M  V30 7 C 39.278520 29.108565 56.624099 0
M  V30 8 C 36.568738 33.111859 59.439789 0 CFG=2
M  V30 9 C 39.339141 28.026805 51.141712 0
M  V30 10 C 38.122331 26.033570 56.979373 0
M  V30 11 C 38.399975 26.906417 55.744751 0 CFG=1
M  V30 12 C 37.048213 32.690251 60.827935 0
M  V30 13 C 40.274626 29.243686 51.210063 0
M  V30 14 O 37.995465 33.338434 61.325821 0
M  V30 15 C 37.680013 33.032487 58.363932 0
M  V30 16 O 37.245177 30.667664 58.167241 0
M  V30 17 C 40.235973 30.111646 49.948883 0
M  V30 18 C 38.409867 26.912261 53.209795 0
M  V30 19 C 39.636951 27.807300 55.942936 0
M  V30 20 C 38.269900 31.629957 58.066214 0 CFG=1
M  V30 21 H 39.502551 30.335915 54.940854 0
M  V30 22 H 40.416145 26.773817 52.623800 0
M  V30 23 H 38.135807 32.049458 55.951076 0
M  V30 24 H 39.731863 32.286416 56.588929 0
M  V30 25 H 39.464769 25.515489 54.475592 0
M  V30 26 H 37.730642 25.311461 54.428553 0
M  V30 27 H 35.285522 34.479189 60.211940 0
M  V30 28 H 36.793199 35.067961 59.896225 0
M  V30 29 H 39.032332 29.049202 57.672633 0
M  V30 30 H 35.722358 32.490902 59.145126 0
M  V30 31 H 39.595126 27.402522 50.285837 0
M  V30 32 H 38.309185 28.351917 50.990528 0
M  V30 33 H 38.937589 25.332426 57.162658 0
M  V30 34 H 37.999273 26.644617 57.873497 0
M  V30 35 H 37.206571 25.455389 56.853281 0
M  V30 36 H 37.534733 27.551877 55.603190 0
M  V30 37 H 40.014868 29.856066 52.074246 0
M  V30 38 H 41.298124 28.906352 51.367854 0
M  V30 39 H 38.496512 33.714893 58.605624 0
M  V30 40 H 37.245112 33.427406 57.444295 0
M  V30 41 H 36.503143 30.991005 57.647989 0
M  V30 42 H 40.941835 30.940056 50.029260 0
M  V30 43 H 40.497733 29.530957 49.063789 0
M  V30 44 H 39.245187 30.538160 49.794019 0
M  V30 45 H 37.433110 27.315128 52.984451 0
M  V30 46 H 40.044791 28.066374 54.968675 0
M  V30 47 H 40.430024 27.293984 56.488357 0
M  V30 48 H 39.028310 31.376166 58.805857 0
M  V30 49 H 35.731660 34.803886 58.648043 0
M  V30 END ATOM
M  V30 BEGIN BOND
M  V30 1 1 3 1
M  V30 2 2 7 1
M  V30 3 1 8 6
M  V30 4 1 9 2
M  V30 5 1 11 4
M  V30 6 1 11 10
M  V30 7 1 12 5
M  V30 8 1 12 8
M  V30 9 1 13 9
M  V30 10 2 14 12
M  V30 11 1 15 8
M  V30 12 1 17 13
M  V30 13 2 18 2
M  V30 14 1 18 4
M  V30 15 1 19 7
M  V30 16 1 19 11
M  V30 17 1 20 3
M  V30 18 1 20 15
M  V30 19 1 20 16
M  V30 20 1 21 1
M  V30 21 1 22 2
M  V30 22 1 23 3
M  V30 23 1 24 3
M  V30 24 1 25 4
M  V30 25 1 26 4
M  V30 26 1 27 6
M  V30 27 1 28 6
M  V30 28 1 29 7
M  V30 29 1 8 30 CFG=3
M  V30 30 1 31 9
M  V30 31 1 32 9
M  V30 32 1 33 10
M  V30 33 1 34 10
M  V30 34 1 35 10
M  V30 35 1 11 36 CFG=3
M  V30 36 1 37 13
M  V30 37 1 38 13
M  V30 38 1 39 15
M  V30 39 1 40 15
M  V30 40 1 41 16
M  V30 41 1 42 17
M  V30 42 1 43 17
M  V30 43 1 44 17
M  V30 44 1 45 18
M  V30 45 1 46 19
M  V30 46 1 47 19
M  V30 47 1 20 48 CFG=1
M  V30 48 1 49 6
M  V30 END BOND
M  V30 END CTAB
M  END
>  <i_epik_Tot_Q>  (1) 
0

>  <i_epik_Tot_abs_Q>  (1) 
2

>  <i_i_glide_confnum>  (1) 
815

>  <i_i_glide_lignum>  (1) 
28

>  <i_i_glide_posenum>  (1) 
212

>  <i_i_glide_rotatable_bonds>  (1) 
12

>  <i_lp_mmshare_version>  (1) 
72125

>  <i_m_source_file_index>  (1) 
15

>  <i_f3d_flags>  (1) 
0

>  <num_sample>  (1) 
100

>  <b_lp_Chiralities_Consistent>  (1) 
1

>  <r_epik_Charging_Adjusted_Penalty>  (1) 
0.00991281995240933

>  <r_epik_Ionization_Penalty>  (1) 
0.0049587358016132182

>  <r_epik_Ionization_Penalty_Charging>  (1) 
0.0049586922537287062

>  <r_epik_Ionization_Penalty_Neutral>  (1) 
4.3547884512074136e-08

>  <r_epik_State_Penalty>  (1) 
0.0049541276986806238

>  <r_glide_ring_energy>  (1) 
0

>  <r_i_docking_score>  (1) 
-3.7281047262189895

>  <r_i_glide_ecoul>  (1) 
-9.1707963134069104

>  <r_i_glide_eff_state_penalty>  (1) 
0.0049541276986806238

>  <r_i_glide_einternal>  (1) 
8.0056166156770061

>  <r_i_glide_emodel>  (1) 
-40.361134113597458

>  <r_i_glide_emodel_strain>  (1) 
0.87813257221466934

>  <r_i_glide_energy>  (1) 
-35.478893365351126

>  <r_i_glide_erotb>  (1) 
4.0583376510001772

>  <r_i_glide_esite>  (1) 
0

>  <r_i_glide_evdw>  (1) 
-26.308097051944216

>  <r_i_glide_gscore>  (1) 
-3.7330588539176701

>  <r_i_glide_gscore_strain>  (1) 
0

>  <r_i_glide_hbond>  (1) 
-0.32000000000000001

>  <r_i_glide_ligand_efficiency>  (1) 
-0.18640523631094946

>  <r_i_glide_ligand_efficiency_ln>  (1) 
-0.93302165184932151

>  <r_i_glide_ligand_efficiency_sa>  (1) 
-0.50598165726797784

>  <r_i_glide_lipo>  (1) 
-2.6636508311184408

>  <r_i_glide_metal>  (1) 
-0

>  <r_i_glide_rewards>  (1) 
-2.1167213741911599

>  <r_lp_Energy>  (1) 
-4.2601749999999994

>  <s_epik_cmdline>  (1) 
J2VwaWtfcHl0aG9uJywgJy1waHQnLCAnMS4wJywgJy1waCcsICc3LjQnLCAnLXRuJywgJzgnLCAnLW1hJywgJzUwMCcsICctaW1hZScsICc8aW5maWxlLm1hZT4nLCAnLW9tYWUnLCAnPG91dGZpbGUubWFlPic=

>  <s_epik_input>  (1) 
W09IXUMoPU8pW0NAQEhdKFtOSDJdKVtDSDJdW0NAQEhdKFtPSF0pW0NIMl0vW0NIXT1bQ0hdL1tDSDJdW0NAQEhdKFtDSDNdKVtDSDJdXFtDSF09W0NIXVxbQ0gyXVtDSDJdW0NIM10=

>  <s_glide_docking_method>  (1) 
confgen

>  <s_i_glide_gridfile>  (1) 
gpcr_5ht2c_6bqh_protein_autoprepared_prepared

>  <s_lp_Force_Field>  (1) 
S-OPLS

>  <s_lp_Variant>  (1) 
DiffSBDD_14-6

>  <s_m_source_file>  (1) 
generated_GPCR_5HT2C_ligand_DiffSBDD_2026-06-23_prepared.sdf

>  <GenAI_Model>  (1) 
DiffSBDD

>  <Protein>  (1) 
GPCR_5HT2C

$$$$
DiffSBDD_14
     RDKit          3D

  0  0  0  0  0  0  0  0  0  0999 V3000
M  V30 BEGIN CTAB
M  V30 COUNTS 49 48 0 0 1
M  V30 BEGIN ATOM
M  V30 1 C 39.362570 29.528193 58.145453 0
M  V30 2 C 38.563632 27.332621 52.575695 0
M  V30 3 C 37.894862 29.932928 58.074858 0
M  V30 4 C 39.008250 25.965813 54.649992 0
M  V30 5 O 37.197777 35.397156 60.179698 0 CHG=-1
M  V30 6 N 37.245147 33.337762 58.095395 0 CHG=1
M  V30 7 C 39.980385 28.718736 57.262090 0
M  V30 8 C 37.254718 33.106205 59.544324 0 CFG=2
M  V30 9 C 38.958546 28.004527 51.277515 0
M  V30 10 C 39.319920 25.756378 57.144166 0
M  V30 11 C 39.676913 26.582979 55.893797 0 CFG=2
M  V30 12 C 37.892595 34.357871 60.167751 0
M  V30 13 C 39.976256 29.139441 51.467643 0
M  V30 14 O 39.060789 34.254300 60.604224 0
M  V30 15 C 37.974261 31.782733 59.935028 0
M  V30 16 O 35.954519 30.552144 59.367757 0
M  V30 17 C 40.173900 29.976535 50.198949 0
M  V30 18 C 39.411120 26.638218 53.352559 0
M  V30 19 C 39.310571 28.077764 56.055893 0
M  V30 20 C 37.359846 30.454584 59.424142 0 CFG=1
M  V30 21 H 39.930462 29.930456 58.969851 0
M  V30 22 H 37.529749 27.432409 52.872749 0
M  V30 23 H 37.299814 29.065007 57.791305 0
M  V30 24 H 37.763126 30.676510 57.288833 0
M  V30 25 H 39.277244 24.912484 54.568849 0
M  V30 26 H 37.922917 25.997688 54.757681 0
M  V30 27 H 36.891908 34.272401 57.938058 0
M  V30 28 H 38.185342 33.274343 57.735722 0
M  V30 29 H 41.028783 28.494562 57.398963 0
M  V30 30 H 36.218260 33.072182 59.883801 0
M  V30 31 H 39.342187 27.254050 50.584601 0
M  V30 32 H 38.045139 28.398969 50.836683 0
M  V30 33 H 38.252975 25.810164 57.364030 0
M  V30 34 H 39.578704 24.705760 57.006667 0
M  V30 35 H 39.858735 26.102411 58.026483 0
M  V30 36 H 40.757704 26.512388 55.758968 0
M  V30 37 H 39.655290 29.794885 52.278455 0
M  V30 38 H 40.934160 28.717524 51.767705 0
M  V30 39 H 37.968655 31.732126 61.025568 0
M  V30 40 H 39.027773 31.831422 59.662309 0
M  V30 41 H 35.689821 30.897641 58.514684 0
M  V30 42 H 40.962657 30.716511 50.337981 0
M  V30 43 H 40.445130 29.351084 49.348434 0
M  V30 44 H 39.262365 30.515264 49.940694 0
M  V30 45 H 40.445007 26.537729 53.058423 0
M  V30 46 H 38.228383 28.189550 56.075534 0
M  V30 47 H 39.648626 28.634638 55.181972 0
M  V30 48 H 37.580373 29.688675 60.167568 0
M  V30 49 H 36.635133 32.669559 57.628275 0
M  V30 END ATOM
M  V30 BEGIN BOND
M  V30 1 1 3 1
M  V30 2 2 7 1
M  V30 3 1 8 6
M  V30 4 1 9 2
M  V30 5 1 11 4
M  V30 6 1 11 10
M  V30 7 1 12 5
M  V30 8 1 12 8
M  V30 9 1 13 9
M  V30 10 2 14 12
M  V30 11 1 15 8
M  V30 12 1 17 13
M  V30 13 2 18 2
M  V30 14 1 18 4
M  V30 15 1 19 7
M  V30 16 1 19 11
M  V30 17 1 20 3
M  V30 18 1 20 15
M  V30 19 1 20 16
M  V30 20 1 21 1
M  V30 21 1 22 2
M  V30 22 1 23 3
M  V30 23 1 24 3
M  V30 24 1 25 4
M  V30 25 1 26 4
M  V30 26 1 27 6
M  V30 27 1 28 6
M  V30 28 1 29 7
M  V30 29 1 8 30 CFG=1
M  V30 30 1 31 9
M  V30 31 1 32 9
M  V30 32 1 33 10
M  V30 33 1 34 10
M  V30 34 1 35 10
M  V30 35 1 11 36 CFG=3
M  V30 36 1 37 13
M  V30 37 1 38 13
M  V30 38 1 39 15
M  V30 39 1 40 15
M  V30 40 1 41 16
M  V30 41 1 42 17
M  V30 42 1 43 17
M  V30 43 1 44 17
M  V30 44 1 45 18
M  V30 45 1 46 19
M  V30 46 1 47 19
M  V30 47 1 20 48 CFG=1
M  V30 48 1 49 6
M  V30 END BOND
M  V30 END CTAB
M  END
>  <i_epik_Tot_Q>  (1) 
0

>  <i_epik_Tot_abs_Q>  (1) 
2

>  <i_i_glide_confnum>  (1) 
165

>  <i_i_glide_lignum>  (1) 
23

>  <i_i_glide_posenum>  (1) 
155

>  <i_i_glide_rotatable_bonds>  (1) 
12

>  <i_lp_mmshare_version>  (1) 
72125

>  <i_m_source_file_index>  (1) 
15

>  <i_f3d_flags>  (1) 
0

>  <num_sample>  (1) 
100

>  <b_lp_Chiralities_Consistent>  (1) 
1

>  <r_epik_Charging_Adjusted_Penalty>  (1) 
0.00991281995240933

>  <r_epik_Ionization_Penalty>  (1) 
0.0049587358016132182

>  <r_epik_Ionization_Penalty_Charging>  (1) 
0.0049586922537287062

>  <r_epik_Ionization_Penalty_Neutral>  (1) 
4.3547884512074136e-08

>  <r_epik_State_Penalty>  (1) 
0.0049541276986806238

>  <r_glide_ring_energy>  (1) 
0

>  <r_i_docking_score>  (1) 
-3.7239322615551482

>  <r_i_glide_ecoul>  (1) 
-7.6082613722662451

>  <r_i_glide_eff_state_penalty>  (1) 
0.0049541276986806238

>  <r_i_glide_einternal>  (1) 
8.1133725755452986

>  <r_i_glide_emodel>  (1) 
-37.551374186850353

>  <r_i_glide_emodel_strain>  (1) 
4.1768930371226727

>  <r_i_glide_energy>  (1) 
-35.077584461622941

>  <r_i_glide_erotb>  (1) 
4.0583376510001772

>  <r_i_glide_esite>  (1) 
-0.079681549346441782

>  <r_i_glide_evdw>  (1) 
-27.469323089356696

>  <r_i_glide_gscore>  (1) 
-3.7288863892538289

>  <r_i_glide_gscore_strain>  (1) 
0.04422325928066817

>  <r_i_glide_hbond>  (1) 
-0.35999999999999999

>  <r_i_glide_ligand_efficiency>  (1) 
-0.18619661307775742

>  <r_i_glide_ligand_efficiency_ln>  (1) 
-0.9319774215610569

>  <r_i_glide_ligand_efficiency_sa>  (1) 
-0.50541536668857034

>  <r_i_glide_lipo>  (1) 
-2.8261768443403734

>  <r_i_glide_metal>  (1) 
-0

>  <r_i_glide_rewards>  (1) 
-2.0508835455400871

>  <r_lp_Energy>  (1) 
-4.478593

>  <s_epik_cmdline>  (1) 
J2VwaWtfcHl0aG9uJywgJy1waHQnLCAnMS4wJywgJy1waCcsICc3LjQnLCAnLXRuJywgJzgnLCAnLW1hJywgJzUwMCcsICctaW1hZScsICc8aW5maWxlLm1hZT4nLCAnLW9tYWUnLCAnPG91dGZpbGUubWFlPic=

>  <s_epik_input>  (1) 
W09IXUMoPU8pW0NAQEhdKFtOSDJdKVtDSDJdW0NAQEhdKFtPSF0pW0NIMl0vW0NIXT1bQ0hdXFtDSDJdW0NAQEhdKFtDSDNdKVtDSDJdXFtDSF09W0NIXVxbQ0gyXVtDSDJdW0NIM10=

>  <s_glide_docking_method>  (1) 
confgen

>  <s_i_glide_gridfile>  (1) 
gpcr_5ht2c_6bqh_protein_autoprepared_prepared

>  <s_lp_Force_Field>  (1) 
S-OPLS

>  <s_lp_Variant>  (1) 
DiffSBDD_14-1

>  <s_m_source_file>  (1) 
generated_GPCR_5HT2C_ligand_DiffSBDD_2026-06-23_prepared.sdf

>  <GenAI_Model>  (1) 
DiffSBDD

>  <Protein>  (1) 
GPCR_5HT2C

$$$$
DiffSBDD_14
     RDKit          3D

  0  0  0  0  0  0  0  0  0  0999 V3000
M  V30 BEGIN CTAB
M  V30 COUNTS 49 48 0 0 1
M  V30 BEGIN ATOM
M  V30 1 C 39.281117 27.817032 59.407895 0
M  V30 2 C 38.726466 27.289115 53.062808 0
M  V30 3 C 39.166424 29.220531 58.818052 0
M  V30 4 C 39.137291 25.657683 54.958696 0
M  V30 5 O 37.245137 31.737753 61.694897 0 CHG=-1
M  V30 6 N 36.445137 33.484255 58.967760 0 CHG=1
M  V30 7 C 39.593475 26.697510 58.715469 0
M  V30 8 C 36.521023 32.099289 59.447466 0 CFG=2
M  V30 9 C 38.948476 28.599151 52.327776 0
M  V30 10 C 37.417763 26.469494 56.619788 0
M  V30 11 C 38.804714 25.842406 56.453917 0 CFG=2
M  V30 12 C 36.322001 32.165347 60.967619 0
M  V30 13 C 39.566094 28.403408 50.934690 0
M  V30 14 O 35.245138 32.653223 61.367760 0
M  V30 15 C 37.815105 31.401795 58.948476 0
M  V30 16 O 36.845470 29.337755 58.195393 0
M  V30 17 C 40.047629 29.713299 50.297064 0
M  V30 18 C 39.347237 26.963784 54.209315 0
M  V30 19 C 39.883962 26.637767 57.224346 0
M  V30 20 C 37.794863 29.867578 59.101714 0 CFG=1
M  V30 21 H 39.093016 27.737756 60.468425 0
M  V30 22 H 38.024827 26.597663 52.618233 0
M  V30 23 H 39.386050 29.292928 57.757284 0
M  V30 24 H 39.941460 29.801902 59.317035 0
M  V30 25 H 40.045137 25.066233 54.864001 0
M  V30 26 H 38.345512 25.078616 54.483777 0
M  V30 27 H 35.625056 33.903609 59.383346 0
M  V30 28 H 37.268532 33.991497 59.253653 0
M  V30 29 H 39.645132 25.756981 59.240138 0
M  V30 30 H 35.655983 31.575568 59.041055 0
M  V30 31 H 37.992683 29.115125 52.245010 0
M  V30 32 H 39.596074 29.238949 52.929041 0
M  V30 33 H 37.453979 27.506750 56.294800 0
M  V30 34 H 36.666430 25.948058 56.026743 0
M  V30 35 H 37.082009 26.456494 57.656907 0
M  V30 36 H 38.757774 24.842929 56.889613 0
M  V30 37 H 40.423088 27.737755 51.006833 0
M  V30 38 H 38.846073 27.913942 50.277588 0
M  V30 39 H 38.676465 31.814215 59.476464 0
M  V30 40 H 37.978444 31.645110 57.896986 0
M  V30 41 H 36.317659 30.044291 57.841173 0
M  V30 42 H 40.443547 29.532980 49.297589 0
M  V30 43 H 39.245127 30.442577 50.204999 0
M  V30 44 H 40.841252 30.170160 50.889315 0
M  V30 45 H 40.045136 27.658253 54.645009 0
M  V30 46 H 40.025459 27.621982 56.795968 0
M  V30 47 H 40.845137 26.137875 57.106895 0
M  V30 48 H 37.484979 29.612201 60.114511 0
M  V30 49 H 36.356080 33.473193 57.960118 0
M  V30 END ATOM
M  V30 BEGIN BOND
M  V30 1 1 3 1
M  V30 2 2 7 1
M  V30 3 1 8 6
M  V30 4 1 9 2
M  V30 5 1 11 4
M  V30 6 1 11 10
M  V30 7 1 12 5
M  V30 8 1 12 8
M  V30 9 1 13 9
M  V30 10 2 14 12
M  V30 11 1 15 8
M  V30 12 1 17 13
M  V30 13 2 18 2
M  V30 14 1 18 4
M  V30 15 1 19 7
M  V30 16 1 19 11
M  V30 17 1 20 3
M  V30 18 1 20 15
M  V30 19 1 20 16
M  V30 20 1 21 1
M  V30 21 1 22 2
M  V30 22 1 23 3
M  V30 23 1 24 3
M  V30 24 1 25 4
M  V30 25 1 26 4
M  V30 26 1 27 6
M  V30 27 1 28 6
M  V30 28 1 29 7
M  V30 29 1 8 30 CFG=3
M  V30 30 1 31 9
M  V30 31 1 32 9
M  V30 32 1 33 10
M  V30 33 1 34 10
M  V30 34 1 35 10
M  V30 35 1 11 36 CFG=1
M  V30 36 1 37 13
M  V30 37 1 38 13
M  V30 38 1 39 15
M  V30 39 1 40 15
M  V30 40 1 41 16
M  V30 41 1 42 17
M  V30 42 1 43 17
M  V30 43 1 44 17
M  V30 44 1 45 18
M  V30 45 1 46 19
M  V30 46 1 47 19
M  V30 47 1 20 48 CFG=1
M  V30 48 1 49 6
M  V30 END BOND
M  V30 END CTAB
M  END
>  <i_epik_Tot_Q>  (1) 
0

>  <i_epik_Tot_abs_Q>  (1) 
2

>  <i_i_glide_confnum>  (1) 
684

>  <i_i_glide_lignum>  (1) 
23

>  <i_i_glide_posenum>  (1) 
198

>  <i_i_glide_rotatable_bonds>  (1) 
12

>  <i_lp_mmshare_version>  (1) 
72125

>  <i_m_source_file_index>  (1) 
15

>  <i_f3d_flags>  (1) 
0

>  <num_sample>  (1) 
100

>  <b_lp_Chiralities_Consistent>  (1) 
1

>  <r_epik_Charging_Adjusted_Penalty>  (1) 
0.00991281995240933

>  <r_epik_Ionization_Penalty>  (1) 
0.0049587358016132182

>  <r_epik_Ionization_Penalty_Charging>  (1) 
0.0049586922537287062

>  <r_epik_Ionization_Penalty_Neutral>  (1) 
4.3547884512074136e-08

>  <r_epik_State_Penalty>  (1) 
0.0049541276986806238

>  <r_glide_ring_energy>  (1) 
0

>  <r_i_docking_score>  (1) 
-3.7063891365462101

>  <r_i_glide_ecoul>  (1) 
-6.4961667227106439

>  <r_i_glide_eff_state_penalty>  (1) 
0.0049541276986806238

>  <r_i_glide_einternal>  (1) 
4.2887738236348794

>  <r_i_glide_emodel>  (1) 
-40.001470071849319

>  <r_i_glide_emodel_strain>  (1) 
1.6548159730009626

>  <r_i_glide_energy>  (1) 
-33.143678386793162

>  <r_i_glide_erotb>  (1) 
4.0583376510001772

>  <r_i_glide_esite>  (1) 
-0.13030921634295703

>  <r_i_glide_evdw>  (1) 
-26.647511664082518

>  <r_i_glide_gscore>  (1) 
-3.7113432642448907

>  <r_i_glide_gscore_strain>  (1) 
0

>  <r_i_glide_hbond>  (1) 
-0.30251341114697045

>  <r_i_glide_ligand_efficiency>  (1) 
-0.18531945682731049

>  <r_i_glide_ligand_efficiency_ln>  (1) 
-0.92758695598230723

>  <r_i_glide_ligand_efficiency_sa>  (1) 
-0.50303439830985086

>  <r_i_glide_lipo>  (1) 
-3.2025455734319492

>  <r_i_glide_metal>  (1) 
-0

>  <r_i_glide_rewards>  (1) 
-1.8275121227124691

>  <r_lp_Energy>  (1) 
-4.478593

>  <s_epik_cmdline>  (1) 
J2VwaWtfcHl0aG9uJywgJy1waHQnLCAnMS4wJywgJy1waCcsICc3LjQnLCAnLXRuJywgJzgnLCAnLW1hJywgJzUwMCcsICctaW1hZScsICc8aW5maWxlLm1hZT4nLCAnLW9tYWUnLCAnPG91dGZpbGUubWFlPic=

>  <s_epik_input>  (1) 
W09IXUMoPU8pW0NAQEhdKFtOSDJdKVtDSDJdW0NAQEhdKFtPSF0pW0NIMl0vW0NIXT1bQ0hdXFtDSDJdW0NAQEhdKFtDSDNdKVtDSDJdXFtDSF09W0NIXVxbQ0gyXVtDSDJdW0NIM10=

>  <s_glide_docking_method>  (1) 
confgen

>  <s_i_glide_gridfile>  (1) 
gpcr_5ht2c_6bqh_protein_autoprepared_prepared

>  <s_lp_Force_Field>  (1) 
S-OPLS

>  <s_lp_Variant>  (1) 
DiffSBDD_14-1

>  <s_m_source_file>  (1) 
generated_GPCR_5HT2C_ligand_DiffSBDD_2026-06-23_prepared.sdf

>  <GenAI_Model>  (1) 
DiffSBDD

>  <Protein>  (1) 
GPCR_5HT2C

$$$$
DiffSBDD_93
     RDKit          3D

  0  0  0  0  0  0  0  0  0  0999 V3000
M  V30 BEGIN CTAB
M  V30 COUNTS 83 84 0 0 1
M  V30 BEGIN ATOM
M  V30 1 C 35.397948 31.948273 60.999049 0
M  V30 2 O 34.882626 33.174735 61.460871 0
M  V30 3 C 40.962914 34.192586 64.872429 0
M  V30 4 C 42.356085 28.312787 57.844733 0
M  V30 5 O 36.758733 30.146184 59.420033 0
M  V30 6 C 38.305959 29.561880 55.991814 0
M  V30 7 N 37.245137 30.054355 56.616413 0
M  V30 8 O 38.986217 30.228915 55.213656 0
M  V30 9 O 37.245127 36.269305 59.367794 0
M  V30 10 C 43.614615 27.481308 57.760643 0
M  V30 11 C 40.352440 33.789621 63.527245 0
M  V30 12 C 38.964488 30.911892 59.992573 0
M  V30 13 C 37.689026 32.837206 61.667832 0
M  V30 14 C 39.750966 27.890679 57.403940 0 CFG=2
M  V30 15 C 38.657509 28.089493 56.285430 0 CFG=2
M  V30 16 C 40.382515 36.116489 63.492223 0 CFG=1
M  V30 17 C 39.390198 34.949005 61.519043 0 CFG=1
M  V30 18 C 40.659531 34.790027 60.729275 0
M  V30 19 C 39.645151 30.031655 58.929348 0
M  V30 20 S 36.779695 35.258307 60.642653 0 CHG=1
M  V30 21 O 39.245381 28.137763 61.183018 0
M  V30 22 N 36.867043 31.893152 60.856152 0
M  V30 23 O 36.845113 36.295919 61.981211 0
M  V30 24 O 40.044963 36.137558 65.961362 0
M  V30 25 F 38.383180 37.311675 63.871815 0
M  V30 26 C 43.645138 28.937667 57.367767 0
M  V30 27 C 39.855667 27.733858 59.978173 0
M  V30 28 C 39.324808 28.530304 58.778842 0 CFG=2
M  V30 29 C 37.429102 30.952966 60.058949 0
M  V30 30 C 38.923259 27.423426 54.908158 0
M  V30 31 C 39.645213 38.182196 62.068584 0
M  V30 32 C 38.175199 34.132659 60.927239 0 CFG=2
M  V30 33 O 38.865554 25.196792 55.720038 0
M  V30 34 C 41.197444 28.130705 56.866629 0
M  V30 35 C 39.629370 37.469908 63.436279 0 CFG=2
M  V30 36 C 39.443621 25.998198 54.952106 0
M  V30 37 C 40.886315 35.719932 64.901861 0 CFG=1
M  V30 38 O 40.412695 25.737803 54.209317 0 CHG=-1
M  V30 39 N 39.645166 34.953792 62.968001 0
M  V30 40 H 34.912040 31.756283 60.039767 0
M  V30 41 H 35.076249 31.157692 61.676428 0
M  V30 42 H 34.037427 33.017840 61.859151 0
M  V30 43 H 40.445204 33.736405 65.716594 0
M  V30 44 H 41.996456 33.855124 64.932389 0
M  V30 45 H 42.112511 28.691487 58.817905 0
M  V30 46 H 36.727052 29.478049 57.262790 0
M  V30 47 H 36.949358 31.013401 56.454010 0
M  V30 48 H 36.630660 36.110574 58.662886 0
M  V30 49 H 44.053713 27.162872 58.698367 0
M  V30 50 H 43.706386 26.754304 56.967782 0
M  V30 51 H 39.689198 32.940095 63.665445 0
M  V30 52 H 41.182002 33.460682 62.909497 0
M  V30 53 H 39.339608 31.915387 59.820302 0
M  V30 54 H 39.338603 30.626940 60.973148 0
M  V30 55 H 38.553248 32.310364 62.053555 0
M  V30 56 H 37.130994 33.062736 62.567664 0
M  V30 57 H 39.724756 26.818950 57.601332 0
M  V30 58 H 37.747249 27.620148 56.664704 0
M  V30 59 H 41.302223 36.240387 62.922306 0
M  V30 60 H 39.141705 35.961118 61.242262 0
M  V30 61 H 40.445125 34.865491 59.665601 0
M  V30 62 H 41.405507 35.553130 60.943282 0
M  V30 63 H 41.102267 33.823315 60.967748 0
M  V30 64 H 39.636766 30.539581 57.970994 0
M  V30 65 H 40.670223 30.058576 59.270278 0
M  V30 66 H 39.645359 28.942118 61.471409 0
M  V30 67 H 37.741997 36.320129 62.287181 0
M  V30 68 H 40.031183 37.082129 65.982826 0
M  V30 69 H 43.654203 29.243215 56.326062 0
M  V30 70 H 44.045140 29.679633 58.048211 0
M  V30 71 H 39.645104 26.692890 59.767701 0
M  V30 72 H 40.925048 27.776154 60.138914 0
M  V30 73 H 38.248265 28.390650 58.816519 0
M  V30 74 H 38.005680 27.414048 54.319200 0
M  V30 75 H 39.645046 27.998094 54.330374 0
M  V30 76 H 40.444968 37.801217 61.435973 0
M  V30 77 H 38.709135 38.067820 61.525696 0
M  V30 78 H 39.815548 39.251337 62.167803 0
M  V30 79 H 38.438653 33.844372 59.910450 0
M  V30 80 H 41.452888 27.265287 56.261832 0
M  V30 81 H 41.197534 28.937784 56.148476 0
M  V30 82 H 40.045067 38.157970 64.162384 0
M  V30 83 H 41.876315 36.137554 65.086288 0
M  V30 END ATOM
M  V30 BEGIN BOND
M  V30 1 1 2 1
M  V30 2 1 7 6
M  V30 3 2 8 6
M  V30 4 1 10 4
M  V30 5 1 11 3
M  V30 6 1 15 6
M  V30 7 1 15 14
M  V30 8 1 18 17
M  V30 9 1 19 12
M  V30 10 1 20 9
M  V30 11 1 22 1
M  V30 12 1 22 13
M  V30 13 1 23 20
M  V30 14 1 26 4
M  V30 15 1 26 10
M  V30 16 1 27 21
M  V30 17 1 28 14
M  V30 18 1 28 19
M  V30 19 1 28 27
M  V30 20 2 29 5
M  V30 21 1 29 12
M  V30 22 1 29 22
M  V30 23 1 30 15
M  V30 24 1 32 13
M  V30 25 1 32 17
M  V30 26 1 32 20
M  V30 27 1 34 4
M  V30 28 1 34 14
M  V30 29 1 35 16
M  V30 30 1 35 25
M  V30 31 1 35 31
M  V30 32 1 36 30
M  V30 33 2 36 33
M  V30 34 1 37 3
M  V30 35 1 37 16
M  V30 36 1 37 24
M  V30 37 1 38 36
M  V30 38 1 39 11
M  V30 39 1 39 16
M  V30 40 1 39 17
M  V30 41 1 40 1
M  V30 42 1 41 1
M  V30 43 1 42 2
M  V30 44 1 43 3
M  V30 45 1 44 3
M  V30 46 1 45 4
M  V30 47 1 46 7
M  V30 48 1 47 7
M  V30 49 1 48 9
M  V30 50 1 49 10
M  V30 51 1 50 10
M  V30 52 1 51 11
M  V30 53 1 52 11
M  V30 54 1 53 12
M  V30 55 1 54 12
M  V30 56 1 55 13
M  V30 57 1 56 13
M  V30 58 1 14 57 CFG=1
M  V30 59 1 15 58 CFG=1
M  V30 60 1 16 59 CFG=3
M  V30 61 1 17 60 CFG=3
M  V30 62 1 61 18
M  V30 63 1 62 18
M  V30 64 1 63 18
M  V30 65 1 64 19
M  V30 66 1 65 19
M  V30 67 1 66 21
M  V30 68 1 67 23
M  V30 69 1 68 24
M  V30 70 1 69 26
M  V30 71 1 70 26
M  V30 72 1 71 27
M  V30 73 1 72 27
M  V30 74 1 28 73 CFG=1
M  V30 75 1 74 30
M  V30 76 1 75 30
M  V30 77 1 76 31
M  V30 78 1 77 31
M  V30 79 1 78 31
M  V30 80 1 32 79 CFG=3
M  V30 81 1 80 34
M  V30 82 1 81 34
M  V30 83 1 35 82 CFG=1
M  V30 84 1 37 83 CFG=1
M  V30 END BOND
M  V30 END CTAB
M  END
>  <i_epik_Tot_Q>  (1) 
0

>  <i_epik_Tot_abs_Q>  (1) 
2

>  <i_i_glide_confnum>  (1) 
1396

>  <i_i_glide_lignum>  (1) 
214

>  <i_i_glide_posenum>  (1) 
42

>  <i_i_glide_rotatable_bonds>  (1) 
24

>  <i_lp_mmshare_version>  (1) 
72125

>  <i_m_source_file_index>  (1) 
94

>  <i_f3d_flags>  (1) 
0

>  <num_sample>  (1) 
100

>  <b_lp_Chiralities_Consistent>  (1) 
1

>  <r_epik_Charging_Adjusted_Penalty>  (1) 
0.37121505818338452

>  <r_epik_Ionization_Penalty>  (1) 
0.37121789513022985

>  <r_epik_Ionization_Penalty_Charging>  (1) 
0.00098257200063165957

>  <r_epik_Ionization_Penalty_Neutral>  (1) 
0.37023532312959817

>  <r_epik_State_Penalty>  (1) 
0.37023248618275284

>  <r_glide_ring_energy>  (1) 
0

>  <r_i_docking_score>  (1) 
-3.7031357013150887

>  <r_i_glide_ecoul>  (1) 
-6.4197046587608382

>  <r_i_glide_eff_state_penalty>  (1) 
0.37023248618275284

>  <r_i_glide_einternal>  (1) 
5.3132381224027405

>  <r_i_glide_emodel>  (1) 
-33.625014129774371

>  <r_i_glide_emodel_strain>  (1) 
12.695299696168306

>  <r_i_glide_energy>  (1) 
-33.381199951850441

>  <r_i_glide_erotb>  (1) 
0.82577533054746977

>  <r_i_glide_esite>  (1) 
-0.21304217190590347

>  <r_i_glide_evdw>  (1) 
-26.961495293089602

>  <r_i_glide_gscore>  (1) 
-4.0733681874978416

>  <r_i_glide_gscore_strain>  (1) 
2.1738249240420764

>  <r_i_glide_hbond>  (1) 
-0.2199287846779088

>  <r_i_glide_ligand_efficiency>  (1) 
-0.094952197469617666

>  <r_i_glide_ligand_efficiency_ln>  (1) 
-0.79405741412003672

>  <r_i_glide_ligand_efficiency_sa>  (1) 
-0.32200297859830823

>  <r_i_glide_lipo>  (1) 
-2.9086431790082683

>  <r_i_glide_metal>  (1) 
-0

>  <r_i_glide_rewards>  (1) 
-1.4203238430267002

>  <r_lp_Energy>  (1) 
19.498639999999998

>  <s_epik_Chemistry_Notes>  (1) 
This compound contains an acetal/aminal-like group ( X-CH(R)-Y where X, Y are N, S, or O) that may be acid/base labile, releasing an aldehyde.

>  <s_epik_cmdline>  (1) 
J2VwaWtfcHl0aG9uJywgJy1waHQnLCAnMS4wJywgJy1waCcsICc3LjQnLCAnLXRuJywgJzgnLCAnLW1hJywgJzUwMCcsICctaW1hZScsICc8aW5maWxlLm1hZT4nLCAnLW9tYWUnLCAnPG91dGZpbGUubWFlPic=

>  <s_epik_input>  (1) 
W0NIMl0xW0NIMl1bQ0hdMVtDSDJdW0NAQEhdKFtDQEBIXShDKD1PKVtOSDJdKVtDSDJdQyg9TylbT0hdKVtDQEBIXShbQ0gyXVtPSF0pW0NIMl1bQ0gyXUMoPU8pTihbQ0gyXVtPSF0pW0NIMl1bQ0BASF0oW1MrXShbT0hdKVtPSF0pW0NASF0oW0NIM10pTjJbQ0gyXVtDSDJdW0NASF0oW09IXSlbQ0BASF0yW0NASF0oRilbQ0gzXQ==

>  <s_glide_docking_method>  (1) 
confgen

>  <s_i_glide_gridfile>  (1) 
gpcr_5ht2c_6bqh_protein_autoprepared_prepared

>  <s_lp_Force_Field>  (1) 
S-OPLS

>  <s_lp_Variant>  (1) 
DiffSBDD_93-2

>  <s_m_source_file>  (1) 
generated_GPCR_5HT2C_ligand_DiffSBDD_2026-06-23_prepared.sdf

>  <GenAI_Model>  (1) 
DiffSBDD

>  <Protein>  (1) 
GPCR_5HT2C

$$$$
DiffSBDD_76
     RDKit          3D

  0  0  0  0  0  0  0  0  0  0999 V3000
M  V30 BEGIN CTAB
M  V30 COUNTS 22 21 0 0 1
M  V30 BEGIN ATOM
M  V30 1 C 39.477511 26.523116 54.632452 0
M  V30 2 C 38.847877 27.900622 54.513272 0
M  V30 3 C 41.020137 30.293013 50.019794 0
M  V30 4 S 38.323273 25.337755 55.368271 0
M  V30 5 C 39.852453 29.866468 50.911772 0
M  V30 6 C 39.880284 28.363767 51.212909 0
M  V30 7 C 38.648444 27.854747 51.977350 0
M  V30 8 C 38.489504 28.485534 53.352149 0
M  V30 9 H 40.345459 26.606242 55.287159 0
M  V30 10 H 39.854276 26.137759 53.687790 0
M  V30 11 H 38.686939 28.431507 55.440617 0
M  V30 12 H 40.944536 31.346258 49.767690 0
M  V30 13 H 41.977017 30.137782 50.518954 0
M  V30 14 H 41.027366 29.737767 49.082210 0
M  V30 15 H 37.460266 25.334706 54.347978 0
M  V30 16 H 38.915336 30.122497 50.422649 0
M  V30 17 H 39.882357 30.437775 51.840330 0
M  V30 18 H 40.788911 28.137765 51.767727 0
M  V30 19 H 39.950597 27.812563 50.274380 0
M  V30 20 H 38.677032 26.769580 52.039314 0
M  V30 21 H 37.746165 28.075823 51.406452 0
M  V30 22 H 38.054367 29.474267 53.374441 0
M  V30 END ATOM
M  V30 BEGIN BOND
M  V30 1 1 2 1
M  V30 2 1 4 1
M  V30 3 1 5 3
M  V30 4 1 6 5
M  V30 5 1 7 6
M  V30 6 2 8 2
M  V30 7 1 8 7
M  V30 8 1 9 1
M  V30 9 1 10 1
M  V30 10 1 11 2
M  V30 11 1 12 3
M  V30 12 1 13 3
M  V30 13 1 14 3
M  V30 14 1 15 4
M  V30 15 1 16 5
M  V30 16 1 17 5
M  V30 17 1 18 6
M  V30 18 1 19 6
M  V30 19 1 20 7
M  V30 20 1 21 7
M  V30 21 1 22 8
M  V30 END BOND
M  V30 END CTAB
M  END
>  <i_epik_Tot_Q>  (1) 
0

>  <i_epik_Tot_abs_Q>  (1) 
0

>  <i_i_glide_confnum>  (1) 
12

>  <i_i_glide_lignum>  (1) 
177

>  <i_i_glide_posenum>  (1) 
325

>  <i_i_glide_rotatable_bonds>  (1) 
5

>  <i_lp_mmshare_version>  (1) 
72125

>  <i_m_source_file_index>  (1) 
77

>  <i_f3d_flags>  (1) 
0

>  <num_sample>  (1) 
100

>  <b_lp_Chiralities_Consistent>  (1) 
1

>  <r_epik_Charging_Adjusted_Penalty>  (1) 
0.0051523938583426443

>  <r_epik_Ionization_Penalty>  (1) 
0.0051523938583426451

>  <r_epik_Ionization_Penalty_Charging>  (1) 
0

>  <r_epik_Ionization_Penalty_Neutral>  (1) 
0.0051523938583426451

>  <r_epik_State_Penalty>  (1) 
0.0051523938583426443

>  <r_glide_ring_energy>  (1) 
0

>  <r_i_docking_score>  (1) 
-3.6910075898954608

>  <r_i_glide_ecoul>  (1) 
-0.16702159956584745

>  <r_i_glide_eff_state_penalty>  (1) 
0.0051523938583426443

>  <r_i_glide_einternal>  (1) 
3.092099944433393

>  <r_i_glide_emodel>  (1) 
-22.363286307101895

>  <r_i_glide_emodel_strain>  (1) 
7.1712772737875241e-06

>  <r_i_glide_energy>  (1) 
-19.272815148706972

>  <r_i_glide_erotb>  (1) 
2.4507048939468694

>  <r_i_glide_esite>  (1) 
0

>  <r_i_glide_evdw>  (1) 
-19.105793549141126

>  <r_i_glide_gscore>  (1) 
-3.6961599837538035

>  <r_i_glide_gscore_strain>  (1) 
0

>  <r_i_glide_hbond>  (1) 
0

>  <r_i_glide_ligand_efficiency>  (1) 
-0.46137594873693261

>  <r_i_glide_ligand_efficiency_ln>  (1) 
-1.1985964142972545

>  <r_i_glide_ligand_efficiency_sa>  (1) 
-0.92275189747386532

>  <r_i_glide_lipo>  (1) 
-2.1418532335696425

>  <r_i_glide_metal>  (1) 
-0

>  <r_i_glide_rewards>  (1) 
-3.0246687267390961

>  <r_lp_Energy>  (1) 
-0.67296199999999995

>  <s_epik_cmdline>  (1) 
J2VwaWtfcHl0aG9uJywgJy1waHQnLCAnMS4wJywgJy1waCcsICc3LjQnLCAnLXRuJywgJzgnLCAnLW1hJywgJzUwMCcsICctaW1hZScsICc8aW5maWxlLm1hZT4nLCAnLW9tYWUnLCAnPG91dGZpbGUubWFlPic=

>  <s_epik_input>  (1) 
W1NIXVtDSDJdL1tDSF09W0NIXVxbQ0gyXVtDSDJdW0NIMl1bQ0gzXQ==

>  <s_glide_docking_method>  (1) 
confgen

>  <s_i_glide_gridfile>  (1) 
gpcr_5ht2c_6bqh_protein_autoprepared_prepared

>  <s_lp_Force_Field>  (1) 
S-OPLS

>  <s_lp_Variant>  (1) 
DiffSBDD_76-2

>  <s_m_source_file>  (1) 
generated_GPCR_5HT2C_ligand_DiffSBDD_2026-06-23_prepared.sdf

>  <GenAI_Model>  (1) 
DiffSBDD

>  <Protein>  (1) 
GPCR_5HT2C

$$$$
DiffSBDD_85
     RDKit          3D

  0  0  0  0  0  0  0  0  0  0999 V3000
M  V30 BEGIN CTAB
M  V30 COUNTS 62 65 0 0 1
M  V30 BEGIN ATOM
M  V30 1 C 38.696196 27.520751 55.841330 0
M  V30 2 C 34.986345 32.936666 59.470940 0
M  V30 3 N 39.495853 33.276553 61.030805 0
M  V30 4 C 39.438548 29.166735 59.331990 0
M  V30 5 C 39.537030 28.659810 51.041220 0
M  V30 6 C 38.693607 34.012055 60.073142 0 CFG=2
M  V30 7 O 39.629246 26.758789 55.573552 0
M  V30 8 F 40.288733 30.869750 51.556504 0
M  V30 9 C 38.898096 27.472653 51.444849 0
M  V30 10 O 38.053851 28.308084 54.947208 0
M  V30 11 O 41.274657 34.590153 65.736436 0
M  V30 12 C 39.661263 34.722450 61.010569 0 CFG=1
M  V30 13 C 39.679696 27.763976 59.223590 0
M  V30 14 C 37.356178 32.719750 61.660557 0
M  V30 15 C 39.779448 35.896853 63.184037 0
M  V30 16 C 37.280945 33.574274 60.397038 0 CFG=2
M  V30 17 C 41.708826 35.622057 64.868257 0
M  V30 18 N 39.119429 35.527822 62.059851 0
M  V30 19 O 38.654462 32.917175 62.167579 0
M  V30 20 C 36.511325 32.896312 59.223159 0 CFG=1
M  V30 21 O 34.453576 34.137484 58.969326 0
M  V30 22 C 38.142284 27.664373 57.268241 0 CFG=1
M  V30 23 C 38.242682 31.258852 58.495037 0
M  V30 24 C 41.258511 35.415858 63.391809 0 CFG=1
M  V30 25 N 36.881536 31.495056 58.967766 0
M  V30 26 Cl 40.259814 30.074976 60.553649 0
M  V30 27 C 38.397694 27.352455 52.756682 0
M  V30 28 C 38.571062 29.778979 58.487077 0
M  V30 29 C 38.540300 28.420616 53.668165 0
M  V30 30 C 39.085975 27.045623 58.279007 0
M  V30 31 C 41.647841 33.966005 63.020396 0
M  V30 32 C 39.675450 29.728270 51.947075 0
M  V30 33 O 37.892549 29.072493 57.502234 0
M  V30 34 O 39.244605 36.604178 64.034937 0
M  V30 35 C 39.178212 29.610426 53.260225 0
M  V30 36 H 34.468201 32.119580 58.968562 0
M  V30 37 H 34.744171 32.840893 60.530489 0
M  V30 38 H 39.918806 28.752426 50.035036 0
M  V30 39 H 38.987118 33.926001 59.030342 0
M  V30 40 H 38.789524 26.653741 50.747337 0
M  V30 41 H 41.433194 34.865172 66.626806 0
M  V30 42 H 40.551644 35.117723 60.524947 0
M  V30 43 H 40.352108 27.288987 59.917843 0
M  V30 44 H 37.227876 31.653539 61.475415 0
M  V30 45 H 36.610341 33.029048 62.386965 0
M  V30 46 H 36.751206 34.497264 60.639220 0
M  V30 47 H 41.318317 36.537428 65.295985 0
M  V30 48 H 42.795142 35.695449 64.926256 0
M  V30 49 H 38.166914 35.842711 61.948741 0
M  V30 50 H 36.713645 33.460406 58.311484 0
M  V30 51 H 34.649329 34.173783 58.045256 0
M  V30 52 H 37.192231 27.135582 57.327850 0
M  V30 53 H 38.357835 31.658615 57.486413 0
M  V30 54 H 38.978711 31.755541 59.107789 0
M  V30 55 H 41.860896 36.094644 62.788108 0
M  V30 56 H 36.249673 31.219968 58.204030 0
M  V30 57 H 37.904790 26.442466 53.065659 0
M  V30 58 H 39.272994 25.984758 58.200471 0
M  V30 59 H 41.889404 33.847179 61.966788 0
M  V30 60 H 42.548893 33.654132 63.548117 0
M  V30 61 H 40.869987 33.258347 63.301886 0
M  V30 62 H 39.286255 30.431445 53.954466 0
M  V30 END ATOM
M  V30 BEGIN BOND
M  V30 1 1 6 3
M  V30 2 2 7 1
M  V30 3 2 9 5
M  V30 4 1 10 1
M  V30 5 1 12 3
M  V30 6 1 12 6
M  V30 7 1 13 4
M  V30 8 1 16 6
M  V30 9 1 16 14
M  V30 10 1 17 11
M  V30 11 1 18 12
M  V30 12 1 18 15
M  V30 13 1 19 3
M  V30 14 1 19 14
M  V30 15 1 20 2
M  V30 16 1 20 16
M  V30 17 1 21 2
M  V30 18 1 22 1
M  V30 19 1 24 15
M  V30 20 1 24 17
M  V30 21 1 25 20
M  V30 22 1 25 23
M  V30 23 1 26 4
M  V30 24 1 27 9
M  V30 25 2 28 4
M  V30 26 1 28 23
M  V30 27 1 29 10
M  V30 28 2 29 27
M  V30 29 2 30 13
M  V30 30 1 30 22
M  V30 31 1 31 24
M  V30 32 1 32 5
M  V30 33 1 32 8
M  V30 34 1 33 22
M  V30 35 1 33 28
M  V30 36 2 34 15
M  V30 37 1 35 29
M  V30 38 2 35 32
M  V30 39 1 36 2
M  V30 40 1 37 2
M  V30 41 1 38 5
M  V30 42 1 6 39 CFG=3
M  V30 43 1 40 9
M  V30 44 1 41 11
M  V30 45 1 12 42 CFG=3
M  V30 46 1 43 13
M  V30 47 1 44 14
M  V30 48 1 45 14
M  V30 49 1 16 46 CFG=1
M  V30 50 1 47 17
M  V30 51 1 48 17
M  V30 52 1 49 18
M  V30 53 1 20 50 CFG=3
M  V30 54 1 51 21
M  V30 55 1 22 52 CFG=3
M  V30 56 1 53 23
M  V30 57 1 54 23
M  V30 58 1 24 55 CFG=3
M  V30 59 1 56 25
M  V30 60 1 57 27
M  V30 61 1 58 30
M  V30 62 1 59 31
M  V30 63 1 60 31
M  V30 64 1 61 31
M  V30 65 1 62 35
M  V30 END BOND
M  V30 END CTAB
M  END
>  <i_epik_Tot_Q>  (1) 
0

>  <i_epik_Tot_abs_Q>  (1) 
0

>  <i_i_glide_confnum>  (1) 
1893

>  <i_i_glide_lignum>  (1) 
202

>  <i_i_glide_posenum>  (1) 
349

>  <i_i_glide_rotatable_bonds>  (1) 
14

>  <i_lp_mmshare_version>  (1) 
72125

>  <i_m_source_file_index>  (1) 
86

>  <i_f3d_flags>  (1) 
0

>  <num_sample>  (1) 
100

>  <b_lp_Chiralities_Consistent>  (1) 
1

>  <r_epik_Charging_Adjusted_Penalty>  (1) 
0

>  <r_epik_Ionization_Penalty>  (1) 
0.002846787164494627

>  <r_epik_Ionization_Penalty_Charging>  (1) 
0

>  <r_epik_Ionization_Penalty_Neutral>  (1) 
0.002846787164494627

>  <r_epik_State_Penalty>  (1) 
-0

>  <r_glide_ring_energy>  (1) 
0

>  <r_i_docking_score>  (1) 
-3.6899551148919132

>  <r_i_glide_ecoul>  (1) 
-3.4369078131494994

>  <r_i_glide_eff_state_penalty>  (1) 
-0

>  <r_i_glide_einternal>  (1) 
7.7129081185129316

>  <r_i_glide_emodel>  (1) 
-55.991728949653705

>  <r_i_glide_emodel_strain>  (1) 
5.249248641606485

>  <r_i_glide_energy>  (1) 
-52.713678968072131

>  <r_i_glide_erotb>  (1) 
0.93847147272533338

>  <r_i_glide_esite>  (1) 
0

>  <r_i_glide_evdw>  (1) 
-49.276771154922635

>  <r_i_glide_gscore>  (1) 
-3.6899551148919132

>  <r_i_glide_gscore_strain>  (1) 
0.31231216040162124

>  <r_i_glide_hbond>  (1) 
-0.13870222737325957

>  <r_i_glide_ligand_efficiency>  (1) 
-0.10542728899691181

>  <r_i_glide_ligand_efficiency_ln>  (1) 
-0.81002704186021046

>  <r_i_glide_ligand_efficiency_sa>  (1) 
-0.34485965321231443

>  <r_i_glide_lipo>  (1) 
-3.2034214211583287

>  <r_i_glide_metal>  (1) 
-0

>  <r_i_glide_rewards>  (1) 
1.380759630231277

>  <r_lp_Energy>  (1) 
32.790191999999998

>  <r_lp_tautomer_probability>  (1) 
1

>  <s_epik_Chemistry_Notes>  (1) 
This compound contains an acetal/aminal-like group ( X-CH(R)-Y where X, Y are N, S, or O) that may be acid/base labile, releasing an aldehyde. This compound has a N-S or N-O group and may undergo hydrolysis at high or low pH.

>  <s_epik_cmdline>  (1) 
J2VwaWtfcHl0aG9uJywgJy1waHQnLCAnMS4wJywgJy1waCcsICc3LjQnLCAnLXRuJywgJzgnLCAnLW1hJywgJzUwMCcsICctaW1hZScsICc8aW5maWxlLm1hZT4nLCAnLW9tYWUnLCAnPG91dGZpbGUubWFlPic=

>  <s_epik_input>  (1) 
RmMoW2NIXTEpW2NIXVtjSF1bY0hdYzFPQyg9TylbQ0BASF0oW0NIXT1bQ0hdMilPQyg9QzJDbClbQ0gyXVtOSF1bQ0BASF0oW0NIMl1bT0hdKVtDQEBIXShbQ0gyXU8zKVtDSF0oW05AQF0zNClbQ0BIXTRbTkhdQyg9TylbQ0BIXShbQ0gzXSlbQ0gyXVtPSF0=

>  <s_glide_docking_method>  (1) 
confgen

>  <s_i_glide_gridfile>  (1) 
gpcr_5ht2c_6bqh_protein_autoprepared_prepared

>  <s_lp_Force_Field>  (1) 
S-OPLS

>  <s_lp_Variant>  (1) 
DiffSBDD_85-1

>  <s_m_source_file>  (1) 
generated_GPCR_5HT2C_ligand_DiffSBDD_2026-06-23_prepared.sdf

>  <GenAI_Model>  (1) 
DiffSBDD

>  <Protein>  (1) 
GPCR_5HT2C

$$$$
DiffSBDD_54
     RDKit          3D

  0  0  0  0  0  0  0  0  0  0999 V3000
M  V30 BEGIN CTAB
M  V30 COUNTS 41 42 0 0 1
M  V30 BEGIN ATOM
M  V30 1 C 39.382924 29.171710 55.304062 0
M  V30 2 C 38.029118 31.873385 59.122533 0
M  V30 3 C 37.914602 33.727533 57.473489 0
M  V30 4 C 42.967726 27.616589 58.012262 0
M  V30 5 C 40.669064 28.735893 58.281890 0
M  V30 6 S 38.045137 31.165559 56.431245 0 CHG=1
M  V30 7 C 38.610597 31.206816 54.033056 0
M  V30 8 N 38.829908 31.714648 60.159874 0
M  V30 9 C 38.368682 27.763951 57.593574 0
M  V30 10 C 37.883640 31.323768 61.094671 0
M  V30 11 N 36.611184 31.250067 60.648793 0
M  V30 12 N 36.764450 31.618253 59.367762 0
M  V30 13 N 39.248636 29.921087 56.558700 0
M  V30 14 C 39.246866 29.025336 57.733048 0 CFG=2
M  V30 15 C 39.701222 30.136071 54.152284 0
M  V30 16 C 41.621735 27.944695 57.366187 0
M  V30 17 O 38.550921 31.931427 55.248987 0
M  V30 18 C 38.486936 32.334270 57.767570 0 CFG=2
M  V30 19 H 38.441299 28.664904 55.088039 0
M  V30 20 H 40.133105 28.390436 55.350368 0
M  V30 21 H 38.045135 34.393864 58.323465 0
M  V30 22 H 36.845117 33.682631 57.296982 0
M  V30 23 H 38.371345 34.170328 56.588772 0
M  V30 24 H 43.560301 26.966972 57.367751 0
M  V30 25 H 42.845062 27.107111 58.967760 0
M  V30 26 H 43.544522 28.526665 58.167759 0
M  V30 27 H 40.560739 28.183398 59.216121 0
M  V30 28 H 41.142736 29.673838 58.567775 0
M  V30 29 H 38.850872 31.900370 53.228011 0
M  V30 30 H 37.645132 30.761611 53.790157 0
M  V30 31 H 38.331873 27.221027 58.538482 0
M  V30 32 H 38.742898 27.067109 56.843654 0
M  V30 33 H 37.341845 28.023782 57.337395 0
M  V30 34 H 38.138252 31.087819 62.117853 0
M  V30 35 H 35.984873 31.693922 58.714372 0
M  V30 36 H 38.775182 29.579794 58.536270 0
M  V30 37 H 40.672056 30.606807 54.314422 0
M  V30 38 H 39.772431 29.585174 53.214236 0
M  V30 39 H 41.149559 27.017833 57.039929 0
M  V30 40 H 41.843149 28.533008 56.478795 0
M  V30 41 H 39.569606 32.433304 57.767749 0
M  V30 END ATOM
M  V30 BEGIN BOND
M  V30 1 2 8 2
M  V30 2 1 10 8
M  V30 3 2 11 10
M  V30 4 1 12 2
M  V30 5 1 12 11
M  V30 6 1 13 1
M  V30 7 1 13 6
M  V30 8 1 14 5
M  V30 9 1 14 9
M  V30 10 1 14 13
M  V30 11 1 15 1
M  V30 12 1 15 7
M  V30 13 1 16 4
M  V30 14 1 16 5
M  V30 15 1 6 17 CFG=3
M  V30 16 1 17 7
M  V30 17 1 18 2
M  V30 18 1 18 3
M  V30 19 1 18 6
M  V30 20 1 19 1
M  V30 21 1 20 1
M  V30 22 1 21 3
M  V30 23 1 22 3
M  V30 24 1 23 3
M  V30 25 1 24 4
M  V30 26 1 25 4
M  V30 27 1 26 4
M  V30 28 1 27 5
M  V30 29 1 28 5
M  V30 30 1 29 7
M  V30 31 1 30 7
M  V30 32 1 31 9
M  V30 33 1 32 9
M  V30 34 1 33 9
M  V30 35 1 34 10
M  V30 36 1 35 12
M  V30 37 1 14 36 CFG=1
M  V30 38 1 37 15
M  V30 39 1 38 15
M  V30 40 1 39 16
M  V30 41 1 40 16
M  V30 42 1 18 41 CFG=1
M  V30 END BOND
M  V30 END CTAB
M  END
>  <i_epik_Tot_Q>  (1) 
1

>  <i_epik_Tot_abs_Q>  (1) 
1

>  <i_i_glide_confnum>  (1) 
11

>  <i_i_glide_lignum>  (1) 
119

>  <i_i_glide_posenum>  (1) 
350

>  <i_i_glide_rotatable_bonds>  (1) 
5

>  <i_lp_mmshare_version>  (1) 
72125

>  <i_m_source_file_index>  (1) 
55

>  <i_f3d_flags>  (1) 
0

>  <num_sample>  (1) 
100

>  <b_lp_Chiralities_Consistent>  (1) 
1

>  <r_epik_Charging_Adjusted_Penalty>  (1) 
1.0448623015598277

>  <r_epik_Ionization_Penalty>  (1) 
1.0474264341019792

>  <r_epik_Ionization_Penalty_Charging>  (1) 
0

>  <r_epik_Ionization_Penalty_Neutral>  (1) 
1.0474264341019792

>  <r_epik_State_Penalty>  (1) 
1.0448623015598277

>  <r_glide_ring_energy>  (1) 
0

>  <r_i_docking_score>  (1) 
-3.6779533432589924

>  <r_i_glide_ecoul>  (1) 
-6.3227218325550769

>  <r_i_glide_eff_state_penalty>  (1) 
1.0448623015598277

>  <r_i_glide_einternal>  (1) 
4.5617108385522593

>  <r_i_glide_emodel>  (1) 
-40.246741411913447

>  <r_i_glide_emodel_strain>  (1) 
0.11946604616940348

>  <r_i_glide_energy>  (1) 
-30.545666702650308

>  <r_i_glide_erotb>  (1) 
0.97219657743730314

>  <r_i_glide_esite>  (1) 
-0.25264853473166032

>  <r_i_glide_evdw>  (1) 
-24.22294487009523

>  <r_i_glide_gscore>  (1) 
-4.7228156448188203

>  <r_i_glide_gscore_strain>  (1) 
0

>  <r_i_glide_hbond>  (1) 
-0.17918732072544147

>  <r_i_glide_ligand_efficiency>  (1) 
-0.20433074129216625

>  <r_i_glide_ligand_efficiency_ln>  (1) 
-0.94539894183479167

>  <r_i_glide_ligand_efficiency_sa>  (1) 
-0.5354980318137692

>  <r_i_glide_lipo>  (1) 
-1.3562050014977245

>  <r_i_glide_metal>  (1) 
-0

>  <r_i_glide_rewards>  (1) 
-1.7474158469132748

>  <r_lp_Energy>  (1) 
3.1792319999999998

>  <r_lp_tautomer_probability>  (1) 
0.94828448534560383

>  <s_epik_cmdline>  (1) 
J2VwaWtfcHl0aG9uJywgJy1waHQnLCAnMS4wJywgJy1waCcsICc3LjQnLCAnLXRuJywgJzgnLCAnLW1hJywgJzUwMCcsICctaW1hZScsICc8aW5maWxlLm1hZT4nLCAnLW9tYWUnLCAnPG91dGZpbGUubWFlPic=

>  <s_epik_input>  (1) 
W0NIM11bQ0gyXVtDSDJdW0NASF0oW0NIM10pTihbQ0gyXVtDSDJdW0NIMl1PMSlbUytdMVtDQEBIXShbQ0gzXSljMm5bY0hdbltuSF0y

>  <s_glide_docking_method>  (1) 
confgen

>  <s_i_glide_gridfile>  (1) 
gpcr_5ht2c_6bqh_protein_autoprepared_prepared

>  <s_lp_Force_Field>  (1) 
S-OPLS

>  <s_lp_Variant>  (1) 
DiffSBDD_54-5

>  <s_m_source_file>  (1) 
generated_GPCR_5HT2C_ligand_DiffSBDD_2026-06-23_prepared.sdf

>  <GenAI_Model>  (1) 
DiffSBDD

>  <Protein>  (1) 
GPCR_5HT2C

$$$$
DiffSBDD_15
     RDKit          3D

  0  0  0  0  0  0  0  0  0  0999 V3000
M  V30 BEGIN CTAB
M  V30 COUNTS 75 76 0 0 1
M  V30 BEGIN ATOM
M  V30 1 C 36.710410 30.732236 61.003821 0
M  V30 2 C 37.791758 31.953591 56.631424 0
M  V30 3 N 40.123591 35.261848 66.969681 0
M  V30 4 C 38.841941 33.015841 56.800146 0 CFG=2
M  V30 5 C 37.776811 27.844635 54.034674 0
M  V30 6 C 40.672365 33.948673 64.226860 0
M  V30 7 O 39.645304 34.217285 68.913893 0
M  V30 8 C 41.114718 35.750060 66.014157 0
M  V30 9 C 37.710105 35.197946 60.957564 0
M  V30 10 C 38.523380 29.922819 55.268812 0
M  V30 11 C 40.462508 34.615387 68.090371 0
M  V30 12 O 39.095243 24.137716 57.161558 0
M  V30 13 C 40.028080 32.649044 55.964298 0
M  V30 14 C 36.880960 29.652221 57.250592 0
M  V30 15 C 41.715800 34.648414 65.116053 0
M  V30 16 C 39.159002 33.200947 58.269273 0
M  V30 17 C 38.110971 30.444780 56.686359 0 CFG=2
M  V30 18 C 41.241047 33.061005 63.116025 0
M  V30 19 C 37.645270 26.448441 53.951681 0
M  V30 20 C 38.532699 34.043052 60.368244 0 CFG=2
M  V30 21 C 38.426166 28.422441 55.142333 0
M  V30 22 C 38.924872 32.552866 62.435016 0
M  V30 23 C 37.261509 29.968512 59.779795 0
M  V30 24 C 38.959287 27.605147 56.153143 0
M  V30 25 C 38.805784 26.214642 56.091011 0
M  V30 26 C 36.280086 29.987278 58.622996 0
M  V30 27 O 42.445148 32.937681 62.983299 0
M  V30 28 O 38.171019 33.907022 58.997867 0
M  V30 29 C 38.151166 25.630005 54.982672 0
M  V30 30 C 36.843564 32.246829 60.956698 0
M  V30 31 C 39.310538 25.360236 57.212680 0
M  V30 32 O 39.913419 25.914906 58.158581 0 CHG=-1
M  V30 33 N 40.371920 32.436906 62.312589 0
M  V30 34 C 38.311044 32.674758 61.050166 0 CFG=1
M  V30 35 H 37.245252 30.389845 61.884813 0
M  V30 36 H 35.648512 30.537780 61.143325 0
M  V30 37 H 37.244934 32.189332 55.728105 0
M  V30 38 H 37.245140 32.175745 57.519828 0
M  V30 39 H 39.148419 35.438384 66.777579 0
M  V30 40 H 38.444115 33.965772 56.435379 0
M  V30 41 H 37.370615 28.473160 53.256127 0
M  V30 42 H 40.045373 33.310628 64.848195 0
M  V30 43 H 40.053659 34.720516 63.767665 0
M  V30 44 H 40.631457 36.507589 65.394041 0
M  V30 45 H 41.910711 36.269270 66.550602 0
M  V30 46 H 37.924240 35.353438 62.014107 0
M  V30 47 H 37.944715 36.131259 60.443072 0
M  V30 48 H 36.638326 35.031771 60.851803 0
M  V30 49 H 37.863786 30.365107 54.521030 0
M  V30 50 H 39.535347 30.195514 54.984472 0
M  V30 51 H 41.554594 34.491273 68.170726 0
M  V30 52 H 40.423778 31.663081 56.167863 0
M  V30 53 H 39.648725 32.670919 54.940574 0
M  V30 54 H 40.840552 33.337765 56.167764 0
M  V30 55 H 37.099125 28.596236 57.365718 0
M  V30 56 H 36.085086 29.737759 56.514598 0
M  V30 57 H 42.478343 35.113426 64.489838 0
M  V30 58 H 42.229910 33.904636 65.723315 0
M  V30 59 H 39.245152 32.191925 58.638003 0
M  V30 60 H 40.076448 33.737740 58.395620 0
M  V30 61 H 38.943546 30.277951 57.368076 0
M  V30 62 H 37.143228 26.003899 53.106429 0
M  V30 63 H 39.583206 34.328997 60.450711 0
M  V30 64 H 38.577151 31.672850 62.967710 0
M  V30 65 H 38.585671 33.412987 62.967764 0
M  V30 66 H 38.219969 30.352632 59.454784 0
M  V30 67 H 37.482042 28.937770 60.037358 0
M  V30 68 H 39.453201 28.054767 57.003141 0
M  V30 69 H 35.480845 29.278280 58.834880 0
M  V30 70 H 35.779923 30.937767 58.600433 0
M  V30 71 H 38.032954 24.557648 54.927119 0
M  V30 72 H 36.276398 32.703796 61.767734 0
M  V30 73 H 36.380773 32.602350 60.036563 0
M  V30 74 H 40.731053 31.848152 61.576649 0
M  V30 75 H 38.891980 31.930848 60.534579 0
M  V30 END ATOM
M  V30 BEGIN BOND
M  V30 1 1 4 2
M  V30 2 1 8 3
M  V30 3 1 11 3
M  V30 4 2 11 7
M  V30 5 1 13 4
M  V30 6 1 15 6
M  V30 7 1 15 8
M  V30 8 1 16 4
M  V30 9 1 17 2
M  V30 10 1 17 10
M  V30 11 1 17 14
M  V30 12 1 18 6
M  V30 13 2 19 5
M  V30 14 1 20 9
M  V30 15 1 21 5
M  V30 16 1 21 10
M  V30 17 1 23 1
M  V30 18 2 24 21
M  V30 19 1 25 24
M  V30 20 1 26 14
M  V30 21 1 26 23
M  V30 22 2 27 18
M  V30 23 1 28 16
M  V30 24 1 28 20
M  V30 25 1 29 19
M  V30 26 2 29 25
M  V30 27 1 30 1
M  V30 28 2 31 12
M  V30 29 1 31 25
M  V30 30 1 32 31
M  V30 31 1 33 18
M  V30 32 1 33 22
M  V30 33 1 34 20
M  V30 34 1 34 22
M  V30 35 1 34 30
M  V30 36 1 35 1
M  V30 37 1 36 1
M  V30 38 1 37 2
M  V30 39 1 38 2
M  V30 40 1 39 3
M  V30 41 1 4 40 CFG=3
M  V30 42 1 41 5
M  V30 43 1 42 6
M  V30 44 1 43 6
M  V30 45 1 44 8
M  V30 46 1 45 8
M  V30 47 1 46 9
M  V30 48 1 47 9
M  V30 49 1 48 9
M  V30 50 1 49 10
M  V30 51 1 50 10
M  V30 52 1 51 11
M  V30 53 1 52 13
M  V30 54 1 53 13
M  V30 55 1 54 13
M  V30 56 1 55 14
M  V30 57 1 56 14
M  V30 58 1 57 15
M  V30 59 1 58 15
M  V30 60 1 59 16
M  V30 61 1 60 16
M  V30 62 1 17 61 CFG=1
M  V30 63 1 62 19
M  V30 64 1 20 63 CFG=3
M  V30 65 1 64 22
M  V30 66 1 65 22
M  V30 67 1 66 23
M  V30 68 1 67 23
M  V30 69 1 68 24
M  V30 70 1 69 26
M  V30 71 1 70 26
M  V30 72 1 71 29
M  V30 73 1 72 30
M  V30 74 1 73 30
M  V30 75 1 74 33
M  V30 76 1 34 75 CFG=3
M  V30 END BOND
M  V30 END CTAB
M  END
>  <i_epik_Tot_Q>  (1) 
-1

>  <i_epik_Tot_abs_Q>  (1) 
1

>  <i_i_glide_confnum>  (1) 
2338

>  <i_i_glide_lignum>  (1) 
32

>  <i_i_glide_posenum>  (1) 
230

>  <i_i_glide_rotatable_bonds>  (1) 
11

>  <i_lp_mmshare_version>  (1) 
72125

>  <i_m_source_file_index>  (1) 
16

>  <i_f3d_flags>  (1) 
0

>  <num_sample>  (1) 
100

>  <b_lp_Chiralities_Consistent>  (1) 
1

>  <r_epik_Charging_Adjusted_Penalty>  (1) 
0.00039988353432540339

>  <r_epik_Ionization_Penalty>  (1) 
0.00039992702821499621

>  <r_epik_Ionization_Penalty_Charging>  (1) 
0.00039988353432540339

>  <r_epik_Ionization_Penalty_Neutral>  (1) 
4.349388959280561e-08

>  <r_epik_State_Penalty>  (1) 
-0

>  <r_glide_ring_energy>  (1) 
0

>  <r_i_docking_score>  (1) 
-3.6609150667468948

>  <r_i_glide_ecoul>  (1) 
-0.79975175911694052

>  <r_i_glide_eff_state_penalty>  (1) 
-0

>  <r_i_glide_einternal>  (1) 
11.648355542499843

>  <r_i_glide_emodel>  (1) 
-24.19716192513367

>  <r_i_glide_emodel_strain>  (1) 
1.4439326293268451

>  <r_i_glide_energy>  (1) 
-27.16223630807594

>  <r_i_glide_erotb>  (1) 
0.81156586864238245

>  <r_i_glide_esite>  (1) 
0

>  <r_i_glide_evdw>  (1) 
-26.362484548958999

>  <r_i_glide_gscore>  (1) 
-3.6609150667468948

>  <r_i_glide_gscore_strain>  (1) 
0

>  <r_i_glide_hbond>  (1) 
0

>  <r_i_glide_ligand_efficiency>  (1) 
-0.10767397255137925

>  <r_i_glide_ligand_efficiency_ln>  (1) 
-0.80879882343383214

>  <r_i_glide_ligand_efficiency_sa>  (1) 
-0.34882187216787608

>  <r_i_glide_lipo>  (1) 
-2.4594657303744021

>  <r_i_glide_metal>  (1) 
-0

>  <r_i_glide_rewards>  (1) 
-0.57492821369938407

>  <r_lp_Energy>  (1) 
34.150776999999998

>  <r_lp_tautomer_probability>  (1) 
1

>  <s_epik_cmdline>  (1) 
J2VwaWtfcHl0aG9uJywgJy1waHQnLCAnMS4wJywgJy1waCcsICc3LjQnLCAnLXRuJywgJzgnLCAnLW1hJywgJzUwMCcsICctaW1hZScsICc8aW5maWxlLm1hZT4nLCAnLW9tYWUnLCAnPG91dGZpbGUubWFlPic=

>  <s_epik_input>  (1) 
Tz1bQ0hdW05IXVtDSDJdW0NIMl1bQ0gyXUMoPU8pW05IXVtDSDJdW0NAQEhdKFtDQEhdKFtDSDNdKU9bQ0gyXTEpW0NIMl1bQ0gyXVtDSDJdW0NIMl1bQ0gyXVtDQEhdKFtDSDJdW0NAQEhdMVtDSDNdKVtDSDJdYzJbY0hdW2NIXVtjSF1jKFtjSF0yKUMoPU8pW09IXQ==

>  <s_glide_docking_method>  (1) 
confgen

>  <s_i_glide_gridfile>  (1) 
gpcr_5ht2c_6bqh_protein_autoprepared_prepared

>  <s_lp_Force_Field>  (1) 
S-OPLS

>  <s_lp_Variant>  (1) 
DiffSBDD_15-2

>  <s_m_source_file>  (1) 
generated_GPCR_5HT2C_ligand_DiffSBDD_2026-06-23_prepared.sdf

>  <GenAI_Model>  (1) 
DiffSBDD

>  <Protein>  (1) 
GPCR_5HT2C

$$$$
DiffSBDD_14
     RDKit          3D

  0  0  0  0  0  0  0  0  0  0999 V3000
M  V30 BEGIN CTAB
M  V30 COUNTS 49 48 0 0 1
M  V30 BEGIN ATOM
M  V30 1 C 40.092015 26.984109 57.945415 0
M  V30 2 C 39.160368 29.780093 52.840155 0
M  V30 3 C 39.165111 27.948168 58.675194 0
M  V30 4 C 38.103058 27.546301 53.354981 0
M  V30 5 O 39.032456 33.142942 61.767372 0 CHG=-1
M  V30 6 N 39.645101 30.103990 62.567846 0 CHG=1
M  V30 7 C 40.147540 26.824435 56.606192 0
M  V30 8 C 39.468044 30.853633 61.316165 0 CFG=2
M  V30 9 C 40.155304 30.705295 52.149997 0
M  V30 10 C 37.784850 25.625084 54.978386 0
M  V30 11 C 38.766014 26.689247 54.453413 0 CFG=2
M  V30 12 C 38.519780 32.011546 61.640359 0
M  V30 13 C 40.942193 30.113836 50.967756 0
M  V30 14 O 37.304628 31.737677 61.767758 0
M  V30 15 C 38.908459 29.945923 60.196893 0
M  V30 16 O 40.551020 28.222208 60.628490 0
M  V30 17 C 40.074125 29.832587 49.738627 0
M  V30 18 C 39.098292 28.448775 52.655409 0
M  V30 19 C 39.294726 27.582520 55.598498 0
M  V30 20 C 39.905734 28.938372 59.592169 0 CFG=1
M  V30 21 H 40.744531 26.393312 58.567760 0
M  V30 22 H 38.468866 30.250568 53.523625 0
M  V30 23 H 38.471105 27.347979 59.265390 0
M  V30 24 H 38.542955 28.528356 58.002870 0
M  V30 25 H 37.646722 26.915502 52.592172 0
M  V30 26 H 37.295163 28.143256 53.781511 0
M  V30 27 H 40.080076 30.700607 63.255577 0
M  V30 28 H 38.740163 29.805671 62.905744 0
M  V30 29 H 40.845134 26.111159 56.193574 0
M  V30 30 H 40.435719 31.252284 61.006200 0
M  V30 31 H 39.645066 31.603922 51.809393 0
M  V30 32 H 40.844892 31.049151 52.919493 0
M  V30 33 H 36.927980 26.084456 55.472263 0
M  V30 34 H 37.404017 25.003578 54.167921 0
M  V30 35 H 38.264519 24.958693 55.695953 0
M  V30 36 H 39.611474 26.165319 54.003960 0
M  V30 37 H 41.715005 30.825816 50.676072 0
M  V30 38 H 41.472711 29.215696 51.280501 0
M  V30 39 H 38.528118 30.572007 59.387715 0
M  V30 40 H 38.044998 29.401836 60.567515 0
M  V30 41 H 41.226081 27.681128 60.242199 0
M  V30 42 H 40.668012 29.394065 48.938371 0
M  V30 43 H 39.257075 29.144761 49.955535 0
M  V30 44 H 39.643853 30.761535 49.367148 0
M  V30 45 H 39.785692 27.966674 51.978218 0
M  V30 46 H 38.443087 28.091559 56.037361 0
M  V30 47 H 39.938167 28.367023 55.201882 0
M  V30 48 H 40.664087 29.474254 59.020888 0
M  V30 49 H 40.215394 29.289327 62.382370 0
M  V30 END ATOM
M  V30 BEGIN BOND
M  V30 1 1 3 1
M  V30 2 2 7 1
M  V30 3 1 8 6
M  V30 4 1 9 2
M  V30 5 1 11 4
M  V30 6 1 11 10
M  V30 7 1 12 5
M  V30 8 1 12 8
M  V30 9 1 13 9
M  V30 10 2 14 12
M  V30 11 1 15 8
M  V30 12 1 17 13
M  V30 13 2 18 2
M  V30 14 1 18 4
M  V30 15 1 19 7
M  V30 16 1 19 11
M  V30 17 1 20 3
M  V30 18 1 20 15
M  V30 19 1 20 16
M  V30 20 1 21 1
M  V30 21 1 22 2
M  V30 22 1 23 3
M  V30 23 1 24 3
M  V30 24 1 25 4
M  V30 25 1 26 4
M  V30 26 1 27 6
M  V30 27 1 28 6
M  V30 28 1 29 7
M  V30 29 1 8 30 CFG=3
M  V30 30 1 31 9
M  V30 31 1 32 9
M  V30 32 1 33 10
M  V30 33 1 34 10
M  V30 34 1 35 10
M  V30 35 1 11 36 CFG=3
M  V30 36 1 37 13
M  V30 37 1 38 13
M  V30 38 1 39 15
M  V30 39 1 40 15
M  V30 40 1 41 16
M  V30 41 1 42 17
M  V30 42 1 43 17
M  V30 43 1 44 17
M  V30 44 1 45 18
M  V30 45 1 46 19
M  V30 46 1 47 19
M  V30 47 1 20 48 CFG=3
M  V30 48 1 49 6
M  V30 END BOND
M  V30 END CTAB
M  END
>  <i_epik_Tot_Q>  (1) 
0

>  <i_epik_Tot_abs_Q>  (1) 
2

>  <i_i_glide_confnum>  (1) 
338

>  <i_i_glide_lignum>  (1) 
23

>  <i_i_glide_posenum>  (1) 
134

>  <i_i_glide_rotatable_bonds>  (1) 
12

>  <i_lp_mmshare_version>  (1) 
72125

>  <i_m_source_file_index>  (1) 
15

>  <i_f3d_flags>  (1) 
0

>  <num_sample>  (1) 
100

>  <b_lp_Chiralities_Consistent>  (1) 
1

>  <r_epik_Charging_Adjusted_Penalty>  (1) 
0.00991281995240933

>  <r_epik_Ionization_Penalty>  (1) 
0.0049587358016132182

>  <r_epik_Ionization_Penalty_Charging>  (1) 
0.0049586922537287062

>  <r_epik_Ionization_Penalty_Neutral>  (1) 
4.3547884512074136e-08

>  <r_epik_State_Penalty>  (1) 
0.0049541276986806238

>  <r_glide_ring_energy>  (1) 
0

>  <r_i_docking_score>  (1) 
-3.6596281169938978

>  <r_i_glide_ecoul>  (1) 
-4.3053080343360808

>  <r_i_glide_eff_state_penalty>  (1) 
0.0049541276986806238

>  <r_i_glide_einternal>  (1) 
10.560503715384145

>  <r_i_glide_emodel>  (1) 
-37.508663928843653

>  <r_i_glide_emodel_strain>  (1) 
0.15277438113713693

>  <r_i_glide_energy>  (1) 
-32.41896825757938

>  <r_i_glide_erotb>  (1) 
4.0583376510001772

>  <r_i_glide_esite>  (1) 
-0.026478560940582957

>  <r_i_glide_evdw>  (1) 
-28.113660223243297

>  <r_i_glide_gscore>  (1) 
-3.6645822446925784

>  <r_i_glide_gscore_strain>  (1) 
0

>  <r_i_glide_hbond>  (1) 
-0.16

>  <r_i_glide_ligand_efficiency>  (1) 
-0.18298140584969488

>  <r_i_glide_ligand_efficiency_ln>  (1) 
-0.91588421507000861

>  <r_i_glide_ligand_efficiency_sa>  (1) 
-0.49668795154771411

>  <r_i_glide_lipo>  (1) 
-3.2933379168564136

>  <r_i_glide_metal>  (1) 
-0

>  <r_i_glide_rewards>  (1) 
-2.1916242015831817

>  <r_lp_Energy>  (1) 
-4.478593

>  <s_epik_cmdline>  (1) 
J2VwaWtfcHl0aG9uJywgJy1waHQnLCAnMS4wJywgJy1waCcsICc3LjQnLCAnLXRuJywgJzgnLCAnLW1hJywgJzUwMCcsICctaW1hZScsICc8aW5maWxlLm1hZT4nLCAnLW9tYWUnLCAnPG91dGZpbGUubWFlPic=

>  <s_epik_input>  (1) 
W09IXUMoPU8pW0NAQEhdKFtOSDJdKVtDSDJdW0NAQEhdKFtPSF0pW0NIMl0vW0NIXT1bQ0hdXFtDSDJdW0NAQEhdKFtDSDNdKVtDSDJdXFtDSF09W0NIXVxbQ0gyXVtDSDJdW0NIM10=

>  <s_glide_docking_method>  (1) 
confgen

>  <s_i_glide_gridfile>  (1) 
gpcr_5ht2c_6bqh_protein_autoprepared_prepared

>  <s_lp_Force_Field>  (1) 
S-OPLS

>  <s_lp_Variant>  (1) 
DiffSBDD_14-1

>  <s_m_source_file>  (1) 
generated_GPCR_5HT2C_ligand_DiffSBDD_2026-06-23_prepared.sdf

>  <GenAI_Model>  (1) 
DiffSBDD

>  <Protein>  (1) 
GPCR_5HT2C

$$$$
DiffSBDD_76
     RDKit          3D

  0  0  0  0  0  0  0  0  0  0999 V3000
M  V30 BEGIN CTAB
M  V30 COUNTS 22 21 0 0 1
M  V30 BEGIN ATOM
M  V30 1 C 39.332816 25.588675 55.959074 0
M  V30 2 C 39.536303 26.055396 54.522670 0
M  V30 3 C 40.158840 30.586263 50.751505 0
M  V30 4 S 37.645128 25.737709 56.616596 0
M  V30 5 C 39.873291 29.092910 50.947552 0
M  V30 6 C 39.100451 28.764873 52.237227 0
M  V30 7 C 38.889543 27.251064 52.392651 0
M  V30 8 C 38.661805 26.809082 53.826044 0
M  V30 9 H 40.015883 26.141055 56.604846 0
M  V30 10 H 39.622217 24.539399 56.022145 0
M  V30 11 H 40.457004 25.745310 54.049950 0
M  V30 12 H 40.810011 30.744859 49.891328 0
M  V30 13 H 39.245138 31.148491 50.567738 0
M  V30 14 H 40.653753 31.016701 51.622660 0
M  V30 15 H 37.081234 24.896952 55.744478 0
M  V30 16 H 40.826371 28.564015 50.967752 0
M  V30 17 H 39.327315 28.712474 50.083007 0
M  V30 18 H 38.134537 29.269958 52.243080 0
M  V30 19 H 39.645138 29.154690 53.096340 0
M  V30 20 H 39.753087 26.711347 52.008492 0
M  V30 21 H 38.045152 26.937759 51.779961 0
M  V30 22 H 37.739785 27.130332 54.286379 0
M  V30 END ATOM
M  V30 BEGIN BOND
M  V30 1 1 2 1
M  V30 2 1 4 1
M  V30 3 1 5 3
M  V30 4 1 6 5
M  V30 5 1 7 6
M  V30 6 2 8 2
M  V30 7 1 8 7
M  V30 8 1 9 1
M  V30 9 1 10 1
M  V30 10 1 11 2
M  V30 11 1 12 3
M  V30 12 1 13 3
M  V30 13 1 14 3
M  V30 14 1 15 4
M  V30 15 1 16 5
M  V30 16 1 17 5
M  V30 17 1 18 6
M  V30 18 1 19 6
M  V30 19 1 20 7
M  V30 20 1 21 7
M  V30 21 1 22 8
M  V30 END BOND
M  V30 END CTAB
M  END
>  <i_epik_Tot_Q>  (1) 
0

>  <i_epik_Tot_abs_Q>  (1) 
0

>  <i_i_glide_confnum>  (1) 
19

>  <i_i_glide_lignum>  (1) 
176

>  <i_i_glide_posenum>  (1) 
123

>  <i_i_glide_rotatable_bonds>  (1) 
5

>  <i_lp_mmshare_version>  (1) 
72125

>  <i_m_source_file_index>  (1) 
77

>  <i_f3d_flags>  (1) 
0

>  <num_sample>  (1) 
100

>  <b_lp_Chiralities_Consistent>  (1) 
1

>  <r_epik_Charging_Adjusted_Penalty>  (1) 
0.0051523938583426443

>  <r_epik_Ionization_Penalty>  (1) 
0.0051523938583426451

>  <r_epik_Ionization_Penalty_Charging>  (1) 
0

>  <r_epik_Ionization_Penalty_Neutral>  (1) 
0.0051523938583426451

>  <r_epik_State_Penalty>  (1) 
0.0051523938583426443

>  <r_glide_ring_energy>  (1) 
0

>  <r_i_docking_score>  (1) 
-3.6486688193620078

>  <r_i_glide_ecoul>  (1) 
-0.1760166029639062

>  <r_i_glide_eff_state_penalty>  (1) 
0.0051523938583426443

>  <r_i_glide_einternal>  (1) 
3.3769243871540908

>  <r_i_glide_emodel>  (1) 
-22.512255428368285

>  <r_i_glide_emodel_strain>  (1) 
0.34418225365591026

>  <r_i_glide_energy>  (1) 
-19.58331704005041

>  <r_i_glide_erotb>  (1) 
2.4507048939468694

>  <r_i_glide_esite>  (1) 
0

>  <r_i_glide_evdw>  (1) 
-19.407300437086505

>  <r_i_glide_gscore>  (1) 
-3.6538212132203505

>  <r_i_glide_gscore_strain>  (1) 
0

>  <r_i_glide_hbond>  (1) 
0

>  <r_i_glide_ligand_efficiency>  (1) 
-0.45608360242025098

>  <r_i_glide_ligand_efficiency_ln>  (1) 
-1.1848475673195142

>  <r_i_glide_ligand_efficiency_sa>  (1) 
-0.91216720484050207

>  <r_i_glide_lipo>  (1) 
-2.2099853363466582

>  <r_i_glide_metal>  (1) 
-0

>  <r_i_glide_rewards>  (1) 
-2.8977732585216502

>  <r_lp_Energy>  (1) 
-1.908774

>  <s_epik_cmdline>  (1) 
J2VwaWtfcHl0aG9uJywgJy1waHQnLCAnMS4wJywgJy1waCcsICc3LjQnLCAnLXRuJywgJzgnLCAnLW1hJywgJzUwMCcsICctaW1hZScsICc8aW5maWxlLm1hZT4nLCAnLW9tYWUnLCAnPG91dGZpbGUubWFlPic=

>  <s_epik_input>  (1) 
W1NIXVtDSDJdL1tDSF09W0NIXS9bQ0gyXVtDSDJdW0NIMl1bQ0gzXQ==

>  <s_glide_docking_method>  (1) 
confgen

>  <s_i_glide_gridfile>  (1) 
gpcr_5ht2c_6bqh_protein_autoprepared_prepared

>  <s_lp_Force_Field>  (1) 
S-OPLS

>  <s_lp_Variant>  (1) 
DiffSBDD_76-1

>  <s_m_source_file>  (1) 
generated_GPCR_5HT2C_ligand_DiffSBDD_2026-06-23_prepared.sdf

>  <GenAI_Model>  (1) 
DiffSBDD

>  <Protein>  (1) 
GPCR_5HT2C

$$$$
DiffSBDD_76
     RDKit          3D

  0  0  0  0  0  0  0  0  0  0999 V3000
M  V30 BEGIN CTAB
M  V30 COUNTS 22 21 0 0 1
M  V30 BEGIN ATOM
M  V30 1 C 39.752560 26.519480 54.742354 0
M  V30 2 C 39.064605 27.871273 54.636029 0
M  V30 3 C 40.910195 30.289051 50.005419 0
M  V30 4 S 38.744259 25.337855 55.674113 0
M  V30 5 C 39.819553 29.837305 50.979641 0
M  V30 6 C 39.898879 28.334959 51.271935 0
M  V30 7 C 38.733897 27.785174 52.111548 0
M  V30 8 C 38.623739 28.426325 53.487448 0
M  V30 9 H 40.687375 26.661456 55.284760 0
M  V30 10 H 40.027499 26.091790 53.781263 0
M  V30 11 H 38.931882 28.410001 55.563284 0
M  V30 12 H 40.803875 31.344261 49.767800 0
M  V30 13 H 41.903599 30.143220 50.430066 0
M  V30 14 H 40.854922 29.737471 49.067050 0
M  V30 15 H 39.637010 24.343838 55.648755 0
M  V30 16 H 38.845167 30.073284 50.561767 0
M  V30 17 H 39.904986 30.407858 51.905149 0
M  V30 18 H 40.845139 28.137755 51.767749 0
M  V30 19 H 39.927917 27.787405 50.329082 0
M  V30 20 H 38.807292 26.702178 52.178226 0
M  V30 21 H 37.793465 27.965557 51.589365 0
M  V30 22 H 38.152849 29.398234 53.521901 0
M  V30 END ATOM
M  V30 BEGIN BOND
M  V30 1 1 2 1
M  V30 2 1 4 1
M  V30 3 1 5 3
M  V30 4 1 6 5
M  V30 5 1 7 6
M  V30 6 2 8 2
M  V30 7 1 8 7
M  V30 8 1 9 1
M  V30 9 1 10 1
M  V30 10 1 11 2
M  V30 11 1 12 3
M  V30 12 1 13 3
M  V30 13 1 14 3
M  V30 14 1 15 4
M  V30 15 1 16 5
M  V30 16 1 17 5
M  V30 17 1 18 6
M  V30 18 1 19 6
M  V30 19 1 20 7
M  V30 20 1 21 7
M  V30 21 1 22 8
M  V30 END BOND
M  V30 END CTAB
M  END
>  <i_epik_Tot_Q>  (1) 
0

>  <i_epik_Tot_abs_Q>  (1) 
0

>  <i_i_glide_confnum>  (1) 
12

>  <i_i_glide_lignum>  (1) 
177

>  <i_i_glide_posenum>  (1) 
308

>  <i_i_glide_rotatable_bonds>  (1) 
5

>  <i_lp_mmshare_version>  (1) 
72125

>  <i_m_source_file_index>  (1) 
77

>  <i_f3d_flags>  (1) 
0

>  <num_sample>  (1) 
100

>  <b_lp_Chiralities_Consistent>  (1) 
1

>  <r_epik_Charging_Adjusted_Penalty>  (1) 
0.0051523938583426443

>  <r_epik_Ionization_Penalty>  (1) 
0.0051523938583426451

>  <r_epik_Ionization_Penalty_Charging>  (1) 
0

>  <r_epik_Ionization_Penalty_Neutral>  (1) 
0.0051523938583426451

>  <r_epik_State_Penalty>  (1) 
0.0051523938583426443

>  <r_glide_ring_energy>  (1) 
0

>  <r_i_docking_score>  (1) 
-3.6478565836164236

>  <r_i_glide_ecoul>  (1) 
-0.032897248690144404

>  <r_i_glide_eff_state_penalty>  (1) 
0.0051523938583426443

>  <r_i_glide_einternal>  (1) 
2.2510404186702879

>  <r_i_glide_emodel>  (1) 
-22.62460760146098

>  <r_i_glide_emodel_strain>  (1) 
0.0017918500993312492

>  <r_i_glide_energy>  (1) 
-19.169520742676948

>  <r_i_glide_erotb>  (1) 
2.4507048939468694

>  <r_i_glide_esite>  (1) 
0

>  <r_i_glide_evdw>  (1) 
-19.136623493986804

>  <r_i_glide_gscore>  (1) 
-3.6530089774747663

>  <r_i_glide_gscore_strain>  (1) 
0

>  <r_i_glide_hbond>  (1) 
0

>  <r_i_glide_ligand_efficiency>  (1) 
-0.45598207295205295

>  <r_i_glide_ligand_efficiency_ln>  (1) 
-1.1845838065906318

>  <r_i_glide_ligand_efficiency_sa>  (1) 
-0.91196414590410602

>  <r_i_glide_lipo>  (1) 
-2.0908276309735587

>  <r_i_glide_metal>  (1) 
-0

>  <r_i_glide_rewards>  (1) 
-3.0511204784452142

>  <r_lp_Energy>  (1) 
-0.67296199999999995

>  <s_epik_cmdline>  (1) 
J2VwaWtfcHl0aG9uJywgJy1waHQnLCAnMS4wJywgJy1waCcsICc3LjQnLCAnLXRuJywgJzgnLCAnLW1hJywgJzUwMCcsICctaW1hZScsICc8aW5maWxlLm1hZT4nLCAnLW9tYWUnLCAnPG91dGZpbGUubWFlPic=

>  <s_epik_input>  (1) 
W1NIXVtDSDJdL1tDSF09W0NIXVxbQ0gyXVtDSDJdW0NIMl1bQ0gzXQ==

>  <s_glide_docking_method>  (1) 
confgen

>  <s_i_glide_gridfile>  (1) 
gpcr_5ht2c_6bqh_protein_autoprepared_prepared

>  <s_lp_Force_Field>  (1) 
S-OPLS

>  <s_lp_Variant>  (1) 
DiffSBDD_76-2

>  <s_m_source_file>  (1) 
generated_GPCR_5HT2C_ligand_DiffSBDD_2026-06-23_prepared.sdf

>  <GenAI_Model>  (1) 
DiffSBDD

>  <Protein>  (1) 
GPCR_5HT2C

$$$$
DiffSBDD_93
     RDKit          3D

  0  0  0  0  0  0  0  0  0  0999 V3000
M  V30 BEGIN CTAB
M  V30 COUNTS 84 85 0 0 1
M  V30 BEGIN ATOM
M  V30 1 C 38.574687 32.387806 56.880047 0
M  V30 2 O 38.045031 32.843051 55.654976 0
M  V30 3 C 39.925475 31.179040 52.041793 0
M  V30 4 C 37.739824 35.975020 60.856549 0
M  V30 5 O 37.069605 29.739348 58.886069 0
M  V30 6 C 41.047160 36.044833 62.404938 0
M  V30 7 N 41.850050 36.376101 63.367655 0
M  V30 8 O 40.410215 36.870540 61.767543 0
M  V30 9 O 41.080100 27.503667 57.312820 0
M  V30 10 C 37.497376 35.845211 59.367607 0
M  V30 11 C 39.284194 30.757896 53.378919 0
M  V30 12 C 37.663034 31.937816 59.589450 0
M  V30 13 C 37.939318 30.041397 56.271043 0
M  V30 14 C 39.603555 34.137865 61.386211 0 CFG=1
M  V30 15 C 40.949781 34.557414 62.099122 0 CFG=2
M  V30 16 C 39.746641 28.746372 52.168392 0 CFG=1
M  V30 17 C 39.105281 28.500837 54.679690 0 CFG=1
M  V30 18 C 39.645511 27.040106 54.637643 0
M  V30 19 C 39.149223 32.060946 59.939336 0
M  V30 20 S 39.590489 28.267863 57.582307 0 CHG=1
M  V30 21 O 39.056680 30.516870 62.469655 0
M  V30 22 N 38.042213 31.069258 57.303770 0
M  V30 23 O 38.453441 27.011171 57.572229 0
M  V30 24 O 40.045232 29.896976 49.932845 0
M  V30 25 F 37.645331 27.607863 52.505926 0
M  V30 26 C 36.332222 35.872165 60.284510 0
M  V30 27 C 38.768940 31.900028 62.460705 0
M  V30 28 C 39.509916 32.590560 61.307664 0 CFG=2
M  V30 29 C 37.559956 30.824939 58.560819 0
M  V30 30 C 41.733743 33.621398 63.144078 0
M  V30 31 C 38.866739 26.937783 50.681160 0
M  V30 32 C 39.239203 29.247160 56.055534 0 CFG=2
M  V30 33 O 41.241083 34.474170 65.309663 0
M  V30 34 C 38.264419 34.856471 61.769096 0
M  V30 35 C 38.469916 28.098308 51.591907 0 CFG=2
M  V30 36 C 41.234936 33.457918 64.585558 0
M  V30 37 C 40.320604 29.892405 51.319463 0 CFG=1
M  V30 38 O 40.882407 32.312094 64.938487 0 CHG=-1
M  V30 39 N 39.645156 29.337950 53.536655 0 CFG=2 CHG=1
M  V30 40 H 38.368001 33.213128 57.553322 0
M  V30 41 H 39.655476 32.324448 56.793518 0
M  V30 42 H 37.095979 32.938711 55.743189 0
M  V30 43 H 39.263066 31.826916 51.470817 0
M  V30 44 H 40.841212 31.736956 52.198373 0
M  V30 45 H 38.010095 36.971833 61.200584 0
M  V30 46 H 42.319444 35.654270 63.896793 0
M  V30 47 H 41.944099 37.352210 63.647067 0
M  V30 48 H 40.908467 26.738938 56.782464 0
M  V30 49 H 37.638001 36.736517 58.758182 0
M  V30 50 H 37.645022 34.904421 58.850751 0
M  V30 51 H 38.199599 30.859522 53.367863 0
M  V30 52 H 39.666404 31.363981 54.200375 0
M  V30 53 H 37.181444 32.859373 59.277915 0
M  V30 54 H 37.079848 31.600459 60.444016 0
M  V30 55 H 37.569555 30.491674 55.358486 0
M  V30 56 H 37.136964 29.342019 56.509175 0
M  V30 57 H 39.765186 34.476076 60.363071 0
M  V30 58 H 41.658767 34.516068 61.276591 0
M  V30 59 H 40.500908 27.968020 52.167698 0
M  V30 60 H 38.033102 28.400527 54.534101 0
M  V30 61 H 39.086857 26.393498 55.308234 0
M  V30 62 H 39.518322 26.567947 53.664679 0
M  V30 63 H 40.700162 26.937851 54.884885 0
M  V30 64 H 39.624232 31.080187 59.858984 0
M  V30 65 H 39.644946 32.684186 59.208455 0
M  V30 66 H 38.922740 30.178950 63.345929 0
M  V30 67 H 37.906265 27.156443 58.330222 0
M  V30 68 H 39.125899 30.073776 49.771839 0
M  V30 69 H 35.794240 34.938366 60.431794 0
M  V30 70 H 35.699562 36.756341 60.167147 0
M  V30 71 H 39.119720 32.354803 63.367544 0
M  V30 72 H 37.690210 32.057818 62.462537 0
M  V30 73 H 40.530144 32.225862 61.363883 0
M  V30 74 H 41.964198 32.642197 62.733240 0
M  V30 75 H 42.728500 34.013195 63.360151 0
M  V30 76 H 39.280612 27.332578 49.767863 0
M  V30 77 H 39.607510 26.286911 51.147673 0
M  V30 78 H 38.045076 26.296660 50.400081 0
M  V30 79 H 40.068944 29.951834 55.991389 0
M  V30 80 H 37.460952 34.127976 61.847149 0
M  V30 81 H 38.396532 35.336716 62.742187 0
M  V30 82 H 37.889872 28.828306 51.046993 0
M  V30 83 H 41.401747 29.799020 51.368971 0
M  V30 84 H 40.623438 29.426800 53.777877 0
M  V30 END ATOM
M  V30 BEGIN BOND
M  V30 1 1 2 1
M  V30 2 1 7 6
M  V30 3 2 8 6
M  V30 4 1 10 4
M  V30 5 1 11 3
M  V30 6 1 15 6
M  V30 7 1 15 14
M  V30 8 1 18 17
M  V30 9 1 19 12
M  V30 10 1 20 9
M  V30 11 1 22 1
M  V30 12 1 22 13
M  V30 13 1 23 20
M  V30 14 1 26 4
M  V30 15 1 26 10
M  V30 16 1 27 21
M  V30 17 1 28 14
M  V30 18 1 28 19
M  V30 19 1 28 27
M  V30 20 2 29 5
M  V30 21 1 29 12
M  V30 22 1 29 22
M  V30 23 1 30 15
M  V30 24 1 32 13
M  V30 25 1 32 17
M  V30 26 1 32 20
M  V30 27 1 34 4
M  V30 28 1 34 14
M  V30 29 1 35 16
M  V30 30 1 35 25
M  V30 31 1 35 31
M  V30 32 1 36 30
M  V30 33 2 36 33
M  V30 34 1 37 3
M  V30 35 1 37 16
M  V30 36 1 37 24
M  V30 37 1 38 36
M  V30 38 1 39 11
M  V30 39 1 39 16
M  V30 40 1 39 17
M  V30 41 1 40 1
M  V30 42 1 41 1
M  V30 43 1 42 2
M  V30 44 1 43 3
M  V30 45 1 44 3
M  V30 46 1 45 4
M  V30 47 1 46 7
M  V30 48 1 47 7
M  V30 49 1 48 9
M  V30 50 1 49 10
M  V30 51 1 50 10
M  V30 52 1 51 11
M  V30 53 1 52 11
M  V30 54 1 53 12
M  V30 55 1 54 12
M  V30 56 1 55 13
M  V30 57 1 56 13
M  V30 58 1 14 57 CFG=3
M  V30 59 1 15 58 CFG=3
M  V30 60 1 16 59 CFG=1
M  V30 61 1 17 60 CFG=3
M  V30 62 1 61 18
M  V30 63 1 62 18
M  V30 64 1 63 18
M  V30 65 1 64 19
M  V30 66 1 65 19
M  V30 67 1 66 21
M  V30 68 1 67 23
M  V30 69 1 68 24
M  V30 70 1 69 26
M  V30 71 1 70 26
M  V30 72 1 71 27
M  V30 73 1 72 27
M  V30 74 1 28 73 CFG=1
M  V30 75 1 74 30
M  V30 76 1 75 30
M  V30 77 1 76 31
M  V30 78 1 77 31
M  V30 79 1 78 31
M  V30 80 1 32 79 CFG=3
M  V30 81 1 80 34
M  V30 82 1 81 34
M  V30 83 1 35 82 CFG=3
M  V30 84 1 37 83 CFG=3
M  V30 85 1 39 84 CFG=1
M  V30 END BOND
M  V30 END CTAB
M  END
>  <i_epik_Tot_Q>  (1) 
1

>  <i_epik_Tot_abs_Q>  (1) 
3

>  <i_i_glide_confnum>  (1) 
3260

>  <i_i_glide_lignum>  (1) 
217

>  <i_i_glide_posenum>  (1) 
7

>  <i_i_glide_rotatable_bonds>  (1) 
24

>  <i_lp_mmshare_version>  (1) 
72125

>  <i_m_source_file_index>  (1) 
94

>  <i_f3d_flags>  (1) 
0

>  <num_sample>  (1) 
100

>  <b_lp_Chiralities_Consistent>  (1) 
1

>  <r_epik_Charging_Adjusted_Penalty>  (1) 
0.90916677635763199

>  <r_epik_Ionization_Penalty>  (1) 
0.45507897092921873

>  <r_epik_Ionization_Penalty_Charging>  (1) 
0.45507471778648678

>  <r_epik_Ionization_Penalty_Neutral>  (1) 
4.2531427319391784e-06

>  <r_epik_State_Penalty>  (1) 
0.45409205857114521

>  <r_glide_ring_energy>  (1) 
0

>  <r_i_docking_score>  (1) 
-3.6357202942797251

>  <r_i_glide_ecoul>  (1) 
-9.4915012157537486

>  <r_i_glide_eff_state_penalty>  (1) 
0.45409205857114521

>  <r_i_glide_einternal>  (1) 
33.286761135311977

>  <r_i_glide_emodel>  (1) 
-13.854324406079449

>  <r_i_glide_emodel_strain>  (1) 
19.951916047650741

>  <r_i_glide_energy>  (1) 
-35.382652573383588

>  <r_i_glide_erotb>  (1) 
0.82188833391367333

>  <r_i_glide_esite>  (1) 
-0.26977349700029951

>  <r_i_glide_evdw>  (1) 
-25.891151357629841

>  <r_i_glide_gscore>  (1) 
-4.0898123528508705

>  <r_i_glide_gscore_strain>  (1) 
3.9879790119126852

>  <r_i_glide_hbond>  (1) 
-0.81054507223303518

>  <r_i_glide_ligand_efficiency>  (1) 
-0.09322359728922372

>  <r_i_glide_ligand_efficiency_ln>  (1) 
-0.77960163715152331

>  <r_i_glide_ligand_efficiency_sa>  (1) 
-0.31614092988615999

>  <r_i_glide_lipo>  (1) 
-3.4499349668604942

>  <r_i_glide_metal>  (1) 
-0

>  <r_i_glide_rewards>  (1) 
-1.6511434123388464

>  <r_lp_Energy>  (1) 
20.226026999999998

>  <s_epik_Chemistry_Notes>  (1) 
This compound contains an acetal/aminal-like group ( X-CH(R)-Y where X, Y are N, S, or O) that may be acid/base labile, releasing an aldehyde.

>  <s_epik_cmdline>  (1) 
J2VwaWtfcHl0aG9uJywgJy1waHQnLCAnMS4wJywgJy1waCcsICc3LjQnLCAnLXRuJywgJzgnLCAnLW1hJywgJzUwMCcsICctaW1hZScsICc8aW5maWxlLm1hZT4nLCAnLW9tYWUnLCAnPG91dGZpbGUubWFlPic=

>  <s_epik_input>  (1) 
W0NIMl0xW0NIMl1bQ0hdMVtDSDJdW0NAQEhdKFtDQEBIXShDKD1PKVtOSDJdKVtDSDJdQyg9TylbT0hdKVtDQEBIXShbQ0gyXVtPSF0pW0NIMl1bQ0gyXUMoPU8pTihbQ0gyXVtPSF0pW0NIMl1bQ0BASF0oW1MrXShbT0hdKVtPSF0pW0NASF0oW0NIM10pTjJbQ0gyXVtDSDJdW0NASF0oW09IXSlbQ0BASF0yW0NASF0oRilbQ0gzXQ==

>  <s_glide_docking_method>  (1) 
confgen

>  <s_i_glide_gridfile>  (1) 
gpcr_5ht2c_6bqh_protein_autoprepared_prepared

>  <s_lp_Force_Field>  (1) 
S-OPLS

>  <s_lp_Variant>  (1) 
DiffSBDD_93-5

>  <s_m_source_file>  (1) 
generated_GPCR_5HT2C_ligand_DiffSBDD_2026-06-23_prepared.sdf

>  <GenAI_Model>  (1) 
DiffSBDD

>  <Protein>  (1) 
GPCR_5HT2C

$$$$
DiffSBDD_86
     RDKit          3D

  0  0  0  0  0  0  0  0  0  0999 V3000
M  V30 BEGIN CTAB
M  V30 COUNTS 77 79 0 0 1
M  V30 BEGIN ATOM
M  V30 1 C 39.896228 36.366965 64.538012 0
M  V30 2 C 39.190576 31.143694 53.397544 0
M  V30 3 C 37.777044 32.868120 61.635948 0 CFG=2
M  V30 4 C 40.536139 31.005277 54.089585 0
M  V30 5 N 37.476550 34.116165 60.860754 0
M  V30 6 C 39.145149 27.249375 55.959342 0
M  V30 7 N 38.886176 36.937762 63.770537 0
M  V30 8 C 37.386318 29.685453 59.293269 0
M  V30 9 O 35.037428 32.538078 61.195893 0
M  V30 10 O 40.656390 28.577164 60.132276 0
M  V30 11 C 39.048114 27.913260 58.496652 0 CFG=2
M  V30 12 C 38.115764 30.633627 60.263873 0
M  V30 13 C 37.645179 34.197132 59.522256 0
M  V30 14 N 38.203995 29.109552 58.182895 0 CFG=2 CHG=1
M  V30 15 C 40.480701 28.303377 58.925570 0
M  V30 16 C 40.048851 36.392145 65.951784 0
M  V30 17 C 42.045129 34.992611 65.795705 0
M  V30 18 O 38.189159 33.260175 58.907229 0
M  V30 19 C 36.893372 35.266431 61.592036 0
M  V30 20 C 41.931435 34.971941 64.398670 0
M  V30 21 C 39.242504 32.705319 62.065936 0
M  V30 22 S 40.483477 35.793918 62.066078 0
M  V30 23 O 41.359095 28.323313 58.038009 0 CHG=-1
M  V30 24 C 38.784098 30.149342 57.288095 0
M  V30 25 C 37.154094 31.553755 61.057061 0 CFG=2
M  V30 26 C 39.617480 25.454328 57.740332 0
M  V30 27 O 35.954260 31.808392 60.337286 0
M  V30 28 N 38.092277 30.869394 54.321002 0 CHG=1
M  V30 29 C 37.768607 36.553765 61.597373 0
M  V30 30 C 40.872904 35.650140 63.779274 0
M  V30 31 O 39.156948 37.075699 66.722824 0 CHG=-1
M  V30 32 C 37.645160 30.961079 56.677629 0
M  V30 33 C 38.929156 36.488295 62.517895 0
M  V30 34 C 38.127533 25.564658 57.641397 0
M  V30 35 C 38.985138 26.795535 57.406947 0
M  V30 36 O 37.245138 35.220230 58.933263 0 CHG=-1
M  V30 37 C 41.113326 35.707275 66.567779 0
M  V30 38 C 38.008097 31.789262 55.467216 0
M  V30 39 H 39.161805 30.430888 52.572584 0
M  V30 40 H 39.053053 32.137762 52.976396 0
M  V30 41 H 37.229446 32.941719 62.567759 0
M  V30 42 H 41.245137 31.337757 53.352496 0
M  V30 43 H 40.689084 31.648221 54.954074 0
M  V30 44 H 40.743421 29.989540 54.407611 0
M  V30 45 H 39.146348 26.387169 55.291287 0
M  V30 46 H 38.315797 27.885174 55.653314 0
M  V30 47 H 40.094005 27.761922 55.804707 0
M  V30 48 H 36.900030 28.937756 59.881766 0
M  V30 49 H 36.535501 30.170245 58.821328 0
M  V30 50 H 35.257483 33.430159 60.963492 0
M  V30 51 H 38.602832 27.459085 59.384171 0
M  V30 52 H 38.877850 31.212007 59.760778 0
M  V30 53 H 38.679603 30.036507 60.979700 0
M  V30 54 H 42.847230 34.464717 66.280802 0
M  V30 55 H 36.045143 35.547139 60.992958 0
M  V30 56 H 36.445145 35.049578 62.559098 0
M  V30 57 H 42.651129 34.431320 63.803863 0
M  V30 58 H 39.422320 31.710777 62.474610 0
M  V30 59 H 39.935193 32.864449 61.238238 0
M  V30 60 H 39.478195 33.398401 62.869184 0
M  V30 61 H 39.493458 30.796591 57.793339 0
M  V30 62 H 39.368600 29.701513 56.494473 0
M  V30 63 H 36.847915 30.939278 61.894450 0
M  V30 64 H 40.132845 24.914609 56.947891 0
M  V30 65 H 40.045179 25.340332 58.729563 0
M  V30 66 H 38.216203 29.932648 54.673925 0
M  V30 67 H 38.134355 36.810167 60.603766 0
M  V30 68 H 37.145685 37.395943 61.899485 0
M  V30 69 H 36.845143 30.276071 56.399652 0
M  V30 70 H 37.245215 31.629981 57.432867 0
M  V30 71 H 37.576295 25.480545 58.567564 0
M  V30 72 H 37.649388 25.103637 56.780030 0
M  V30 73 H 41.210827 35.727697 67.641022 0
M  V30 74 H 37.245140 32.529470 55.248835 0
M  V30 75 H 38.899087 32.376988 55.675283 0
M  V30 76 H 37.210266 30.912651 53.831106 0
M  V30 77 H 37.491423 28.686031 57.608834 0
M  V30 END ATOM
M  V30 BEGIN BOND
M  V30 1 1 4 2
M  V30 2 1 5 3
M  V30 3 1 7 1
M  V30 4 1 12 8
M  V30 5 1 13 5
M  V30 6 1 14 8
M  V30 7 1 14 11
M  V30 8 2 15 10
M  V30 9 1 15 11
M  V30 10 2 16 1
M  V30 11 2 18 13
M  V30 12 1 19 5
M  V30 13 1 20 17
M  V30 14 1 21 3
M  V30 15 1 23 15
M  V30 16 1 24 14
M  V30 17 1 25 3
M  V30 18 1 25 12
M  V30 19 1 27 9
M  V30 20 1 27 25
M  V30 21 1 28 2
M  V30 22 1 29 19
M  V30 23 1 30 1
M  V30 24 2 30 20
M  V30 25 1 30 22
M  V30 26 1 31 16
M  V30 27 1 32 24
M  V30 28 2 33 7
M  V30 29 1 33 22
M  V30 30 1 33 29
M  V30 31 1 34 26
M  V30 32 1 35 6
M  V30 33 1 35 11
M  V30 34 1 35 26
M  V30 35 1 35 34
M  V30 36 1 36 13
M  V30 37 1 37 16
M  V30 38 2 37 17
M  V30 39 1 38 28
M  V30 40 1 38 32
M  V30 41 1 39 2
M  V30 42 1 40 2
M  V30 43 1 3 41 CFG=1
M  V30 44 1 42 4
M  V30 45 1 43 4
M  V30 46 1 44 4
M  V30 47 1 45 6
M  V30 48 1 46 6
M  V30 49 1 47 6
M  V30 50 1 48 8
M  V30 51 1 49 8
M  V30 52 1 50 9
M  V30 53 1 11 51 CFG=1
M  V30 54 1 52 12
M  V30 55 1 53 12
M  V30 56 1 54 17
M  V30 57 1 55 19
M  V30 58 1 56 19
M  V30 59 1 57 20
M  V30 60 1 58 21
M  V30 61 1 59 21
M  V30 62 1 60 21
M  V30 63 1 61 24
M  V30 64 1 62 24
M  V30 65 1 25 63 CFG=1
M  V30 66 1 64 26
M  V30 67 1 65 26
M  V30 68 1 66 28
M  V30 69 1 67 29
M  V30 70 1 68 29
M  V30 71 1 69 32
M  V30 72 1 70 32
M  V30 73 1 71 34
M  V30 74 1 72 34
M  V30 75 1 73 37
M  V30 76 1 74 38
M  V30 77 1 75 38
M  V30 78 1 76 28
M  V30 79 1 14 77 CFG=3
M  V30 END BOND
M  V30 END CTAB
M  END
>  <i_epik_Tot_Q>  (1) 
-1

>  <i_epik_Tot_abs_Q>  (1) 
5

>  <i_i_glide_confnum>  (1) 
6978

>  <i_i_glide_lignum>  (1) 
206

>  <i_i_glide_posenum>  (1) 
157

>  <i_i_glide_rotatable_bonds>  (1) 
19

>  <i_lp_mmshare_version>  (1) 
72125

>  <i_m_source_file_index>  (1) 
87

>  <i_f3d_flags>  (1) 
0

>  <num_sample>  (1) 
100

>  <b_lp_Chiralities_Consistent>  (1) 
1

>  <r_epik_Charging_Adjusted_Penalty>  (1) 
1.7068457012274814

>  <r_epik_Ionization_Penalty>  (1) 
0.85572285372979207

>  <r_epik_Ionization_Penalty_Charging>  (1) 
0.8536556191236474

>  <r_epik_Ionization_Penalty_Neutral>  (1) 
0.0020672346061446629

>  <r_epik_State_Penalty>  (1) 
0.85319008210383396

>  <r_glide_ring_energy>  (1) 
0

>  <r_i_docking_score>  (1) 
-3.6350671395937861

>  <r_i_glide_ecoul>  (1) 
4.1287368892546148

>  <r_i_glide_eff_state_penalty>  (1) 
0.85319008210383396

>  <r_i_glide_einternal>  (1) 
12.145866473690022

>  <r_i_glide_emodel>  (1) 
-36.479597402176985

>  <r_i_glide_emodel_strain>  (1) 
5.2792647934178802

>  <r_i_glide_energy>  (1) 
-31.825168964771901

>  <r_i_glide_erotb>  (1) 
0.88358493265308913

>  <r_i_glide_esite>  (1) 
-0.073301783869433562

>  <r_i_glide_evdw>  (1) 
-35.953905854026516

>  <r_i_glide_gscore>  (1) 
-4.4882572216976202

>  <r_i_glide_gscore_strain>  (1) 
0.31981619835447006

>  <r_i_glide_hbond>  (1) 
0

>  <r_i_glide_ligand_efficiency>  (1) 
-0.095659661568257531

>  <r_i_glide_ligand_efficiency_ln>  (1) 
-0.78382740813773966

>  <r_i_glide_ligand_efficiency_sa>  (1) 
-0.32160542961519384

>  <r_i_glide_lipo>  (1) 
-3.4427887305603555

>  <r_i_glide_metal>  (1) 
-0

>  <r_i_glide_rewards>  (1) 
-0.99718307896225666

>  <r_lp_Energy>  (1) 
38.436468999999995

>  <s_epik_cmdline>  (1) 
J2VwaWtfcHl0aG9uJywgJy1waHQnLCAnMS4wJywgJy1waCcsICc3LjQnLCAnLXRuJywgJzgnLCAnLW1hJywgJzUwMCcsICctaW1hZScsICc8aW5maWxlLm1hZT4nLCAnLW9tYWUnLCAnPG91dGZpbGUubWFlPic=

>  <s_epik_input>  (1) 
W09IXWMxW2NIXVtjSF1bY0hdYyhjMTIpc2MobjIpW0NIMl1bQ0gyXU4oQyg9TylbT0hdKVtDQEhdKFtDSDNdKVtDQEBIXShPW09IXSlbQ0gyXVtDSDJdTihbQ0BIXShDKD1PKVtPSF0pQzMoW0NIM10pW0NIMl1bQ0gyXTMpW0NIMl1bQ0gyXVtDSDJdW05IXVtDSDJdW0NIM10=

>  <s_glide_docking_method>  (1) 
confgen

>  <s_i_glide_gridfile>  (1) 
gpcr_5ht2c_6bqh_protein_autoprepared_prepared

>  <s_lp_Force_Field>  (1) 
S-OPLS

>  <s_lp_Variant>  (1) 
DiffSBDD_86-3

>  <s_m_source_file>  (1) 
generated_GPCR_5HT2C_ligand_DiffSBDD_2026-06-23_prepared.sdf

>  <GenAI_Model>  (1) 
DiffSBDD

>  <Protein>  (1) 
GPCR_5HT2C

$$$$
DiffSBDD_57
     RDKit          3D

  0  0  0  0  0  0  0  0  0  0999 V3000
M  V30 BEGIN CTAB
M  V30 COUNTS 64 66 0 0 1
M  V30 BEGIN ATOM
M  V30 1 O 39.146223 31.288534 62.184968 0
M  V30 2 C 36.947678 33.798503 58.575952 0
M  V30 3 C 39.947248 35.430529 62.054931 0
M  V30 4 C 36.977730 32.265490 60.551812 0 CFG=2
M  V30 5 C 37.518534 30.630282 55.367879 0
M  V30 6 S 38.494639 32.874290 58.518821 0
M  V30 7 O 36.844947 29.737737 54.870702 0
M  V30 8 C 36.086145 33.179337 59.679780 0
M  V30 9 N 40.256777 28.569578 56.927291 0
M  V30 10 C 40.623956 35.227617 64.493796 0 CFG=2
M  V30 11 N 37.682760 30.799688 56.678345 0
M  V30 12 C 38.948253 32.492249 62.322482 0
M  V30 13 O 40.845413 34.373031 65.627722 0
M  V30 14 C 37.824448 33.178794 61.484262 0
M  V30 15 C 37.181064 30.274705 58.937615 0
M  V30 16 C 40.201115 29.675839 54.756229 0 CFG=2
M  V30 17 O 42.683144 35.737755 65.367786 0
M  V30 18 C 37.111089 29.993154 57.632393 0
M  V30 19 C 39.669551 28.471231 55.593983 0 CFG=1
M  V30 20 C 37.879428 31.510187 59.545594 0 CFG=2
M  V30 21 C 36.074074 31.338280 61.367796 0
M  V30 22 C 39.595587 30.970182 54.164062 0 CFG=2
M  V30 23 C 40.045430 34.600354 63.279577 0
M  V30 24 C 38.256773 31.592863 54.500608 0 CFG=2
M  V30 25 C 39.708983 29.746549 53.310086 0
M  V30 26 N 41.956797 34.725708 64.708900 0
M  V30 27 N 39.690946 36.782762 62.167468 0
M  V30 28 C 39.943888 27.072538 54.978398 0
M  V30 29 O 38.846651 26.223013 55.255450 0
M  V30 30 O 39.657349 27.511179 57.720979 0
M  V30 31 C 40.137162 34.898100 60.835295 0
M  V30 32 C 39.659843 33.276046 63.367656 0
M  V30 33 Cl 38.445572 33.153387 55.367771 0
M  V30 34 H 36.445285 33.737921 57.613690 0
M  V30 35 H 37.169970 34.847529 58.772966 0
M  V30 36 H 35.299948 32.590026 59.204267 0
M  V30 37 H 35.580461 33.947882 60.265776 0
M  V30 38 H 39.839272 29.386227 57.354370 0
M  V30 39 H 40.372640 36.265394 64.708547 0
M  V30 40 H 38.226657 31.588007 57.007533 0
M  V30 41 H 37.122361 33.637948 62.167772 0
M  V30 42 H 38.117154 34.021774 60.894340 0
M  V30 43 H 36.719114 29.595021 59.636945 0
M  V30 44 H 41.245181 29.853095 54.967745 0
M  V30 45 H 42.687598 36.448766 64.739909 0
M  V30 46 H 36.611549 29.131346 57.246300 0
M  V30 47 H 38.601311 28.500794 55.714967 0
M  V30 48 H 38.777012 31.067119 59.954344 0
M  V30 49 H 35.289022 30.891089 60.760389 0
M  V30 50 H 36.686238 30.537766 61.767720 0
M  V30 51 H 35.564599 31.867450 62.167462 0
M  V30 52 H 40.323725 31.737169 53.930668 0
M  V30 53 H 37.698085 31.804114 53.601113 0
M  V30 54 H 38.788459 29.221533 53.059798 0
M  V30 55 H 40.446590 29.761500 52.512657 0
M  V30 56 H 39.574945 37.231374 63.065090 0
M  V30 57 H 40.043782 27.102344 53.896168 0
M  V30 58 H 40.845195 26.618473 55.377134 0
M  V30 59 H 38.084235 26.549570 54.798348 0
M  V30 60 H 39.159011 27.027847 57.069672 0
M  V30 61 H 40.071198 35.509494 59.951356 0
M  V30 62 H 40.364521 33.854137 60.702964 0
M  V30 63 H 39.869080 32.743486 64.281336 0
M  V30 64 H 39.656651 37.386816 61.359791 0
M  V30 END ATOM
M  V30 BEGIN BOND
M  V30 1 1 6 2
M  V30 2 2 7 5
M  V30 3 1 8 2
M  V30 4 1 8 4
M  V30 5 1 11 5
M  V30 6 2 12 1
M  V30 7 1 13 10
M  V30 8 1 4 14 CFG=1
M  V30 9 1 14 12
M  V30 10 1 18 11
M  V30 11 2 18 15
M  V30 12 1 19 9
M  V30 13 1 19 16
M  V30 14 1 20 4
M  V30 15 1 20 6
M  V30 16 1 20 15
M  V30 17 1 21 4
M  V30 18 1 22 16
M  V30 19 1 23 3
M  V30 20 1 23 10
M  V30 21 1 24 5
M  V30 22 1 24 22
M  V30 23 1 25 16
M  V30 24 1 25 22
M  V30 25 1 26 10
M  V30 26 1 26 13
M  V30 27 1 26 17
M  V30 28 1 27 3
M  V30 29 1 28 19
M  V30 30 1 29 28
M  V30 31 1 30 9
M  V30 32 2 31 3
M  V30 33 1 32 12
M  V30 34 2 32 23
M  V30 35 1 33 24
M  V30 36 1 34 2
M  V30 37 1 35 2
M  V30 38 1 36 8
M  V30 39 1 37 8
M  V30 40 1 38 9
M  V30 41 1 10 39 CFG=1
M  V30 42 1 40 11
M  V30 43 1 41 14
M  V30 44 1 42 14
M  V30 45 1 43 15
M  V30 46 1 16 44 CFG=3
M  V30 47 1 45 17
M  V30 48 1 46 18
M  V30 49 1 19 47 CFG=1
M  V30 50 1 20 48 CFG=1
M  V30 51 1 49 21
M  V30 52 1 50 21
M  V30 53 1 51 21
M  V30 54 1 22 52 CFG=3
M  V30 55 1 24 53 CFG=3
M  V30 56 1 54 25
M  V30 57 1 55 25
M  V30 58 1 56 27
M  V30 59 1 57 28
M  V30 60 1 58 28
M  V30 61 1 59 29
M  V30 62 1 60 30
M  V30 63 1 61 31
M  V30 64 1 62 31
M  V30 65 1 63 32
M  V30 66 1 64 27
M  V30 END BOND
M  V30 END CTAB
M  END
>  <i_epik_Tot_Q>  (1) 
0

>  <i_epik_Tot_abs_Q>  (1) 
0

>  <i_i_glide_confnum>  (1) 
2219

>  <i_i_glide_lignum>  (1) 
127

>  <i_i_glide_posenum>  (1) 
12

>  <i_i_glide_rotatable_bonds>  (1) 
16

>  <i_lp_mmshare_version>  (1) 
72125

>  <i_m_source_file_index>  (1) 
58

>  <i_f3d_flags>  (1) 
0

>  <num_sample>  (1) 
100

>  <b_lp_Chiralities_Consistent>  (1) 
1

>  <r_epik_Charging_Adjusted_Penalty>  (1) 
0.024416195549470061

>  <r_epik_Ionization_Penalty>  (1) 
0.014246986074461085

>  <r_epik_Ionization_Penalty_Charging>  (1) 
6.6592516266621022e-05

>  <r_epik_Ionization_Penalty_Neutral>  (1) 
0.014180393558194464

>  <r_epik_State_Penalty>  (1) 
0.024349603033203441

>  <r_glide_ring_energy>  (1) 
0.20502008593201695

>  <r_i_docking_score>  (1) 
-3.5994635815634584

>  <r_i_glide_ecoul>  (1) 
-3.5720946536025959

>  <r_i_glide_eff_state_penalty>  (1) 
0.024349603033203441

>  <r_i_glide_einternal>  (1) 
49.272288409611704

>  <r_i_glide_emodel>  (1) 
-7.9625761636895191

>  <r_i_glide_emodel_strain>  (1) 
5.1016212299315953

>  <r_i_glide_energy>  (1) 
-27.48404815447752

>  <r_i_glide_erotb>  (1) 
1.0500022235395752

>  <r_i_glide_esite>  (1) 
-0.22617108758775997

>  <r_i_glide_evdw>  (1) 
-23.911953500874926

>  <r_i_glide_gscore>  (1) 
-3.6238131845966617

>  <r_i_glide_gscore_strain>  (1) 
0.27540530748289882

>  <r_i_glide_hbond>  (1) 
-0.21133992542322053

>  <r_i_glide_ligand_efficiency>  (1) 
-0.10907465398677146

>  <r_i_glide_ligand_efficiency_ln>  (1) 
-0.80050206351471986

>  <r_i_glide_ligand_efficiency_sa>  (1) 
-0.34986069719498564

>  <r_i_glide_lipo>  (1) 
-1.8747271316602823

>  <r_i_glide_metal>  (1) 
-0

>  <r_i_glide_rewards>  (1) 
-0.90557069786373745

>  <r_lp_Energy>  (1) 
20.021283

>  <s_epik_Chemistry_Notes>  (1) 
This compound has an imine and may undergo hydrolysis. This compound contains an acetal/aminal-like group ( X-CH(R)-Y where X, Y are N, S, or O) that may be acid/base labile, releasing an aldehyde. This compound has a N-S or N-O group and may undergo hydrolysis at high or low pH.

>  <s_epik_cmdline>  (1) 
J2VwaWtfcHl0aG9uJywgJy1waHQnLCAnMS4wJywgJy1waCcsICc3LjQnLCAnLXRuJywgJzgnLCAnLW1hJywgJzUwMCcsICctaW1hZScsICc8aW5maWxlLm1hZT4nLCAnLW9tYWUnLCAnPG91dGZpbGUubWFlPic=

>  <s_epik_input>  (1) 
W09IXU4xT1tDQEBIXTFDKC9DKD1OL1tIXSlbQ0gzXSk9W0NIXS9DKD1PKVtDSDJdW0NAQF0yKFtDSDNdKVtDSDJdW0NIMl1TW0NAQEhdMi9bQ0hdPVtDSF1cW05IXUMoPU8pW0NAQEhdKENsKVtDQEhdKFtDSDJdMylbQ0BIXTNbQ0BIXShbTkhdW09IXSlbQ0gyXVtPSF0=

>  <s_glide_docking_method>  (1) 
confgen

>  <s_i_glide_gridfile>  (1) 
gpcr_5ht2c_6bqh_protein_autoprepared_prepared

>  <s_lp_Force_Field>  (1) 
S-OPLS

>  <s_lp_Variant>  (1) 
DiffSBDD_57-3

>  <s_m_source_file>  (1) 
generated_GPCR_5HT2C_ligand_DiffSBDD_2026-06-23_prepared.sdf

>  <GenAI_Model>  (1) 
DiffSBDD

>  <Protein>  (1) 
GPCR_5HT2C

$$$$
DiffSBDD_14
     RDKit          3D

  0  0  0  0  0  0  0  0  0  0999 V3000
M  V30 BEGIN CTAB
M  V30 COUNTS 49 48 0 0 1
M  V30 BEGIN ATOM
M  V30 1 C 38.828657 30.487347 56.235878 0
M  V30 2 C 39.536941 27.355028 52.142766 0
M  V30 3 C 38.467813 31.583200 57.231360 0
M  V30 4 C 38.251773 26.314835 54.031447 0
M  V30 5 O 35.946295 34.097630 61.767749 0 CHG=-1
M  V30 6 N 36.439475 33.738842 58.567737 0 CHG=1
M  V30 7 C 38.932556 29.180921 56.544081 0
M  V30 8 C 36.725762 33.027095 59.808138 0 CFG=2
M  V30 9 C 39.672854 28.154579 50.868739 0
M  V30 10 C 37.632472 26.372168 56.471508 0
M  V30 11 C 38.051584 27.214803 55.251294 0 CFG=1
M  V30 12 C 36.826059 34.102127 60.885984 0
M  V30 13 C 40.505144 29.429822 51.058869 0
M  V30 14 O 37.772369 34.916473 60.796603 0
M  V30 15 C 38.027594 32.202826 59.716822 0
M  V30 16 O 36.845141 30.388684 58.568874 0
M  V30 17 C 40.618834 30.284310 49.790482 0
M  V30 18 C 38.374242 27.118456 52.758068 0
M  V30 19 C 39.278998 28.103840 55.544943 0
M  V30 20 C 38.070916 31.095860 58.643401 0 CFG=1
M  V30 21 H 39.005487 30.807136 55.219163 0
M  V30 22 H 40.445083 26.959491 52.567492 0
M  V30 23 H 37.655543 32.159917 56.788490 0
M  V30 24 H 39.319107 32.260108 57.293971 0
M  V30 25 H 39.139394 25.699496 54.170931 0
M  V30 26 H 37.405568 25.636159 53.913049 0
M  V30 27 H 35.645516 34.344226 58.720832 0
M  V30 28 H 37.238361 34.301604 58.314618 0
M  V30 29 H 38.758999 28.850583 57.554819 0
M  V30 30 H 35.878957 32.372624 60.024102 0
M  V30 31 H 40.166823 27.494794 50.164066 0
M  V30 32 H 38.686563 28.395282 50.468724 0
M  V30 33 H 38.433937 25.701328 56.783947 0
M  V30 34 H 37.363372 26.991327 57.327509 0
M  V30 35 H 36.761790 25.757510 56.240781 0
M  V30 36 H 37.244181 27.890576 54.981228 0
M  V30 37 H 40.076451 30.033179 51.860499 0
M  V30 38 H 41.510509 29.154233 51.367759 0
M  V30 39 H 38.175082 31.727971 60.689143 0
M  V30 40 H 38.894873 32.853128 59.586134 0
M  V30 41 H 36.262631 30.827803 57.944546 0
M  V30 42 H 41.223658 31.171144 49.978952 0
M  V30 43 H 41.085355 29.737761 48.972596 0
M  V30 44 H 39.643272 30.623878 49.446605 0
M  V30 45 H 37.458734 27.513765 52.344215 0
M  V30 46 H 39.629973 28.593370 54.637351 0
M  V30 47 H 40.112439 27.510971 55.923973 0
M  V30 48 H 38.836474 30.406741 58.996488 0
M  V30 49 H 36.211726 33.075351 57.833689 0
M  V30 END ATOM
M  V30 BEGIN BOND
M  V30 1 1 3 1
M  V30 2 2 7 1
M  V30 3 1 8 6
M  V30 4 1 9 2
M  V30 5 1 11 4
M  V30 6 1 11 10
M  V30 7 1 12 5
M  V30 8 1 12 8
M  V30 9 1 13 9
M  V30 10 2 14 12
M  V30 11 1 15 8
M  V30 12 1 17 13
M  V30 13 2 18 2
M  V30 14 1 18 4
M  V30 15 1 19 7
M  V30 16 1 19 11
M  V30 17 1 20 3
M  V30 18 1 20 15
M  V30 19 1 20 16
M  V30 20 1 21 1
M  V30 21 1 22 2
M  V30 22 1 23 3
M  V30 23 1 24 3
M  V30 24 1 25 4
M  V30 25 1 26 4
M  V30 26 1 27 6
M  V30 27 1 28 6
M  V30 28 1 29 7
M  V30 29 1 8 30 CFG=1
M  V30 30 1 31 9
M  V30 31 1 32 9
M  V30 32 1 33 10
M  V30 33 1 34 10
M  V30 34 1 35 10
M  V30 35 1 11 36 CFG=3
M  V30 36 1 37 13
M  V30 37 1 38 13
M  V30 38 1 39 15
M  V30 39 1 40 15
M  V30 40 1 41 16
M  V30 41 1 42 17
M  V30 42 1 43 17
M  V30 43 1 44 17
M  V30 44 1 45 18
M  V30 45 1 46 19
M  V30 46 1 47 19
M  V30 47 1 20 48 CFG=1
M  V30 48 1 49 6
M  V30 END BOND
M  V30 END CTAB
M  END
>  <i_epik_Tot_Q>  (1) 
0

>  <i_epik_Tot_abs_Q>  (1) 
2

>  <i_i_glide_confnum>  (1) 
815

>  <i_i_glide_lignum>  (1) 
28

>  <i_i_glide_posenum>  (1) 
212

>  <i_i_glide_rotatable_bonds>  (1) 
12

>  <i_lp_mmshare_version>  (1) 
72125

>  <i_m_source_file_index>  (1) 
15

>  <i_f3d_flags>  (1) 
0

>  <num_sample>  (1) 
100

>  <b_lp_Chiralities_Consistent>  (1) 
1

>  <r_epik_Charging_Adjusted_Penalty>  (1) 
0.00991281995240933

>  <r_epik_Ionization_Penalty>  (1) 
0.0049587358016132182

>  <r_epik_Ionization_Penalty_Charging>  (1) 
0.0049586922537287062

>  <r_epik_Ionization_Penalty_Neutral>  (1) 
4.3547884512074136e-08

>  <r_epik_State_Penalty>  (1) 
0.0049541276986806238

>  <r_glide_ring_energy>  (1) 
0

>  <r_i_docking_score>  (1) 
-3.5979861647074141

>  <r_i_glide_ecoul>  (1) 
-7.7847672409693534

>  <r_i_glide_eff_state_penalty>  (1) 
0.0049541276986806238

>  <r_i_glide_einternal>  (1) 
6.774597310331921

>  <r_i_glide_emodel>  (1) 
-39.053164986057858

>  <r_i_glide_emodel_strain>  (1) 
0.87890271445244217

>  <r_i_glide_energy>  (1) 
-33.896487733293043

>  <r_i_glide_erotb>  (1) 
4.0583376510001772

>  <r_i_glide_esite>  (1) 
-0.072941692989389337

>  <r_i_glide_evdw>  (1) 
-26.111720492323691

>  <r_i_glide_gscore>  (1) 
-3.6029402924060947

>  <r_i_glide_gscore_strain>  (1) 
0

>  <r_i_glide_hbond>  (1) 
-0.35999999999999999

>  <r_i_glide_ligand_efficiency>  (1) 
-0.1798993082353707

>  <r_i_glide_ligand_efficiency_ln>  (1) 
-0.9004572675003566

>  <r_i_glide_ligand_efficiency_sa>  (1) 
-0.48832185148732743

>  <r_i_glide_lipo>  (1) 
-2.4579819915663603

>  <r_i_glide_metal>  (1) 
-0

>  <r_i_glide_rewards>  (1) 
-2.297053148088934

>  <r_lp_Energy>  (1) 
-4.2601749999999994

>  <s_epik_cmdline>  (1) 
J2VwaWtfcHl0aG9uJywgJy1waHQnLCAnMS4wJywgJy1waCcsICc3LjQnLCAnLXRuJywgJzgnLCAnLW1hJywgJzUwMCcsICctaW1hZScsICc8aW5maWxlLm1hZT4nLCAnLW9tYWUnLCAnPG91dGZpbGUubWFlPic=

>  <s_epik_input>  (1) 
W09IXUMoPU8pW0NAQEhdKFtOSDJdKVtDSDJdW0NAQEhdKFtPSF0pW0NIMl0vW0NIXT1bQ0hdL1tDSDJdW0NAQEhdKFtDSDNdKVtDSDJdXFtDSF09W0NIXVxbQ0gyXVtDSDJdW0NIM10=

>  <s_glide_docking_method>  (1) 
confgen

>  <s_i_glide_gridfile>  (1) 
gpcr_5ht2c_6bqh_protein_autoprepared_prepared

>  <s_lp_Force_Field>  (1) 
S-OPLS

>  <s_lp_Variant>  (1) 
DiffSBDD_14-6

>  <s_m_source_file>  (1) 
generated_GPCR_5HT2C_ligand_DiffSBDD_2026-06-23_prepared.sdf

>  <GenAI_Model>  (1) 
DiffSBDD

>  <Protein>  (1) 
GPCR_5HT2C

$$$$
DiffSBDD_24
     RDKit          3D

  0  0  0  0  0  0  0  0  0  0999 V3000
M  V30 BEGIN CTAB
M  V30 COUNTS 76 79 0 0 1
M  V30 BEGIN ATOM
M  V30 1 C 36.045204 36.938068 64.747275 0
M  V30 2 C 38.209606 29.627866 56.357594 0
M  V30 3 C 37.130500 36.739228 63.885622 0
M  V30 4 N 37.902526 27.385346 57.505814 0 CHG=1
M  V30 5 C 38.009048 34.773085 60.728082 0 CFG=2
M  V30 6 N 38.045235 31.640652 57.756815 0
M  V30 7 C 37.614886 31.511139 60.321548 0
M  V30 8 C 38.483098 25.051004 56.966890 0
M  V30 9 O 42.254360 27.336099 58.254881 0 CHG=-1
M  V30 10 N 40.235553 26.513606 57.794370 0
M  V30 11 C 41.244921 27.354827 57.527525 0
M  V30 12 O 40.216787 36.155271 63.273031 0
M  V30 13 C 37.155027 33.674082 61.407578 0
M  V30 14 C 34.963837 37.738801 64.335584 0
M  V30 15 C 40.221630 33.904719 62.420440 0 CFG=2
M  V30 16 C 36.539140 34.330902 58.740260 0
M  V30 17 C 38.716991 31.064101 56.599124 0
M  V30 18 N 36.076168 33.081230 59.368495 0
M  V30 19 O 38.005098 30.974952 61.360647 0
M  V30 20 C 36.063028 38.099424 62.197789 0
M  V30 21 C 38.256585 28.815161 57.669422 0 CFG=2
M  V30 22 C 37.418406 29.513327 58.746420 0
M  V30 23 C 41.011400 31.890378 63.761560 0
M  V30 24 C 34.979916 38.326758 63.060046 0
M  V30 25 C 40.248776 33.188628 63.782388 0
M  V30 26 N 38.652960 35.699170 61.682514 0
M  V30 27 C 38.989532 26.497146 57.020096 0 CFG=2
M  V30 28 C 41.644819 33.941494 61.949717 0
M  V30 29 F 36.064449 38.621725 60.967786 0
M  V30 30 C 41.886087 31.593569 62.807057 0
M  V30 31 C 38.082770 30.871785 59.000086 0 CFG=1
M  V30 32 C 37.127916 37.294204 62.600962 0
M  V30 33 N 36.931151 32.672736 60.389713 0
M  V30 34 C 42.191953 32.536077 61.665559 0
M  V30 35 C 39.691799 35.356304 62.497321 0
M  V30 36 C 37.041854 35.415973 59.713423 0
M  V30 37 O 41.138856 28.139999 56.567881 0
M  V30 38 N 38.156935 37.018055 61.692648 0
M  V30 39 H 36.044870 36.513207 65.733935 0
M  V30 40 H 37.185943 29.662273 55.979336 0
M  V30 41 H 38.818657 29.154892 55.586480 0
M  V30 42 H 37.955253 36.138400 64.212129 0
M  V30 43 H 37.640545 27.043044 58.418593 0
M  V30 44 H 38.807708 34.326922 60.132934 0
M  V30 45 H 37.152394 32.082061 57.536060 0
M  V30 46 H 39.249221 24.383740 56.566375 0
M  V30 47 H 38.215115 24.690809 57.961742 0
M  V30 48 H 37.603384 24.965687 56.326848 0
M  V30 49 H 40.326288 25.872463 58.566253 0
M  V30 50 H 37.624312 33.220951 62.274412 0
M  V30 51 H 36.203360 34.067776 61.768519 0
M  V30 52 H 34.129668 37.903291 65.001255 0
M  V30 53 H 39.702082 33.262936 61.720958 0
M  V30 54 H 37.330424 34.102891 58.024921 0
M  V30 55 H 35.703098 34.724972 58.169838 0
M  V30 56 H 38.534773 31.691282 55.725615 0
M  V30 57 H 39.790324 31.056020 56.776463 0
M  V30 58 H 35.930999 32.344602 58.673807 0
M  V30 59 H 39.263850 28.864814 58.062870 0
M  V30 60 H 37.414584 28.940329 59.672453 0
M  V30 61 H 36.378848 29.636817 58.433809 0
M  V30 62 H 40.821639 31.190869 64.564385 0
M  V30 63 H 34.153187 38.937762 62.734052 0
M  V30 64 H 39.245506 32.932178 64.031307 0
M  V30 65 H 40.634253 33.824238 64.580227 0
M  V30 66 H 39.193821 26.782364 55.986440 0
M  V30 67 H 41.778449 34.607183 61.096927 0
M  V30 68 H 42.193116 34.365764 62.792892 0
M  V30 69 H 42.408641 30.648951 62.827129 0
M  V30 70 H 39.147055 30.710532 59.187932 0
M  V30 71 H 43.263773 32.560382 61.495899 0
M  V30 72 H 41.731521 32.130313 60.764988 0
M  V30 73 H 36.182451 35.856247 60.218370 0
M  V30 74 H 37.521135 36.222634 59.158558 0
M  V30 75 H 37.935906 37.374295 60.772751 0
M  V30 76 H 37.106434 27.315317 56.888790 0
M  V30 END ATOM
M  V30 BEGIN BOND
M  V30 1 1 3 1
M  V30 2 1 11 9
M  V30 3 1 11 10
M  V30 4 1 13 5
M  V30 5 2 14 1
M  V30 6 1 17 2
M  V30 7 1 17 6
M  V30 8 1 18 16
M  V30 9 2 19 7
M  V30 10 1 21 2
M  V30 11 1 21 4
M  V30 12 1 22 21
M  V30 13 1 24 14
M  V30 14 2 24 20
M  V30 15 1 25 15
M  V30 16 1 25 23
M  V30 17 1 26 5
M  V30 18 1 27 4
M  V30 19 1 27 8
M  V30 20 1 27 10
M  V30 21 1 28 15
M  V30 22 1 29 20
M  V30 23 2 30 23
M  V30 24 1 31 6
M  V30 25 1 31 7
M  V30 26 1 31 22
M  V30 27 2 32 3
M  V30 28 1 32 20
M  V30 29 1 33 7
M  V30 30 1 33 13
M  V30 31 1 33 18
M  V30 32 1 34 28
M  V30 33 1 34 30
M  V30 34 2 35 12
M  V30 35 1 35 15
M  V30 36 1 35 26
M  V30 37 1 36 5
M  V30 38 1 36 16
M  V30 39 2 37 11
M  V30 40 1 38 26
M  V30 41 1 38 32
M  V30 42 1 39 1
M  V30 43 1 40 2
M  V30 44 1 41 2
M  V30 45 1 42 3
M  V30 46 1 43 4
M  V30 47 1 5 44 CFG=3
M  V30 48 1 45 6
M  V30 49 1 46 8
M  V30 50 1 47 8
M  V30 51 1 48 8
M  V30 52 1 49 10
M  V30 53 1 50 13
M  V30 54 1 51 13
M  V30 55 1 52 14
M  V30 56 1 15 53 CFG=3
M  V30 57 1 54 16
M  V30 58 1 55 16
M  V30 59 1 56 17
M  V30 60 1 57 17
M  V30 61 1 58 18
M  V30 62 1 21 59 CFG=1
M  V30 63 1 60 22
M  V30 64 1 61 22
M  V30 65 1 62 23
M  V30 66 1 63 24
M  V30 67 1 64 25
M  V30 68 1 65 25
M  V30 69 1 27 66 CFG=3
M  V30 70 1 67 28
M  V30 71 1 68 28
M  V30 72 1 69 30
M  V30 73 1 31 70 CFG=1
M  V30 74 1 71 34
M  V30 75 1 72 34
M  V30 76 1 73 36
M  V30 77 1 74 36
M  V30 78 1 75 38
M  V30 79 1 76 4
M  V30 END BOND
M  V30 END CTAB
M  END
>  <i_epik_Tot_Q>  (1) 
0

>  <i_epik_Tot_abs_Q>  (1) 
2

>  <i_i_glide_confnum>  (1) 
378

>  <i_i_glide_lignum>  (1) 
59

>  <i_i_glide_posenum>  (1) 
231

>  <i_i_glide_rotatable_bonds>  (1) 
11

>  <i_lp_mmshare_version>  (1) 
72125

>  <i_m_source_file_index>  (1) 
25

>  <i_f3d_flags>  (1) 
0

>  <num_sample>  (1) 
100

>  <b_lp_Chiralities_Consistent>  (1) 
1

>  <r_epik_Charging_Adjusted_Penalty>  (1) 
0.077750035834572392

>  <r_epik_Ionization_Penalty>  (1) 
0.10755876975778689

>  <r_epik_Ionization_Penalty_Charging>  (1) 
0.0083338926467225426

>  <r_epik_Ionization_Penalty_Neutral>  (1) 
0.099224877111064341

>  <r_epik_State_Penalty>  (1) 
0.069416143187849846

>  <r_glide_ring_energy>  (1) 
0

>  <r_i_docking_score>  (1) 
-3.5863521119888087

>  <r_i_glide_ecoul>  (1) 
0.30180289702838881

>  <r_i_glide_eff_state_penalty>  (1) 
0.069416143187849846

>  <r_i_glide_einternal>  (1) 
60.507849769173731

>  <r_i_glide_emodel>  (1) 
3.3922493625795767

>  <r_i_glide_emodel_strain>  (1) 
7.7090417862758187

>  <r_i_glide_energy>  (1) 
-21.283499597201079

>  <r_i_glide_erotb>  (1) 
0.72960086390203738

>  <r_i_glide_esite>  (1) 
-0.027106738810295655

>  <r_i_glide_evdw>  (1) 
-21.585302494229467

>  <r_i_glide_gscore>  (1) 
-3.6557682551766586

>  <r_i_glide_gscore_strain>  (1) 
0.92726044656895468

>  <r_i_glide_hbond>  (1) 
-0.2902961174292617

>  <r_i_glide_ligand_efficiency>  (1) 
-0.094377687157600226

>  <r_i_glide_ligand_efficiency_ln>  (1) 
-0.7733230151351842

>  <r_i_glide_ligand_efficiency_sa>  (1) 
-0.31729546317441837

>  <r_i_glide_lipo>  (1) 
-2.3233989316856478

>  <r_i_glide_metal>  (1) 
-0

>  <r_i_glide_rewards>  (1) 
-1.6378330875652305

>  <r_lp_Energy>  (1) 
50.898903999999995

>  <s_epik_Chemistry_Notes>  (1) 
This compound contains an acetal/aminal-like group ( X-CH(R)-Y where X, Y are N, S, or O) that may be acid/base labile, releasing an aldehyde.

>  <s_epik_cmdline>  (1) 
J2VwaWtfcHl0aG9uJywgJy1waHQnLCAnMS4wJywgJy1waCcsICc3LjQnLCAnLXRuJywgJzgnLCAnLW1hJywgJzUwMCcsICctaW1hZScsICc8aW5maWxlLm1hZT4nLCAnLW9tYWUnLCAnPG91dGZpbGUubWFlPic=

>  <s_epik_input>  (1) 
RmMxW2NIXVtjSF1bY0hdW2NIXWMxW05IXU4oQyg9TylbQ0BASF0yW0NIMl1bQ0hdPVtDSF1bQ0gyXVtDSDJdMilbQ0BIXTNbQ0gyXU4oW05IXVtDSDJdW0NIMl0zKUMoPU8pW0NAQEhdKFtDSDJdNClbTkhdW0NIMl1bQ0gyXVtDQEBIXTRbTkhdW0NASF0oW0NIM10pW05IXUMoPU8pW09IXQ==

>  <s_glide_docking_method>  (1) 
confgen

>  <s_i_glide_gridfile>  (1) 
gpcr_5ht2c_6bqh_protein_autoprepared_prepared

>  <s_lp_Force_Field>  (1) 
S-OPLS

>  <s_lp_Variant>  (1) 
DiffSBDD_24-1

>  <s_m_source_file>  (1) 
generated_GPCR_5HT2C_ligand_DiffSBDD_2026-06-23_prepared.sdf

>  <GenAI_Model>  (1) 
DiffSBDD

>  <Protein>  (1) 
GPCR_5HT2C

$$$$
DiffSBDD_57
     RDKit          3D

  0  0  0  0  0  0  0  0  0  0999 V3000
M  V30 BEGIN CTAB
M  V30 COUNTS 64 66 0 0 1
M  V30 BEGIN ATOM
M  V30 1 O 36.592218 29.230008 58.553850 0
M  V30 2 C 38.746349 32.278485 55.399547 0
M  V30 3 C 37.827905 27.342153 54.791981 0
M  V30 4 C 38.878794 30.802603 57.413587 0 CFG=2
M  V30 5 C 39.492258 34.514818 61.382625 0
M  V30 6 S 38.045133 33.326598 56.649040 0
M  V30 7 O 40.045107 34.858364 60.348152 0
M  V30 8 C 39.670151 31.379323 56.208405 0
M  V30 9 N 37.644871 36.939799 59.990068 0
M  V30 10 C 37.877414 25.186463 56.183192 0 CFG=2
M  V30 11 N 38.554634 33.533938 61.456876 0
M  V30 12 C 37.245138 28.793225 57.605955 0
M  V30 13 O 37.245095 24.452037 57.236707 0
M  V30 14 C 37.983096 29.774512 56.728699 0
M  V30 15 C 38.644732 32.779185 59.117482 0
M  V30 16 C 38.969121 37.673495 61.882810 0 CFG=2
M  V30 17 O 36.845135 23.337619 55.173956 0
M  V30 18 C 38.072368 32.798720 60.343096 0
M  V30 19 C 37.584178 37.194613 61.423245 0 CFG=1
M  V30 20 C 38.075913 32.038519 57.939409 0 CFG=2
M  V30 21 C 39.734014 30.020518 58.483097 0
M  V30 22 C 40.042612 36.718652 62.413618 0 CFG=2
M  V30 23 C 37.697237 26.669949 56.140124 0
M  V30 24 C 39.813466 35.241591 62.676648 0 CFG=2
M  V30 25 C 39.398423 37.711023 63.332762 0
M  V30 26 N 36.603290 24.551891 55.896428 0
M  V30 27 N 37.245476 28.552901 54.496130 0
M  V30 28 C 36.484738 38.248843 61.667714 0
M  V30 29 O 36.029736 38.150686 62.998216 0
M  V30 30 O 36.528883 36.065011 59.670439 0
M  V30 31 C 38.504256 26.706163 53.815396 0
M  V30 32 C 37.395578 27.301926 57.349739 0
M  V30 33 Cl 41.245418 34.519356 63.448398 0
M  V30 34 H 39.249694 32.882653 54.655076 0
M  V30 35 H 37.954698 31.741584 54.881798 0
M  V30 36 H 40.445080 32.052829 56.543092 0
M  V30 37 H 40.145400 30.621408 55.585208 0
M  V30 38 H 38.445114 36.357928 59.766033 0
M  V30 39 H 38.824936 24.771998 55.840682 0
M  V30 40 H 38.114547 33.350972 62.346318 0
M  V30 41 H 38.684954 29.203059 56.130294 0
M  V30 42 H 37.236326 30.284878 56.125422 0
M  V30 43 H 39.548830 33.314512 58.920314 0
M  V30 44 H 39.314016 38.542391 61.328253 0
M  V30 45 H 37.044552 23.668198 54.310639 0
M  V30 46 H 37.173050 32.243170 60.564666 0
M  V30 47 H 37.332285 36.271806 61.944883 0
M  V30 48 H 37.060908 31.745076 58.196946 0
M  V30 49 H 39.860362 30.537740 59.429286 0
M  V30 50 H 39.348028 29.069606 58.834888 0
M  V30 51 H 40.713814 29.737819 58.098928 0
M  V30 52 H 41.052614 36.939802 62.077320 0
M  V30 53 H 38.983797 35.146090 63.367521 0
M  V30 54 H 38.678245 37.349953 64.064341 0
M  V30 55 H 40.045020 38.517913 63.669059 0
M  V30 56 H 36.656619 29.037400 55.160400 0
M  V30 57 H 36.854481 39.256979 61.471960 0
M  V30 58 H 35.629816 38.109704 61.007817 0
M  V30 59 H 35.606055 37.313739 63.119051 0
M  V30 60 H 36.897397 35.196610 59.765501 0
M  V30 61 H 38.601854 27.143931 52.831575 0
M  V30 62 H 38.967672 25.749152 53.982881 0
M  V30 63 H 37.262934 26.673747 58.206619 0
M  V30 64 H 37.285581 28.947743 53.567596 0
M  V30 END ATOM
M  V30 BEGIN BOND
M  V30 1 1 6 2
M  V30 2 2 7 5
M  V30 3 1 8 2
M  V30 4 1 8 4
M  V30 5 1 11 5
M  V30 6 2 12 1
M  V30 7 1 13 10
M  V30 8 1 4 14 CFG=3
M  V30 9 1 14 12
M  V30 10 1 18 11
M  V30 11 2 18 15
M  V30 12 1 19 9
M  V30 13 1 19 16
M  V30 14 1 20 4
M  V30 15 1 20 6
M  V30 16 1 20 15
M  V30 17 1 21 4
M  V30 18 1 22 16
M  V30 19 1 23 3
M  V30 20 1 23 10
M  V30 21 1 24 5
M  V30 22 1 24 22
M  V30 23 1 25 16
M  V30 24 1 25 22
M  V30 25 1 26 10
M  V30 26 1 26 13
M  V30 27 1 26 17
M  V30 28 1 27 3
M  V30 29 1 28 19
M  V30 30 1 29 28
M  V30 31 1 30 9
M  V30 32 2 31 3
M  V30 33 1 32 12
M  V30 34 2 32 23
M  V30 35 1 33 24
M  V30 36 1 34 2
M  V30 37 1 35 2
M  V30 38 1 36 8
M  V30 39 1 37 8
M  V30 40 1 38 9
M  V30 41 1 10 39 CFG=3
M  V30 42 1 40 11
M  V30 43 1 41 14
M  V30 44 1 42 14
M  V30 45 1 43 15
M  V30 46 1 16 44 CFG=3
M  V30 47 1 45 17
M  V30 48 1 46 18
M  V30 49 1 19 47 CFG=1
M  V30 50 1 20 48 CFG=1
M  V30 51 1 49 21
M  V30 52 1 50 21
M  V30 53 1 51 21
M  V30 54 1 22 52 CFG=3
M  V30 55 1 24 53 CFG=1
M  V30 56 1 54 25
M  V30 57 1 55 25
M  V30 58 1 56 27
M  V30 59 1 57 28
M  V30 60 1 58 28
M  V30 61 1 59 29
M  V30 62 1 60 30
M  V30 63 1 61 31
M  V30 64 1 62 31
M  V30 65 1 63 32
M  V30 66 1 64 27
M  V30 END BOND
M  V30 END CTAB
M  END
>  <i_epik_Tot_Q>  (1) 
0

>  <i_epik_Tot_abs_Q>  (1) 
0

>  <i_i_glide_confnum>  (1) 
105

>  <i_i_glide_lignum>  (1) 
128

>  <i_i_glide_posenum>  (1) 
47

>  <i_i_glide_rotatable_bonds>  (1) 
16

>  <i_lp_mmshare_version>  (1) 
72125

>  <i_m_source_file_index>  (1) 
58

>  <i_f3d_flags>  (1) 
0

>  <num_sample>  (1) 
100

>  <b_lp_Chiralities_Consistent>  (1) 
1

>  <r_epik_Charging_Adjusted_Penalty>  (1) 
0.024416195549470061

>  <r_epik_Ionization_Penalty>  (1) 
0.014246986074461085

>  <r_epik_Ionization_Penalty_Charging>  (1) 
6.6592516266621022e-05

>  <r_epik_Ionization_Penalty_Neutral>  (1) 
0.014180393558194464

>  <r_epik_State_Penalty>  (1) 
0.024349603033203441

>  <r_glide_ring_energy>  (1) 
0.20502008593199658

>  <r_i_docking_score>  (1) 
-3.5772563155289823

>  <r_i_glide_ecoul>  (1) 
-0.8769336724591702

>  <r_i_glide_eff_state_penalty>  (1) 
0.024349603033203441

>  <r_i_glide_einternal>  (1) 
13.788855746446149

>  <r_i_glide_emodel>  (1) 
-22.312314485993902

>  <r_i_glide_emodel_strain>  (1) 
7.6552814177929491

>  <r_i_glide_energy>  (1) 
-27.946059749283311

>  <r_i_glide_erotb>  (1) 
1.0500022235395752

>  <r_i_glide_esite>  (1) 
-0.019624938651222792

>  <r_i_glide_evdw>  (1) 
-27.069126076824141

>  <r_i_glide_gscore>  (1) 
-3.6016059185621856

>  <r_i_glide_gscore_strain>  (1) 
0.91382035444823728

>  <r_i_glide_hbond>  (1) 
0

>  <r_i_glide_ligand_efficiency>  (1) 
-0.10840170653118128

>  <r_i_glide_ligand_efficiency_ln>  (1) 
-0.79556328253172215

>  <r_i_glide_ligand_efficiency_sa>  (1) 
-0.34770219512889677

>  <r_i_glide_lipo>  (1) 
-2.3149964471801914

>  <r_i_glide_metal>  (1) 
-0

>  <r_i_glide_rewards>  (1) 
-1.7458107560085021

>  <r_lp_Energy>  (1) 
18.870881999999998

>  <s_epik_Chemistry_Notes>  (1) 
This compound has an imine and may undergo hydrolysis. This compound contains an acetal/aminal-like group ( X-CH(R)-Y where X, Y are N, S, or O) that may be acid/base labile, releasing an aldehyde. This compound has a N-S or N-O group and may undergo hydrolysis at high or low pH.

>  <s_epik_cmdline>  (1) 
J2VwaWtfcHl0aG9uJywgJy1waHQnLCAnMS4wJywgJy1waCcsICc3LjQnLCAnLXRuJywgJzgnLCAnLW1hJywgJzUwMCcsICctaW1hZScsICc8aW5maWxlLm1hZT4nLCAnLW9tYWUnLCAnPG91dGZpbGUubWFlPic=

>  <s_epik_input>  (1) 
W09IXU4xT1tDQEBIXTFDKC9DKD1OL1tIXSlbQ0gzXSk9W0NIXS9DKD1PKVtDSDJdW0NAQF0yKFtDSDNdKVtDSDJdW0NIMl1TW0NAQEhdMi9bQ0hdPVtDSF0vW05IXUMoPU8pW0NAQEhdKENsKVtDQEhdKFtDSDJdMylbQ0BIXTNbQ0BIXShbTkhdW09IXSlbQ0gyXVtPSF0=

>  <s_glide_docking_method>  (1) 
confgen

>  <s_i_glide_gridfile>  (1) 
gpcr_5ht2c_6bqh_protein_autoprepared_prepared

>  <s_lp_Force_Field>  (1) 
S-OPLS

>  <s_lp_Variant>  (1) 
DiffSBDD_57-4

>  <s_m_source_file>  (1) 
generated_GPCR_5HT2C_ligand_DiffSBDD_2026-06-23_prepared.sdf

>  <GenAI_Model>  (1) 
DiffSBDD

>  <Protein>  (1) 
GPCR_5HT2C

$$$$
DiffSBDD_76
     RDKit          3D

  0  0  0  0  0  0  0  0  0  0999 V3000
M  V30 BEGIN CTAB
M  V30 COUNTS 22 21 0 0 1
M  V30 BEGIN ATOM
M  V30 1 C 39.241668 25.850786 55.320027 0
M  V30 2 C 38.786352 27.188226 54.774471 0
M  V30 3 C 40.845124 30.136489 50.086085 0
M  V30 4 S 37.858541 24.937799 56.050487 0
M  V30 5 C 39.948914 29.166955 50.870834 0
M  V30 6 C 39.569941 29.697738 52.263953 0
M  V30 7 C 38.446860 28.897621 52.946468 0
M  V30 8 C 38.905509 27.556472 53.487064 0
M  V30 9 H 39.999997 26.018643 56.085316 0
M  V30 10 H 39.700772 25.244266 54.541292 0
M  V30 11 H 38.341739 27.870642 55.484721 0
M  V30 12 H 41.056735 29.738482 49.093230 0
M  V30 13 H 40.365690 31.107613 49.956883 0
M  V30 14 H 41.799481 30.299316 50.586597 0
M  V30 15 H 37.181928 24.781125 54.908679 0
M  V30 16 H 40.445353 28.201066 50.966337 0
M  V30 17 H 39.044289 28.984680 50.289831 0
M  V30 18 H 39.245137 30.731702 52.170861 0
M  V30 19 H 40.445147 29.737758 52.908455 0
M  V30 20 H 37.623280 28.732003 52.251235 0
M  V30 21 H 38.037456 29.486576 53.768394 0
M  V30 22 H 39.348875 26.874924 52.775246 0
M  V30 END ATOM
M  V30 BEGIN BOND
M  V30 1 1 2 1
M  V30 2 1 4 1
M  V30 3 1 5 3
M  V30 4 1 6 5
M  V30 5 1 7 6
M  V30 6 2 8 2
M  V30 7 1 8 7
M  V30 8 1 9 1
M  V30 9 1 10 1
M  V30 10 1 11 2
M  V30 11 1 12 3
M  V30 12 1 13 3
M  V30 13 1 14 3
M  V30 14 1 15 4
M  V30 15 1 16 5
M  V30 16 1 17 5
M  V30 17 1 18 6
M  V30 18 1 19 6
M  V30 19 1 20 7
M  V30 20 1 21 7
M  V30 21 1 22 8
M  V30 END BOND
M  V30 END CTAB
M  END
>  <i_epik_Tot_Q>  (1) 
0

>  <i_epik_Tot_abs_Q>  (1) 
0

>  <i_i_glide_confnum>  (1) 
4

>  <i_i_glide_lignum>  (1) 
176

>  <i_i_glide_posenum>  (1) 
189

>  <i_i_glide_rotatable_bonds>  (1) 
5

>  <i_lp_mmshare_version>  (1) 
72125

>  <i_m_source_file_index>  (1) 
77

>  <i_f3d_flags>  (1) 
0

>  <num_sample>  (1) 
100

>  <b_lp_Chiralities_Consistent>  (1) 
1

>  <r_epik_Charging_Adjusted_Penalty>  (1) 
0.0051523938583426443

>  <r_epik_Ionization_Penalty>  (1) 
0.0051523938583426451

>  <r_epik_Ionization_Penalty_Charging>  (1) 
0

>  <r_epik_Ionization_Penalty_Neutral>  (1) 
0.0051523938583426451

>  <r_epik_State_Penalty>  (1) 
0.0051523938583426443

>  <r_glide_ring_energy>  (1) 
0

>  <r_i_docking_score>  (1) 
-3.5752726590180237

>  <r_i_glide_ecoul>  (1) 
-0.25586673753175754

>  <r_i_glide_eff_state_penalty>  (1) 
0.0051523938583426443

>  <r_i_glide_einternal>  (1) 
2.473372401506718

>  <r_i_glide_emodel>  (1) 
-22.413684649451465

>  <r_i_glide_emodel_strain>  (1) 
0

>  <r_i_glide_energy>  (1) 
-18.788453846151285

>  <r_i_glide_erotb>  (1) 
2.4507048939468694

>  <r_i_glide_esite>  (1) 
0

>  <r_i_glide_evdw>  (1) 
-18.532587108619527

>  <r_i_glide_gscore>  (1) 
-3.5804250528763664

>  <r_i_glide_gscore_strain>  (1) 
0

>  <r_i_glide_hbond>  (1) 
0

>  <r_i_glide_ligand_efficiency>  (1) 
-0.44690908237725296

>  <r_i_glide_ligand_efficiency_ln>  (1) 
-1.161013323561165

>  <r_i_glide_ligand_efficiency_sa>  (1) 
-0.89381816475450604

>  <r_i_glide_lipo>  (1) 
-2.1352876158868224

>  <r_i_glide_metal>  (1) 
-0

>  <r_i_glide_rewards>  (1) 
-2.9308329648756732

>  <r_lp_Energy>  (1) 
-1.908774

>  <s_epik_cmdline>  (1) 
J2VwaWtfcHl0aG9uJywgJy1waHQnLCAnMS4wJywgJy1waCcsICc3LjQnLCAnLXRuJywgJzgnLCAnLW1hJywgJzUwMCcsICctaW1hZScsICc8aW5maWxlLm1hZT4nLCAnLW9tYWUnLCAnPG91dGZpbGUubWFlPic=

>  <s_epik_input>  (1) 
W1NIXVtDSDJdL1tDSF09W0NIXS9bQ0gyXVtDSDJdW0NIMl1bQ0gzXQ==

>  <s_glide_docking_method>  (1) 
confgen

>  <s_i_glide_gridfile>  (1) 
gpcr_5ht2c_6bqh_protein_autoprepared_prepared

>  <s_lp_Force_Field>  (1) 
S-OPLS

>  <s_lp_Variant>  (1) 
DiffSBDD_76-1

>  <s_m_source_file>  (1) 
generated_GPCR_5HT2C_ligand_DiffSBDD_2026-06-23_prepared.sdf

>  <GenAI_Model>  (1) 
DiffSBDD

>  <Protein>  (1) 
GPCR_5HT2C

$$$$
DiffSBDD_5
     RDKit          3D

  0  0  0  0  0  0  0  0  0  0999 V3000
M  V30 BEGIN CTAB
M  V30 COUNTS 20 19 0 0 1
M  V30 BEGIN ATOM
M  V30 1 C 38.692646 27.537744 54.987177 0
M  V30 2 C 39.051059 27.240592 53.518527 0
M  V30 3 C 40.100685 29.799647 50.405762 0
M  V30 4 S 39.643821 28.137770 50.967759 0
M  V30 5 O 37.916887 24.537754 57.015853 0
M  V30 6 C 38.991664 26.387206 55.978189 0
M  V30 7 O 37.245152 25.111084 54.972478 0 CHG=-1
M  V30 8 C 37.961602 25.248518 55.987856 0
M  V30 9 C 39.024056 28.496235 52.634049 0
M  V30 10 H 39.265633 28.406049 55.313724 0
M  V30 11 H 37.645148 27.833734 55.058283 0
M  V30 12 H 38.364826 26.501809 53.106379 0
M  V30 13 H 40.045133 26.794302 53.475580 0
M  V30 14 H 40.465293 29.757383 49.379397 0
M  V30 15 H 40.889252 30.213690 51.034131 0
M  V30 16 H 39.245133 30.471393 50.436957 0
M  V30 17 H 39.979489 25.965728 55.790188 0
M  V30 18 H 39.023892 26.796879 56.988228 0
M  V30 19 H 39.645137 29.274746 53.076507 0
M  V30 20 H 38.013231 28.898823 52.561944 0
M  V30 END ATOM
M  V30 BEGIN BOND
M  V30 1 1 2 1
M  V30 2 1 4 3
M  V30 3 1 6 1
M  V30 4 2 8 5
M  V30 5 1 8 6
M  V30 6 1 8 7
M  V30 7 1 9 2
M  V30 8 1 9 4
M  V30 9 1 10 1
M  V30 10 1 11 1
M  V30 11 1 12 2
M  V30 12 1 13 2
M  V30 13 1 14 3
M  V30 14 1 15 3
M  V30 15 1 16 3
M  V30 16 1 17 6
M  V30 17 1 18 6
M  V30 18 1 19 9
M  V30 19 1 20 9
M  V30 END BOND
M  V30 END CTAB
M  END
>  <i_epik_Tot_Q>  (1) 
-1

>  <i_epik_Tot_abs_Q>  (1) 
1

>  <i_i_glide_confnum>  (1) 
10

>  <i_i_glide_lignum>  (1) 
8

>  <i_i_glide_posenum>  (1) 
85

>  <i_i_glide_rotatable_bonds>  (1) 
5

>  <i_lp_mmshare_version>  (1) 
72125

>  <i_m_source_file_index>  (1) 
6

>  <i_f3d_flags>  (1) 
0

>  <num_sample>  (1) 
100

>  <b_lp_Chiralities_Consistent>  (1) 
1

>  <r_epik_Charging_Adjusted_Penalty>  (1) 
0.0016234785268329083

>  <r_epik_Ionization_Penalty>  (1) 
0.0016234785268329083

>  <r_epik_Ionization_Penalty_Charging>  (1) 
0.0016234785268329083

>  <r_epik_Ionization_Penalty_Neutral>  (1) 
0

>  <r_epik_State_Penalty>  (1) 
-0

>  <r_glide_ring_energy>  (1) 
0

>  <r_i_docking_score>  (1) 
-3.5682186600514352

>  <r_i_glide_ecoul>  (1) 
0.10249961889650186

>  <r_i_glide_eff_state_penalty>  (1) 
-0

>  <r_i_glide_einternal>  (1) 
1.1429657025782807

>  <r_i_glide_emodel>  (1) 
-22.298292234380487

>  <r_i_glide_emodel_strain>  (1) 
0.67253284199405639

>  <r_i_glide_energy>  (1) 
-19.017523961591163

>  <r_i_glide_erotb>  (1) 
2.0195253186786486

>  <r_i_glide_esite>  (1) 
0

>  <r_i_glide_evdw>  (1) 
-19.120023580487665

>  <r_i_glide_gscore>  (1) 
-3.5682186600514352

>  <r_i_glide_gscore_strain>  (1) 
0

>  <r_i_glide_hbond>  (1) 
0

>  <r_i_glide_ligand_efficiency>  (1) 
-0.39646874000571503

>  <r_i_glide_ligand_efficiency_ln>  (1) 
-1.1160362913963056

>  <r_i_glide_ligand_efficiency_sa>  (1) 
-0.82468821243165924

>  <r_i_glide_lipo>  (1) 
-1.6670720279413862

>  <r_i_glide_metal>  (1) 
-0

>  <r_i_glide_rewards>  (1) 
-2.98004571459879

>  <r_lp_Energy>  (1) 
4.776243

>  <r_lp_tautomer_probability>  (1) 
1

>  <s_epik_cmdline>  (1) 
J2VwaWtfcHl0aG9uJywgJy1waHQnLCAnMS4wJywgJy1waCcsICc3LjQnLCAnLXRuJywgJzgnLCAnLW1hJywgJzUwMCcsICctaW1hZScsICc8aW5maWxlLm1hZT4nLCAnLW9tYWUnLCAnPG91dGZpbGUubWFlPic=

>  <s_epik_input>  (1) 
Tz1DKFtPSF0pW0NIMl1bQ0gyXVtDSDJdW0NIMl1TW0NIM10=

>  <s_glide_docking_method>  (1) 
confgen

>  <s_i_glide_gridfile>  (1) 
gpcr_5ht2c_6bqh_protein_autoprepared_prepared

>  <s_lp_Force_Field>  (1) 
S-OPLS

>  <s_lp_Variant>  (1) 
DiffSBDD_5-1

>  <s_m_source_file>  (1) 
generated_GPCR_5HT2C_ligand_DiffSBDD_2026-06-23_prepared.sdf

>  <GenAI_Model>  (1) 
DiffSBDD

>  <Protein>  (1) 
GPCR_5HT2C

$$$$
DiffSBDD_76
     RDKit          3D

  0  0  0  0  0  0  0  0  0  0999 V3000
M  V30 BEGIN CTAB
M  V30 COUNTS 22 21 0 0 1
M  V30 BEGIN ATOM
M  V30 1 C 38.132278 26.939218 54.600002 0
M  V30 2 C 38.327683 28.441768 54.475516 0
M  V30 3 C 41.231265 30.344791 49.848531 0
M  V30 4 S 39.644813 26.137890 55.191559 0
M  V30 5 C 39.991469 30.172967 50.725807 0
M  V30 6 C 39.784170 28.714404 51.161895 0
M  V30 7 C 38.474293 28.473022 51.928209 0
M  V30 8 C 38.474537 29.111221 53.312508 0
M  V30 9 H 37.793822 26.452255 53.689191 0
M  V30 10 H 37.343400 26.764409 55.331543 0
M  V30 11 H 38.347828 28.994950 55.403799 0
M  V30 12 H 41.300024 31.354119 49.462993 0
M  V30 13 H 42.138591 30.137770 50.413197 0
M  V30 14 H 41.200292 29.697386 48.975646 0
M  V30 15 H 39.140478 24.901162 55.242815 0
M  V30 16 H 39.124185 30.521174 50.168373 0
M  V30 17 H 40.076334 30.821258 51.598313 0
M  V30 18 H 40.631437 28.388699 51.765649 0
M  V30 19 H 39.782335 28.078980 50.275024 0
M  V30 20 H 38.291221 27.403426 51.948318 0
M  V30 21 H 37.645387 28.899215 51.367757 0
M  V30 22 H 38.605623 30.183360 53.340958 0
M  V30 END ATOM
M  V30 BEGIN BOND
M  V30 1 1 2 1
M  V30 2 1 4 1
M  V30 3 1 5 3
M  V30 4 1 6 5
M  V30 5 1 7 6
M  V30 6 2 8 2
M  V30 7 1 8 7
M  V30 8 1 9 1
M  V30 9 1 10 1
M  V30 10 1 11 2
M  V30 11 1 12 3
M  V30 12 1 13 3
M  V30 13 1 14 3
M  V30 14 1 15 4
M  V30 15 1 16 5
M  V30 16 1 17 5
M  V30 17 1 18 6
M  V30 18 1 19 6
M  V30 19 1 20 7
M  V30 20 1 21 7
M  V30 21 1 22 8
M  V30 END BOND
M  V30 END CTAB
M  END
>  <i_epik_Tot_Q>  (1) 
0

>  <i_epik_Tot_abs_Q>  (1) 
0

>  <i_i_glide_confnum>  (1) 
25

>  <i_i_glide_lignum>  (1) 
177

>  <i_i_glide_posenum>  (1) 
276

>  <i_i_glide_rotatable_bonds>  (1) 
5

>  <i_lp_mmshare_version>  (1) 
72125

>  <i_m_source_file_index>  (1) 
77

>  <i_f3d_flags>  (1) 
0

>  <num_sample>  (1) 
100

>  <b_lp_Chiralities_Consistent>  (1) 
1

>  <r_epik_Charging_Adjusted_Penalty>  (1) 
0.0051523938583426443

>  <r_epik_Ionization_Penalty>  (1) 
0.0051523938583426451

>  <r_epik_Ionization_Penalty_Charging>  (1) 
0

>  <r_epik_Ionization_Penalty_Neutral>  (1) 
0.0051523938583426451

>  <r_epik_State_Penalty>  (1) 
0.0051523938583426443

>  <r_glide_ring_energy>  (1) 
0

>  <r_i_docking_score>  (1) 
-3.5627242147758458

>  <r_i_glide_ecoul>  (1) 
-0.17167648548844444

>  <r_i_glide_eff_state_penalty>  (1) 
0.0051523938583426443

>  <r_i_glide_einternal>  (1) 
1.1869172533210892

>  <r_i_glide_emodel>  (1) 
-22.175889703115779

>  <r_i_glide_emodel_strain>  (1) 
0.36034337052555765

>  <r_i_glide_energy>  (1) 
-18.654084327706709

>  <r_i_glide_erotb>  (1) 
2.4507048939468694

>  <r_i_glide_esite>  (1) 
0

>  <r_i_glide_evdw>  (1) 
-18.482407842218265

>  <r_i_glide_gscore>  (1) 
-3.5678766086341884

>  <r_i_glide_gscore_strain>  (1) 
0

>  <r_i_glide_hbond>  (1) 
0

>  <r_i_glide_ligand_efficiency>  (1) 
-0.44534052684698072

>  <r_i_glide_ligand_efficiency_ln>  (1) 
-1.1569384144997861

>  <r_i_glide_ligand_efficiency_sa>  (1) 
-0.89068105369396156

>  <r_i_glide_lipo>  (1) 
-2.0010154632846344

>  <r_i_glide_metal>  (1) 
-0

>  <r_i_glide_rewards>  (1) 
-3.0676941743622428

>  <r_lp_Energy>  (1) 
-0.67296199999999995

>  <s_epik_cmdline>  (1) 
J2VwaWtfcHl0aG9uJywgJy1waHQnLCAnMS4wJywgJy1waCcsICc3LjQnLCAnLXRuJywgJzgnLCAnLW1hJywgJzUwMCcsICctaW1hZScsICc8aW5maWxlLm1hZT4nLCAnLW9tYWUnLCAnPG91dGZpbGUubWFlPic=

>  <s_epik_input>  (1) 
W1NIXVtDSDJdL1tDSF09W0NIXVxbQ0gyXVtDSDJdW0NIMl1bQ0gzXQ==

>  <s_glide_docking_method>  (1) 
confgen

>  <s_i_glide_gridfile>  (1) 
gpcr_5ht2c_6bqh_protein_autoprepared_prepared

>  <s_lp_Force_Field>  (1) 
S-OPLS

>  <s_lp_Variant>  (1) 
DiffSBDD_76-2

>  <s_m_source_file>  (1) 
generated_GPCR_5HT2C_ligand_DiffSBDD_2026-06-23_prepared.sdf

>  <GenAI_Model>  (1) 
DiffSBDD

>  <Protein>  (1) 
GPCR_5HT2C

$$$$
DiffSBDD_37
     RDKit          3D

  0  0  0  0  0  0  0  0  0  0999 V3000
M  V30 BEGIN CTAB
M  V30 COUNTS 45 45 0 0 1
M  V30 BEGIN ATOM
M  V30 1 O 37.340791 29.713112 55.818360 0
M  V30 2 C 38.902276 27.392867 52.463998 0
M  V30 3 N 39.113002 32.130107 61.087818 0
M  V30 4 C 38.112116 31.555221 61.767761 0
M  V30 5 C 38.142703 30.398719 54.856962 0 CFG=1
M  V30 6 O 36.920933 31.737618 61.519580 0
M  V30 7 C 39.645140 30.143131 52.810300 0
M  V30 8 C 38.887925 33.034236 59.966849 0
M  V30 9 C 38.123580 28.243370 53.469529 0
M  V30 10 C 38.960196 31.482759 55.588838 0
M  V30 11 C 37.997455 28.909588 56.798834 0
M  V30 12 C 38.443328 32.270542 58.710069 0
M  V30 13 C 38.977255 29.425540 53.982105 0 CFG=2
M  V30 14 N 38.045141 32.425412 56.261356 0 CHG=1
M  V30 15 C 38.590491 33.113456 57.440339 0
M  V30 16 C 40.445466 30.377625 50.447251 0
M  V30 17 C 39.297090 28.216983 51.230641 0
M  V30 18 C 39.789990 29.612841 51.578253 0
M  V30 19 H 38.302946 26.538012 52.161259 0
M  V30 20 H 39.794056 26.985411 52.942161 0
M  V30 21 H 40.066398 31.935186 61.355686 0
M  V30 22 H 38.497130 30.906755 62.569544 0
M  V30 23 H 37.435874 30.902974 54.195536 0
M  V30 24 H 40.013752 31.138920 53.000631 0
M  V30 25 H 38.157163 33.801640 60.229632 0
M  V30 26 H 39.825188 33.555892 59.775504 0
M  V30 27 H 37.796948 27.611128 54.294311 0
M  V30 28 H 37.213039 28.615402 52.997525 0
M  V30 29 H 39.572112 32.063558 54.900851 0
M  V30 30 H 39.654256 31.033404 56.297571 0
M  V30 31 H 37.246065 28.437333 57.430257 0
M  V30 32 H 38.594139 28.110080 56.362422 0
M  V30 33 H 38.638345 29.487394 57.458874 0
M  V30 34 H 39.029756 31.359027 58.613257 0
M  V30 35 H 37.404762 31.954450 58.824248 0
M  V30 36 H 39.786827 29.028318 54.593963 0
M  V30 37 H 37.183485 31.949506 56.544187 0
M  V30 38 H 38.048243 34.053594 57.556814 0
M  V30 39 H 39.641968 33.337721 57.268094 0
M  V30 40 H 39.723123 30.563990 49.651870 0
M  V30 41 H 40.837961 31.337648 50.782841 0
M  V30 42 H 41.270307 29.802389 50.032343 0
M  V30 43 H 38.442258 28.328591 50.567768 0
M  V30 44 H 40.058751 27.685402 50.660066 0
M  V30 45 H 37.753098 33.119591 55.587677 0
M  V30 END ATOM
M  V30 BEGIN BOND
M  V30 1 1 4 3
M  V30 2 1 5 1
M  V30 3 2 6 4
M  V30 4 1 8 3
M  V30 5 1 9 2
M  V30 6 1 10 5
M  V30 7 1 11 1
M  V30 8 1 12 8
M  V30 9 1 13 5
M  V30 10 1 13 7
M  V30 11 1 13 9
M  V30 12 1 14 10
M  V30 13 1 15 12
M  V30 14 1 15 14
M  V30 15 1 17 2
M  V30 16 2 18 7
M  V30 17 1 18 16
M  V30 18 1 18 17
M  V30 19 1 19 2
M  V30 20 1 20 2
M  V30 21 1 21 3
M  V30 22 1 22 4
M  V30 23 1 5 23 CFG=3
M  V30 24 1 24 7
M  V30 25 1 25 8
M  V30 26 1 26 8
M  V30 27 1 27 9
M  V30 28 1 28 9
M  V30 29 1 29 10
M  V30 30 1 30 10
M  V30 31 1 31 11
M  V30 32 1 32 11
M  V30 33 1 33 11
M  V30 34 1 34 12
M  V30 35 1 35 12
M  V30 36 1 13 36 CFG=1
M  V30 37 1 37 14
M  V30 38 1 38 15
M  V30 39 1 39 15
M  V30 40 1 40 16
M  V30 41 1 41 16
M  V30 42 1 42 16
M  V30 43 1 43 17
M  V30 44 1 44 17
M  V30 45 1 45 14
M  V30 END BOND
M  V30 END CTAB
M  END
>  <i_epik_Tot_Q>  (1) 
1

>  <i_epik_Tot_abs_Q>  (1) 
1

>  <i_i_glide_confnum>  (1) 
23

>  <i_i_glide_lignum>  (1) 
84

>  <i_i_glide_posenum>  (1) 
32

>  <i_i_glide_rotatable_bonds>  (1) 
9

>  <i_lp_mmshare_version>  (1) 
72125

>  <i_m_source_file_index>  (1) 
38

>  <i_f3d_flags>  (1) 
0

>  <num_sample>  (1) 
100

>  <b_lp_Chiralities_Consistent>  (1) 
1

>  <r_epik_Charging_Adjusted_Penalty>  (1) 
0.011588435553483814

>  <r_epik_Ionization_Penalty>  (1) 
0.0057942400121425265

>  <r_epik_Ionization_Penalty_Charging>  (1) 
0.0057942177767419025

>  <r_epik_Ionization_Penalty_Neutral>  (1) 
2.2235400624284582e-08

>  <r_epik_State_Penalty>  (1) 
0.0057942177767419112

>  <r_glide_ring_energy>  (1) 
0

>  <r_i_docking_score>  (1) 
-3.5571856948384952

>  <r_i_glide_ecoul>  (1) 
-4.7872107026928541

>  <r_i_glide_eff_state_penalty>  (1) 
0.0057942177767419112

>  <r_i_glide_einternal>  (1) 
6.2549821769878262

>  <r_i_glide_emodel>  (1) 
-40.429872782848165

>  <r_i_glide_emodel_strain>  (1) 
0.2456561739157106

>  <r_i_glide_energy>  (1) 
-33.644200785396606

>  <r_i_glide_erotb>  (1) 
3.7792363612633109

>  <r_i_glide_esite>  (1) 
-0.10000000000000001

>  <r_i_glide_evdw>  (1) 
-28.856990082703749

>  <r_i_glide_gscore>  (1) 
-3.5629799126152371

>  <r_i_glide_gscore_strain>  (1) 
0

>  <r_i_glide_hbond>  (1) 
-0.52000000000000002

>  <r_i_glide_ligand_efficiency>  (1) 
-0.19762142749102751

>  <r_i_glide_ligand_efficiency_ln>  (1) 
-0.91435624053629017

>  <r_i_glide_ligand_efficiency_sa>  (1) 
-0.51791465540838788

>  <r_i_glide_lipo>  (1) 
-2.2367976514541716

>  <r_i_glide_metal>  (1) 
-0

>  <r_i_glide_rewards>  (1) 
-2.32448751288526

>  <r_lp_Energy>  (1) 
14.633092999999999

>  <s_epik_cmdline>  (1) 
J2VwaWtfcHl0aG9uJywgJy1waHQnLCAnMS4wJywgJy1waCcsICc3LjQnLCAnLXRuJywgJzgnLCAnLW1hJywgJzUwMCcsICctaW1hZScsICc8aW5maWxlLm1hZT4nLCAnLW9tYWUnLCAnPG91dGZpbGUubWFlPic=

>  <s_epik_input>  (1) 
W0NIMl0xW0NIMl1bQ0gyXUMoW0NIM10pPVtDSF1bQ0BIXTFbQ0BASF0oT1tDSDNdKVtDSDJdW05IXVtDSDJdW0NIMl1bQ0gyXVtOSF1bQ0hdPU8=

>  <s_glide_docking_method>  (1) 
confgen

>  <s_i_glide_gridfile>  (1) 
gpcr_5ht2c_6bqh_protein_autoprepared_prepared

>  <s_lp_Force_Field>  (1) 
S-OPLS

>  <s_lp_Variant>  (1) 
DiffSBDD_37-1

>  <s_m_source_file>  (1) 
generated_GPCR_5HT2C_ligand_DiffSBDD_2026-06-23_prepared.sdf

>  <GenAI_Model>  (1) 
DiffSBDD

>  <Protein>  (1) 
GPCR_5HT2C

$$$$
DiffSBDD_76
     RDKit          3D

  0  0  0  0  0  0  0  0  0  0999 V3000
M  V30 BEGIN CTAB
M  V30 COUNTS 22 21 0 0 1
M  V30 BEGIN ATOM
M  V30 1 C 38.920847 25.702320 55.119897 0
M  V30 2 C 37.690156 26.073475 54.307120 0
M  V30 3 C 40.112186 29.924124 50.048191 0
M  V30 4 S 38.449099 25.081791 56.756488 0
M  V30 5 C 40.029605 29.460308 51.506343 0
M  V30 6 C 38.859159 28.501769 51.773395 0
M  V30 7 C 38.691505 28.172993 53.266466 0
M  V30 8 C 37.589015 27.152887 53.501527 0
M  V30 9 H 39.608274 26.531194 55.273503 0
M  V30 10 H 39.461907 24.916460 54.593335 0
M  V30 11 H 36.845137 25.406000 54.397353 0
M  V30 12 H 41.007944 30.522597 49.874660 0
M  V30 13 H 40.139914 29.073254 49.367327 0
M  V30 14 H 39.252429 30.539725 49.785926 0
M  V30 15 H 38.027863 26.254755 57.240110 0
M  V30 16 H 39.951043 30.334236 52.154147 0
M  V30 17 H 40.957867 28.956153 51.769276 0
M  V30 18 H 39.018502 27.581347 51.209604 0
M  V30 19 H 37.938124 28.936639 51.388524 0
M  V30 20 H 38.434185 29.079266 53.815239 0
M  V30 21 H 39.645028 27.832500 53.652535 0
M  V30 22 H 36.664736 27.325880 52.973005 0
M  V30 END ATOM
M  V30 BEGIN BOND
M  V30 1 1 2 1
M  V30 2 1 4 1
M  V30 3 1 5 3
M  V30 4 1 6 5
M  V30 5 1 7 6
M  V30 6 2 8 2
M  V30 7 1 8 7
M  V30 8 1 9 1
M  V30 9 1 10 1
M  V30 10 1 11 2
M  V30 11 1 12 3
M  V30 12 1 13 3
M  V30 13 1 14 3
M  V30 14 1 15 4
M  V30 15 1 16 5
M  V30 16 1 17 5
M  V30 17 1 18 6
M  V30 18 1 19 6
M  V30 19 1 20 7
M  V30 20 1 21 7
M  V30 21 1 22 8
M  V30 END BOND
M  V30 END CTAB
M  END
>  <i_epik_Tot_Q>  (1) 
0

>  <i_epik_Tot_abs_Q>  (1) 
0

>  <i_i_glide_confnum>  (1) 
6

>  <i_i_glide_lignum>  (1) 
177

>  <i_i_glide_posenum>  (1) 
118

>  <i_i_glide_rotatable_bonds>  (1) 
5

>  <i_lp_mmshare_version>  (1) 
72125

>  <i_m_source_file_index>  (1) 
77

>  <i_f3d_flags>  (1) 
0

>  <num_sample>  (1) 
100

>  <b_lp_Chiralities_Consistent>  (1) 
1

>  <r_epik_Charging_Adjusted_Penalty>  (1) 
0.0051523938583426443

>  <r_epik_Ionization_Penalty>  (1) 
0.0051523938583426451

>  <r_epik_Ionization_Penalty_Charging>  (1) 
0

>  <r_epik_Ionization_Penalty_Neutral>  (1) 
0.0051523938583426451

>  <r_epik_State_Penalty>  (1) 
0.0051523938583426443

>  <r_glide_ring_energy>  (1) 
0

>  <r_i_docking_score>  (1) 
-3.553953204833995

>  <r_i_glide_ecoul>  (1) 
-0.16777420050458497

>  <r_i_glide_eff_state_penalty>  (1) 
0.0051523938583426443

>  <r_i_glide_einternal>  (1) 
1.5809091273569282

>  <r_i_glide_emodel>  (1) 
-23.141730007596689

>  <r_i_glide_emodel_strain>  (1) 
0

>  <r_i_glide_energy>  (1) 
-19.467579708314378

>  <r_i_glide_erotb>  (1) 
2.4507048939468694

>  <r_i_glide_esite>  (1) 
0

>  <r_i_glide_evdw>  (1) 
-19.299805507809793

>  <r_i_glide_gscore>  (1) 
-3.5591055986923377

>  <r_i_glide_gscore_strain>  (1) 
0

>  <r_i_glide_hbond>  (1) 
0

>  <r_i_glide_ligand_efficiency>  (1) 
-0.44424415060424938

>  <r_i_glide_ligand_efficiency_ln>  (1) 
-1.1540901675617823

>  <r_i_glide_ligand_efficiency_sa>  (1) 
-0.88848830120849887

>  <r_i_glide_lipo>  (1) 
-2.0985133357607291

>  <r_i_glide_metal>  (1) 
-0

>  <r_i_glide_rewards>  (1) 
-2.9211407514122998

>  <r_lp_Energy>  (1) 
-0.67296199999999995

>  <s_epik_cmdline>  (1) 
J2VwaWtfcHl0aG9uJywgJy1waHQnLCAnMS4wJywgJy1waCcsICc3LjQnLCAnLXRuJywgJzgnLCAnLW1hJywgJzUwMCcsICctaW1hZScsICc8aW5maWxlLm1hZT4nLCAnLW9tYWUnLCAnPG91dGZpbGUubWFlPic=

>  <s_epik_input>  (1) 
W1NIXVtDSDJdL1tDSF09W0NIXVxbQ0gyXVtDSDJdW0NIMl1bQ0gzXQ==

>  <s_glide_docking_method>  (1) 
confgen

>  <s_i_glide_gridfile>  (1) 
gpcr_5ht2c_6bqh_protein_autoprepared_prepared

>  <s_lp_Force_Field>  (1) 
S-OPLS

>  <s_lp_Variant>  (1) 
DiffSBDD_76-2

>  <s_m_source_file>  (1) 
generated_GPCR_5HT2C_ligand_DiffSBDD_2026-06-23_prepared.sdf

>  <GenAI_Model>  (1) 
DiffSBDD

>  <Protein>  (1) 
GPCR_5HT2C

$$$$
DiffSBDD_14
     RDKit          3D

  0  0  0  0  0  0  0  0  0  0999 V3000
M  V30 BEGIN CTAB
M  V30 COUNTS 49 48 0 0 1
M  V30 BEGIN ATOM
M  V30 1 C 39.346280 28.331892 57.816623 0
M  V30 2 C 39.043010 29.495158 53.719562 0
M  V30 3 C 38.793907 28.778524 59.158321 0
M  V30 4 C 37.951035 27.369355 54.536562 0
M  V30 5 O 38.300908 33.573161 60.684347 0 CHG=-1
M  V30 6 N 37.245137 33.507765 58.167762 0 CHG=1
M  V30 7 C 39.320484 27.059345 57.385922 0
M  V30 8 C 37.121373 32.324279 59.033556 0 CFG=2
M  V30 9 C 39.806528 30.346087 52.713314 0
M  V30 10 C 37.867361 25.061237 55.605545 0
M  V30 11 C 38.776098 26.169808 55.044466 0 CFG=2
M  V30 12 C 37.402119 32.723869 60.488502 0
M  V30 13 C 40.079026 29.670394 51.351711 0
M  V30 14 O 36.713169 32.168557 61.372169 0
M  V30 15 C 38.079503 31.199874 58.573325 0
M  V30 16 O 36.622350 29.337755 58.223733 0
M  V30 17 C 40.769972 30.590893 50.342765 0
M  V30 18 C 38.710264 28.205147 53.528238 0
M  V30 19 C 39.870030 26.601951 56.046486 0
M  V30 20 C 37.648967 29.809401 59.072598 0 CFG=1
M  V30 21 H 39.778719 29.099220 57.191606 0
M  V30 22 H 38.761586 29.983275 54.641997 0
M  V30 23 H 39.613671 29.186008 59.750781 0
M  V30 24 H 38.445137 27.899680 59.701904 0
M  V30 25 H 37.043002 27.022014 54.042777 0
M  V30 26 H 37.635806 27.994516 55.371671 0
M  V30 27 H 36.631786 34.229916 58.515740 0
M  V30 28 H 38.198365 33.837255 58.194972 0
M  V30 29 H 38.885717 26.295041 58.013396 0
M  V30 30 H 36.085298 31.990009 58.967760 0
M  V30 31 H 39.245159 31.267809 52.567760 0
M  V30 32 H 40.741128 30.652484 53.181476 0
M  V30 33 H 37.236794 25.427723 56.416299 0
M  V30 34 H 37.207174 24.670493 54.830324 0
M  V30 35 H 38.453160 24.224677 55.987269 0
M  V30 36 H 39.288489 25.737757 54.183602 0
M  V30 37 H 40.699829 28.785028 51.493803 0
M  V30 38 H 39.139849 29.329075 50.913906 0
M  V30 39 H 39.082342 31.420246 58.939124 0
M  V30 40 H 38.163370 31.185269 57.485046 0
M  V30 41 H 36.049788 30.059575 57.989039 0
M  V30 42 H 40.949205 30.072095 49.401059 0
M  V30 43 H 40.154154 31.463487 50.124997 0
M  V30 44 H 41.732616 30.937755 50.716332 0
M  V30 45 H 38.987424 27.708568 52.611174 0
M  V30 46 H 40.484679 27.391799 55.614092 0
M  V30 47 H 40.542865 25.765070 56.233770 0
M  V30 48 H 37.228271 29.897506 60.073954 0
M  V30 49 H 36.970127 33.249640 57.228622 0
M  V30 END ATOM
M  V30 BEGIN BOND
M  V30 1 1 3 1
M  V30 2 2 7 1
M  V30 3 1 8 6
M  V30 4 1 9 2
M  V30 5 1 11 4
M  V30 6 1 11 10
M  V30 7 1 12 5
M  V30 8 1 12 8
M  V30 9 1 13 9
M  V30 10 2 14 12
M  V30 11 1 15 8
M  V30 12 1 17 13
M  V30 13 2 18 2
M  V30 14 1 18 4
M  V30 15 1 19 7
M  V30 16 1 19 11
M  V30 17 1 20 3
M  V30 18 1 20 15
M  V30 19 1 20 16
M  V30 20 1 21 1
M  V30 21 1 22 2
M  V30 22 1 23 3
M  V30 23 1 24 3
M  V30 24 1 25 4
M  V30 25 1 26 4
M  V30 26 1 27 6
M  V30 27 1 28 6
M  V30 28 1 29 7
M  V30 29 1 8 30 CFG=1
M  V30 30 1 31 9
M  V30 31 1 32 9
M  V30 32 1 33 10
M  V30 33 1 34 10
M  V30 34 1 35 10
M  V30 35 1 11 36 CFG=3
M  V30 36 1 37 13
M  V30 37 1 38 13
M  V30 38 1 39 15
M  V30 39 1 40 15
M  V30 40 1 41 16
M  V30 41 1 42 17
M  V30 42 1 43 17
M  V30 43 1 44 17
M  V30 44 1 45 18
M  V30 45 1 46 19
M  V30 46 1 47 19
M  V30 47 1 20 48 CFG=1
M  V30 48 1 49 6
M  V30 END BOND
M  V30 END CTAB
M  END
>  <i_epik_Tot_Q>  (1) 
0

>  <i_epik_Tot_abs_Q>  (1) 
2

>  <i_i_glide_confnum>  (1) 
372

>  <i_i_glide_lignum>  (1) 
24

>  <i_i_glide_posenum>  (1) 
9

>  <i_i_glide_rotatable_bonds>  (1) 
12

>  <i_lp_mmshare_version>  (1) 
72125

>  <i_m_source_file_index>  (1) 
15

>  <i_f3d_flags>  (1) 
0

>  <num_sample>  (1) 
100

>  <b_lp_Chiralities_Consistent>  (1) 
1

>  <r_epik_Charging_Adjusted_Penalty>  (1) 
0.00991281995240933

>  <r_epik_Ionization_Penalty>  (1) 
0.0049587358016132182

>  <r_epik_Ionization_Penalty_Charging>  (1) 
0.0049586922537287062

>  <r_epik_Ionization_Penalty_Neutral>  (1) 
4.3547884512074136e-08

>  <r_epik_State_Penalty>  (1) 
0.0049541276986806238

>  <r_glide_ring_energy>  (1) 
0

>  <r_i_docking_score>  (1) 
-3.5534430354621698

>  <r_i_glide_ecoul>  (1) 
-6.412477551835428

>  <r_i_glide_eff_state_penalty>  (1) 
0.0049541276986806238

>  <r_i_glide_einternal>  (1) 
8.4086947187018239

>  <r_i_glide_emodel>  (1) 
-37.760801385831961

>  <r_i_glide_emodel_strain>  (1) 
0.96492393159966117

>  <r_i_glide_energy>  (1) 
-33.076547256724631

>  <r_i_glide_erotb>  (1) 
4.0583376510001772

>  <r_i_glide_esite>  (1) 
-0.07115860140764374

>  <r_i_glide_evdw>  (1) 
-26.664069704889201

>  <r_i_glide_gscore>  (1) 
-3.5583971631608504

>  <r_i_glide_gscore_strain>  (1) 
0

>  <r_i_glide_hbond>  (1) 
-0.21543175405498208

>  <r_i_glide_ligand_efficiency>  (1) 
-0.17767215177310849

>  <r_i_glide_ligand_efficiency_ln>  (1) 
-0.88930959138099896

>  <r_i_glide_ligand_efficiency_sa>  (1) 
-0.48227641875124966

>  <r_i_glide_lipo>  (1) 
-3.1823572609984367

>  <r_i_glide_metal>  (1) 
-0

>  <r_i_glide_rewards>  (1) 
-1.8527120796801912

>  <r_lp_Energy>  (1) 
-7.5592219999999992

>  <s_epik_cmdline>  (1) 
J2VwaWtfcHl0aG9uJywgJy1waHQnLCAnMS4wJywgJy1waCcsICc3LjQnLCAnLXRuJywgJzgnLCAnLW1hJywgJzUwMCcsICctaW1hZScsICc8aW5maWxlLm1hZT4nLCAnLW9tYWUnLCAnPG91dGZpbGUubWFlPic=

>  <s_epik_input>  (1) 
W09IXUMoPU8pW0NAQEhdKFtOSDJdKVtDSDJdW0NAQEhdKFtPSF0pW0NIMl0vW0NIXT1bQ0hdL1tDSDJdW0NAQEhdKFtDSDNdKVtDSDJdXFtDSF09W0NIXVxbQ0gyXVtDSDJdW0NIM10=

>  <s_glide_docking_method>  (1) 
confgen

>  <s_i_glide_gridfile>  (1) 
gpcr_5ht2c_6bqh_protein_autoprepared_prepared

>  <s_lp_Force_Field>  (1) 
S-OPLS

>  <s_lp_Variant>  (1) 
DiffSBDD_14-2

>  <s_m_source_file>  (1) 
generated_GPCR_5HT2C_ligand_DiffSBDD_2026-06-23_prepared.sdf

>  <GenAI_Model>  (1) 
DiffSBDD

>  <Protein>  (1) 
GPCR_5HT2C

$$$$
DiffSBDD_76
     RDKit          3D

  0  0  0  0  0  0  0  0  0  0999 V3000
M  V30 BEGIN CTAB
M  V30 COUNTS 22 21 0 0 1
M  V30 BEGIN ATOM
M  V30 1 C 39.911365 26.113576 54.822449 0
M  V30 2 C 39.244750 27.199083 54.003880 0
M  V30 3 C 41.275320 30.516732 50.195145 0
M  V30 4 S 38.748624 25.338083 55.975774 0
M  V30 5 C 40.663789 29.605901 51.264448 0
M  V30 6 C 39.423059 28.876391 50.750259 0
M  V30 7 C 38.522206 28.288062 51.845231 0
M  V30 8 C 39.192649 27.202858 52.660976 0
M  V30 9 H 40.743317 26.537264 55.385384 0
M  V30 10 H 40.317249 25.345507 54.166802 0
M  V30 11 H 38.790256 28.008744 54.556974 0
M  V30 12 H 42.214054 30.937718 50.549108 0
M  V30 13 H 41.481145 29.981497 49.269516 0
M  V30 14 H 40.600892 31.337421 49.951731 0
M  V30 15 H 38.540768 26.427050 56.722350 0
M  V30 16 H 40.418792 30.205833 52.141956 0
M  V30 17 H 41.395522 28.865840 51.579166 0
M  V30 18 H 39.723294 28.094082 50.055935 0
M  V30 19 H 38.845142 29.585402 50.167761 0
M  V30 20 H 37.645132 27.844652 51.377083 0
M  V30 21 H 38.155490 29.078957 52.499881 0
M  V30 22 H 39.645168 26.394903 52.105800 0
M  V30 END ATOM
M  V30 BEGIN BOND
M  V30 1 1 2 1
M  V30 2 1 4 1
M  V30 3 1 5 3
M  V30 4 1 6 5
M  V30 5 1 7 6
M  V30 6 2 8 2
M  V30 7 1 8 7
M  V30 8 1 9 1
M  V30 9 1 10 1
M  V30 10 1 11 2
M  V30 11 1 12 3
M  V30 12 1 13 3
M  V30 13 1 14 3
M  V30 14 1 15 4
M  V30 15 1 16 5
M  V30 16 1 17 5
M  V30 17 1 18 6
M  V30 18 1 19 6
M  V30 19 1 20 7
M  V30 20 1 21 7
M  V30 21 1 22 8
M  V30 END BOND
M  V30 END CTAB
M  END
>  <i_epik_Tot_Q>  (1) 
0

>  <i_epik_Tot_abs_Q>  (1) 
0

>  <i_i_glide_confnum>  (1) 
25

>  <i_i_glide_lignum>  (1) 
176

>  <i_i_glide_posenum>  (1) 
197

>  <i_i_glide_rotatable_bonds>  (1) 
5

>  <i_lp_mmshare_version>  (1) 
72125

>  <i_m_source_file_index>  (1) 
77

>  <i_f3d_flags>  (1) 
0

>  <num_sample>  (1) 
100

>  <b_lp_Chiralities_Consistent>  (1) 
1

>  <r_epik_Charging_Adjusted_Penalty>  (1) 
0.0051523938583426443

>  <r_epik_Ionization_Penalty>  (1) 
0.0051523938583426451

>  <r_epik_Ionization_Penalty_Charging>  (1) 
0

>  <r_epik_Ionization_Penalty_Neutral>  (1) 
0.0051523938583426451

>  <r_epik_State_Penalty>  (1) 
0.0051523938583426443

>  <r_glide_ring_energy>  (1) 
0

>  <r_i_docking_score>  (1) 
-3.5244617327023726

>  <r_i_glide_ecoul>  (1) 
-0.17017673868307379

>  <r_i_glide_eff_state_penalty>  (1) 
0.0051523938583426443

>  <r_i_glide_einternal>  (1) 
2.7719238877031325

>  <r_i_glide_emodel>  (1) 
-22.155266184949792

>  <r_i_glide_emodel_strain>  (1) 
0.01799967466941943

>  <r_i_glide_energy>  (1) 
-18.766307776870324

>  <r_i_glide_erotb>  (1) 
2.4507048939468694

>  <r_i_glide_esite>  (1) 
0

>  <r_i_glide_evdw>  (1) 
-18.596131038187249

>  <r_i_glide_gscore>  (1) 
-3.5296141265607153

>  <r_i_glide_gscore_strain>  (1) 
0

>  <r_i_glide_hbond>  (1) 
0

>  <r_i_glide_ligand_efficiency>  (1) 
-0.44055771658779658

>  <r_i_glide_ligand_efficiency_ln>  (1) 
-1.1445132778132812

>  <r_i_glide_ligand_efficiency_sa>  (1) 
-0.88111543317559327

>  <r_i_glide_lipo>  (1) 
-2.014064859661123

>  <r_i_glide_metal>  (1) 
-0

>  <r_i_glide_rewards>  (1) 
-3.0109210981346379

>  <r_lp_Energy>  (1) 
-1.908774

>  <s_epik_cmdline>  (1) 
J2VwaWtfcHl0aG9uJywgJy1waHQnLCAnMS4wJywgJy1waCcsICc3LjQnLCAnLXRuJywgJzgnLCAnLW1hJywgJzUwMCcsICctaW1hZScsICc8aW5maWxlLm1hZT4nLCAnLW9tYWUnLCAnPG91dGZpbGUubWFlPic=

>  <s_epik_input>  (1) 
W1NIXVtDSDJdL1tDSF09W0NIXS9bQ0gyXVtDSDJdW0NIMl1bQ0gzXQ==

>  <s_glide_docking_method>  (1) 
confgen

>  <s_i_glide_gridfile>  (1) 
gpcr_5ht2c_6bqh_protein_autoprepared_prepared

>  <s_lp_Force_Field>  (1) 
S-OPLS

>  <s_lp_Variant>  (1) 
DiffSBDD_76-1

>  <s_m_source_file>  (1) 
generated_GPCR_5HT2C_ligand_DiffSBDD_2026-06-23_prepared.sdf

>  <GenAI_Model>  (1) 
DiffSBDD

>  <Protein>  (1) 
GPCR_5HT2C

$$$$
DiffSBDD_14
     RDKit          3D

  0  0  0  0  0  0  0  0  0  0999 V3000
M  V30 BEGIN CTAB
M  V30 COUNTS 49 48 0 0 1
M  V30 BEGIN ATOM
M  V30 1 C 39.305392 29.604297 57.528669 0
M  V30 2 C 38.721344 27.958914 51.768781 0
M  V30 3 C 37.855410 30.059989 57.580274 0
M  V30 4 C 38.161334 26.630509 53.835619 0
M  V30 5 O 39.078196 34.079960 60.333990 0 CHG=-1
M  V30 6 N 37.245137 33.337757 58.140853 0 CHG=1
M  V30 7 C 39.847704 28.913576 56.508675 0
M  V30 8 C 37.188672 32.874054 59.532008 0 CFG=2
M  V30 9 C 39.536825 28.266265 50.534517 0
M  V30 10 C 38.229546 26.343269 56.346212 0
M  V30 11 C 38.929303 26.966889 55.125483 0 CFG=2
M  V30 12 C 37.830436 33.986167 60.368163 0
M  V30 13 C 40.577253 29.376959 50.747948 0
M  V30 14 O 37.058503 34.726722 61.012725 0
M  V30 15 C 37.901110 31.508248 59.753019 0
M  V30 16 O 35.927331 30.301319 58.967762 0
M  V30 17 C 40.045131 30.667099 51.368262 0
M  V30 18 C 38.976749 26.937755 52.597185 0
M  V30 19 C 39.092985 28.495736 55.258911 0
M  V30 20 C 37.335604 30.269932 59.011849 0 CFG=1
M  V30 21 H 39.921548 29.861223 58.376282 0
M  V30 22 H 37.890218 28.617581 51.974650 0
M  V30 23 H 37.237832 29.291349 57.117202 0
M  V30 24 H 37.736728 30.957445 56.975440 0
M  V30 25 H 37.892476 25.575747 53.811858 0
M  V30 26 H 37.219920 27.181289 53.804750 0
M  V30 27 H 36.855685 34.269205 58.099338 0
M  V30 28 H 38.206475 33.364054 57.836160 0
M  V30 29 H 40.887653 28.625023 56.558064 0
M  V30 30 H 36.137493 32.787010 59.812305 0
M  V30 31 H 40.042222 27.359697 50.198605 0
M  V30 32 H 38.845145 28.537763 49.744597 0
M  V30 33 H 37.245137 26.780264 56.505594 0
M  V30 34 H 38.100882 25.267952 56.219911 0
M  V30 35 H 38.807097 26.489519 57.259163 0
M  V30 36 H 39.922087 26.517229 55.060152 0
M  V30 37 H 41.383320 28.985617 51.367762 0
M  V30 38 H 41.022693 29.648441 49.790523 0
M  V30 39 H 37.841841 31.292975 60.821136 0
M  V30 40 H 38.967798 31.592818 59.546168 0
M  V30 41 H 35.645139 30.850305 58.233282 0
M  V30 42 H 40.871054 31.347537 51.549517 0
M  V30 43 H 39.347382 31.161993 50.691862 0
M  V30 44 H 39.558035 30.497920 52.328058 0
M  V30 45 H 39.809547 26.281588 52.393243 0
M  V30 46 H 38.119193 28.977556 55.196586 0
M  V30 47 H 39.645137 28.890600 54.407842 0
M  V30 48 H 37.600562 29.384750 59.592523 0
M  V30 49 H 36.692246 32.719897 57.550682 0
M  V30 END ATOM
M  V30 BEGIN BOND
M  V30 1 1 3 1
M  V30 2 2 7 1
M  V30 3 1 8 6
M  V30 4 1 9 2
M  V30 5 1 11 4
M  V30 6 1 11 10
M  V30 7 1 12 5
M  V30 8 1 12 8
M  V30 9 1 13 9
M  V30 10 2 14 12
M  V30 11 1 15 8
M  V30 12 1 17 13
M  V30 13 2 18 2
M  V30 14 1 18 4
M  V30 15 1 19 7
M  V30 16 1 19 11
M  V30 17 1 20 3
M  V30 18 1 20 15
M  V30 19 1 20 16
M  V30 20 1 21 1
M  V30 21 1 22 2
M  V30 22 1 23 3
M  V30 23 1 24 3
M  V30 24 1 25 4
M  V30 25 1 26 4
M  V30 26 1 27 6
M  V30 27 1 28 6
M  V30 28 1 29 7
M  V30 29 1 8 30 CFG=1
M  V30 30 1 31 9
M  V30 31 1 32 9
M  V30 32 1 33 10
M  V30 33 1 34 10
M  V30 34 1 35 10
M  V30 35 1 11 36 CFG=3
M  V30 36 1 37 13
M  V30 37 1 38 13
M  V30 38 1 39 15
M  V30 39 1 40 15
M  V30 40 1 41 16
M  V30 41 1 42 17
M  V30 42 1 43 17
M  V30 43 1 44 17
M  V30 44 1 45 18
M  V30 45 1 46 19
M  V30 46 1 47 19
M  V30 47 1 20 48 CFG=1
M  V30 48 1 49 6
M  V30 END BOND
M  V30 END CTAB
M  END
>  <i_epik_Tot_Q>  (1) 
0

>  <i_epik_Tot_abs_Q>  (1) 
2

>  <i_i_glide_confnum>  (1) 
165

>  <i_i_glide_lignum>  (1) 
23

>  <i_i_glide_posenum>  (1) 
155

>  <i_i_glide_rotatable_bonds>  (1) 
12

>  <i_lp_mmshare_version>  (1) 
72125

>  <i_m_source_file_index>  (1) 
15

>  <i_f3d_flags>  (1) 
0

>  <num_sample>  (1) 
100

>  <b_lp_Chiralities_Consistent>  (1) 
1

>  <r_epik_Charging_Adjusted_Penalty>  (1) 
0.00991281995240933

>  <r_epik_Ionization_Penalty>  (1) 
0.0049587358016132182

>  <r_epik_Ionization_Penalty_Charging>  (1) 
0.0049586922537287062

>  <r_epik_Ionization_Penalty_Neutral>  (1) 
4.3547884512074136e-08

>  <r_epik_State_Penalty>  (1) 
0.0049541276986806238

>  <r_glide_ring_energy>  (1) 
0

>  <r_i_docking_score>  (1) 
-3.5226964535761169

>  <r_i_glide_ecoul>  (1) 
-8.4759343524060142

>  <r_i_glide_eff_state_penalty>  (1) 
0.0049541276986806238

>  <r_i_glide_einternal>  (1) 
6.3856916234611365

>  <r_i_glide_emodel>  (1) 
-39.144215202439931

>  <r_i_glide_emodel_strain>  (1) 
1.3844645324656302

>  <r_i_glide_energy>  (1) 
-33.591998199693386

>  <r_i_glide_erotb>  (1) 
4.0583376510001772

>  <r_i_glide_esite>  (1) 
-0.079265669642225992

>  <r_i_glide_evdw>  (1) 
-25.116063847287371

>  <r_i_glide_gscore>  (1) 
-3.5276505812747976

>  <r_i_glide_gscore_strain>  (1) 
0

>  <r_i_glide_hbond>  (1) 
-0.35999999999999999

>  <r_i_glide_ligand_efficiency>  (1) 
-0.17613482267880584

>  <r_i_glide_ligand_efficiency_ln>  (1) 
-0.88161473602506057

>  <r_i_glide_ligand_efficiency_sa>  (1) 
-0.47810346557517069

>  <r_i_glide_lipo>  (1) 
-2.5783327844859167

>  <r_i_glide_metal>  (1) 
-0

>  <r_i_glide_rewards>  (1) 
-2.0411964329215606

>  <r_lp_Energy>  (1) 
-4.478593

>  <s_epik_cmdline>  (1) 
J2VwaWtfcHl0aG9uJywgJy1waHQnLCAnMS4wJywgJy1waCcsICc3LjQnLCAnLXRuJywgJzgnLCAnLW1hJywgJzUwMCcsICctaW1hZScsICc8aW5maWxlLm1hZT4nLCAnLW9tYWUnLCAnPG91dGZpbGUubWFlPic=

>  <s_epik_input>  (1) 
W09IXUMoPU8pW0NAQEhdKFtOSDJdKVtDSDJdW0NAQEhdKFtPSF0pW0NIMl0vW0NIXT1bQ0hdXFtDSDJdW0NAQEhdKFtDSDNdKVtDSDJdXFtDSF09W0NIXVxbQ0gyXVtDSDJdW0NIM10=

>  <s_glide_docking_method>  (1) 
confgen

>  <s_i_glide_gridfile>  (1) 
gpcr_5ht2c_6bqh_protein_autoprepared_prepared

>  <s_lp_Force_Field>  (1) 
S-OPLS

>  <s_lp_Variant>  (1) 
DiffSBDD_14-1

>  <s_m_source_file>  (1) 
generated_GPCR_5HT2C_ligand_DiffSBDD_2026-06-23_prepared.sdf

>  <GenAI_Model>  (1) 
DiffSBDD

>  <Protein>  (1) 
GPCR_5HT2C

$$$$
DiffSBDD_67
     RDKit          3D

  0  0  0  0  0  0  0  0  0  0999 V3000
M  V30 BEGIN CTAB
M  V30 COUNTS 77 78 0 0 1
M  V30 BEGIN ATOM
M  V30 1 C 38.670797 31.633864 57.826422 0
M  V30 2 O 41.087353 30.137691 50.538454 0
M  V30 3 O 36.845261 27.248954 54.348659 0 CHG=-1
M  V30 4 C 38.629584 31.203490 59.297149 0 CFG=1
M  V30 5 O 36.547307 30.537768 60.387112 0
M  V30 6 C 40.144968 29.513595 51.017818 0
M  V30 7 C 38.940391 32.401862 60.319441 0 CFG=1
M  V30 8 C 38.045158 32.828736 57.416809 0
M  V30 9 C 37.123370 29.194022 58.485699 0
M  V30 10 C 37.672223 32.956324 61.015825 0
M  V30 11 N 37.432112 36.818508 61.621463 0 CFG=2 CHG=1
M  V30 12 C 40.183013 30.420445 54.507108 0
M  V30 13 C 36.445131 38.888735 61.767763 0
M  V30 14 C 40.832051 31.569623 63.720678 0
M  V30 15 C 38.077761 33.211687 56.065524 0
M  V30 16 C 40.826865 33.607809 61.694915 0
M  V30 17 C 40.387888 31.114080 62.314067 0
M  V30 18 C 39.391186 31.235383 55.522399 0
M  V30 19 C 39.410576 29.563512 53.488386 0 CFG=2
M  V30 20 C 36.506223 36.830337 62.815847 0
M  V30 21 C 37.207523 38.029336 60.795944 0
M  V30 22 C 35.719772 38.150353 62.841654 0
M  V30 23 C 39.268324 30.088291 62.442764 0
M  V30 24 O 38.765360 26.891013 53.411181 0
M  V30 25 O 36.445147 40.113574 61.702697 0
M  V30 26 C 37.649019 34.326522 61.673484 0
M  V30 27 C 37.501583 35.574444 60.804583 0
M  V30 28 C 37.921466 27.662703 53.914764 0
M  V30 29 C 39.816894 28.093766 50.574584 0
M  V30 30 C 39.245212 30.123970 52.077987 0
M  V30 31 C 40.225557 32.251869 61.246158 0 CFG=1
M  V30 32 C 39.338294 30.831933 56.872698 0
M  V30 33 N 38.181098 28.976553 53.991953 0
M  V30 34 C 37.348428 30.331597 59.479320 0
M  V30 35 C 38.743846 32.413139 55.121808 0
M  V30 36 H 39.453901 30.499889 59.406477 0
M  V30 37 H 39.246281 33.222648 59.673552 0
M  V30 38 H 37.528836 33.444904 58.134956 0
M  V30 39 H 37.799505 28.363277 58.686085 0
M  V30 40 H 36.092371 28.853609 58.568405 0
M  V30 41 H 37.250003 29.510180 57.453908 0
M  V30 42 H 36.847762 32.963067 60.298535 0
M  V30 43 H 37.404272 32.260897 61.811155 0
M  V30 44 H 40.853515 31.095202 53.975960 0
M  V30 45 H 40.842604 29.762794 55.073437 0
M  V30 46 H 40.080347 32.190926 64.208435 0
M  V30 47 H 41.015499 30.709936 64.364679 0
M  V30 48 H 41.771955 32.120221 63.690766 0
M  V30 49 H 37.591996 34.121257 55.751352 0
M  V30 50 H 40.454450 33.944592 62.659706 0
M  V30 51 H 41.909576 33.531828 61.790733 0
M  V30 52 H 40.634543 34.403864 60.978047 0
M  V30 53 H 41.229877 30.513440 61.965357 0
M  V30 54 H 40.045130 28.738922 53.285173 0
M  V30 55 H 35.804008 36.000505 62.876823 0
M  V30 56 H 37.120850 36.755962 63.715168 0
M  V30 57 H 38.139008 38.491606 60.468469 0
M  V30 58 H 36.585869 37.795654 59.930513 0
M  V30 59 H 35.779708 38.677882 63.786369 0
M  V30 60 H 34.672328 38.040812 62.566063 0
M  V30 61 H 38.372753 30.502723 62.899780 0
M  V30 62 H 39.011265 29.621784 61.496737 0
M  V30 63 H 39.645139 29.286678 63.078100 0
M  V30 64 H 36.691054 34.259088 62.167760 0
M  V30 65 H 38.445007 34.444046 62.405129 0
M  V30 66 H 38.356120 35.643326 60.133665 0
M  V30 67 H 36.608011 35.494921 60.181168 0
M  V30 68 H 38.783066 28.029796 50.242941 0
M  V30 69 H 40.445141 27.765893 49.767760 0
M  V30 70 H 39.956183 27.391740 51.392931 0
M  V30 71 H 38.289306 29.737738 51.726470 0
M  V30 72 H 39.268383 31.211983 52.057508 0
M  V30 73 H 41.004704 31.943089 60.567751 0
M  V30 74 H 39.831036 29.922424 57.183260 0
M  V30 75 H 37.499208 29.588888 54.413184 0
M  V30 76 H 38.770917 32.711233 54.092263 0
M  V30 77 H 38.351500 36.929669 62.025166 0
M  V30 END ATOM
M  V30 BEGIN BOND
M  V30 1 1 4 1
M  V30 2 2 6 2
M  V30 3 1 7 4
M  V30 4 2 8 1
M  V30 5 1 10 7
M  V30 6 1 15 8
M  V30 7 1 17 14
M  V30 8 1 18 12
M  V30 9 1 19 12
M  V30 10 1 20 11
M  V30 11 1 21 11
M  V30 12 1 21 13
M  V30 13 1 22 13
M  V30 14 1 22 20
M  V30 15 1 23 17
M  V30 16 2 25 13
M  V30 17 1 26 10
M  V30 18 1 27 11
M  V30 19 1 27 26
M  V30 20 1 28 3
M  V30 21 2 28 24
M  V30 22 1 29 6
M  V30 23 1 30 6
M  V30 24 1 30 19
M  V30 25 1 31 7
M  V30 26 1 31 16
M  V30 27 1 31 17
M  V30 28 1 32 1
M  V30 29 2 32 18
M  V30 30 1 33 19
M  V30 31 1 33 28
M  V30 32 1 34 4
M  V30 33 2 34 5
M  V30 34 1 34 9
M  V30 35 2 35 15
M  V30 36 1 35 18
M  V30 37 1 4 36 CFG=3
M  V30 38 1 7 37 CFG=3
M  V30 39 1 38 8
M  V30 40 1 39 9
M  V30 41 1 40 9
M  V30 42 1 41 9
M  V30 43 1 42 10
M  V30 44 1 43 10
M  V30 45 1 44 12
M  V30 46 1 45 12
M  V30 47 1 46 14
M  V30 48 1 47 14
M  V30 49 1 48 14
M  V30 50 1 49 15
M  V30 51 1 50 16
M  V30 52 1 51 16
M  V30 53 1 52 16
M  V30 54 1 53 17
M  V30 55 1 19 54 CFG=3
M  V30 56 1 55 20
M  V30 57 1 56 20
M  V30 58 1 57 21
M  V30 59 1 58 21
M  V30 60 1 59 22
M  V30 61 1 60 22
M  V30 62 1 61 23
M  V30 63 1 62 23
M  V30 64 1 63 23
M  V30 65 1 64 26
M  V30 66 1 65 26
M  V30 67 1 66 27
M  V30 68 1 67 27
M  V30 69 1 68 29
M  V30 70 1 69 29
M  V30 71 1 70 29
M  V30 72 1 71 30
M  V30 73 1 72 30
M  V30 74 1 31 73 CFG=3
M  V30 75 1 74 32
M  V30 76 1 75 33
M  V30 77 1 76 35
M  V30 78 1 11 77 CFG=1
M  V30 END BOND
M  V30 END CTAB
M  END
>  <i_epik_Tot_Q>  (1) 
0

>  <i_epik_Tot_abs_Q>  (1) 
2

>  <i_i_glide_confnum>  (1) 
959

>  <i_i_glide_lignum>  (1) 
149

>  <i_i_glide_posenum>  (1) 
147

>  <i_i_glide_rotatable_bonds>  (1) 
15

>  <i_lp_mmshare_version>  (1) 
72125

>  <i_m_source_file_index>  (1) 
68

>  <i_f3d_flags>  (1) 
0

>  <num_sample>  (1) 
100

>  <b_lp_Chiralities_Consistent>  (1) 
1

>  <r_epik_Charging_Adjusted_Penalty>  (1) 
0.5296149838886226

>  <r_epik_Ionization_Penalty>  (1) 
0.26529925199373078

>  <r_epik_Ionization_Penalty_Charging>  (1) 
0.26525061984488274

>  <r_epik_Ionization_Penalty_Neutral>  (1) 
4.8632148848023016e-05

>  <r_epik_State_Penalty>  (1) 
0.26436436404373981

>  <r_glide_ring_energy>  (1) 
0

>  <r_i_docking_score>  (1) 
-3.5192612366542644

>  <r_i_glide_ecoul>  (1) 
0.87580958630367711

>  <r_i_glide_eff_state_penalty>  (1) 
0.26436436404373981

>  <r_i_glide_einternal>  (1) 
31.728775364529156

>  <r_i_glide_emodel>  (1) 
-16.457883987853627

>  <r_i_glide_emodel_strain>  (1) 
9.3018765593962982

>  <r_i_glide_energy>  (1) 
-29.00294850331057

>  <r_i_glide_erotb>  (1) 
0.8581402996549512

>  <r_i_glide_esite>  (1) 
-0.025658202859464647

>  <r_i_glide_evdw>  (1) 
-29.878758089614248

>  <r_i_glide_gscore>  (1) 
-3.783625600698004

>  <r_i_glide_gscore_strain>  (1) 
1.3254691398490746

>  <r_i_glide_hbond>  (1) 
0

>  <r_i_glide_ligand_efficiency>  (1) 
-0.10055032104726469

>  <r_i_glide_ligand_efficiency_ln>  (1) 
-0.77255594724052978

>  <r_i_glide_ligand_efficiency_sa>  (1) 
-0.32890676765635429

>  <r_i_glide_lipo>  (1) 
-2.6877284131292836

>  <r_i_glide_metal>  (1) 
-0

>  <r_i_glide_rewards>  (1) 
-1.8912819576781201

>  <r_lp_Energy>  (1) 
28.989404

>  <r_lp_tautomer_probability>  (1) 
0.99994994000300153

>  <s_epik_cmdline>  (1) 
J2VwaWtfcHl0aG9uJywgJy1waHQnLCAnMS4wJywgJy1waCcsICc3LjQnLCAnLXRuJywgJzgnLCAnLW1hJywgJzUwMCcsICctaW1hZScsICc8aW5maWxlLm1hZT4nLCAnLW9tYWUnLCAnPG91dGZpbGUubWFlPic=

>  <s_epik_input>  (1) 
Tz1DKFtDSDNdKVtDSDJdW0NASF0oW05IXUMoPU8pW09IXSlbQ0gyXWMoW2NIXTEpW2NIXVtjSF1bY0hdYzFbQ0BIXShDKD1PKVtDSDNdKVtDQEhdKFtDQEBIXShbQ0gzXSlbQ0hdKFtDSDNdKVtDSDNdKVtDSDJdW0NIMl1bQ0gyXU4yW0NIMl1bQ0gyXUMoPU8pW0NIMl0y

>  <s_glide_docking_method>  (1) 
confgen

>  <s_i_glide_gridfile>  (1) 
gpcr_5ht2c_6bqh_protein_autoprepared_prepared

>  <s_lp_Force_Field>  (1) 
S-OPLS

>  <s_lp_Variant>  (1) 
DiffSBDD_67-1

>  <s_m_source_file>  (1) 
generated_GPCR_5HT2C_ligand_DiffSBDD_2026-06-23_prepared.sdf

>  <GenAI_Model>  (1) 
DiffSBDD

>  <Protein>  (1) 
GPCR_5HT2C

$$$$
DiffSBDD_14
     RDKit          3D

  0  0  0  0  0  0  0  0  0  0999 V3000
M  V30 BEGIN CTAB
M  V30 COUNTS 49 48 0 0 1
M  V30 BEGIN ATOM
M  V30 1 C 38.206872 27.908890 58.060250 0
M  V30 2 C 40.048166 28.200123 51.611044 0
M  V30 3 C 38.384923 28.695632 59.359007 0
M  V30 4 C 38.110599 27.436079 53.079052 0
M  V30 5 O 37.645138 31.337750 61.945251 0 CHG=-1
M  V30 6 N 36.622769 32.880225 58.967760 0 CHG=1
M  V30 7 C 38.719822 28.268840 56.868222 0
M  V30 8 C 37.293498 31.752002 59.634909 0 CFG=2
M  V30 9 C 39.231618 29.159089 50.771804 0
M  V30 10 C 38.389047 29.682319 54.272587 0
M  V30 11 C 37.918377 28.218706 54.398226 0 CFG=2
M  V30 12 C 37.680372 32.203979 61.048190 0
M  V30 13 C 39.915189 30.516378 50.548989 0
M  V30 14 O 38.006480 33.402456 61.199595 0
M  V30 15 C 38.521615 31.251639 58.816397 0
M  V30 16 O 39.860929 30.173631 60.567757 0
M  V30 17 C 41.249911 30.395015 49.811521 0
M  V30 18 C 39.561164 27.442255 52.614613 0
M  V30 19 C 38.551248 27.461173 55.592578 0
M  V30 20 C 39.259071 29.966516 59.305293 0 CFG=1
M  V30 21 H 37.629643 26.999211 58.132049 0
M  V30 22 H 41.094793 28.137756 51.367714 0
M  V30 23 H 38.832397 27.989966 60.060229 0
M  V30 24 H 37.406032 28.937758 59.767620 0
M  V30 25 H 37.813573 26.397702 53.227107 0
M  V30 26 H 37.427088 27.803962 52.317026 0
M  V30 27 H 35.885223 33.218493 59.567160 0
M  V30 28 H 37.291920 33.621047 58.819377 0
M  V30 29 H 39.295570 29.175516 56.783665 0
M  V30 30 H 36.544546 30.963716 59.707184 0
M  V30 31 H 39.059735 28.675288 49.809853 0
M  V30 32 H 38.256900 29.337754 51.207971 0
M  V30 33 H 39.476470 29.755244 54.235444 0
M  V30 34 H 37.998797 30.142154 53.367795 0
M  V30 35 H 38.039667 30.289225 55.108549 0
M  V30 36 H 36.845139 28.259724 54.567768 0
M  V30 37 H 39.248034 31.147189 49.959941 0
M  V30 38 H 40.060511 31.033102 51.499151 0
M  V30 39 H 39.244920 32.065594 58.748658 0
M  V30 40 H 38.194171 31.078272 57.790327 0
M  V30 41 H 39.188496 30.465829 61.180442 0
M  V30 42 H 41.571132 31.337762 49.396482 0
M  V30 43 H 42.041046 30.068379 50.484610 0
M  V30 44 H 41.179038 29.712830 48.967764 0
M  V30 45 H 40.231817 26.785708 53.148190 0
M  V30 46 H 39.553877 27.126085 55.330181 0
M  V30 47 H 37.977920 26.555395 55.799280 0
M  V30 48 H 40.110965 29.760566 58.658391 0
M  V30 49 H 36.225247 32.563626 58.081735 0
M  V30 END ATOM
M  V30 BEGIN BOND
M  V30 1 1 3 1
M  V30 2 2 7 1
M  V30 3 1 8 6
M  V30 4 1 9 2
M  V30 5 1 11 4
M  V30 6 1 11 10
M  V30 7 1 12 5
M  V30 8 1 12 8
M  V30 9 1 13 9
M  V30 10 2 14 12
M  V30 11 1 15 8
M  V30 12 1 17 13
M  V30 13 2 18 2
M  V30 14 1 18 4
M  V30 15 1 19 7
M  V30 16 1 19 11
M  V30 17 1 20 3
M  V30 18 1 20 15
M  V30 19 1 20 16
M  V30 20 1 21 1
M  V30 21 1 22 2
M  V30 22 1 23 3
M  V30 23 1 24 3
M  V30 24 1 25 4
M  V30 25 1 26 4
M  V30 26 1 27 6
M  V30 27 1 28 6
M  V30 28 1 29 7
M  V30 29 1 8 30 CFG=1
M  V30 30 1 31 9
M  V30 31 1 32 9
M  V30 32 1 33 10
M  V30 33 1 34 10
M  V30 34 1 35 10
M  V30 35 1 11 36 CFG=1
M  V30 36 1 37 13
M  V30 37 1 38 13
M  V30 38 1 39 15
M  V30 39 1 40 15
M  V30 40 1 41 16
M  V30 41 1 42 17
M  V30 42 1 43 17
M  V30 43 1 44 17
M  V30 44 1 45 18
M  V30 45 1 46 19
M  V30 46 1 47 19
M  V30 47 1 20 48 CFG=3
M  V30 48 1 49 6
M  V30 END BOND
M  V30 END CTAB
M  END
>  <i_epik_Tot_Q>  (1) 
0

>  <i_epik_Tot_abs_Q>  (1) 
2

>  <i_i_glide_confnum>  (1) 
674

>  <i_i_glide_lignum>  (1) 
26

>  <i_i_glide_posenum>  (1) 
125

>  <i_i_glide_rotatable_bonds>  (1) 
12

>  <i_lp_mmshare_version>  (1) 
72125

>  <i_m_source_file_index>  (1) 
15

>  <i_f3d_flags>  (1) 
0

>  <num_sample>  (1) 
100

>  <b_lp_Chiralities_Consistent>  (1) 
1

>  <r_epik_Charging_Adjusted_Penalty>  (1) 
0.00991281995240933

>  <r_epik_Ionization_Penalty>  (1) 
0.0049587358016132182

>  <r_epik_Ionization_Penalty_Charging>  (1) 
0.0049586922537287062

>  <r_epik_Ionization_Penalty_Neutral>  (1) 
4.3547884512074136e-08

>  <r_epik_State_Penalty>  (1) 
0.0049541276986806238

>  <r_glide_ring_energy>  (1) 
0

>  <r_i_docking_score>  (1) 
-3.5177560466357103

>  <r_i_glide_ecoul>  (1) 
-6.5073413282892041

>  <r_i_glide_eff_state_penalty>  (1) 
0.0049541276986806238

>  <r_i_glide_einternal>  (1) 
7.6711570410977057

>  <r_i_glide_emodel>  (1) 
-34.313673368628585

>  <r_i_glide_emodel_strain>  (1) 
2.5229253340462066

>  <r_i_glide_energy>  (1) 
-31.34824878318808

>  <r_i_glide_erotb>  (1) 
4.0583376510001772

>  <r_i_glide_esite>  (1) 
-0.10000000000000001

>  <r_i_glide_evdw>  (1) 
-24.840907454898876

>  <r_i_glide_gscore>  (1) 
-3.5227101743343909

>  <r_i_glide_gscore_strain>  (1) 
0

>  <r_i_glide_hbond>  (1) 
-0.34607609891539481

>  <r_i_glide_ligand_efficiency>  (1) 
-0.17588780233178553

>  <r_i_glide_ligand_efficiency_ln>  (1) 
-0.88037831511340314

>  <r_i_glide_ligand_efficiency_sa>  (1) 
-0.47743294919356133

>  <r_i_glide_lipo>  (1) 
-2.6731555505540743

>  <r_i_glide_metal>  (1) 
-0

>  <r_i_glide_rewards>  (1) 
-2.2436696038767741

>  <r_lp_Energy>  (1) 
-3.8776999999999999

>  <s_epik_cmdline>  (1) 
J2VwaWtfcHl0aG9uJywgJy1waHQnLCAnMS4wJywgJy1waCcsICc3LjQnLCAnLXRuJywgJzgnLCAnLW1hJywgJzUwMCcsICctaW1hZScsICc8aW5maWxlLm1hZT4nLCAnLW9tYWUnLCAnPG91dGZpbGUubWFlPic=

>  <s_epik_input>  (1) 
W09IXUMoPU8pW0NAQEhdKFtOSDJdKVtDSDJdW0NAQEhdKFtPSF0pW0NIMl0vW0NIXT1bQ0hdL1tDSDJdW0NAQEhdKFtDSDNdKVtDSDJdL1tDSF09W0NIXVxbQ0gyXVtDSDJdW0NIM10=

>  <s_glide_docking_method>  (1) 
confgen

>  <s_i_glide_gridfile>  (1) 
gpcr_5ht2c_6bqh_protein_autoprepared_prepared

>  <s_lp_Force_Field>  (1) 
S-OPLS

>  <s_lp_Variant>  (1) 
DiffSBDD_14-4

>  <s_m_source_file>  (1) 
generated_GPCR_5HT2C_ligand_DiffSBDD_2026-06-23_prepared.sdf

>  <GenAI_Model>  (1) 
DiffSBDD

>  <Protein>  (1) 
GPCR_5HT2C

$$$$
DiffSBDD_14
     RDKit          3D

  0  0  0  0  0  0  0  0  0  0999 V3000
M  V30 BEGIN CTAB
M  V30 COUNTS 49 48 0 0 1
M  V30 BEGIN ATOM
M  V30 1 C 40.402526 27.509728 57.946840 0
M  V30 2 C 38.566114 28.344212 51.453609 0
M  V30 3 C 40.969361 28.366177 59.061653 0
M  V30 4 C 38.498315 26.881648 53.524044 0
M  V30 5 O 39.419518 32.302196 60.568042 0 CHG=-1
M  V30 6 N 37.245139 31.779155 58.633068 0 CHG=1
M  V30 7 C 40.640403 27.723366 56.644157 0
M  V30 8 C 37.834396 30.825782 59.588502 0 CFG=2
M  V30 9 C 40.059493 28.242457 51.256367 0
M  V30 10 C 38.022694 28.429085 55.501734 0
M  V30 11 C 39.091868 27.727147 54.658771 0 CFG=1
M  V30 12 C 38.342448 31.690254 60.742923 0
M  V30 13 C 40.720905 29.622090 51.075761 0
M  V30 14 O 37.629621 31.737737 61.768100 0
M  V30 15 C 38.918413 29.937971 58.914029 0
M  V30 16 O 39.102082 28.163212 60.540685 0
M  V30 17 C 40.254893 30.389567 49.838354 0
M  V30 18 C 37.877603 27.750939 52.447615 0
M  V30 19 C 40.046295 26.888419 55.530850 0
M  V30 20 C 39.860467 29.115050 59.834626 0 CFG=1
M  V30 21 H 39.764773 26.690460 58.244287 0
M  V30 22 H 38.045140 28.937739 50.737203 0
M  V30 23 H 41.667740 29.090553 58.640727 0
M  V30 24 H 41.553005 27.738032 59.736044 0
M  V30 25 H 39.269111 26.251552 53.081718 0
M  V30 26 H 37.743234 26.194146 53.907019 0
M  V30 27 H 36.641776 32.402450 59.149007 0
M  V30 28 H 37.982275 32.325557 58.213937 0
M  V30 29 H 41.281671 28.537755 56.344740 0
M  V30 30 H 37.036434 30.179524 59.959978 0
M  V30 31 H 40.511095 27.737770 52.102540 0
M  V30 32 H 40.240463 27.622797 50.377693 0
M  V30 33 H 37.645119 27.753663 56.266654 0
M  V30 34 H 38.439340 29.301319 56.003805 0
M  V30 35 H 37.195029 28.791955 54.894596 0
M  V30 36 H 39.645142 28.535064 54.188799 0
M  V30 37 H 40.565349 30.233476 51.966056 0
M  V30 38 H 41.794240 29.486900 50.967762 0
M  V30 39 H 39.531853 30.537752 58.245586 0
M  V30 40 H 38.388003 29.247477 58.260796 0
M  V30 41 H 38.715202 27.563936 59.922648 0
M  V30 42 H 40.905152 31.243596 49.645950 0
M  V30 43 H 40.273483 29.737743 48.967739 0
M  V30 44 H 39.245138 30.775937 49.957114 0
M  V30 45 H 36.809143 27.890834 52.505341 0
M  V30 46 H 40.845123 26.472174 54.920846 0
M  V30 47 H 39.513460 26.036846 55.956823 0
M  V30 48 H 40.344042 29.760172 60.568318 0
M  V30 49 H 36.685724 31.337650 57.908945 0
M  V30 END ATOM
M  V30 BEGIN BOND
M  V30 1 1 3 1
M  V30 2 2 7 1
M  V30 3 1 8 6
M  V30 4 1 9 2
M  V30 5 1 11 4
M  V30 6 1 11 10
M  V30 7 1 12 5
M  V30 8 1 12 8
M  V30 9 1 13 9
M  V30 10 2 14 12
M  V30 11 1 15 8
M  V30 12 1 17 13
M  V30 13 2 18 2
M  V30 14 1 18 4
M  V30 15 1 19 7
M  V30 16 1 19 11
M  V30 17 1 20 3
M  V30 18 1 20 15
M  V30 19 1 20 16
M  V30 20 1 21 1
M  V30 21 1 22 2
M  V30 22 1 23 3
M  V30 23 1 24 3
M  V30 24 1 25 4
M  V30 25 1 26 4
M  V30 26 1 27 6
M  V30 27 1 28 6
M  V30 28 1 29 7
M  V30 29 1 8 30 CFG=1
M  V30 30 1 31 9
M  V30 31 1 32 9
M  V30 32 1 33 10
M  V30 33 1 34 10
M  V30 34 1 35 10
M  V30 35 1 11 36 CFG=3
M  V30 36 1 37 13
M  V30 37 1 38 13
M  V30 38 1 39 15
M  V30 39 1 40 15
M  V30 40 1 41 16
M  V30 41 1 42 17
M  V30 42 1 43 17
M  V30 43 1 44 17
M  V30 44 1 45 18
M  V30 45 1 46 19
M  V30 46 1 47 19
M  V30 47 1 20 48 CFG=1
M  V30 48 1 49 6
M  V30 END BOND
M  V30 END CTAB
M  END
>  <i_epik_Tot_Q>  (1) 
0

>  <i_epik_Tot_abs_Q>  (1) 
2

>  <i_i_glide_confnum>  (1) 
189

>  <i_i_glide_lignum>  (1) 
30

>  <i_i_glide_posenum>  (1) 
171

>  <i_i_glide_rotatable_bonds>  (1) 
12

>  <i_lp_mmshare_version>  (1) 
72125

>  <i_m_source_file_index>  (1) 
15

>  <i_f3d_flags>  (1) 
0

>  <num_sample>  (1) 
100

>  <b_lp_Chiralities_Consistent>  (1) 
1

>  <r_epik_Charging_Adjusted_Penalty>  (1) 
0.00991281995240933

>  <r_epik_Ionization_Penalty>  (1) 
0.0049587358016132182

>  <r_epik_Ionization_Penalty_Charging>  (1) 
0.0049586922537287062

>  <r_epik_Ionization_Penalty_Neutral>  (1) 
4.3547884512074136e-08

>  <r_epik_State_Penalty>  (1) 
0.0049541276986806238

>  <r_glide_ring_energy>  (1) 
0

>  <r_i_docking_score>  (1) 
-3.4845881473304599

>  <r_i_glide_ecoul>  (1) 
-4.9721617061230665

>  <r_i_glide_eff_state_penalty>  (1) 
0.0049541276986806238

>  <r_i_glide_einternal>  (1) 
9.5336612794101683

>  <r_i_glide_emodel>  (1) 
-32.505320134435237

>  <r_i_glide_emodel_strain>  (1) 
0.39033369556567621

>  <r_i_glide_energy>  (1) 
-28.847776044940883

>  <r_i_glide_erotb>  (1) 
4.0583376510001772

>  <r_i_glide_esite>  (1) 
-0.10000000000000001

>  <r_i_glide_evdw>  (1) 
-23.875614338817815

>  <r_i_glide_gscore>  (1) 
-3.4895422750291405

>  <r_i_glide_gscore_strain>  (1) 
0

>  <r_i_glide_hbond>  (1) 
-0.2281925150454992

>  <r_i_glide_ligand_efficiency>  (1) 
-0.17422940736652298

>  <r_i_glide_ligand_efficiency_ln>  (1) 
-0.8720774838678329

>  <r_i_glide_ligand_efficiency_sa>  (1) 
-0.47293137268458041

>  <r_i_glide_lipo>  (1) 
-3.1372402132444619

>  <r_i_glide_metal>  (1) 
-0

>  <r_i_glide_rewards>  (1) 
-2.1428422248800061

>  <r_lp_Energy>  (1) 
-3.5603029999999998

>  <s_epik_cmdline>  (1) 
J2VwaWtfcHl0aG9uJywgJy1waHQnLCAnMS4wJywgJy1waCcsICc3LjQnLCAnLXRuJywgJzgnLCAnLW1hJywgJzUwMCcsICctaW1hZScsICc8aW5maWxlLm1hZT4nLCAnLW9tYWUnLCAnPG91dGZpbGUubWFlPic=

>  <s_epik_input>  (1) 
W09IXUMoPU8pW0NAQEhdKFtOSDJdKVtDSDJdW0NAQEhdKFtPSF0pW0NIMl0vW0NIXT1bQ0hdL1tDSDJdW0NAQEhdKFtDSDNdKVtDSDJdL1tDSF09W0NIXVxbQ0gyXVtDSDJdW0NIM10=

>  <s_glide_docking_method>  (1) 
confgen

>  <s_i_glide_gridfile>  (1) 
gpcr_5ht2c_6bqh_protein_autoprepared_prepared

>  <s_lp_Force_Field>  (1) 
S-OPLS

>  <s_lp_Variant>  (1) 
DiffSBDD_14-8

>  <s_m_source_file>  (1) 
generated_GPCR_5HT2C_ligand_DiffSBDD_2026-06-23_prepared.sdf

>  <GenAI_Model>  (1) 
DiffSBDD

>  <Protein>  (1) 
GPCR_5HT2C

$$$$
DiffSBDD_14
     RDKit          3D

  0  0  0  0  0  0  0  0  0  0999 V3000
M  V30 BEGIN CTAB
M  V30 COUNTS 49 48 0 0 1
M  V30 BEGIN ATOM
M  V30 1 C 38.927478 27.788048 58.371271 0
M  V30 2 C 39.539184 30.214028 52.949948 0
M  V30 3 C 38.990584 28.467817 59.721684 0
M  V30 4 C 39.323984 28.469724 54.793087 0
M  V30 5 O 38.169382 33.261804 61.085327 0 CHG=-1
M  V30 6 N 36.732484 32.483261 58.967763 0 CHG=1
M  V30 7 C 37.829025 27.743026 57.605860 0
M  V30 8 C 37.432943 31.439150 59.735800 0 CFG=2
M  V30 9 C 39.436230 29.226453 51.790444 0
M  V30 10 C 37.103828 27.741752 53.868601 0
M  V30 11 C 37.865400 28.150580 55.134117 0 CFG=1
M  V30 12 C 37.793895 32.067691 61.088192 0
M  V30 13 C 40.531426 29.427128 50.740503 0
M  V30 14 O 37.692309 31.337797 62.093231 0
M  V30 15 C 38.686687 30.952961 58.963559 0
M  V30 16 O 40.158581 30.256736 60.844076 0
M  V30 17 C 40.469102 30.768416 50.001211 0
M  V30 18 C 39.489550 29.882940 54.255902 0
M  V30 19 C 37.774891 27.081754 56.245539 0
M  V30 20 C 39.620257 29.864140 59.596754 0 CFG=1
M  V30 21 H 39.839909 27.325555 58.022086 0
M  V30 22 H 39.655784 31.252427 52.681931 0
M  V30 23 H 39.586477 27.831122 60.377687 0
M  V30 24 H 38.004282 28.539376 60.167166 0
M  V30 25 H 39.948834 28.412449 55.684892 0
M  V30 26 H 39.696441 27.693566 54.131548 0
M  V30 27 H 35.983179 32.842504 59.539257 0
M  V30 28 H 37.378239 33.236536 58.784206 0
M  V30 29 H 36.917047 28.206603 57.952869 0
M  V30 30 H 36.737741 30.611776 59.884904 0
M  V30 31 H 39.473427 28.192905 52.121609 0
M  V30 32 H 38.463277 29.337813 51.312593 0
M  V30 33 H 37.400837 26.758605 53.501169 0
M  V30 34 H 36.045157 27.737684 54.070456 0
M  V30 35 H 37.229132 28.463082 53.065698 0
M  V30 36 H 37.393831 29.064785 55.500644 0
M  V30 37 H 41.505547 29.320702 51.216361 0
M  V30 38 H 40.445108 28.627021 50.005448 0
M  V30 39 H 39.245134 31.854450 58.732725 0
M  V30 40 H 38.360706 30.587147 57.988909 0
M  V30 41 H 39.440640 30.486328 61.428172 0
M  V30 42 H 41.346164 30.898401 49.367837 0
M  V30 43 H 39.586078 30.836212 49.367939 0
M  V30 44 H 40.445175 31.609341 50.689328 0
M  V30 45 H 39.567276 30.665075 54.997612 0
M  V30 46 H 38.578458 26.350884 56.141363 0
M  V30 47 H 36.845333 26.516563 56.185887 0
M  V30 48 H 40.486534 29.737729 58.945267 0
M  V30 49 H 36.334377 32.134035 58.092246 0
M  V30 END ATOM
M  V30 BEGIN BOND
M  V30 1 1 3 1
M  V30 2 2 7 1
M  V30 3 1 8 6
M  V30 4 1 9 2
M  V30 5 1 11 4
M  V30 6 1 11 10
M  V30 7 1 12 5
M  V30 8 1 12 8
M  V30 9 1 13 9
M  V30 10 2 14 12
M  V30 11 1 15 8
M  V30 12 1 17 13
M  V30 13 2 18 2
M  V30 14 1 18 4
M  V30 15 1 19 7
M  V30 16 1 19 11
M  V30 17 1 20 3
M  V30 18 1 20 15
M  V30 19 1 20 16
M  V30 20 1 21 1
M  V30 21 1 22 2
M  V30 22 1 23 3
M  V30 23 1 24 3
M  V30 24 1 25 4
M  V30 25 1 26 4
M  V30 26 1 27 6
M  V30 27 1 28 6
M  V30 28 1 29 7
M  V30 29 1 8 30 CFG=1
M  V30 30 1 31 9
M  V30 31 1 32 9
M  V30 32 1 33 10
M  V30 33 1 34 10
M  V30 34 1 35 10
M  V30 35 1 11 36 CFG=1
M  V30 36 1 37 13
M  V30 37 1 38 13
M  V30 38 1 39 15
M  V30 39 1 40 15
M  V30 40 1 41 16
M  V30 41 1 42 17
M  V30 42 1 43 17
M  V30 43 1 44 17
M  V30 44 1 45 18
M  V30 45 1 46 19
M  V30 46 1 47 19
M  V30 47 1 20 48 CFG=3
M  V30 48 1 49 6
M  V30 END BOND
M  V30 END CTAB
M  END
>  <i_epik_Tot_Q>  (1) 
0

>  <i_epik_Tot_abs_Q>  (1) 
2

>  <i_i_glide_confnum>  (1) 
604

>  <i_i_glide_lignum>  (1) 
30

>  <i_i_glide_posenum>  (1) 
353

>  <i_i_glide_rotatable_bonds>  (1) 
12

>  <i_lp_mmshare_version>  (1) 
72125

>  <i_m_source_file_index>  (1) 
15

>  <i_f3d_flags>  (1) 
0

>  <num_sample>  (1) 
100

>  <b_lp_Chiralities_Consistent>  (1) 
1

>  <r_epik_Charging_Adjusted_Penalty>  (1) 
0.00991281995240933

>  <r_epik_Ionization_Penalty>  (1) 
0.0049587358016132182

>  <r_epik_Ionization_Penalty_Charging>  (1) 
0.0049586922537287062

>  <r_epik_Ionization_Penalty_Neutral>  (1) 
4.3547884512074136e-08

>  <r_epik_State_Penalty>  (1) 
0.0049541276986806238

>  <r_glide_ring_energy>  (1) 
0

>  <r_i_docking_score>  (1) 
-3.4431936370578584

>  <r_i_glide_ecoul>  (1) 
-8.19262220823191

>  <r_i_glide_eff_state_penalty>  (1) 
0.0049541276986806238

>  <r_i_glide_einternal>  (1) 
6.5525196845332774

>  <r_i_glide_emodel>  (1) 
-31.671742832088427

>  <r_i_glide_emodel_strain>  (1) 
2.9245839092586143

>  <r_i_glide_energy>  (1) 
-29.162442170309312

>  <r_i_glide_erotb>  (1) 
4.0583376510001772

>  <r_i_glide_esite>  (1) 
-0.10000000000000001

>  <r_i_glide_evdw>  (1) 
-20.969819962077402

>  <r_i_glide_gscore>  (1) 
-3.4481477647565391

>  <r_i_glide_gscore_strain>  (1) 
0

>  <r_i_glide_hbond>  (1) 
-0.3334877444268376

>  <r_i_glide_ligand_efficiency>  (1) 
-0.17215968185289293

>  <r_i_glide_ligand_efficiency_ln>  (1) 
-0.86171780322892388

>  <r_i_glide_ligand_efficiency_sa>  (1) 
-0.46731327328886701

>  <r_i_glide_lipo>  (1) 
-2.7616971917595197

>  <r_i_glide_metal>  (1) 
-0

>  <r_i_glide_rewards>  (1) 
-2.0339161502317022

>  <r_lp_Energy>  (1) 
-3.5603029999999998

>  <s_epik_cmdline>  (1) 
J2VwaWtfcHl0aG9uJywgJy1waHQnLCAnMS4wJywgJy1waCcsICc3LjQnLCAnLXRuJywgJzgnLCAnLW1hJywgJzUwMCcsICctaW1hZScsICc8aW5maWxlLm1hZT4nLCAnLW9tYWUnLCAnPG91dGZpbGUubWFlPic=

>  <s_epik_input>  (1) 
W09IXUMoPU8pW0NAQEhdKFtOSDJdKVtDSDJdW0NAQEhdKFtPSF0pW0NIMl0vW0NIXT1bQ0hdL1tDSDJdW0NAQEhdKFtDSDNdKVtDSDJdL1tDSF09W0NIXVxbQ0gyXVtDSDJdW0NIM10=

>  <s_glide_docking_method>  (1) 
confgen

>  <s_i_glide_gridfile>  (1) 
gpcr_5ht2c_6bqh_protein_autoprepared_prepared

>  <s_lp_Force_Field>  (1) 
S-OPLS

>  <s_lp_Variant>  (1) 
DiffSBDD_14-8

>  <s_m_source_file>  (1) 
generated_GPCR_5HT2C_ligand_DiffSBDD_2026-06-23_prepared.sdf

>  <GenAI_Model>  (1) 
DiffSBDD

>  <Protein>  (1) 
GPCR_5HT2C

$$$$
DiffSBDD_82
     RDKit          3D

  0  0  0  0  0  0  0  0  0  0999 V3000
M  V30 BEGIN CTAB
M  V30 COUNTS 37 38 0 0 1
M  V30 BEGIN ATOM
M  V30 1 C 39.025373 26.875174 57.790853 0 CFG=2
M  V30 2 O 36.865808 25.083689 56.164687 0
M  V30 3 C 39.315884 25.668397 56.897281 0 CFG=2
M  V30 4 O 39.844735 26.044037 54.589888 0
M  V30 5 C 38.282856 29.794409 55.554796 0
M  V30 6 C 38.334673 28.151568 57.301536 0 CFG=2
M  V30 7 C 39.245137 29.531058 59.250914 0
M  V30 8 C 40.445138 26.539110 57.394296 0
M  V30 9 O 38.989296 28.717221 56.165953 0
M  V30 10 N 37.745798 25.375693 55.091022 0
M  V30 11 C 38.150764 29.162035 58.433774 0
M  V30 12 F 40.468283 28.989752 59.039272 0
M  V30 13 C 38.796963 29.186951 53.120401 0
M  V30 14 C 37.798685 31.040391 60.506779 0
M  V30 15 C 36.882694 29.737755 58.661751 0
M  V30 16 C 36.708500 30.675263 59.696300 0
M  V30 17 C 39.005373 25.722231 55.428079 0
M  V30 18 C 39.064899 30.467546 60.286085 0
M  V30 19 Cl 37.584442 32.192023 61.767760 0
M  V30 20 C 38.972410 30.210194 54.248675 0
M  V30 21 H 38.702241 26.583719 58.788894 0
M  V30 22 H 37.368136 25.315349 56.931896 0
M  V30 23 H 39.273413 24.677038 57.346120 0
M  V30 24 H 37.245971 29.517660 55.356599 0
M  V30 25 H 38.262923 30.652248 56.227947 0
M  V30 26 H 37.340351 27.837846 56.985677 0
M  V30 27 H 41.092510 26.132625 58.167749 0
M  V30 28 H 40.948815 27.195470 56.686499 0
M  V30 29 H 37.277015 25.355915 54.196191 0
M  V30 30 H 39.273079 29.533934 52.203183 0
M  V30 31 H 39.245138 28.231229 53.383446 0
M  V30 32 H 37.742950 29.010733 52.904455 0
M  V30 33 H 36.045137 29.465039 58.038133 0
M  V30 34 H 35.737265 31.117898 59.864490 0
M  V30 35 H 39.900461 30.749666 60.908892 0
M  V30 36 H 38.555920 31.163063 53.919654 0
M  V30 37 H 40.032814 30.387551 54.431904 0
M  V30 END ATOM
M  V30 BEGIN BOND
M  V30 1 1 3 1
M  V30 2 1 6 1
M  V30 3 1 8 1
M  V30 4 1 8 3
M  V30 5 1 9 5
M  V30 6 1 9 6
M  V30 7 1 10 2
M  V30 8 1 11 6
M  V30 9 2 11 7
M  V30 10 1 12 7
M  V30 11 1 15 11
M  V30 12 1 16 14
M  V30 13 2 16 15
M  V30 14 1 17 3
M  V30 15 2 17 4
M  V30 16 1 17 10
M  V30 17 1 18 7
M  V30 18 2 18 14
M  V30 19 1 19 14
M  V30 20 1 20 5
M  V30 21 1 20 13
M  V30 22 1 1 21 CFG=1
M  V30 23 1 22 2
M  V30 24 1 3 23 CFG=1
M  V30 25 1 24 5
M  V30 26 1 25 5
M  V30 27 1 6 26 CFG=3
M  V30 28 1 27 8
M  V30 29 1 28 8
M  V30 30 1 29 10
M  V30 31 1 30 13
M  V30 32 1 31 13
M  V30 33 1 32 13
M  V30 34 1 33 15
M  V30 35 1 34 16
M  V30 36 1 35 18
M  V30 37 1 36 20
M  V30 38 1 37 20
M  V30 END BOND
M  V30 END CTAB
M  END
>  <i_epik_Tot_Q>  (1) 
0

>  <i_epik_Tot_abs_Q>  (1) 
0

>  <i_i_glide_confnum>  (1) 
71

>  <i_i_glide_lignum>  (1) 
189

>  <i_i_glide_posenum>  (1) 
347

>  <i_i_glide_rotatable_bonds>  (1) 
8

>  <i_lp_mmshare_version>  (1) 
72125

>  <i_m_source_file_index>  (1) 
83

>  <i_f3d_flags>  (1) 
0

>  <num_sample>  (1) 
100

>  <b_lp_Chiralities_Consistent>  (1) 
1

>  <r_epik_Charging_Adjusted_Penalty>  (1) 
0

>  <r_epik_Ionization_Penalty>  (1) 
0.011497294520252079

>  <r_epik_Ionization_Penalty_Charging>  (1) 
0

>  <r_epik_Ionization_Penalty_Neutral>  (1) 
0.011497294520252079

>  <r_epik_State_Penalty>  (1) 
-0

>  <r_glide_ring_energy>  (1) 
0

>  <r_i_docking_score>  (1) 
-3.4417514177013295

>  <r_i_glide_ecoul>  (1) 
-1.0870612797416845

>  <r_i_glide_eff_state_penalty>  (1) 
-0

>  <r_i_glide_einternal>  (1) 
8.7995441250450384

>  <r_i_glide_emodel>  (1) 
-37.207725113337879

>  <r_i_glide_emodel_strain>  (1) 
0.29066605359722786

>  <r_i_glide_energy>  (1) 
-34.381225134076985

>  <r_i_glide_erotb>  (1) 
1.2126053731810509

>  <r_i_glide_esite>  (1) 
0

>  <r_i_glide_evdw>  (1) 
-33.294163854335302

>  <r_i_glide_gscore>  (1) 
-3.4417514177013295

>  <r_i_glide_gscore_strain>  (1) 
0

>  <r_i_glide_hbond>  (1) 
0

>  <r_i_glide_ligand_efficiency>  (1) 
-0.17208757088506649

>  <r_i_glide_ligand_efficiency_ln>  (1) 
-0.86135686329156258

>  <r_i_glide_ligand_efficiency_sa>  (1) 
-0.46711753400744921

>  <r_i_glide_lipo>  (1) 
-1.8690664362130418

>  <r_i_glide_metal>  (1) 
-0

>  <r_i_glide_rewards>  (1) 
-0.95752296999132103

>  <r_lp_Energy>  (1) 
29.806459999999998

>  <r_lp_tautomer_probability>  (1) 
1

>  <s_epik_Chemistry_Notes>  (1) 
This compound has a N-S or N-O group and may undergo hydrolysis at high or low pH.

>  <s_epik_cmdline>  (1) 
J2VwaWtfcHl0aG9uJywgJy1waHQnLCAnMS4wJywgJy1waCcsICc3LjQnLCAnLXRuJywgJzgnLCAnLW1hJywgJzUwMCcsICctaW1hZScsICc8aW5maWxlLm1hZT4nLCAnLW9tYWUnLCAnPG91dGZpbGUubWFlPic=

>  <s_epik_input>  (1) 
W09IXVtOSF1DKD1PKVtDQEBIXShbQ0gyXTEpW0NAQEhdMVtDQEhdKE9bQ0gyXVtDSDJdW0NIM10pYyhjMkYpW2NIXVtjSF1jKENsKVtjSF0y

>  <s_glide_docking_method>  (1) 
confgen

>  <s_i_glide_gridfile>  (1) 
gpcr_5ht2c_6bqh_protein_autoprepared_prepared

>  <s_lp_Force_Field>  (1) 
S-OPLS

>  <s_lp_Variant>  (1) 
DiffSBDD_82-1

>  <s_m_source_file>  (1) 
generated_GPCR_5HT2C_ligand_DiffSBDD_2026-06-23_prepared.sdf

>  <GenAI_Model>  (1) 
DiffSBDD

>  <Protein>  (1) 
GPCR_5HT2C

$$$$
DiffSBDD_76
     RDKit          3D

  0  0  0  0  0  0  0  0  0  0999 V3000
M  V30 BEGIN CTAB
M  V30 COUNTS 22 21 0 0 1
M  V30 BEGIN ATOM
M  V30 1 C 39.505023 28.544721 50.633042 0
M  V30 2 C 38.634210 28.245751 51.844964 0
M  V30 3 C 40.018038 26.303232 56.376650 0
M  V30 4 S 40.437361 30.110069 50.655153 0
M  V30 5 C 39.199170 26.774035 55.169526 0
M  V30 6 C 38.570760 28.162597 55.382377 0
M  V30 7 C 37.752053 28.648421 54.175519 0
M  V30 8 C 38.627429 28.967276 52.980132 0
M  V30 9 H 38.859912 28.537921 49.759324 0
M  V30 10 H 40.210096 27.724303 50.510812 0
M  V30 11 H 37.984368 27.385666 51.762475 0
M  V30 12 H 40.445137 25.317145 56.192928 0
M  V30 13 H 40.842108 26.986033 56.586476 0
M  V30 14 H 39.400510 26.237176 57.273030 0
M  V30 15 H 39.375957 30.910678 50.523899 0
M  V30 16 H 38.413474 26.046398 54.962017 0
M  V30 17 H 39.843932 26.785455 54.290290 0
M  V30 18 H 39.348617 28.891182 55.614119 0
M  V30 19 H 37.921903 28.127661 56.258153 0
M  V30 20 H 37.202795 29.552656 54.441033 0
M  V30 21 H 37.003795 27.900883 53.906458 0
M  V30 22 H 39.273161 29.827204 53.076469 0
M  V30 END ATOM
M  V30 BEGIN BOND
M  V30 1 1 2 1
M  V30 2 1 4 1
M  V30 3 1 5 3
M  V30 4 1 6 5
M  V30 5 1 7 6
M  V30 6 2 8 2
M  V30 7 1 8 7
M  V30 8 1 9 1
M  V30 9 1 10 1
M  V30 10 1 11 2
M  V30 11 1 12 3
M  V30 12 1 13 3
M  V30 13 1 14 3
M  V30 14 1 15 4
M  V30 15 1 16 5
M  V30 16 1 17 5
M  V30 17 1 18 6
M  V30 18 1 19 6
M  V30 19 1 20 7
M  V30 20 1 21 7
M  V30 21 1 22 8
M  V30 END BOND
M  V30 END CTAB
M  END
>  <i_epik_Tot_Q>  (1) 
0

>  <i_epik_Tot_abs_Q>  (1) 
0

>  <i_i_glide_confnum>  (1) 
23

>  <i_i_glide_lignum>  (1) 
176

>  <i_i_glide_posenum>  (1) 
295

>  <i_i_glide_rotatable_bonds>  (1) 
5

>  <i_lp_mmshare_version>  (1) 
72125

>  <i_m_source_file_index>  (1) 
77

>  <i_f3d_flags>  (1) 
0

>  <num_sample>  (1) 
100

>  <b_lp_Chiralities_Consistent>  (1) 
1

>  <r_epik_Charging_Adjusted_Penalty>  (1) 
0.0051523938583426443

>  <r_epik_Ionization_Penalty>  (1) 
0.0051523938583426451

>  <r_epik_Ionization_Penalty_Charging>  (1) 
0

>  <r_epik_Ionization_Penalty_Neutral>  (1) 
0.0051523938583426451

>  <r_epik_State_Penalty>  (1) 
0.0051523938583426443

>  <r_glide_ring_energy>  (1) 
0

>  <r_i_docking_score>  (1) 
-3.4122154626898475

>  <r_i_glide_ecoul>  (1) 
-0.5659822577588185

>  <r_i_glide_eff_state_penalty>  (1) 
0.0051523938583426443

>  <r_i_glide_einternal>  (1) 
2.4392707283927999

>  <r_i_glide_emodel>  (1) 
-23.309709650124425

>  <r_i_glide_emodel_strain>  (1) 
2.6391718618956617e-05

>  <r_i_glide_energy>  (1) 
-19.888872402294101

>  <r_i_glide_erotb>  (1) 
2.4507048939468694

>  <r_i_glide_esite>  (1) 
0

>  <r_i_glide_evdw>  (1) 
-19.322890144535283

>  <r_i_glide_gscore>  (1) 
-3.4173678565481902

>  <r_i_glide_gscore_strain>  (1) 
0

>  <r_i_glide_hbond>  (1) 
0

>  <r_i_glide_ligand_efficiency>  (1) 
-0.42652693283623094

>  <r_i_glide_ligand_efficiency_ln>  (1) 
-1.1080630745886748

>  <r_i_glide_ligand_efficiency_sa>  (1) 
-0.853053865672462

>  <r_i_glide_lipo>  (1) 
-1.9029925832627343

>  <r_i_glide_metal>  (1) 
-0

>  <r_i_glide_rewards>  (1) 
-2.9140383213417387

>  <r_lp_Energy>  (1) 
-1.908774

>  <s_epik_cmdline>  (1) 
J2VwaWtfcHl0aG9uJywgJy1waHQnLCAnMS4wJywgJy1waCcsICc3LjQnLCAnLXRuJywgJzgnLCAnLW1hJywgJzUwMCcsICctaW1hZScsICc8aW5maWxlLm1hZT4nLCAnLW9tYWUnLCAnPG91dGZpbGUubWFlPic=

>  <s_epik_input>  (1) 
W1NIXVtDSDJdL1tDSF09W0NIXS9bQ0gyXVtDSDJdW0NIMl1bQ0gzXQ==

>  <s_glide_docking_method>  (1) 
confgen

>  <s_i_glide_gridfile>  (1) 
gpcr_5ht2c_6bqh_protein_autoprepared_prepared

>  <s_lp_Force_Field>  (1) 
S-OPLS

>  <s_lp_Variant>  (1) 
DiffSBDD_76-1

>  <s_m_source_file>  (1) 
generated_GPCR_5HT2C_ligand_DiffSBDD_2026-06-23_prepared.sdf

>  <GenAI_Model>  (1) 
DiffSBDD

>  <Protein>  (1) 
GPCR_5HT2C

$$$$
DiffSBDD_14
     RDKit          3D

  0  0  0  0  0  0  0  0  0  0999 V3000
M  V30 BEGIN CTAB
M  V30 COUNTS 49 48 0 0 1
M  V30 BEGIN ATOM
M  V30 1 C 38.438586 28.793838 56.793657 0
M  V30 2 C 38.870393 27.508217 51.885631 0
M  V30 3 C 37.666357 29.934293 57.434729 0
M  V30 4 C 37.668433 26.683797 53.952953 0
M  V30 5 O 36.845129 31.337750 61.367764 0 CHG=-1
M  V30 6 N 36.081420 33.737747 58.967761 0 CHG=1
M  V30 7 C 38.088785 27.500277 56.882809 0
M  V30 8 C 36.747497 32.462752 59.281810 0 CFG=2
M  V30 9 C 40.027920 28.160966 51.152600 0
M  V30 10 C 36.935851 24.849086 55.562468 0
M  V30 11 C 38.117193 25.694033 55.055940 0 CFG=2
M  V30 12 C 37.021918 32.427648 60.788025 0
M  V30 13 C 39.745238 29.615849 50.773195 0
M  V30 14 O 37.402709 33.490854 61.326522 0
M  V30 15 C 38.047207 32.295094 58.453731 0
M  V30 16 O 38.895127 30.245253 59.508527 0
M  V30 17 C 40.894028 30.263218 49.994045 0
M  V30 18 C 38.824624 27.340073 53.218466 0
M  V30 19 C 38.865587 26.368282 56.230840 0
M  V30 20 C 38.576539 30.851881 58.271673 0 CFG=1
M  V30 21 H 39.320489 29.067160 56.232595 0
M  V30 22 H 38.045334 27.167164 51.276479 0
M  V30 23 H 36.824205 29.562881 58.020162 0
M  V30 24 H 37.245133 30.511021 56.611351 0
M  V30 25 H 37.053347 26.158515 53.223515 0
M  V30 26 H 37.034477 27.465981 54.370716 0
M  V30 27 H 35.258488 33.824586 59.544872 0
M  V30 28 H 36.716431 34.496647 59.167789 0
M  V30 29 H 37.208153 27.222409 57.442050 0
M  V30 30 H 36.045090 31.669658 59.023393 0
M  V30 31 H 40.923455 28.137754 51.767759 0
M  V30 32 H 40.237526 27.571036 50.259837 0
M  V30 33 H 36.187410 25.462301 56.064463 0
M  V30 34 H 36.444215 24.327802 54.740599 0
M  V30 35 H 37.271705 24.091638 56.271342 0
M  V30 36 H 38.815130 24.993208 54.595172 0
M  V30 37 H 38.845138 29.656066 50.169571 0
M  V30 38 H 39.551677 30.196755 51.675225 0
M  V30 39 H 38.839886 32.908378 58.886603 0
M  V30 40 H 37.884254 32.709346 57.457392 0
M  V30 41 H 38.183514 30.403925 60.121738 0
M  V30 42 H 40.666454 31.304887 49.765503 0
M  V30 43 H 41.821012 30.248904 50.567758 0
M  V30 44 H 41.070181 29.741767 49.052226 0
M  V30 45 H 39.645137 27.685922 53.825334 0
M  V30 46 H 39.828535 26.746770 55.886922 0
M  V30 47 H 39.101753 25.628837 56.996664 0
M  V30 48 H 39.512830 30.937785 57.721221 0
M  V30 49 H 35.822107 33.723257 57.991047 0
M  V30 END ATOM
M  V30 BEGIN BOND
M  V30 1 1 3 1
M  V30 2 2 7 1
M  V30 3 1 8 6
M  V30 4 1 9 2
M  V30 5 1 11 4
M  V30 6 1 11 10
M  V30 7 1 12 5
M  V30 8 1 12 8
M  V30 9 1 13 9
M  V30 10 2 14 12
M  V30 11 1 15 8
M  V30 12 1 17 13
M  V30 13 2 18 2
M  V30 14 1 18 4
M  V30 15 1 19 7
M  V30 16 1 19 11
M  V30 17 1 20 3
M  V30 18 1 20 15
M  V30 19 1 20 16
M  V30 20 1 21 1
M  V30 21 1 22 2
M  V30 22 1 23 3
M  V30 23 1 24 3
M  V30 24 1 25 4
M  V30 25 1 26 4
M  V30 26 1 27 6
M  V30 27 1 28 6
M  V30 28 1 29 7
M  V30 29 1 8 30 CFG=1
M  V30 30 1 31 9
M  V30 31 1 32 9
M  V30 32 1 33 10
M  V30 33 1 34 10
M  V30 34 1 35 10
M  V30 35 1 11 36 CFG=3
M  V30 36 1 37 13
M  V30 37 1 38 13
M  V30 38 1 39 15
M  V30 39 1 40 15
M  V30 40 1 41 16
M  V30 41 1 42 17
M  V30 42 1 43 17
M  V30 43 1 44 17
M  V30 44 1 45 18
M  V30 45 1 46 19
M  V30 46 1 47 19
M  V30 47 1 20 48 CFG=3
M  V30 48 1 49 6
M  V30 END BOND
M  V30 END CTAB
M  END
>  <i_epik_Tot_Q>  (1) 
0

>  <i_epik_Tot_abs_Q>  (1) 
2

>  <i_i_glide_confnum>  (1) 
392

>  <i_i_glide_lignum>  (1) 
24

>  <i_i_glide_posenum>  (1) 
121

>  <i_i_glide_rotatable_bonds>  (1) 
12

>  <i_lp_mmshare_version>  (1) 
72125

>  <i_m_source_file_index>  (1) 
15

>  <i_f3d_flags>  (1) 
0

>  <num_sample>  (1) 
100

>  <b_lp_Chiralities_Consistent>  (1) 
1

>  <r_epik_Charging_Adjusted_Penalty>  (1) 
0.00991281995240933

>  <r_epik_Ionization_Penalty>  (1) 
0.0049587358016132182

>  <r_epik_Ionization_Penalty_Charging>  (1) 
0.0049586922537287062

>  <r_epik_Ionization_Penalty_Neutral>  (1) 
4.3547884512074136e-08

>  <r_epik_State_Penalty>  (1) 
0.0049541276986806238

>  <r_glide_ring_energy>  (1) 
0

>  <r_i_docking_score>  (1) 
-3.4057597396856378

>  <r_i_glide_ecoul>  (1) 
-5.7799668775137079

>  <r_i_glide_eff_state_penalty>  (1) 
0.0049541276986806238

>  <r_i_glide_einternal>  (1) 
5.5864229090914996

>  <r_i_glide_emodel>  (1) 
-38.769682346153076

>  <r_i_glide_emodel_strain>  (1) 
1.3278091676486321

>  <r_i_glide_energy>  (1) 
-33.446126027710932

>  <r_i_glide_erotb>  (1) 
4.0583376510001772

>  <r_i_glide_esite>  (1) 
-0.079826912589424759

>  <r_i_glide_evdw>  (1) 
-27.666159150197224

>  <r_i_glide_gscore>  (1) 
-3.4107138673843185

>  <r_i_glide_gscore_strain>  (1) 
0

>  <r_i_glide_hbond>  (1) 
-0.22014719833315921

>  <r_i_glide_ligand_efficiency>  (1) 
-0.17028798698428188

>  <r_i_glide_ligand_efficiency_ln>  (1) 
-0.85234933336922403

>  <r_i_glide_ligand_efficiency_sa>  (1) 
-0.46223271176461894

>  <r_i_glide_lipo>  (1) 
-3.0329042613633961

>  <r_i_glide_metal>  (1) 
-0

>  <r_i_glide_rewards>  (1) 
-1.8858701569615985

>  <r_lp_Energy>  (1) 
-7.5592219999999992

>  <s_epik_cmdline>  (1) 
J2VwaWtfcHl0aG9uJywgJy1waHQnLCAnMS4wJywgJy1waCcsICc3LjQnLCAnLXRuJywgJzgnLCAnLW1hJywgJzUwMCcsICctaW1hZScsICc8aW5maWxlLm1hZT4nLCAnLW9tYWUnLCAnPG91dGZpbGUubWFlPic=

>  <s_epik_input>  (1) 
W09IXUMoPU8pW0NAQEhdKFtOSDJdKVtDSDJdW0NAQEhdKFtPSF0pW0NIMl0vW0NIXT1bQ0hdL1tDSDJdW0NAQEhdKFtDSDNdKVtDSDJdXFtDSF09W0NIXVxbQ0gyXVtDSDJdW0NIM10=

>  <s_glide_docking_method>  (1) 
confgen

>  <s_i_glide_gridfile>  (1) 
gpcr_5ht2c_6bqh_protein_autoprepared_prepared

>  <s_lp_Force_Field>  (1) 
S-OPLS

>  <s_lp_Variant>  (1) 
DiffSBDD_14-2

>  <s_m_source_file>  (1) 
generated_GPCR_5HT2C_ligand_DiffSBDD_2026-06-23_prepared.sdf

>  <GenAI_Model>  (1) 
DiffSBDD

>  <Protein>  (1) 
GPCR_5HT2C

$$$$
DiffSBDD_58
     RDKit          3D

  0  0  0  0  0  0  0  0  0  0999 V3000
M  V30 BEGIN CTAB
M  V30 COUNTS 76 76 0 0 1
M  V30 BEGIN ATOM
M  V30 1 C 37.944063 29.627560 58.971239 0
M  V30 2 C 38.322468 31.961859 60.006364 0 CFG=1
M  V30 3 C 44.000046 32.267605 66.052533 0
M  V30 4 C 40.117562 31.959044 61.983321 0 CFG=1
M  V30 5 C 38.549926 30.657278 55.613365 0
M  V30 6 C 44.970513 27.593083 67.554276 0
M  V30 7 O 41.171580 28.137339 57.508940 0
M  V30 8 C 42.189631 30.815897 64.989973 0
M  V30 9 N 45.244964 27.551032 66.231221 0
M  V30 10 C 39.313184 28.158226 55.892838 0 CFG=2
M  V30 11 C 38.681782 25.959705 54.581326 0
M  V30 12 C 37.921175 33.737738 58.214118 0
M  V30 13 C 36.416470 33.716478 60.243226 0
M  V30 14 C 40.147359 27.351129 56.931706 0
M  V30 15 N 43.854751 29.751177 67.478930 0
M  V30 16 C 43.681143 30.935528 65.336089 0 CFG=2
M  V30 17 N 41.774600 31.696616 63.861286 0 CHG=1
M  V30 18 O 40.502652 33.293062 61.734515 0
M  V30 19 C 44.288798 28.668515 68.164707 0
M  V30 20 C 37.307585 30.908352 59.479682 0
M  V30 21 O 38.849687 24.938140 55.541590 0
M  V30 22 C 40.325292 31.713566 63.510251 0 CFG=2
M  V30 23 C 37.833740 33.409376 59.715440 0
M  V30 24 O 37.561761 27.984611 54.182894 0
M  V30 25 C 38.698526 29.467233 56.459027 0
M  V30 26 C 38.955496 30.725382 54.330662 0
M  V30 27 C 38.203131 27.274821 55.228172 0 CFG=2
M  V30 28 C 44.827994 28.632849 65.538126 0
M  V30 29 C 38.655749 31.718388 61.501374 0
M  V30 30 C 44.149151 29.725007 66.155868 0
M  V30 31 N 45.083341 28.634339 64.167408 0
M  V30 32 C 38.314883 29.478022 57.719464 0
M  V30 33 C 39.597955 30.447775 63.974905 0
M  V30 34 H 38.077113 28.833697 59.690901 0
M  V30 35 H 39.245030 31.822550 59.444091 0
M  V30 36 H 45.073483 32.385064 66.205355 0
M  V30 37 H 43.645191 33.130444 65.488661 0
M  V30 38 H 43.523348 32.325555 67.031584 0
M  V30 39 H 40.774217 31.302088 61.410929 0
M  V30 40 H 38.086981 31.534515 56.045011 0
M  V30 41 H 45.300753 26.748538 68.141501 0
M  V30 42 H 40.767014 28.849705 57.979520 0
M  V30 43 H 41.595662 31.026290 65.880881 0
M  V30 44 H 41.996172 29.780477 64.704693 0
M  V30 45 H 40.043480 28.419028 55.131367 0
M  V30 46 H 39.607119 26.107178 54.023082 0
M  V30 47 H 37.931473 25.602552 53.874083 0
M  V30 48 H 37.245514 33.134034 57.611332 0
M  V30 49 H 37.644865 34.774216 58.026527 0
M  V30 50 H 38.929064 33.582926 57.830591 0
M  V30 51 H 35.655695 33.128999 59.727328 0
M  V30 52 H 36.319523 33.524334 61.310845 0
M  V30 53 H 36.167025 34.765897 60.083272 0
M  V30 54 H 39.518009 26.929723 57.716933 0
M  V30 55 H 40.651047 26.513680 56.449886 0
M  V30 56 H 44.235187 30.938286 64.402196 0
M  V30 57 H 42.279509 31.400948 63.039858 0
M  V30 58 H 40.235713 33.526650 60.856708 0
M  V30 59 H 44.089143 28.659030 69.226087 0
M  V30 60 H 36.735183 31.310143 58.645854 0
M  V30 61 H 36.559734 30.666604 60.235800 0
M  V30 62 H 39.108437 24.147172 55.092109 0
M  V30 63 H 39.878698 32.541249 64.063407 0
M  V30 64 H 38.510729 34.100298 60.216354 0
M  V30 65 H 38.203106 28.218022 53.530227 0
M  V30 66 H 38.818161 31.631653 53.758079 0
M  V30 67 H 39.423628 29.891391 53.838548 0
M  V30 68 H 37.437416 27.034452 55.967096 0
M  V30 69 H 37.960193 32.259361 62.142237 0
M  V30 70 H 38.444659 30.662462 61.664339 0
M  V30 71 H 44.802961 29.399547 63.576535 0
M  V30 72 H 45.564704 27.863458 63.720508 0
M  V30 73 H 38.533681 30.536758 63.770112 0
M  V30 74 H 39.973078 29.560400 63.462639 0
M  V30 75 H 39.650453 30.280337 65.050600 0
M  V30 76 H 42.043652 32.650393 64.059650 0
M  V30 END ATOM
M  V30 BEGIN BOND
M  V30 1 1 9 6
M  V30 2 1 14 7
M  V30 3 1 14 10
M  V30 4 1 16 3
M  V30 5 1 16 8
M  V30 6 1 17 8
M  V30 7 1 18 4
M  V30 8 2 19 6
M  V30 9 1 19 15
M  V30 10 1 20 1
M  V30 11 1 20 2
M  V30 12 1 21 11
M  V30 13 1 22 4
M  V30 14 1 22 17
M  V30 15 1 23 2
M  V30 16 1 23 12
M  V30 17 1 23 13
M  V30 18 1 25 5
M  V30 19 1 25 10
M  V30 20 2 26 5
M  V30 21 1 27 10
M  V30 22 1 27 11
M  V30 23 1 27 24
M  V30 24 2 28 9
M  V30 25 1 29 2
M  V30 26 1 29 4
M  V30 27 2 30 15
M  V30 28 1 30 16
M  V30 29 1 30 28
M  V30 30 1 31 28
M  V30 31 2 32 1
M  V30 32 2 32 25
M  V30 33 1 33 22
M  V30 34 1 34 1
M  V30 35 1 2 35 CFG=3
M  V30 36 1 36 3
M  V30 37 1 37 3
M  V30 38 1 38 3
M  V30 39 1 4 39 CFG=3
M  V30 40 1 40 5
M  V30 41 1 41 6
M  V30 42 1 42 7
M  V30 43 1 43 8
M  V30 44 1 44 8
M  V30 45 1 10 45 CFG=3
M  V30 46 1 46 11
M  V30 47 1 47 11
M  V30 48 1 48 12
M  V30 49 1 49 12
M  V30 50 1 50 12
M  V30 51 1 51 13
M  V30 52 1 52 13
M  V30 53 1 53 13
M  V30 54 1 54 14
M  V30 55 1 55 14
M  V30 56 1 16 56 CFG=3
M  V30 57 1 57 17
M  V30 58 1 58 18
M  V30 59 1 59 19
M  V30 60 1 60 20
M  V30 61 1 61 20
M  V30 62 1 62 21
M  V30 63 1 22 63 CFG=1
M  V30 64 1 64 23
M  V30 65 1 65 24
M  V30 66 1 66 26
M  V30 67 1 67 26
M  V30 68 1 27 68 CFG=1
M  V30 69 1 69 29
M  V30 70 1 70 29
M  V30 71 1 71 31
M  V30 72 1 72 31
M  V30 73 1 73 33
M  V30 74 1 74 33
M  V30 75 1 75 33
M  V30 76 1 76 17
M  V30 END BOND
M  V30 END CTAB
M  END
>  <i_epik_Tot_Q>  (1) 
1

>  <i_epik_Tot_abs_Q>  (1) 
1

>  <i_i_glide_confnum>  (1) 
2058

>  <i_i_glide_lignum>  (1) 
129

>  <i_i_glide_posenum>  (1) 
319

>  <i_i_glide_rotatable_bonds>  (1) 
19

>  <i_lp_mmshare_version>  (1) 
72125

>  <i_m_source_file_index>  (1) 
59

>  <i_f3d_flags>  (1) 
0

>  <num_sample>  (1) 
100

>  <b_lp_Chiralities_Consistent>  (1) 
1

>  <r_epik_Charging_Adjusted_Penalty>  (1) 
0.031800499123457865

>  <r_epik_Ionization_Penalty>  (1) 
0.015929061655920795

>  <r_epik_Ionization_Penalty_Charging>  (1) 
0.015900249561728946

>  <r_epik_Ionization_Penalty_Neutral>  (1) 
2.8812094191846713e-05

>  <r_epik_State_Penalty>  (1) 
0.015900249561728919

>  <r_glide_ring_energy>  (1) 
0

>  <r_i_docking_score>  (1) 
-3.4041410260082068

>  <r_i_glide_ecoul>  (1) 
0.41186300821130939

>  <r_i_glide_eff_state_penalty>  (1) 
0.015900249561728919

>  <r_i_glide_einternal>  (1) 
22.245840139928234

>  <r_i_glide_emodel>  (1) 
-37.337361327840092

>  <r_i_glide_emodel_strain>  (1) 
2.2247772196860325

>  <r_i_glide_energy>  (1) 
-39.161687199568256

>  <r_i_glide_erotb>  (1) 
1.3125063474323406

>  <r_i_glide_esite>  (1) 
0

>  <r_i_glide_evdw>  (1) 
-39.573550207779569

>  <r_i_glide_gscore>  (1) 
-3.4200412755699356

>  <r_i_glide_gscore_strain>  (1) 
0

>  <r_i_glide_hbond>  (1) 
-0.042177701982793268

>  <r_i_glide_ligand_efficiency>  (1) 
-0.10315578866691535

>  <r_i_glide_ligand_efficiency_ln>  (1) 
-0.75706333848529961

>  <r_i_glide_ligand_efficiency_sa>  (1) 
-0.33087573348692545

>  <r_i_glide_lipo>  (1) 
-2.203705314743345

>  <r_i_glide_metal>  (1) 
-0

>  <r_i_glide_rewards>  (1) 
-0.56976654711885644

>  <r_lp_Energy>  (1) 
16.863154999999999

>  <r_lp_tautomer_probability>  (1) 
0.99999990128000804

>  <s_epik_cmdline>  (1) 
J2VwaWtfcHl0aG9uJywgJy1waHQnLCAnMS4wJywgJy1waCcsICc3LjQnLCAnLXRuJywgJzgnLCAnLW1hJywgJzUwMCcsICctaW1hZScsICc8aW5maWxlLm1hZT4nLCAnLW9tYWUnLCAnPG91dGZpbGUubWFlPic=

>  <s_epik_input>  (1) 
W09IXVtDSDJdW0NASF0oW09IXSlbQ0BIXShbQ0gyXVtPSF0pQyhbQ0hdPVtDSDJdKT1DPVtDSF1bQ0gyXVtDQEBIXShbQ0hdKFtDSDNdKVtDSDNdKVtDSDJdW0NAQEhdKFtPSF0pW0NAQEhdKFtDSDNdKVtOSF1bQ0gyXVtDQEBIXShbQ0gzXSljMW5bY0hdW2NIXW5jMVtOSDJd

>  <s_glide_docking_method>  (1) 
confgen

>  <s_i_glide_gridfile>  (1) 
gpcr_5ht2c_6bqh_protein_autoprepared_prepared

>  <s_lp_Force_Field>  (1) 
S-OPLS

>  <s_lp_Variant>  (1) 
DiffSBDD_58-1

>  <s_m_source_file>  (1) 
generated_GPCR_5HT2C_ligand_DiffSBDD_2026-06-23_prepared.sdf

>  <GenAI_Model>  (1) 
DiffSBDD

>  <Protein>  (1) 
GPCR_5HT2C

$$$$
DiffSBDD_37
     RDKit          3D

  0  0  0  0  0  0  0  0  0  0999 V3000
M  V30 BEGIN CTAB
M  V30 COUNTS 45 45 0 0 1
M  V30 BEGIN ATOM
M  V30 1 O 39.122712 28.853481 55.951542 0
M  V30 2 C 40.276644 30.885059 52.271445 0
M  V30 3 N 39.285474 31.837987 61.531105 0
M  V30 4 C 39.671086 30.609095 61.898611 0
M  V30 5 C 38.257348 29.885030 55.489602 0 CFG=1
M  V30 6 O 40.845405 30.297090 62.080952 0
M  V30 7 C 38.358595 28.929623 53.137978 0
M  V30 8 C 37.886591 32.187151 61.293649 0
M  V30 9 C 39.976569 30.762056 53.771707 0
M  V30 10 C 38.458198 31.121739 56.389119 0
M  V30 11 C 38.474069 27.822158 56.679345 0
M  V30 12 C 37.316184 31.527602 60.020482 0
M  V30 13 C 38.576477 30.164123 54.007128 0 CFG=2
M  V30 14 N 37.645143 31.023085 57.614445 0 CHG=1
M  V30 15 C 38.108471 31.850916 58.741165 0
M  V30 16 C 38.857443 27.386780 51.231022 0
M  V30 17 C 40.232556 29.521376 51.569669 0
M  V30 18 C 39.097511 28.632978 52.048488 0
M  V30 19 H 41.245133 31.337699 52.096676 0
M  V30 20 H 39.572686 31.572676 51.810878 0
M  V30 21 H 39.983841 32.555926 61.403533 0
M  V30 22 H 38.810004 29.930702 62.010169 0
M  V30 23 H 37.210852 29.573340 55.533874 0
M  V30 24 H 37.562264 28.263530 53.438022 0
M  V30 25 H 37.283993 31.915117 62.162122 0
M  V30 26 H 37.819372 33.271925 61.203354 0
M  V30 27 H 40.045173 31.737729 54.244587 0
M  V30 28 H 40.731696 30.139017 54.249500 0
M  V30 29 H 38.148154 32.031951 55.873155 0
M  V30 30 H 39.516426 31.234959 56.630270 0
M  V30 31 H 39.212847 27.096854 57.020659 0
M  V30 32 H 37.958019 28.211969 57.556706 0
M  V30 33 H 37.752350 27.295555 56.053852 0
M  V30 34 H 37.285600 30.446826 60.165117 0
M  V30 35 H 36.278355 31.837929 59.887798 0
M  V30 36 H 37.844370 30.904322 53.691529 0
M  V30 37 H 37.623851 30.059177 57.909668 0
M  V30 38 H 38.016439 32.907525 58.485251 0
M  V30 39 H 39.165263 31.643919 58.899484 0
M  V30 40 H 39.645022 26.655396 51.407661 0
M  V30 41 H 37.907858 26.937944 51.502378 0
M  V30 42 H 38.845189 27.622877 50.167749 0
M  V30 43 H 41.165764 28.982088 51.729908 0
M  V30 44 H 40.145438 29.673258 50.493251 0
M  V30 45 H 36.684531 31.319042 57.367747 0
M  V30 END ATOM
M  V30 BEGIN BOND
M  V30 1 1 4 3
M  V30 2 1 5 1
M  V30 3 2 6 4
M  V30 4 1 8 3
M  V30 5 1 9 2
M  V30 6 1 10 5
M  V30 7 1 11 1
M  V30 8 1 12 8
M  V30 9 1 13 5
M  V30 10 1 13 7
M  V30 11 1 13 9
M  V30 12 1 14 10
M  V30 13 1 15 12
M  V30 14 1 15 14
M  V30 15 1 17 2
M  V30 16 2 18 7
M  V30 17 1 18 16
M  V30 18 1 18 17
M  V30 19 1 19 2
M  V30 20 1 20 2
M  V30 21 1 21 3
M  V30 22 1 22 4
M  V30 23 1 5 23 CFG=3
M  V30 24 1 24 7
M  V30 25 1 25 8
M  V30 26 1 26 8
M  V30 27 1 27 9
M  V30 28 1 28 9
M  V30 29 1 29 10
M  V30 30 1 30 10
M  V30 31 1 31 11
M  V30 32 1 32 11
M  V30 33 1 33 11
M  V30 34 1 34 12
M  V30 35 1 35 12
M  V30 36 1 13 36 CFG=3
M  V30 37 1 37 14
M  V30 38 1 38 15
M  V30 39 1 39 15
M  V30 40 1 40 16
M  V30 41 1 41 16
M  V30 42 1 42 16
M  V30 43 1 43 17
M  V30 44 1 44 17
M  V30 45 1 45 14
M  V30 END BOND
M  V30 END CTAB
M  END
>  <i_epik_Tot_Q>  (1) 
1

>  <i_epik_Tot_abs_Q>  (1) 
1

>  <i_i_glide_confnum>  (1) 
67

>  <i_i_glide_lignum>  (1) 
84

>  <i_i_glide_posenum>  (1) 
89

>  <i_i_glide_rotatable_bonds>  (1) 
9

>  <i_lp_mmshare_version>  (1) 
72125

>  <i_m_source_file_index>  (1) 
38

>  <i_f3d_flags>  (1) 
0

>  <num_sample>  (1) 
100

>  <b_lp_Chiralities_Consistent>  (1) 
1

>  <r_epik_Charging_Adjusted_Penalty>  (1) 
0.011588435553483814

>  <r_epik_Ionization_Penalty>  (1) 
0.0057942400121425265

>  <r_epik_Ionization_Penalty_Charging>  (1) 
0.0057942177767419025

>  <r_epik_Ionization_Penalty_Neutral>  (1) 
2.2235400624284582e-08

>  <r_epik_State_Penalty>  (1) 
0.0057942177767419112

>  <r_glide_ring_energy>  (1) 
0

>  <r_i_docking_score>  (1) 
-3.3995821923509242

>  <r_i_glide_ecoul>  (1) 
-7.0934347453159718

>  <r_i_glide_eff_state_penalty>  (1) 
0.0057942177767419112

>  <r_i_glide_einternal>  (1) 
4.6656723667908482

>  <r_i_glide_emodel>  (1) 
-39.380823387417855

>  <r_i_glide_emodel_strain>  (1) 
0.25340840705055712

>  <r_i_glide_energy>  (1) 
-32.257610077246781

>  <r_i_glide_erotb>  (1) 
3.7792363612633109

>  <r_i_glide_esite>  (1) 
-0.10000000000000001

>  <r_i_glide_evdw>  (1) 
-25.16417533193081

>  <r_i_glide_gscore>  (1) 
-3.405376410127666

>  <r_i_glide_gscore_strain>  (1) 
0

>  <r_i_glide_hbond>  (1) 
-0.46845942019922704

>  <r_i_glide_ligand_efficiency>  (1) 
-0.18886567735282911

>  <r_i_glide_ligand_efficiency_ln>  (1) 
-0.87384507289075897

>  <r_i_glide_ligand_efficiency_sa>  (1) 
-0.49496809858386104

>  <r_i_glide_lipo>  (1) 
-2.0088224834355484

>  <r_i_glide_metal>  (1) 
-0

>  <r_i_glide_rewards>  (1) 
-2.2851068893622646

>  <r_lp_Energy>  (1) 
14.633092999999999

>  <s_epik_cmdline>  (1) 
J2VwaWtfcHl0aG9uJywgJy1waHQnLCAnMS4wJywgJy1waCcsICc3LjQnLCAnLXRuJywgJzgnLCAnLW1hJywgJzUwMCcsICctaW1hZScsICc8aW5maWxlLm1hZT4nLCAnLW9tYWUnLCAnPG91dGZpbGUubWFlPic=

>  <s_epik_input>  (1) 
W0NIMl0xW0NIMl1bQ0gyXUMoW0NIM10pPVtDSF1bQ0BIXTFbQ0BASF0oT1tDSDNdKVtDSDJdW05IXVtDSDJdW0NIMl1bQ0gyXVtOSF1bQ0hdPU8=

>  <s_glide_docking_method>  (1) 
confgen

>  <s_i_glide_gridfile>  (1) 
gpcr_5ht2c_6bqh_protein_autoprepared_prepared

>  <s_lp_Force_Field>  (1) 
S-OPLS

>  <s_lp_Variant>  (1) 
DiffSBDD_37-1

>  <s_m_source_file>  (1) 
generated_GPCR_5HT2C_ligand_DiffSBDD_2026-06-23_prepared.sdf

>  <GenAI_Model>  (1) 
DiffSBDD

>  <Protein>  (1) 
GPCR_5HT2C

$$$$
DiffSBDD_14
     RDKit          3D

  0  0  0  0  0  0  0  0  0  0999 V3000
M  V30 BEGIN CTAB
M  V30 COUNTS 49 48 0 0 1
M  V30 BEGIN ATOM
M  V30 1 C 39.554614 27.314776 57.977998 0
M  V30 2 C 39.177277 28.342629 51.412764 0
M  V30 3 C 40.483401 28.389698 58.545605 0
M  V30 4 C 38.383056 29.477525 53.556312 0
M  V30 5 O 39.305962 32.440185 60.620126 0 CHG=-1
M  V30 6 N 36.865421 31.892431 58.967765 0 CHG=1
M  V30 7 C 39.052103 27.300852 56.722253 0
M  V30 8 C 37.667838 30.947267 59.764330 0 CFG=2
M  V30 9 C 40.524252 29.045699 51.356384 0
M  V30 10 C 37.218860 29.800656 55.748531 0
M  V30 11 C 38.048939 28.818041 54.908682 0 CFG=2
M  V30 12 C 38.282957 31.773996 60.892008 0
M  V30 13 C 40.712593 29.900296 50.098715 0
M  V30 14 O 37.702730 31.737862 61.998318 0
M  V30 15 C 38.697095 30.198023 58.878710 0
M  V30 16 O 39.245093 28.537821 60.586742 0
M  V30 17 C 39.894778 31.183379 50.168549 0
M  V30 18 C 38.245970 28.528033 52.370979 0
M  V30 19 C 39.325023 28.354482 55.653552 0
M  V30 20 C 39.785297 29.332112 59.554328 0 CFG=1
M  V30 21 H 39.292694 26.513165 58.653341 0
M  V30 22 H 38.973355 27.644793 50.612754 0
M  V30 23 H 40.976853 28.963154 57.767602 0
M  V30 24 H 41.296478 27.868763 59.053881 0
M  V30 25 H 37.656340 30.262152 53.367770 0
M  V30 26 H 39.330335 30.001945 53.627996 0
M  V30 27 H 36.213172 32.354277 59.583543 0
M  V30 28 H 37.481899 32.587925 58.574162 0
M  V30 29 H 38.404820 26.487128 56.428596 0
M  V30 30 H 36.985730 30.213526 60.197693 0
M  V30 31 H 40.743355 29.661121 52.219368 0
M  V30 32 H 41.271131 28.261385 51.367768 0
M  V30 33 H 37.792218 30.686980 56.021712 0
M  V30 34 H 36.335285 30.140092 55.207187 0
M  V30 35 H 36.845129 29.337805 56.655826 0
M  V30 36 H 37.418191 27.948766 54.715112 0
M  V30 37 H 41.765286 30.165697 50.001366 0
M  V30 38 H 40.445269 29.337286 49.203623 0
M  V30 39 H 39.179511 30.893334 58.190422 0
M  V30 40 H 38.112732 29.527740 58.265636 0
M  V30 41 H 38.622554 27.935958 60.211349 0
M  V30 42 H 40.074027 31.830492 49.315391 0
M  V30 43 H 38.845112 30.941351 50.167741 0
M  V30 44 H 40.102338 31.737720 51.082870 0
M  V30 45 H 37.320194 27.973041 52.312915 0
M  V30 46 H 39.853649 29.226305 56.030542 0
M  V30 47 H 39.998311 27.876892 54.943945 0
M  V30 48 H 40.533165 29.982310 60.009145 0
M  V30 49 H 36.344913 31.447735 58.216133 0
M  V30 END ATOM
M  V30 BEGIN BOND
M  V30 1 1 3 1
M  V30 2 2 7 1
M  V30 3 1 8 6
M  V30 4 1 9 2
M  V30 5 1 11 4
M  V30 6 1 11 10
M  V30 7 1 12 5
M  V30 8 1 12 8
M  V30 9 1 13 9
M  V30 10 2 14 12
M  V30 11 1 15 8
M  V30 12 1 17 13
M  V30 13 2 18 2
M  V30 14 1 18 4
M  V30 15 1 19 7
M  V30 16 1 19 11
M  V30 17 1 20 3
M  V30 18 1 20 15
M  V30 19 1 20 16
M  V30 20 1 21 1
M  V30 21 1 22 2
M  V30 22 1 23 3
M  V30 23 1 24 3
M  V30 24 1 25 4
M  V30 25 1 26 4
M  V30 26 1 27 6
M  V30 27 1 28 6
M  V30 28 1 29 7
M  V30 29 1 8 30 CFG=1
M  V30 30 1 31 9
M  V30 31 1 32 9
M  V30 32 1 33 10
M  V30 33 1 34 10
M  V30 34 1 35 10
M  V30 35 1 11 36 CFG=3
M  V30 36 1 37 13
M  V30 37 1 38 13
M  V30 38 1 39 15
M  V30 39 1 40 15
M  V30 40 1 41 16
M  V30 41 1 42 17
M  V30 42 1 43 17
M  V30 43 1 44 17
M  V30 44 1 45 18
M  V30 45 1 46 19
M  V30 46 1 47 19
M  V30 47 1 20 48 CFG=1
M  V30 48 1 49 6
M  V30 END BOND
M  V30 END CTAB
M  END
>  <i_epik_Tot_Q>  (1) 
0

>  <i_epik_Tot_abs_Q>  (1) 
2

>  <i_i_glide_confnum>  (1) 
1188

>  <i_i_glide_lignum>  (1) 
25

>  <i_i_glide_posenum>  (1) 
280

>  <i_i_glide_rotatable_bonds>  (1) 
12

>  <i_lp_mmshare_version>  (1) 
72125

>  <i_m_source_file_index>  (1) 
15

>  <i_f3d_flags>  (1) 
0

>  <num_sample>  (1) 
100

>  <b_lp_Chiralities_Consistent>  (1) 
1

>  <r_epik_Charging_Adjusted_Penalty>  (1) 
0.00991281995240933

>  <r_epik_Ionization_Penalty>  (1) 
0.0049587358016132182

>  <r_epik_Ionization_Penalty_Charging>  (1) 
0.0049586922537287062

>  <r_epik_Ionization_Penalty_Neutral>  (1) 
4.3547884512074136e-08

>  <r_epik_State_Penalty>  (1) 
0.0049541276986806238

>  <r_glide_ring_energy>  (1) 
0

>  <r_i_docking_score>  (1) 
-3.3992189350174127

>  <r_i_glide_ecoul>  (1) 
-5.3122253822490819

>  <r_i_glide_eff_state_penalty>  (1) 
0.0049541276986806238

>  <r_i_glide_einternal>  (1) 
6.615818466779456

>  <r_i_glide_emodel>  (1) 
-34.378943862970601

>  <r_i_glide_emodel_strain>  (1) 
1.0735450094790693

>  <r_i_glide_energy>  (1) 
-30.219609307146897

>  <r_i_glide_erotb>  (1) 
4.0583376510001772

>  <r_i_glide_esite>  (1) 
-0.10000000000000001

>  <r_i_glide_evdw>  (1) 
-24.907383924897815

>  <r_i_glide_gscore>  (1) 
-3.4041730627160933

>  <r_i_glide_gscore_strain>  (1) 
0

>  <r_i_glide_hbond>  (1) 
-0.26537446696896433

>  <r_i_glide_ligand_efficiency>  (1) 
-0.16996094675087065

>  <r_i_glide_ligand_efficiency_ln>  (1) 
-0.85071238569094332

>  <r_i_glide_ligand_efficiency_sa>  (1) 
-0.46134498799371215

>  <r_i_glide_lipo>  (1) 
-2.9581126888466858

>  <r_i_glide_metal>  (1) 
-0

>  <r_i_glide_rewards>  (1) 
-2.0968205543183664

>  <r_lp_Energy>  (1) 
-2.0844119999999999

>  <s_epik_cmdline>  (1) 
J2VwaWtfcHl0aG9uJywgJy1waHQnLCAnMS4wJywgJy1waCcsICc3LjQnLCAnLXRuJywgJzgnLCAnLW1hJywgJzUwMCcsICctaW1hZScsICc8aW5maWxlLm1hZT4nLCAnLW9tYWUnLCAnPG91dGZpbGUubWFlPic=

>  <s_epik_input>  (1) 
W09IXUMoPU8pW0NAQEhdKFtOSDJdKVtDSDJdW0NAQEhdKFtPSF0pW0NIMl0vW0NIXT1bQ0hdXFtDSDJdW0NAQEhdKFtDSDNdKVtDSDJdL1tDSF09W0NIXVxbQ0gyXVtDSDJdW0NIM10=

>  <s_glide_docking_method>  (1) 
confgen

>  <s_i_glide_gridfile>  (1) 
gpcr_5ht2c_6bqh_protein_autoprepared_prepared

>  <s_lp_Force_Field>  (1) 
S-OPLS

>  <s_lp_Variant>  (1) 
DiffSBDD_14-3

>  <s_m_source_file>  (1) 
generated_GPCR_5HT2C_ligand_DiffSBDD_2026-06-23_prepared.sdf

>  <GenAI_Model>  (1) 
DiffSBDD

>  <Protein>  (1) 
GPCR_5HT2C

$$$$
DiffSBDD_14
     RDKit          3D

  0  0  0  0  0  0  0  0  0  0999 V3000
M  V30 BEGIN CTAB
M  V30 COUNTS 49 48 0 0 1
M  V30 BEGIN ATOM
M  V30 1 C 39.410132 28.950075 58.215784 0
M  V30 2 C 38.853399 28.471513 51.488554 0
M  V30 3 C 38.839245 28.989613 59.622289 0
M  V30 4 C 39.323205 30.097699 53.390876 0
M  V30 5 O 35.644976 31.445124 61.364526 0 CHG=-1
M  V30 6 N 37.001406 32.982537 58.868496 0 CHG=1
M  V30 7 C 38.666581 29.021252 57.098746 0
M  V30 8 C 37.303241 31.816583 59.706544 0 CFG=2
M  V30 9 C 40.230920 28.591293 50.854365 0
M  V30 10 C 39.512577 31.516028 55.456462 0
M  V30 11 C 38.892439 30.239766 54.864595 0 CFG=2
M  V30 12 C 36.655408 32.111065 61.061541 0
M  V30 13 C 40.310501 29.619278 49.713425 0
M  V30 14 O 37.178960 33.003083 61.762367 0
M  V30 15 C 38.837861 31.581615 59.798408 0
M  V30 16 O 38.937596 30.137945 61.757183 0
M  V30 17 C 40.229096 31.062756 50.190388 0
M  V30 18 C 38.457038 29.125607 52.599262 0
M  V30 19 C 39.243444 28.985269 55.694207 0
M  V30 20 C 39.312422 30.233501 60.399971 0 CFG=1
M  V30 21 H 40.484035 28.860705 58.135235 0
M  V30 22 H 38.158355 27.808149 50.993501 0
M  V30 23 H 39.169259 28.084946 60.133639 0
M  V30 24 H 37.750575 28.939958 59.593160 0
M  V30 25 H 39.243579 31.072937 52.912001 0
M  V30 26 H 40.376953 29.840657 53.337868 0
M  V30 27 H 35.998994 33.033860 58.749100 0
M  V30 28 H 37.333813 33.816093 59.331079 0
M  V30 29 H 37.591799 29.110908 57.176669 0
M  V30 30 H 36.819482 30.962045 59.231383 0
M  V30 31 H 41.009313 28.779157 51.590084 0
M  V30 32 H 40.445014 27.607581 50.440940 0
M  V30 33 H 40.597660 31.501521 55.367758 0
M  V30 34 H 39.153891 32.402815 54.933448 0
M  V30 35 H 39.261047 31.641425 56.507505 0
M  V30 36 H 37.808974 30.370936 54.891328 0
M  V30 37 H 41.245068 29.536665 49.166964 0
M  V30 38 H 39.552315 29.409240 48.967966 0
M  V30 39 H 39.311596 32.396500 60.348143 0
M  V30 40 H 39.245120 31.656847 58.792739 0
M  V30 41 H 39.244705 29.320472 62.120482 0
M  V30 42 H 40.436310 31.737731 49.367739 0
M  V30 43 H 39.245139 31.311175 50.567487 0
M  V30 44 H 40.956723 31.264996 50.976396 0
M  V30 45 H 37.454201 28.969207 52.969484 0
M  V30 46 H 40.326316 28.859612 55.742966 0
M  V30 47 H 38.851351 28.092057 55.207053 0
M  V30 48 H 40.403328 30.232702 60.394474 0
M  V30 49 H 37.423645 32.876079 57.958127 0
M  V30 END ATOM
M  V30 BEGIN BOND
M  V30 1 1 3 1
M  V30 2 2 7 1
M  V30 3 1 8 6
M  V30 4 1 9 2
M  V30 5 1 11 4
M  V30 6 1 11 10
M  V30 7 1 12 5
M  V30 8 1 12 8
M  V30 9 1 13 9
M  V30 10 2 14 12
M  V30 11 1 15 8
M  V30 12 1 17 13
M  V30 13 2 18 2
M  V30 14 1 18 4
M  V30 15 1 19 7
M  V30 16 1 19 11
M  V30 17 1 20 3
M  V30 18 1 20 15
M  V30 19 1 20 16
M  V30 20 1 21 1
M  V30 21 1 22 2
M  V30 22 1 23 3
M  V30 23 1 24 3
M  V30 24 1 25 4
M  V30 25 1 26 4
M  V30 26 1 27 6
M  V30 27 1 28 6
M  V30 28 1 29 7
M  V30 29 1 8 30 CFG=3
M  V30 30 1 31 9
M  V30 31 1 32 9
M  V30 32 1 33 10
M  V30 33 1 34 10
M  V30 34 1 35 10
M  V30 35 1 11 36 CFG=3
M  V30 36 1 37 13
M  V30 37 1 38 13
M  V30 38 1 39 15
M  V30 39 1 40 15
M  V30 40 1 41 16
M  V30 41 1 42 17
M  V30 42 1 43 17
M  V30 43 1 44 17
M  V30 44 1 45 18
M  V30 45 1 46 19
M  V30 46 1 47 19
M  V30 47 1 20 48 CFG=1
M  V30 48 1 49 6
M  V30 END BOND
M  V30 END CTAB
M  END
>  <i_epik_Tot_Q>  (1) 
0

>  <i_epik_Tot_abs_Q>  (1) 
2

>  <i_i_glide_confnum>  (1) 
312

>  <i_i_glide_lignum>  (1) 
26

>  <i_i_glide_posenum>  (1) 
229

>  <i_i_glide_rotatable_bonds>  (1) 
12

>  <i_lp_mmshare_version>  (1) 
72125

>  <i_m_source_file_index>  (1) 
15

>  <i_f3d_flags>  (1) 
0

>  <num_sample>  (1) 
100

>  <b_lp_Chiralities_Consistent>  (1) 
1

>  <r_epik_Charging_Adjusted_Penalty>  (1) 
0.00991281995240933

>  <r_epik_Ionization_Penalty>  (1) 
0.0049587358016132182

>  <r_epik_Ionization_Penalty_Charging>  (1) 
0.0049586922537287062

>  <r_epik_Ionization_Penalty_Neutral>  (1) 
4.3547884512074136e-08

>  <r_epik_State_Penalty>  (1) 
0.0049541276986806238

>  <r_glide_ring_energy>  (1) 
0

>  <r_i_docking_score>  (1) 
-3.3990140547592365

>  <r_i_glide_ecoul>  (1) 
-6.2965517125220547

>  <r_i_glide_eff_state_penalty>  (1) 
0.0049541276986806238

>  <r_i_glide_einternal>  (1) 
4.8059447629790508

>  <r_i_glide_emodel>  (1) 
-37.29671021401856

>  <r_i_glide_emodel_strain>  (1) 
0.083087559872552674

>  <r_i_glide_energy>  (1) 
-30.773128664964119

>  <r_i_glide_erotb>  (1) 
4.0583376510001772

>  <r_i_glide_esite>  (1) 
-0.14255523852814181

>  <r_i_glide_evdw>  (1) 
-24.476576952442063

>  <r_i_glide_gscore>  (1) 
-3.4039681824579171

>  <r_i_glide_gscore_strain>  (1) 
0

>  <r_i_glide_hbond>  (1) 
-0.18095239168218005

>  <r_i_glide_ligand_efficiency>  (1) 
-0.16995070273796181

>  <r_i_glide_ligand_efficiency_ln>  (1) 
-0.85066111091972507

>  <r_i_glide_ligand_efficiency_sa>  (1) 
-0.46131718146460782

>  <r_i_glide_lipo>  (1) 
-2.7621774718359355

>  <r_i_glide_metal>  (1) 
-0

>  <r_i_glide_rewards>  (1) 
-2.2083091269114248

>  <r_lp_Energy>  (1) 
-3.8776999999999999

>  <s_epik_cmdline>  (1) 
J2VwaWtfcHl0aG9uJywgJy1waHQnLCAnMS4wJywgJy1waCcsICc3LjQnLCAnLXRuJywgJzgnLCAnLW1hJywgJzUwMCcsICctaW1hZScsICc8aW5maWxlLm1hZT4nLCAnLW9tYWUnLCAnPG91dGZpbGUubWFlPic=

>  <s_epik_input>  (1) 
W09IXUMoPU8pW0NAQEhdKFtOSDJdKVtDSDJdW0NAQEhdKFtPSF0pW0NIMl0vW0NIXT1bQ0hdL1tDSDJdW0NAQEhdKFtDSDNdKVtDSDJdL1tDSF09W0NIXVxbQ0gyXVtDSDJdW0NIM10=

>  <s_glide_docking_method>  (1) 
confgen

>  <s_i_glide_gridfile>  (1) 
gpcr_5ht2c_6bqh_protein_autoprepared_prepared

>  <s_lp_Force_Field>  (1) 
S-OPLS

>  <s_lp_Variant>  (1) 
DiffSBDD_14-4

>  <s_m_source_file>  (1) 
generated_GPCR_5HT2C_ligand_DiffSBDD_2026-06-23_prepared.sdf

>  <GenAI_Model>  (1) 
DiffSBDD

>  <Protein>  (1) 
GPCR_5HT2C

$$$$
DiffSBDD_16
     RDKit          3D

  0  0  0  0  0  0  0  0  0  0999 V3000
M  V30 BEGIN CTAB
M  V30 COUNTS 70 74 0 0 1
M  V30 BEGIN ATOM
M  V30 1 C 37.884929 30.030374 58.286340 0
M  V30 2 C 41.491650 30.768064 66.906855 0
M  V30 3 C 39.424952 30.864114 61.776943 0 CFG=1
M  V30 4 C 39.297555 30.203973 63.125085 0
M  V30 5 C 39.433729 30.344209 56.416748 0
M  V30 6 C 39.687366 28.961005 56.389486 0
M  V30 7 C 35.733249 33.602015 61.232053 0
M  V30 8 C 36.089353 34.582565 60.103186 0
M  V30 9 C 38.704752 32.217646 61.658865 0
M  V30 10 C 39.047160 28.112965 57.305785 0
M  V30 11 O 34.866518 31.411067 61.009426 0
M  V30 12 C 42.581250 31.192329 64.707195 0
M  V30 13 C 41.510861 31.230738 63.866456 0
M  V30 14 C 41.666640 31.703184 62.426572 0
M  V30 15 C 42.571352 30.852288 66.147163 0
M  V30 16 C 38.555335 30.883619 57.380402 0
M  V30 17 N 41.727294 30.525387 68.238914 0
M  V30 18 C 44.971298 31.669466 69.227252 0
M  V30 19 N 40.850651 30.936345 61.450477 0 CHG=1
M  V30 20 C 45.502711 31.969152 67.855967 0
M  V30 21 C 40.083652 31.251471 55.393600 0
M  V30 22 C 37.511693 35.024249 60.246159 0
M  V30 23 C 39.878155 34.487628 60.167819 0
M  V30 24 C 38.490271 33.986652 59.733377 0 CFG=1
M  V30 25 C 36.864640 30.573592 59.219513 0
M  V30 26 C 38.293935 32.505483 60.172281 0 CFG=2
M  V30 27 C 35.794664 32.155293 60.749126 0
M  V30 28 C 43.814600 30.632767 66.888203 0 CFG=2
M  V30 29 C 36.981148 31.711386 59.964118 0
M  V30 30 C 43.004207 30.713122 68.218900 0
M  V30 31 N 44.897529 31.616864 66.779174 0
M  V30 32 C 38.137379 28.642525 58.237423 0
M  V30 33 C 40.102001 30.841122 64.264067 0
M  V30 34 C 43.771225 31.081571 69.389547 0
M  V30 35 H 40.481477 30.936891 66.602893 0
M  V30 36 H 38.975295 30.163948 61.070236 0
M  V30 37 H 39.667865 29.184629 62.991065 0
M  V30 38 H 38.245686 30.142180 63.388554 0
M  V30 39 H 40.366394 28.550145 55.656701 0
M  V30 40 H 34.709547 33.793482 61.556227 0
M  V30 41 H 36.350617 33.747548 62.115709 0
M  V30 42 H 35.881246 34.185933 59.105359 0
M  V30 43 H 35.565425 35.513519 60.166209 0
M  V30 44 H 37.840840 32.179690 62.316123 0
M  V30 45 H 39.262166 33.014773 62.139153 0
M  V30 46 H 39.239888 27.049575 57.284667 0
M  V30 47 H 43.537698 31.463334 64.290014 0
M  V30 48 H 41.375331 32.749670 62.404227 0
M  V30 49 H 42.722228 31.708677 62.163393 0
M  V30 50 H 38.348345 31.943691 57.383412 0
M  V30 51 H 45.569886 31.987478 70.062160 0
M  V30 52 H 41.163303 29.977126 61.450617 0
M  V30 53 H 46.440510 32.523363 67.830767 0
M  V30 54 H 40.445804 32.159356 55.866771 0
M  V30 55 H 40.906401 30.759688 54.872845 0
M  V30 56 H 39.339546 31.541328 54.653584 0
M  V30 57 H 37.659379 35.955627 59.694748 0
M  V30 58 H 37.694787 35.270545 61.294163 0
M  V30 59 H 39.848605 35.214406 60.981709 0
M  V30 60 H 40.446331 33.655821 60.540094 0
M  V30 61 H 40.443737 34.937361 59.368622 0
M  V30 62 H 38.434306 33.996154 58.643638 0
M  V30 63 H 35.926483 30.035371 59.242568 0
M  V30 64 H 39.049878 31.997596 59.583494 0
M  V30 65 H 44.179586 29.614499 66.733436 0
M  V30 66 H 37.646437 27.988288 58.920242 0
M  V30 67 H 40.105400 30.011277 64.964658 0
M  V30 68 H 39.645311 31.724568 64.693882 0
M  V30 69 H 43.327377 30.900348 70.356151 0
M  V30 70 H 40.950890 31.329072 60.525601 0
M  V30 END ATOM
M  V30 BEGIN BOND
M  V30 1 1 4 3
M  V30 2 1 6 5
M  V30 3 1 8 7
M  V30 4 1 9 3
M  V30 5 2 10 6
M  V30 6 2 13 12
M  V30 7 1 14 13
M  V30 8 2 15 2
M  V30 9 1 15 12
M  V30 10 1 16 1
M  V30 11 2 16 5
M  V30 12 1 17 2
M  V30 13 1 19 3
M  V30 14 1 19 14
M  V30 15 1 20 18
M  V30 16 1 21 5
M  V30 17 1 22 8
M  V30 18 1 24 22
M  V30 19 1 24 23
M  V30 20 1 25 1
M  V30 21 1 26 9
M  V30 22 1 26 24
M  V30 23 1 27 7
M  V30 24 2 27 11
M  V30 25 1 28 15
M  V30 26 2 29 25
M  V30 27 1 29 26
M  V30 28 1 29 27
M  V30 29 2 30 17
M  V30 30 1 30 28
M  V30 31 2 31 20
M  V30 32 1 31 28
M  V30 33 2 32 1
M  V30 34 1 32 10
M  V30 35 1 33 4
M  V30 36 1 33 13
M  V30 37 2 34 18
M  V30 38 1 34 30
M  V30 39 1 35 2
M  V30 40 1 3 36 CFG=3
M  V30 41 1 37 4
M  V30 42 1 38 4
M  V30 43 1 39 6
M  V30 44 1 40 7
M  V30 45 1 41 7
M  V30 46 1 42 8
M  V30 47 1 43 8
M  V30 48 1 44 9
M  V30 49 1 45 9
M  V30 50 1 46 10
M  V30 51 1 47 12
M  V30 52 1 48 14
M  V30 53 1 49 14
M  V30 54 1 50 16
M  V30 55 1 51 18
M  V30 56 1 52 19
M  V30 57 1 53 20
M  V30 58 1 54 21
M  V30 59 1 55 21
M  V30 60 1 56 21
M  V30 61 1 57 22
M  V30 62 1 58 22
M  V30 63 1 59 23
M  V30 64 1 60 23
M  V30 65 1 61 23
M  V30 66 1 24 62 CFG=3
M  V30 67 1 63 25
M  V30 68 1 26 64 CFG=3
M  V30 69 1 28 65 CFG=3
M  V30 70 1 66 32
M  V30 71 1 67 33
M  V30 72 1 68 33
M  V30 73 1 69 34
M  V30 74 1 70 19
M  V30 END BOND
M  V30 END CTAB
M  END
>  <i_epik_Tot_Q>  (1) 
1

>  <i_epik_Tot_abs_Q>  (1) 
1

>  <i_i_glide_confnum>  (1) 
4

>  <i_i_glide_lignum>  (1) 
36

>  <i_i_glide_posenum>  (1) 
214

>  <i_i_glide_rotatable_bonds>  (1) 
4

>  <i_lp_mmshare_version>  (1) 
72125

>  <i_m_source_file_index>  (1) 
17

>  <i_f3d_flags>  (1) 
0

>  <num_sample>  (1) 
100

>  <b_lp_Chiralities_Consistent>  (1) 
1

>  <r_epik_Charging_Adjusted_Penalty>  (1) 
0.57808156404405586

>  <r_epik_Ionization_Penalty>  (1) 
0.28904078202202793

>  <r_epik_Ionization_Penalty_Charging>  (1) 
0.28904078202202793

>  <r_epik_Ionization_Penalty_Neutral>  (1) 
0

>  <r_epik_State_Penalty>  (1) 
0.28904078202202793

>  <r_glide_ring_energy>  (1) 
2.0215911855591844

>  <r_i_docking_score>  (1) 
-3.3844609039184372

>  <r_i_glide_ecoul>  (1) 
1.9554848221305738

>  <r_i_glide_eff_state_penalty>  (1) 
0.28904078202202793

>  <r_i_glide_einternal>  (1) 
7.0548305352569436

>  <r_i_glide_emodel>  (1) 
-15.09986190904646

>  <r_i_glide_emodel_strain>  (1) 
6.715378570663205

>  <r_i_glide_energy>  (1) 
-22.44481767214657

>  <r_i_glide_erotb>  (1) 
0.29147875755417113

>  <r_i_glide_esite>  (1) 
-0.06215178675037028

>  <r_i_glide_evdw>  (1) 
-24.400302494277145

>  <r_i_glide_gscore>  (1) 
-3.6735016859404652

>  <r_i_glide_gscore_strain>  (1) 
0.67884464266580125

>  <r_i_glide_hbond>  (1) 
-0.011762746956070902

>  <r_i_glide_ligand_efficiency>  (1) 
-0.099542967762306978

>  <r_i_glide_ligand_efficiency_ln>  (1) 
-0.74772234458841336

>  <r_i_glide_ligand_efficiency_sa>  (1) 
-0.32248057309695383

>  <r_i_glide_lipo>  (1) 
-2.2276348790533822

>  <r_i_glide_metal>  (1) 
-0

>  <r_i_glide_rewards>  (1) 
-1.4155832720063433

>  <r_lp_Energy>  (1) 
58.700623999999998

>  <s_epik_Chemistry_Notes>  (1) 
This compound has an imine and may undergo hydrolysis.

>  <s_epik_cmdline>  (1) 
J2VwaWtfcHl0aG9uJywgJy1waHQnLCAnMS4wJywgJy1waCcsICc3LjQnLCAnLXRuJywgJzgnLCAnLW1hJywgJzUwMCcsICctaW1hZScsICc8aW5maWxlLm1hZT4nLCAnLW9tYWUnLCAnPG91dGZpbGUubWFlPic=

>  <s_epik_input>  (1) 
W2NIXTFbY0hdW2NIXWMoW0NIM10pW2NIXWMxL1tDSF09QyhDKD1PKVtDSDJdW0NIMl1bQ0gyXVtDQEhdMltDSDNdKVxbQ0BASF0yW0NIMl1bQ0BASF0zW0NIMl1bQ0gyXUMoL1tDSDJdW05IXTMpPVtDSF1cQzQ9W0NIXU49QyhbQ0BASF00NSlbQ0hdPVtDSF1bQ0hdPU41

>  <s_glide_docking_method>  (1) 
confgen

>  <s_i_glide_gridfile>  (1) 
gpcr_5ht2c_6bqh_protein_autoprepared_prepared

>  <s_lp_Force_Field>  (1) 
S-OPLS

>  <s_lp_Variant>  (1) 
DiffSBDD_16-4

>  <s_m_source_file>  (1) 
generated_GPCR_5HT2C_ligand_DiffSBDD_2026-06-23_prepared.sdf

>  <GenAI_Model>  (1) 
DiffSBDD

>  <Protein>  (1) 
GPCR_5HT2C

$$$$
DiffSBDD_14
     RDKit          3D

  0  0  0  0  0  0  0  0  0  0999 V3000
M  V30 BEGIN CTAB
M  V30 COUNTS 49 48 0 0 1
M  V30 BEGIN ATOM
M  V30 1 C 38.046151 27.783440 57.677451 0
M  V30 2 C 39.775437 27.737752 51.080238 0
M  V30 3 C 38.482739 28.949598 58.542428 0
M  V30 4 C 38.946590 27.421691 53.446689 0
M  V30 5 O 35.330238 33.098856 61.367761 0 CHG=-1
M  V30 6 N 36.845145 33.337758 58.567772 0 CHG=1
M  V30 7 C 38.045134 27.806461 56.336811 0
M  V30 8 C 36.589299 32.273694 59.548164 0 CFG=2
M  V30 9 C 39.254879 29.147635 50.967635 0
M  V30 10 C 39.845869 25.629191 55.007896 0
M  V30 11 C 38.595413 26.253333 54.387984 0 CFG=1
M  V30 12 C 36.476944 32.969432 60.894045 0
M  V30 13 C 40.024390 29.995725 49.944755 0
M  V30 14 O 37.538136 33.372302 61.416022 0
M  V30 15 C 37.694894 31.186356 59.546768 0
M  V30 16 O 37.645137 30.772891 57.200287 0
M  V30 17 C 41.351367 30.523138 50.489300 0
M  V30 18 C 39.641917 26.974056 52.173804 0
M  V30 19 C 37.595922 26.647685 55.471469 0
M  V30 20 C 37.497627 30.130727 58.449209 0 CFG=1
M  V30 21 H 37.716844 26.894701 58.194208 0
M  V30 22 H 40.280270 27.338535 50.211582 0
M  V30 23 H 39.491733 29.258339 58.266307 0
M  V30 24 H 38.537906 28.586887 59.569399 0
M  V30 25 H 38.035093 27.954428 53.171682 0
M  V30 26 H 39.588969 28.139281 53.956920 0
M  V30 27 H 36.160820 34.066572 58.707488 0
M  V30 28 H 37.773087 33.708066 58.708272 0
M  V30 29 H 38.374436 28.695674 55.820055 0
M  V30 30 H 35.623880 31.814950 59.326427 0
M  V30 31 H 38.229122 29.001319 50.660200 0
M  V30 32 H 39.228987 29.647028 51.936851 0
M  V30 33 H 40.378368 26.326688 55.655031 0
M  V30 34 H 39.605140 24.740729 55.591086 0
M  V30 35 H 40.517691 25.337778 54.212147 0
M  V30 36 H 38.079536 25.496523 53.796459 0
M  V30 37 H 40.190361 29.419715 49.032773 0
M  V30 38 H 39.414976 30.852494 49.655495 0
M  V30 39 H 37.684851 30.668989 60.507802 0
M  V30 40 H 38.684710 31.638596 59.465157 0
M  V30 41 H 36.768836 31.108642 56.967635 0
M  V30 42 H 41.958677 30.937910 49.686563 0
M  V30 43 H 41.179021 31.301841 51.231944 0
M  V30 44 H 41.931090 29.737654 50.967740 0
M  V30 45 H 40.045138 25.977012 52.169102 0
M  V30 46 H 37.347224 25.786633 56.092890 0
M  V30 47 H 36.679255 26.937753 54.967753 0
M  V30 48 H 36.480489 29.738060 58.513297 0
M  V30 49 H 36.738581 32.952523 57.637263 0
M  V30 END ATOM
M  V30 BEGIN BOND
M  V30 1 1 3 1
M  V30 2 2 7 1
M  V30 3 1 8 6
M  V30 4 1 9 2
M  V30 5 1 11 4
M  V30 6 1 11 10
M  V30 7 1 12 5
M  V30 8 1 12 8
M  V30 9 1 13 9
M  V30 10 2 14 12
M  V30 11 1 15 8
M  V30 12 1 17 13
M  V30 13 2 18 2
M  V30 14 1 18 4
M  V30 15 1 19 7
M  V30 16 1 19 11
M  V30 17 1 20 3
M  V30 18 1 20 15
M  V30 19 1 20 16
M  V30 20 1 21 1
M  V30 21 1 22 2
M  V30 22 1 23 3
M  V30 23 1 24 3
M  V30 24 1 25 4
M  V30 25 1 26 4
M  V30 26 1 27 6
M  V30 27 1 28 6
M  V30 28 1 29 7
M  V30 29 1 8 30 CFG=3
M  V30 30 1 31 9
M  V30 31 1 32 9
M  V30 32 1 33 10
M  V30 33 1 34 10
M  V30 34 1 35 10
M  V30 35 1 11 36 CFG=3
M  V30 36 1 37 13
M  V30 37 1 38 13
M  V30 38 1 39 15
M  V30 39 1 40 15
M  V30 40 1 41 16
M  V30 41 1 42 17
M  V30 42 1 43 17
M  V30 43 1 44 17
M  V30 44 1 45 18
M  V30 45 1 46 19
M  V30 46 1 47 19
M  V30 47 1 20 48 CFG=3
M  V30 48 1 49 6
M  V30 END BOND
M  V30 END CTAB
M  END
>  <i_epik_Tot_Q>  (1) 
0

>  <i_epik_Tot_abs_Q>  (1) 
2

>  <i_i_glide_confnum>  (1) 
531

>  <i_i_glide_lignum>  (1) 
30

>  <i_i_glide_posenum>  (1) 
107

>  <i_i_glide_rotatable_bonds>  (1) 
12

>  <i_lp_mmshare_version>  (1) 
72125

>  <i_m_source_file_index>  (1) 
15

>  <i_f3d_flags>  (1) 
0

>  <num_sample>  (1) 
100

>  <b_lp_Chiralities_Consistent>  (1) 
1

>  <r_epik_Charging_Adjusted_Penalty>  (1) 
0.00991281995240933

>  <r_epik_Ionization_Penalty>  (1) 
0.0049587358016132182

>  <r_epik_Ionization_Penalty_Charging>  (1) 
0.0049586922537287062

>  <r_epik_Ionization_Penalty_Neutral>  (1) 
4.3547884512074136e-08

>  <r_epik_State_Penalty>  (1) 
0.0049541276986806238

>  <r_glide_ring_energy>  (1) 
0

>  <r_i_docking_score>  (1) 
-3.383341662668752

>  <r_i_glide_ecoul>  (1) 
-8.1162670140029025

>  <r_i_glide_eff_state_penalty>  (1) 
0.0049541276986806238

>  <r_i_glide_einternal>  (1) 
12.573828849043249

>  <r_i_glide_emodel>  (1) 
-31.180532317643657

>  <r_i_glide_emodel_strain>  (1) 
1.1890097601732599

>  <r_i_glide_energy>  (1) 
-30.097500314109361

>  <r_i_glide_erotb>  (1) 
4.0583376510001772

>  <r_i_glide_esite>  (1) 
-0.088138100560604754

>  <r_i_glide_evdw>  (1) 
-21.981233300106457

>  <r_i_glide_gscore>  (1) 
-3.3882957903674327

>  <r_i_glide_gscore_strain>  (1) 
0

>  <r_i_glide_hbond>  (1) 
-0.27924824583214763

>  <r_i_glide_ligand_efficiency>  (1) 
-0.16916708313343759

>  <r_i_glide_ligand_efficiency_ln>  (1) 
-0.84673882808956313

>  <r_i_glide_ligand_efficiency_sa>  (1) 
-0.45919011060537812

>  <r_i_glide_lipo>  (1) 
-2.67039001980848

>  <r_i_glide_metal>  (1) 
-0

>  <r_i_glide_rewards>  (1) 
-2.0923553580606189

>  <r_lp_Energy>  (1) 
-3.5603029999999998

>  <s_epik_cmdline>  (1) 
J2VwaWtfcHl0aG9uJywgJy1waHQnLCAnMS4wJywgJy1waCcsICc3LjQnLCAnLXRuJywgJzgnLCAnLW1hJywgJzUwMCcsICctaW1hZScsICc8aW5maWxlLm1hZT4nLCAnLW9tYWUnLCAnPG91dGZpbGUubWFlPic=

>  <s_epik_input>  (1) 
W09IXUMoPU8pW0NAQEhdKFtOSDJdKVtDSDJdW0NAQEhdKFtPSF0pW0NIMl0vW0NIXT1bQ0hdL1tDSDJdW0NAQEhdKFtDSDNdKVtDSDJdL1tDSF09W0NIXVxbQ0gyXVtDSDJdW0NIM10=

>  <s_glide_docking_method>  (1) 
confgen

>  <s_i_glide_gridfile>  (1) 
gpcr_5ht2c_6bqh_protein_autoprepared_prepared

>  <s_lp_Force_Field>  (1) 
S-OPLS

>  <s_lp_Variant>  (1) 
DiffSBDD_14-8

>  <s_m_source_file>  (1) 
generated_GPCR_5HT2C_ligand_DiffSBDD_2026-06-23_prepared.sdf

>  <GenAI_Model>  (1) 
DiffSBDD

>  <Protein>  (1) 
GPCR_5HT2C

$$$$
DiffSBDD_58
     RDKit          3D

  0  0  0  0  0  0  0  0  0  0999 V3000
M  V30 BEGIN CTAB
M  V30 COUNTS 76 76 0 0 1
M  V30 BEGIN ATOM
M  V30 1 C 38.956743 29.222010 57.049953 0
M  V30 2 C 38.770631 31.749814 57.746568 0 CFG=1
M  V30 3 C 42.043827 32.394157 62.066147 0
M  V30 4 C 37.972151 33.727495 59.339052 0 CFG=1
M  V30 5 C 38.162523 25.819678 58.231485 0
M  V30 6 C 41.988823 32.709636 67.083106 0
M  V30 7 O 37.161065 24.512643 54.567850 0
M  V30 8 C 39.644944 33.156018 62.672391 0
M  V30 9 N 42.153327 33.815942 66.322722 0
M  V30 10 C 38.606260 26.101729 55.687442 0 CFG=2
M  V30 11 C 38.782717 28.084947 53.873068 0
M  V30 12 C 38.046142 33.443660 55.906483 0
M  V30 13 C 39.819171 31.866206 55.371759 0
M  V30 14 C 37.192479 25.774948 55.172939 0
M  V30 15 N 41.108300 31.336334 65.284122 0
M  V30 16 C 40.860480 32.287610 63.042805 0 CFG=2
M  V30 17 N 39.148268 32.867678 61.314459 0 CHG=1
M  V30 18 O 36.946035 34.626549 58.967678 0
M  V30 19 C 41.477134 31.496172 66.574870 0
M  V30 20 C 39.047129 30.250264 58.151171 0
M  V30 21 O 38.301246 27.625026 52.618475 0
M  V30 22 C 38.001787 33.693613 60.877837 0 CFG=2
M  V30 23 C 38.532184 32.021669 56.217302 0
M  V30 24 O 40.099384 26.137773 53.735398 0
M  V30 25 C 38.490203 26.680394 57.108583 0
M  V30 26 C 37.887904 24.509568 58.106202 0
M  V30 27 C 39.472829 26.953135 54.686646 0 CFG=2
M  V30 28 C 41.790298 33.667316 65.028978 0
M  V30 29 C 37.705979 32.339604 58.707076 0
M  V30 30 C 41.272411 32.438525 64.514521 0
M  V30 31 N 41.942931 34.782077 64.206822 0
M  V30 32 C 38.697097 27.962309 57.263086 0
M  V30 33 C 36.664236 33.211856 61.493403 0
M  V30 34 H 39.120814 29.563079 56.058861 0
M  V30 35 H 39.645119 32.348911 57.947456 0
M  V30 36 H 42.850063 31.737537 62.385802 0
M  V30 37 H 41.762881 32.101192 61.055552 0
M  V30 38 H 42.444888 33.398489 62.006552 0
M  V30 39 H 38.911025 34.136832 58.970075 0
M  V30 40 H 38.136309 26.256620 59.215930 0
M  V30 41 H 42.271348 32.793290 68.121947 0
M  V30 42 H 37.787246 24.503578 53.858395 0
M  V30 43 H 39.865294 34.219229 62.756675 0
M  V30 44 H 38.845158 32.938612 63.367761 0
M  V30 45 H 39.160926 25.171572 55.820513 0
M  V30 46 H 39.502077 28.878537 53.664446 0
M  V30 47 H 37.965103 28.551023 54.422890 0
M  V30 48 H 38.845031 34.169981 56.017066 0
M  V30 49 H 37.677535 33.511175 54.883141 0
M  V30 50 H 37.239710 33.755918 56.549086 0
M  V30 51 H 40.568009 32.537984 55.767846 0
M  V30 52 H 40.321683 30.906265 55.360702 0
M  V30 53 H 39.634777 32.126580 54.330109 0
M  V30 54 H 36.456335 25.754482 55.978252 0
M  V30 55 H 36.845118 26.523570 54.471448 0
M  V30 56 H 40.516714 31.255492 62.947164 0
M  V30 57 H 38.895687 31.891885 61.241930 0
M  V30 58 H 37.284605 35.507422 58.917043 0
M  V30 59 H 41.361618 30.635715 67.219161 0
M  V30 60 H 38.391560 29.896278 58.946847 0
M  V30 61 H 40.044977 30.137702 58.563430 0
M  V30 62 H 37.530972 27.088618 52.746059 0
M  V30 63 H 38.179543 34.715844 61.218685 0
M  V30 64 H 37.756371 31.345955 55.853429 0
M  V30 65 H 39.734135 26.403076 52.897892 0
M  V30 66 H 37.645165 23.913052 58.967508 0
M  V30 67 H 37.900143 24.019386 57.147575 0
M  V30 68 H 40.309755 27.381815 55.238624 0
M  V30 69 H 36.791989 32.399154 58.167922 0
M  V30 70 H 37.469062 31.631511 59.493448 0
M  V30 71 H 41.715820 34.752697 63.227171 0
M  V30 72 H 42.306207 35.655273 64.567528 0
M  V30 73 H 35.819291 33.788282 61.112816 0
M  V30 74 H 36.450224 32.161407 61.300375 0
M  V30 75 H 36.644150 33.335532 62.566339 0
M  V30 76 H 39.908817 33.044838 60.675044 0
M  V30 END ATOM
M  V30 BEGIN BOND
M  V30 1 1 9 6
M  V30 2 1 14 7
M  V30 3 1 14 10
M  V30 4 1 16 3
M  V30 5 1 16 8
M  V30 6 1 17 8
M  V30 7 1 18 4
M  V30 8 2 19 6
M  V30 9 1 19 15
M  V30 10 1 20 1
M  V30 11 1 20 2
M  V30 12 1 21 11
M  V30 13 1 22 4
M  V30 14 1 22 17
M  V30 15 1 23 2
M  V30 16 1 23 12
M  V30 17 1 23 13
M  V30 18 1 25 5
M  V30 19 1 25 10
M  V30 20 2 26 5
M  V30 21 1 27 10
M  V30 22 1 27 11
M  V30 23 1 27 24
M  V30 24 2 28 9
M  V30 25 1 29 2
M  V30 26 1 29 4
M  V30 27 2 30 15
M  V30 28 1 30 16
M  V30 29 1 30 28
M  V30 30 1 31 28
M  V30 31 2 32 1
M  V30 32 2 32 25
M  V30 33 1 33 22
M  V30 34 1 34 1
M  V30 35 1 2 35 CFG=1
M  V30 36 1 36 3
M  V30 37 1 37 3
M  V30 38 1 38 3
M  V30 39 1 4 39 CFG=3
M  V30 40 1 40 5
M  V30 41 1 41 6
M  V30 42 1 42 7
M  V30 43 1 43 8
M  V30 44 1 44 8
M  V30 45 1 10 45 CFG=1
M  V30 46 1 46 11
M  V30 47 1 47 11
M  V30 48 1 48 12
M  V30 49 1 49 12
M  V30 50 1 50 12
M  V30 51 1 51 13
M  V30 52 1 52 13
M  V30 53 1 53 13
M  V30 54 1 54 14
M  V30 55 1 55 14
M  V30 56 1 16 56 CFG=1
M  V30 57 1 57 17
M  V30 58 1 58 18
M  V30 59 1 59 19
M  V30 60 1 60 20
M  V30 61 1 61 20
M  V30 62 1 62 21
M  V30 63 1 22 63 CFG=1
M  V30 64 1 64 23
M  V30 65 1 65 24
M  V30 66 1 66 26
M  V30 67 1 67 26
M  V30 68 1 27 68 CFG=1
M  V30 69 1 69 29
M  V30 70 1 70 29
M  V30 71 1 71 31
M  V30 72 1 72 31
M  V30 73 1 73 33
M  V30 74 1 74 33
M  V30 75 1 75 33
M  V30 76 1 76 17
M  V30 END BOND
M  V30 END CTAB
M  END
>  <i_epik_Tot_Q>  (1) 
1

>  <i_epik_Tot_abs_Q>  (1) 
1

>  <i_i_glide_confnum>  (1) 
599

>  <i_i_glide_lignum>  (1) 
129

>  <i_i_glide_posenum>  (1) 
183

>  <i_i_glide_rotatable_bonds>  (1) 
19

>  <i_lp_mmshare_version>  (1) 
72125

>  <i_m_source_file_index>  (1) 
59

>  <i_f3d_flags>  (1) 
0

>  <num_sample>  (1) 
100

>  <b_lp_Chiralities_Consistent>  (1) 
1

>  <r_epik_Charging_Adjusted_Penalty>  (1) 
0.031800499123457865

>  <r_epik_Ionization_Penalty>  (1) 
0.015929061655920795

>  <r_epik_Ionization_Penalty_Charging>  (1) 
0.015900249561728946

>  <r_epik_Ionization_Penalty_Neutral>  (1) 
2.8812094191846713e-05

>  <r_epik_State_Penalty>  (1) 
0.015900249561728919

>  <r_glide_ring_energy>  (1) 
0

>  <r_i_docking_score>  (1) 
-3.3590194089247705

>  <r_i_glide_ecoul>  (1) 
0.30748372619533881

>  <r_i_glide_eff_state_penalty>  (1) 
0.015900249561728919

>  <r_i_glide_einternal>  (1) 
21.400623224100343

>  <r_i_glide_emodel>  (1) 
-25.783539000127561

>  <r_i_glide_emodel_strain>  (1) 
7.7735162272954312

>  <r_i_glide_energy>  (1) 
-32.886026672268478

>  <r_i_glide_erotb>  (1) 
1.3125063474323406

>  <r_i_glide_esite>  (1) 
0

>  <r_i_glide_evdw>  (1) 
-33.193510398463815

>  <r_i_glide_gscore>  (1) 
-3.3749196584864993

>  <r_i_glide_gscore_strain>  (1) 
0.94337905682385781

>  <r_i_glide_hbond>  (1) 
0

>  <r_i_glide_ligand_efficiency>  (1) 
-0.10178846693711426

>  <r_i_glide_ligand_efficiency_ln>  (1) 
-0.74702852447317314

>  <r_i_glide_ligand_efficiency_sa>  (1) 
-0.32649000209843915

>  <r_i_glide_lipo>  (1) 
-3.5215041285017898

>  <r_i_glide_metal>  (1) 
-0

>  <r_i_glide_rewards>  (1) 
-0.49574797324701825

>  <r_lp_Energy>  (1) 
16.863154999999999

>  <r_lp_tautomer_probability>  (1) 
0.99999990128000804

>  <s_epik_cmdline>  (1) 
J2VwaWtfcHl0aG9uJywgJy1waHQnLCAnMS4wJywgJy1waCcsICc3LjQnLCAnLXRuJywgJzgnLCAnLW1hJywgJzUwMCcsICctaW1hZScsICc8aW5maWxlLm1hZT4nLCAnLW9tYWUnLCAnPG91dGZpbGUubWFlPic=

>  <s_epik_input>  (1) 
W09IXVtDSDJdW0NASF0oW09IXSlbQ0BIXShbQ0gyXVtPSF0pQyhbQ0hdPVtDSDJdKT1DPVtDSF1bQ0gyXVtDQEBIXShbQ0hdKFtDSDNdKVtDSDNdKVtDSDJdW0NAQEhdKFtPSF0pW0NAQEhdKFtDSDNdKVtOSF1bQ0gyXVtDQEBIXShbQ0gzXSljMW5bY0hdW2NIXW5jMVtOSDJd

>  <s_glide_docking_method>  (1) 
confgen

>  <s_i_glide_gridfile>  (1) 
gpcr_5ht2c_6bqh_protein_autoprepared_prepared

>  <s_lp_Force_Field>  (1) 
S-OPLS

>  <s_lp_Variant>  (1) 
DiffSBDD_58-1

>  <s_m_source_file>  (1) 
generated_GPCR_5HT2C_ligand_DiffSBDD_2026-06-23_prepared.sdf

>  <GenAI_Model>  (1) 
DiffSBDD

>  <Protein>  (1) 
GPCR_5HT2C

$$$$
DiffSBDD_14
     RDKit          3D

  0  0  0  0  0  0  0  0  0  0999 V3000
M  V30 BEGIN CTAB
M  V30 COUNTS 49 48 0 0 1
M  V30 BEGIN ATOM
M  V30 1 C 39.230846 30.717510 56.002130 0
M  V30 2 C 39.479274 27.323524 52.289567 0
M  V30 3 C 38.878001 31.996140 56.750806 0
M  V30 4 C 38.520945 26.399083 54.430880 0
M  V30 5 O 36.410282 31.457268 61.367781 0 CHG=-1
M  V30 6 N 36.141414 34.495670 60.082681 0 CHG=1
M  V30 7 C 39.339265 29.502767 56.569833 0
M  V30 8 C 36.589077 33.149124 59.716597 0 CFG=2
M  V30 9 C 39.406731 28.061376 50.967867 0
M  V30 10 C 38.051280 26.614034 56.923945 0
M  V30 11 C 38.404376 27.362382 55.626013 0 CFG=1
M  V30 12 C 37.055152 32.460361 60.998336 0
M  V30 13 C 40.450652 29.185506 50.894324 0
M  V30 14 O 38.038978 32.958256 61.588756 0
M  V30 15 C 37.691071 33.214723 58.632154 0
M  V30 16 O 37.245281 30.889724 58.167508 0
M  V30 17 C 40.001045 30.503146 51.529352 0
M  V30 18 C 38.433762 27.136873 53.106994 0
M  V30 19 C 39.663097 28.243029 55.800274 0
M  V30 20 C 38.272145 31.857029 58.169103 0 CFG=1
M  V30 21 H 39.394153 30.819837 54.939264 0
M  V30 22 H 40.443480 26.933908 52.571577 0
M  V30 23 H 38.158067 32.506892 56.109564 0
M  V30 24 H 39.753298 32.643800 56.776950 0
M  V30 25 H 39.452324 25.832414 54.492167 0
M  V30 26 H 37.710845 25.668881 54.448525 0
M  V30 27 H 35.362548 34.413302 60.719674 0
M  V30 28 H 36.906238 34.961439 60.549999 0
M  V30 29 H 39.183950 29.389425 57.631885 0
M  V30 30 H 35.715815 32.627095 59.321954 0
M  V30 31 H 39.596232 27.341231 50.168080 0
M  V30 32 H 38.406476 28.458708 50.797186 0
M  V30 33 H 38.840840 25.919787 57.213659 0
M  V30 34 H 37.897612 27.306023 57.753345 0
M  V30 35 H 37.129728 26.042375 56.809446 0
M  V30 36 H 37.572055 28.028008 55.397361 0
M  V30 37 H 41.375962 28.858741 51.369411 0
M  V30 38 H 40.691800 29.374278 49.848785 0
M  V30 39 H 38.512564 33.852089 58.963857 0
M  V30 40 H 37.252799 33.728193 57.774037 0
M  V30 41 H 36.523044 31.224846 57.620190 0
M  V30 42 H 40.833111 31.200582 51.631601 0
M  V30 43 H 39.247838 30.981977 50.903050 0
M  V30 44 H 39.577751 30.344556 52.521158 0
M  V30 45 H 37.463046 27.525967 52.831753 0
M  V30 46 H 40.045134 28.550240 54.830609 0
M  V30 47 H 40.470798 27.700278 56.292715 0
M  V30 48 H 39.025735 31.511491 58.875766 0
M  V30 49 H 35.867023 35.005947 59.256584 0
M  V30 END ATOM
M  V30 BEGIN BOND
M  V30 1 1 3 1
M  V30 2 2 7 1
M  V30 3 1 8 6
M  V30 4 1 9 2
M  V30 5 1 11 4
M  V30 6 1 11 10
M  V30 7 1 12 5
M  V30 8 1 12 8
M  V30 9 1 13 9
M  V30 10 2 14 12
M  V30 11 1 15 8
M  V30 12 1 17 13
M  V30 13 2 18 2
M  V30 14 1 18 4
M  V30 15 1 19 7
M  V30 16 1 19 11
M  V30 17 1 20 3
M  V30 18 1 20 15
M  V30 19 1 20 16
M  V30 20 1 21 1
M  V30 21 1 22 2
M  V30 22 1 23 3
M  V30 23 1 24 3
M  V30 24 1 25 4
M  V30 25 1 26 4
M  V30 26 1 27 6
M  V30 27 1 28 6
M  V30 28 1 29 7
M  V30 29 1 8 30 CFG=3
M  V30 30 1 31 9
M  V30 31 1 32 9
M  V30 32 1 33 10
M  V30 33 1 34 10
M  V30 34 1 35 10
M  V30 35 1 11 36 CFG=3
M  V30 36 1 37 13
M  V30 37 1 38 13
M  V30 38 1 39 15
M  V30 39 1 40 15
M  V30 40 1 41 16
M  V30 41 1 42 17
M  V30 42 1 43 17
M  V30 43 1 44 17
M  V30 44 1 45 18
M  V30 45 1 46 19
M  V30 46 1 47 19
M  V30 47 1 20 48 CFG=1
M  V30 48 1 49 6
M  V30 END BOND
M  V30 END CTAB
M  END
>  <i_epik_Tot_Q>  (1) 
0

>  <i_epik_Tot_abs_Q>  (1) 
2

>  <i_i_glide_confnum>  (1) 
815

>  <i_i_glide_lignum>  (1) 
28

>  <i_i_glide_posenum>  (1) 
212

>  <i_i_glide_rotatable_bonds>  (1) 
12

>  <i_lp_mmshare_version>  (1) 
72125

>  <i_m_source_file_index>  (1) 
15

>  <i_f3d_flags>  (1) 
0

>  <num_sample>  (1) 
100

>  <b_lp_Chiralities_Consistent>  (1) 
1

>  <r_epik_Charging_Adjusted_Penalty>  (1) 
0.00991281995240933

>  <r_epik_Ionization_Penalty>  (1) 
0.0049587358016132182

>  <r_epik_Ionization_Penalty_Charging>  (1) 
0.0049586922537287062

>  <r_epik_Ionization_Penalty_Neutral>  (1) 
4.3547884512074136e-08

>  <r_epik_State_Penalty>  (1) 
0.0049541276986806238

>  <r_glide_ring_energy>  (1) 
0

>  <r_i_docking_score>  (1) 
-3.3368612277974279

>  <r_i_glide_ecoul>  (1) 
-10.064042625380967

>  <r_i_glide_eff_state_penalty>  (1) 
0.0049541276986806238

>  <r_i_glide_einternal>  (1) 
9.6211358466895085

>  <r_i_glide_emodel>  (1) 
-36.417614176048851

>  <r_i_glide_emodel_strain>  (1) 
0.80249704089207974

>  <r_i_glide_energy>  (1) 
-33.290728456221721

>  <r_i_glide_erotb>  (1) 
4.0583376510001772

>  <r_i_glide_esite>  (1) 
-0.00023014481175416199

>  <r_i_glide_evdw>  (1) 
-23.226685830840754

>  <r_i_glide_gscore>  (1) 
-3.3418153554961085

>  <r_i_glide_gscore_strain>  (1) 
0

>  <r_i_glide_hbond>  (1) 
-0.31123046536149601

>  <r_i_glide_ligand_efficiency>  (1) 
-0.1668430613898714

>  <r_i_glide_ligand_efficiency_ln>  (1) 
-0.83510630826861376

>  <r_i_glide_ligand_efficiency_sa>  (1) 
-0.45288174504329243

>  <r_i_glide_lipo>  (1) 
-2.4724373239667017

>  <r_i_glide_metal>  (1) 
-0

>  <r_i_glide_rewards>  (1) 
-1.9453143870071512

>  <r_lp_Energy>  (1) 
-4.2601749999999994

>  <s_epik_cmdline>  (1) 
J2VwaWtfcHl0aG9uJywgJy1waHQnLCAnMS4wJywgJy1waCcsICc3LjQnLCAnLXRuJywgJzgnLCAnLW1hJywgJzUwMCcsICctaW1hZScsICc8aW5maWxlLm1hZT4nLCAnLW9tYWUnLCAnPG91dGZpbGUubWFlPic=

>  <s_epik_input>  (1) 
W09IXUMoPU8pW0NAQEhdKFtOSDJdKVtDSDJdW0NAQEhdKFtPSF0pW0NIMl0vW0NIXT1bQ0hdL1tDSDJdW0NAQEhdKFtDSDNdKVtDSDJdXFtDSF09W0NIXVxbQ0gyXVtDSDJdW0NIM10=

>  <s_glide_docking_method>  (1) 
confgen

>  <s_i_glide_gridfile>  (1) 
gpcr_5ht2c_6bqh_protein_autoprepared_prepared

>  <s_lp_Force_Field>  (1) 
S-OPLS

>  <s_lp_Variant>  (1) 
DiffSBDD_14-6

>  <s_m_source_file>  (1) 
generated_GPCR_5HT2C_ligand_DiffSBDD_2026-06-23_prepared.sdf

>  <GenAI_Model>  (1) 
DiffSBDD

>  <Protein>  (1) 
GPCR_5HT2C

$$$$
DiffSBDD_5
     RDKit          3D

  0  0  0  0  0  0  0  0  0  0999 V3000
M  V30 BEGIN CTAB
M  V30 COUNTS 20 19 0 0 1
M  V30 BEGIN ATOM
M  V30 1 C 37.349976 27.431743 53.622057 0
M  V30 2 C 38.100634 27.154421 54.938088 0
M  V30 3 C 39.927010 25.406041 57.034815 0
M  V30 4 S 38.182037 25.760146 57.367762 0
M  V30 5 O 39.797502 28.971478 51.284314 0
M  V30 6 C 37.965327 28.531855 52.730749 0
M  V30 7 O 39.645135 26.937759 52.174956 0 CHG=-1
M  V30 8 C 39.245137 28.109359 52.000920 0
M  V30 9 C 37.527655 25.936985 55.682484 0
M  V30 10 H 37.248583 26.509523 53.048313 0
M  V30 11 H 36.338222 27.737755 53.867485 0
M  V30 12 H 38.045180 28.038790 55.573762 0
M  V30 13 H 39.157744 26.986866 54.735767 0
M  V30 14 H 40.445136 25.199587 57.970556 0
M  V30 15 H 40.416471 26.254818 56.557930 0
M  V30 16 H 40.024257 24.537758 56.384771 0
M  V30 17 H 37.245138 28.809093 51.963053 0
M  V30 18 H 38.164452 29.429830 53.315942 0
M  V30 19 H 37.722174 25.022052 55.121639 0
M  V30 20 H 36.445142 26.030059 55.767748 0
M  V30 END ATOM
M  V30 BEGIN BOND
M  V30 1 1 2 1
M  V30 2 1 4 3
M  V30 3 1 6 1
M  V30 4 2 8 5
M  V30 5 1 8 6
M  V30 6 1 8 7
M  V30 7 1 9 2
M  V30 8 1 9 4
M  V30 9 1 10 1
M  V30 10 1 11 1
M  V30 11 1 12 2
M  V30 12 1 13 2
M  V30 13 1 14 3
M  V30 14 1 15 3
M  V30 15 1 16 3
M  V30 16 1 17 6
M  V30 17 1 18 6
M  V30 18 1 19 9
M  V30 19 1 20 9
M  V30 END BOND
M  V30 END CTAB
M  END
>  <i_epik_Tot_Q>  (1) 
-1

>  <i_epik_Tot_abs_Q>  (1) 
1

>  <i_i_glide_confnum>  (1) 
9

>  <i_i_glide_lignum>  (1) 
8

>  <i_i_glide_posenum>  (1) 
345

>  <i_i_glide_rotatable_bonds>  (1) 
5

>  <i_lp_mmshare_version>  (1) 
72125

>  <i_m_source_file_index>  (1) 
6

>  <i_f3d_flags>  (1) 
0

>  <num_sample>  (1) 
100

>  <b_lp_Chiralities_Consistent>  (1) 
1

>  <r_epik_Charging_Adjusted_Penalty>  (1) 
0.0016234785268329083

>  <r_epik_Ionization_Penalty>  (1) 
0.0016234785268329083

>  <r_epik_Ionization_Penalty_Charging>  (1) 
0.0016234785268329083

>  <r_epik_Ionization_Penalty_Neutral>  (1) 
0

>  <r_epik_State_Penalty>  (1) 
-0

>  <r_glide_ring_energy>  (1) 
0

>  <r_i_docking_score>  (1) 
-3.3225904719404324

>  <r_i_glide_ecoul>  (1) 
-0.26596036226628023

>  <r_i_glide_eff_state_penalty>  (1) 
-0

>  <r_i_glide_einternal>  (1) 
0.44546339281715941

>  <r_i_glide_emodel>  (1) 
-21.937714196344665

>  <r_i_glide_emodel_strain>  (1) 
0.14828496349823261

>  <r_i_glide_energy>  (1) 
-18.095422893492078

>  <r_i_glide_erotb>  (1) 
2.0195253186786486

>  <r_i_glide_esite>  (1) 
0

>  <r_i_glide_evdw>  (1) 
-17.829462531225797

>  <r_i_glide_gscore>  (1) 
-3.3225904719404324

>  <r_i_glide_gscore_strain>  (1) 
0

>  <r_i_glide_hbond>  (1) 
0

>  <r_i_glide_ligand_efficiency>  (1) 
-0.36917671910449251

>  <r_i_glide_ligand_efficiency_ln>  (1) 
-1.0392108504022142

>  <r_i_glide_ligand_efficiency_sa>  (1) 
-0.76791852125663185

>  <r_i_glide_lipo>  (1) 
-1.7107486097178493

>  <r_i_glide_metal>  (1) 
-0

>  <r_i_glide_rewards>  (1) 
-2.7000000000000002

>  <r_lp_Energy>  (1) 
4.776243

>  <r_lp_tautomer_probability>  (1) 
1

>  <s_epik_cmdline>  (1) 
J2VwaWtfcHl0aG9uJywgJy1waHQnLCAnMS4wJywgJy1waCcsICc3LjQnLCAnLXRuJywgJzgnLCAnLW1hJywgJzUwMCcsICctaW1hZScsICc8aW5maWxlLm1hZT4nLCAnLW9tYWUnLCAnPG91dGZpbGUubWFlPic=

>  <s_epik_input>  (1) 
Tz1DKFtPSF0pW0NIMl1bQ0gyXVtDSDJdW0NIMl1TW0NIM10=

>  <s_glide_docking_method>  (1) 
confgen

>  <s_i_glide_gridfile>  (1) 
gpcr_5ht2c_6bqh_protein_autoprepared_prepared

>  <s_lp_Force_Field>  (1) 
S-OPLS

>  <s_lp_Variant>  (1) 
DiffSBDD_5-1

>  <s_m_source_file>  (1) 
generated_GPCR_5HT2C_ligand_DiffSBDD_2026-06-23_prepared.sdf

>  <GenAI_Model>  (1) 
DiffSBDD

>  <Protein>  (1) 
GPCR_5HT2C

$$$$
DiffSBDD_37
     RDKit          3D

  0  0  0  0  0  0  0  0  0  0999 V3000
M  V30 BEGIN CTAB
M  V30 COUNTS 45 45 0 0 1
M  V30 BEGIN ATOM
M  V30 1 O 37.655659 31.327538 54.912077 0
M  V30 2 C 38.613600 27.500156 53.149675 0
M  V30 3 N 39.835184 31.145003 62.202993 0
M  V30 4 C 40.556430 30.069932 62.540523 0
M  V30 5 C 38.662637 30.586411 55.588058 0 CFG=1
M  V30 6 O 41.645129 30.137828 63.102572 0
M  V30 7 C 39.739127 30.137857 53.361629 0
M  V30 8 C 38.557526 31.041088 61.513256 0
M  V30 9 C 38.106740 28.425295 54.263825 0
M  V30 10 C 38.126532 30.069256 56.936733 0
M  V30 11 C 37.907225 32.725072 54.881146 0
M  V30 12 C 38.757526 31.057759 59.987983 0
M  V30 13 C 39.163688 29.494547 54.618292 0 CFG=2
M  V30 14 N 37.645137 31.196238 57.762064 0 CHG=1
M  V30 15 C 37.444602 30.923896 59.198997 0
M  V30 16 C 40.229860 30.293559 50.910714 0
M  V30 17 C 38.938406 28.282705 51.865538 0
M  V30 18 C 39.645132 29.605981 52.127751 0
M  V30 19 H 37.875864 26.725724 52.935425 0
M  V30 20 H 39.509657 26.982360 53.494773 0
M  V30 21 H 40.186829 32.065843 62.422717 0
M  V30 22 H 40.051690 29.135578 62.248169 0
M  V30 23 H 39.523616 31.219024 55.817852 0
M  V30 24 H 40.251682 31.079716 53.495145 0
M  V30 25 H 38.037851 30.137756 61.827868 0
M  V30 26 H 37.933422 31.881456 61.820096 0
M  V30 27 H 37.857782 27.829051 55.141604 0
M  V30 28 H 37.181625 28.904334 53.939994 0
M  V30 29 H 38.918000 29.530646 57.458669 0
M  V30 30 H 37.297751 29.375554 56.795011 0
M  V30 31 H 37.245139 33.210381 54.167760 0
M  V30 32 H 37.745301 33.181840 55.857332 0
M  V30 33 H 38.926072 32.937751 54.567766 0
M  V30 34 H 39.245137 31.995047 59.716456 0
M  V30 35 H 39.439205 30.257431 59.696933 0
M  V30 36 H 39.999497 28.990129 55.104671 0
M  V30 37 H 36.721930 31.456621 57.368899 0
M  V30 38 H 36.987709 29.943501 59.342070 0
M  V30 39 H 36.727438 31.659336 59.566056 0
M  V30 40 H 39.453966 30.461667 50.163872 0
M  V30 41 H 40.664731 31.259910 51.168112 0
M  V30 42 H 41.012002 29.681084 50.464477 0
M  V30 43 H 38.017305 28.499643 51.325841 0
M  V30 44 H 39.547846 27.664842 51.204884 0
M  V30 45 H 38.253090 31.993681 57.654330 0
M  V30 END ATOM
M  V30 BEGIN BOND
M  V30 1 1 4 3
M  V30 2 1 5 1
M  V30 3 2 6 4
M  V30 4 1 8 3
M  V30 5 1 9 2
M  V30 6 1 10 5
M  V30 7 1 11 1
M  V30 8 1 12 8
M  V30 9 1 13 5
M  V30 10 1 13 7
M  V30 11 1 13 9
M  V30 12 1 14 10
M  V30 13 1 15 12
M  V30 14 1 15 14
M  V30 15 1 17 2
M  V30 16 2 18 7
M  V30 17 1 18 16
M  V30 18 1 18 17
M  V30 19 1 19 2
M  V30 20 1 20 2
M  V30 21 1 21 3
M  V30 22 1 22 4
M  V30 23 1 5 23 CFG=1
M  V30 24 1 24 7
M  V30 25 1 25 8
M  V30 26 1 26 8
M  V30 27 1 27 9
M  V30 28 1 28 9
M  V30 29 1 29 10
M  V30 30 1 30 10
M  V30 31 1 31 11
M  V30 32 1 32 11
M  V30 33 1 33 11
M  V30 34 1 34 12
M  V30 35 1 35 12
M  V30 36 1 13 36 CFG=1
M  V30 37 1 37 14
M  V30 38 1 38 15
M  V30 39 1 39 15
M  V30 40 1 40 16
M  V30 41 1 41 16
M  V30 42 1 42 16
M  V30 43 1 43 17
M  V30 44 1 44 17
M  V30 45 1 45 14
M  V30 END BOND
M  V30 END CTAB
M  END
>  <i_epik_Tot_Q>  (1) 
1

>  <i_epik_Tot_abs_Q>  (1) 
1

>  <i_i_glide_confnum>  (1) 
10

>  <i_i_glide_lignum>  (1) 
84

>  <i_i_glide_posenum>  (1) 
179

>  <i_i_glide_rotatable_bonds>  (1) 
9

>  <i_lp_mmshare_version>  (1) 
72125

>  <i_m_source_file_index>  (1) 
38

>  <i_f3d_flags>  (1) 
0

>  <num_sample>  (1) 
100

>  <b_lp_Chiralities_Consistent>  (1) 
1

>  <r_epik_Charging_Adjusted_Penalty>  (1) 
0.011588435553483814

>  <r_epik_Ionization_Penalty>  (1) 
0.0057942400121425265

>  <r_epik_Ionization_Penalty_Charging>  (1) 
0.0057942177767419025

>  <r_epik_Ionization_Penalty_Neutral>  (1) 
2.2235400624284582e-08

>  <r_epik_State_Penalty>  (1) 
0.0057942177767419112

>  <r_glide_ring_energy>  (1) 
0

>  <r_i_docking_score>  (1) 
-3.3177957330299819

>  <r_i_glide_ecoul>  (1) 
-5.9798466046371628

>  <r_i_glide_eff_state_penalty>  (1) 
0.0057942177767419112

>  <r_i_glide_einternal>  (1) 
3.7692075942149179

>  <r_i_glide_emodel>  (1) 
-40.27115259268809

>  <r_i_glide_emodel_strain>  (1) 
0.17292752976613279

>  <r_i_glide_energy>  (1) 
-32.852416740902868

>  <r_i_glide_erotb>  (1) 
3.7792363612633109

>  <r_i_glide_esite>  (1) 
-0.13138465692186604

>  <r_i_glide_evdw>  (1) 
-26.872570136265708

>  <r_i_glide_gscore>  (1) 
-3.3235899508067237

>  <r_i_glide_gscore_strain>  (1) 
0

>  <r_i_glide_hbond>  (1) 
-0.33815808537644365

>  <r_i_glide_ligand_efficiency>  (1) 
-0.18432198516833231

>  <r_i_glide_ligand_efficiency_ln>  (1) 
-0.85282228524715065

>  <r_i_glide_ligand_efficiency_sa>  (1) 
-0.48306025639340683

>  <r_i_glide_lipo>  (1) 
-2.2433554721906184

>  <r_i_glide_metal>  (1) 
-0

>  <r_i_glide_rewards>  (1) 
-2.1493226000722463

>  <r_lp_Energy>  (1) 
14.633092999999999

>  <s_epik_cmdline>  (1) 
J2VwaWtfcHl0aG9uJywgJy1waHQnLCAnMS4wJywgJy1waCcsICc3LjQnLCAnLXRuJywgJzgnLCAnLW1hJywgJzUwMCcsICctaW1hZScsICc8aW5maWxlLm1hZT4nLCAnLW9tYWUnLCAnPG91dGZpbGUubWFlPic=

>  <s_epik_input>  (1) 
W0NIMl0xW0NIMl1bQ0gyXUMoW0NIM10pPVtDSF1bQ0BIXTFbQ0BASF0oT1tDSDNdKVtDSDJdW05IXVtDSDJdW0NIMl1bQ0gyXVtOSF1bQ0hdPU8=

>  <s_glide_docking_method>  (1) 
confgen

>  <s_i_glide_gridfile>  (1) 
gpcr_5ht2c_6bqh_protein_autoprepared_prepared

>  <s_lp_Force_Field>  (1) 
S-OPLS

>  <s_lp_Variant>  (1) 
DiffSBDD_37-1

>  <s_m_source_file>  (1) 
generated_GPCR_5HT2C_ligand_DiffSBDD_2026-06-23_prepared.sdf

>  <GenAI_Model>  (1) 
DiffSBDD

>  <Protein>  (1) 
GPCR_5HT2C

$$$$
DiffSBDD_14
     RDKit          3D

  0  0  0  0  0  0  0  0  0  0999 V3000
M  V30 BEGIN CTAB
M  V30 COUNTS 49 48 0 0 1
M  V30 BEGIN ATOM
M  V30 1 C 39.614791 30.336065 56.381342 0
M  V30 2 C 39.475694 26.703865 53.225028 0
M  V30 3 C 38.924856 31.627079 56.799952 0
M  V30 4 C 39.691014 25.871051 55.602494 0
M  V30 5 O 36.387157 31.737628 61.367763 0 CHG=-1
M  V30 6 N 35.680861 34.352296 59.367764 0 CHG=1
M  V30 7 C 39.825050 29.283771 57.192021 0
M  V30 8 C 36.335609 33.038717 59.384936 0 CFG=2
M  V30 9 C 38.692105 27.205538 52.028331 0
M  V30 10 C 39.707607 26.036549 58.135393 0
M  V30 11 C 39.535389 26.803502 56.819665 0 CFG=1
M  V30 12 C 36.810779 32.772869 60.813395 0
M  V30 13 C 38.752992 28.722863 51.815622 0
M  V30 14 O 37.580589 33.616398 61.324328 0
M  V30 15 C 37.496295 33.002074 58.362619 0
M  V30 16 O 37.245164 30.593196 58.167743 0
M  V30 17 C 40.103040 29.267233 51.356503 0
M  V30 18 C 38.915605 26.378033 54.400896 0
M  V30 19 C 40.499232 28.006134 56.748501 0
M  V30 20 C 38.195620 31.637350 58.162505 0 CFG=1
M  V30 21 H 39.946604 30.286049 55.354267 0
M  V30 22 H 40.541453 26.609001 53.098261 0
M  V30 23 H 38.201610 31.849590 56.013405 0
M  V30 24 H 39.654343 32.434840 56.766455 0
M  V30 25 H 40.745490 25.737831 55.357293 0
M  V30 26 H 39.300884 24.879613 55.835751 0
M  V30 27 H 34.879410 34.324092 59.980809 0
M  V30 28 H 36.343375 35.030728 59.714689 0
M  V30 29 H 39.501018 29.322868 58.221033 0
M  V30 30 H 35.569040 32.311728 59.115380 0
M  V30 31 H 39.026569 26.677601 51.134324 0
M  V30 32 H 37.645158 26.937758 52.168754 0
M  V30 33 H 40.671254 25.527959 58.167739 0
M  V30 34 H 39.644890 26.705350 58.994020 0
M  V30 35 H 38.923625 25.288551 58.245018 0
M  V30 36 H 38.508754 27.177049 56.812545 0
M  V30 37 H 38.045128 28.956217 51.029131 0
M  V30 38 H 38.416388 29.246171 52.711554 0
M  V30 39 H 38.252996 33.742739 58.623601 0
M  V30 40 H 37.098324 33.337765 57.404036 0
M  V30 41 H 36.507562 30.887533 57.629027 0
M  V30 42 H 40.025555 30.324465 51.100382 0
M  V30 43 H 40.845141 29.181517 52.141801 0
M  V30 44 H 40.451401 28.734887 50.472834 0
M  V30 45 H 37.846336 26.473651 54.524815 0
M  V30 46 H 40.845146 28.150865 55.728404 0
M  V30 47 H 41.395119 27.836010 57.347133 0
M  V30 48 H 38.891653 31.461263 58.982643 0
M  V30 49 H 35.397015 34.586167 58.427299 0
M  V30 END ATOM
M  V30 BEGIN BOND
M  V30 1 1 3 1
M  V30 2 2 7 1
M  V30 3 1 8 6
M  V30 4 1 9 2
M  V30 5 1 11 4
M  V30 6 1 11 10
M  V30 7 1 12 5
M  V30 8 1 12 8
M  V30 9 1 13 9
M  V30 10 2 14 12
M  V30 11 1 15 8
M  V30 12 1 17 13
M  V30 13 2 18 2
M  V30 14 1 18 4
M  V30 15 1 19 7
M  V30 16 1 19 11
M  V30 17 1 20 3
M  V30 18 1 20 15
M  V30 19 1 20 16
M  V30 20 1 21 1
M  V30 21 1 22 2
M  V30 22 1 23 3
M  V30 23 1 24 3
M  V30 24 1 25 4
M  V30 25 1 26 4
M  V30 26 1 27 6
M  V30 27 1 28 6
M  V30 28 1 29 7
M  V30 29 1 8 30 CFG=3
M  V30 30 1 31 9
M  V30 31 1 32 9
M  V30 32 1 33 10
M  V30 33 1 34 10
M  V30 34 1 35 10
M  V30 35 1 11 36 CFG=1
M  V30 36 1 37 13
M  V30 37 1 38 13
M  V30 38 1 39 15
M  V30 39 1 40 15
M  V30 40 1 41 16
M  V30 41 1 42 17
M  V30 42 1 43 17
M  V30 43 1 44 17
M  V30 44 1 45 18
M  V30 45 1 46 19
M  V30 46 1 47 19
M  V30 47 1 20 48 CFG=1
M  V30 48 1 49 6
M  V30 END BOND
M  V30 END CTAB
M  END
>  <i_epik_Tot_Q>  (1) 
0

>  <i_epik_Tot_abs_Q>  (1) 
2

>  <i_i_glide_confnum>  (1) 
815

>  <i_i_glide_lignum>  (1) 
28

>  <i_i_glide_posenum>  (1) 
388

>  <i_i_glide_rotatable_bonds>  (1) 
12

>  <i_lp_mmshare_version>  (1) 
72125

>  <i_m_source_file_index>  (1) 
15

>  <i_f3d_flags>  (1) 
0

>  <num_sample>  (1) 
100

>  <b_lp_Chiralities_Consistent>  (1) 
1

>  <r_epik_Charging_Adjusted_Penalty>  (1) 
0.00991281995240933

>  <r_epik_Ionization_Penalty>  (1) 
0.0049587358016132182

>  <r_epik_Ionization_Penalty_Charging>  (1) 
0.0049586922537287062

>  <r_epik_Ionization_Penalty_Neutral>  (1) 
4.3547884512074136e-08

>  <r_epik_State_Penalty>  (1) 
0.0049541276986806238

>  <r_glide_ring_energy>  (1) 
0

>  <r_i_docking_score>  (1) 
-3.3143458775479511

>  <r_i_glide_ecoul>  (1) 
-8.9768404566044708

>  <r_i_glide_eff_state_penalty>  (1) 
0.0049541276986806238

>  <r_i_glide_einternal>  (1) 
8.3710892862325181

>  <r_i_glide_emodel>  (1) 
-37.656395511043776

>  <r_i_glide_emodel_strain>  (1) 
0.61195045937154369

>  <r_i_glide_energy>  (1) 
-33.772825005356445

>  <r_i_glide_erotb>  (1) 
4.0583376510001772

>  <r_i_glide_esite>  (1) 
-0.0029692999265869984

>  <r_i_glide_evdw>  (1) 
-24.795984548751974

>  <r_i_glide_gscore>  (1) 
-3.3193000052466317

>  <r_i_glide_gscore_strain>  (1) 
0

>  <r_i_glide_hbond>  (1) 
-0.32000000000000001

>  <r_i_glide_ligand_efficiency>  (1) 
-0.16571729387739756

>  <r_i_glide_ligand_efficiency_ln>  (1) 
-0.82947145870712136

>  <r_i_glide_ligand_efficiency_sa>  (1) 
-0.44982594187524322

>  <r_i_glide_lipo>  (1) 
-2.7369012274514546

>  <r_i_glide_metal>  (1) 
-0

>  <r_i_glide_rewards>  (1) 
-1.7314418329404977

>  <r_lp_Energy>  (1) 
-4.2601749999999994

>  <s_epik_cmdline>  (1) 
J2VwaWtfcHl0aG9uJywgJy1waHQnLCAnMS4wJywgJy1waCcsICc3LjQnLCAnLXRuJywgJzgnLCAnLW1hJywgJzUwMCcsICctaW1hZScsICc8aW5maWxlLm1hZT4nLCAnLW9tYWUnLCAnPG91dGZpbGUubWFlPic=

>  <s_epik_input>  (1) 
W09IXUMoPU8pW0NAQEhdKFtOSDJdKVtDSDJdW0NAQEhdKFtPSF0pW0NIMl0vW0NIXT1bQ0hdL1tDSDJdW0NAQEhdKFtDSDNdKVtDSDJdXFtDSF09W0NIXVxbQ0gyXVtDSDJdW0NIM10=

>  <s_glide_docking_method>  (1) 
confgen

>  <s_i_glide_gridfile>  (1) 
gpcr_5ht2c_6bqh_protein_autoprepared_prepared

>  <s_lp_Force_Field>  (1) 
S-OPLS

>  <s_lp_Variant>  (1) 
DiffSBDD_14-6

>  <s_m_source_file>  (1) 
generated_GPCR_5HT2C_ligand_DiffSBDD_2026-06-23_prepared.sdf

>  <GenAI_Model>  (1) 
DiffSBDD

>  <Protein>  (1) 
GPCR_5HT2C

$$$$
DiffSBDD_6
     RDKit          3D

  0  0  0  0  0  0  0  0  0  0999 V3000
M  V30 BEGIN CTAB
M  V30 COUNTS 44 44 0 0 1
M  V30 BEGIN ATOM
M  V30 1 C 36.798053 24.732628 56.448136 0
M  V30 2 C 41.222639 30.537747 50.771030 0
M  V30 3 C 38.296345 27.501386 52.801689 0
M  V30 4 C 38.387395 29.013965 52.555511 0 CFG=1
M  V30 5 C 38.704110 28.605310 55.906458 0 CFG=2
M  V30 6 C 38.002774 29.884991 53.767757 0
M  V30 7 C 39.900906 27.820401 56.384083 0
M  V30 8 C 37.066002 24.386737 54.977322 0
M  V30 9 C 38.923160 29.739736 54.951987 0 CFG=1
M  V30 10 O 39.716076 29.355321 52.185524 0
M  V30 11 C 38.443797 30.023933 56.359075 0
M  V30 12 C 39.886434 29.813552 50.852111 0
M  V30 13 O 40.857720 26.644488 58.167757 0
M  V30 14 O 39.423591 24.537755 57.314437 0
M  V30 15 C 39.851386 28.628103 49.901976 0
M  V30 16 C 39.601949 26.938719 57.603782 0 CFG=2
M  V30 17 O 37.595043 25.830764 56.867982 0
M  V30 18 C 38.869064 25.633848 57.249617 0
M  V30 19 H 36.966865 23.863745 57.086812 0
M  V30 20 H 35.750778 25.008367 56.567753 0
M  V30 21 H 41.380195 30.976236 49.785604 0
M  V30 22 H 41.245130 31.337751 51.507546 0
M  V30 23 H 42.045175 29.854568 50.967759 0
M  V30 24 H 37.300009 27.223452 53.145160 0
M  V30 25 H 38.490016 26.944911 51.884557 0
M  V30 26 H 39.019977 27.164593 53.541509 0
M  V30 27 H 37.685758 29.236951 51.755106 0
M  V30 28 H 37.822796 28.004063 55.699639 0
M  V30 29 H 36.977241 29.679815 54.078294 0
M  V30 30 H 38.045126 30.935076 53.483362 0
M  V30 31 H 40.694950 28.530257 56.622400 0
M  V30 32 H 40.278788 27.215258 55.558837 0
M  V30 33 H 36.445185 23.550437 54.658993 0
M  V30 34 H 36.845151 25.231712 54.327252 0
M  V30 35 H 38.106314 24.106067 54.816017 0
M  V30 36 H 39.956231 30.013576 54.743110 0
M  V30 37 H 37.406219 30.325778 56.494789 0
M  V30 38 H 39.152399 30.478995 57.048283 0
M  V30 39 H 39.121876 30.533767 50.567756 0
M  V30 40 H 41.361212 26.137805 57.542872 0
M  V30 41 H 40.231676 28.937756 48.932386 0
M  V30 42 H 40.445135 27.794553 50.269181 0
M  V30 43 H 38.845138 28.250346 49.767809 0
M  V30 44 H 39.017157 27.492866 58.338967 0
M  V30 END ATOM
M  V30 BEGIN BOND
M  V30 1 1 4 3
M  V30 2 1 6 4
M  V30 3 1 7 5
M  V30 4 1 8 1
M  V30 5 1 9 5
M  V30 6 1 9 6
M  V30 7 1 10 4
M  V30 8 1 11 5
M  V30 9 1 11 9
M  V30 10 1 12 2
M  V30 11 1 12 10
M  V30 12 1 15 12
M  V30 13 1 16 7
M  V30 14 1 16 13
M  V30 15 1 17 1
M  V30 16 2 18 14
M  V30 17 1 18 16
M  V30 18 1 18 17
M  V30 19 1 19 1
M  V30 20 1 20 1
M  V30 21 1 21 2
M  V30 22 1 22 2
M  V30 23 1 23 2
M  V30 24 1 24 3
M  V30 25 1 25 3
M  V30 26 1 26 3
M  V30 27 1 4 27 CFG=3
M  V30 28 1 5 28 CFG=3
M  V30 29 1 29 6
M  V30 30 1 30 6
M  V30 31 1 31 7
M  V30 32 1 32 7
M  V30 33 1 33 8
M  V30 34 1 34 8
M  V30 35 1 35 8
M  V30 36 1 9 36 CFG=3
M  V30 37 1 37 11
M  V30 38 1 38 11
M  V30 39 1 39 12
M  V30 40 1 40 13
M  V30 41 1 41 15
M  V30 42 1 42 15
M  V30 43 1 43 15
M  V30 44 1 16 44 CFG=1
M  V30 END BOND
M  V30 END CTAB
M  END
>  <i_epik_Tot_Q>  (1) 
0

>  <i_epik_Tot_abs_Q>  (1) 
0

>  <i_i_glide_confnum>  (1) 
286

>  <i_i_glide_lignum>  (1) 
9

>  <i_i_glide_posenum>  (1) 
391

>  <i_i_glide_rotatable_bonds>  (1) 
10

>  <i_lp_mmshare_version>  (1) 
72125

>  <i_m_source_file_index>  (1) 
7

>  <i_f3d_flags>  (1) 
0

>  <num_sample>  (1) 
100

>  <b_lp_Chiralities_Consistent>  (1) 
1

>  <r_epik_Charging_Adjusted_Penalty>  (1) 
0

>  <r_epik_Ionization_Penalty>  (1) 
1.8372047820881467e-05

>  <r_epik_Ionization_Penalty_Charging>  (1) 
0

>  <r_epik_Ionization_Penalty_Neutral>  (1) 
1.8372047820881467e-05

>  <r_epik_State_Penalty>  (1) 
-0

>  <r_glide_ring_energy>  (1) 
0

>  <r_i_docking_score>  (1) 
-3.3043725464549887

>  <r_i_glide_ecoul>  (1) 
-1.7115966847924922

>  <r_i_glide_eff_state_penalty>  (1) 
-0

>  <r_i_glide_einternal>  (1) 
10.862363149343111

>  <r_i_glide_emodel>  (1) 
-31.30956596239713

>  <r_i_glide_emodel_strain>  (1) 
0

>  <r_i_glide_energy>  (1) 
-29.899087866920635

>  <r_i_glide_erotb>  (1) 
3.7046454867807075

>  <r_i_glide_esite>  (1) 
0

>  <r_i_glide_evdw>  (1) 
-28.187491182128142

>  <r_i_glide_gscore>  (1) 
-3.3043725464549887

>  <r_i_glide_gscore_strain>  (1) 
0

>  <r_i_glide_hbond>  (1) 
-0.27772154069338384

>  <r_i_glide_ligand_efficiency>  (1) 
-0.18357625258083271

>  <r_i_glide_ligand_efficiency_ln>  (1) 
-0.84937192435355524

>  <r_i_glide_ligand_efficiency_sa>  (1) 
-0.48110588413233607

>  <r_i_glide_lipo>  (1) 
-2.7312984850599511

>  <r_i_glide_metal>  (1) 
-0

>  <r_i_glide_rewards>  (1) 
-2.3338839456570803

>  <r_lp_Energy>  (1) 
9.3243790000000004

>  <r_lp_tautomer_probability>  (1) 
1

>  <s_epik_Chemistry_Notes>  (1) 
This compound has an ester and may undergo hydrolysis at high or low pH.

>  <s_epik_cmdline>  (1) 
J2VwaWtfcHl0aG9uJywgJy1waHQnLCAnMS4wJywgJy1waCcsICc3LjQnLCAnLXRuJywgJzgnLCAnLW1hJywgJzUwMCcsICctaW1hZScsICc8aW5maWxlLm1hZT4nLCAnLW9tYWUnLCAnPG91dGZpbGUubWFlPic=

>  <s_epik_input>  (1) 
W0NIM11bQ0gyXU9DKD1PKVtDQEBIXShbT0hdKVtDSDJdW0NAQEhdMVtDSF0oW0NIMl0xKVtDSDJdW0NASF0oW0NIM10pT1tDSF0oW0NIM10pW0NIM10=

>  <s_glide_docking_method>  (1) 
confgen

>  <s_i_glide_gridfile>  (1) 
gpcr_5ht2c_6bqh_protein_autoprepared_prepared

>  <s_lp_Force_Field>  (1) 
S-OPLS

>  <s_lp_Variant>  (1) 
DiffSBDD_6-1

>  <s_m_source_file>  (1) 
generated_GPCR_5HT2C_ligand_DiffSBDD_2026-06-23_prepared.sdf

>  <GenAI_Model>  (1) 
DiffSBDD

>  <Protein>  (1) 
GPCR_5HT2C

$$$$
DiffSBDD_93
     RDKit          3D

  0  0  0  0  0  0  0  0  0  0999 V3000
M  V30 BEGIN CTAB
M  V30 COUNTS 83 84 0 0 1
M  V30 BEGIN ATOM
M  V30 1 C 38.713176 30.306569 62.241740 0
M  V30 2 O 39.433563 29.098941 62.167718 0
M  V30 3 C 39.331316 38.085068 62.160701 0
M  V30 4 C 39.971414 29.619671 52.325999 0
M  V30 5 O 37.186899 30.137229 59.944879 0
M  V30 6 C 37.862893 27.866310 54.570590 0
M  V30 7 N 37.645061 26.557389 54.472718 0
M  V30 8 O 37.061350 28.695599 54.167828 0
M  V30 9 O 40.845137 34.498260 64.365121 0
M  V30 10 C 39.730283 28.197742 51.815536 0
M  V30 11 C 40.277615 36.937990 61.951291 0
M  V30 12 C 38.519063 31.609781 58.606226 0
M  V30 13 C 40.061315 32.032258 61.099606 0
M  V30 14 C 39.586078 29.838545 55.023291 0 CFG=2
M  V30 15 C 39.207524 28.304901 55.196088 0 CFG=1
M  V30 16 C 38.352405 36.192340 60.994271 0 CFG=1
M  V30 17 C 40.158753 34.559412 61.368470 0 CFG=1
M  V30 18 C 41.669707 34.692486 61.373582 0
M  V30 19 C 38.844920 30.525351 57.523558 0
M  V30 20 S 40.494863 32.955035 63.746678 0 CHG=1
M  V30 21 O 38.045131 32.780444 54.709786 0
M  V30 22 N 38.934573 31.096375 61.036994 0
M  V30 23 O 42.045097 32.337396 63.453258 0
M  V30 24 O 36.925530 37.737739 62.302206 0
M  V30 25 F 37.464494 34.055600 60.428412 0
M  V30 26 C 38.988947 29.334606 51.205584 0
M  V30 27 C 37.750532 31.695977 55.556825 0
M  V30 28 C 39.023150 30.949332 56.037609 0 CFG=2
M  V30 29 C 38.155885 30.891920 59.926873 0
M  V30 30 C 39.505881 27.656953 56.593817 0
M  V30 31 C 36.226174 35.785194 59.631157 0
M  V30 32 C 39.765676 33.225384 62.057595 0 CFG=2
M  V30 33 O 39.850805 25.614620 57.767663 0
M  V30 34 C 39.411600 30.359869 53.550771 0
M  V30 35 C 37.109277 35.287496 60.784704 0 CFG=2
M  V30 36 C 39.771462 26.139823 56.637396 0
M  V30 37 C 38.044821 37.639835 61.441345 0 CFG=1
M  V30 38 O 39.879809 25.540287 55.543633 0 CHG=-1
M  V30 39 N 39.444190 35.741619 61.871771 0
M  V30 40 H 39.018525 30.804671 63.154310 0
M  V30 41 H 37.650799 30.137756 62.381463 0
M  V30 42 H 39.094067 28.529393 62.851386 0
M  V30 43 H 39.245120 38.137740 63.244711 0
M  V30 44 H 39.726917 39.028818 61.783786 0
M  V30 45 H 40.845127 30.116920 51.941348 0
M  V30 46 H 38.358436 25.904538 54.813822 0
M  V30 47 H 36.793036 26.213688 54.060727 0
M  V30 48 H 40.993180 35.056373 63.616016 0
M  V30 49 H 40.445162 27.738822 51.144279 0
M  V30 50 H 39.132580 27.481969 52.361437 0
M  V30 51 H 40.988985 36.895599 62.777524 0
M  V30 52 H 40.845150 37.092041 61.034367 0
M  V30 53 H 37.593169 32.126436 58.367670 0
M  V30 54 H 39.245130 32.411110 58.608876 0
M  V30 55 H 40.439950 32.407126 60.167762 0
M  V30 56 H 40.912395 31.452307 61.449445 0
M  V30 57 H 40.661980 29.845243 55.195317 0
M  V30 58 H 39.928655 27.809332 54.552057 0
M  V30 59 H 38.786245 36.296299 60.001763 0
M  V30 60 H 39.900504 34.458351 60.313488 0
M  V30 61 H 42.175479 33.730486 61.301846 0
M  V30 62 H 42.029107 35.337743 60.568281 0
M  V30 63 H 42.045100 35.119904 62.299222 0
M  V30 64 H 39.753302 30.024630 57.852909 0
M  V30 65 H 38.037152 29.796316 57.542055 0
M  V30 66 H 37.224371 33.253555 54.613509 0
M  V30 67 H 42.123858 31.558983 63.985456 0
M  V30 68 H 36.138120 37.660186 61.785496 0
M  V30 69 H 37.926687 29.337768 51.419989 0
M  V30 70 H 39.266858 29.631880 50.195897 0
M  V30 71 H 37.008326 31.036426 55.111157 0
M  V30 72 H 37.245202 32.197563 56.366916 0
M  V30 73 H 39.802693 31.712724 56.074016 0
M  V30 74 H 40.393748 28.114930 57.028349 0
M  V30 75 H 38.678289 27.816361 57.279498 0
M  V30 76 H 35.855980 36.796483 59.796608 0
M  V30 77 H 36.784745 35.793573 58.694950 0
M  V30 78 H 35.364389 35.132166 59.484926 0
M  V30 79 H 38.695308 33.265875 62.246366 0
M  V30 80 H 38.360999 30.544799 53.365749 0
M  V30 81 H 39.862802 31.349736 53.510141 0
M  V30 82 H 36.535226 35.187869 61.706789 0
M  V30 83 H 37.863309 38.268674 60.569533 0
M  V30 END ATOM
M  V30 BEGIN BOND
M  V30 1 1 2 1
M  V30 2 1 7 6
M  V30 3 2 8 6
M  V30 4 1 10 4
M  V30 5 1 11 3
M  V30 6 1 15 6
M  V30 7 1 15 14
M  V30 8 1 18 17
M  V30 9 1 19 12
M  V30 10 1 20 9
M  V30 11 1 22 1
M  V30 12 1 22 13
M  V30 13 1 23 20
M  V30 14 1 26 4
M  V30 15 1 26 10
M  V30 16 1 27 21
M  V30 17 1 28 14
M  V30 18 1 28 19
M  V30 19 1 28 27
M  V30 20 2 29 5
M  V30 21 1 29 12
M  V30 22 1 29 22
M  V30 23 1 30 15
M  V30 24 1 32 13
M  V30 25 1 32 17
M  V30 26 1 32 20
M  V30 27 1 34 4
M  V30 28 1 34 14
M  V30 29 1 35 16
M  V30 30 1 35 25
M  V30 31 1 35 31
M  V30 32 1 36 30
M  V30 33 2 36 33
M  V30 34 1 37 3
M  V30 35 1 37 16
M  V30 36 1 37 24
M  V30 37 1 38 36
M  V30 38 1 39 11
M  V30 39 1 39 16
M  V30 40 1 39 17
M  V30 41 1 40 1
M  V30 42 1 41 1
M  V30 43 1 42 2
M  V30 44 1 43 3
M  V30 45 1 44 3
M  V30 46 1 45 4
M  V30 47 1 46 7
M  V30 48 1 47 7
M  V30 49 1 48 9
M  V30 50 1 49 10
M  V30 51 1 50 10
M  V30 52 1 51 11
M  V30 53 1 52 11
M  V30 54 1 53 12
M  V30 55 1 54 12
M  V30 56 1 55 13
M  V30 57 1 56 13
M  V30 58 1 14 57 CFG=1
M  V30 59 1 15 58 CFG=3
M  V30 60 1 16 59 CFG=3
M  V30 61 1 17 60 CFG=3
M  V30 62 1 61 18
M  V30 63 1 62 18
M  V30 64 1 63 18
M  V30 65 1 64 19
M  V30 66 1 65 19
M  V30 67 1 66 21
M  V30 68 1 67 23
M  V30 69 1 68 24
M  V30 70 1 69 26
M  V30 71 1 70 26
M  V30 72 1 71 27
M  V30 73 1 72 27
M  V30 74 1 28 73 CFG=1
M  V30 75 1 74 30
M  V30 76 1 75 30
M  V30 77 1 76 31
M  V30 78 1 77 31
M  V30 79 1 78 31
M  V30 80 1 32 79 CFG=1
M  V30 81 1 80 34
M  V30 82 1 81 34
M  V30 83 1 35 82 CFG=1
M  V30 84 1 37 83 CFG=3
M  V30 END BOND
M  V30 END CTAB
M  END
>  <i_epik_Tot_Q>  (1) 
0

>  <i_epik_Tot_abs_Q>  (1) 
2

>  <i_i_glide_confnum>  (1) 
4896

>  <i_i_glide_lignum>  (1) 
216

>  <i_i_glide_posenum>  (1) 
47

>  <i_i_glide_rotatable_bonds>  (1) 
24

>  <i_lp_mmshare_version>  (1) 
72125

>  <i_m_source_file_index>  (1) 
94

>  <i_f3d_flags>  (1) 
0

>  <num_sample>  (1) 
100

>  <b_lp_Chiralities_Consistent>  (1) 
1

>  <r_epik_Charging_Adjusted_Penalty>  (1) 
0.37121505818338452

>  <r_epik_Ionization_Penalty>  (1) 
0.37121789513022985

>  <r_epik_Ionization_Penalty_Charging>  (1) 
0.00098257200063165957

>  <r_epik_Ionization_Penalty_Neutral>  (1) 
0.37023532312959817

>  <r_epik_State_Penalty>  (1) 
0.37023248618275284

>  <r_glide_ring_energy>  (1) 
0

>  <r_i_docking_score>  (1) 
-3.2935595612785673

>  <r_i_glide_ecoul>  (1) 
-5.7216540308978647

>  <r_i_glide_eff_state_penalty>  (1) 
0.37023248618275284

>  <r_i_glide_einternal>  (1) 
26.114689387117892

>  <r_i_glide_emodel>  (1) 
-26.041628957364878

>  <r_i_glide_emodel_strain>  (1) 
16.952785718208105

>  <r_i_glide_energy>  (1) 
-42.269286687594189

>  <r_i_glide_erotb>  (1) 
0.82577533054746977

>  <r_i_glide_esite>  (1) 
-0.0041351785098910137

>  <r_i_glide_evdw>  (1) 
-36.547632656696322

>  <r_i_glide_gscore>  (1) 
-3.6637920474613201

>  <r_i_glide_gscore_strain>  (1) 
3.2381964295520262

>  <r_i_glide_hbond>  (1) 
-0.43380962236882964

>  <r_i_glide_ligand_efficiency>  (1) 
-0.08445024516098891

>  <r_i_glide_ligand_efficiency_ln>  (1) 
-0.70623266318607314

>  <r_i_glide_ligand_efficiency_sa>  (1) 
-0.28638863775529738

>  <r_i_glide_lipo>  (1) 
-3.1226411621819961

>  <r_i_glide_metal>  (1) 
-0

>  <r_i_glide_rewards>  (1) 
-1.4815481070306031

>  <r_lp_Energy>  (1) 
12.407411999999999

>  <s_epik_Chemistry_Notes>  (1) 
This compound contains an acetal/aminal-like group ( X-CH(R)-Y where X, Y are N, S, or O) that may be acid/base labile, releasing an aldehyde.

>  <s_epik_cmdline>  (1) 
J2VwaWtfcHl0aG9uJywgJy1waHQnLCAnMS4wJywgJy1waCcsICc3LjQnLCAnLXRuJywgJzgnLCAnLW1hJywgJzUwMCcsICctaW1hZScsICc8aW5maWxlLm1hZT4nLCAnLW9tYWUnLCAnPG91dGZpbGUubWFlPic=

>  <s_epik_input>  (1) 
W0NIMl0xW0NIMl1bQ0hdMVtDSDJdW0NAQEhdKFtDQEBIXShDKD1PKVtOSDJdKVtDSDJdQyg9TylbT0hdKVtDQEBIXShbQ0gyXVtPSF0pW0NIMl1bQ0gyXUMoPU8pTihbQ0gyXVtPSF0pW0NIMl1bQ0BASF0oW1MrXShbT0hdKVtPSF0pW0NASF0oW0NIM10pTjJbQ0gyXVtDSDJdW0NASF0oW09IXSlbQ0BASF0yW0NASF0oRilbQ0gzXQ==

>  <s_glide_docking_method>  (1) 
confgen

>  <s_i_glide_gridfile>  (1) 
gpcr_5ht2c_6bqh_protein_autoprepared_prepared

>  <s_lp_Force_Field>  (1) 
S-OPLS

>  <s_lp_Variant>  (1) 
DiffSBDD_93-4

>  <s_m_source_file>  (1) 
generated_GPCR_5HT2C_ligand_DiffSBDD_2026-06-23_prepared.sdf

>  <GenAI_Model>  (1) 
DiffSBDD

>  <Protein>  (1) 
GPCR_5HT2C

$$$$
DiffSBDD_61
     RDKit          3D

  0  0  0  0  0  0  0  0  0  0999 V3000
M  V30 BEGIN CTAB
M  V30 COUNTS 21 20 0 0 1
M  V30 BEGIN ATOM
M  V30 1 C 40.280774 26.282000 56.103757 0
M  V30 2 O 40.045250 29.734496 49.368293 0
M  V30 3 C 40.179626 29.607182 51.762337 0
M  V30 4 C 37.624985 27.602136 53.516424 0
M  V30 5 O 38.921880 29.027531 52.071156 0
M  V30 6 C 40.095941 30.521924 50.534110 0
M  V30 7 C 39.024408 28.069112 53.114883 0
M  V30 8 S 38.544292 26.736486 56.334874 0
M  V30 9 S 37.645214 26.143590 54.602424 0
M  V30 10 H 40.884630 26.653471 56.931873 0
M  V30 11 H 40.381195 25.197365 56.062593 0
M  V30 12 H 40.665595 26.700428 55.175383 0
M  V30 13 H 39.130840 29.533496 49.196051 0
M  V30 14 H 40.943512 28.842810 51.609358 0
M  V30 15 H 40.477840 30.203725 52.624206 0
M  V30 16 H 37.078441 28.412412 53.999089 0
M  V30 17 H 37.071870 27.339171 52.618411 0
M  V30 18 H 40.995149 31.137030 50.476550 0
M  V30 19 H 39.245138 31.201253 50.568513 0
M  V30 20 H 39.622494 27.223243 52.770464 0
M  V30 21 H 39.521162 28.503716 53.983392 0
M  V30 END ATOM
M  V30 BEGIN BOND
M  V30 1 1 5 3
M  V30 2 1 6 2
M  V30 3 1 6 3
M  V30 4 1 7 4
M  V30 5 1 7 5
M  V30 6 1 8 1
M  V30 7 1 9 4
M  V30 8 1 9 8
M  V30 9 1 10 1
M  V30 10 1 11 1
M  V30 11 1 12 1
M  V30 12 1 13 2
M  V30 13 1 14 3
M  V30 14 1 15 3
M  V30 15 1 16 4
M  V30 16 1 17 4
M  V30 17 1 18 6
M  V30 18 1 19 6
M  V30 19 1 20 7
M  V30 20 1 21 7
M  V30 END BOND
M  V30 END CTAB
M  END
>  <i_epik_Tot_Q>  (1) 
0

>  <i_epik_Tot_abs_Q>  (1) 
0

>  <i_i_glide_confnum>  (1) 
235

>  <i_i_glide_lignum>  (1) 
134

>  <i_i_glide_posenum>  (1) 
41

>  <i_i_glide_rotatable_bonds>  (1) 
7

>  <i_lp_mmshare_version>  (1) 
72125

>  <i_m_source_file_index>  (1) 
62

>  <i_f3d_flags>  (1) 
0

>  <num_sample>  (1) 
100

>  <b_lp_Chiralities_Consistent>  (1) 
1

>  <r_epik_Charging_Adjusted_Penalty>  (1) 
0

>  <r_epik_Ionization_Penalty>  (1) 
5.1568199446606131e-08

>  <r_epik_Ionization_Penalty_Charging>  (1) 
0

>  <r_epik_Ionization_Penalty_Neutral>  (1) 
5.1568199446606131e-08

>  <r_epik_State_Penalty>  (1) 
-0

>  <r_glide_ring_energy>  (1) 
0

>  <r_i_docking_score>  (1) 
-3.2828067973345552

>  <r_i_glide_ecoul>  (1) 
-3.9117294097028825

>  <r_i_glide_eff_state_penalty>  (1) 
-0

>  <r_i_glide_einternal>  (1) 
2.2165637442399642

>  <r_i_glide_emodel>  (1) 
-28.61829861348242

>  <r_i_glide_emodel_strain>  (1) 
0.14781764446841361

>  <r_i_glide_energy>  (1) 
-24.017846592557994

>  <r_i_glide_erotb>  (1) 
2.7134566579850197

>  <r_i_glide_esite>  (1) 
0

>  <r_i_glide_evdw>  (1) 
-20.106117182855112

>  <r_i_glide_gscore>  (1) 
-3.2828067973345552

>  <r_i_glide_gscore_strain>  (1) 
0

>  <r_i_glide_hbond>  (1) 
-0.32000000000000001

>  <r_i_glide_ligand_efficiency>  (1) 
-0.36475631081495058

>  <r_i_glide_ligand_efficiency_ln>  (1) 
-1.0267676598650568

>  <r_i_glide_ligand_efficiency_sa>  (1) 
-0.75872370148227108

>  <r_i_glide_lipo>  (1) 
-1.8341981847213871

>  <r_i_glide_metal>  (1) 
-0

>  <r_i_glide_rewards>  (1) 
-2.25

>  <r_lp_Energy>  (1) 
-5.6226759999999993

>  <r_lp_tautomer_probability>  (1) 
1

>  <s_epik_cmdline>  (1) 
J2VwaWtfcHl0aG9uJywgJy1waHQnLCAnMS4wJywgJy1waCcsICc3LjQnLCAnLXRuJywgJzgnLCAnLW1hJywgJzUwMCcsICctaW1hZScsICc8aW5maWxlLm1hZT4nLCAnLW9tYWUnLCAnPG91dGZpbGUubWFlPic=

>  <s_epik_input>  (1) 
W0NIM11TU1tDSDJdW0NIMl1PW0NIMl1bQ0gyXVtPSF0=

>  <s_glide_docking_method>  (1) 
confgen

>  <s_i_glide_gridfile>  (1) 
gpcr_5ht2c_6bqh_protein_autoprepared_prepared

>  <s_lp_Force_Field>  (1) 
S-OPLS

>  <s_lp_Variant>  (1) 
DiffSBDD_61-1

>  <s_m_source_file>  (1) 
generated_GPCR_5HT2C_ligand_DiffSBDD_2026-06-23_prepared.sdf

>  <GenAI_Model>  (1) 
DiffSBDD

>  <Protein>  (1) 
GPCR_5HT2C

$$$$
DiffSBDD_6
     RDKit          3D

  0  0  0  0  0  0  0  0  0  0999 V3000
M  V30 BEGIN CTAB
M  V30 COUNTS 44 44 0 0 1
M  V30 BEGIN ATOM
M  V30 1 C 36.909212 25.014592 56.931286 0
M  V30 2 C 39.476164 27.379821 51.020479 0
M  V30 3 C 37.490187 27.679792 53.528743 0
M  V30 4 C 38.053543 29.050312 53.105590 0 CFG=1
M  V30 5 C 38.674067 29.019296 56.341902 0 CFG=2
M  V30 6 C 37.772615 30.128432 54.187111 0
M  V30 7 C 39.933626 28.228278 56.618851 0
M  V30 8 C 37.059653 24.490336 55.494092 0
M  V30 9 C 38.782241 30.107387 55.313758 0 CFG=1
M  V30 10 O 39.464643 28.956742 52.922146 0
M  V30 11 C 38.466127 30.460608 56.748405 0
M  V30 12 C 40.004043 28.683822 51.627154 0
M  V30 13 O 41.145951 26.937776 58.167726 0
M  V30 14 O 39.645128 24.851364 57.367696 0
M  V30 15 C 39.881069 29.898370 50.700613 0
M  V30 16 C 39.817783 27.237199 57.786128 0 CFG=2
M  V30 17 O 37.756886 26.125678 57.200285 0
M  V30 18 C 39.069833 25.936881 57.429076 0
M  V30 19 H 37.097669 24.213964 57.648793 0
M  V30 20 H 35.880743 25.337743 57.090081 0
M  V30 21 H 40.076589 27.085220 50.167755 0
M  V30 22 H 39.539715 26.560935 51.736759 0
M  V30 23 H 38.445111 27.474286 50.685814 0
M  V30 24 H 36.452778 27.753454 53.853386 0
M  V30 25 H 37.503574 26.956305 52.718401 0
M  V30 26 H 38.068505 27.249548 54.344545 0
M  V30 27 H 37.583038 29.337727 52.172007 0
M  V30 28 H 37.761866 28.431247 56.308625 0
M  V30 29 H 36.763043 30.028735 54.587879 0
M  V30 30 H 37.824970 31.130668 53.767668 0
M  V30 31 H 40.738857 28.937562 56.813857 0
M  V30 32 H 40.215901 27.699800 55.706580 0
M  V30 33 H 36.372478 23.664635 55.310679 0
M  V30 34 H 36.845114 25.266313 54.762953 0
M  V30 35 H 38.068312 24.126821 55.299940 0
M  V30 36 H 39.787736 30.379555 54.996660 0
M  V30 37 H 37.450466 30.774188 56.980697 0
M  V30 38 H 39.246731 30.936875 57.337221 0
M  V30 39 H 41.073632 28.537772 51.767747 0
M  V30 40 H 41.543960 26.404851 57.490934 0
M  V30 41 H 40.381075 29.716613 49.748991 0
M  V30 42 H 38.845143 30.137697 50.487158 0
M  V30 43 H 40.336517 30.780314 51.152201 0
M  V30 44 H 39.321820 27.713104 58.632728 0
M  V30 END ATOM
M  V30 BEGIN BOND
M  V30 1 1 4 3
M  V30 2 1 6 4
M  V30 3 1 7 5
M  V30 4 1 8 1
M  V30 5 1 9 5
M  V30 6 1 9 6
M  V30 7 1 10 4
M  V30 8 1 11 5
M  V30 9 1 11 9
M  V30 10 1 12 2
M  V30 11 1 12 10
M  V30 12 1 15 12
M  V30 13 1 16 7
M  V30 14 1 16 13
M  V30 15 1 17 1
M  V30 16 2 18 14
M  V30 17 1 18 16
M  V30 18 1 18 17
M  V30 19 1 19 1
M  V30 20 1 20 1
M  V30 21 1 21 2
M  V30 22 1 22 2
M  V30 23 1 23 2
M  V30 24 1 24 3
M  V30 25 1 25 3
M  V30 26 1 26 3
M  V30 27 1 4 27 CFG=3
M  V30 28 1 5 28 CFG=3
M  V30 29 1 29 6
M  V30 30 1 30 6
M  V30 31 1 31 7
M  V30 32 1 32 7
M  V30 33 1 33 8
M  V30 34 1 34 8
M  V30 35 1 35 8
M  V30 36 1 9 36 CFG=3
M  V30 37 1 37 11
M  V30 38 1 38 11
M  V30 39 1 39 12
M  V30 40 1 40 13
M  V30 41 1 41 15
M  V30 42 1 42 15
M  V30 43 1 43 15
M  V30 44 1 16 44 CFG=1
M  V30 END BOND
M  V30 END CTAB
M  END
>  <i_epik_Tot_Q>  (1) 
0

>  <i_epik_Tot_abs_Q>  (1) 
0

>  <i_i_glide_confnum>  (1) 
286

>  <i_i_glide_lignum>  (1) 
9

>  <i_i_glide_posenum>  (1) 
131

>  <i_i_glide_rotatable_bonds>  (1) 
10

>  <i_lp_mmshare_version>  (1) 
72125

>  <i_m_source_file_index>  (1) 
7

>  <i_f3d_flags>  (1) 
0

>  <num_sample>  (1) 
100

>  <b_lp_Chiralities_Consistent>  (1) 
1

>  <r_epik_Charging_Adjusted_Penalty>  (1) 
0

>  <r_epik_Ionization_Penalty>  (1) 
1.8372047820881467e-05

>  <r_epik_Ionization_Penalty_Charging>  (1) 
0

>  <r_epik_Ionization_Penalty_Neutral>  (1) 
1.8372047820881467e-05

>  <r_epik_State_Penalty>  (1) 
-0

>  <r_glide_ring_energy>  (1) 
0

>  <r_i_docking_score>  (1) 
-3.2690889655238822

>  <r_i_glide_ecoul>  (1) 
-1.4704213701517435

>  <r_i_glide_eff_state_penalty>  (1) 
-0

>  <r_i_glide_einternal>  (1) 
12.011220942405988

>  <r_i_glide_emodel>  (1) 
-31.828648175343922

>  <r_i_glide_emodel_strain>  (1) 
0.31434885545888847

>  <r_i_glide_energy>  (1) 
-31.380002019689481

>  <r_i_glide_erotb>  (1) 
3.7046454867807075

>  <r_i_glide_esite>  (1) 
0

>  <r_i_glide_evdw>  (1) 
-29.909580649537737

>  <r_i_glide_gscore>  (1) 
-3.2690889655238822

>  <r_i_glide_gscore_strain>  (1) 
0

>  <r_i_glide_hbond>  (1) 
-0.21859416082124142

>  <r_i_glide_ligand_efficiency>  (1) 
-0.18161605364021569

>  <r_i_glide_ligand_efficiency_ln>  (1) 
-0.84030246181196322

>  <r_i_glide_ligand_efficiency_sa>  (1) 
-0.4759687096277766

>  <r_i_glide_lipo>  (1) 
-2.7157133657908772

>  <r_i_glide_metal>  (1) 
-0

>  <r_i_glide_rewards>  (1) 
-2.3233846876928226

>  <r_lp_Energy>  (1) 
9.3243790000000004

>  <r_lp_tautomer_probability>  (1) 
1

>  <s_epik_Chemistry_Notes>  (1) 
This compound has an ester and may undergo hydrolysis at high or low pH.

>  <s_epik_cmdline>  (1) 
J2VwaWtfcHl0aG9uJywgJy1waHQnLCAnMS4wJywgJy1waCcsICc3LjQnLCAnLXRuJywgJzgnLCAnLW1hJywgJzUwMCcsICctaW1hZScsICc8aW5maWxlLm1hZT4nLCAnLW9tYWUnLCAnPG91dGZpbGUubWFlPic=

>  <s_epik_input>  (1) 
W0NIM11bQ0gyXU9DKD1PKVtDQEBIXShbT0hdKVtDSDJdW0NAQEhdMVtDSF0oW0NIMl0xKVtDSDJdW0NASF0oW0NIM10pT1tDSF0oW0NIM10pW0NIM10=

>  <s_glide_docking_method>  (1) 
confgen

>  <s_i_glide_gridfile>  (1) 
gpcr_5ht2c_6bqh_protein_autoprepared_prepared

>  <s_lp_Force_Field>  (1) 
S-OPLS

>  <s_lp_Variant>  (1) 
DiffSBDD_6-1

>  <s_m_source_file>  (1) 
generated_GPCR_5HT2C_ligand_DiffSBDD_2026-06-23_prepared.sdf

>  <GenAI_Model>  (1) 
DiffSBDD

>  <Protein>  (1) 
GPCR_5HT2C

$$$$
DiffSBDD_14
     RDKit          3D

  0  0  0  0  0  0  0  0  0  0999 V3000
M  V30 BEGIN CTAB
M  V30 COUNTS 49 48 0 0 1
M  V30 BEGIN ATOM
M  V30 1 C 40.220529 28.868876 57.558029 0
M  V30 2 C 38.437154 28.353627 51.763323 0
M  V30 3 C 39.978864 28.129934 58.855797 0
M  V30 4 C 38.614668 28.603635 54.277170 0
M  V30 5 O 39.048832 33.222628 61.885999 0 CHG=-1
M  V30 6 N 39.645136 30.200267 62.898101 0 CHG=1
M  V30 7 C 39.338516 29.712060 56.999036 0
M  V30 8 C 39.627971 30.936913 61.624191 0 CFG=2
M  V30 9 C 39.838050 28.873036 51.465916 0
M  V30 10 C 37.156951 30.597544 54.965790 0
M  V30 11 C 38.567547 30.108479 54.604388 0 CFG=1
M  V30 12 C 38.601966 32.062924 61.767684 0
M  V30 13 C 39.812099 29.929952 50.354178 0
M  V30 14 O 37.392506 31.737754 61.767764 0
M  V30 15 C 39.278851 30.020199 60.429429 0
M  V30 16 O 40.544332 28.137746 61.186795 0
M  V30 17 C 41.185931 30.425542 49.903531 0
M  V30 18 C 37.901331 28.240664 52.992795 0
M  V30 19 C 39.584766 30.457851 55.701613 0
M  V30 20 C 40.363784 28.986255 60.074493 0 CFG=1
M  V30 21 H 41.169611 28.690487 57.074671 0
M  V30 22 H 37.849860 28.061497 50.913581 0
M  V30 23 H 40.573762 27.216864 58.816788 0
M  V30 24 H 38.935754 27.815998 58.919275 0
M  V30 25 H 39.645119 28.259817 54.213973 0
M  V30 26 H 38.167826 28.022852 55.084950 0
M  V30 27 H 39.982234 30.803345 63.633504 0
M  V30 28 H 38.707227 29.894780 63.119671 0
M  V30 29 H 38.389159 29.888700 57.483926 0
M  V30 30 H 40.618285 31.367087 61.464979 0
M  V30 31 H 40.312110 29.306402 52.344062 0
M  V30 32 H 40.445131 28.027206 51.149812 0
M  V30 33 H 36.769496 30.116528 55.862926 0
M  V30 34 H 37.161628 31.673236 55.145578 0
M  V30 35 H 36.445118 30.405933 54.167799 0
M  V30 36 H 38.873859 30.657680 53.712716 0
M  V30 37 H 39.292888 29.523804 49.488678 0
M  V30 38 H 39.245152 30.793671 50.691490 0
M  V30 39 H 39.112991 30.660708 59.563415 0
M  V30 40 H 38.331491 29.508081 60.596206 0
M  V30 41 H 41.204496 27.493648 60.967898 0
M  V30 42 H 41.082468 31.362632 49.367763 0
M  V30 43 H 41.862338 30.592695 50.740268 0
M  V30 44 H 41.645139 29.737758 49.200871 0
M  V30 45 H 36.892974 27.865900 53.095981 0
M  V30 46 H 39.561771 31.528616 55.908744 0
M  V30 47 H 40.587737 30.238213 55.336787 0
M  V30 48 H 41.305569 29.492180 59.873306 0
M  V30 49 H 40.238070 29.386745 62.799009 0
M  V30 END ATOM
M  V30 BEGIN BOND
M  V30 1 1 3 1
M  V30 2 2 7 1
M  V30 3 1 8 6
M  V30 4 1 9 2
M  V30 5 1 11 4
M  V30 6 1 11 10
M  V30 7 1 12 5
M  V30 8 1 12 8
M  V30 9 1 13 9
M  V30 10 2 14 12
M  V30 11 1 15 8
M  V30 12 1 17 13
M  V30 13 2 18 2
M  V30 14 1 18 4
M  V30 15 1 19 7
M  V30 16 1 19 11
M  V30 17 1 20 3
M  V30 18 1 20 15
M  V30 19 1 20 16
M  V30 20 1 21 1
M  V30 21 1 22 2
M  V30 22 1 23 3
M  V30 23 1 24 3
M  V30 24 1 25 4
M  V30 25 1 26 4
M  V30 26 1 27 6
M  V30 27 1 28 6
M  V30 28 1 29 7
M  V30 29 1 8 30 CFG=3
M  V30 30 1 31 9
M  V30 31 1 32 9
M  V30 32 1 33 10
M  V30 33 1 34 10
M  V30 34 1 35 10
M  V30 35 1 11 36 CFG=3
M  V30 36 1 37 13
M  V30 37 1 38 13
M  V30 38 1 39 15
M  V30 39 1 40 15
M  V30 40 1 41 16
M  V30 41 1 42 17
M  V30 42 1 43 17
M  V30 43 1 44 17
M  V30 44 1 45 18
M  V30 45 1 46 19
M  V30 46 1 47 19
M  V30 47 1 20 48 CFG=3
M  V30 48 1 49 6
M  V30 END BOND
M  V30 END CTAB
M  END
>  <i_epik_Tot_Q>  (1) 
0

>  <i_epik_Tot_abs_Q>  (1) 
2

>  <i_i_glide_confnum>  (1) 
532

>  <i_i_glide_lignum>  (1) 
30

>  <i_i_glide_posenum>  (1) 
207

>  <i_i_glide_rotatable_bonds>  (1) 
12

>  <i_lp_mmshare_version>  (1) 
72125

>  <i_m_source_file_index>  (1) 
15

>  <i_f3d_flags>  (1) 
0

>  <num_sample>  (1) 
100

>  <b_lp_Chiralities_Consistent>  (1) 
1

>  <r_epik_Charging_Adjusted_Penalty>  (1) 
0.00991281995240933

>  <r_epik_Ionization_Penalty>  (1) 
0.0049587358016132182

>  <r_epik_Ionization_Penalty_Charging>  (1) 
0.0049586922537287062

>  <r_epik_Ionization_Penalty_Neutral>  (1) 
4.3547884512074136e-08

>  <r_epik_State_Penalty>  (1) 
0.0049541276986806238

>  <r_glide_ring_energy>  (1) 
0

>  <r_i_docking_score>  (1) 
-3.249750545739059

>  <r_i_glide_ecoul>  (1) 
-4.1321255521171407

>  <r_i_glide_eff_state_penalty>  (1) 
0.0049541276986806238

>  <r_i_glide_einternal>  (1) 
7.1601115697236315

>  <r_i_glide_emodel>  (1) 
-34.253517104048385

>  <r_i_glide_emodel_strain>  (1) 
0.58249986244588925

>  <r_i_glide_energy>  (1) 
-30.194572496044096

>  <r_i_glide_erotb>  (1) 
4.0583376510001772

>  <r_i_glide_esite>  (1) 
-0.040643361253347915

>  <r_i_glide_evdw>  (1) 
-26.062446943926954

>  <r_i_glide_gscore>  (1) 
-3.2547046734377396

>  <r_i_glide_gscore_strain>  (1) 
0

>  <r_i_glide_hbond>  (1) 
-0.14838290839675161

>  <r_i_glide_ligand_efficiency>  (1) 
-0.16248752728695295

>  <r_i_glide_ligand_efficiency_ln>  (1) 
-0.81330537765198641

>  <r_i_glide_ligand_efficiency_sa>  (1) 
-0.44105900654465069

>  <r_i_glide_lipo>  (1) 
-2.9289327674820718

>  <r_i_glide_metal>  (1) 
-0

>  <r_i_glide_rewards>  (1) 
-2.2721421072918258

>  <r_lp_Energy>  (1) 
-3.5603029999999998

>  <s_epik_cmdline>  (1) 
J2VwaWtfcHl0aG9uJywgJy1waHQnLCAnMS4wJywgJy1waCcsICc3LjQnLCAnLXRuJywgJzgnLCAnLW1hJywgJzUwMCcsICctaW1hZScsICc8aW5maWxlLm1hZT4nLCAnLW9tYWUnLCAnPG91dGZpbGUubWFlPic=

>  <s_epik_input>  (1) 
W09IXUMoPU8pW0NAQEhdKFtOSDJdKVtDSDJdW0NAQEhdKFtPSF0pW0NIMl0vW0NIXT1bQ0hdL1tDSDJdW0NAQEhdKFtDSDNdKVtDSDJdL1tDSF09W0NIXVxbQ0gyXVtDSDJdW0NIM10=

>  <s_glide_docking_method>  (1) 
confgen

>  <s_i_glide_gridfile>  (1) 
gpcr_5ht2c_6bqh_protein_autoprepared_prepared

>  <s_lp_Force_Field>  (1) 
S-OPLS

>  <s_lp_Variant>  (1) 
DiffSBDD_14-8

>  <s_m_source_file>  (1) 
generated_GPCR_5HT2C_ligand_DiffSBDD_2026-06-23_prepared.sdf

>  <GenAI_Model>  (1) 
DiffSBDD

>  <Protein>  (1) 
GPCR_5HT2C

$$$$
DiffSBDD_61
     RDKit          3D

  0  0  0  0  0  0  0  0  0  0999 V3000
M  V30 BEGIN CTAB
M  V30 COUNTS 21 20 0 0 1
M  V30 BEGIN ATOM
M  V30 1 C 39.790501 30.460349 49.869300 0
M  V30 2 O 38.045137 31.936133 56.672511 0
M  V30 3 C 39.138929 30.619888 54.955631 0
M  V30 4 C 37.884648 28.195328 52.433897 0
M  V30 5 O 38.894026 29.984973 53.711970 0
M  V30 6 C 37.872221 31.358751 55.399323 0
M  V30 7 C 38.351120 28.676423 53.815112 0
M  V30 8 S 40.445136 29.412817 51.180247 0
M  V30 9 S 39.245116 27.764267 51.308495 0
M  V30 10 H 40.491104 31.267863 49.656238 0
M  V30 11 H 39.645303 29.869163 48.967574 0
M  V30 12 H 38.845139 30.905345 50.167756 0
M  V30 13 H 37.155212 32.137747 56.967756 0
M  V30 14 H 39.948361 31.337882 54.821042 0
M  V30 15 H 39.475448 29.901796 55.705744 0
M  V30 16 H 37.274676 27.302831 52.567757 0
M  V30 17 H 37.245898 28.937719 51.961715 0
M  V30 18 H 37.025611 30.674797 55.453693 0
M  V30 19 H 37.604070 32.137608 54.684171 0
M  V30 20 H 39.090762 27.992163 54.233482 0
M  V30 21 H 37.495394 28.675300 54.490594 0
M  V30 END ATOM
M  V30 BEGIN BOND
M  V30 1 1 5 3
M  V30 2 1 6 2
M  V30 3 1 6 3
M  V30 4 1 7 4
M  V30 5 1 7 5
M  V30 6 1 8 1
M  V30 7 1 9 4
M  V30 8 1 9 8
M  V30 9 1 10 1
M  V30 10 1 11 1
M  V30 11 1 12 1
M  V30 12 1 13 2
M  V30 13 1 14 3
M  V30 14 1 15 3
M  V30 15 1 16 4
M  V30 16 1 17 4
M  V30 17 1 18 6
M  V30 18 1 19 6
M  V30 19 1 20 7
M  V30 20 1 21 7
M  V30 END BOND
M  V30 END CTAB
M  END
>  <i_epik_Tot_Q>  (1) 
0

>  <i_epik_Tot_abs_Q>  (1) 
0

>  <i_i_glide_confnum>  (1) 
113

>  <i_i_glide_lignum>  (1) 
134

>  <i_i_glide_posenum>  (1) 
108

>  <i_i_glide_rotatable_bonds>  (1) 
7

>  <i_lp_mmshare_version>  (1) 
72125

>  <i_m_source_file_index>  (1) 
62

>  <i_f3d_flags>  (1) 
0

>  <num_sample>  (1) 
100

>  <b_lp_Chiralities_Consistent>  (1) 
1

>  <r_epik_Charging_Adjusted_Penalty>  (1) 
0

>  <r_epik_Ionization_Penalty>  (1) 
5.1568199446606131e-08

>  <r_epik_Ionization_Penalty_Charging>  (1) 
0

>  <r_epik_Ionization_Penalty_Neutral>  (1) 
5.1568199446606131e-08

>  <r_epik_State_Penalty>  (1) 
-0

>  <r_glide_ring_energy>  (1) 
0

>  <r_i_docking_score>  (1) 
-3.2337624793717623

>  <r_i_glide_ecoul>  (1) 
-4.1381756636453932

>  <r_i_glide_eff_state_penalty>  (1) 
-0

>  <r_i_glide_einternal>  (1) 
3.3836529177311623

>  <r_i_glide_emodel>  (1) 
-29.926398217888011

>  <r_i_glide_emodel_strain>  (1) 
0.12703431336760307

>  <r_i_glide_energy>  (1) 
-25.976202877561335

>  <r_i_glide_erotb>  (1) 
2.7134566579850197

>  <r_i_glide_esite>  (1) 
0

>  <r_i_glide_evdw>  (1) 
-21.838027213915939

>  <r_i_glide_gscore>  (1) 
-3.2337624793717623

>  <r_i_glide_gscore_strain>  (1) 
0

>  <r_i_glide_hbond>  (1) 
-0.16

>  <r_i_glide_ligand_efficiency>  (1) 
-0.35930694215241804

>  <r_i_glide_ligand_efficiency_ln>  (1) 
-1.0114280061196028

>  <r_i_glide_ligand_efficiency_sa>  (1) 
-0.74738855788149117

>  <r_i_glide_lipo>  (1) 
-1.6045219043787524

>  <r_i_glide_metal>  (1) 
-0

>  <r_i_glide_rewards>  (1) 
-2.4700695227354239

>  <r_lp_Energy>  (1) 
-5.6226759999999993

>  <r_lp_tautomer_probability>  (1) 
1

>  <s_epik_cmdline>  (1) 
J2VwaWtfcHl0aG9uJywgJy1waHQnLCAnMS4wJywgJy1waCcsICc3LjQnLCAnLXRuJywgJzgnLCAnLW1hJywgJzUwMCcsICctaW1hZScsICc8aW5maWxlLm1hZT4nLCAnLW9tYWUnLCAnPG91dGZpbGUubWFlPic=

>  <s_epik_input>  (1) 
W0NIM11TU1tDSDJdW0NIMl1PW0NIMl1bQ0gyXVtPSF0=

>  <s_glide_docking_method>  (1) 
confgen

>  <s_i_glide_gridfile>  (1) 
gpcr_5ht2c_6bqh_protein_autoprepared_prepared

>  <s_lp_Force_Field>  (1) 
S-OPLS

>  <s_lp_Variant>  (1) 
DiffSBDD_61-1

>  <s_m_source_file>  (1) 
generated_GPCR_5HT2C_ligand_DiffSBDD_2026-06-23_prepared.sdf

>  <GenAI_Model>  (1) 
DiffSBDD

>  <Protein>  (1) 
GPCR_5HT2C

$$$$
DiffSBDD_14
     RDKit          3D

  0  0  0  0  0  0  0  0  0  0999 V3000
M  V30 BEGIN CTAB
M  V30 COUNTS 49 48 0 0 1
M  V30 BEGIN ATOM
M  V30 1 C 39.138975 29.409510 57.774985 0
M  V30 2 C 39.645086 29.601089 53.083921 0
M  V30 3 C 37.628303 29.381272 57.929459 0
M  V30 4 C 38.795917 27.482845 54.239930 0
M  V30 5 O 35.252281 33.337767 61.367799 0 CHG=-1
M  V30 6 N 36.785465 34.199865 58.996220 0 CHG=1
M  V30 7 C 39.869401 28.403129 57.259886 0
M  V30 8 C 36.431881 32.829281 59.380033 0 CFG=2
M  V30 9 C 40.167150 28.905066 51.825872 0
M  V30 10 C 39.556666 25.241159 55.094280 0
M  V30 11 C 39.665589 26.756030 55.298962 0 CFG=2
M  V30 12 C 36.276721 32.799657 60.902549 0
M  V30 13 C 39.522968 29.441624 50.548053 0
M  V30 14 O 37.183863 32.251543 61.568578 0
M  V30 15 C 37.432265 31.803294 58.788050 0
M  V30 16 O 35.679633 30.137755 58.967754 0
M  V30 17 C 39.883506 30.901026 50.225366 0
M  V30 18 C 39.052113 28.983072 54.130961 0
M  V30 19 C 39.292969 27.088401 56.758522 0
M  V30 20 C 37.077182 30.314115 59.017900 0 CFG=1
M  V30 21 H 39.638427 30.306532 58.102672 0
M  V30 22 H 39.773246 30.673004 53.118863 0
M  V30 23 H 37.293407 28.373276 58.165669 0
M  V30 24 H 37.191735 29.644022 56.964842 0
M  V30 25 H 38.888012 26.979495 53.282562 0
M  V30 26 H 37.743771 27.360330 54.499175 0
M  V30 27 H 36.094712 34.821536 59.391451 0
M  V30 28 H 37.693207 34.422269 59.376057 0
M  V30 29 H 40.942097 28.512778 57.187384 0
M  V30 30 H 35.438543 32.657901 58.967766 0
M  V30 31 H 41.243471 29.065951 51.767638 0
M  V30 32 H 40.045242 27.826929 51.847571 0
M  V30 33 H 38.517537 24.912313 55.056869 0
M  V30 34 H 40.044248 24.949429 54.167760 0
M  V30 35 H 40.045128 24.689582 55.896681 0
M  V30 36 H 40.714066 27.008094 55.145077 0
M  V30 37 H 39.826312 28.817019 49.708495 0
M  V30 38 H 38.445221 29.321919 50.631145 0
M  V30 39 H 38.437183 31.998631 59.164411 0
M  V30 40 H 37.493630 31.984106 57.714960 0
M  V30 41 H 35.359217 30.657185 58.228947 0
M  V30 42 H 39.328730 31.252520 49.355340 0
M  V30 43 H 39.645119 31.576177 51.045924 0
M  V30 44 H 40.947651 31.005130 50.010652 0
M  V30 45 H 38.724731 29.579842 54.969193 0
M  V30 46 H 39.704905 26.329978 57.425081 0
M  V30 47 H 38.213823 27.016261 56.868581 0
M  V30 48 H 37.423231 29.989170 59.999971 0
M  V30 49 H 36.789858 34.286596 57.989894 0
M  V30 END ATOM
M  V30 BEGIN BOND
M  V30 1 1 3 1
M  V30 2 2 7 1
M  V30 3 1 8 6
M  V30 4 1 9 2
M  V30 5 1 11 4
M  V30 6 1 11 10
M  V30 7 1 12 5
M  V30 8 1 12 8
M  V30 9 1 13 9
M  V30 10 2 14 12
M  V30 11 1 15 8
M  V30 12 1 17 13
M  V30 13 2 18 2
M  V30 14 1 18 4
M  V30 15 1 19 7
M  V30 16 1 19 11
M  V30 17 1 20 3
M  V30 18 1 20 15
M  V30 19 1 20 16
M  V30 20 1 21 1
M  V30 21 1 22 2
M  V30 22 1 23 3
M  V30 23 1 24 3
M  V30 24 1 25 4
M  V30 25 1 26 4
M  V30 26 1 27 6
M  V30 27 1 28 6
M  V30 28 1 29 7
M  V30 29 1 8 30 CFG=3
M  V30 30 1 31 9
M  V30 31 1 32 9
M  V30 32 1 33 10
M  V30 33 1 34 10
M  V30 34 1 35 10
M  V30 35 1 11 36 CFG=3
M  V30 36 1 37 13
M  V30 37 1 38 13
M  V30 38 1 39 15
M  V30 39 1 40 15
M  V30 40 1 41 16
M  V30 41 1 42 17
M  V30 42 1 43 17
M  V30 43 1 44 17
M  V30 44 1 45 18
M  V30 45 1 46 19
M  V30 46 1 47 19
M  V30 47 1 20 48 CFG=1
M  V30 48 1 49 6
M  V30 END BOND
M  V30 END CTAB
M  END
>  <i_epik_Tot_Q>  (1) 
0

>  <i_epik_Tot_abs_Q>  (1) 
2

>  <i_i_glide_confnum>  (1) 
611

>  <i_i_glide_lignum>  (1) 
25

>  <i_i_glide_posenum>  (1) 
115

>  <i_i_glide_rotatable_bonds>  (1) 
12

>  <i_lp_mmshare_version>  (1) 
72125

>  <i_m_source_file_index>  (1) 
15

>  <i_f3d_flags>  (1) 
0

>  <num_sample>  (1) 
100

>  <b_lp_Chiralities_Consistent>  (1) 
1

>  <r_epik_Charging_Adjusted_Penalty>  (1) 
0.00991281995240933

>  <r_epik_Ionization_Penalty>  (1) 
0.0049587358016132182

>  <r_epik_Ionization_Penalty_Charging>  (1) 
0.0049586922537287062

>  <r_epik_Ionization_Penalty_Neutral>  (1) 
4.3547884512074136e-08

>  <r_epik_State_Penalty>  (1) 
0.0049541276986806238

>  <r_glide_ring_energy>  (1) 
0

>  <r_i_docking_score>  (1) 
-3.1975980609937587

>  <r_i_glide_ecoul>  (1) 
-7.6772163713183899

>  <r_i_glide_eff_state_penalty>  (1) 
0.0049541276986806238

>  <r_i_glide_einternal>  (1) 
5.262011571768034

>  <r_i_glide_emodel>  (1) 
-34.834597228176897

>  <r_i_glide_emodel_strain>  (1) 
1.8778881134857546

>  <r_i_glide_energy>  (1) 
-31.308552434215695

>  <r_i_glide_erotb>  (1) 
4.0583376510001772

>  <r_i_glide_esite>  (1) 
-0.039547248784375183

>  <r_i_glide_evdw>  (1) 
-23.631336062897304

>  <r_i_glide_gscore>  (1) 
-3.2025521886924393

>  <r_i_glide_gscore_strain>  (1) 
0

>  <r_i_glide_hbond>  (1) 
-0.17527448245715921

>  <r_i_glide_ligand_efficiency>  (1) 
-0.15987990304968794

>  <r_i_glide_ligand_efficiency_ln>  (1) 
-0.80025333082430616

>  <r_i_glide_ligand_efficiency_sa>  (1) 
-0.43398082537755867

>  <r_i_glide_lipo>  (1) 
-2.6062083686233315

>  <r_i_glide_metal>  (1) 
-0

>  <r_i_glide_rewards>  (1) 
-2.1067104809851269

>  <r_lp_Energy>  (1) 
-2.0844119999999999

>  <s_epik_cmdline>  (1) 
J2VwaWtfcHl0aG9uJywgJy1waHQnLCAnMS4wJywgJy1waCcsICc3LjQnLCAnLXRuJywgJzgnLCAnLW1hJywgJzUwMCcsICctaW1hZScsICc8aW5maWxlLm1hZT4nLCAnLW9tYWUnLCAnPG91dGZpbGUubWFlPic=

>  <s_epik_input>  (1) 
W09IXUMoPU8pW0NAQEhdKFtOSDJdKVtDSDJdW0NAQEhdKFtPSF0pW0NIMl0vW0NIXT1bQ0hdXFtDSDJdW0NAQEhdKFtDSDNdKVtDSDJdL1tDSF09W0NIXVxbQ0gyXVtDSDJdW0NIM10=

>  <s_glide_docking_method>  (1) 
confgen

>  <s_i_glide_gridfile>  (1) 
gpcr_5ht2c_6bqh_protein_autoprepared_prepared

>  <s_lp_Force_Field>  (1) 
S-OPLS

>  <s_lp_Variant>  (1) 
DiffSBDD_14-3

>  <s_m_source_file>  (1) 
generated_GPCR_5HT2C_ligand_DiffSBDD_2026-06-23_prepared.sdf

>  <GenAI_Model>  (1) 
DiffSBDD

>  <Protein>  (1) 
GPCR_5HT2C

$$$$
DiffSBDD_57
     RDKit          3D

  0  0  0  0  0  0  0  0  0  0999 V3000
M  V30 BEGIN CTAB
M  V30 COUNTS 64 66 0 0 1
M  V30 BEGIN ATOM
M  V30 1 O 36.879829 37.129148 59.469903 0
M  V30 2 C 35.149343 33.154625 61.377241 0
M  V30 3 C 36.381264 37.838854 62.493731 0
M  V30 4 C 37.332415 33.405186 60.131663 0 CFG=2
M  V30 5 C 38.587227 29.780781 56.692397 0
M  V30 6 S 34.836433 32.454362 59.767751 0
M  V30 7 O 39.069939 28.672255 56.932949 0
M  V30 8 C 36.662514 33.279333 61.525905 0
M  V30 9 N 37.245195 27.584608 54.105451 0
M  V30 10 C 38.216030 36.538118 63.755548 0 CFG=2
M  V30 11 N 37.893387 30.486719 57.573061 0
M  V30 12 C 37.244819 36.111970 60.044464 0
M  V30 13 O 39.520062 35.939162 63.578435 0
M  V30 14 C 37.072902 34.751919 59.335479 0
M  V30 15 C 37.058489 30.875906 59.744347 0
M  V30 16 C 39.367736 28.655375 53.566394 0 CFG=2
M  V30 17 O 39.645032 37.337998 65.419146 0
M  V30 18 C 37.664672 30.073918 58.868579 0
M  V30 19 C 37.984310 28.351834 53.109176 0 CFG=1
M  V30 20 C 36.587104 32.287561 59.394038 0 CFG=2
M  V30 21 C 38.854909 33.093577 60.150337 0
M  V30 22 C 39.812630 29.756855 54.495797 0 CFG=2
M  V30 23 C 37.483627 36.819863 62.486964 0
M  V30 24 C 38.775929 30.441604 55.333878 0 CFG=2
M  V30 25 C 39.919969 29.960045 53.013688 0
M  V30 26 N 39.385655 37.337758 64.004250 0
M  V30 27 N 35.978784 38.495548 61.367757 0
M  V30 28 C 38.052544 27.655273 51.751753 0
M  V30 29 O 38.916202 28.282651 50.829167 0
M  V30 30 O 37.918104 26.312531 54.318203 0
M  V30 31 C 35.775797 38.137245 63.654207 0
M  V30 32 C 37.866658 36.083401 61.390564 0
M  V30 33 Cl 39.244963 32.146593 55.571256 0
M  V30 34 H 34.689470 32.550890 62.158947 0
M  V30 35 H 34.696075 34.137596 61.406809 0
M  V30 36 H 37.045710 32.409447 62.058816 0
M  V30 37 H 36.858028 34.105687 62.167695 0
M  V30 38 H 36.327921 27.305448 53.786118 0
M  V30 39 H 37.625282 36.182151 64.583983 0
M  V30 40 H 37.519240 31.387881 57.301725 0
M  V30 41 H 36.037306 34.758321 58.996273 0
M  V30 42 H 37.645043 34.751623 58.409891 0
M  V30 43 H 36.885333 30.535785 60.752847 0
M  V30 44 H 39.972882 27.746152 53.571530 0
M  V30 45 H 40.591211 37.449988 65.415309 0
M  V30 46 H 38.013664 29.076061 59.099179 0
M  V30 47 H 37.452782 29.293185 52.974002 0
M  V30 48 H 36.765302 32.495275 58.342300 0
M  V30 49 H 39.094707 32.282258 60.838263 0
M  V30 50 H 39.188121 32.789528 59.157097 0
M  V30 51 H 39.489751 33.932446 60.416742 0
M  V30 52 H 40.772073 29.656649 54.999105 0
M  V30 53 H 37.812983 30.458590 54.824721 0
M  V30 54 H 39.245134 30.694894 52.585253 0
M  V30 55 H 40.845132 29.850734 52.472890 0
M  V30 56 H 36.345251 38.250856 60.446618 0
M  V30 57 H 38.343497 26.610242 51.820356 0
M  V30 58 H 37.061866 27.737756 51.367697 0
M  V30 59 H 39.786253 28.300819 51.196366 0
M  V30 60 H 37.770070 25.855228 53.503152 0
M  V30 61 H 34.992403 38.877886 63.694784 0
M  V30 62 H 36.045283 37.647311 64.570529 0
M  V30 63 H 38.661585 35.379944 61.521676 0
M  V30 64 H 35.228893 39.169826 61.381824 0
M  V30 END ATOM
M  V30 BEGIN BOND
M  V30 1 1 6 2
M  V30 2 2 7 5
M  V30 3 1 8 2
M  V30 4 1 8 4
M  V30 5 1 11 5
M  V30 6 2 12 1
M  V30 7 1 13 10
M  V30 8 1 4 14 CFG=3
M  V30 9 1 14 12
M  V30 10 1 18 11
M  V30 11 2 18 15
M  V30 12 1 19 9
M  V30 13 1 19 16
M  V30 14 1 20 4
M  V30 15 1 20 6
M  V30 16 1 20 15
M  V30 17 1 21 4
M  V30 18 1 22 16
M  V30 19 1 23 3
M  V30 20 1 23 10
M  V30 21 1 24 5
M  V30 22 1 24 22
M  V30 23 1 25 16
M  V30 24 1 25 22
M  V30 25 1 26 10
M  V30 26 1 26 13
M  V30 27 1 26 17
M  V30 28 1 27 3
M  V30 29 1 28 19
M  V30 30 1 29 28
M  V30 31 1 30 9
M  V30 32 2 31 3
M  V30 33 1 32 12
M  V30 34 2 32 23
M  V30 35 1 33 24
M  V30 36 1 34 2
M  V30 37 1 35 2
M  V30 38 1 36 8
M  V30 39 1 37 8
M  V30 40 1 38 9
M  V30 41 1 10 39 CFG=1
M  V30 42 1 40 11
M  V30 43 1 41 14
M  V30 44 1 42 14
M  V30 45 1 43 15
M  V30 46 1 16 44 CFG=1
M  V30 47 1 45 17
M  V30 48 1 46 18
M  V30 49 1 19 47 CFG=3
M  V30 50 1 20 48 CFG=3
M  V30 51 1 49 21
M  V30 52 1 50 21
M  V30 53 1 51 21
M  V30 54 1 22 52 CFG=1
M  V30 55 1 24 53 CFG=3
M  V30 56 1 54 25
M  V30 57 1 55 25
M  V30 58 1 56 27
M  V30 59 1 57 28
M  V30 60 1 58 28
M  V30 61 1 59 29
M  V30 62 1 60 30
M  V30 63 1 61 31
M  V30 64 1 62 31
M  V30 65 1 63 32
M  V30 66 1 64 27
M  V30 END BOND
M  V30 END CTAB
M  END
>  <i_epik_Tot_Q>  (1) 
0

>  <i_epik_Tot_abs_Q>  (1) 
0

>  <i_i_glide_confnum>  (1) 
5557

>  <i_i_glide_lignum>  (1) 
127

>  <i_i_glide_posenum>  (1) 
5

>  <i_i_glide_rotatable_bonds>  (1) 
16

>  <i_lp_mmshare_version>  (1) 
72125

>  <i_m_source_file_index>  (1) 
58

>  <i_f3d_flags>  (1) 
0

>  <num_sample>  (1) 
100

>  <b_lp_Chiralities_Consistent>  (1) 
1

>  <r_epik_Charging_Adjusted_Penalty>  (1) 
0.024416195549470061

>  <r_epik_Ionization_Penalty>  (1) 
0.014246986074461085

>  <r_epik_Ionization_Penalty_Charging>  (1) 
6.6592516266621022e-05

>  <r_epik_Ionization_Penalty_Neutral>  (1) 
0.014180393558194464

>  <r_epik_State_Penalty>  (1) 
0.024349603033203441

>  <r_glide_ring_energy>  (1) 
0.20502008593201695

>  <r_i_docking_score>  (1) 
-3.1923462932460782

>  <r_i_glide_ecoul>  (1) 
-6.1769847652613619

>  <r_i_glide_eff_state_penalty>  (1) 
0.024349603033203441

>  <r_i_glide_einternal>  (1) 
21.408519167986597

>  <r_i_glide_emodel>  (1) 
-20.351524237008128

>  <r_i_glide_emodel_strain>  (1) 
10.638223018653207

>  <r_i_glide_energy>  (1) 
-32.625462871653475

>  <r_i_glide_erotb>  (1) 
1.0500022235395752

>  <r_i_glide_esite>  (1) 
-0.10682393593207525

>  <r_i_glide_evdw>  (1) 
-26.448478106392116

>  <r_i_glide_gscore>  (1) 
-3.2166958962792815

>  <r_i_glide_gscore_strain>  (1) 
1.6595557546633017

>  <r_i_glide_hbond>  (1) 
-0.34883505004258752

>  <r_i_glide_ligand_efficiency>  (1) 
-0.09673776646200237

>  <r_i_glide_ligand_efficiency_ln>  (1) 
-0.70996128653343893

>  <r_i_glide_ligand_efficiency_sa>  (1) 
-0.31028970693399155

>  <r_i_glide_lipo>  (1) 
-2.3457578349030892

>  <r_i_glide_metal>  (1) 
-0

>  <r_i_glide_rewards>  (1) 
-0.8758654334955972

>  <r_lp_Energy>  (1) 
20.021283

>  <s_epik_Chemistry_Notes>  (1) 
This compound has an imine and may undergo hydrolysis. This compound contains an acetal/aminal-like group ( X-CH(R)-Y where X, Y are N, S, or O) that may be acid/base labile, releasing an aldehyde. This compound has a N-S or N-O group and may undergo hydrolysis at high or low pH.

>  <s_epik_cmdline>  (1) 
J2VwaWtfcHl0aG9uJywgJy1waHQnLCAnMS4wJywgJy1waCcsICc3LjQnLCAnLXRuJywgJzgnLCAnLW1hJywgJzUwMCcsICctaW1hZScsICc8aW5maWxlLm1hZT4nLCAnLW9tYWUnLCAnPG91dGZpbGUubWFlPic=

>  <s_epik_input>  (1) 
W09IXU4xT1tDQEBIXTFDKC9DKD1OL1tIXSlbQ0gzXSk9W0NIXS9DKD1PKVtDSDJdW0NAQF0yKFtDSDNdKVtDSDJdW0NIMl1TW0NAQEhdMi9bQ0hdPVtDSF1cW05IXUMoPU8pW0NAQEhdKENsKVtDQEhdKFtDSDJdMylbQ0BIXTNbQ0BIXShbTkhdW09IXSlbQ0gyXVtPSF0=

>  <s_glide_docking_method>  (1) 
confgen

>  <s_i_glide_gridfile>  (1) 
gpcr_5ht2c_6bqh_protein_autoprepared_prepared

>  <s_lp_Force_Field>  (1) 
S-OPLS

>  <s_lp_Variant>  (1) 
DiffSBDD_57-3

>  <s_m_source_file>  (1) 
generated_GPCR_5HT2C_ligand_DiffSBDD_2026-06-23_prepared.sdf

>  <GenAI_Model>  (1) 
DiffSBDD

>  <Protein>  (1) 
GPCR_5HT2C

$$$$
DiffSBDD_93
     RDKit          3D

  0  0  0  0  0  0  0  0  0  0999 V3000
M  V30 BEGIN CTAB
M  V30 COUNTS 84 85 0 0 1
M  V30 BEGIN ATOM
M  V30 1 C 38.867963 32.067191 59.232790 0
M  V30 2 O 37.798223 31.659469 60.057954 0
M  V30 3 C 37.476671 36.937716 63.973382 0
M  V30 4 C 41.986710 27.443386 57.215868 0
M  V30 5 O 38.331737 33.396389 55.857545 0
M  V30 6 C 39.036909 27.940230 59.310773 0
M  V30 7 N 40.067916 27.786256 60.134294 0
M  V30 8 O 38.092905 28.664201 59.583459 0
M  V30 9 O 37.564054 37.739347 60.442272 0
M  V30 10 C 43.449907 27.796932 57.370017 0
M  V30 11 C 36.772986 36.184009 62.856511 0
M  V30 12 C 39.628994 31.464162 56.422869 0
M  V30 13 C 37.559011 34.060049 58.455575 0
M  V30 14 C 39.526150 28.025223 56.739056 0 CFG=1
M  V30 15 C 39.078199 27.151995 57.974842 0 CFG=2
M  V30 16 C 39.057849 35.401318 62.885915 0 CFG=1
M  V30 17 C 37.503785 34.516131 61.077841 0 CFG=1
M  V30 18 C 36.076197 33.914536 61.219000 0
M  V30 19 C 39.085470 30.393971 55.443511 0
M  V30 20 S 37.245143 36.637365 59.195487 0 CHG=1
M  V30 21 O 37.245154 30.369470 57.706586 0
M  V30 22 N 38.441448 32.935374 58.105005 0
M  V30 23 O 35.645140 36.344520 59.176071 0
M  V30 24 O 39.645275 37.693442 63.388301 0
M  V30 25 F 41.244668 34.650748 63.220158 0
M  V30 26 C 42.670865 27.326950 58.558895 0
M  V30 27 C 37.212344 29.366709 56.776142 0
M  V30 28 C 38.534797 29.080989 56.080845 0 CFG=2
M  V30 29 C 38.739207 32.679326 56.771690 0
M  V30 30 C 37.884180 26.158900 57.778958 0
M  V30 31 C 41.172809 36.087082 61.421526 0
M  V30 32 C 37.911201 34.977977 59.666658 0 CFG=2
M  V30 33 O 36.865753 25.096896 55.914760 0
M  V30 34 C 40.970462 28.520015 56.932814 0
M  V30 35 C 40.427952 35.038587 62.241495 0 CFG=2
M  V30 36 C 37.947377 25.325552 56.498042 0
M  V30 37 C 38.975444 36.564543 63.892932 0 CFG=1
M  V30 38 O 39.074286 24.930919 56.133030 0 CHG=-1
M  V30 39 N 37.866985 35.609527 62.025901 0 CFG=1 CHG=1
M  V30 40 H 39.245170 31.085943 58.994750 0
M  V30 41 H 39.635068 32.568594 59.822071 0
M  V30 42 H 37.477669 30.838701 59.688646 0
M  V30 43 H 37.280999 37.985569 63.767734 0
M  V30 44 H 37.045987 36.714364 64.948006 0
M  V30 45 H 41.775434 26.537748 56.664744 0
M  V30 46 H 40.833696 27.182974 59.873416 0
M  V30 47 H 40.082710 28.272553 61.019322 0
M  V30 48 H 37.794239 38.557030 60.023224 0
M  V30 49 H 44.179775 27.103036 56.968070 0
M  V30 50 H 43.724169 28.849131 57.326366 0
M  V30 51 H 36.168793 36.881453 62.280768 0
M  V30 52 H 36.045135 35.476747 63.255671 0
M  V30 53 H 40.445135 31.941772 55.892975 0
M  V30 54 H 40.045111 30.946197 57.248265 0
M  V30 55 H 36.526735 33.710107 58.484009 0
M  V30 56 H 37.592543 34.725608 57.599790 0
M  V30 57 H 39.667913 27.312247 55.928352 0
M  V30 58 H 39.889891 26.442475 58.130556 0
M  V30 59 H 38.859449 34.460714 63.367724 0
M  V30 60 H 38.157601 33.689461 61.339789 0
M  V30 61 H 35.862392 33.152928 60.475035 0
M  V30 62 H 35.977016 33.398738 62.167716 0
M  V30 63 H 35.258031 34.613208 61.139657 0
M  V30 64 H 38.301691 30.843556 54.830573 0
M  V30 65 H 39.868920 30.134116 54.732965 0
M  V30 66 H 36.546790 30.986811 57.455907 0
M  V30 67 H 35.433000 35.844863 59.945997 0
M  V30 68 H 40.481564 37.782687 63.842360 0
M  V30 69 H 42.445068 28.078835 59.306783 0
M  V30 70 H 42.920829 26.339010 58.938041 0
M  V30 71 H 36.472333 29.737684 56.057485 0
M  V30 72 H 36.845133 28.528147 57.339769 0
M  V30 73 H 38.183567 28.527140 55.208062 0
M  V30 74 H 37.919373 25.420079 58.573775 0
M  V30 75 H 36.896747 26.599674 57.851647 0
M  V30 76 H 40.552642 36.488486 60.635955 0
M  V30 77 H 41.545486 36.908216 62.026361 0
M  V30 78 H 42.045100 35.640151 60.950920 0
M  V30 79 H 38.991080 35.062872 59.767750 0
M  V30 80 H 41.284123 28.937754 55.983411 0
M  V30 81 H 41.030286 29.237267 57.750992 0
M  V30 82 H 40.323110 34.143226 61.629313 0
M  V30 83 H 39.394446 36.304205 64.867719 0
M  V30 84 H 38.129072 36.421112 61.473789 0
M  V30 END ATOM
M  V30 BEGIN BOND
M  V30 1 1 2 1
M  V30 2 1 7 6
M  V30 3 2 8 6
M  V30 4 1 10 4
M  V30 5 1 11 3
M  V30 6 1 15 6
M  V30 7 1 15 14
M  V30 8 1 18 17
M  V30 9 1 19 12
M  V30 10 1 20 9
M  V30 11 1 22 1
M  V30 12 1 22 13
M  V30 13 1 23 20
M  V30 14 1 26 4
M  V30 15 1 26 10
M  V30 16 1 27 21
M  V30 17 1 28 14
M  V30 18 1 28 19
M  V30 19 1 28 27
M  V30 20 2 29 5
M  V30 21 1 29 12
M  V30 22 1 29 22
M  V30 23 1 30 15
M  V30 24 1 32 13
M  V30 25 1 32 17
M  V30 26 1 32 20
M  V30 27 1 34 4
M  V30 28 1 34 14
M  V30 29 1 35 16
M  V30 30 1 35 25
M  V30 31 1 35 31
M  V30 32 1 36 30
M  V30 33 2 36 33
M  V30 34 1 37 3
M  V30 35 1 37 16
M  V30 36 1 37 24
M  V30 37 1 38 36
M  V30 38 1 39 11
M  V30 39 1 39 16
M  V30 40 1 39 17
M  V30 41 1 40 1
M  V30 42 1 41 1
M  V30 43 1 42 2
M  V30 44 1 43 3
M  V30 45 1 44 3
M  V30 46 1 45 4
M  V30 47 1 46 7
M  V30 48 1 47 7
M  V30 49 1 48 9
M  V30 50 1 49 10
M  V30 51 1 50 10
M  V30 52 1 51 11
M  V30 53 1 52 11
M  V30 54 1 53 12
M  V30 55 1 54 12
M  V30 56 1 55 13
M  V30 57 1 56 13
M  V30 58 1 14 57 CFG=3
M  V30 59 1 15 58 CFG=1
M  V30 60 1 16 59 CFG=1
M  V30 61 1 17 60 CFG=1
M  V30 62 1 61 18
M  V30 63 1 62 18
M  V30 64 1 63 18
M  V30 65 1 64 19
M  V30 66 1 65 19
M  V30 67 1 66 21
M  V30 68 1 67 23
M  V30 69 1 68 24
M  V30 70 1 69 26
M  V30 71 1 70 26
M  V30 72 1 71 27
M  V30 73 1 72 27
M  V30 74 1 28 73 CFG=3
M  V30 75 1 74 30
M  V30 76 1 75 30
M  V30 77 1 76 31
M  V30 78 1 77 31
M  V30 79 1 78 31
M  V30 80 1 32 79 CFG=1
M  V30 81 1 80 34
M  V30 82 1 81 34
M  V30 83 1 35 82 CFG=3
M  V30 84 1 37 83 CFG=1
M  V30 85 1 39 84 CFG=3
M  V30 END BOND
M  V30 END CTAB
M  END
>  <i_epik_Tot_Q>  (1) 
1

>  <i_epik_Tot_abs_Q>  (1) 
3

>  <i_i_glide_confnum>  (1) 
819

>  <i_i_glide_lignum>  (1) 
218

>  <i_i_glide_posenum>  (1) 
72

>  <i_i_glide_rotatable_bonds>  (1) 
24

>  <i_lp_mmshare_version>  (1) 
72125

>  <i_m_source_file_index>  (1) 
94

>  <i_f3d_flags>  (1) 
0

>  <num_sample>  (1) 
100

>  <b_lp_Chiralities_Consistent>  (1) 
1

>  <r_epik_Charging_Adjusted_Penalty>  (1) 
0.90916677635763199

>  <r_epik_Ionization_Penalty>  (1) 
0.45507897092921873

>  <r_epik_Ionization_Penalty_Charging>  (1) 
0.45507471778648678

>  <r_epik_Ionization_Penalty_Neutral>  (1) 
4.2531427319391784e-06

>  <r_epik_State_Penalty>  (1) 
0.45409205857114521

>  <r_glide_ring_energy>  (1) 
0

>  <r_i_docking_score>  (1) 
-3.1896349413493912

>  <r_i_glide_ecoul>  (1) 
-9.9860289540729852

>  <r_i_glide_eff_state_penalty>  (1) 
0.45409205857114521

>  <r_i_glide_einternal>  (1) 
13.556689079807615

>  <r_i_glide_emodel>  (1) 
-12.58102878767037

>  <r_i_glide_emodel_strain>  (1) 
11.626764311214487

>  <r_i_glide_energy>  (1) 
-16.782760912431311

>  <r_i_glide_erotb>  (1) 
0.82188833391367333

>  <r_i_glide_esite>  (1) 
-0.13020867714735015

>  <r_i_glide_evdw>  (1) 
-6.7967319583583246

>  <r_i_glide_gscore>  (1) 
-3.6437269999205366

>  <r_i_glide_gscore_strain>  (1) 
1.9066910778036217

>  <r_i_glide_hbond>  (1) 
-0.45599999999999996

>  <r_i_glide_ligand_efficiency>  (1) 
-0.081785511316651058

>  <r_i_glide_ligand_efficiency_ln>  (1) 
-0.68394827459748775

>  <r_i_glide_ligand_efficiency_sa>  (1) 
-0.27735196184979172

>  <r_i_glide_lipo>  (1) 
-2.4355648312305656

>  <r_i_glide_metal>  (1) 
-0

>  <r_i_glide_rewards>  (1) 
-1.5127919622310524

>  <r_lp_Energy>  (1) 
13.278706999999999

>  <s_epik_Chemistry_Notes>  (1) 
This compound contains an acetal/aminal-like group ( X-CH(R)-Y where X, Y are N, S, or O) that may be acid/base labile, releasing an aldehyde.

>  <s_epik_cmdline>  (1) 
J2VwaWtfcHl0aG9uJywgJy1waHQnLCAnMS4wJywgJy1waCcsICc3LjQnLCAnLXRuJywgJzgnLCAnLW1hJywgJzUwMCcsICctaW1hZScsICc8aW5maWxlLm1hZT4nLCAnLW9tYWUnLCAnPG91dGZpbGUubWFlPic=

>  <s_epik_input>  (1) 
W0NIMl0xW0NIMl1bQ0hdMVtDSDJdW0NAQEhdKFtDQEBIXShDKD1PKVtOSDJdKVtDSDJdQyg9TylbT0hdKVtDQEBIXShbQ0gyXVtPSF0pW0NIMl1bQ0gyXUMoPU8pTihbQ0gyXVtPSF0pW0NIMl1bQ0BASF0oW1MrXShbT0hdKVtPSF0pW0NASF0oW0NIM10pTjJbQ0gyXVtDSDJdW0NASF0oW09IXSlbQ0BASF0yW0NASF0oRilbQ0gzXQ==

>  <s_glide_docking_method>  (1) 
confgen

>  <s_i_glide_gridfile>  (1) 
gpcr_5ht2c_6bqh_protein_autoprepared_prepared

>  <s_lp_Force_Field>  (1) 
S-OPLS

>  <s_lp_Variant>  (1) 
DiffSBDD_93-6

>  <s_m_source_file>  (1) 
generated_GPCR_5HT2C_ligand_DiffSBDD_2026-06-23_prepared.sdf

>  <GenAI_Model>  (1) 
DiffSBDD

>  <Protein>  (1) 
GPCR_5HT2C

$$$$
DiffSBDD_14
     RDKit          3D

  0  0  0  0  0  0  0  0  0  0999 V3000
M  V30 BEGIN CTAB
M  V30 COUNTS 49 48 0 0 1
M  V30 BEGIN ATOM
M  V30 1 C 37.971776 28.803164 57.203159 0
M  V30 2 C 38.669116 27.449568 51.643816 0
M  V30 3 C 36.912112 29.362581 58.138427 0
M  V30 4 C 37.822648 26.774874 53.931530 0
M  V30 5 O 38.777683 34.137752 60.212891 0 CHG=-1
M  V30 6 N 37.390463 33.737756 57.767760 0 CHG=1
M  V30 7 C 38.191627 27.490948 57.018288 0
M  V30 8 C 37.232949 32.861347 58.928818 0 CFG=2
M  V30 9 C 39.483306 28.293775 50.675533 0
M  V30 10 C 37.938500 24.801350 55.532888 0
M  V30 11 C 38.688334 26.019441 54.964619 0 CFG=2
M  V30 12 C 37.617385 33.669192 60.173901 0
M  V30 13 C 40.064918 29.590894 51.253055 0
M  V30 14 O 36.741060 33.808433 61.053661 0
M  V30 15 C 38.104958 31.580642 58.768703 0
M  V30 16 O 36.445112 30.524055 60.182701 0
M  V30 17 C 40.636517 30.505072 50.167464 0
M  V30 18 C 38.642239 27.628250 52.979363 0
M  V30 19 C 39.249639 26.930592 56.081873 0
M  V30 20 C 37.478763 30.254857 59.261804 0 CFG=1
M  V30 21 H 38.569784 29.522899 56.664389 0
M  V30 22 H 38.081840 26.659714 51.202921 0
M  V30 23 H 36.347532 28.537755 58.567740 0
M  V30 24 H 36.196360 29.916092 57.540155 0
M  V30 25 H 37.245165 26.059650 53.345981 0
M  V30 26 H 37.089503 27.408729 54.430707 0
M  V30 27 H 36.855814 34.583220 57.914410 0
M  V30 28 H 38.366097 33.972785 57.664159 0
M  V30 29 H 37.593817 26.770454 57.556841 0
M  V30 30 H 36.168528 32.628049 58.967752 0
M  V30 31 H 40.282248 27.673978 50.270354 0
M  V30 32 H 38.845132 28.537742 49.829203 0
M  V30 33 H 37.000624 25.089598 56.008712 0
M  V30 34 H 37.696812 24.089063 54.743275 0
M  V30 35 H 38.543987 24.275303 56.271522 0
M  V30 36 H 39.551153 25.617958 54.430693 0
M  V30 37 H 39.297492 30.137759 51.800295 0
M  V30 38 H 40.845139 29.347299 51.970410 0
M  V30 39 H 39.045542 31.707259 59.305732 0
M  V30 40 H 38.413009 31.473497 57.729573 0
M  V30 41 H 35.754133 30.983040 59.726860 0
M  V30 42 H 41.169045 31.337751 50.618424 0
M  V30 43 H 41.338488 29.980913 49.521853 0
M  V30 44 H 39.843013 30.910799 49.539045 0
M  V30 45 H 39.227421 28.416468 53.426969 0
M  V30 46 H 39.823070 27.749292 55.646126 0
M  V30 47 H 39.957165 26.363000 56.687646 0
M  V30 48 H 38.239891 29.683043 59.794904 0
M  V30 49 H 37.040011 33.254377 56.949758 0
M  V30 END ATOM
M  V30 BEGIN BOND
M  V30 1 1 3 1
M  V30 2 2 7 1
M  V30 3 1 8 6
M  V30 4 1 9 2
M  V30 5 1 11 4
M  V30 6 1 11 10
M  V30 7 1 12 5
M  V30 8 1 12 8
M  V30 9 1 13 9
M  V30 10 2 14 12
M  V30 11 1 15 8
M  V30 12 1 17 13
M  V30 13 2 18 2
M  V30 14 1 18 4
M  V30 15 1 19 7
M  V30 16 1 19 11
M  V30 17 1 20 3
M  V30 18 1 20 15
M  V30 19 1 20 16
M  V30 20 1 21 1
M  V30 21 1 22 2
M  V30 22 1 23 3
M  V30 23 1 24 3
M  V30 24 1 25 4
M  V30 25 1 26 4
M  V30 26 1 27 6
M  V30 27 1 28 6
M  V30 28 1 29 7
M  V30 29 1 8 30 CFG=1
M  V30 30 1 31 9
M  V30 31 1 32 9
M  V30 32 1 33 10
M  V30 33 1 34 10
M  V30 34 1 35 10
M  V30 35 1 11 36 CFG=3
M  V30 36 1 37 13
M  V30 37 1 38 13
M  V30 38 1 39 15
M  V30 39 1 40 15
M  V30 40 1 41 16
M  V30 41 1 42 17
M  V30 42 1 43 17
M  V30 43 1 44 17
M  V30 44 1 45 18
M  V30 45 1 46 19
M  V30 46 1 47 19
M  V30 47 1 20 48 CFG=1
M  V30 48 1 49 6
M  V30 END BOND
M  V30 END CTAB
M  END
>  <i_epik_Tot_Q>  (1) 
0

>  <i_epik_Tot_abs_Q>  (1) 
2

>  <i_i_glide_confnum>  (1) 
392

>  <i_i_glide_lignum>  (1) 
24

>  <i_i_glide_posenum>  (1) 
121

>  <i_i_glide_rotatable_bonds>  (1) 
12

>  <i_lp_mmshare_version>  (1) 
72125

>  <i_m_source_file_index>  (1) 
15

>  <i_f3d_flags>  (1) 
0

>  <num_sample>  (1) 
100

>  <b_lp_Chiralities_Consistent>  (1) 
1

>  <r_epik_Charging_Adjusted_Penalty>  (1) 
0.00991281995240933

>  <r_epik_Ionization_Penalty>  (1) 
0.0049587358016132182

>  <r_epik_Ionization_Penalty_Charging>  (1) 
0.0049586922537287062

>  <r_epik_Ionization_Penalty_Neutral>  (1) 
4.3547884512074136e-08

>  <r_epik_State_Penalty>  (1) 
0.0049541276986806238

>  <r_glide_ring_energy>  (1) 
0

>  <r_i_docking_score>  (1) 
-3.1707849305185625

>  <r_i_glide_ecoul>  (1) 
-5.5771138556729545

>  <r_i_glide_eff_state_penalty>  (1) 
0.0049541276986806238

>  <r_i_glide_einternal>  (1) 
4.6264969676658136

>  <r_i_glide_emodel>  (1) 
-37.063634865603845

>  <r_i_glide_emodel_strain>  (1) 
2.3303189247069014

>  <r_i_glide_energy>  (1) 
-32.913291953627848

>  <r_i_glide_erotb>  (1) 
4.0583376510001772

>  <r_i_glide_esite>  (1) 
-0.06532083484482526

>  <r_i_glide_evdw>  (1) 
-27.336178097954896

>  <r_i_glide_gscore>  (1) 
-3.1757390582172431

>  <r_i_glide_gscore_strain>  (1) 
0

>  <r_i_glide_hbond>  (1) 
-0.095870367627806194

>  <r_i_glide_ligand_efficiency>  (1) 
-0.15853924652592813

>  <r_i_glide_ligand_efficiency_ln>  (1) 
-0.79354288862259492

>  <r_i_glide_ligand_efficiency_sa>  (1) 
-0.43034172369166218

>  <r_i_glide_lipo>  (1) 
-2.9952802214410728

>  <r_i_glide_metal>  (1) 
-0

>  <r_i_glide_rewards>  (1) 
-1.8742293020550289

>  <r_lp_Energy>  (1) 
-7.5592219999999992

>  <s_epik_cmdline>  (1) 
J2VwaWtfcHl0aG9uJywgJy1waHQnLCAnMS4wJywgJy1waCcsICc3LjQnLCAnLXRuJywgJzgnLCAnLW1hJywgJzUwMCcsICctaW1hZScsICc8aW5maWxlLm1hZT4nLCAnLW9tYWUnLCAnPG91dGZpbGUubWFlPic=

>  <s_epik_input>  (1) 
W09IXUMoPU8pW0NAQEhdKFtOSDJdKVtDSDJdW0NAQEhdKFtPSF0pW0NIMl0vW0NIXT1bQ0hdL1tDSDJdW0NAQEhdKFtDSDNdKVtDSDJdXFtDSF09W0NIXVxbQ0gyXVtDSDJdW0NIM10=

>  <s_glide_docking_method>  (1) 
confgen

>  <s_i_glide_gridfile>  (1) 
gpcr_5ht2c_6bqh_protein_autoprepared_prepared

>  <s_lp_Force_Field>  (1) 
S-OPLS

>  <s_lp_Variant>  (1) 
DiffSBDD_14-2

>  <s_m_source_file>  (1) 
generated_GPCR_5HT2C_ligand_DiffSBDD_2026-06-23_prepared.sdf

>  <GenAI_Model>  (1) 
DiffSBDD

>  <Protein>  (1) 
GPCR_5HT2C

$$$$
DiffSBDD_76
     RDKit          3D

  0  0  0  0  0  0  0  0  0  0999 V3000
M  V30 BEGIN CTAB
M  V30 COUNTS 22 21 0 0 1
M  V30 BEGIN ATOM
M  V30 1 C 37.004645 30.147391 54.996955 0
M  V30 2 C 37.433469 29.036921 54.044109 0
M  V30 3 C 40.672991 30.084927 49.698394 0
M  V30 4 S 38.141495 31.560572 55.127200 0
M  V30 5 C 40.502770 29.432304 51.070600 0
M  V30 6 C 39.349124 28.413644 51.106132 0
M  V30 7 C 39.052081 27.854824 52.507264 0
M  V30 8 C 38.644361 28.954421 53.467463 0
M  V30 9 H 36.845162 29.737695 55.993828 0
M  V30 10 H 36.045139 30.537746 54.658874 0
M  V30 11 H 36.695904 28.278032 53.830627 0
M  V30 12 H 41.517665 30.775110 49.695916 0
M  V30 13 H 40.845137 29.337755 48.925056 0
M  V30 14 H 39.781098 30.648981 49.422616 0
M  V30 15 H 37.317632 32.291091 55.891452 0
M  V30 16 H 40.339221 30.234782 51.788530 0
M  V30 17 H 41.427250 28.937754 51.367754 0
M  V30 18 H 39.574775 27.586361 50.432097 0
M  V30 19 H 38.445153 28.879296 50.716726 0
M  V30 20 H 39.922668 27.333441 52.903846 0
M  V30 21 H 38.253626 27.114292 52.437678 0
M  V30 22 H 39.389955 29.703640 53.679917 0
M  V30 END ATOM
M  V30 BEGIN BOND
M  V30 1 1 2 1
M  V30 2 1 4 1
M  V30 3 1 5 3
M  V30 4 1 6 5
M  V30 5 1 7 6
M  V30 6 2 8 2
M  V30 7 1 8 7
M  V30 8 1 9 1
M  V30 9 1 10 1
M  V30 10 1 11 2
M  V30 11 1 12 3
M  V30 12 1 13 3
M  V30 13 1 14 3
M  V30 14 1 15 4
M  V30 15 1 16 5
M  V30 16 1 17 5
M  V30 17 1 18 6
M  V30 18 1 19 6
M  V30 19 1 20 7
M  V30 20 1 21 7
M  V30 21 1 22 8
M  V30 END BOND
M  V30 END CTAB
M  END
>  <i_epik_Tot_Q>  (1) 
0

>  <i_epik_Tot_abs_Q>  (1) 
0

>  <i_i_glide_confnum>  (1) 
8

>  <i_i_glide_lignum>  (1) 
176

>  <i_i_glide_posenum>  (1) 
232

>  <i_i_glide_rotatable_bonds>  (1) 
5

>  <i_lp_mmshare_version>  (1) 
72125

>  <i_m_source_file_index>  (1) 
77

>  <i_f3d_flags>  (1) 
0

>  <num_sample>  (1) 
100

>  <b_lp_Chiralities_Consistent>  (1) 
1

>  <r_epik_Charging_Adjusted_Penalty>  (1) 
0.0051523938583426443

>  <r_epik_Ionization_Penalty>  (1) 
0.0051523938583426451

>  <r_epik_Ionization_Penalty_Charging>  (1) 
0

>  <r_epik_Ionization_Penalty_Neutral>  (1) 
0.0051523938583426451

>  <r_epik_State_Penalty>  (1) 
0.0051523938583426443

>  <r_glide_ring_energy>  (1) 
0

>  <r_i_docking_score>  (1) 
-3.165365985126475

>  <r_i_glide_ecoul>  (1) 
-0.7686253792278932

>  <r_i_glide_eff_state_penalty>  (1) 
0.0051523938583426443

>  <r_i_glide_einternal>  (1) 
1.8001436095623446

>  <r_i_glide_emodel>  (1) 
-23.659940104111921

>  <r_i_glide_emodel_strain>  (1) 
0

>  <r_i_glide_energy>  (1) 
-20.254713797411348

>  <r_i_glide_erotb>  (1) 
2.4507048939468694

>  <r_i_glide_esite>  (1) 
-0.043106353634506753

>  <r_i_glide_evdw>  (1) 
-19.486088418183456

>  <r_i_glide_gscore>  (1) 
-3.1705183789848177

>  <r_i_glide_gscore_strain>  (1) 
0

>  <r_i_glide_hbond>  (1) 
-0.063897971709537801

>  <r_i_glide_ligand_efficiency>  (1) 
-0.39567074814080938

>  <r_i_glide_ligand_efficiency_ln>  (1) 
-1.0279026058081191

>  <r_i_glide_ligand_efficiency_sa>  (1) 
-0.79134149628161887

>  <r_i_glide_lipo>  (1) 
-1.8276741554886029

>  <r_i_glide_metal>  (1) 
-0

>  <r_i_glide_rewards>  (1) 
-2.5969465643056826

>  <r_lp_Energy>  (1) 
-1.908774

>  <s_epik_cmdline>  (1) 
J2VwaWtfcHl0aG9uJywgJy1waHQnLCAnMS4wJywgJy1waCcsICc3LjQnLCAnLXRuJywgJzgnLCAnLW1hJywgJzUwMCcsICctaW1hZScsICc8aW5maWxlLm1hZT4nLCAnLW9tYWUnLCAnPG91dGZpbGUubWFlPic=

>  <s_epik_input>  (1) 
W1NIXVtDSDJdL1tDSF09W0NIXS9bQ0gyXVtDSDJdW0NIMl1bQ0gzXQ==

>  <s_glide_docking_method>  (1) 
confgen

>  <s_i_glide_gridfile>  (1) 
gpcr_5ht2c_6bqh_protein_autoprepared_prepared

>  <s_lp_Force_Field>  (1) 
S-OPLS

>  <s_lp_Variant>  (1) 
DiffSBDD_76-1

>  <s_m_source_file>  (1) 
generated_GPCR_5HT2C_ligand_DiffSBDD_2026-06-23_prepared.sdf

>  <GenAI_Model>  (1) 
DiffSBDD

>  <Protein>  (1) 
GPCR_5HT2C

$$$$
DiffSBDD_78
     RDKit          3D

  0  0  0  0  0  0  0  0  0  0999 V3000
M  V30 BEGIN CTAB
M  V30 COUNTS 105 110 0 0 1
M  V30 BEGIN ATOM
M  V30 1 O 40.042781 36.315900 64.497874 0
M  V30 2 C 38.639068 28.257065 52.326253 0
M  V30 3 C 38.146853 28.754955 58.752785 0 CFG=1
M  V30 4 C 42.432052 32.237659 62.076312 0
M  V30 5 O 42.941562 33.038421 66.544304 0
M  V30 6 C 39.601753 28.958778 54.854409 0 CFG=2
M  V30 7 C 40.393591 36.283079 63.121526 0
M  V30 8 O 41.237616 34.212950 62.230930 0
M  V30 9 C 39.494137 28.929048 53.334181 0 CFG=2
M  V30 10 O 36.248356 32.730977 60.013027 0
M  V30 11 C 44.027169 28.748896 64.610122 0
M  V30 12 N 39.030216 28.890544 57.637482 0
M  V30 13 N 39.245092 27.773700 54.264910 0 CFG=1 CHG=1
M  V30 14 C 44.771892 27.309443 66.357267 0
M  V30 15 C 39.286167 27.136443 51.559471 0
M  V30 16 C 38.638700 28.789210 60.167314 0 CFG=1
M  V30 17 N 38.303705 29.778181 56.836027 0
M  V30 18 C 39.139448 37.336720 64.865001 0
M  V30 19 C 38.451970 29.670311 55.412874 0 CFG=1
M  V30 20 C 43.419298 26.988431 65.785836 0
M  V30 21 C 37.285615 31.762822 54.818325 0
M  V30 22 C 41.573803 33.079607 63.008665 0 CFG=2
M  V30 23 C 38.397101 31.940830 57.943686 0
M  V30 24 C 41.694847 27.737375 64.070832 0
M  V30 25 C 42.490369 32.463598 65.339021 0
M  V30 26 C 40.050083 34.856400 62.644154 0 CFG=2
M  V30 27 C 38.512563 31.335585 59.355212 0
M  V30 28 C 38.575840 37.032153 66.256141 0
M  V30 29 O 37.459099 28.537268 52.168665 0
M  V30 30 C 38.556116 31.187326 55.371671 0
M  V30 31 C 43.023936 27.775791 64.845919 0
M  V30 32 C 39.646053 31.832922 54.570970 0
M  V30 33 C 38.132786 35.782866 61.084158 0
M  V30 34 C 40.086508 26.578007 54.061103 0
M  V30 35 C 41.521734 28.603340 62.799737 0
M  V30 36 C 40.309716 28.192242 61.945676 0
M  V30 37 O 45.077566 28.500735 65.505317 0
M  V30 38 N 37.473220 34.132795 58.591495 0
M  V30 39 S 36.444936 35.254224 60.725359 0
M  V30 40 C 37.958519 33.201251 57.666800 0
M  V30 41 C 42.252791 33.572185 64.307432 0
M  V30 42 C 36.714540 33.825037 59.707755 0
M  V30 43 C 39.692779 26.137816 52.670389 0
M  V30 44 C 40.037513 29.065055 60.722428 0
M  V30 45 O 43.998209 29.650304 63.781761 0
M  V30 46 C 38.937828 31.058252 56.855942 0 CFG=2
M  V30 47 C 37.836372 29.973096 59.605684 0 CFG=1
M  V30 48 C 39.007641 34.607834 61.546331 0
M  V30 49 H 37.267986 28.141496 58.567725 0
M  V30 50 H 42.810078 31.349704 62.566731 0
M  V30 51 H 43.258789 32.829546 61.711014 0
M  V30 52 H 41.850655 31.917314 61.207386 0
M  V30 53 H 42.969994 32.363279 67.205231 0
M  V30 54 H 40.565359 28.933519 55.368389 0
M  V30 55 H 41.470447 36.449005 63.063760 0
M  V30 56 H 39.946245 37.079619 62.530464 0
M  V30 57 H 40.442770 29.331593 52.956044 0
M  V30 58 H 39.143324 27.987036 57.182677 0
M  V30 59 H 45.512034 26.536676 66.180271 0
M  V30 60 H 40.134957 27.528240 51.004122 0
M  V30 61 H 38.602446 26.677049 50.844945 0
M  V30 62 H 38.183866 27.893804 60.568501 0
M  V30 63 H 39.653111 38.291791 64.887358 0
M  V30 64 H 38.319340 37.414887 64.151435 0
M  V30 65 H 37.494738 29.316594 55.018980 0
M  V30 66 H 42.841483 26.158127 66.160379 0
M  V30 67 H 37.245480 32.846418 54.876310 0
M  V30 68 H 36.445105 31.296133 55.306129 0
M  V30 69 H 37.210545 31.498062 53.769374 0
M  V30 70 H 40.685369 32.490303 63.243030 0
M  V30 71 H 40.913210 28.024466 64.775216 0
M  V30 72 H 41.495436 26.694958 63.825536 0
M  V30 73 H 43.220363 31.735411 64.985956 0
M  V30 74 H 41.563356 31.925916 65.534017 0
M  V30 75 H 39.649145 34.339453 63.509690 0
M  V30 76 H 39.570132 31.139017 59.379656 0
M  V30 77 H 38.438813 31.986150 60.218736 0
M  V30 78 H 38.403448 37.947062 66.819175 0
M  V30 79 H 39.232870 36.395642 66.853773 0
M  V30 80 H 37.610690 36.537992 66.166576 0
M  V30 81 H 44.724482 27.554065 67.418002 0
M  V30 82 H 39.644749 32.883279 54.857804 0
M  V30 83 H 39.488702 31.740636 53.495490 0
M  V30 84 H 40.633041 31.434057 54.810410 0
M  V30 85 H 38.568138 36.273782 60.215470 0
M  V30 86 H 38.014580 36.530319 61.866261 0
M  V30 87 H 41.166539 26.537848 54.168427 0
M  V30 88 H 39.763919 25.829106 54.784022 0
M  V30 89 H 41.410928 29.646205 63.096828 0
M  V30 90 H 42.402191 28.531855 62.171180 0
M  V30 91 H 40.445288 27.195948 61.562548 0
M  V30 92 H 39.416666 28.189612 62.567612 0
M  V30 93 H 37.624587 35.110759 58.402279 0
M  V30 94 H 37.999220 33.608236 56.672607 0
M  V30 95 H 43.159706 34.139214 64.099544 0
M  V30 96 H 41.613060 34.313684 64.783752 0
M  V30 97 H 38.705814 25.741155 52.968273 0
M  V30 98 H 40.445175 25.404749 52.329027 0
M  V30 99 H 40.790183 28.922635 59.945488 0
M  V30 100 H 40.100708 30.089116 61.083105 0
M  V30 101 H 40.016966 30.947462 56.970581 0
M  V30 102 H 36.805873 30.057484 59.948925 0
M  V30 103 H 39.496352 34.173473 60.674122 0
M  V30 104 H 38.372813 33.805187 61.923962 0
M  V30 105 H 38.249456 27.581698 54.304787 0
M  V30 END ATOM
M  V30 BEGIN BOND
M  V30 1 1 7 1
M  V30 2 1 9 2
M  V30 3 1 9 6
M  V30 4 1 12 3
M  V30 5 1 13 6
M  V30 6 1 13 9
M  V30 7 1 15 2
M  V30 8 1 16 3
M  V30 9 1 17 12
M  V30 10 1 18 1
M  V30 11 1 19 6
M  V30 12 1 19 17
M  V30 13 1 20 14
M  V30 14 1 22 4
M  V30 15 1 22 8
M  V30 16 1 25 5
M  V30 17 1 26 7
M  V30 18 1 26 8
M  V30 19 1 27 23
M  V30 20 1 28 18
M  V30 21 2 29 2
M  V30 22 1 30 19
M  V30 23 1 30 21
M  V30 24 1 31 11
M  V30 25 2 31 20
M  V30 26 1 31 24
M  V30 27 1 32 30
M  V30 28 1 34 13
M  V30 29 1 35 24
M  V30 30 1 36 35
M  V30 31 1 37 11
M  V30 32 1 37 14
M  V30 33 1 39 33
M  V30 34 2 40 23
M  V30 35 1 40 38
M  V30 36 1 41 22
M  V30 37 1 41 25
M  V30 38 2 42 10
M  V30 39 1 42 38
M  V30 40 1 42 39
M  V30 41 1 43 15
M  V30 42 1 43 34
M  V30 43 1 44 16
M  V30 44 1 44 36
M  V30 45 2 45 11
M  V30 46 1 46 17
M  V30 47 1 46 23
M  V30 48 1 46 30
M  V30 49 1 47 3
M  V30 50 1 47 16
M  V30 51 1 47 27
M  V30 52 1 48 26
M  V30 53 1 48 33
M  V30 54 1 3 49 CFG=3
M  V30 55 1 50 4
M  V30 56 1 51 4
M  V30 57 1 52 4
M  V30 58 1 53 5
M  V30 59 1 6 54 CFG=3
M  V30 60 1 55 7
M  V30 61 1 56 7
M  V30 62 1 9 57 CFG=3
M  V30 63 1 58 12
M  V30 64 1 59 14
M  V30 65 1 60 15
M  V30 66 1 61 15
M  V30 67 1 16 62 CFG=1
M  V30 68 1 63 18
M  V30 69 1 64 18
M  V30 70 1 19 65 CFG=3
M  V30 71 1 66 20
M  V30 72 1 67 21
M  V30 73 1 68 21
M  V30 74 1 69 21
M  V30 75 1 22 70 CFG=1
M  V30 76 1 71 24
M  V30 77 1 72 24
M  V30 78 1 73 25
M  V30 79 1 74 25
M  V30 80 1 26 75 CFG=1
M  V30 81 1 76 27
M  V30 82 1 77 27
M  V30 83 1 78 28
M  V30 84 1 79 28
M  V30 85 1 80 28
M  V30 86 1 81 14
M  V30 87 1 82 32
M  V30 88 1 83 32
M  V30 89 1 84 32
M  V30 90 1 85 33
M  V30 91 1 86 33
M  V30 92 1 87 34
M  V30 93 1 88 34
M  V30 94 1 89 35
M  V30 95 1 90 35
M  V30 96 1 91 36
M  V30 97 1 92 36
M  V30 98 1 93 38
M  V30 99 1 94 40
M  V30 100 1 95 41
M  V30 101 1 96 41
M  V30 102 1 97 43
M  V30 103 1 98 43
M  V30 104 1 99 44
M  V30 105 1 100 44
M  V30 106 1 46 101 CFG=3
M  V30 107 1 47 102 CFG=1
M  V30 108 1 103 48
M  V30 109 1 104 48
M  V30 110 1 13 105 CFG=1
M  V30 END BOND
M  V30 END CTAB
M  END
>  <i_epik_Tot_Q>  (1) 
1

>  <i_epik_Tot_abs_Q>  (1) 
1

>  <i_i_glide_confnum>  (1) 
2458

>  <i_i_glide_lignum>  (1) 
180

>  <i_i_glide_posenum>  (1) 
119

>  <i_i_glide_rotatable_bonds>  (1) 
20

>  <i_lp_mmshare_version>  (1) 
72125

>  <i_m_source_file_index>  (1) 
79

>  <i_f3d_flags>  (1) 
0

>  <num_sample>  (1) 
100

>  <b_lp_Chiralities_Consistent>  (1) 
1

>  <r_epik_Charging_Adjusted_Penalty>  (1) 
0.27991857207723647

>  <r_epik_Ionization_Penalty>  (1) 
0.14008487576319317

>  <r_epik_Ionization_Penalty_Charging>  (1) 
0.13995928603861824

>  <r_epik_Ionization_Penalty_Neutral>  (1) 
0.0001255897245749389

>  <r_epik_State_Penalty>  (1) 
0.13995928603861821

>  <r_glide_ring_energy>  (1) 
0

>  <r_i_docking_score>  (1) 
-3.1482443603933503

>  <r_i_glide_ecoul>  (1) 
-0.042090740149175437

>  <r_i_glide_eff_state_penalty>  (1) 
0.13995928603861821

>  <r_i_glide_einternal>  (1) 
82.798660372838256

>  <r_i_glide_emodel>  (1) 
32.723209548520259

>  <r_i_glide_emodel_strain>  (1) 
12.345637442007359

>  <r_i_glide_energy>  (1) 
-20.323777200992495

>  <r_i_glide_erotb>  (1) 
0.59343049219720367

>  <r_i_glide_esite>  (1) 
-0.1051593390984186

>  <r_i_glide_evdw>  (1) 
-20.281686460843321

>  <r_i_glide_gscore>  (1) 
-3.2882036464319686

>  <r_i_glide_gscore_strain>  (1) 
2.0864093605018397

>  <r_i_glide_hbond>  (1) 
0

>  <r_i_glide_ligand_efficiency>  (1) 
-0.065588424174861465

>  <r_i_glide_ligand_efficiency_ln>  (1) 
-0.64629736143994254

>  <r_i_glide_ligand_efficiency_sa>  (1) 
-0.23836415243910025

>  <r_i_glide_lipo>  (1) 
-3.6228254296883282

>  <r_i_glide_metal>  (1) 
-0

>  <r_i_glide_rewards>  (1) 
-1.2196607962797232

>  <r_lp_Energy>  (1) 
62.663834999999999

>  <r_lp_tautomer_probability>  (1) 
0.99979120136373534

>  <s_epik_Chemistry_Notes>  (1) 
This compound has an ester and may undergo hydrolysis at high or low pH.

>  <s_epik_cmdline>  (1) 
J2VwaWtfcHl0aG9uJywgJy1waHQnLCAnMS4wJywgJy1waCcsICc3LjQnLCAnLXRuJywgJzgnLCAnLW1hJywgJzUwMCcsICctaW1hZScsICc8aW5maWxlLm1hZT4nLCAnLW9tYWUnLCAnPG91dGZpbGUubWFlPic=

>  <s_epik_input>  (1) 
W09IXVtDSDJdW0NIMl1bQ0BIXShbQ0gzXSlPW0NAQEhdKFtDSDJdT1tDSDJdW0NIM10pW0NIMl1bQ0gyXVNDKD1PKVtOSF0vW0NIXT1DKFtDQEhdMU4oW05IXTIpW0NAQEhdKEMxKFtDSDNdKVtDSDNdKVtDQEhdM04oW0NASF0zNClbQ0gyXVtDSDJdW0NIMl1DND1PKVxbQ0gyXVtDQEBIXShbQ0BASF0yNSlbQ0BASF01W0NIMl1bQ0gyXVtDSDJdW0NIMl1bQ0BASF0oQzY9TylbQ0hdPVtDSF1PNg==

>  <s_glide_docking_method>  (1) 
confgen

>  <s_i_glide_gridfile>  (1) 
gpcr_5ht2c_6bqh_protein_autoprepared_prepared

>  <s_lp_Force_Field>  (1) 
S-OPLS

>  <s_lp_Variant>  (1) 
DiffSBDD_78-2

>  <s_m_source_file>  (1) 
generated_GPCR_5HT2C_ligand_DiffSBDD_2026-06-23_prepared.sdf

>  <GenAI_Model>  (1) 
DiffSBDD

>  <Protein>  (1) 
GPCR_5HT2C

$$$$
DiffSBDD_14
     RDKit          3D

  0  0  0  0  0  0  0  0  0  0999 V3000
M  V30 BEGIN CTAB
M  V30 COUNTS 49 48 0 0 1
M  V30 BEGIN ATOM
M  V30 1 C 38.046109 28.132013 58.088338 0
M  V30 2 C 38.441738 28.116778 51.553119 0
M  V30 3 C 38.382364 28.836974 59.396628 0
M  V30 4 C 39.132872 26.693764 53.538369 0
M  V30 5 O 38.519982 32.657809 61.341827 0 CHG=-1
M  V30 6 N 36.528589 32.937961 58.967759 0 CHG=1
M  V30 7 C 38.422123 28.559417 56.872648 0
M  V30 8 C 37.209294 31.788227 59.563668 0 CFG=2
M  V30 9 C 39.849192 28.423846 51.069578 0
M  V30 10 C 40.222888 26.460689 55.776438 0
M  V30 11 C 39.387914 27.395427 54.879663 0 CFG=2
M  V30 12 C 37.407157 32.190858 61.015248 0
M  V30 13 C 39.983651 29.924275 50.762101 0
M  V30 14 O 36.432943 32.035961 61.767766 0
M  V30 15 C 38.502086 31.390430 58.801908 0
M  V30 16 O 39.859622 30.339289 60.561369 0
M  V30 17 C 41.244861 30.293137 49.983639 0
M  V30 18 C 38.131139 27.371709 52.629570 0
M  V30 19 C 38.094772 27.835040 55.590342 0
M  V30 20 C 39.244037 30.114508 59.305217 0 CFG=1
M  V30 21 H 37.469714 27.222938 58.168778 0
M  V30 22 H 37.645182 28.538251 50.974103 0
M  V30 23 H 38.913963 28.098720 59.998051 0
M  V30 24 H 37.457416 29.038103 59.928026 0
M  V30 25 H 40.065170 26.468841 53.023379 0
M  V30 26 H 38.677542 25.737670 53.768275 0
M  V30 27 H 35.773786 33.209507 59.581410 0
M  V30 28 H 37.175406 33.703717 58.855850 0
M  V30 29 H 38.997642 29.464307 56.771962 0
M  V30 30 H 36.494437 30.965696 59.515979 0
M  V30 31 H 40.626066 28.137499 51.768984 0
M  V30 32 H 40.015491 27.838108 50.167776 0
M  V30 33 H 39.617106 25.640181 56.162237 0
M  V30 34 H 41.045192 26.009853 55.225963 0
M  V30 35 H 40.650670 26.986857 56.630127 0
M  V30 36 H 39.968734 28.295622 54.686165 0
M  V30 37 H 39.133780 30.252427 50.167816 0
M  V30 38 H 39.942259 30.497051 51.689394 0
M  V30 39 H 39.197954 32.230951 58.780836 0
M  V30 40 H 38.221349 31.244620 57.759804 0
M  V30 41 H 39.407152 31.061781 60.996163 0
M  V30 42 H 41.221151 31.341478 49.713818 0
M  V30 43 H 42.149998 30.137774 50.567450 0
M  V30 44 H 41.314644 29.738066 49.049195 0
M  V30 45 H 37.091306 27.228905 52.883939 0
M  V30 46 H 37.463890 26.967029 55.791685 0
M  V30 47 H 37.516925 28.518626 54.967621 0
M  V30 48 H 40.069366 29.899703 58.630995 0
M  V30 49 H 36.144984 32.651818 58.065185 0
M  V30 END ATOM
M  V30 BEGIN BOND
M  V30 1 1 3 1
M  V30 2 2 7 1
M  V30 3 1 8 6
M  V30 4 1 9 2
M  V30 5 1 11 4
M  V30 6 1 11 10
M  V30 7 1 12 5
M  V30 8 1 12 8
M  V30 9 1 13 9
M  V30 10 2 14 12
M  V30 11 1 15 8
M  V30 12 1 17 13
M  V30 13 2 18 2
M  V30 14 1 18 4
M  V30 15 1 19 7
M  V30 16 1 19 11
M  V30 17 1 20 3
M  V30 18 1 20 15
M  V30 19 1 20 16
M  V30 20 1 21 1
M  V30 21 1 22 2
M  V30 22 1 23 3
M  V30 23 1 24 3
M  V30 24 1 25 4
M  V30 25 1 26 4
M  V30 26 1 27 6
M  V30 27 1 28 6
M  V30 28 1 29 7
M  V30 29 1 8 30 CFG=1
M  V30 30 1 31 9
M  V30 31 1 32 9
M  V30 32 1 33 10
M  V30 33 1 34 10
M  V30 34 1 35 10
M  V30 35 1 11 36 CFG=3
M  V30 36 1 37 13
M  V30 37 1 38 13
M  V30 38 1 39 15
M  V30 39 1 40 15
M  V30 40 1 41 16
M  V30 41 1 42 17
M  V30 42 1 43 17
M  V30 43 1 44 17
M  V30 44 1 45 18
M  V30 45 1 46 19
M  V30 46 1 47 19
M  V30 47 1 20 48 CFG=3
M  V30 48 1 49 6
M  V30 END BOND
M  V30 END CTAB
M  END
>  <i_epik_Tot_Q>  (1) 
0

>  <i_epik_Tot_abs_Q>  (1) 
2

>  <i_i_glide_confnum>  (1) 
63

>  <i_i_glide_lignum>  (1) 
26

>  <i_i_glide_posenum>  (1) 
108

>  <i_i_glide_rotatable_bonds>  (1) 
12

>  <i_lp_mmshare_version>  (1) 
72125

>  <i_m_source_file_index>  (1) 
15

>  <i_f3d_flags>  (1) 
0

>  <num_sample>  (1) 
100

>  <b_lp_Chiralities_Consistent>  (1) 
1

>  <r_epik_Charging_Adjusted_Penalty>  (1) 
0.00991281995240933

>  <r_epik_Ionization_Penalty>  (1) 
0.0049587358016132182

>  <r_epik_Ionization_Penalty_Charging>  (1) 
0.0049586922537287062

>  <r_epik_Ionization_Penalty_Neutral>  (1) 
4.3547884512074136e-08

>  <r_epik_State_Penalty>  (1) 
0.0049541276986806238

>  <r_glide_ring_energy>  (1) 
0

>  <r_i_docking_score>  (1) 
-3.1461784691169696

>  <r_i_glide_ecoul>  (1) 
-7.4644174332809667

>  <r_i_glide_eff_state_penalty>  (1) 
0.0049541276986806238

>  <r_i_glide_einternal>  (1) 
4.7398381406770014

>  <r_i_glide_emodel>  (1) 
-34.604742570045097

>  <r_i_glide_emodel_strain>  (1) 
1.9044431563808697

>  <r_i_glide_energy>  (1) 
-30.53866990892303

>  <r_i_glide_erotb>  (1) 
4.0583376510001772

>  <r_i_glide_esite>  (1) 
-0.10000000000000001

>  <r_i_glide_evdw>  (1) 
-23.074252475642062

>  <r_i_glide_gscore>  (1) 
-3.1511325968156503

>  <r_i_glide_gscore_strain>  (1) 
0

>  <r_i_glide_hbond>  (1) 
-0.35999999999999999

>  <r_i_glide_ligand_efficiency>  (1) 
-0.15730892345584849

>  <r_i_glide_ligand_efficiency_ln>  (1) 
-0.7873847029091896

>  <r_i_glide_ligand_efficiency_sa>  (1) 
-0.42700211307613484

>  <r_i_glide_lipo>  (1) 
-2.4339719373823745

>  <r_i_glide_metal>  (1) 
-0

>  <r_i_glide_rewards>  (1) 
-2.042123071659204

>  <r_lp_Energy>  (1) 
-3.8776999999999999

>  <s_epik_cmdline>  (1) 
J2VwaWtfcHl0aG9uJywgJy1waHQnLCAnMS4wJywgJy1waCcsICc3LjQnLCAnLXRuJywgJzgnLCAnLW1hJywgJzUwMCcsICctaW1hZScsICc8aW5maWxlLm1hZT4nLCAnLW9tYWUnLCAnPG91dGZpbGUubWFlPic=

>  <s_epik_input>  (1) 
W09IXUMoPU8pW0NAQEhdKFtOSDJdKVtDSDJdW0NAQEhdKFtPSF0pW0NIMl0vW0NIXT1bQ0hdL1tDSDJdW0NAQEhdKFtDSDNdKVtDSDJdL1tDSF09W0NIXVxbQ0gyXVtDSDJdW0NIM10=

>  <s_glide_docking_method>  (1) 
confgen

>  <s_i_glide_gridfile>  (1) 
gpcr_5ht2c_6bqh_protein_autoprepared_prepared

>  <s_lp_Force_Field>  (1) 
S-OPLS

>  <s_lp_Variant>  (1) 
DiffSBDD_14-4

>  <s_m_source_file>  (1) 
generated_GPCR_5HT2C_ligand_DiffSBDD_2026-06-23_prepared.sdf

>  <GenAI_Model>  (1) 
DiffSBDD

>  <Protein>  (1) 
GPCR_5HT2C

$$$$
DiffSBDD_61
     RDKit          3D

  0  0  0  0  0  0  0  0  0  0999 V3000
M  V30 BEGIN CTAB
M  V30 COUNTS 21 20 0 0 1
M  V30 BEGIN ATOM
M  V30 1 C 39.791299 30.494932 49.866787 0
M  V30 2 O 38.045142 32.035614 56.731793 0
M  V30 3 C 37.558517 29.927302 55.668069 0
M  V30 4 C 37.885644 28.246512 52.372190 0
M  V30 5 O 37.245141 29.306391 54.428063 0
M  V30 6 C 38.071445 31.367027 55.489098 0
M  V30 7 C 38.371800 28.867797 53.690299 0
M  V30 8 S 40.445136 29.436057 51.168802 0
M  V30 9 S 39.245155 27.784498 51.269209 0
M  V30 10 H 40.492596 31.302864 49.657616 0
M  V30 11 H 39.645205 29.908066 48.963027 0
M  V30 12 H 38.845236 30.937590 50.167723 0
M  V30 13 H 37.118734 32.128369 56.967651 0
M  V30 14 H 38.261505 29.324210 56.244691 0
M  V30 15 H 36.633061 29.950395 56.242116 0
M  V30 16 H 37.284411 27.359652 52.571304 0
M  V30 17 H 37.245137 28.937752 51.834657 0
M  V30 18 H 37.432793 31.912887 54.793354 0
M  V30 19 H 39.085774 31.383854 55.090843 0
M  V30 20 H 39.021462 29.719093 53.497124 0
M  V30 21 H 38.943867 28.137909 54.264772 0
M  V30 END ATOM
M  V30 BEGIN BOND
M  V30 1 1 5 3
M  V30 2 1 6 2
M  V30 3 1 6 3
M  V30 4 1 7 4
M  V30 5 1 7 5
M  V30 6 1 8 1
M  V30 7 1 9 4
M  V30 8 1 9 8
M  V30 9 1 10 1
M  V30 10 1 11 1
M  V30 11 1 12 1
M  V30 12 1 13 2
M  V30 13 1 14 3
M  V30 14 1 15 3
M  V30 15 1 16 4
M  V30 16 1 17 4
M  V30 17 1 18 6
M  V30 18 1 19 6
M  V30 19 1 20 7
M  V30 20 1 21 7
M  V30 END BOND
M  V30 END CTAB
M  END
>  <i_epik_Tot_Q>  (1) 
0

>  <i_epik_Tot_abs_Q>  (1) 
0

>  <i_i_glide_confnum>  (1) 
35

>  <i_i_glide_lignum>  (1) 
134

>  <i_i_glide_posenum>  (1) 
324

>  <i_i_glide_rotatable_bonds>  (1) 
7

>  <i_lp_mmshare_version>  (1) 
72125

>  <i_m_source_file_index>  (1) 
62

>  <i_f3d_flags>  (1) 
0

>  <num_sample>  (1) 
100

>  <b_lp_Chiralities_Consistent>  (1) 
1

>  <r_epik_Charging_Adjusted_Penalty>  (1) 
0

>  <r_epik_Ionization_Penalty>  (1) 
5.1568199446606131e-08

>  <r_epik_Ionization_Penalty_Charging>  (1) 
0

>  <r_epik_Ionization_Penalty_Neutral>  (1) 
5.1568199446606131e-08

>  <r_epik_State_Penalty>  (1) 
-0

>  <r_glide_ring_energy>  (1) 
0

>  <r_i_docking_score>  (1) 
-3.1439414778533576

>  <r_i_glide_ecoul>  (1) 
-4.7816830169793869

>  <r_i_glide_eff_state_penalty>  (1) 
-0

>  <r_i_glide_einternal>  (1) 
2.4350572213043362

>  <r_i_glide_emodel>  (1) 
-30.769098328205658

>  <r_i_glide_emodel_strain>  (1) 
0.033501006034626357

>  <r_i_glide_energy>  (1) 
-26.411313161481381

>  <r_i_glide_erotb>  (1) 
2.7134566579850197

>  <r_i_glide_esite>  (1) 
0

>  <r_i_glide_evdw>  (1) 
-21.629630144501995

>  <r_i_glide_gscore>  (1) 
-3.1439414778533576

>  <r_i_glide_gscore_strain>  (1) 
0

>  <r_i_glide_hbond>  (1) 
-0.16

>  <r_i_glide_ligand_efficiency>  (1) 
-0.34932683087259531

>  <r_i_glide_ligand_efficiency_ln>  (1) 
-0.9833345771640305

>  <r_i_glide_ligand_efficiency_sa>  (1) 
-0.72662908985607411

>  <r_i_glide_lipo>  (1) 
-1.4318336185012144

>  <r_i_glide_metal>  (1) 
-0

>  <r_i_glide_rewards>  (1) 
-2.4668305575651552

>  <r_lp_Energy>  (1) 
-5.6226759999999993

>  <r_lp_tautomer_probability>  (1) 
1

>  <s_epik_cmdline>  (1) 
J2VwaWtfcHl0aG9uJywgJy1waHQnLCAnMS4wJywgJy1waCcsICc3LjQnLCAnLXRuJywgJzgnLCAnLW1hJywgJzUwMCcsICctaW1hZScsICc8aW5maWxlLm1hZT4nLCAnLW9tYWUnLCAnPG91dGZpbGUubWFlPic=

>  <s_epik_input>  (1) 
W0NIM11TU1tDSDJdW0NIMl1PW0NIMl1bQ0gyXVtPSF0=

>  <s_glide_docking_method>  (1) 
confgen

>  <s_i_glide_gridfile>  (1) 
gpcr_5ht2c_6bqh_protein_autoprepared_prepared

>  <s_lp_Force_Field>  (1) 
S-OPLS

>  <s_lp_Variant>  (1) 
DiffSBDD_61-1

>  <s_m_source_file>  (1) 
generated_GPCR_5HT2C_ligand_DiffSBDD_2026-06-23_prepared.sdf

>  <GenAI_Model>  (1) 
DiffSBDD

>  <Protein>  (1) 
GPCR_5HT2C

$$$$
DiffSBDD_61
     RDKit          3D

  0  0  0  0  0  0  0  0  0  0999 V3000
M  V30 BEGIN CTAB
M  V30 COUNTS 21 20 0 0 1
M  V30 BEGIN ATOM
M  V30 1 C 40.068763 30.562483 50.847072 0
M  V30 2 O 38.045137 33.337753 55.415123 0
M  V30 3 C 38.223648 31.107040 56.363745 0
M  V30 4 C 38.705965 28.893665 54.128721 0
M  V30 5 O 39.380602 30.547921 55.752521 0
M  V30 6 C 38.419147 32.616840 56.567796 0
M  V30 7 C 39.249149 30.312279 54.358260 0
M  V30 8 S 40.045137 28.814654 51.331882 0
M  V30 9 S 38.321610 28.537653 52.389468 0
M  V30 10 H 41.001662 30.792773 50.332139 0
M  V30 11 H 39.246324 30.781610 50.167859 0
M  V30 12 H 39.991007 31.217549 51.713626 0
M  V30 13 H 37.088142 33.334636 55.367764 0
M  V30 14 H 38.140491 30.639370 57.344792 0
M  V30 15 H 37.295364 30.874240 55.837629 0
M  V30 16 H 39.419784 28.155123 54.493512 0
M  V30 17 H 37.788594 28.749642 54.699705 0
M  V30 18 H 39.450234 32.845229 56.838592 0
M  V30 19 H 37.785199 32.961498 57.385418 0
M  V30 20 H 38.625795 31.068652 53.878168 0
M  V30 21 H 40.242575 30.395405 53.918298 0
M  V30 END ATOM
M  V30 BEGIN BOND
M  V30 1 1 5 3
M  V30 2 1 6 2
M  V30 3 1 6 3
M  V30 4 1 7 4
M  V30 5 1 7 5
M  V30 6 1 8 1
M  V30 7 1 9 4
M  V30 8 1 9 8
M  V30 9 1 10 1
M  V30 10 1 11 1
M  V30 11 1 12 1
M  V30 12 1 13 2
M  V30 13 1 14 3
M  V30 14 1 15 3
M  V30 15 1 16 4
M  V30 16 1 17 4
M  V30 17 1 18 6
M  V30 18 1 19 6
M  V30 19 1 20 7
M  V30 20 1 21 7
M  V30 END BOND
M  V30 END CTAB
M  END
>  <i_epik_Tot_Q>  (1) 
0

>  <i_epik_Tot_abs_Q>  (1) 
0

>  <i_i_glide_confnum>  (1) 
167

>  <i_i_glide_lignum>  (1) 
134

>  <i_i_glide_posenum>  (1) 
268

>  <i_i_glide_rotatable_bonds>  (1) 
7

>  <i_lp_mmshare_version>  (1) 
72125

>  <i_m_source_file_index>  (1) 
62

>  <i_f3d_flags>  (1) 
0

>  <num_sample>  (1) 
100

>  <b_lp_Chiralities_Consistent>  (1) 
1

>  <r_epik_Charging_Adjusted_Penalty>  (1) 
0

>  <r_epik_Ionization_Penalty>  (1) 
5.1568199446606131e-08

>  <r_epik_Ionization_Penalty_Charging>  (1) 
0

>  <r_epik_Ionization_Penalty_Neutral>  (1) 
5.1568199446606131e-08

>  <r_epik_State_Penalty>  (1) 
-0

>  <r_glide_ring_energy>  (1) 
0

>  <r_i_docking_score>  (1) 
-3.1189671943896977

>  <r_i_glide_ecoul>  (1) 
-3.7299979261823815

>  <r_i_glide_eff_state_penalty>  (1) 
-0

>  <r_i_glide_einternal>  (1) 
5.2748998266511959

>  <r_i_glide_emodel>  (1) 
-28.755517118296105

>  <r_i_glide_emodel_strain>  (1) 
0.1232112850276792

>  <r_i_glide_energy>  (1) 
-25.951917839125613

>  <r_i_glide_erotb>  (1) 
2.7134566579850197

>  <r_i_glide_esite>  (1) 
0

>  <r_i_glide_evdw>  (1) 
-22.221919912943232

>  <r_i_glide_gscore>  (1) 
-3.1189671943896977

>  <r_i_glide_gscore_strain>  (1) 
0

>  <r_i_glide_hbond>  (1) 
-0.16

>  <r_i_glide_ligand_efficiency>  (1) 
-0.3465519104877442

>  <r_i_glide_ligand_efficiency_ln>  (1) 
-0.97552333874158992

>  <r_i_glide_ligand_efficiency_sa>  (1) 
-0.72085702285328834

>  <r_i_glide_lipo>  (1) 
-1.4518281678001981

>  <r_i_glide_metal>  (1) 
-0

>  <r_i_glide_rewards>  (1) 
-2.5499999999999998

>  <r_lp_Energy>  (1) 
-5.6226759999999993

>  <r_lp_tautomer_probability>  (1) 
1

>  <s_epik_cmdline>  (1) 
J2VwaWtfcHl0aG9uJywgJy1waHQnLCAnMS4wJywgJy1waCcsICc3LjQnLCAnLXRuJywgJzgnLCAnLW1hJywgJzUwMCcsICctaW1hZScsICc8aW5maWxlLm1hZT4nLCAnLW9tYWUnLCAnPG91dGZpbGUubWFlPic=

>  <s_epik_input>  (1) 
W0NIM11TU1tDSDJdW0NIMl1PW0NIMl1bQ0gyXVtPSF0=

>  <s_glide_docking_method>  (1) 
confgen

>  <s_i_glide_gridfile>  (1) 
gpcr_5ht2c_6bqh_protein_autoprepared_prepared

>  <s_lp_Force_Field>  (1) 
S-OPLS

>  <s_lp_Variant>  (1) 
DiffSBDD_61-1

>  <s_m_source_file>  (1) 
generated_GPCR_5HT2C_ligand_DiffSBDD_2026-06-23_prepared.sdf

>  <GenAI_Model>  (1) 
DiffSBDD

>  <Protein>  (1) 
GPCR_5HT2C

$$$$
DiffSBDD_14
     RDKit          3D

  0  0  0  0  0  0  0  0  0  0999 V3000
M  V30 BEGIN CTAB
M  V30 COUNTS 49 48 0 0 1
M  V30 BEGIN ATOM
M  V30 1 C 40.465478 28.055211 58.467510 0
M  V30 2 C 38.483954 27.878162 51.610486 0
M  V30 3 C 40.042162 28.126376 59.919830 0
M  V30 4 C 39.327472 26.842687 53.786415 0
M  V30 5 O 39.244786 32.935897 60.167008 0 CHG=-1
M  V30 6 N 36.683695 31.907103 59.368030 0 CHG=1
M  V30 7 C 39.879633 27.255496 57.560710 0
M  V30 8 C 37.592712 31.231425 60.308215 0 CFG=2
M  V30 9 C 39.846420 28.336770 51.101133 0
M  V30 10 C 39.148254 29.117775 54.974160 0
M  V30 11 C 39.185364 27.585482 55.132510 0 CFG=2
M  V30 12 C 38.463392 32.327330 60.930375 0
M  V30 13 C 39.855284 29.837072 50.780754 0
M  V30 14 O 38.321686 32.537665 62.153992 0
M  V30 15 C 38.412046 30.108270 59.610467 0
M  V30 16 O 39.245120 29.341487 61.763927 0
M  V30 17 C 41.099848 30.281782 50.005866 0
M  V30 18 C 38.258422 27.230746 52.775111 0
M  V30 19 C 40.301335 27.163727 56.109361 0
M  V30 20 C 39.604131 29.518015 60.409927 0 CFG=1
M  V30 21 H 41.289174 28.688967 58.171171 0
M  V30 22 H 37.646689 28.099362 50.971244 0
M  V30 23 H 40.875226 27.763016 60.523658 0
M  V30 24 H 39.225343 27.419284 60.066574 0
M  V30 25 H 40.332479 26.934382 53.395339 0
M  V30 26 H 39.205218 25.773750 53.975446 0
M  V30 27 H 36.104522 32.555867 59.879814 0
M  V30 28 H 37.242119 32.430221 58.708350 0
M  V30 29 H 39.054784 26.625128 57.861320 0
M  V30 30 H 36.979084 30.777165 61.087826 0
M  V30 31 H 40.676086 28.137773 51.767625 0
M  V30 32 H 40.045147 27.771540 50.190099 0
M  V30 33 H 40.043308 29.492003 54.477370 0
M  V30 34 H 38.286533 29.440134 54.389132 0
M  V30 35 H 39.079344 29.610927 55.944194 0
M  V30 36 H 38.228906 27.276513 55.557392 0
M  V30 37 H 38.983781 30.089094 50.181985 0
M  V30 38 H 39.771317 30.410507 51.705168 0
M  V30 39 H 38.785686 30.464798 58.648690 0
M  V30 40 H 37.719330 29.300200 59.371583 0
M  V30 41 H 40.006955 29.102443 62.270142 0
M  V30 42 H 41.033857 31.337990 49.762892 0
M  V30 43 H 42.015043 30.138113 50.577632 0
M  V30 44 H 41.197263 29.741577 49.064352 0
M  V30 45 H 37.245098 26.956239 53.031033 0
M  V30 46 H 41.204097 27.751482 55.942614 0
M  V30 47 H 40.579349 26.123557 55.935435 0
M  V30 48 H 40.447088 30.208808 60.373137 0
M  V30 49 H 36.103274 31.257848 58.853543 0
M  V30 END ATOM
M  V30 BEGIN BOND
M  V30 1 1 3 1
M  V30 2 2 7 1
M  V30 3 1 8 6
M  V30 4 1 9 2
M  V30 5 1 11 4
M  V30 6 1 11 10
M  V30 7 1 12 5
M  V30 8 1 12 8
M  V30 9 1 13 9
M  V30 10 2 14 12
M  V30 11 1 15 8
M  V30 12 1 17 13
M  V30 13 2 18 2
M  V30 14 1 18 4
M  V30 15 1 19 7
M  V30 16 1 19 11
M  V30 17 1 20 3
M  V30 18 1 20 15
M  V30 19 1 20 16
M  V30 20 1 21 1
M  V30 21 1 22 2
M  V30 22 1 23 3
M  V30 23 1 24 3
M  V30 24 1 25 4
M  V30 25 1 26 4
M  V30 26 1 27 6
M  V30 27 1 28 6
M  V30 28 1 29 7
M  V30 29 1 8 30 CFG=1
M  V30 30 1 31 9
M  V30 31 1 32 9
M  V30 32 1 33 10
M  V30 33 1 34 10
M  V30 34 1 35 10
M  V30 35 1 11 36 CFG=1
M  V30 36 1 37 13
M  V30 37 1 38 13
M  V30 38 1 39 15
M  V30 39 1 40 15
M  V30 40 1 41 16
M  V30 41 1 42 17
M  V30 42 1 43 17
M  V30 43 1 44 17
M  V30 44 1 45 18
M  V30 45 1 46 19
M  V30 46 1 47 19
M  V30 47 1 20 48 CFG=1
M  V30 48 1 49 6
M  V30 END BOND
M  V30 END CTAB
M  END
>  <i_epik_Tot_Q>  (1) 
0

>  <i_epik_Tot_abs_Q>  (1) 
2

>  <i_i_glide_confnum>  (1) 
128

>  <i_i_glide_lignum>  (1) 
26

>  <i_i_glide_posenum>  (1) 
235

>  <i_i_glide_rotatable_bonds>  (1) 
12

>  <i_lp_mmshare_version>  (1) 
72125

>  <i_m_source_file_index>  (1) 
15

>  <i_f3d_flags>  (1) 
0

>  <num_sample>  (1) 
100

>  <b_lp_Chiralities_Consistent>  (1) 
1

>  <r_epik_Charging_Adjusted_Penalty>  (1) 
0.00991281995240933

>  <r_epik_Ionization_Penalty>  (1) 
0.0049587358016132182

>  <r_epik_Ionization_Penalty_Charging>  (1) 
0.0049586922537287062

>  <r_epik_Ionization_Penalty_Neutral>  (1) 
4.3547884512074136e-08

>  <r_epik_State_Penalty>  (1) 
0.0049541276986806238

>  <r_glide_ring_energy>  (1) 
0

>  <r_i_docking_score>  (1) 
-3.1180994543933274

>  <r_i_glide_ecoul>  (1) 
-2.985901346378439

>  <r_i_glide_eff_state_penalty>  (1) 
0.0049541276986806238

>  <r_i_glide_einternal>  (1) 
2.7510838506024355

>  <r_i_glide_emodel>  (1) 
-34.905424686979593

>  <r_i_glide_emodel_strain>  (1) 
1.1795328610058302

>  <r_i_glide_energy>  (1) 
-29.194384274262468

>  <r_i_glide_erotb>  (1) 
4.0583376510001772

>  <r_i_glide_esite>  (1) 
-0.10000000000000001

>  <r_i_glide_evdw>  (1) 
-26.208482927884027

>  <r_i_glide_gscore>  (1) 
-3.123053582092008

>  <r_i_glide_gscore_strain>  (1) 
0

>  <r_i_glide_hbond>  (1) 
-0.055082646972951212

>  <r_i_glide_ligand_efficiency>  (1) 
-0.15590497271966636

>  <r_i_glide_ligand_efficiency_ln>  (1) 
-0.78035745163174908

>  <r_i_glide_ligand_efficiency_sa>  (1) 
-0.42319120446501074

>  <r_i_glide_lipo>  (1) 
-3.1914230662423284

>  <r_i_glide_metal>  (1) 
-0

>  <r_i_glide_rewards>  (1) 
-2.0765761715259394

>  <r_lp_Energy>  (1) 
-3.8776999999999999

>  <s_epik_cmdline>  (1) 
J2VwaWtfcHl0aG9uJywgJy1waHQnLCAnMS4wJywgJy1waCcsICc3LjQnLCAnLXRuJywgJzgnLCAnLW1hJywgJzUwMCcsICctaW1hZScsICc8aW5maWxlLm1hZT4nLCAnLW9tYWUnLCAnPG91dGZpbGUubWFlPic=

>  <s_epik_input>  (1) 
W09IXUMoPU8pW0NAQEhdKFtOSDJdKVtDSDJdW0NAQEhdKFtPSF0pW0NIMl0vW0NIXT1bQ0hdL1tDSDJdW0NAQEhdKFtDSDNdKVtDSDJdL1tDSF09W0NIXVxbQ0gyXVtDSDJdW0NIM10=

>  <s_glide_docking_method>  (1) 
confgen

>  <s_i_glide_gridfile>  (1) 
gpcr_5ht2c_6bqh_protein_autoprepared_prepared

>  <s_lp_Force_Field>  (1) 
S-OPLS

>  <s_lp_Variant>  (1) 
DiffSBDD_14-4

>  <s_m_source_file>  (1) 
generated_GPCR_5HT2C_ligand_DiffSBDD_2026-06-23_prepared.sdf

>  <GenAI_Model>  (1) 
DiffSBDD

>  <Protein>  (1) 
GPCR_5HT2C

$$$$
DiffSBDD_5
     RDKit          3D

  0  0  0  0  0  0  0  0  0  0999 V3000
M  V30 BEGIN CTAB
M  V30 COUNTS 20 19 0 0 1
M  V30 BEGIN ATOM
M  V30 1 C 37.672046 28.876134 54.584819 0
M  V30 2 C 38.798013 28.811658 53.540768 0
M  V30 3 C 40.096643 29.868928 50.663879 0
M  V30 4 S 39.645141 28.137831 50.968016 0
M  V30 5 O 38.752951 27.222477 56.684237 0
M  V30 6 C 38.120367 29.402864 55.966055 0
M  V30 7 O 40.045135 28.936377 57.282615 0 CHG=-1
M  V30 8 C 39.053051 28.437259 56.707210 0
M  V30 9 C 38.305989 28.295768 52.179875 0
M  V30 10 H 36.874120 29.520701 54.214812 0
M  V30 11 H 37.235994 27.882812 54.689538 0
M  V30 12 H 39.587506 28.153965 53.904217 0
M  V30 13 H 39.239582 29.801881 53.434107 0
M  V30 14 H 40.889646 29.919115 49.918204 0
M  V30 15 H 40.459732 30.347232 51.572744 0
M  V30 16 H 39.245117 30.431840 50.286006 0
M  V30 17 H 38.606166 30.373703 55.860229 0
M  V30 18 H 37.245791 29.567066 56.596632 0
M  V30 19 H 37.531042 28.937936 51.768376 0
M  V30 20 H 37.856075 27.310401 52.303110 0
M  V30 END ATOM
M  V30 BEGIN BOND
M  V30 1 1 2 1
M  V30 2 1 4 3
M  V30 3 1 6 1
M  V30 4 2 8 5
M  V30 5 1 8 6
M  V30 6 1 8 7
M  V30 7 1 9 2
M  V30 8 1 9 4
M  V30 9 1 10 1
M  V30 10 1 11 1
M  V30 11 1 12 2
M  V30 12 1 13 2
M  V30 13 1 14 3
M  V30 14 1 15 3
M  V30 15 1 16 3
M  V30 16 1 17 6
M  V30 17 1 18 6
M  V30 18 1 19 9
M  V30 19 1 20 9
M  V30 END BOND
M  V30 END CTAB
M  END
>  <i_epik_Tot_Q>  (1) 
-1

>  <i_epik_Tot_abs_Q>  (1) 
1

>  <i_i_glide_confnum>  (1) 
10

>  <i_i_glide_lignum>  (1) 
8

>  <i_i_glide_posenum>  (1) 
337

>  <i_i_glide_rotatable_bonds>  (1) 
5

>  <i_lp_mmshare_version>  (1) 
72125

>  <i_m_source_file_index>  (1) 
6

>  <i_f3d_flags>  (1) 
0

>  <num_sample>  (1) 
100

>  <b_lp_Chiralities_Consistent>  (1) 
1

>  <r_epik_Charging_Adjusted_Penalty>  (1) 
0.0016234785268329083

>  <r_epik_Ionization_Penalty>  (1) 
0.0016234785268329083

>  <r_epik_Ionization_Penalty_Charging>  (1) 
0.0016234785268329083

>  <r_epik_Ionization_Penalty_Neutral>  (1) 
0

>  <r_epik_State_Penalty>  (1) 
-0

>  <r_glide_ring_energy>  (1) 
0

>  <r_i_docking_score>  (1) 
-3.1060727885889534

>  <r_i_glide_ecoul>  (1) 
0.03347658583991181

>  <r_i_glide_eff_state_penalty>  (1) 
-0

>  <r_i_glide_einternal>  (1) 
0.4266330277446484

>  <r_i_glide_emodel>  (1) 
-21.525112799070936

>  <r_i_glide_emodel_strain>  (1) 
0

>  <r_i_glide_energy>  (1) 
-17.799682927076073

>  <r_i_glide_erotb>  (1) 
2.0195253186786486

>  <r_i_glide_esite>  (1) 
0

>  <r_i_glide_evdw>  (1) 
-17.833159512915984

>  <r_i_glide_gscore>  (1) 
-3.1060727885889534

>  <r_i_glide_gscore_strain>  (1) 
0

>  <r_i_glide_hbond>  (1) 
0

>  <r_i_glide_ligand_efficiency>  (1) 
-0.34511919873210595

>  <r_i_glide_ligand_efficiency_ln>  (1) 
-0.97149033902923088

>  <r_i_glide_ligand_efficiency_sa>  (1) 
-0.71787686230728887

>  <r_i_glide_lipo>  (1) 
-1.4751611685481099

>  <r_i_glide_metal>  (1) 
-0

>  <r_i_glide_rewards>  (1) 
-2.7638004509496801

>  <r_lp_Energy>  (1) 
4.776243

>  <r_lp_tautomer_probability>  (1) 
1

>  <s_epik_cmdline>  (1) 
J2VwaWtfcHl0aG9uJywgJy1waHQnLCAnMS4wJywgJy1waCcsICc3LjQnLCAnLXRuJywgJzgnLCAnLW1hJywgJzUwMCcsICctaW1hZScsICc8aW5maWxlLm1hZT4nLCAnLW9tYWUnLCAnPG91dGZpbGUubWFlPic=

>  <s_epik_input>  (1) 
Tz1DKFtPSF0pW0NIMl1bQ0gyXVtDSDJdW0NIMl1TW0NIM10=

>  <s_glide_docking_method>  (1) 
confgen

>  <s_i_glide_gridfile>  (1) 
gpcr_5ht2c_6bqh_protein_autoprepared_prepared

>  <s_lp_Force_Field>  (1) 
S-OPLS

>  <s_lp_Variant>  (1) 
DiffSBDD_5-1

>  <s_m_source_file>  (1) 
generated_GPCR_5HT2C_ligand_DiffSBDD_2026-06-23_prepared.sdf

>  <GenAI_Model>  (1) 
DiffSBDD

>  <Protein>  (1) 
GPCR_5HT2C

$$$$
DiffSBDD_24
     RDKit          3D

  0  0  0  0  0  0  0  0  0  0999 V3000
M  V30 BEGIN CTAB
M  V30 COUNTS 76 79 0 0 1
M  V30 BEGIN ATOM
M  V30 1 C 41.382290 28.872946 58.665010 0
M  V30 2 C 36.436555 34.526480 60.616614 0
M  V30 3 C 40.445111 29.157142 57.693661 0
M  V30 4 N 37.898127 36.487410 60.545653 0 CHG=1
M  V30 5 C 37.768824 30.181538 57.280655 0 CFG=2
M  V30 6 N 37.245058 32.583272 61.926514 0
M  V30 7 C 38.666628 31.704063 60.129459 0
M  V30 8 C 36.548049 37.440882 62.521492 0
M  V30 9 O 38.211136 40.936283 60.567793 0 CHG=-1
M  V30 10 N 37.555890 38.880272 60.967651 0
M  V30 11 C 38.502155 39.805789 60.962147 0
M  V30 12 O 37.750878 31.491179 54.708591 0
M  V30 13 C 38.045177 31.632567 57.725090 0
M  V30 14 C 41.730060 27.567488 58.906459 0
M  V30 15 C 39.077347 29.787134 53.619288 0 CFG=2
M  V30 16 C 36.247200 29.902634 59.245121 0
M  V30 17 C 36.079277 33.420733 61.595863 0
M  V30 18 N 36.423274 31.338610 59.465483 0
M  V30 19 O 39.595523 30.902386 60.167769 0
M  V30 20 C 40.196295 26.811397 57.186837 0
M  V30 21 C 37.751164 35.130297 61.083033 0 CFG=2
M  V30 22 C 38.863707 34.157050 60.723919 0
M  V30 23 C 40.260294 30.289314 51.404555 0
M  V30 24 C 41.136979 26.534902 58.167410 0
M  V30 25 C 39.812410 30.833582 52.750453 0
M  V30 26 N 38.312871 29.692857 55.977596 0
M  V30 27 C 37.740937 37.567778 61.542750 0 CFG=2
M  V30 28 C 38.255114 28.766339 52.808529 0
M  V30 29 F 39.628089 25.804461 56.479229 0
M  V30 30 C 39.948337 29.064853 50.954556 0
M  V30 31 C 38.549423 32.722028 61.259535 0 CFG=1
M  V30 32 C 39.832925 28.123842 56.954148 0
M  V30 33 N 37.730310 31.726032 59.155268 0
M  V30 34 C 39.106334 28.072637 51.730860 0
M  V30 35 C 38.301761 30.399706 54.821262 0
M  V30 36 C 36.514292 29.504009 57.797944 0
M  V30 37 O 39.645153 39.522627 61.367751 0
M  V30 38 N 38.879112 28.419648 55.993042 0
M  V30 39 H 41.835544 29.669005 59.227637 0
M  V30 40 H 36.530113 34.139625 59.601156 0
M  V30 41 H 35.645206 35.266571 60.567901 0
M  V30 42 H 40.199449 30.177754 57.501528 0
M  V30 43 H 38.820363 36.588237 60.146130 0
M  V30 44 H 38.292627 29.680604 58.070761 0
M  V30 45 H 37.267893 32.173640 62.848589 0
M  V30 46 H 36.671661 38.136573 63.351749 0
M  V30 47 H 35.625607 37.737745 62.033394 0
M  V30 48 H 36.394479 36.467042 62.981627 0
M  V30 49 H 36.633456 39.127222 60.626570 0
M  V30 50 H 39.068683 31.946407 57.527829 0
M  V30 51 H 37.423560 32.341764 57.181191 0
M  V30 52 H 42.445116 27.337780 59.669068 0
M  V30 53 H 39.930448 29.251763 54.019572 0
M  V30 54 H 36.927390 29.366282 59.905284 0
M  V30 55 H 35.245243 29.596609 59.515318 0
M  V30 56 H 35.249487 32.815671 61.234811 0
M  V30 57 H 35.715034 33.899890 62.502833 0
M  V30 58 H 36.236706 31.584970 60.436623 0
M  V30 59 H 37.799595 35.183790 62.167655 0
M  V30 60 H 39.813316 34.501632 61.136929 0
M  V30 61 H 38.999167 34.155490 59.639876 0
M  V30 62 H 40.863518 30.947191 50.793603 0
M  V30 63 H 41.403884 25.515480 58.364638 0
M  V30 64 H 40.698686 31.165152 53.289371 0
M  V30 65 H 39.240243 31.738053 52.581371 0
M  V30 66 H 38.637300 37.519289 62.165693 0
M  V30 67 H 37.806986 28.015194 53.458715 0
M  V30 68 H 37.428045 29.272024 52.326711 0
M  V30 69 H 40.306203 28.744393 49.988367 0
M  V30 70 H 39.298486 32.470417 62.010597 0
M  V30 71 H 38.460717 27.528017 51.041152 0
M  V30 72 H 39.772673 27.340990 52.187693 0
M  V30 73 H 35.674063 29.737769 57.166380 0
M  V30 74 H 36.627320 28.419717 57.767723 0
M  V30 75 H 38.911746 27.908955 55.121448 0
M  V30 76 H 37.215983 36.609350 59.812297 0
M  V30 END ATOM
M  V30 BEGIN BOND
M  V30 1 1 3 1
M  V30 2 1 11 9
M  V30 3 1 11 10
M  V30 4 1 13 5
M  V30 5 2 14 1
M  V30 6 1 17 2
M  V30 7 1 17 6
M  V30 8 1 18 16
M  V30 9 2 19 7
M  V30 10 1 21 2
M  V30 11 1 21 4
M  V30 12 1 22 21
M  V30 13 1 24 14
M  V30 14 2 24 20
M  V30 15 1 25 15
M  V30 16 1 25 23
M  V30 17 1 26 5
M  V30 18 1 27 4
M  V30 19 1 27 8
M  V30 20 1 27 10
M  V30 21 1 28 15
M  V30 22 1 29 20
M  V30 23 2 30 23
M  V30 24 1 31 6
M  V30 25 1 31 7
M  V30 26 1 31 22
M  V30 27 2 32 3
M  V30 28 1 32 20
M  V30 29 1 33 7
M  V30 30 1 33 13
M  V30 31 1 33 18
M  V30 32 1 34 28
M  V30 33 1 34 30
M  V30 34 2 35 12
M  V30 35 1 35 15
M  V30 36 1 35 26
M  V30 37 1 36 5
M  V30 38 1 36 16
M  V30 39 2 37 11
M  V30 40 1 38 26
M  V30 41 1 38 32
M  V30 42 1 39 1
M  V30 43 1 40 2
M  V30 44 1 41 2
M  V30 45 1 42 3
M  V30 46 1 43 4
M  V30 47 1 5 44 CFG=1
M  V30 48 1 45 6
M  V30 49 1 46 8
M  V30 50 1 47 8
M  V30 51 1 48 8
M  V30 52 1 49 10
M  V30 53 1 50 13
M  V30 54 1 51 13
M  V30 55 1 52 14
M  V30 56 1 15 53 CFG=1
M  V30 57 1 54 16
M  V30 58 1 55 16
M  V30 59 1 56 17
M  V30 60 1 57 17
M  V30 61 1 58 18
M  V30 62 1 21 59 CFG=1
M  V30 63 1 60 22
M  V30 64 1 61 22
M  V30 65 1 62 23
M  V30 66 1 63 24
M  V30 67 1 64 25
M  V30 68 1 65 25
M  V30 69 1 27 66 CFG=1
M  V30 70 1 67 28
M  V30 71 1 68 28
M  V30 72 1 69 30
M  V30 73 1 31 70 CFG=1
M  V30 74 1 71 34
M  V30 75 1 72 34
M  V30 76 1 73 36
M  V30 77 1 74 36
M  V30 78 1 75 38
M  V30 79 1 76 4
M  V30 END BOND
M  V30 END CTAB
M  END
>  <i_epik_Tot_Q>  (1) 
0

>  <i_epik_Tot_abs_Q>  (1) 
2

>  <i_i_glide_confnum>  (1) 
2082

>  <i_i_glide_lignum>  (1) 
59

>  <i_i_glide_posenum>  (1) 
53

>  <i_i_glide_rotatable_bonds>  (1) 
11

>  <i_lp_mmshare_version>  (1) 
72125

>  <i_m_source_file_index>  (1) 
25

>  <i_f3d_flags>  (1) 
0

>  <num_sample>  (1) 
100

>  <b_lp_Chiralities_Consistent>  (1) 
1

>  <r_epik_Charging_Adjusted_Penalty>  (1) 
0.077750035834572392

>  <r_epik_Ionization_Penalty>  (1) 
0.10755876975778689

>  <r_epik_Ionization_Penalty_Charging>  (1) 
0.0083338926467225426

>  <r_epik_Ionization_Penalty_Neutral>  (1) 
0.099224877111064341

>  <r_epik_State_Penalty>  (1) 
0.069416143187849846

>  <r_glide_ring_energy>  (1) 
0

>  <r_i_docking_score>  (1) 
-3.0666366124824918

>  <r_i_glide_ecoul>  (1) 
-6.9994480232305927

>  <r_i_glide_eff_state_penalty>  (1) 
0.069416143187849846

>  <r_i_glide_einternal>  (1) 
31.908719130401863

>  <r_i_glide_emodel>  (1) 
3.8750213905489517

>  <r_i_glide_emodel_strain>  (1) 
19.199151657148946

>  <r_i_glide_energy>  (1) 
-19.880224731428214

>  <r_i_glide_erotb>  (1) 
0.72960086390203738

>  <r_i_glide_esite>  (1) 
-0.082975244337997189

>  <r_i_glide_evdw>  (1) 
-12.880776708197621

>  <r_i_glide_gscore>  (1) 
-3.1360527556703417

>  <r_i_glide_gscore_strain>  (1) 
3.7997879142872364

>  <r_i_glide_hbond>  (1) 
-0.58643565888196125

>  <r_i_glide_ligand_efficiency>  (1) 
-0.080700963486381366

>  <r_i_glide_ligand_efficiency_ln>  (1) 
-0.66125706496058312

>  <r_i_glide_ligand_efficiency_sa>  (1) 
-0.2713146545461953

>  <r_i_glide_lipo>  (1) 
-3.4355960299133703

>  <r_i_glide_metal>  (1) 
-0

>  <r_i_glide_rewards>  (1) 
-1.866478561831818

>  <r_lp_Energy>  (1) 
50.898903999999995

>  <s_epik_Chemistry_Notes>  (1) 
This compound contains an acetal/aminal-like group ( X-CH(R)-Y where X, Y are N, S, or O) that may be acid/base labile, releasing an aldehyde.

>  <s_epik_cmdline>  (1) 
J2VwaWtfcHl0aG9uJywgJy1waHQnLCAnMS4wJywgJy1waCcsICc3LjQnLCAnLXRuJywgJzgnLCAnLW1hJywgJzUwMCcsICctaW1hZScsICc8aW5maWxlLm1hZT4nLCAnLW9tYWUnLCAnPG91dGZpbGUubWFlPic=

>  <s_epik_input>  (1) 
RmMxW2NIXVtjSF1bY0hdW2NIXWMxW05IXU4oQyg9TylbQ0BASF0yW0NIMl1bQ0hdPVtDSF1bQ0gyXVtDSDJdMilbQ0BIXTNbQ0gyXU4oW05IXVtDSDJdW0NIMl0zKUMoPU8pW0NAQEhdKFtDSDJdNClbTkhdW0NIMl1bQ0gyXVtDQEBIXTRbTkhdW0NASF0oW0NIM10pW05IXUMoPU8pW09IXQ==

>  <s_glide_docking_method>  (1) 
confgen

>  <s_i_glide_gridfile>  (1) 
gpcr_5ht2c_6bqh_protein_autoprepared_prepared

>  <s_lp_Force_Field>  (1) 
S-OPLS

>  <s_lp_Variant>  (1) 
DiffSBDD_24-1

>  <s_m_source_file>  (1) 
generated_GPCR_5HT2C_ligand_DiffSBDD_2026-06-23_prepared.sdf

>  <GenAI_Model>  (1) 
DiffSBDD

>  <Protein>  (1) 
GPCR_5HT2C

$$$$
DiffSBDD_61
     RDKit          3D

  0  0  0  0  0  0  0  0  0  0999 V3000
M  V30 BEGIN CTAB
M  V30 COUNTS 21 20 0 0 1
M  V30 BEGIN ATOM
M  V30 1 C 40.086054 30.525829 50.485578 0
M  V30 2 O 38.045047 32.944551 57.215621 0
M  V30 3 C 38.955371 30.948790 56.244740 0
M  V30 4 C 38.936735 28.872776 53.867392 0
M  V30 5 O 39.965893 30.471941 55.367806 0
M  V30 6 C 38.836173 32.475424 56.149543 0
M  V30 7 C 39.549470 30.270424 54.029594 0
M  V30 8 S 40.045025 28.775609 50.967830 0
M  V30 9 S 38.408411 28.537755 52.167736 0
M  V30 10 H 41.003205 30.735426 49.934844 0
M  V30 11 H 39.245076 30.769041 49.839459 0
M  V30 12 H 40.055431 31.184427 51.351576 0
M  V30 13 H 37.147952 32.638815 57.083966 0
M  V30 14 H 39.263777 30.681361 57.255576 0
M  V30 15 H 37.993425 30.462305 56.074540 0
M  V30 16 H 39.644628 28.104019 54.174735 0
M  V30 17 H 38.062846 28.762815 54.508983 0
M  V30 18 H 38.394732 32.787044 55.202525 0
M  V30 19 H 39.821832 32.936310 56.221784 0
M  V30 20 H 38.865865 31.050500 53.692615 0
M  V30 21 H 40.445142 30.347419 53.417220 0
M  V30 END ATOM
M  V30 BEGIN BOND
M  V30 1 1 5 3
M  V30 2 1 6 2
M  V30 3 1 6 3
M  V30 4 1 7 4
M  V30 5 1 7 5
M  V30 6 1 8 1
M  V30 7 1 9 4
M  V30 8 1 9 8
M  V30 9 1 10 1
M  V30 10 1 11 1
M  V30 11 1 12 1
M  V30 12 1 13 2
M  V30 13 1 14 3
M  V30 14 1 15 3
M  V30 15 1 16 4
M  V30 16 1 17 4
M  V30 17 1 18 6
M  V30 18 1 19 6
M  V30 19 1 20 7
M  V30 20 1 21 7
M  V30 END BOND
M  V30 END CTAB
M  END
>  <i_epik_Tot_Q>  (1) 
0

>  <i_epik_Tot_abs_Q>  (1) 
0

>  <i_i_glide_confnum>  (1) 
167

>  <i_i_glide_lignum>  (1) 
134

>  <i_i_glide_posenum>  (1) 
268

>  <i_i_glide_rotatable_bonds>  (1) 
7

>  <i_lp_mmshare_version>  (1) 
72125

>  <i_m_source_file_index>  (1) 
62

>  <i_f3d_flags>  (1) 
0

>  <num_sample>  (1) 
100

>  <b_lp_Chiralities_Consistent>  (1) 
1

>  <r_epik_Charging_Adjusted_Penalty>  (1) 
0

>  <r_epik_Ionization_Penalty>  (1) 
5.1568199446606131e-08

>  <r_epik_Ionization_Penalty_Charging>  (1) 
0

>  <r_epik_Ionization_Penalty_Neutral>  (1) 
5.1568199446606131e-08

>  <r_epik_State_Penalty>  (1) 
-0

>  <r_glide_ring_energy>  (1) 
0

>  <r_i_docking_score>  (1) 
-3.0645216346885693

>  <r_i_glide_ecoul>  (1) 
-2.9159872258965609

>  <r_i_glide_eff_state_penalty>  (1) 
-0

>  <r_i_glide_einternal>  (1) 
3.1053696606056489

>  <r_i_glide_emodel>  (1) 
-29.53657297978458

>  <r_i_glide_emodel_strain>  (1) 
0

>  <r_i_glide_energy>  (1) 
-25.622128612612553

>  <r_i_glide_erotb>  (1) 
2.7134566579850197

>  <r_i_glide_esite>  (1) 
0

>  <r_i_glide_evdw>  (1) 
-22.706141386715991

>  <r_i_glide_gscore>  (1) 
-3.0645216346885693

>  <r_i_glide_gscore_strain>  (1) 
0

>  <r_i_glide_hbond>  (1) 
-0.16

>  <r_i_glide_ligand_efficiency>  (1) 
-0.34050240385428548

>  <r_i_glide_ligand_efficiency_ln>  (1) 
-0.95849433174374876

>  <r_i_glide_ligand_efficiency_sa>  (1) 
-0.70827354196758563

>  <r_i_glide_lipo>  (1) 
-1.4619398061199718

>  <r_i_glide_metal>  (1) 
-0

>  <r_i_glide_rewards>  (1) 
-2.5833333333333335

>  <r_lp_Energy>  (1) 
-5.6226759999999993

>  <r_lp_tautomer_probability>  (1) 
1

>  <s_epik_cmdline>  (1) 
J2VwaWtfcHl0aG9uJywgJy1waHQnLCAnMS4wJywgJy1waCcsICc3LjQnLCAnLXRuJywgJzgnLCAnLW1hJywgJzUwMCcsICctaW1hZScsICc8aW5maWxlLm1hZT4nLCAnLW9tYWUnLCAnPG91dGZpbGUubWFlPic=

>  <s_epik_input>  (1) 
W0NIM11TU1tDSDJdW0NIMl1PW0NIMl1bQ0gyXVtPSF0=

>  <s_glide_docking_method>  (1) 
confgen

>  <s_i_glide_gridfile>  (1) 
gpcr_5ht2c_6bqh_protein_autoprepared_prepared

>  <s_lp_Force_Field>  (1) 
S-OPLS

>  <s_lp_Variant>  (1) 
DiffSBDD_61-1

>  <s_m_source_file>  (1) 
generated_GPCR_5HT2C_ligand_DiffSBDD_2026-06-23_prepared.sdf

>  <GenAI_Model>  (1) 
DiffSBDD

>  <Protein>  (1) 
GPCR_5HT2C

$$$$
DiffSBDD_6
     RDKit          3D

  0  0  0  0  0  0  0  0  0  0999 V3000
M  V30 BEGIN CTAB
M  V30 COUNTS 44 44 0 0 1
M  V30 BEGIN ATOM
M  V30 1 C 37.606787 24.067081 57.451744 0
M  V30 2 C 39.730490 30.934838 50.360067 0
M  V30 3 C 39.155581 27.412591 50.649444 0
M  V30 4 C 39.191370 28.312281 51.876282 0 CFG=1
M  V30 5 C 38.049839 27.847131 55.572930 0 CFG=2
M  V30 6 C 39.142261 27.488094 53.181479 0
M  V30 7 C 38.393850 28.185294 57.019058 0
M  V30 8 C 36.987643 24.038705 56.045342 0
M  V30 9 C 38.908498 28.329404 54.425781 0 CFG=1
M  V30 10 O 40.391605 29.087412 51.767767 0
M  V30 11 C 37.537280 28.924599 54.664212 0
M  V30 12 C 40.261316 30.510008 51.719293 0
M  V30 13 O 40.754763 27.680719 57.187945 0
M  V30 14 O 40.045123 25.124999 56.719635 0
M  V30 15 C 39.546199 31.114890 52.936254 0
M  V30 16 C 39.476708 27.284036 57.650178 0 CFG=2
M  V30 17 O 38.051624 25.366627 57.791008 0
M  V30 18 C 39.232082 25.804075 57.340637 0
M  V30 19 H 38.408490 23.338772 57.564175 0
M  V30 20 H 36.845240 23.791914 58.167755 0
M  V30 21 H 39.488203 31.994908 50.306207 0
M  V30 22 H 40.445615 30.705980 49.570096 0
M  V30 23 H 38.845145 30.366818 50.167699 0
M  V30 24 H 38.294787 26.747888 50.657834 0
M  V30 25 H 39.089027 28.040330 49.767769 0
M  V30 26 H 40.044980 26.795797 50.567335 0
M  V30 27 H 38.295659 28.930878 51.823857 0
M  V30 28 H 37.556463 26.886192 55.442932 0
M  V30 29 H 40.051704 26.903123 53.304216 0
M  V30 30 H 38.330991 26.762766 53.106844 0
M  V30 31 H 37.476643 28.112224 57.605366 0
M  V30 32 H 38.708223 29.228538 57.083331 0
M  V30 33 H 36.552010 23.062558 55.829239 0
M  V30 34 H 36.193686 24.780456 55.957743 0
M  V30 35 H 37.730101 24.247756 55.274014 0
M  V30 36 H 39.755140 28.951993 54.704888 0
M  V30 37 H 36.785558 28.666844 53.925434 0
M  V30 38 H 37.469611 29.930354 55.073629 0
M  V30 39 H 41.245097 30.940037 51.739326 0
M  V30 40 H 40.846428 27.381735 56.295376 0
M  V30 41 H 39.245474 32.137705 52.749283 0
M  V30 42 H 38.621373 30.613310 53.171102 0
M  V30 43 H 40.178640 31.097291 53.824103 0
M  V30 44 H 39.468871 27.416140 58.732654 0
M  V30 END ATOM
M  V30 BEGIN BOND
M  V30 1 1 4 3
M  V30 2 1 6 4
M  V30 3 1 7 5
M  V30 4 1 8 1
M  V30 5 1 9 5
M  V30 6 1 9 6
M  V30 7 1 10 4
M  V30 8 1 11 5
M  V30 9 1 11 9
M  V30 10 1 12 2
M  V30 11 1 12 10
M  V30 12 1 15 12
M  V30 13 1 16 7
M  V30 14 1 16 13
M  V30 15 1 17 1
M  V30 16 2 18 14
M  V30 17 1 18 16
M  V30 18 1 18 17
M  V30 19 1 19 1
M  V30 20 1 20 1
M  V30 21 1 21 2
M  V30 22 1 22 2
M  V30 23 1 23 2
M  V30 24 1 24 3
M  V30 25 1 25 3
M  V30 26 1 26 3
M  V30 27 1 4 27 CFG=3
M  V30 28 1 5 28 CFG=1
M  V30 29 1 29 6
M  V30 30 1 30 6
M  V30 31 1 31 7
M  V30 32 1 32 7
M  V30 33 1 33 8
M  V30 34 1 34 8
M  V30 35 1 35 8
M  V30 36 1 9 36 CFG=1
M  V30 37 1 37 11
M  V30 38 1 38 11
M  V30 39 1 39 12
M  V30 40 1 40 13
M  V30 41 1 41 15
M  V30 42 1 42 15
M  V30 43 1 43 15
M  V30 44 1 16 44 CFG=1
M  V30 END BOND
M  V30 END CTAB
M  END
>  <i_epik_Tot_Q>  (1) 
0

>  <i_epik_Tot_abs_Q>  (1) 
0

>  <i_i_glide_confnum>  (1) 
173

>  <i_i_glide_lignum>  (1) 
9

>  <i_i_glide_posenum>  (1) 
111

>  <i_i_glide_rotatable_bonds>  (1) 
10

>  <i_lp_mmshare_version>  (1) 
72125

>  <i_m_source_file_index>  (1) 
7

>  <i_f3d_flags>  (1) 
0

>  <num_sample>  (1) 
100

>  <b_lp_Chiralities_Consistent>  (1) 
1

>  <r_epik_Charging_Adjusted_Penalty>  (1) 
0

>  <r_epik_Ionization_Penalty>  (1) 
1.8372047820881467e-05

>  <r_epik_Ionization_Penalty_Charging>  (1) 
0

>  <r_epik_Ionization_Penalty_Neutral>  (1) 
1.8372047820881467e-05

>  <r_epik_State_Penalty>  (1) 
-0

>  <r_glide_ring_energy>  (1) 
0

>  <r_i_docking_score>  (1) 
-2.9742461073379141

>  <r_i_glide_ecoul>  (1) 
0.10661935345867651

>  <r_i_glide_eff_state_penalty>  (1) 
-0

>  <r_i_glide_einternal>  (1) 
5.6223020568198097

>  <r_i_glide_emodel>  (1) 
-28.870660717147619

>  <r_i_glide_emodel_strain>  (1) 
0.92070974935631256

>  <r_i_glide_energy>  (1) 
-26.444384252338295

>  <r_i_glide_erotb>  (1) 
3.7046454867807075

>  <r_i_glide_esite>  (1) 
0

>  <r_i_glide_evdw>  (1) 
-26.551003605796971

>  <r_i_glide_gscore>  (1) 
-2.9742461073379141

>  <r_i_glide_gscore_strain>  (1) 
0

>  <r_i_glide_hbond>  (1) 
0

>  <r_i_glide_ligand_efficiency>  (1) 
-0.16523589485210632

>  <r_i_glide_ligand_efficiency_ln>  (1) 
-0.76451462544708759

>  <r_i_glide_ligand_efficiency_sa>  (1) 
-0.43304054944806381

>  <r_i_glide_lipo>  (1) 
-3.0916011551595446

>  <r_i_glide_metal>  (1) 
-0

>  <r_i_glide_rewards>  (1) 
-2.275733161688029

>  <r_lp_Energy>  (1) 
9.3243790000000004

>  <r_lp_tautomer_probability>  (1) 
1

>  <s_epik_Chemistry_Notes>  (1) 
This compound has an ester and may undergo hydrolysis at high or low pH.

>  <s_epik_cmdline>  (1) 
J2VwaWtfcHl0aG9uJywgJy1waHQnLCAnMS4wJywgJy1waCcsICc3LjQnLCAnLXRuJywgJzgnLCAnLW1hJywgJzUwMCcsICctaW1hZScsICc8aW5maWxlLm1hZT4nLCAnLW9tYWUnLCAnPG91dGZpbGUubWFlPic=

>  <s_epik_input>  (1) 
W0NIM11bQ0gyXU9DKD1PKVtDQEBIXShbT0hdKVtDSDJdW0NAQEhdMVtDSF0oW0NIMl0xKVtDSDJdW0NASF0oW0NIM10pT1tDSF0oW0NIM10pW0NIM10=

>  <s_glide_docking_method>  (1) 
confgen

>  <s_i_glide_gridfile>  (1) 
gpcr_5ht2c_6bqh_protein_autoprepared_prepared

>  <s_lp_Force_Field>  (1) 
S-OPLS

>  <s_lp_Variant>  (1) 
DiffSBDD_6-1

>  <s_m_source_file>  (1) 
generated_GPCR_5HT2C_ligand_DiffSBDD_2026-06-23_prepared.sdf

>  <GenAI_Model>  (1) 
DiffSBDD

>  <Protein>  (1) 
GPCR_5HT2C

$$$$
DiffSBDD_14
     RDKit          3D

  0  0  0  0  0  0  0  0  0  0999 V3000
M  V30 BEGIN CTAB
M  V30 COUNTS 49 48 0 0 1
M  V30 BEGIN ATOM
M  V30 1 C 39.302681 31.081213 56.311662 0
M  V30 2 C 37.645390 26.266668 55.255519 0
M  V30 3 C 37.972120 30.720835 56.932533 0
M  V30 4 C 39.241036 27.901641 54.133568 0
M  V30 5 O 36.864562 32.102878 61.606983 0 CHG=-1
M  V30 6 N 37.116659 34.464911 59.517297 0 CHG=1
M  V30 7 C 39.591278 30.937006 55.011774 0
M  V30 8 C 36.836477 33.029302 59.401579 0 CFG=2
M  V30 9 C 38.700075 25.208142 55.540238 0
M  V30 10 C 38.448725 28.924481 51.911889 0
M  V30 11 C 39.177011 29.170516 53.239817 0 CFG=1
M  V30 12 C 36.159837 32.655624 60.732990 0
M  V30 13 C 38.824982 24.912699 57.048922 0
M  V30 14 O 34.954335 32.952286 60.850526 0
M  V30 15 C 38.124276 32.224305 59.054671 0
M  V30 16 O 36.704972 30.213618 58.872617 0
M  V30 17 C 37.533487 24.371275 57.689790 0
M  V30 18 C 37.879612 27.443572 54.645504 0
M  V30 19 C 38.623014 30.402322 53.983329 0
M  V30 20 C 37.930494 30.794034 58.472380 0 CFG=1
M  V30 21 H 40.045105 31.476336 56.967861 0
M  V30 22 H 36.640869 26.036340 55.577173 0
M  V30 23 H 37.715044 29.709623 56.615797 0
M  V30 24 H 37.245138 31.389339 56.483061 0
M  V30 25 H 39.694832 27.085792 53.571532 0
M  V30 26 H 39.881717 28.082867 54.996295 0
M  V30 27 H 36.246753 34.926103 59.739702 0
M  V30 28 H 37.768095 34.608010 60.275432 0
M  V30 29 H 40.571432 31.217453 54.649903 0
M  V30 30 H 36.120923 32.939708 58.584932 0
M  V30 31 H 38.423739 24.304875 54.995494 0
M  V30 32 H 39.675824 25.496556 55.156950 0
M  V30 33 H 37.367179 28.923203 52.038679 0
M  V30 34 H 38.727191 29.696846 51.187481 0
M  V30 35 H 38.727403 27.967645 51.478297 0
M  V30 36 H 40.190071 29.424906 52.942029 0
M  V30 37 H 39.635739 24.197852 57.204106 0
M  V30 38 H 39.122597 25.822407 57.569744 0
M  V30 39 H 38.766302 32.157216 59.932832 0
M  V30 40 H 38.713894 32.808327 58.347057 0
M  V30 41 H 36.015140 30.670709 58.398422 0
M  V30 42 H 37.646514 24.160985 58.750941 0
M  V30 43 H 36.717645 25.088145 57.617655 0
M  V30 44 H 37.222399 23.444443 57.214026 0
M  V30 45 H 37.057644 28.124976 54.502061 0
M  V30 46 H 37.641900 30.196317 54.406099 0
M  V30 47 H 38.452574 31.245707 53.326021 0
M  V30 48 H 38.721549 30.156715 58.869093 0
M  V30 49 H 37.487890 34.823845 58.650554 0
M  V30 END ATOM
M  V30 BEGIN BOND
M  V30 1 1 3 1
M  V30 2 2 7 1
M  V30 3 1 8 6
M  V30 4 1 9 2
M  V30 5 1 11 4
M  V30 6 1 11 10
M  V30 7 1 12 5
M  V30 8 1 12 8
M  V30 9 1 13 9
M  V30 10 2 14 12
M  V30 11 1 15 8
M  V30 12 1 17 13
M  V30 13 2 18 2
M  V30 14 1 18 4
M  V30 15 1 19 7
M  V30 16 1 19 11
M  V30 17 1 20 3
M  V30 18 1 20 15
M  V30 19 1 20 16
M  V30 20 1 21 1
M  V30 21 1 22 2
M  V30 22 1 23 3
M  V30 23 1 24 3
M  V30 24 1 25 4
M  V30 25 1 26 4
M  V30 26 1 27 6
M  V30 27 1 28 6
M  V30 28 1 29 7
M  V30 29 1 8 30 CFG=3
M  V30 30 1 31 9
M  V30 31 1 32 9
M  V30 32 1 33 10
M  V30 33 1 34 10
M  V30 34 1 35 10
M  V30 35 1 11 36 CFG=3
M  V30 36 1 37 13
M  V30 37 1 38 13
M  V30 38 1 39 15
M  V30 39 1 40 15
M  V30 40 1 41 16
M  V30 41 1 42 17
M  V30 42 1 43 17
M  V30 43 1 44 17
M  V30 44 1 45 18
M  V30 45 1 46 19
M  V30 46 1 47 19
M  V30 47 1 20 48 CFG=1
M  V30 48 1 49 6
M  V30 END BOND
M  V30 END CTAB
M  END
>  <i_epik_Tot_Q>  (1) 
0

>  <i_epik_Tot_abs_Q>  (1) 
2

>  <i_i_glide_confnum>  (1) 
160

>  <i_i_glide_lignum>  (1) 
29

>  <i_i_glide_posenum>  (1) 
48

>  <i_i_glide_rotatable_bonds>  (1) 
12

>  <i_lp_mmshare_version>  (1) 
72125

>  <i_m_source_file_index>  (1) 
15

>  <i_f3d_flags>  (1) 
0

>  <num_sample>  (1) 
100

>  <b_lp_Chiralities_Consistent>  (1) 
1

>  <r_epik_Charging_Adjusted_Penalty>  (1) 
0.00991281995240933

>  <r_epik_Ionization_Penalty>  (1) 
0.0049587358016132182

>  <r_epik_Ionization_Penalty_Charging>  (1) 
0.0049586922537287062

>  <r_epik_Ionization_Penalty_Neutral>  (1) 
4.3547884512074136e-08

>  <r_epik_State_Penalty>  (1) 
0.0049541276986806238

>  <r_glide_ring_energy>  (1) 
0

>  <r_i_docking_score>  (1) 
-2.9725985235281316

>  <r_i_glide_ecoul>  (1) 
-6.0862953634285342

>  <r_i_glide_eff_state_penalty>  (1) 
0.0049541276986806238

>  <r_i_glide_einternal>  (1) 
4.1939024794944419

>  <r_i_glide_emodel>  (1) 
-34.254374468132681

>  <r_i_glide_emodel_strain>  (1) 
2.1607480076300867

>  <r_i_glide_energy>  (1) 
-30.415301391726185

>  <r_i_glide_erotb>  (1) 
4.0583376510001772

>  <r_i_glide_esite>  (1) 
-0.0041440152006339192

>  <r_i_glide_evdw>  (1) 
-24.329006028297652

>  <r_i_glide_gscore>  (1) 
-2.9775526512268122

>  <r_i_glide_gscore_strain>  (1) 
0

>  <r_i_glide_hbond>  (1) 
-0.2762440550510793

>  <r_i_glide_ligand_efficiency>  (1) 
-0.14862992617640658

>  <r_i_glide_ligand_efficiency_ln>  (1) 
-0.74394336757806945

>  <r_i_glide_ligand_efficiency_sa>  (1) 
-0.40344368996643848

>  <r_i_glide_lipo>  (1) 
-2.7192462556079247

>  <r_i_glide_metal>  (1) 
-0

>  <r_i_glide_rewards>  (1) 
-1.906861370438188

>  <r_lp_Energy>  (1) 
-3.7149109999999999

>  <s_epik_cmdline>  (1) 
J2VwaWtfcHl0aG9uJywgJy1waHQnLCAnMS4wJywgJy1waCcsICc3LjQnLCAnLXRuJywgJzgnLCAnLW1hJywgJzUwMCcsICctaW1hZScsICc8aW5maWxlLm1hZT4nLCAnLW9tYWUnLCAnPG91dGZpbGUubWFlPic=

>  <s_epik_input>  (1) 
W09IXUMoPU8pW0NAQEhdKFtOSDJdKVtDSDJdW0NAQEhdKFtPSF0pW0NIMl0vW0NIXT1bQ0hdXFtDSDJdW0NAQEhdKFtDSDNdKVtDSDJdL1tDSF09W0NIXVxbQ0gyXVtDSDJdW0NIM10=

>  <s_glide_docking_method>  (1) 
confgen

>  <s_i_glide_gridfile>  (1) 
gpcr_5ht2c_6bqh_protein_autoprepared_prepared

>  <s_lp_Force_Field>  (1) 
S-OPLS

>  <s_lp_Variant>  (1) 
DiffSBDD_14-7

>  <s_m_source_file>  (1) 
generated_GPCR_5HT2C_ligand_DiffSBDD_2026-06-23_prepared.sdf

>  <GenAI_Model>  (1) 
DiffSBDD

>  <Protein>  (1) 
GPCR_5HT2C

$$$$
DiffSBDD_93
     RDKit          3D

  0  0  0  0  0  0  0  0  0  0999 V3000
M  V30 BEGIN CTAB
M  V30 COUNTS 84 85 0 0 1
M  V30 BEGIN ATOM
M  V30 1 C 36.834194 29.760906 58.291010 0
M  V30 2 O 36.032998 29.401140 59.367721 0
M  V30 3 C 35.626765 34.104371 60.607251 0
M  V30 4 C 40.650591 29.273758 51.501332 0
M  V30 5 O 37.640041 27.175583 57.664220 0
M  V30 6 C 38.541143 31.151476 54.723131 0
M  V30 7 N 38.286399 31.167082 56.011440 0
M  V30 8 O 38.845176 32.137975 54.116393 0
M  V30 9 O 38.843243 30.537862 62.967695 0
M  V30 10 C 39.949707 29.665332 50.220187 0
M  V30 11 C 36.610885 33.106316 59.949493 0
M  V30 12 C 39.986423 27.631758 57.748715 0
M  V30 13 C 39.221410 30.213690 58.869258 0
M  V30 14 C 39.645112 28.908296 53.958201 0 CFG=1
M  V30 15 C 38.405923 29.837305 54.004467 0 CFG=1
M  V30 16 C 37.865255 34.389403 61.510030 0 CFG=1
M  V30 17 C 39.065376 32.395134 60.333507 0 CFG=1
M  V30 18 C 40.343956 32.810626 61.100986 0
M  V30 19 C 40.473175 28.196038 56.372921 0
M  V30 20 S 39.433407 29.737197 61.609990 0 CHG=1
M  V30 21 O 39.654830 25.355686 55.576168 0
M  V30 22 N 38.205968 29.252203 58.386724 0
M  V30 23 O 41.092654 30.026478 61.768998 0
M  V30 24 O 36.097676 35.737639 62.567766 0
M  V30 25 F 38.894052 36.482891 61.615062 0
M  V30 26 C 40.397353 30.733391 51.176200 0
M  V30 27 C 39.965993 26.340686 54.613121 0
M  V30 28 C 39.660788 27.786611 55.097162 0 CFG=2
M  V30 29 C 38.506447 27.995346 57.953404 0
M  V30 30 C 37.055212 29.251887 54.339456 0
M  V30 31 C 37.542891 36.396121 59.758558 0
M  V30 32 C 38.852645 30.825424 60.245226 0 CFG=2
M  V30 33 O 36.745726 28.474468 52.167769 0
M  V30 34 C 39.882517 28.378377 52.468993 0
M  V30 35 C 38.460370 35.603348 60.713789 0 CFG=2
M  V30 36 C 36.857968 28.137630 53.353253 0
M  V30 37 C 36.382424 34.532231 61.870667 0 CFG=1
M  V30 38 O 36.854615 26.976674 53.791436 0 CHG=-1
M  V30 39 N 37.818502 33.076060 60.825248 0 CFG=2 CHG=1
M  V30 40 H 36.844932 30.844445 58.207341 0
M  V30 41 H 36.354294 29.417330 57.378300 0
M  V30 42 H 35.221806 29.061254 59.014583 0
M  V30 43 H 35.393764 34.927190 59.933820 0
M  V30 44 H 34.678003 33.625948 60.853312 0
M  V30 45 H 41.673503 28.944253 51.367790 0
M  V30 46 H 38.010189 30.318663 56.477164 0
M  V30 47 H 38.334822 32.036673 56.517692 0
M  V30 48 H 38.537470 29.849378 63.554716 0
M  V30 49 H 40.496846 29.541308 49.285938 0
M  V30 50 H 38.885343 29.452260 50.168297 0
M  V30 51 H 36.869047 33.424808 58.936693 0
M  V30 52 H 36.144387 32.122923 59.886579 0
M  V30 53 H 40.638210 27.897841 58.577022 0
M  V30 54 H 40.050886 26.544301 57.734549 0
M  V30 55 H 39.245795 31.022933 58.157271 0
M  V30 56 H 40.238877 29.844096 58.913494 0
M  V30 57 H 40.445062 29.622802 54.173274 0
M  V30 58 H 38.315178 30.167926 52.977473 0
M  V30 59 H 38.460488 34.265303 62.414802 0
M  V30 60 H 39.198460 32.796329 59.328219 0
M  V30 61 H 41.212520 32.284821 60.708078 0
M  V30 62 H 40.588475 33.863425 60.999703 0
M  V30 63 H 40.271988 32.609266 62.168987 0
M  V30 64 H 40.445102 29.280172 56.450538 0
M  V30 65 H 41.523211 27.948258 56.228014 0
M  V30 66 H 40.307169 25.388429 56.258645 0
M  V30 67 H 41.166774 30.744414 62.383618 0
M  V30 68 H 35.421353 35.574874 63.215778 0
M  V30 69 H 39.645273 31.291340 51.717506 0
M  V30 70 H 41.244988 31.330940 50.857402 0
M  V30 71 H 39.334161 26.105143 53.757938 0
M  V30 72 H 40.998387 26.208792 54.293700 0
M  V30 73 H 38.641655 27.667311 55.413325 0
M  V30 74 H 36.992649 28.937398 55.367741 0
M  V30 75 H 36.324408 30.053669 54.208004 0
M  V30 76 H 37.230055 35.793041 58.906698 0
M  V30 77 H 36.654821 36.789127 60.254175 0
M  V30 78 H 38.045073 37.269295 59.346471 0
M  V30 79 H 37.790404 30.696945 60.401488 0
M  V30 80 H 40.445125 27.452834 52.467911 0
M  V30 81 H 39.000210 28.033540 51.960376 0
M  V30 82 H 39.355194 35.324270 60.167868 0
M  V30 83 H 36.105266 33.744147 62.567566 0
M  V30 84 H 37.529364 32.484720 61.591267 0
M  V30 END ATOM
M  V30 BEGIN BOND
M  V30 1 1 2 1
M  V30 2 1 7 6
M  V30 3 2 8 6
M  V30 4 1 10 4
M  V30 5 1 11 3
M  V30 6 1 15 6
M  V30 7 1 15 14
M  V30 8 1 18 17
M  V30 9 1 19 12
M  V30 10 1 20 9
M  V30 11 1 22 1
M  V30 12 1 22 13
M  V30 13 1 23 20
M  V30 14 1 26 4
M  V30 15 1 26 10
M  V30 16 1 27 21
M  V30 17 1 28 14
M  V30 18 1 28 19
M  V30 19 1 28 27
M  V30 20 2 29 5
M  V30 21 1 29 12
M  V30 22 1 29 22
M  V30 23 1 30 15
M  V30 24 1 32 13
M  V30 25 1 32 17
M  V30 26 1 32 20
M  V30 27 1 34 4
M  V30 28 1 34 14
M  V30 29 1 35 16
M  V30 30 1 35 25
M  V30 31 1 35 31
M  V30 32 1 36 30
M  V30 33 2 36 33
M  V30 34 1 37 3
M  V30 35 1 37 16
M  V30 36 1 37 24
M  V30 37 1 38 36
M  V30 38 1 39 11
M  V30 39 1 39 16
M  V30 40 1 39 17
M  V30 41 1 40 1
M  V30 42 1 41 1
M  V30 43 1 42 2
M  V30 44 1 43 3
M  V30 45 1 44 3
M  V30 46 1 45 4
M  V30 47 1 46 7
M  V30 48 1 47 7
M  V30 49 1 48 9
M  V30 50 1 49 10
M  V30 51 1 50 10
M  V30 52 1 51 11
M  V30 53 1 52 11
M  V30 54 1 53 12
M  V30 55 1 54 12
M  V30 56 1 55 13
M  V30 57 1 56 13
M  V30 58 1 14 57 CFG=1
M  V30 59 1 15 58 CFG=3
M  V30 60 1 16 59 CFG=1
M  V30 61 1 17 60 CFG=3
M  V30 62 1 61 18
M  V30 63 1 62 18
M  V30 64 1 63 18
M  V30 65 1 64 19
M  V30 66 1 65 19
M  V30 67 1 66 21
M  V30 68 1 67 23
M  V30 69 1 68 24
M  V30 70 1 69 26
M  V30 71 1 70 26
M  V30 72 1 71 27
M  V30 73 1 72 27
M  V30 74 1 28 73 CFG=1
M  V30 75 1 74 30
M  V30 76 1 75 30
M  V30 77 1 76 31
M  V30 78 1 77 31
M  V30 79 1 78 31
M  V30 80 1 32 79 CFG=3
M  V30 81 1 80 34
M  V30 82 1 81 34
M  V30 83 1 35 82 CFG=3
M  V30 84 1 37 83 CFG=1
M  V30 85 1 39 84 CFG=1
M  V30 END BOND
M  V30 END CTAB
M  END
>  <i_epik_Tot_Q>  (1) 
1

>  <i_epik_Tot_abs_Q>  (1) 
3

>  <i_i_glide_confnum>  (1) 
3109

>  <i_i_glide_lignum>  (1) 
221

>  <i_i_glide_posenum>  (1) 
10

>  <i_i_glide_rotatable_bonds>  (1) 
24

>  <i_lp_mmshare_version>  (1) 
72125

>  <i_m_source_file_index>  (1) 
94

>  <i_f3d_flags>  (1) 
0

>  <num_sample>  (1) 
100

>  <b_lp_Chiralities_Consistent>  (1) 
1

>  <r_epik_Charging_Adjusted_Penalty>  (1) 
0.90916677635763199

>  <r_epik_Ionization_Penalty>  (1) 
0.45507897092921873

>  <r_epik_Ionization_Penalty_Charging>  (1) 
0.45507471778648678

>  <r_epik_Ionization_Penalty_Neutral>  (1) 
4.2531427319391784e-06

>  <r_epik_State_Penalty>  (1) 
0.45409205857114521

>  <r_glide_ring_energy>  (1) 
0

>  <r_i_docking_score>  (1) 
-2.9716948284379692

>  <r_i_glide_ecoul>  (1) 
-11.839235089731513

>  <r_i_glide_eff_state_penalty>  (1) 
0.45409205857114521

>  <r_i_glide_einternal>  (1) 
38.85324896653502

>  <r_i_glide_emodel>  (1) 
8.6740735925949792

>  <r_i_glide_emodel_strain>  (1) 
18.562513889561814

>  <r_i_glide_energy>  (1) 
-17.475334276222341

>  <r_i_glide_erotb>  (1) 
0.82188833391367333

>  <r_i_glide_esite>  (1) 
-0.1716309468932723

>  <r_i_glide_evdw>  (1) 
-5.6360991864908287

>  <r_i_glide_gscore>  (1) 
-3.4257868870091146

>  <r_i_glide_gscore_strain>  (1) 
3.6406284723904534

>  <r_i_glide_hbond>  (1) 
-0.85029075753676797

>  <r_i_glide_ligand_efficiency>  (1) 
-0.076197303293281254

>  <r_i_glide_ligand_efficiency_ln>  (1) 
-0.63721572779127289

>  <r_i_glide_ligand_efficiency_sa>  (1) 
-0.25840116685499648

>  <r_i_glide_lipo>  (1) 
-2.9693882889731156

>  <r_i_glide_metal>  (1) 
-0

>  <r_i_glide_rewards>  (1) 
-1.839303477125817

>  <r_lp_Energy>  (1) 
28.475997

>  <s_epik_Chemistry_Notes>  (1) 
This compound contains an acetal/aminal-like group ( X-CH(R)-Y where X, Y are N, S, or O) that may be acid/base labile, releasing an aldehyde.

>  <s_epik_cmdline>  (1) 
J2VwaWtfcHl0aG9uJywgJy1waHQnLCAnMS4wJywgJy1waCcsICc3LjQnLCAnLXRuJywgJzgnLCAnLW1hJywgJzUwMCcsICctaW1hZScsICc8aW5maWxlLm1hZT4nLCAnLW9tYWUnLCAnPG91dGZpbGUubWFlPic=

>  <s_epik_input>  (1) 
W0NIMl0xW0NIMl1bQ0hdMVtDSDJdW0NAQEhdKFtDQEBIXShDKD1PKVtOSDJdKVtDSDJdQyg9TylbT0hdKVtDQEBIXShbQ0gyXVtPSF0pW0NIMl1bQ0gyXUMoPU8pTihbQ0gyXVtPSF0pW0NIMl1bQ0BASF0oW1MrXShbT0hdKVtPSF0pW0NASF0oW0NIM10pTjJbQ0gyXVtDSDJdW0NASF0oW09IXSlbQ0BASF0yW0NASF0oRilbQ0gzXQ==

>  <s_glide_docking_method>  (1) 
confgen

>  <s_i_glide_gridfile>  (1) 
gpcr_5ht2c_6bqh_protein_autoprepared_prepared

>  <s_lp_Force_Field>  (1) 
S-OPLS

>  <s_lp_Variant>  (1) 
DiffSBDD_93-9

>  <s_m_source_file>  (1) 
generated_GPCR_5HT2C_ligand_DiffSBDD_2026-06-23_prepared.sdf

>  <GenAI_Model>  (1) 
DiffSBDD

>  <Protein>  (1) 
GPCR_5HT2C

$$$$
DiffSBDD_14
     RDKit          3D

  0  0  0  0  0  0  0  0  0  0999 V3000
M  V30 BEGIN CTAB
M  V30 COUNTS 49 48 0 0 1
M  V30 BEGIN ATOM
M  V30 1 C 38.224943 29.187083 57.491789 0
M  V30 2 C 39.982776 28.348188 51.767759 0
M  V30 3 C 38.127219 29.146225 59.004908 0
M  V30 4 C 37.962902 27.463721 53.046057 0
M  V30 5 O 35.881058 31.737745 61.367756 0 CHG=-1
M  V30 6 N 36.845135 33.337768 58.567764 0 CHG=1
M  V30 7 C 38.865215 28.265094 56.755406 0
M  V30 8 C 37.108031 32.134743 59.369494 0 CFG=2
M  V30 9 C 39.738830 29.812560 52.090528 0
M  V30 10 C 38.753205 25.788661 54.829786 0
M  V30 11 C 38.174857 27.188468 54.549839 0 CFG=1
M  V30 12 C 36.731900 32.469191 60.818119 0
M  V30 13 C 39.798602 30.710249 50.846931 0
M  V30 14 O 37.296586 33.456292 61.340373 0
M  V30 15 C 38.590058 31.701784 59.217582 0
M  V30 16 O 38.881651 30.146408 61.071880 0
M  V30 17 C 41.116211 30.639685 50.070082 0
M  V30 18 C 39.212568 27.323684 52.186438 0
M  V30 19 C 38.965592 28.313621 55.244095 0
M  V30 20 C 38.952559 30.264722 59.668126 0 CFG=1
M  V30 21 H 37.742929 30.020567 56.999854 0
M  V30 22 H 40.845151 28.137760 51.159451 0
M  V30 23 H 38.474437 28.174422 59.359981 0
M  V30 24 H 37.077813 29.220895 59.289866 0
M  V30 25 H 37.249956 26.734867 52.667571 0
M  V30 26 H 37.463642 28.418974 52.899633 0
M  V30 27 H 35.890530 33.619415 58.734132 0
M  V30 28 H 37.471989 34.074272 58.856315 0
M  V30 29 H 39.346706 27.431047 57.244814 0
M  V30 30 H 36.442646 31.363397 58.981746 0
M  V30 31 H 38.804597 29.978738 52.611072 0
M  V30 32 H 40.496910 30.137689 52.798982 0
M  V30 33 H 39.762356 25.680353 54.432233 0
M  V30 34 H 38.797759 25.579266 55.898232 0
M  V30 35 H 38.125583 25.016422 54.384865 0
M  V30 36 H 37.175904 27.197511 54.979907 0
M  V30 37 H 38.979956 30.478065 50.167764 0
M  V30 38 H 39.645154 31.737756 51.171367 0
M  V30 39 H 39.241679 32.407964 59.736117 0
M  V30 40 H 38.860464 31.799171 58.165878 0
M  V30 41 H 39.141773 29.273807 61.325266 0
M  V30 42 H 41.171795 31.460830 49.367761 0
M  V30 43 H 41.985732 30.704132 50.720990 0
M  V30 44 H 41.188990 29.737753 49.473763 0
M  V30 45 H 39.482884 26.317643 51.903138 0
M  V30 46 H 38.592464 29.282383 54.909614 0
M  V30 47 H 40.018481 28.275407 54.967744 0
M  V30 48 H 39.998471 30.092838 59.411368 0
M  V30 49 H 36.951318 33.118815 57.586693 0
M  V30 END ATOM
M  V30 BEGIN BOND
M  V30 1 1 3 1
M  V30 2 2 7 1
M  V30 3 1 8 6
M  V30 4 1 9 2
M  V30 5 1 11 4
M  V30 6 1 11 10
M  V30 7 1 12 5
M  V30 8 1 12 8
M  V30 9 1 13 9
M  V30 10 2 14 12
M  V30 11 1 15 8
M  V30 12 1 17 13
M  V30 13 2 18 2
M  V30 14 1 18 4
M  V30 15 1 19 7
M  V30 16 1 19 11
M  V30 17 1 20 3
M  V30 18 1 20 15
M  V30 19 1 20 16
M  V30 20 1 21 1
M  V30 21 1 22 2
M  V30 22 1 23 3
M  V30 23 1 24 3
M  V30 24 1 25 4
M  V30 25 1 26 4
M  V30 26 1 27 6
M  V30 27 1 28 6
M  V30 28 1 29 7
M  V30 29 1 8 30 CFG=3
M  V30 30 1 31 9
M  V30 31 1 32 9
M  V30 32 1 33 10
M  V30 33 1 34 10
M  V30 34 1 35 10
M  V30 35 1 11 36 CFG=1
M  V30 36 1 37 13
M  V30 37 1 38 13
M  V30 38 1 39 15
M  V30 39 1 40 15
M  V30 40 1 41 16
M  V30 41 1 42 17
M  V30 42 1 43 17
M  V30 43 1 44 17
M  V30 44 1 45 18
M  V30 45 1 46 19
M  V30 46 1 47 19
M  V30 47 1 20 48 CFG=3
M  V30 48 1 49 6
M  V30 END BOND
M  V30 END CTAB
M  END
>  <i_epik_Tot_Q>  (1) 
0

>  <i_epik_Tot_abs_Q>  (1) 
2

>  <i_i_glide_confnum>  (1) 
271

>  <i_i_glide_lignum>  (1) 
30

>  <i_i_glide_posenum>  (1) 
376

>  <i_i_glide_rotatable_bonds>  (1) 
12

>  <i_lp_mmshare_version>  (1) 
72125

>  <i_m_source_file_index>  (1) 
15

>  <i_f3d_flags>  (1) 
0

>  <num_sample>  (1) 
100

>  <b_lp_Chiralities_Consistent>  (1) 
1

>  <r_epik_Charging_Adjusted_Penalty>  (1) 
0.00991281995240933

>  <r_epik_Ionization_Penalty>  (1) 
0.0049587358016132182

>  <r_epik_Ionization_Penalty_Charging>  (1) 
0.0049586922537287062

>  <r_epik_Ionization_Penalty_Neutral>  (1) 
4.3547884512074136e-08

>  <r_epik_State_Penalty>  (1) 
0.0049541276986806238

>  <r_glide_ring_energy>  (1) 
0

>  <r_i_docking_score>  (1) 
-2.9035743953181599

>  <r_i_glide_ecoul>  (1) 
-5.8435789413340133

>  <r_i_glide_eff_state_penalty>  (1) 
0.0049541276986806238

>  <r_i_glide_einternal>  (1) 
7.3757991961750511

>  <r_i_glide_emodel>  (1) 
-34.255986120788748

>  <r_i_glide_emodel_strain>  (1) 
0.099954036466805007

>  <r_i_glide_energy>  (1) 
-30.69679282057221

>  <r_i_glide_erotb>  (1) 
4.0583376510001772

>  <r_i_glide_esite>  (1) 
-0.10302903575615385

>  <r_i_glide_evdw>  (1) 
-24.853213879238197

>  <r_i_glide_gscore>  (1) 
-2.9085285230168405

>  <r_i_glide_gscore_strain>  (1) 
0

>  <r_i_glide_hbond>  (1) 
-0.19046979217866569

>  <r_i_glide_ligand_efficiency>  (1) 
-0.14517871976590799

>  <r_i_glide_ligand_efficiency_ln>  (1) 
-0.72666890485522573

>  <r_i_glide_ligand_efficiency_sa>  (1) 
-0.39407567448727587

>  <r_i_glide_lipo>  (1) 
-2.7644070987004996

>  <r_i_glide_metal>  (1) 
-0

>  <r_i_glide_rewards>  (1) 
-1.7897627122196855

>  <r_lp_Energy>  (1) 
-3.5603029999999998

>  <s_epik_cmdline>  (1) 
J2VwaWtfcHl0aG9uJywgJy1waHQnLCAnMS4wJywgJy1waCcsICc3LjQnLCAnLXRuJywgJzgnLCAnLW1hJywgJzUwMCcsICctaW1hZScsICc8aW5maWxlLm1hZT4nLCAnLW9tYWUnLCAnPG91dGZpbGUubWFlPic=

>  <s_epik_input>  (1) 
W09IXUMoPU8pW0NAQEhdKFtOSDJdKVtDSDJdW0NAQEhdKFtPSF0pW0NIMl0vW0NIXT1bQ0hdL1tDSDJdW0NAQEhdKFtDSDNdKVtDSDJdL1tDSF09W0NIXVxbQ0gyXVtDSDJdW0NIM10=

>  <s_glide_docking_method>  (1) 
confgen

>  <s_i_glide_gridfile>  (1) 
gpcr_5ht2c_6bqh_protein_autoprepared_prepared

>  <s_lp_Force_Field>  (1) 
S-OPLS

>  <s_lp_Variant>  (1) 
DiffSBDD_14-8

>  <s_m_source_file>  (1) 
generated_GPCR_5HT2C_ligand_DiffSBDD_2026-06-23_prepared.sdf

>  <GenAI_Model>  (1) 
DiffSBDD

>  <Protein>  (1) 
GPCR_5HT2C

$$$$
DiffSBDD_93
     RDKit          3D

  0  0  0  0  0  0  0  0  0  0999 V3000
M  V30 BEGIN CTAB
M  V30 COUNTS 83 84 0 0 1
M  V30 BEGIN ATOM
M  V30 1 C 36.731866 31.684540 61.156161 0
M  V30 2 O 37.649496 31.337811 62.167707 0
M  V30 3 C 37.923332 38.937758 59.470158 0
M  V30 4 C 39.523340 29.447231 52.591140 0
M  V30 5 O 36.835164 30.058411 58.937688 0
M  V30 6 C 38.068987 26.368679 55.720439 0
M  V30 7 N 37.887910 25.715787 54.573080 0
M  V30 8 O 37.245443 26.340353 56.629935 0
M  V30 9 O 40.449305 35.337728 60.567818 0
M  V30 10 C 40.649781 29.365246 51.580328 0
M  V30 11 C 37.488059 37.488995 59.184369 0
M  V30 12 C 38.340292 31.445226 57.663121 0
M  V30 13 C 38.285763 33.239843 59.926084 0
M  V30 14 C 39.420118 28.547663 55.082354 0 CFG=2
M  V30 15 C 39.386501 27.163878 55.874427 0 CFG=1
M  V30 16 C 36.969749 37.821444 61.376919 0 CFG=1
M  V30 17 C 36.941524 35.447025 60.541436 0 CFG=1
M  V30 18 C 36.034897 35.024218 59.367870 0
M  V30 19 C 38.970181 30.169205 57.065059 0
M  V30 20 S 39.436981 34.939980 61.849363 0 CHG=1
M  V30 21 O 36.785325 30.909517 54.567781 0
M  V30 22 N 37.466776 31.998148 59.931642 0
M  V30 23 O 40.172554 33.526222 62.435356 0
M  V30 24 O 39.103105 39.097803 61.367759 0
M  V30 25 F 38.143891 37.094205 63.340191 0
M  V30 26 C 39.231920 29.254600 51.118865 0
M  V30 27 C 37.122492 29.765661 55.320989 0
M  V30 28 C 38.630577 29.792489 55.613896 0 CFG=2
M  V30 29 C 37.479363 31.109881 58.905070 0
M  V30 30 C 39.847023 27.046915 57.374797 0
M  V30 31 C 35.839083 36.789475 63.569508 0
M  V30 32 C 37.940892 34.329585 60.997979 0 CFG=2
M  V30 33 O 41.951119 28.076381 56.970088 0
M  V30 34 C 39.193960 28.302065 53.544254 0
M  V30 35 C 36.978673 37.571064 62.910093 0 CFG=2
M  V30 36 C 41.079881 27.836952 57.826022 0
M  V30 37 C 37.743045 39.105726 60.961107 0 CFG=1
M  V30 38 O 41.117217 28.190249 59.024948 0 CHG=-1
M  V30 39 N 37.529919 36.806150 60.475868 0
M  V30 40 H 36.055464 32.483093 61.457004 0
M  V30 41 H 36.065612 30.829065 61.042115 0
M  V30 42 H 38.274897 30.712953 61.822146 0
M  V30 43 H 38.845139 39.331707 59.220149 0
M  V30 44 H 37.645139 39.701929 58.773824 0
M  V30 45 H 39.272526 30.438166 52.955889 0
M  V30 46 H 38.592258 25.758263 53.853247 0
M  V30 47 H 37.044549 25.181432 54.428105 0
M  V30 48 H 40.444852 34.590296 59.992971 0
M  V30 49 H 41.175744 30.284211 51.331358 0
M  V30 50 H 41.245415 28.461430 51.540777 0
M  V30 51 H 38.045137 36.994467 58.407866 0
M  V30 52 H 36.464525 37.511493 58.818679 0
M  V30 53 H 37.707308 31.958416 56.940452 0
M  V30 54 H 39.164047 32.121550 57.868163 0
M  V30 55 H 38.307435 33.723816 58.951500 0
M  V30 56 H 39.303326 32.890343 60.087152 0
M  V30 57 H 40.445675 28.886573 55.159390 0
M  V30 58 H 40.128152 26.556292 55.355766 0
M  V30 59 H 35.928088 37.984105 61.091950 0
M  V30 60 H 36.220246 35.473278 61.344659 0
M  V30 61 H 35.544024 34.069719 59.560207 0
M  V30 62 H 35.245325 35.748918 59.191830 0
M  V30 63 H 36.591744 34.923274 58.440618 0
M  V30 64 H 40.045179 30.285622 57.132017 0
M  V30 65 H 38.740282 29.322485 57.694391 0
M  V30 66 H 36.429184 31.552899 55.174199 0
M  V30 67 H 40.311193 33.662649 63.360933 0
M  V30 68 H 39.474572 38.271895 61.092676 0
M  V30 69 H 38.877166 28.277414 50.793271 0
M  V30 70 H 38.845221 30.104692 50.567741 0
M  V30 71 H 36.845186 28.891378 54.742376 0
M  V30 72 H 36.530718 29.737817 56.234793 0
M  V30 73 H 39.038816 30.637409 55.061046 0
M  V30 74 H 39.039516 27.279268 58.067114 0
M  V30 75 H 40.082538 26.001225 57.578023 0
M  V30 76 H 34.866285 37.233542 63.367723 0
M  V30 77 H 35.804953 35.738725 63.297542 0
M  V30 78 H 35.970369 36.816327 64.651138 0
M  V30 79 H 37.475432 33.896832 61.871656 0
M  V30 80 H 39.759645 27.425779 53.221726 0
M  V30 81 H 38.158632 28.033857 53.340831 0
M  V30 82 H 36.845085 38.537768 63.367255 0
M  V30 83 H 37.238812 40.032944 61.238353 0
M  V30 END ATOM
M  V30 BEGIN BOND
M  V30 1 1 2 1
M  V30 2 1 7 6
M  V30 3 2 8 6
M  V30 4 1 10 4
M  V30 5 1 11 3
M  V30 6 1 15 6
M  V30 7 1 15 14
M  V30 8 1 18 17
M  V30 9 1 19 12
M  V30 10 1 20 9
M  V30 11 1 22 1
M  V30 12 1 22 13
M  V30 13 1 23 20
M  V30 14 1 26 4
M  V30 15 1 26 10
M  V30 16 1 27 21
M  V30 17 1 28 14
M  V30 18 1 28 19
M  V30 19 1 28 27
M  V30 20 2 29 5
M  V30 21 1 29 12
M  V30 22 1 29 22
M  V30 23 1 30 15
M  V30 24 1 32 13
M  V30 25 1 32 17
M  V30 26 1 32 20
M  V30 27 1 34 4
M  V30 28 1 34 14
M  V30 29 1 35 16
M  V30 30 1 35 25
M  V30 31 1 35 31
M  V30 32 1 36 30
M  V30 33 2 36 33
M  V30 34 1 37 3
M  V30 35 1 37 16
M  V30 36 1 37 24
M  V30 37 1 38 36
M  V30 38 1 39 11
M  V30 39 1 39 16
M  V30 40 1 39 17
M  V30 41 1 40 1
M  V30 42 1 41 1
M  V30 43 1 42 2
M  V30 44 1 43 3
M  V30 45 1 44 3
M  V30 46 1 45 4
M  V30 47 1 46 7
M  V30 48 1 47 7
M  V30 49 1 48 9
M  V30 50 1 49 10
M  V30 51 1 50 10
M  V30 52 1 51 11
M  V30 53 1 52 11
M  V30 54 1 53 12
M  V30 55 1 54 12
M  V30 56 1 55 13
M  V30 57 1 56 13
M  V30 58 1 14 57 CFG=3
M  V30 59 1 15 58 CFG=3
M  V30 60 1 16 59 CFG=3
M  V30 61 1 17 60 CFG=1
M  V30 62 1 61 18
M  V30 63 1 62 18
M  V30 64 1 63 18
M  V30 65 1 64 19
M  V30 66 1 65 19
M  V30 67 1 66 21
M  V30 68 1 67 23
M  V30 69 1 68 24
M  V30 70 1 69 26
M  V30 71 1 70 26
M  V30 72 1 71 27
M  V30 73 1 72 27
M  V30 74 1 28 73 CFG=3
M  V30 75 1 74 30
M  V30 76 1 75 30
M  V30 77 1 76 31
M  V30 78 1 77 31
M  V30 79 1 78 31
M  V30 80 1 32 79 CFG=1
M  V30 81 1 80 34
M  V30 82 1 81 34
M  V30 83 1 35 82 CFG=1
M  V30 84 1 37 83 CFG=3
M  V30 END BOND
M  V30 END CTAB
M  END
>  <i_epik_Tot_Q>  (1) 
0

>  <i_epik_Tot_abs_Q>  (1) 
2

>  <i_i_glide_confnum>  (1) 
8653

>  <i_i_glide_lignum>  (1) 
216

>  <i_i_glide_posenum>  (1) 
195

>  <i_i_glide_rotatable_bonds>  (1) 
24

>  <i_lp_mmshare_version>  (1) 
72125

>  <i_m_source_file_index>  (1) 
94

>  <i_f3d_flags>  (1) 
0

>  <num_sample>  (1) 
100

>  <b_lp_Chiralities_Consistent>  (1) 
1

>  <r_epik_Charging_Adjusted_Penalty>  (1) 
0.37121505818338452

>  <r_epik_Ionization_Penalty>  (1) 
0.37121789513022985

>  <r_epik_Ionization_Penalty_Charging>  (1) 
0.00098257200063165957

>  <r_epik_Ionization_Penalty_Neutral>  (1) 
0.37023532312959817

>  <r_epik_State_Penalty>  (1) 
0.37023248618275284

>  <r_glide_ring_energy>  (1) 
0

>  <r_i_docking_score>  (1) 
-2.8812919407719328

>  <r_i_glide_ecoul>  (1) 
-6.7030697583305621

>  <r_i_glide_eff_state_penalty>  (1) 
0.37023248618275284

>  <r_i_glide_einternal>  (1) 
34.931524278638513

>  <r_i_glide_emodel>  (1) 
-10.768633605610102

>  <r_i_glide_emodel_strain>  (1) 
17.262066358560148

>  <r_i_glide_energy>  (1) 
-33.264859979971682

>  <r_i_glide_erotb>  (1) 
0.82577533054746977

>  <r_i_glide_esite>  (1) 
-0.17581548895156818

>  <r_i_glide_evdw>  (1) 
-26.561790221641118

>  <r_i_glide_gscore>  (1) 
-3.2515244269546857

>  <r_i_glide_gscore_strain>  (1) 
3.3155165896400369

>  <r_i_glide_hbond>  (1) 
-0.59800334322758775

>  <r_i_glide_ligand_efficiency>  (1) 
-0.073879280532613667

>  <r_i_glide_ligand_efficiency_ln>  (1) 
-0.61783078243710077

>  <r_i_glide_ligand_efficiency_sa>  (1) 
-0.25054026154385323

>  <r_i_glide_lipo>  (1) 
-2.5159720720134731

>  <r_i_glide_metal>  (1) 
-0

>  <r_i_glide_rewards>  (1) 
-1.7694754681179228

>  <r_lp_Energy>  (1) 
12.407411999999999

>  <s_epik_Chemistry_Notes>  (1) 
This compound contains an acetal/aminal-like group ( X-CH(R)-Y where X, Y are N, S, or O) that may be acid/base labile, releasing an aldehyde.

>  <s_epik_cmdline>  (1) 
J2VwaWtfcHl0aG9uJywgJy1waHQnLCAnMS4wJywgJy1waCcsICc3LjQnLCAnLXRuJywgJzgnLCAnLW1hJywgJzUwMCcsICctaW1hZScsICc8aW5maWxlLm1hZT4nLCAnLW9tYWUnLCAnPG91dGZpbGUubWFlPic=

>  <s_epik_input>  (1) 
W0NIMl0xW0NIMl1bQ0hdMVtDSDJdW0NAQEhdKFtDQEBIXShDKD1PKVtOSDJdKVtDSDJdQyg9TylbT0hdKVtDQEBIXShbQ0gyXVtPSF0pW0NIMl1bQ0gyXUMoPU8pTihbQ0gyXVtPSF0pW0NIMl1bQ0BASF0oW1MrXShbT0hdKVtPSF0pW0NASF0oW0NIM10pTjJbQ0gyXVtDSDJdW0NASF0oW09IXSlbQ0BASF0yW0NASF0oRilbQ0gzXQ==

>  <s_glide_docking_method>  (1) 
confgen

>  <s_i_glide_gridfile>  (1) 
gpcr_5ht2c_6bqh_protein_autoprepared_prepared

>  <s_lp_Force_Field>  (1) 
S-OPLS

>  <s_lp_Variant>  (1) 
DiffSBDD_93-4

>  <s_m_source_file>  (1) 
generated_GPCR_5HT2C_ligand_DiffSBDD_2026-06-23_prepared.sdf

>  <GenAI_Model>  (1) 
DiffSBDD

>  <Protein>  (1) 
GPCR_5HT2C

$$$$
DiffSBDD_6
     RDKit          3D

  0  0  0  0  0  0  0  0  0  0999 V3000
M  V30 BEGIN CTAB
M  V30 COUNTS 44 44 0 0 1
M  V30 BEGIN ATOM
M  V30 1 C 38.108957 25.800846 56.184683 0
M  V30 2 C 40.935329 30.609626 50.856585 0
M  V30 3 C 38.629072 27.101258 52.644626 0
M  V30 4 C 38.330444 28.606770 52.571479 0 CFG=1
M  V30 5 C 38.557194 30.180115 56.211356 0 CFG=2
M  V30 6 C 37.806714 29.121451 53.927323 0
M  V30 7 C 39.201578 29.859447 57.549917 0
M  V30 8 C 37.036889 24.883605 56.785244 0
M  V30 9 C 38.894156 29.430827 54.941395 0 CFG=1
M  V30 10 O 39.529958 29.302162 52.243965 0
M  V30 11 C 39.382751 30.848013 55.132610 0
M  V30 12 C 39.682167 29.744105 50.897733 0
M  V30 13 O 38.964212 28.934039 59.725813 0
M  V30 14 O 39.329332 26.540636 58.567722 0
M  V30 15 C 39.804482 28.581508 49.928857 0
M  V30 16 C 38.464062 28.805976 58.405729 0 CFG=2
M  V30 17 O 38.045174 27.098336 56.760770 0
M  V30 18 C 38.667026 27.357325 57.923018 0
M  V30 19 H 37.938167 25.898128 55.114189 0
M  V30 20 H 39.103752 25.367158 56.301904 0
M  V30 21 H 41.014933 31.148515 49.912353 0
M  V30 22 H 40.907508 31.337760 51.664624 0
M  V30 23 H 41.834773 30.006429 50.967705 0
M  V30 24 H 37.740366 26.545693 52.944963 0
M  V30 25 H 38.944125 26.698263 51.684407 0
M  V30 26 H 39.417871 26.887301 53.365969 0
M  V30 27 H 37.561020 28.778227 51.817641 0
M  V30 28 H 37.531131 30.535153 56.300999 0
M  V30 29 H 37.103217 28.410380 54.361422 0
M  V30 30 H 37.245144 30.040424 53.767862 0
M  V30 31 H 39.245104 30.797349 58.104780 0
M  V30 32 H 40.235811 29.552091 57.392828 0
M  V30 33 H 37.041287 23.910227 56.295107 0
M  V30 34 H 37.201562 24.720802 57.851152 0
M  V30 35 H 36.045094 25.316747 56.660611 0
M  V30 36 H 39.639609 28.644940 55.044565 0
M  V30 37 H 38.908941 31.635814 54.549576 0
M  V30 38 H 40.445141 30.987983 55.316775 0
M  V30 39 H 38.845141 30.355191 50.567758 0
M  V30 40 H 38.651369 28.198993 60.231712 0
M  V30 41 H 40.178536 28.937753 48.967778 0
M  V30 42 H 40.445236 27.796303 50.310372 0
M  V30 43 H 38.845136 28.113038 49.767779 0
M  V30 44 H 37.395535 29.023675 58.425147 0
M  V30 END ATOM
M  V30 BEGIN BOND
M  V30 1 1 4 3
M  V30 2 1 6 4
M  V30 3 1 7 5
M  V30 4 1 8 1
M  V30 5 1 9 5
M  V30 6 1 9 6
M  V30 7 1 10 4
M  V30 8 1 11 5
M  V30 9 1 11 9
M  V30 10 1 12 2
M  V30 11 1 12 10
M  V30 12 1 15 12
M  V30 13 1 16 7
M  V30 14 1 16 13
M  V30 15 1 17 1
M  V30 16 2 18 14
M  V30 17 1 18 16
M  V30 18 1 18 17
M  V30 19 1 19 1
M  V30 20 1 20 1
M  V30 21 1 21 2
M  V30 22 1 22 2
M  V30 23 1 23 2
M  V30 24 1 24 3
M  V30 25 1 25 3
M  V30 26 1 26 3
M  V30 27 1 4 27 CFG=3
M  V30 28 1 5 28 CFG=1
M  V30 29 1 29 6
M  V30 30 1 30 6
M  V30 31 1 31 7
M  V30 32 1 32 7
M  V30 33 1 33 8
M  V30 34 1 34 8
M  V30 35 1 35 8
M  V30 36 1 9 36 CFG=1
M  V30 37 1 37 11
M  V30 38 1 38 11
M  V30 39 1 39 12
M  V30 40 1 40 13
M  V30 41 1 41 15
M  V30 42 1 42 15
M  V30 43 1 43 15
M  V30 44 1 16 44 CFG=1
M  V30 END BOND
M  V30 END CTAB
M  END
>  <i_epik_Tot_Q>  (1) 
0

>  <i_epik_Tot_abs_Q>  (1) 
0

>  <i_i_glide_confnum>  (1) 
291

>  <i_i_glide_lignum>  (1) 
9

>  <i_i_glide_posenum>  (1) 
176

>  <i_i_glide_rotatable_bonds>  (1) 
10

>  <i_lp_mmshare_version>  (1) 
72125

>  <i_m_source_file_index>  (1) 
7

>  <i_f3d_flags>  (1) 
0

>  <num_sample>  (1) 
100

>  <b_lp_Chiralities_Consistent>  (1) 
1

>  <r_epik_Charging_Adjusted_Penalty>  (1) 
0

>  <r_epik_Ionization_Penalty>  (1) 
1.8372047820881467e-05

>  <r_epik_Ionization_Penalty_Charging>  (1) 
0

>  <r_epik_Ionization_Penalty_Neutral>  (1) 
1.8372047820881467e-05

>  <r_epik_State_Penalty>  (1) 
-0

>  <r_glide_ring_energy>  (1) 
0

>  <r_i_docking_score>  (1) 
-2.8398059767111943

>  <r_i_glide_ecoul>  (1) 
-0.47995252608320038

>  <r_i_glide_eff_state_penalty>  (1) 
-0

>  <r_i_glide_einternal>  (1) 
6.4665333344886209

>  <r_i_glide_emodel>  (1) 
-31.330054822671134

>  <r_i_glide_emodel_strain>  (1) 
1.0935078422093234

>  <r_i_glide_energy>  (1) 
-29.777048602571657

>  <r_i_glide_erotb>  (1) 
3.7046454867807075

>  <r_i_glide_esite>  (1) 
0

>  <r_i_glide_evdw>  (1) 
-29.297096076488458

>  <r_i_glide_gscore>  (1) 
-2.8398059767111943

>  <r_i_glide_gscore_strain>  (1) 
0

>  <r_i_glide_hbond>  (1) 
0

>  <r_i_glide_ligand_efficiency>  (1) 
-0.15776699870617747

>  <r_i_glide_ligand_efficiency_ln>  (1) 
-0.72995748309845454

>  <r_i_glide_ligand_efficiency_sa>  (1) 
-0.41346650414938074

>  <r_i_glide_lipo>  (1) 
-2.815750716128846

>  <r_i_glide_metal>  (1) 
-0

>  <r_i_glide_rewards>  (1) 
-2.1918530646261525

>  <r_lp_Energy>  (1) 
9.3243790000000004

>  <r_lp_tautomer_probability>  (1) 
1

>  <s_epik_Chemistry_Notes>  (1) 
This compound has an ester and may undergo hydrolysis at high or low pH.

>  <s_epik_cmdline>  (1) 
J2VwaWtfcHl0aG9uJywgJy1waHQnLCAnMS4wJywgJy1waCcsICc3LjQnLCAnLXRuJywgJzgnLCAnLW1hJywgJzUwMCcsICctaW1hZScsICc8aW5maWxlLm1hZT4nLCAnLW9tYWUnLCAnPG91dGZpbGUubWFlPic=

>  <s_epik_input>  (1) 
W0NIM11bQ0gyXU9DKD1PKVtDQEBIXShbT0hdKVtDSDJdW0NAQEhdMVtDSF0oW0NIMl0xKVtDSDJdW0NASF0oW0NIM10pT1tDSF0oW0NIM10pW0NIM10=

>  <s_glide_docking_method>  (1) 
confgen

>  <s_i_glide_gridfile>  (1) 
gpcr_5ht2c_6bqh_protein_autoprepared_prepared

>  <s_lp_Force_Field>  (1) 
S-OPLS

>  <s_lp_Variant>  (1) 
DiffSBDD_6-1

>  <s_m_source_file>  (1) 
generated_GPCR_5HT2C_ligand_DiffSBDD_2026-06-23_prepared.sdf

>  <GenAI_Model>  (1) 
DiffSBDD

>  <Protein>  (1) 
GPCR_5HT2C

$$$$
DiffSBDD_93
     RDKit          3D

  0  0  0  0  0  0  0  0  0  0999 V3000
M  V30 BEGIN CTAB
M  V30 COUNTS 84 85 0 0 1
M  V30 BEGIN ATOM
M  V30 1 C 37.735003 34.408351 59.194726 0
M  V30 2 O 37.280594 33.737725 58.046697 0
M  V30 3 C 41.083531 33.090373 62.853156 0
M  V30 4 C 38.647344 30.425962 55.685625 0
M  V30 5 O 35.446957 33.268853 61.767731 0
M  V30 6 C 40.045365 29.616557 60.692811 0
M  V30 7 N 39.644384 28.754003 61.626453 0
M  V30 8 O 40.434410 30.751476 60.963228 0
M  V30 9 O 38.832325 39.258324 60.967762 0
M  V30 10 C 39.123177 31.822630 55.353728 0
M  V30 11 C 39.822823 33.884674 62.525283 0
M  V30 12 C 36.213955 31.994871 59.920521 0
M  V30 13 C 36.928146 35.529073 61.281081 0
M  V30 14 C 39.227733 30.052578 58.199975 0 CFG=2
M  V30 15 C 40.016188 29.122567 59.231056 0 CFG=1
M  V30 16 C 41.057299 35.231641 64.099460 0 CFG=1
M  V30 17 C 38.936234 36.227702 62.877283 0 CFG=1
M  V30 18 C 39.271642 37.545532 63.560609 0
M  V30 19 C 37.577231 31.276209 59.838161 0
M  V30 20 S 37.588784 38.091084 60.937551 0 CHG=1
M  V30 21 O 35.645143 29.337767 58.945921 0
M  V30 22 N 36.947667 34.319939 60.441951 0
M  V30 23 O 36.445322 38.533500 62.116394 0
M  V30 24 O 42.135722 33.127367 64.999692 0
M  V30 25 F 39.500018 36.137802 65.857462 0
M  V30 26 C 39.277211 30.709865 54.341201 0
M  V30 27 C 36.992015 29.075139 58.689819 0
M  V30 28 C 37.756161 30.376795 58.581372 0 CFG=2
M  V30 29 C 36.174002 33.249938 60.787712 0
M  V30 30 C 41.502436 28.831243 58.899076 0
M  V30 31 C 41.587280 35.794002 66.567613 0
M  V30 32 C 38.224972 36.402704 61.447746 0 CFG=2
M  V30 33 O 42.920564 27.735550 57.368000 0
M  V30 34 C 39.360814 29.570681 56.722450 0
M  V30 35 C 40.517257 35.316128 65.587598 0 CFG=2
M  V30 36 C 41.781443 27.740416 57.873579 0
M  V30 37 C 41.875428 33.925652 63.861033 0 CFG=1
M  V30 38 O 40.856753 26.937930 57.618277 0 CHG=-1
M  V30 39 N 40.108352 35.282840 62.918191 0 CFG=2 CHG=1
M  V30 40 H 37.645093 35.452778 58.904621 0
M  V30 41 H 38.783239 34.159050 59.367490 0
M  V30 42 H 37.051469 34.359805 57.370510 0
M  V30 43 H 40.831044 32.099802 63.236778 0
M  V30 44 H 41.681043 32.948542 61.950646 0
M  V30 45 H 37.569331 30.276823 55.661564 0
M  V30 46 H 39.342206 27.830093 61.361266 0
M  V30 47 H 39.643776 29.026268 62.599714 0
M  V30 48 H 38.901051 39.592160 60.084548 0
M  V30 49 H 38.360916 32.576986 55.170488 0
M  V30 50 H 40.030230 32.181588 55.839523 0
M  V30 51 H 38.980108 33.473579 63.076102 0
M  V30 52 H 39.573272 33.798969 61.470266 0
M  V30 53 H 35.516736 31.306947 60.394429 0
M  V30 54 H 35.739696 32.190357 58.967788 0
M  V30 55 H 36.475824 35.368630 62.258518 0
M  V30 56 H 36.160334 36.085808 60.744437 0
M  V30 57 H 39.645101 31.035390 58.159865 0
M  V30 58 H 39.513009 28.156490 59.246647 0
M  V30 59 H 41.733164 36.076186 63.963637 0
M  V30 60 H 38.223508 35.772297 63.545366 0
M  V30 61 H 38.367048 37.796448 64.107725 0
M  V30 62 H 40.045144 37.540953 64.305859 0
M  V30 63 H 39.645630 38.314111 62.905898 0
M  V30 64 H 38.392223 31.992323 59.876833 0
M  V30 65 H 37.665886 30.678480 60.742491 0
M  V30 66 H 35.358808 29.985759 58.311815 0
M  V30 67 H 35.650200 38.740385 61.646514 0
M  V30 68 H 42.785879 33.551513 65.539970 0
M  V30 69 H 40.283176 30.339789 54.154440 0
M  V30 70 H 38.619760 30.727697 53.475334 0
M  V30 71 H 37.076666 28.466319 57.788788 0
M  V30 72 H 37.433598 28.537926 59.520073 0
M  V30 73 H 37.322666 30.955549 57.766521 0
M  V30 74 H 42.011253 29.737697 58.586384 0
M  V30 75 H 42.034881 28.481200 59.779417 0
M  V30 76 H 42.539263 35.292575 66.421218 0
M  V30 77 H 41.763024 36.867595 66.502236 0
M  V30 78 H 41.244857 35.586505 67.580988 0
M  V30 79 H 38.967986 36.152351 60.692205 0
M  V30 80 H 40.408745 29.545921 56.430936 0
M  V30 81 H 39.006895 28.546928 56.614335 0
M  V30 82 H 40.201095 34.335596 65.946797 0
M  V30 83 H 42.845052 34.159570 63.425908 0
M  V30 84 H 40.718843 35.611402 62.185919 0
M  V30 END ATOM
M  V30 BEGIN BOND
M  V30 1 1 2 1
M  V30 2 1 7 6
M  V30 3 2 8 6
M  V30 4 1 10 4
M  V30 5 1 11 3
M  V30 6 1 15 6
M  V30 7 1 15 14
M  V30 8 1 18 17
M  V30 9 1 19 12
M  V30 10 1 20 9
M  V30 11 1 22 1
M  V30 12 1 22 13
M  V30 13 1 23 20
M  V30 14 1 26 4
M  V30 15 1 26 10
M  V30 16 1 27 21
M  V30 17 1 28 14
M  V30 18 1 28 19
M  V30 19 1 28 27
M  V30 20 2 29 5
M  V30 21 1 29 12
M  V30 22 1 29 22
M  V30 23 1 30 15
M  V30 24 1 32 13
M  V30 25 1 32 17
M  V30 26 1 32 20
M  V30 27 1 34 4
M  V30 28 1 34 14
M  V30 29 1 35 16
M  V30 30 1 35 25
M  V30 31 1 35 31
M  V30 32 1 36 30
M  V30 33 2 36 33
M  V30 34 1 37 3
M  V30 35 1 37 16
M  V30 36 1 37 24
M  V30 37 1 38 36
M  V30 38 1 39 11
M  V30 39 1 39 16
M  V30 40 1 39 17
M  V30 41 1 40 1
M  V30 42 1 41 1
M  V30 43 1 42 2
M  V30 44 1 43 3
M  V30 45 1 44 3
M  V30 46 1 45 4
M  V30 47 1 46 7
M  V30 48 1 47 7
M  V30 49 1 48 9
M  V30 50 1 49 10
M  V30 51 1 50 10
M  V30 52 1 51 11
M  V30 53 1 52 11
M  V30 54 1 53 12
M  V30 55 1 54 12
M  V30 56 1 55 13
M  V30 57 1 56 13
M  V30 58 1 14 57 CFG=3
M  V30 59 1 15 58 CFG=1
M  V30 60 1 16 59 CFG=3
M  V30 61 1 17 60 CFG=1
M  V30 62 1 61 18
M  V30 63 1 62 18
M  V30 64 1 63 18
M  V30 65 1 64 19
M  V30 66 1 65 19
M  V30 67 1 66 21
M  V30 68 1 67 23
M  V30 69 1 68 24
M  V30 70 1 69 26
M  V30 71 1 70 26
M  V30 72 1 71 27
M  V30 73 1 72 27
M  V30 74 1 28 73 CFG=3
M  V30 75 1 74 30
M  V30 76 1 75 30
M  V30 77 1 76 31
M  V30 78 1 77 31
M  V30 79 1 78 31
M  V30 80 1 32 79 CFG=3
M  V30 81 1 80 34
M  V30 82 1 81 34
M  V30 83 1 35 82 CFG=1
M  V30 84 1 37 83 CFG=3
M  V30 85 1 39 84 CFG=3
M  V30 END BOND
M  V30 END CTAB
M  END
>  <i_epik_Tot_Q>  (1) 
1

>  <i_epik_Tot_abs_Q>  (1) 
3

>  <i_i_glide_confnum>  (1) 
6345

>  <i_i_glide_lignum>  (1) 
223

>  <i_i_glide_posenum>  (1) 
10

>  <i_i_glide_rotatable_bonds>  (1) 
24

>  <i_lp_mmshare_version>  (1) 
72125

>  <i_m_source_file_index>  (1) 
94

>  <i_f3d_flags>  (1) 
0

>  <num_sample>  (1) 
100

>  <b_lp_Chiralities_Consistent>  (1) 
1

>  <r_epik_Charging_Adjusted_Penalty>  (1) 
0.90916677635763199

>  <r_epik_Ionization_Penalty>  (1) 
0.45507897092921873

>  <r_epik_Ionization_Penalty_Charging>  (1) 
0.45507471778648678

>  <r_epik_Ionization_Penalty_Neutral>  (1) 
4.2531427319391784e-06

>  <r_epik_State_Penalty>  (1) 
0.45409205857114521

>  <r_glide_ring_energy>  (1) 
0

>  <r_i_docking_score>  (1) 
-2.8329566381896738

>  <r_i_glide_ecoul>  (1) 
-6.7927191273867624

>  <r_i_glide_eff_state_penalty>  (1) 
0.45409205857114521

>  <r_i_glide_einternal>  (1) 
25.717886768883645

>  <r_i_glide_emodel>  (1) 
-18.275859053979772

>  <r_i_glide_emodel_strain>  (1) 
12.921414608439889

>  <r_i_glide_energy>  (1) 
-31.750910026354191

>  <r_i_glide_erotb>  (1) 
0.82188833391367333

>  <r_i_glide_esite>  (1) 
-0.0024138987850488309

>  <r_i_glide_evdw>  (1) 
-24.958190898967427

>  <r_i_glide_gscore>  (1) 
-3.2870486967608192

>  <r_i_glide_gscore_strain>  (1) 
2.2303536521099723

>  <r_i_glide_hbond>  (1) 
-0.46400452279527737

>  <r_i_glide_ligand_efficiency>  (1) 
-0.072639913799735223

>  <r_i_glide_ligand_efficiency_ln>  (1) 
-0.60746632148430657

>  <r_i_glide_ligand_efficiency_sa>  (1) 
-0.2463373068972248

>  <r_i_glide_lipo>  (1) 
-2.1622581861937094

>  <r_i_glide_metal>  (1) 
-0

>  <r_i_glide_rewards>  (1) 
-1.4437966609540436

>  <r_lp_Energy>  (1) 
33.071545

>  <s_epik_Chemistry_Notes>  (1) 
This compound contains an acetal/aminal-like group ( X-CH(R)-Y where X, Y are N, S, or O) that may be acid/base labile, releasing an aldehyde.

>  <s_epik_cmdline>  (1) 
J2VwaWtfcHl0aG9uJywgJy1waHQnLCAnMS4wJywgJy1waCcsICc3LjQnLCAnLXRuJywgJzgnLCAnLW1hJywgJzUwMCcsICctaW1hZScsICc8aW5maWxlLm1hZT4nLCAnLW9tYWUnLCAnPG91dGZpbGUubWFlPic=

>  <s_epik_input>  (1) 
W0NIMl0xW0NIMl1bQ0hdMVtDSDJdW0NAQEhdKFtDQEBIXShDKD1PKVtOSDJdKVtDSDJdQyg9TylbT0hdKVtDQEBIXShbQ0gyXVtPSF0pW0NIMl1bQ0gyXUMoPU8pTihbQ0gyXVtPSF0pW0NIMl1bQ0BASF0oW1MrXShbT0hdKVtPSF0pW0NASF0oW0NIM10pTjJbQ0gyXVtDSDJdW0NASF0oW09IXSlbQ0BASF0yW0NASF0oRilbQ0gzXQ==

>  <s_glide_docking_method>  (1) 
confgen

>  <s_i_glide_gridfile>  (1) 
gpcr_5ht2c_6bqh_protein_autoprepared_prepared

>  <s_lp_Force_Field>  (1) 
S-OPLS

>  <s_lp_Variant>  (1) 
DiffSBDD_93-11

>  <s_m_source_file>  (1) 
generated_GPCR_5HT2C_ligand_DiffSBDD_2026-06-23_prepared.sdf

>  <GenAI_Model>  (1) 
DiffSBDD

>  <Protein>  (1) 
GPCR_5HT2C

$$$$
DiffSBDD_93
     RDKit          3D

  0  0  0  0  0  0  0  0  0  0999 V3000
M  V30 BEGIN CTAB
M  V30 COUNTS 84 85 0 0 1
M  V30 BEGIN ATOM
M  V30 1 C 39.715981 30.620618 62.077142 0
M  V30 2 O 39.245207 30.871158 63.367684 0
M  V30 3 C 36.878567 37.609956 61.338917 0
M  V30 4 C 39.071826 30.892325 54.852731 0
M  V30 5 O 37.215154 30.537786 60.850849 0
M  V30 6 C 39.858219 26.759861 56.557301 0
M  V30 7 N 40.371961 26.425959 57.738115 0
M  V30 8 O 40.445205 26.548902 55.501732 0
M  V30 9 O 41.890064 34.679641 63.945905 0
M  V30 10 C 38.929261 31.046441 53.367757 0
M  V30 11 C 38.231287 37.130745 60.806990 0
M  V30 12 C 37.747531 32.081858 59.117550 0
M  V30 13 C 40.089908 32.726864 60.762660 0
M  V30 14 C 38.429373 29.002948 56.482818 0 CFG=1
M  V30 15 C 38.457109 27.424691 56.554890 0 CFG=1
M  V30 16 C 38.209246 36.465638 63.032527 0 CFG=1
M  V30 17 C 39.961358 35.305064 61.410427 0 CFG=1
M  V30 18 C 41.243581 36.152135 61.465820 0
M  V30 19 C 38.313128 31.310193 57.864042 0
M  V30 20 S 41.114239 33.312189 63.343359 0 CHG=1
M  V30 21 O 39.381297 28.286936 59.625330 0
M  V30 22 N 39.217267 31.574128 61.068525 0
M  V30 23 O 42.437858 32.528095 62.627916 0
M  V30 24 O 36.038580 37.651517 63.635457 0
M  V30 25 F 40.021609 38.055149 63.083210 0
M  V30 26 C 37.710094 31.145846 54.241596 0
M  V30 27 C 39.729371 29.304252 58.702755 0
M  V30 28 C 38.487901 29.735516 57.884215 0 CFG=2
M  V30 29 C 38.026910 31.350421 60.439111 0
M  V30 30 C 37.647474 26.707445 55.414821 0
M  V30 31 C 39.644867 36.931919 65.174547 0
M  V30 32 C 40.008733 33.802399 61.914205 0 CFG=2
M  V30 33 O 36.844489 25.161025 57.054521 0
M  V30 34 C 39.418381 29.532504 55.413319 0
M  V30 35 C 39.110593 37.419470 63.818567 0 CFG=2
M  V30 36 C 37.140130 25.315222 55.848693 0
M  V30 37 C 36.764530 36.907146 62.690104 0 CFG=1
M  V30 38 O 37.059445 24.439949 54.962837 0 CHG=-1
M  V30 39 N 38.660516 36.023573 61.692366 0 CFG=2 CHG=1
M  V30 40 H 39.405833 29.605364 61.830524 0
M  V30 41 H 40.803675 30.574558 62.083499 0
M  V30 42 H 38.906608 30.051747 63.722417 0
M  V30 43 H 36.876854 38.696485 61.443358 0
M  V30 44 H 36.052458 37.349493 60.674938 0
M  V30 45 H 39.545732 31.729754 55.357880 0
M  V30 46 H 39.859276 26.633670 58.588493 0
M  V30 47 H 41.280692 25.988119 57.782439 0
M  V30 48 H 41.754928 34.678491 64.882192 0
M  V30 49 H 39.246326 31.967454 52.895991 0
M  V30 50 H 39.017120 30.154943 52.747290 0
M  V30 51 H 38.906255 37.968497 60.967881 0
M  V30 52 H 38.188709 36.860467 59.751683 0
M  V30 53 H 36.660355 32.079307 59.017225 0
M  V30 54 H 37.987133 33.143541 59.108280 0
M  V30 55 H 39.903822 33.164187 59.789464 0
M  V30 56 H 41.102439 32.355855 60.634709 0
M  V30 57 H 37.432577 29.236425 56.114737 0
M  V30 58 H 37.982837 27.198155 57.508477 0
M  V30 59 H 38.132940 35.737760 63.764555 0
M  V30 60 H 39.850779 35.200937 60.332432 0
M  V30 61 H 42.046171 35.621680 60.964945 0
M  V30 62 H 41.140449 37.105984 60.967729 0
M  V30 63 H 41.578339 36.433453 62.454540 0
M  V30 64 H 37.645427 31.553419 57.041184 0
M  V30 65 H 39.253572 31.771456 57.586835 0
M  V30 66 H 38.567482 28.525929 60.046839 0
M  V30 67 H 42.992405 33.203790 62.269194 0
M  V30 68 H 35.592101 37.057106 64.224230 0
M  V30 69 H 37.000725 30.322530 54.184938 0
M  V30 70 H 37.269048 32.126589 54.406586 0
M  V30 71 H 40.555654 28.991038 58.068318 0
M  V30 72 H 40.142193 30.122154 59.272116 0
M  V30 73 H 37.598978 29.373731 58.404721 0
M  V30 74 H 36.845131 27.301007 54.986797 0
M  V30 75 H 38.263715 26.552527 54.530221 0
M  V30 76 H 40.432230 36.200859 65.078887 0
M  V30 77 H 38.852635 36.497677 65.785225 0
M  V30 78 H 40.045115 37.764746 65.750823 0
M  V30 79 H 39.020666 33.664015 62.353673 0
M  V30 80 H 40.441468 29.553572 55.782137 0
M  V30 81 H 39.428356 28.837133 54.574497 0
M  V30 82 H 38.410684 38.137742 64.167935 0
M  V30 83 H 36.182688 35.994989 62.546664 0
M  V30 84 H 37.978109 35.313418 61.466491 0
M  V30 END ATOM
M  V30 BEGIN BOND
M  V30 1 1 2 1
M  V30 2 1 7 6
M  V30 3 2 8 6
M  V30 4 1 10 4
M  V30 5 1 11 3
M  V30 6 1 15 6
M  V30 7 1 15 14
M  V30 8 1 18 17
M  V30 9 1 19 12
M  V30 10 1 20 9
M  V30 11 1 22 1
M  V30 12 1 22 13
M  V30 13 1 23 20
M  V30 14 1 26 4
M  V30 15 1 26 10
M  V30 16 1 27 21
M  V30 17 1 28 14
M  V30 18 1 28 19
M  V30 19 1 28 27
M  V30 20 2 29 5
M  V30 21 1 29 12
M  V30 22 1 29 22
M  V30 23 1 30 15
M  V30 24 1 32 13
M  V30 25 1 32 17
M  V30 26 1 32 20
M  V30 27 1 34 4
M  V30 28 1 34 14
M  V30 29 1 35 16
M  V30 30 1 35 25
M  V30 31 1 35 31
M  V30 32 1 36 30
M  V30 33 2 36 33
M  V30 34 1 37 3
M  V30 35 1 37 16
M  V30 36 1 37 24
M  V30 37 1 38 36
M  V30 38 1 39 11
M  V30 39 1 39 16
M  V30 40 1 39 17
M  V30 41 1 40 1
M  V30 42 1 41 1
M  V30 43 1 42 2
M  V30 44 1 43 3
M  V30 45 1 44 3
M  V30 46 1 45 4
M  V30 47 1 46 7
M  V30 48 1 47 7
M  V30 49 1 48 9
M  V30 50 1 49 10
M  V30 51 1 50 10
M  V30 52 1 51 11
M  V30 53 1 52 11
M  V30 54 1 53 12
M  V30 55 1 54 12
M  V30 56 1 55 13
M  V30 57 1 56 13
M  V30 58 1 14 57 CFG=3
M  V30 59 1 15 58 CFG=1
M  V30 60 1 16 59 CFG=1
M  V30 61 1 17 60 CFG=3
M  V30 62 1 61 18
M  V30 63 1 62 18
M  V30 64 1 63 18
M  V30 65 1 64 19
M  V30 66 1 65 19
M  V30 67 1 66 21
M  V30 68 1 67 23
M  V30 69 1 68 24
M  V30 70 1 69 26
M  V30 71 1 70 26
M  V30 72 1 71 27
M  V30 73 1 72 27
M  V30 74 1 28 73 CFG=1
M  V30 75 1 74 30
M  V30 76 1 75 30
M  V30 77 1 76 31
M  V30 78 1 77 31
M  V30 79 1 78 31
M  V30 80 1 32 79 CFG=1
M  V30 81 1 80 34
M  V30 82 1 81 34
M  V30 83 1 35 82 CFG=1
M  V30 84 1 37 83 CFG=3
M  V30 85 1 39 84 CFG=3
M  V30 END BOND
M  V30 END CTAB
M  END
>  <i_epik_Tot_Q>  (1) 
1

>  <i_epik_Tot_abs_Q>  (1) 
3

>  <i_i_glide_confnum>  (1) 
5222

>  <i_i_glide_lignum>  (1) 
221

>  <i_i_glide_posenum>  (1) 
42

>  <i_i_glide_rotatable_bonds>  (1) 
24

>  <i_lp_mmshare_version>  (1) 
72125

>  <i_m_source_file_index>  (1) 
94

>  <i_f3d_flags>  (1) 
0

>  <num_sample>  (1) 
100

>  <b_lp_Chiralities_Consistent>  (1) 
1

>  <r_epik_Charging_Adjusted_Penalty>  (1) 
0.90916677635763199

>  <r_epik_Ionization_Penalty>  (1) 
0.45507897092921873

>  <r_epik_Ionization_Penalty_Charging>  (1) 
0.45507471778648678

>  <r_epik_Ionization_Penalty_Neutral>  (1) 
4.2531427319391784e-06

>  <r_epik_State_Penalty>  (1) 
0.45409205857114521

>  <r_glide_ring_energy>  (1) 
0

>  <r_i_docking_score>  (1) 
-2.7779729708641421

>  <r_i_glide_ecoul>  (1) 
-6.2592502076212675

>  <r_i_glide_eff_state_penalty>  (1) 
0.45409205857114521

>  <r_i_glide_einternal>  (1) 
33.03681428656818

>  <r_i_glide_emodel>  (1) 
-11.623462923582945

>  <r_i_glide_emodel_strain>  (1) 
17.436586291971153

>  <r_i_glide_energy>  (1) 
-34.408240527530523

>  <r_i_glide_erotb>  (1) 
0.82188833391367333

>  <r_i_glide_esite>  (1) 
-0.0091102745779906274

>  <r_i_glide_evdw>  (1) 
-28.148990319909256

>  <r_i_glide_gscore>  (1) 
-3.2320650294352875

>  <r_i_glide_gscore_strain>  (1) 
3.3591465729927883

>  <r_i_glide_hbond>  (1) 
-0.60797466285365476

>  <r_i_glide_ligand_efficiency>  (1) 
-0.071230076176003645

>  <r_i_glide_ligand_efficiency_ln>  (1) 
-0.59567626240549854

>  <r_i_glide_ligand_efficiency_sa>  (1) 
-0.24155624941483436

>  <r_i_glide_lipo>  (1) 
-2.6359541377223215

>  <r_i_glide_metal>  (1) 
-0

>  <r_i_glide_rewards>  (1) 
-1.8137238140491292

>  <r_lp_Energy>  (1) 
28.475997

>  <s_epik_Chemistry_Notes>  (1) 
This compound contains an acetal/aminal-like group ( X-CH(R)-Y where X, Y are N, S, or O) that may be acid/base labile, releasing an aldehyde.

>  <s_epik_cmdline>  (1) 
J2VwaWtfcHl0aG9uJywgJy1waHQnLCAnMS4wJywgJy1waCcsICc3LjQnLCAnLXRuJywgJzgnLCAnLW1hJywgJzUwMCcsICctaW1hZScsICc8aW5maWxlLm1hZT4nLCAnLW9tYWUnLCAnPG91dGZpbGUubWFlPic=

>  <s_epik_input>  (1) 
W0NIMl0xW0NIMl1bQ0hdMVtDSDJdW0NAQEhdKFtDQEBIXShDKD1PKVtOSDJdKVtDSDJdQyg9TylbT0hdKVtDQEBIXShbQ0gyXVtPSF0pW0NIMl1bQ0gyXUMoPU8pTihbQ0gyXVtPSF0pW0NIMl1bQ0BASF0oW1MrXShbT0hdKVtPSF0pW0NASF0oW0NIM10pTjJbQ0gyXVtDSDJdW0NASF0oW09IXSlbQ0BASF0yW0NASF0oRilbQ0gzXQ==

>  <s_glide_docking_method>  (1) 
confgen

>  <s_i_glide_gridfile>  (1) 
gpcr_5ht2c_6bqh_protein_autoprepared_prepared

>  <s_lp_Force_Field>  (1) 
S-OPLS

>  <s_lp_Variant>  (1) 
DiffSBDD_93-9

>  <s_m_source_file>  (1) 
generated_GPCR_5HT2C_ligand_DiffSBDD_2026-06-23_prepared.sdf

>  <GenAI_Model>  (1) 
DiffSBDD

>  <Protein>  (1) 
GPCR_5HT2C

$$$$
DiffSBDD_93
     RDKit          3D

  0  0  0  0  0  0  0  0  0  0999 V3000
M  V30 BEGIN CTAB
M  V30 COUNTS 84 85 0 0 1
M  V30 BEGIN ATOM
M  V30 1 C 38.748580 30.368104 60.941556 0
M  V30 2 O 40.136750 30.452053 61.205510 0
M  V30 3 C 37.356727 37.004364 63.441248 0
M  V30 4 C 38.786340 28.113556 53.118658 0
M  V30 5 O 38.047186 32.107726 57.840523 0
M  V30 6 C 38.600070 25.547098 57.532033 0
M  V30 7 N 38.023444 24.537592 58.167470 0
M  V30 8 O 39.795735 25.808736 57.647129 0
M  V30 9 O 37.142871 36.430930 59.110546 0
M  V30 10 C 39.722116 27.539245 52.083039 0
M  V30 11 C 37.619908 36.513576 62.017945 0
M  V30 12 C 39.363297 30.139431 58.132519 0
M  V30 13 C 37.560032 32.546903 60.552729 0
M  V30 14 C 38.409267 27.363745 55.603662 0 CFG=2
M  V30 15 C 37.678784 26.393139 56.627461 0 CFG=1
M  V30 16 C 39.488615 35.777303 63.268663 0 CFG=1
M  V30 17 C 39.098706 34.713363 60.941810 0 CFG=1
M  V30 18 C 40.207686 33.685662 61.330241 0
M  V30 19 C 38.569105 28.957281 57.634357 0
M  V30 20 S 36.845247 34.765046 58.968598 0 CHG=1
M  V30 21 O 37.647165 31.048958 55.315040 0
M  V30 22 N 38.279908 31.389846 59.985245 0
M  V30 23 O 35.382893 34.537414 59.770198 0
M  V30 24 O 39.248785 37.736293 64.820927 0
M  V30 25 F 41.199213 36.379995 61.609888 0
M  V30 26 C 38.394082 28.078780 51.660665 0
M  V30 27 C 37.247394 29.727666 55.587519 0
M  V30 28 C 38.428251 28.852018 56.091675 0 CFG=2
M  V30 29 C 38.492678 31.291093 58.640683 0
M  V30 30 C 36.512882 25.537188 56.086636 0
M  V30 31 C 41.959134 36.002371 63.756192 0
M  V30 32 C 38.084557 33.931434 60.036447 0 CFG=2
M  V30 33 O 38.045092 24.137867 54.967674 0
M  V30 34 C 38.022927 27.219596 54.092769 0
M  V30 35 C 40.811095 36.508703 62.872375 0 CFG=2
M  V30 36 C 36.892042 24.225780 55.409946 0
M  V30 37 C 38.618300 36.635114 64.234715 0 CFG=1
M  V30 38 O 36.023555 23.337306 55.367771 0 CHG=-1
M  V30 39 N 38.551843 35.382389 62.167794 0 CFG=2 CHG=1
M  V30 40 H 38.215311 30.436780 61.891068 0
M  V30 41 H 38.524908 29.368190 60.564423 0
M  V30 42 H 40.431157 29.605676 61.514273 0
M  V30 43 H 37.105205 38.060847 63.450250 0
M  V30 44 H 36.495780 36.484697 63.863455 0
M  V30 45 H 39.028574 29.110786 53.477768 0
M  V30 46 H 37.041218 24.355780 58.027523 0
M  V30 47 H 38.569946 23.937103 58.756914 0
M  V30 48 H 37.156812 36.743721 58.215414 0
M  V30 49 H 40.580338 28.134384 51.769103 0
M  V30 50 H 39.850398 26.458472 52.071506 0
M  V30 51 H 38.092002 37.299987 61.425027 0
M  V30 52 H 36.679867 36.222407 61.555365 0
M  V30 53 H 39.954961 30.535119 57.308299 0
M  V30 54 H 40.109623 29.802799 58.845421 0
M  V30 55 H 37.588546 32.535114 61.641554 0
M  V30 56 H 36.511516 32.398854 60.300481 0
M  V30 57 H 39.459046 27.063301 55.600076 0
M  V30 58 H 37.138246 27.000678 57.345359 0
M  V30 59 H 39.768046 34.851901 63.767630 0
M  V30 60 H 39.540639 35.481283 60.307729 0
M  V30 61 H 40.445541 33.019687 60.501156 0
M  V30 62 H 41.163755 34.114303 61.617353 0
M  V30 63 H 39.890295 33.048314 62.155181 0
M  V30 64 H 39.118567 28.110041 58.024493 0
M  V30 65 H 37.590845 28.932684 58.122123 0
M  V30 66 H 37.101963 31.620687 55.849193 0
M  V30 67 H 34.813093 34.100890 59.152388 0
M  V30 68 H 40.118669 37.503426 65.123507 0
M  V30 69 H 37.645508 27.355948 51.355620 0
M  V30 70 H 38.419803 29.006039 51.094614 0
M  V30 71 H 36.813242 29.385510 54.654021 0
M  V30 72 H 36.437401 29.738529 56.315197 0
M  V30 73 H 39.339673 29.255870 55.650286 0
M  V30 74 H 35.771961 25.337776 56.863751 0
M  V30 75 H 36.045256 26.153004 55.368255 0
M  V30 76 H 41.739425 36.137139 64.815918 0
M  V30 77 H 42.155610 34.943939 63.589522 0
M  V30 78 H 42.878609 36.537636 63.556844 0
M  V30 79 H 38.802401 33.769106 59.238903 0
M  V30 80 H 38.174914 26.198203 53.757981 0
M  V30 81 H 36.960938 27.408088 53.936763 0
M  V30 82 H 40.707006 37.586963 62.964242 0
M  V30 83 H 38.334888 36.137769 65.147353 0
M  V30 84 H 37.984791 34.665849 62.601841 0
M  V30 END ATOM
M  V30 BEGIN BOND
M  V30 1 1 2 1
M  V30 2 1 7 6
M  V30 3 2 8 6
M  V30 4 1 10 4
M  V30 5 1 11 3
M  V30 6 1 15 6
M  V30 7 1 15 14
M  V30 8 1 18 17
M  V30 9 1 19 12
M  V30 10 1 20 9
M  V30 11 1 22 1
M  V30 12 1 22 13
M  V30 13 1 23 20
M  V30 14 1 26 4
M  V30 15 1 26 10
M  V30 16 1 27 21
M  V30 17 1 28 14
M  V30 18 1 28 19
M  V30 19 1 28 27
M  V30 20 2 29 5
M  V30 21 1 29 12
M  V30 22 1 29 22
M  V30 23 1 30 15
M  V30 24 1 32 13
M  V30 25 1 32 17
M  V30 26 1 32 20
M  V30 27 1 34 4
M  V30 28 1 34 14
M  V30 29 1 35 16
M  V30 30 1 35 25
M  V30 31 1 35 31
M  V30 32 1 36 30
M  V30 33 2 36 33
M  V30 34 1 37 3
M  V30 35 1 37 16
M  V30 36 1 37 24
M  V30 37 1 38 36
M  V30 38 1 39 11
M  V30 39 1 39 16
M  V30 40 1 39 17
M  V30 41 1 40 1
M  V30 42 1 41 1
M  V30 43 1 42 2
M  V30 44 1 43 3
M  V30 45 1 44 3
M  V30 46 1 45 4
M  V30 47 1 46 7
M  V30 48 1 47 7
M  V30 49 1 48 9
M  V30 50 1 49 10
M  V30 51 1 50 10
M  V30 52 1 51 11
M  V30 53 1 52 11
M  V30 54 1 53 12
M  V30 55 1 54 12
M  V30 56 1 55 13
M  V30 57 1 56 13
M  V30 58 1 14 57 CFG=3
M  V30 59 1 15 58 CFG=1
M  V30 60 1 16 59 CFG=1
M  V30 61 1 17 60 CFG=3
M  V30 62 1 61 18
M  V30 63 1 62 18
M  V30 64 1 63 18
M  V30 65 1 64 19
M  V30 66 1 65 19
M  V30 67 1 66 21
M  V30 68 1 67 23
M  V30 69 1 68 24
M  V30 70 1 69 26
M  V30 71 1 70 26
M  V30 72 1 71 27
M  V30 73 1 72 27
M  V30 74 1 28 73 CFG=3
M  V30 75 1 74 30
M  V30 76 1 75 30
M  V30 77 1 76 31
M  V30 78 1 77 31
M  V30 79 1 78 31
M  V30 80 1 32 79 CFG=3
M  V30 81 1 80 34
M  V30 82 1 81 34
M  V30 83 1 35 82 CFG=1
M  V30 84 1 37 83 CFG=1
M  V30 85 1 39 84 CFG=1
M  V30 END BOND
M  V30 END CTAB
M  END
>  <i_epik_Tot_Q>  (1) 
1

>  <i_epik_Tot_abs_Q>  (1) 
3

>  <i_i_glide_confnum>  (1) 
4090

>  <i_i_glide_lignum>  (1) 
223

>  <i_i_glide_posenum>  (1) 
59

>  <i_i_glide_rotatable_bonds>  (1) 
24

>  <i_lp_mmshare_version>  (1) 
72125

>  <i_m_source_file_index>  (1) 
94

>  <i_f3d_flags>  (1) 
0

>  <num_sample>  (1) 
100

>  <b_lp_Chiralities_Consistent>  (1) 
1

>  <r_epik_Charging_Adjusted_Penalty>  (1) 
0.90916677635763199

>  <r_epik_Ionization_Penalty>  (1) 
0.45507897092921873

>  <r_epik_Ionization_Penalty_Charging>  (1) 
0.45507471778648678

>  <r_epik_Ionization_Penalty_Neutral>  (1) 
4.2531427319391784e-06

>  <r_epik_State_Penalty>  (1) 
0.45409205857114521

>  <r_glide_ring_energy>  (1) 
0

>  <r_i_docking_score>  (1) 
-2.7636813928871504

>  <r_i_glide_ecoul>  (1) 
-3.4257404264968496

>  <r_i_glide_eff_state_penalty>  (1) 
0.45409205857114521

>  <r_i_glide_einternal>  (1) 
38.131564679896563

>  <r_i_glide_emodel>  (1) 
-5.7862006111013251

>  <r_i_glide_emodel_strain>  (1) 
17.610485793219723

>  <r_i_glide_energy>  (1) 
-30.41649866732741

>  <r_i_glide_erotb>  (1) 
0.82188833391367333

>  <r_i_glide_esite>  (1) 
-0.085497477314665504

>  <r_i_glide_evdw>  (1) 
-26.990758240830562

>  <r_i_glide_gscore>  (1) 
-3.2177734514582959

>  <r_i_glide_gscore_strain>  (1) 
3.4026214483049309

>  <r_i_glide_hbond>  (1) 
-0.40044331098050601

>  <r_i_glide_ligand_efficiency>  (1) 
-0.070863625458644885

>  <r_i_glide_ligand_efficiency_ln>  (1) 
-0.59261174239666536

>  <r_i_glide_ligand_efficiency_sa>  (1) 
-0.24031353754882659

>  <r_i_glide_lipo>  (1) 
-3.2790366840676484

>  <r_i_glide_metal>  (1) 
-0

>  <r_i_glide_rewards>  (1) 
-1.8139067852980244

>  <r_lp_Energy>  (1) 
33.071545

>  <s_epik_Chemistry_Notes>  (1) 
This compound contains an acetal/aminal-like group ( X-CH(R)-Y where X, Y are N, S, or O) that may be acid/base labile, releasing an aldehyde.

>  <s_epik_cmdline>  (1) 
J2VwaWtfcHl0aG9uJywgJy1waHQnLCAnMS4wJywgJy1waCcsICc3LjQnLCAnLXRuJywgJzgnLCAnLW1hJywgJzUwMCcsICctaW1hZScsICc8aW5maWxlLm1hZT4nLCAnLW9tYWUnLCAnPG91dGZpbGUubWFlPic=

>  <s_epik_input>  (1) 
W0NIMl0xW0NIMl1bQ0hdMVtDSDJdW0NAQEhdKFtDQEBIXShDKD1PKVtOSDJdKVtDSDJdQyg9TylbT0hdKVtDQEBIXShbQ0gyXVtPSF0pW0NIMl1bQ0gyXUMoPU8pTihbQ0gyXVtPSF0pW0NIMl1bQ0BASF0oW1MrXShbT0hdKVtPSF0pW0NASF0oW0NIM10pTjJbQ0gyXVtDSDJdW0NASF0oW09IXSlbQ0BASF0yW0NASF0oRilbQ0gzXQ==

>  <s_glide_docking_method>  (1) 
confgen

>  <s_i_glide_gridfile>  (1) 
gpcr_5ht2c_6bqh_protein_autoprepared_prepared

>  <s_lp_Force_Field>  (1) 
S-OPLS

>  <s_lp_Variant>  (1) 
DiffSBDD_93-11

>  <s_m_source_file>  (1) 
generated_GPCR_5HT2C_ligand_DiffSBDD_2026-06-23_prepared.sdf

>  <GenAI_Model>  (1) 
DiffSBDD

>  <Protein>  (1) 
GPCR_5HT2C

$$$$
DiffSBDD_14
     RDKit          3D

  0  0  0  0  0  0  0  0  0  0999 V3000
M  V30 BEGIN CTAB
M  V30 COUNTS 49 48 0 0 1
M  V30 BEGIN ATOM
M  V30 1 C 38.608959 29.870448 59.381850 0
M  V30 2 C 38.258729 28.872764 52.684060 0
M  V30 3 C 37.330471 30.696835 59.401214 0
M  V30 4 C 37.531865 29.994422 54.826920 0
M  V30 5 O 36.788682 36.385690 59.768122 0 CHG=-1
M  V30 6 N 37.244857 33.737215 58.037022 0 CHG=1
M  V30 7 C 39.355830 29.638326 58.282780 0
M  V30 8 C 36.486570 34.086380 59.248649 0 CFG=2
M  V30 9 C 39.242711 28.539871 51.569746 0
M  V30 10 C 38.298015 27.869126 56.043136 0
M  V30 11 C 37.933534 29.362547 56.177901 0 CFG=1
M  V30 12 C 37.245129 35.233207 59.925789 0
M  V30 13 C 40.391260 29.534704 51.303354 0
M  V30 14 O 38.274319 34.936396 60.570316 0
M  V30 15 C 36.218796 32.871820 60.186639 0
M  V30 16 O 37.305645 31.340581 61.704210 0
M  V30 17 C 40.057408 30.586372 50.239544 0
M  V30 18 C 38.521597 29.691635 53.720446 0
M  V30 19 C 39.038199 30.169143 56.892759 0
M  V30 20 C 37.383634 31.872405 60.396276 0 CFG=1
M  V30 21 H 38.918016 29.447947 60.326246 0
M  V30 22 H 37.289517 28.398878 52.619076 0
M  V30 23 H 36.502927 30.032018 59.655276 0
M  V30 24 H 37.093341 31.068732 58.409413 0
M  V30 25 H 36.551134 29.622063 54.538212 0
M  V30 26 H 37.418092 31.074964 54.921945 0
M  V30 27 H 37.334580 34.574532 57.477465 0
M  V30 28 H 38.159089 33.399617 58.298342 0
M  V30 29 H 40.246793 29.032841 58.369253 0
M  V30 30 H 35.517288 34.468721 58.919578 0
M  V30 31 H 39.667237 27.566803 51.819740 0
M  V30 32 H 38.679807 28.377970 50.649898 0
M  V30 33 H 39.265856 27.737856 55.558562 0
M  V30 34 H 38.350944 27.380992 57.016595 0
M  V30 35 H 37.560725 27.331555 55.447213 0
M  V30 36 H 37.043708 29.415175 56.804627 0
M  V30 37 H 40.750154 30.027398 52.199464 0
M  V30 38 H 41.244994 28.954919 50.967601 0
M  V30 39 H 35.344009 32.326362 59.829946 0
M  V30 40 H 35.911310 33.269108 61.155806 0
M  V30 41 H 38.134876 30.932207 61.907294 0
M  V30 42 H 40.922254 31.217019 50.028639 0
M  V30 43 H 39.756823 30.112290 49.305664 0
M  V30 44 H 39.245139 31.235296 50.562836 0
M  V30 45 H 39.482583 30.169398 53.800577 0
M  V30 46 H 38.762465 31.221207 56.956323 0
M  V30 47 H 39.956730 30.146555 56.305203 0
M  V30 48 H 38.343225 32.380985 60.312496 0
M  V30 49 H 36.733559 33.031654 57.516109 0
M  V30 END ATOM
M  V30 BEGIN BOND
M  V30 1 1 3 1
M  V30 2 2 7 1
M  V30 3 1 8 6
M  V30 4 1 9 2
M  V30 5 1 11 4
M  V30 6 1 11 10
M  V30 7 1 12 5
M  V30 8 1 12 8
M  V30 9 1 13 9
M  V30 10 2 14 12
M  V30 11 1 15 8
M  V30 12 1 17 13
M  V30 13 2 18 2
M  V30 14 1 18 4
M  V30 15 1 19 7
M  V30 16 1 19 11
M  V30 17 1 20 3
M  V30 18 1 20 15
M  V30 19 1 20 16
M  V30 20 1 21 1
M  V30 21 1 22 2
M  V30 22 1 23 3
M  V30 23 1 24 3
M  V30 24 1 25 4
M  V30 25 1 26 4
M  V30 26 1 27 6
M  V30 27 1 28 6
M  V30 28 1 29 7
M  V30 29 1 8 30 CFG=3
M  V30 30 1 31 9
M  V30 31 1 32 9
M  V30 32 1 33 10
M  V30 33 1 34 10
M  V30 34 1 35 10
M  V30 35 1 11 36 CFG=1
M  V30 36 1 37 13
M  V30 37 1 38 13
M  V30 38 1 39 15
M  V30 39 1 40 15
M  V30 40 1 41 16
M  V30 41 1 42 17
M  V30 42 1 43 17
M  V30 43 1 44 17
M  V30 44 1 45 18
M  V30 45 1 46 19
M  V30 46 1 47 19
M  V30 47 1 20 48 CFG=1
M  V30 48 1 49 6
M  V30 END BOND
M  V30 END CTAB
M  END
>  <i_epik_Tot_Q>  (1) 
0

>  <i_epik_Tot_abs_Q>  (1) 
2

>  <i_i_glide_confnum>  (1) 
1208

>  <i_i_glide_lignum>  (1) 
27

>  <i_i_glide_posenum>  (1) 
30

>  <i_i_glide_rotatable_bonds>  (1) 
12

>  <i_lp_mmshare_version>  (1) 
72125

>  <i_m_source_file_index>  (1) 
15

>  <i_f3d_flags>  (1) 
0

>  <num_sample>  (1) 
100

>  <b_lp_Chiralities_Consistent>  (1) 
1

>  <r_epik_Charging_Adjusted_Penalty>  (1) 
0.00991281995240933

>  <r_epik_Ionization_Penalty>  (1) 
0.0049587358016132182

>  <r_epik_Ionization_Penalty_Charging>  (1) 
0.0049586922537287062

>  <r_epik_Ionization_Penalty_Neutral>  (1) 
4.3547884512074136e-08

>  <r_epik_State_Penalty>  (1) 
0.0049541276986806238

>  <r_glide_ring_energy>  (1) 
0

>  <r_i_docking_score>  (1) 
-2.6378240409568825

>  <r_i_glide_ecoul>  (1) 
-7.5247184817468229

>  <r_i_glide_eff_state_penalty>  (1) 
0.0049541276986806238

>  <r_i_glide_einternal>  (1) 
8.6018036149392643

>  <r_i_glide_emodel>  (1) 
-35.041168995658353

>  <r_i_glide_emodel_strain>  (1) 
1.6983063790942499

>  <r_i_glide_energy>  (1) 
-33.692569345309323

>  <r_i_glide_erotb>  (1) 
4.0583376510001772

>  <r_i_glide_esite>  (1) 
-0.061387330155977818

>  <r_i_glide_evdw>  (1) 
-26.167850863562503

>  <r_i_glide_gscore>  (1) 
-2.6427781686555631

>  <r_i_glide_gscore_strain>  (1) 
0

>  <r_i_glide_hbond>  (1) 
-0.52000000000000002

>  <r_i_glide_ligand_efficiency>  (1) 
-0.13189120204784413

>  <r_i_glide_ligand_efficiency_ln>  (1) 
-0.66016035619190239

>  <r_i_glide_ligand_efficiency_sa>  (1) 
-0.35800780231254631

>  <r_i_glide_lipo>  (1) 
-1.718726831225901

>  <r_i_glide_metal>  (1) 
-0

>  <r_i_glide_rewards>  (1) 
-1.9639013428337129

>  <r_lp_Energy>  (1) 
-5.4588899999999994

>  <s_epik_cmdline>  (1) 
J2VwaWtfcHl0aG9uJywgJy1waHQnLCAnMS4wJywgJy1waCcsICc3LjQnLCAnLXRuJywgJzgnLCAnLW1hJywgJzUwMCcsICctaW1hZScsICc8aW5maWxlLm1hZT4nLCAnLW9tYWUnLCAnPG91dGZpbGUubWFlPic=

>  <s_epik_input>  (1) 
W09IXUMoPU8pW0NAQEhdKFtOSDJdKVtDSDJdW0NAQEhdKFtPSF0pW0NIMl0vW0NIXT1bQ0hdXFtDSDJdW0NAQEhdKFtDSDNdKVtDSDJdXFtDSF09W0NIXVxbQ0gyXVtDSDJdW0NIM10=

>  <s_glide_docking_method>  (1) 
confgen

>  <s_i_glide_gridfile>  (1) 
gpcr_5ht2c_6bqh_protein_autoprepared_prepared

>  <s_lp_Force_Field>  (1) 
S-OPLS

>  <s_lp_Variant>  (1) 
DiffSBDD_14-5

>  <s_m_source_file>  (1) 
generated_GPCR_5HT2C_ligand_DiffSBDD_2026-06-23_prepared.sdf

>  <GenAI_Model>  (1) 
DiffSBDD

>  <Protein>  (1) 
GPCR_5HT2C

$$$$
DiffSBDD_14
     RDKit          3D

  0  0  0  0  0  0  0  0  0  0999 V3000
M  V30 BEGIN CTAB
M  V30 COUNTS 49 48 0 0 1
M  V30 BEGIN ATOM
M  V30 1 C 38.301755 29.784372 59.464423 0
M  V30 2 C 39.088334 29.955535 52.905861 0
M  V30 3 C 37.090346 30.704308 59.502638 0
M  V30 4 C 37.571594 30.376693 54.871693 0
M  V30 5 O 36.845138 36.415199 59.767893 0 CHG=-1
M  V30 6 N 36.845137 33.737755 58.167760 0 CHG=1
M  V30 7 C 39.095739 29.611510 58.391151 0
M  V30 8 C 36.297892 34.118696 59.475298 0 CFG=2
M  V30 9 C 40.310983 30.215909 52.061131 0
M  V30 10 C 38.346001 28.141585 55.815775 0
M  V30 11 C 37.895271 29.578108 56.148167 0 CFG=1
M  V30 12 C 37.193193 35.241360 60.021075 0
M  V30 13 C 40.033583 30.447017 50.574899 0
M  V30 14 O 38.210335 34.903595 60.664325 0
M  V30 15 C 36.124129 32.908363 60.433675 0
M  V30 16 O 37.347841 31.337759 61.767760 0
M  V30 17 C 39.694931 29.149067 49.840732 0
M  V30 18 C 38.793156 30.639832 54.019977 0
M  V30 19 C 38.903652 30.310792 57.057187 0
M  V30 20 C 37.283382 31.882232 60.472970 0 CFG=1
M  V30 21 H 38.518952 29.241854 60.373024 0
M  V30 22 H 38.430390 29.165176 52.574178 0
M  V30 23 H 36.224844 30.111304 59.801224 0
M  V30 24 H 36.845153 31.070598 58.510554 0
M  V30 25 H 36.835084 29.833160 54.280813 0
M  V30 26 H 37.115068 31.334642 55.124093 0
M  V30 27 H 36.874624 34.573397 57.596936 0
M  V30 28 H 37.781055 33.381984 58.289523 0
M  V30 29 H 39.932642 28.931617 58.457580 0
M  V30 30 H 35.307364 34.541673 59.297802 0
M  V30 31 H 40.845110 31.074976 52.465886 0
M  V30 32 H 40.940221 29.337755 52.162847 0
M  V30 33 H 39.327293 28.128944 55.340283 0
M  V30 34 H 38.404397 27.523759 56.711752 0
M  V30 35 H 37.645116 27.656340 55.136379 0
M  V30 36 H 36.958360 29.502108 56.701321 0
M  V30 37 H 39.245235 31.186678 50.432321 0
M  V30 38 H 40.929445 30.872222 50.119783 0
M  V30 39 H 35.193816 32.389311 60.199314 0
M  V30 40 H 35.965558 33.312906 61.435875 0
M  V30 41 H 38.189567 30.918112 61.872928 0
M  V30 42 H 39.645138 29.337755 48.770253 0
M  V30 43 H 40.445137 28.381701 50.012926 0
M  V30 44 H 38.745337 28.731791 50.168294 0
M  V30 45 H 39.452351 31.429155 54.352421 0
M  V30 46 H 38.594096 31.343839 57.214918 0
M  V30 47 H 39.878310 30.372690 56.573317 0
M  V30 48 H 38.238736 32.367847 60.278202 0
M  V30 49 H 36.256693 33.037367 57.719998 0
M  V30 END ATOM
M  V30 BEGIN BOND
M  V30 1 1 3 1
M  V30 2 2 7 1
M  V30 3 1 8 6
M  V30 4 1 9 2
M  V30 5 1 11 4
M  V30 6 1 11 10
M  V30 7 1 12 5
M  V30 8 1 12 8
M  V30 9 1 13 9
M  V30 10 2 14 12
M  V30 11 1 15 8
M  V30 12 1 17 13
M  V30 13 2 18 2
M  V30 14 1 18 4
M  V30 15 1 19 7
M  V30 16 1 19 11
M  V30 17 1 20 3
M  V30 18 1 20 15
M  V30 19 1 20 16
M  V30 20 1 21 1
M  V30 21 1 22 2
M  V30 22 1 23 3
M  V30 23 1 24 3
M  V30 24 1 25 4
M  V30 25 1 26 4
M  V30 26 1 27 6
M  V30 27 1 28 6
M  V30 28 1 29 7
M  V30 29 1 8 30 CFG=3
M  V30 30 1 31 9
M  V30 31 1 32 9
M  V30 32 1 33 10
M  V30 33 1 34 10
M  V30 34 1 35 10
M  V30 35 1 11 36 CFG=1
M  V30 36 1 37 13
M  V30 37 1 38 13
M  V30 38 1 39 15
M  V30 39 1 40 15
M  V30 40 1 41 16
M  V30 41 1 42 17
M  V30 42 1 43 17
M  V30 43 1 44 17
M  V30 44 1 45 18
M  V30 45 1 46 19
M  V30 46 1 47 19
M  V30 47 1 20 48 CFG=3
M  V30 48 1 49 6
M  V30 END BOND
M  V30 END CTAB
M  END
>  <i_epik_Tot_Q>  (1) 
0

>  <i_epik_Tot_abs_Q>  (1) 
2

>  <i_i_glide_confnum>  (1) 
1208

>  <i_i_glide_lignum>  (1) 
27

>  <i_i_glide_posenum>  (1) 
30

>  <i_i_glide_rotatable_bonds>  (1) 
12

>  <i_lp_mmshare_version>  (1) 
72125

>  <i_m_source_file_index>  (1) 
15

>  <i_f3d_flags>  (1) 
0

>  <num_sample>  (1) 
100

>  <b_lp_Chiralities_Consistent>  (1) 
1

>  <r_epik_Charging_Adjusted_Penalty>  (1) 
0.00991281995240933

>  <r_epik_Ionization_Penalty>  (1) 
0.0049587358016132182

>  <r_epik_Ionization_Penalty_Charging>  (1) 
0.0049586922537287062

>  <r_epik_Ionization_Penalty_Neutral>  (1) 
4.3547884512074136e-08

>  <r_epik_State_Penalty>  (1) 
0.0049541276986806238

>  <r_glide_ring_energy>  (1) 
0

>  <r_i_docking_score>  (1) 
-2.6357564974126864

>  <r_i_glide_ecoul>  (1) 
-8.142413212065911

>  <r_i_glide_eff_state_penalty>  (1) 
0.0049541276986806238

>  <r_i_glide_einternal>  (1) 
3.842213310396406

>  <r_i_glide_emodel>  (1) 
-35.839571059865712

>  <r_i_glide_emodel_strain>  (1) 
1.09939698351298

>  <r_i_glide_energy>  (1) 
-31.518015324716014

>  <r_i_glide_erotb>  (1) 
4.0583376510001772

>  <r_i_glide_esite>  (1) 
-0.061822711166331173

>  <r_i_glide_evdw>  (1) 
-23.375602112650103

>  <r_i_glide_gscore>  (1) 
-2.640710625111367

>  <r_i_glide_gscore_strain>  (1) 
0

>  <r_i_glide_hbond>  (1) 
-0.52000000000000002

>  <r_i_glide_ligand_efficiency>  (1) 
-0.13178782487063431

>  <r_i_glide_ligand_efficiency_ln>  (1) 
-0.65964291823494003

>  <r_i_glide_ligand_efficiency_sa>  (1) 
-0.35772719348157417

>  <r_i_glide_lipo>  (1) 
-1.4076305048358044

>  <r_i_glide_metal>  (1) 
-0

>  <r_i_glide_rewards>  (1) 
-2.3194529726670154

>  <r_lp_Energy>  (1) 
-5.4588899999999994

>  <s_epik_cmdline>  (1) 
J2VwaWtfcHl0aG9uJywgJy1waHQnLCAnMS4wJywgJy1waCcsICc3LjQnLCAnLXRuJywgJzgnLCAnLW1hJywgJzUwMCcsICctaW1hZScsICc8aW5maWxlLm1hZT4nLCAnLW9tYWUnLCAnPG91dGZpbGUubWFlPic=

>  <s_epik_input>  (1) 
W09IXUMoPU8pW0NAQEhdKFtOSDJdKVtDSDJdW0NAQEhdKFtPSF0pW0NIMl0vW0NIXT1bQ0hdXFtDSDJdW0NAQEhdKFtDSDNdKVtDSDJdXFtDSF09W0NIXVxbQ0gyXVtDSDJdW0NIM10=

>  <s_glide_docking_method>  (1) 
confgen

>  <s_i_glide_gridfile>  (1) 
gpcr_5ht2c_6bqh_protein_autoprepared_prepared

>  <s_lp_Force_Field>  (1) 
S-OPLS

>  <s_lp_Variant>  (1) 
DiffSBDD_14-5

>  <s_m_source_file>  (1) 
generated_GPCR_5HT2C_ligand_DiffSBDD_2026-06-23_prepared.sdf

>  <GenAI_Model>  (1) 
DiffSBDD

>  <Protein>  (1) 
GPCR_5HT2C

$$$$
DiffSBDD_14
     RDKit          3D

  0  0  0  0  0  0  0  0  0  0999 V3000
M  V30 BEGIN CTAB
M  V30 COUNTS 49 48 0 0 1
M  V30 BEGIN ATOM
M  V30 1 C 37.848629 29.337755 59.367489 0
M  V30 2 C 38.806883 27.537420 52.290380 0
M  V30 3 C 39.214008 29.780975 59.862732 0
M  V30 4 C 39.312439 27.817742 54.781007 0
M  V30 5 O 35.645137 31.737757 61.361852 0 CHG=-1
M  V30 6 N 36.845137 33.537665 58.677584 0 CHG=1
M  V30 7 C 37.589193 28.912115 58.116453 0
M  V30 8 C 37.117394 32.450455 59.631687 0 CFG=2
M  V30 9 C 39.081802 28.981415 51.902827 0
M  V30 10 C 37.822225 26.457435 56.349955 0
M  V30 11 C 38.202631 27.870272 55.849563 0 CFG=1
M  V30 12 C 36.274653 32.708955 60.889233 0
M  V30 13 C 40.252527 29.094343 50.916867 0
M  V30 14 O 36.278120 33.873667 61.348464 0
M  V30 15 C 38.640815 32.353505 59.949199 0
M  V30 16 O 38.569398 30.883575 61.936196 0
M  V30 17 C 40.514671 30.537755 50.473222 0
M  V30 18 C 38.905389 27.031457 53.539647 0
M  V30 19 C 38.628724 28.796217 57.011227 0
M  V30 20 C 39.186205 31.091529 60.682541 0 CFG=1
M  V30 21 H 37.043750 29.380177 60.086324 0
M  V30 22 H 38.509623 26.883721 51.483896 0
M  V30 23 H 39.901530 29.908340 59.029566 0
M  V30 24 H 39.626688 28.975951 60.471968 0
M  V30 25 H 39.645137 28.826173 54.558217 0
M  V30 26 H 40.186710 27.320156 55.202535 0
M  V30 27 H 35.885862 33.449233 58.370701 0
M  V30 28 H 36.969191 34.420703 59.151848 0
M  V30 29 H 36.580217 28.629267 57.857410 0
M  V30 30 H 36.752685 31.561366 59.126508 0
M  V30 31 H 38.177940 29.337582 51.412761 0
M  V30 32 H 39.235638 29.649544 52.744420 0
M  V30 33 H 38.684489 25.946107 56.779185 0
M  V30 34 H 37.045858 26.484632 57.113618 0
M  V30 35 H 37.430271 25.834279 55.547068 0
M  V30 36 H 37.331811 28.318180 55.368023 0
M  V30 37 H 41.157994 28.688145 51.367761 0
M  V30 38 H 40.045136 28.484359 50.037170 0
M  V30 39 H 38.926221 33.229018 60.535070 0
M  V30 40 H 39.193133 32.453586 59.014529 0
M  V30 41 H 38.940179 30.117049 62.348776 0
M  V30 42 H 41.356904 30.588996 49.782490 0
M  V30 43 H 39.645192 30.959577 49.967856 0
M  V30 44 H 40.747727 31.175606 51.326344 0
M  V30 45 H 38.683185 25.988590 53.697317 0
M  V30 46 H 38.822923 29.799032 56.628403 0
M  V30 47 H 39.565102 28.427037 57.430224 0
M  V30 48 H 40.226934 31.310570 60.925097 0
M  V30 49 H 37.452211 33.463597 57.875590 0
M  V30 END ATOM
M  V30 BEGIN BOND
M  V30 1 1 3 1
M  V30 2 2 7 1
M  V30 3 1 8 6
M  V30 4 1 9 2
M  V30 5 1 11 4
M  V30 6 1 11 10
M  V30 7 1 12 5
M  V30 8 1 12 8
M  V30 9 1 13 9
M  V30 10 2 14 12
M  V30 11 1 15 8
M  V30 12 1 17 13
M  V30 13 2 18 2
M  V30 14 1 18 4
M  V30 15 1 19 7
M  V30 16 1 19 11
M  V30 17 1 20 3
M  V30 18 1 20 15
M  V30 19 1 20 16
M  V30 20 1 21 1
M  V30 21 1 22 2
M  V30 22 1 23 3
M  V30 23 1 24 3
M  V30 24 1 25 4
M  V30 25 1 26 4
M  V30 26 1 27 6
M  V30 27 1 28 6
M  V30 28 1 29 7
M  V30 29 1 8 30 CFG=3
M  V30 30 1 31 9
M  V30 31 1 32 9
M  V30 32 1 33 10
M  V30 33 1 34 10
M  V30 34 1 35 10
M  V30 35 1 11 36 CFG=3
M  V30 36 1 37 13
M  V30 37 1 38 13
M  V30 38 1 39 15
M  V30 39 1 40 15
M  V30 40 1 41 16
M  V30 41 1 42 17
M  V30 42 1 43 17
M  V30 43 1 44 17
M  V30 44 1 45 18
M  V30 45 1 46 19
M  V30 46 1 47 19
M  V30 47 1 20 48 CFG=1
M  V30 48 1 49 6
M  V30 END BOND
M  V30 END CTAB
M  END
>  <i_epik_Tot_Q>  (1) 
0

>  <i_epik_Tot_abs_Q>  (1) 
2

>  <i_i_glide_confnum>  (1) 
290

>  <i_i_glide_lignum>  (1) 
29

>  <i_i_glide_posenum>  (1) 
220

>  <i_i_glide_rotatable_bonds>  (1) 
12

>  <i_lp_mmshare_version>  (1) 
72125

>  <i_m_source_file_index>  (1) 
15

>  <i_f3d_flags>  (1) 
0

>  <num_sample>  (1) 
100

>  <b_lp_Chiralities_Consistent>  (1) 
1

>  <r_epik_Charging_Adjusted_Penalty>  (1) 
0.00991281995240933

>  <r_epik_Ionization_Penalty>  (1) 
0.0049587358016132182

>  <r_epik_Ionization_Penalty_Charging>  (1) 
0.0049586922537287062

>  <r_epik_Ionization_Penalty_Neutral>  (1) 
4.3547884512074136e-08

>  <r_epik_State_Penalty>  (1) 
0.0049541276986806238

>  <r_glide_ring_energy>  (1) 
0

>  <r_i_docking_score>  (1) 
-2.6065771498279728

>  <r_i_glide_ecoul>  (1) 
-5.6939315784796136

>  <r_i_glide_eff_state_penalty>  (1) 
0.0049541276986806238

>  <r_i_glide_einternal>  (1) 
5.7826503072404929

>  <r_i_glide_emodel>  (1) 
-35.977354431281995

>  <r_i_glide_emodel_strain>  (1) 
0.61876784436881849

>  <r_i_glide_energy>  (1) 
-32.385986381433199

>  <r_i_glide_erotb>  (1) 
4.0583376510001772

>  <r_i_glide_esite>  (1) 
-0.079214290242796137

>  <r_i_glide_evdw>  (1) 
-26.692054802953582

>  <r_i_glide_gscore>  (1) 
-2.6115312775266535

>  <r_i_glide_gscore_strain>  (1) 
0

>  <r_i_glide_hbond>  (1) 
-0.20867315840621145

>  <r_i_glide_ligand_efficiency>  (1) 
-0.13032885749139864

>  <r_i_glide_ligand_efficiency_ln>  (1) 
-0.65234028993378013

>  <r_i_glide_ligand_efficiency_sa>  (1) 
-0.35376694672533954

>  <r_i_glide_lipo>  (1) 
-2.3989879498613118

>  <r_i_glide_metal>  (1) 
-0

>  <r_i_glide_rewards>  (1) 
-1.7943010530968899

>  <r_lp_Energy>  (1) 
-3.7149109999999999

>  <s_epik_cmdline>  (1) 
J2VwaWtfcHl0aG9uJywgJy1waHQnLCAnMS4wJywgJy1waCcsICc3LjQnLCAnLXRuJywgJzgnLCAnLW1hJywgJzUwMCcsICctaW1hZScsICc8aW5maWxlLm1hZT4nLCAnLW9tYWUnLCAnPG91dGZpbGUubWFlPic=

>  <s_epik_input>  (1) 
W09IXUMoPU8pW0NAQEhdKFtOSDJdKVtDSDJdW0NAQEhdKFtPSF0pW0NIMl0vW0NIXT1bQ0hdXFtDSDJdW0NAQEhdKFtDSDNdKVtDSDJdL1tDSF09W0NIXVxbQ0gyXVtDSDJdW0NIM10=

>  <s_glide_docking_method>  (1) 
confgen

>  <s_i_glide_gridfile>  (1) 
gpcr_5ht2c_6bqh_protein_autoprepared_prepared

>  <s_lp_Force_Field>  (1) 
S-OPLS

>  <s_lp_Variant>  (1) 
DiffSBDD_14-7

>  <s_m_source_file>  (1) 
generated_GPCR_5HT2C_ligand_DiffSBDD_2026-06-23_prepared.sdf

>  <GenAI_Model>  (1) 
DiffSBDD

>  <Protein>  (1) 
GPCR_5HT2C

$$$$
DiffSBDD_14
     RDKit          3D

  0  0  0  0  0  0  0  0  0  0999 V3000
M  V30 BEGIN CTAB
M  V30 COUNTS 49 48 0 0 1
M  V30 BEGIN ATOM
M  V30 1 C 38.081173 33.191705 58.876601 0
M  V30 2 C 38.517653 28.631352 53.056641 0
M  V30 3 C 37.547597 32.280935 59.971362 0
M  V30 4 C 38.846594 29.646966 55.348430 0
M  V30 5 O 41.245041 30.760666 62.567763 0 CHG=-1
M  V30 6 N 40.829890 34.138973 63.373566 0 CHG=1
M  V30 7 C 38.472879 32.774933 57.657580 0
M  V30 8 C 40.234549 32.892400 62.858642 0 CFG=2
M  V30 9 C 38.905316 28.343756 51.609653 0
M  V30 10 C 37.837604 31.904634 54.769251 0
M  V30 11 C 38.803917 31.148313 55.700472 0 CFG=1
M  V30 12 C 41.363861 31.986313 62.357027 0
M  V30 13 C 40.177542 29.027092 51.064549 0
M  V30 14 O 42.317912 32.537755 61.767795 0
M  V30 15 C 39.213910 33.186884 61.731488 0
M  V30 16 O 38.045185 31.091154 61.993867 0
M  V30 17 C 40.045586 30.537721 50.817203 0
M  V30 18 C 39.245147 29.375402 53.910417 0
M  V30 19 C 38.438599 31.328527 57.190484 0
M  V30 20 C 38.618107 31.943909 61.024421 0 CFG=1
M  V30 21 H 38.142458 34.241036 59.118816 0
M  V30 22 H 37.589998 28.193312 53.396186 0
M  V30 23 H 37.150807 31.359913 59.545570 0
M  V30 24 H 36.697551 32.779387 60.438906 0
M  V30 25 H 39.567584 29.141234 55.991368 0
M  V30 26 H 37.877173 29.189359 55.551879 0
M  V30 27 H 41.441134 33.912489 64.144449 0
M  V30 28 H 41.380530 34.547892 62.631645 0
M  V30 29 H 38.841051 33.499586 56.947607 0
M  V30 30 H 39.727399 32.404777 63.692445 0
M  V30 31 H 39.032368 27.263245 51.531351 0
M  V30 32 H 38.055239 28.582911 50.972012 0
M  V30 33 H 36.844709 31.459084 54.800932 0
M  V30 34 H 37.733236 32.955695 55.036077 0
M  V30 35 H 38.181047 31.879013 53.737109 0
M  V30 36 H 39.803087 31.560740 55.550576 0
M  V30 37 H 41.027958 28.823840 51.713807 0
M  V30 38 H 40.425384 28.559326 50.112128 0
M  V30 39 H 39.694780 33.820438 60.984857 0
M  V30 40 H 38.397893 33.780501 62.143997 0
M  V30 41 H 38.754684 30.619715 62.415305 0
M  V30 42 H 40.968276 30.939012 50.397098 0
M  V30 43 H 39.245135 30.752891 50.110443 0
M  V30 44 H 39.837916 31.092626 51.731266 0
M  V30 45 H 40.171486 29.817073 53.582012 0
M  V30 46 H 39.129090 30.757714 57.812265 0
M  V30 47 H 37.443712 30.919509 57.368233 0
M  V30 48 H 39.406323 31.385104 60.518549 0
M  V30 49 H 40.109738 34.778438 63.674412 0
M  V30 END ATOM
M  V30 BEGIN BOND
M  V30 1 1 3 1
M  V30 2 2 7 1
M  V30 3 1 8 6
M  V30 4 1 9 2
M  V30 5 1 11 4
M  V30 6 1 11 10
M  V30 7 1 12 5
M  V30 8 1 12 8
M  V30 9 1 13 9
M  V30 10 2 14 12
M  V30 11 1 15 8
M  V30 12 1 17 13
M  V30 13 2 18 2
M  V30 14 1 18 4
M  V30 15 1 19 7
M  V30 16 1 19 11
M  V30 17 1 20 3
M  V30 18 1 20 15
M  V30 19 1 20 16
M  V30 20 1 21 1
M  V30 21 1 22 2
M  V30 22 1 23 3
M  V30 23 1 24 3
M  V30 24 1 25 4
M  V30 25 1 26 4
M  V30 26 1 27 6
M  V30 27 1 28 6
M  V30 28 1 29 7
M  V30 29 1 8 30 CFG=1
M  V30 30 1 31 9
M  V30 31 1 32 9
M  V30 32 1 33 10
M  V30 33 1 34 10
M  V30 34 1 35 10
M  V30 35 1 11 36 CFG=1
M  V30 36 1 37 13
M  V30 37 1 38 13
M  V30 38 1 39 15
M  V30 39 1 40 15
M  V30 40 1 41 16
M  V30 41 1 42 17
M  V30 42 1 43 17
M  V30 43 1 44 17
M  V30 44 1 45 18
M  V30 45 1 46 19
M  V30 46 1 47 19
M  V30 47 1 20 48 CFG=3
M  V30 48 1 49 6
M  V30 END BOND
M  V30 END CTAB
M  END
>  <i_epik_Tot_Q>  (1) 
0

>  <i_epik_Tot_abs_Q>  (1) 
2

>  <i_i_glide_confnum>  (1) 
29

>  <i_i_glide_lignum>  (1) 
27

>  <i_i_glide_posenum>  (1) 
57

>  <i_i_glide_rotatable_bonds>  (1) 
12

>  <i_lp_mmshare_version>  (1) 
72125

>  <i_m_source_file_index>  (1) 
15

>  <i_f3d_flags>  (1) 
0

>  <num_sample>  (1) 
100

>  <b_lp_Chiralities_Consistent>  (1) 
1

>  <r_epik_Charging_Adjusted_Penalty>  (1) 
0.00991281995240933

>  <r_epik_Ionization_Penalty>  (1) 
0.0049587358016132182

>  <r_epik_Ionization_Penalty_Charging>  (1) 
0.0049586922537287062

>  <r_epik_Ionization_Penalty_Neutral>  (1) 
4.3547884512074136e-08

>  <r_epik_State_Penalty>  (1) 
0.0049541276986806238

>  <r_glide_ring_energy>  (1) 
0

>  <r_i_docking_score>  (1) 
-2.5968972981537286

>  <r_i_glide_ecoul>  (1) 
-4.3939996920464433

>  <r_i_glide_eff_state_penalty>  (1) 
0.0049541276986806238

>  <r_i_glide_einternal>  (1) 
8.1932213032670482

>  <r_i_glide_emodel>  (1) 
-34.376523295156112

>  <r_i_glide_emodel_strain>  (1) 
0.57679053437614414

>  <r_i_glide_energy>  (1) 
-31.815906687274659

>  <r_i_glide_erotb>  (1) 
4.0583376510001772

>  <r_i_glide_esite>  (1) 
0

>  <r_i_glide_evdw>  (1) 
-27.421906995228216

>  <r_i_glide_gscore>  (1) 
-2.6018514258524092

>  <r_i_glide_gscore_strain>  (1) 
0

>  <r_i_glide_hbond>  (1) 
-0.25982694222294972

>  <r_i_glide_ligand_efficiency>  (1) 
-0.12984486490768643

>  <r_i_glide_ligand_efficiency_ln>  (1) 
-0.64991774232259236

>  <r_i_glide_ligand_efficiency_sa>  (1) 
-0.35245318872980985

>  <r_i_glide_lipo>  (1) 
-2.0583981234239497

>  <r_i_glide_metal>  (1) 
-0

>  <r_i_glide_rewards>  (1) 
-2.3117687076373103

>  <r_lp_Energy>  (1) 
-5.4588899999999994

>  <s_epik_cmdline>  (1) 
J2VwaWtfcHl0aG9uJywgJy1waHQnLCAnMS4wJywgJy1waCcsICc3LjQnLCAnLXRuJywgJzgnLCAnLW1hJywgJzUwMCcsICctaW1hZScsICc8aW5maWxlLm1hZT4nLCAnLW9tYWUnLCAnPG91dGZpbGUubWFlPic=

>  <s_epik_input>  (1) 
W09IXUMoPU8pW0NAQEhdKFtOSDJdKVtDSDJdW0NAQEhdKFtPSF0pW0NIMl0vW0NIXT1bQ0hdXFtDSDJdW0NAQEhdKFtDSDNdKVtDSDJdXFtDSF09W0NIXVxbQ0gyXVtDSDJdW0NIM10=

>  <s_glide_docking_method>  (1) 
confgen

>  <s_i_glide_gridfile>  (1) 
gpcr_5ht2c_6bqh_protein_autoprepared_prepared

>  <s_lp_Force_Field>  (1) 
S-OPLS

>  <s_lp_Variant>  (1) 
DiffSBDD_14-5

>  <s_m_source_file>  (1) 
generated_GPCR_5HT2C_ligand_DiffSBDD_2026-06-23_prepared.sdf

>  <GenAI_Model>  (1) 
DiffSBDD

>  <Protein>  (1) 
GPCR_5HT2C

$$$$
DiffSBDD_93
     RDKit          3D

  0  0  0  0  0  0  0  0  0  0999 V3000
M  V30 BEGIN CTAB
M  V30 COUNTS 84 85 0 0 1
M  V30 BEGIN ATOM
M  V30 1 C 36.713216 30.730901 60.990504 0
M  V30 2 O 35.496174 31.389557 61.266133 0
M  V30 3 C 39.766252 36.155205 63.950081 0
M  V30 4 C 39.378769 29.525860 52.644190 0
M  V30 5 O 37.050768 30.111404 58.349494 0
M  V30 6 C 38.670589 27.700786 57.340498 0
M  V30 7 N 38.850621 27.816394 58.657513 0
M  V30 8 O 37.645148 27.264389 56.853805 0
M  V30 9 O 35.225327 33.381728 59.367744 0
M  V30 10 C 40.571050 29.407180 51.713514 0
M  V30 11 C 39.593462 35.100255 62.882323 0
M  V30 12 C 38.481580 31.957730 57.795614 0
M  V30 13 C 38.243856 32.641588 60.621908 0
M  V30 14 C 39.608189 29.131867 55.230539 0 CFG=2
M  V30 15 C 39.833495 28.124366 56.447765 0 CFG=2
M  V30 16 C 38.711416 37.168830 62.007513 0 CFG=1
M  V30 17 C 38.802216 35.155506 60.476657 0 CFG=1
M  V30 18 C 40.252082 34.853168 60.161919 0
M  V30 19 C 39.373325 31.169611 56.830999 0
M  V30 20 S 36.084821 34.454351 60.340853 0 CHG=1
M  V30 21 O 36.845355 30.061716 54.231124 0
M  V30 22 N 37.537252 31.487551 60.063782 0
M  V30 23 O 35.972214 35.829416 59.367559 0
M  V30 24 O 37.523364 36.937797 64.086099 0
M  V30 25 F 37.645134 37.836312 59.964152 0
M  V30 26 C 39.205750 29.066991 51.210915 0
M  V30 27 C 37.282022 30.303853 55.520208 0
M  V30 28 C 38.808664 30.426224 55.593891 0 CFG=2
M  V30 29 C 37.628888 31.102626 58.764358 0
M  V30 30 C 40.688969 26.895743 56.196807 0
M  V30 31 C 37.460564 39.486855 61.367690 0
M  V30 32 C 37.828044 34.022964 60.066586 0 CFG=2
M  V30 33 O 39.249282 25.020820 55.879703 0
M  V30 34 C 39.193147 28.565443 53.823096 0
M  V30 35 C 37.535464 37.951491 61.280732 0 CFG=2
M  V30 36 C 40.065963 25.792777 55.331413 0
M  V30 37 C 38.795160 37.246260 63.544528 0 CFG=1
M  V30 38 O 40.444701 25.737773 54.142738 0 CHG=-1
M  V30 39 N 38.663414 35.685034 61.859136 0 CFG=1 CHG=1
M  V30 40 H 36.456013 29.759547 60.567636 0
M  V30 41 H 37.270545 30.541185 61.904409 0
M  V30 42 H 34.789761 30.766433 61.147295 0
M  V30 43 H 39.647838 35.798383 64.970349 0
M  V30 44 H 40.784019 36.546674 63.887457 0
M  V30 45 H 39.035108 30.537980 52.820918 0
M  V30 46 H 39.723899 28.168314 59.017985 0
M  V30 47 H 38.112190 27.544354 59.286102 0
M  V30 48 H 35.065750 32.614415 59.907371 0
M  V30 49 H 41.015169 30.332222 51.351427 0
M  V30 50 H 41.245958 28.557448 51.766436 0
M  V30 51 H 39.244761 34.147087 63.267199 0
M  V30 52 H 40.615492 34.922486 62.562729 0
M  V30 53 H 37.828084 32.629585 57.237226 0
M  V30 54 H 39.203313 32.573123 58.319350 0
M  V30 55 H 39.302194 32.428388 60.495471 0
M  V30 56 H 38.099219 32.663610 61.702333 0
M  V30 57 H 40.612118 29.518197 55.053704 0
M  V30 58 H 40.506978 28.649908 57.119166 0
M  V30 59 H 39.660872 37.520618 61.599738 0
M  V30 60 H 38.558203 35.928513 59.768632 0
M  V30 61 H 40.343644 34.537840 59.124143 0
M  V30 62 H 40.871686 35.732518 60.327325 0
M  V30 63 H 40.655366 34.025403 60.741714 0
M  V30 64 H 40.053940 31.909218 56.418427 0
M  V30 65 H 39.996256 30.539189 57.446421 0
M  V30 66 H 37.168772 29.210716 53.976600 0
M  V30 67 H 35.951255 35.528962 58.465856 0
M  V30 68 H 37.580516 36.945837 65.031649 0
M  V30 69 H 38.986438 28.018109 51.020785 0
M  V30 70 H 38.844867 29.765566 50.466614 0
M  V30 71 H 36.862040 29.521915 56.134592 0
M  V30 72 H 36.845291 31.253457 55.767178 0
M  V30 73 H 39.020957 31.146129 54.807014 0
M  V30 74 H 41.569838 27.338345 55.774923 0
M  V30 75 H 41.011518 26.448342 57.136138 0
M  V30 76 H 36.845077 39.811255 62.202059 0
M  V30 77 H 38.443251 39.959286 61.367690 0
M  V30 78 H 36.908535 39.942517 60.567690 0
M  V30 79 H 37.865783 34.027583 58.985597 0
M  V30 80 H 39.773665 27.729502 53.512488 0
M  V30 81 H 38.196632 28.132407 53.833299 0
M  V30 82 H 36.561674 37.533615 61.546356 0
M  V30 83 H 39.242969 38.137801 63.943966 0
M  V30 84 H 37.738464 35.474347 62.204449 0
M  V30 END ATOM
M  V30 BEGIN BOND
M  V30 1 1 2 1
M  V30 2 1 7 6
M  V30 3 2 8 6
M  V30 4 1 10 4
M  V30 5 1 11 3
M  V30 6 1 15 6
M  V30 7 1 15 14
M  V30 8 1 18 17
M  V30 9 1 19 12
M  V30 10 1 20 9
M  V30 11 1 22 1
M  V30 12 1 22 13
M  V30 13 1 23 20
M  V30 14 1 26 4
M  V30 15 1 26 10
M  V30 16 1 27 21
M  V30 17 1 28 14
M  V30 18 1 28 19
M  V30 19 1 28 27
M  V30 20 2 29 5
M  V30 21 1 29 12
M  V30 22 1 29 22
M  V30 23 1 30 15
M  V30 24 1 32 13
M  V30 25 1 32 17
M  V30 26 1 32 20
M  V30 27 1 34 4
M  V30 28 1 34 14
M  V30 29 1 35 16
M  V30 30 1 35 25
M  V30 31 1 35 31
M  V30 32 1 36 30
M  V30 33 2 36 33
M  V30 34 1 37 3
M  V30 35 1 37 16
M  V30 36 1 37 24
M  V30 37 1 38 36
M  V30 38 1 39 11
M  V30 39 1 39 16
M  V30 40 1 39 17
M  V30 41 1 40 1
M  V30 42 1 41 1
M  V30 43 1 42 2
M  V30 44 1 43 3
M  V30 45 1 44 3
M  V30 46 1 45 4
M  V30 47 1 46 7
M  V30 48 1 47 7
M  V30 49 1 48 9
M  V30 50 1 49 10
M  V30 51 1 50 10
M  V30 52 1 51 11
M  V30 53 1 52 11
M  V30 54 1 53 12
M  V30 55 1 54 12
M  V30 56 1 55 13
M  V30 57 1 56 13
M  V30 58 1 14 57 CFG=3
M  V30 59 1 15 58 CFG=1
M  V30 60 1 16 59 CFG=3
M  V30 61 1 17 60 CFG=3
M  V30 62 1 61 18
M  V30 63 1 62 18
M  V30 64 1 63 18
M  V30 65 1 64 19
M  V30 66 1 65 19
M  V30 67 1 66 21
M  V30 68 1 67 23
M  V30 69 1 68 24
M  V30 70 1 69 26
M  V30 71 1 70 26
M  V30 72 1 71 27
M  V30 73 1 72 27
M  V30 74 1 28 73 CFG=3
M  V30 75 1 74 30
M  V30 76 1 75 30
M  V30 77 1 76 31
M  V30 78 1 77 31
M  V30 79 1 78 31
M  V30 80 1 32 79 CFG=3
M  V30 81 1 80 34
M  V30 82 1 81 34
M  V30 83 1 35 82 CFG=1
M  V30 84 1 37 83 CFG=3
M  V30 85 1 39 84 CFG=1
M  V30 END BOND
M  V30 END CTAB
M  END
>  <i_epik_Tot_Q>  (1) 
1

>  <i_epik_Tot_abs_Q>  (1) 
3

>  <i_i_glide_confnum>  (1) 
8233

>  <i_i_glide_lignum>  (1) 
220

>  <i_i_glide_posenum>  (1) 
61

>  <i_i_glide_rotatable_bonds>  (1) 
24

>  <i_lp_mmshare_version>  (1) 
72125

>  <i_m_source_file_index>  (1) 
94

>  <i_f3d_flags>  (1) 
0

>  <num_sample>  (1) 
100

>  <b_lp_Chiralities_Consistent>  (1) 
1

>  <r_epik_Charging_Adjusted_Penalty>  (1) 
0.90916677635763199

>  <r_epik_Ionization_Penalty>  (1) 
0.45507897092921873

>  <r_epik_Ionization_Penalty_Charging>  (1) 
0.45507471778648678

>  <r_epik_Ionization_Penalty_Neutral>  (1) 
4.2531427319391784e-06

>  <r_epik_State_Penalty>  (1) 
0.45409205857114521

>  <r_glide_ring_energy>  (1) 
0

>  <r_i_docking_score>  (1) 
-2.5664284435757994

>  <r_i_glide_ecoul>  (1) 
-4.6844591883860209

>  <r_i_glide_eff_state_penalty>  (1) 
0.45409205857114521

>  <r_i_glide_einternal>  (1) 
34.795307726291952

>  <r_i_glide_emodel>  (1) 
3.728840920634795

>  <r_i_glide_emodel_strain>  (1) 
13.923768598278322

>  <r_i_glide_energy>  (1) 
-14.735109131679636

>  <r_i_glide_erotb>  (1) 
0.82188833391367333

>  <r_i_glide_esite>  (1) 
-0.14065618547382605

>  <r_i_glide_evdw>  (1) 
-10.050649943293614

>  <r_i_glide_gscore>  (1) 
-3.0205205021469448

>  <r_i_glide_gscore_strain>  (1) 
2.4809421495695805

>  <r_i_glide_hbond>  (1) 
-0.58585111015957103

>  <r_i_glide_ligand_efficiency>  (1) 
-0.065805857527584596

>  <r_i_glide_ligand_efficiency_ln>  (1) 
-0.55031511070636607

>  <r_i_glide_ligand_efficiency_sa>  (1) 
-0.22316157706490486

>  <r_i_glide_lipo>  (1) 
-2.6789575272637056

>  <r_i_glide_metal>  (1) 
-0

>  <r_i_glide_rewards>  (1) 
-1.7126847873105131

>  <r_lp_Energy>  (1) 
27.354928999999998

>  <s_epik_Chemistry_Notes>  (1) 
This compound contains an acetal/aminal-like group ( X-CH(R)-Y where X, Y are N, S, or O) that may be acid/base labile, releasing an aldehyde.

>  <s_epik_cmdline>  (1) 
J2VwaWtfcHl0aG9uJywgJy1waHQnLCAnMS4wJywgJy1waCcsICc3LjQnLCAnLXRuJywgJzgnLCAnLW1hJywgJzUwMCcsICctaW1hZScsICc8aW5maWxlLm1hZT4nLCAnLW9tYWUnLCAnPG91dGZpbGUubWFlPic=

>  <s_epik_input>  (1) 
W0NIMl0xW0NIMl1bQ0hdMVtDSDJdW0NAQEhdKFtDQEBIXShDKD1PKVtOSDJdKVtDSDJdQyg9TylbT0hdKVtDQEBIXShbQ0gyXVtPSF0pW0NIMl1bQ0gyXUMoPU8pTihbQ0gyXVtPSF0pW0NIMl1bQ0BASF0oW1MrXShbT0hdKVtPSF0pW0NASF0oW0NIM10pTjJbQ0gyXVtDSDJdW0NASF0oW09IXSlbQ0BASF0yW0NASF0oRilbQ0gzXQ==

>  <s_glide_docking_method>  (1) 
confgen

>  <s_i_glide_gridfile>  (1) 
gpcr_5ht2c_6bqh_protein_autoprepared_prepared

>  <s_lp_Force_Field>  (1) 
S-OPLS

>  <s_lp_Variant>  (1) 
DiffSBDD_93-8

>  <s_m_source_file>  (1) 
generated_GPCR_5HT2C_ligand_DiffSBDD_2026-06-23_prepared.sdf

>  <GenAI_Model>  (1) 
DiffSBDD

>  <Protein>  (1) 
GPCR_5HT2C

$$$$
DiffSBDD_93
     RDKit          3D

  0  0  0  0  0  0  0  0  0  0999 V3000
M  V30 BEGIN CTAB
M  V30 COUNTS 83 84 0 0 1
M  V30 BEGIN ATOM
M  V30 1 C 39.322283 31.172841 52.411103 0
M  V30 2 O 40.494240 31.066650 51.645143 0
M  V30 3 C 37.139185 27.116029 57.769040 0
M  V30 4 C 38.033985 35.153393 60.075452 0
M  V30 5 O 38.257200 32.637730 54.536511 0
M  V30 6 C 38.204228 31.833828 61.790872 0
M  V30 7 N 37.022713 32.436827 61.769352 0
M  V30 8 O 38.470947 30.926545 62.567695 0
M  V30 9 O 39.546298 27.841815 51.497384 0
M  V30 10 C 37.151026 36.382932 59.983136 0
M  V30 11 C 38.160870 27.869379 56.994612 0
M  V30 12 C 39.219296 31.267731 56.231550 0
M  V30 13 C 40.044037 29.580737 54.075555 0
M  V30 14 C 38.671321 32.694672 59.370468 0 CFG=1
M  V30 15 C 39.243765 32.316900 60.782946 0 CFG=1
M  V30 16 C 37.836642 25.825012 55.870548 0 CFG=1
M  V30 17 C 39.761454 27.332450 55.227877 0 CFG=1
M  V30 18 C 40.595590 26.219026 54.553343 0
M  V30 19 C 38.008138 31.594179 57.095044 0
M  V30 20 S 38.461474 27.529081 52.767085 0 CHG=1
M  V30 21 O 35.875271 31.263819 59.367929 0
M  V30 22 N 39.406976 30.828392 53.803202 0
M  V30 23 O 37.156026 28.521749 52.416529 0
M  V30 24 O 36.845145 24.821402 57.906754 0
M  V30 25 F 37.277033 23.601369 55.708214 0
M  V30 26 C 37.231437 35.611307 61.277085 0
M  V30 27 C 37.060913 30.535115 59.195668 0
M  V30 28 C 38.220731 31.387053 58.606714 0 CFG=2
M  V30 29 C 38.913315 31.633928 54.777889 0
M  V30 30 C 40.198611 33.342589 61.459949 0
M  V30 31 C 39.357115 24.137757 56.931480 0
M  V30 32 C 39.128624 28.354982 54.262303 0 CFG=2
M  V30 33 O 41.652086 31.554162 62.079367 0
M  V30 34 C 37.669996 33.904040 59.269396 0
M  V30 35 C 38.358531 24.394320 55.759703 0 CFG=2
M  V30 36 C 41.297826 32.723259 62.342221 0
M  V30 37 C 36.780178 25.865941 56.979029 0 CFG=1
M  V30 38 O 41.760236 33.438462 63.254706 0 CHG=-1
M  V30 39 N 38.833877 26.838675 56.229715 0
M  V30 40 H 38.845137 30.280333 52.010610 0
M  V30 41 H 38.851336 32.138004 52.218734 0
M  V30 42 H 40.662233 31.906621 51.231683 0
M  V30 43 H 37.713925 26.794405 58.635630 0
M  V30 44 H 36.306283 27.715958 58.137336 0
M  V30 45 H 39.094534 35.372580 60.118915 0
M  V30 46 H 36.847356 33.161320 61.088746 0
M  V30 47 H 36.305533 32.158218 62.410349 0
M  V30 48 H 39.634135 28.781959 51.451368 0
M  V30 49 H 37.659700 37.345170 59.919227 0
M  V30 50 H 36.223520 36.309643 59.418469 0
M  V30 51 H 38.853424 28.413304 57.637976 0
M  V30 52 H 37.604705 28.598948 56.424243 0
M  V30 53 H 39.507888 30.238540 56.408961 0
M  V30 54 H 40.045567 31.897163 56.536690 0
M  V30 55 H 40.841517 29.734012 54.800478 0
M  V30 56 H 40.444365 29.338150 53.119229 0
M  V30 57 H 39.537678 33.049526 58.808041 0
M  V30 58 H 39.843004 31.431241 60.574179 0
M  V30 59 H 37.338066 26.114088 54.948215 0
M  V30 60 H 40.492768 27.894971 55.802411 0
M  V30 61 H 41.245177 26.537258 53.755676 0
M  V30 62 H 41.224200 25.735863 55.297628 0
M  V30 63 H 40.005283 25.483644 54.039977 0
M  V30 64 H 37.629768 32.592919 56.884795 0
M  V30 65 H 37.245661 30.920101 56.719198 0
M  V30 66 H 35.645132 31.519726 58.455203 0
M  V30 67 H 36.459284 27.922375 52.188734 0
M  V30 68 H 36.849605 24.007593 57.419201 0
M  V30 69 H 36.347268 35.042966 61.565183 0
M  V30 70 H 37.793155 36.052744 62.097558 0
M  V30 71 H 36.800832 29.755487 58.495733 0
M  V30 72 H 37.340045 29.994203 60.094151 0
M  V30 73 H 39.073663 30.708846 58.666378 0
M  V30 74 H 40.680492 33.973031 60.722611 0
M  V30 75 H 39.632504 34.024814 62.093718 0
M  V30 76 H 40.373890 24.276886 56.602796 0
M  V30 77 H 39.275830 24.824954 57.772780 0
M  V30 78 H 39.277429 23.153956 57.370040 0
M  V30 79 H 38.220868 28.784868 54.651767 0
M  V30 80 H 37.615687 34.230557 58.231128 0
M  V30 81 H 36.644283 33.636371 59.506231 0
M  V30 82 H 38.800436 24.154762 54.804344 0
M  V30 83 H 35.784477 25.741292 56.550553 0
M  V30 END ATOM
M  V30 BEGIN BOND
M  V30 1 1 2 1
M  V30 2 1 7 6
M  V30 3 2 8 6
M  V30 4 1 10 4
M  V30 5 1 11 3
M  V30 6 1 15 6
M  V30 7 1 15 14
M  V30 8 1 18 17
M  V30 9 1 19 12
M  V30 10 1 20 9
M  V30 11 1 22 1
M  V30 12 1 22 13
M  V30 13 1 23 20
M  V30 14 1 26 4
M  V30 15 1 26 10
M  V30 16 1 27 21
M  V30 17 1 28 14
M  V30 18 1 28 19
M  V30 19 1 28 27
M  V30 20 2 29 5
M  V30 21 1 29 12
M  V30 22 1 29 22
M  V30 23 1 30 15
M  V30 24 1 32 13
M  V30 25 1 32 17
M  V30 26 1 32 20
M  V30 27 1 34 4
M  V30 28 1 34 14
M  V30 29 1 35 16
M  V30 30 1 35 25
M  V30 31 1 35 31
M  V30 32 1 36 30
M  V30 33 2 36 33
M  V30 34 1 37 3
M  V30 35 1 37 16
M  V30 36 1 37 24
M  V30 37 1 38 36
M  V30 38 1 39 11
M  V30 39 1 39 16
M  V30 40 1 39 17
M  V30 41 1 40 1
M  V30 42 1 41 1
M  V30 43 1 42 2
M  V30 44 1 43 3
M  V30 45 1 44 3
M  V30 46 1 45 4
M  V30 47 1 46 7
M  V30 48 1 47 7
M  V30 49 1 48 9
M  V30 50 1 49 10
M  V30 51 1 50 10
M  V30 52 1 51 11
M  V30 53 1 52 11
M  V30 54 1 53 12
M  V30 55 1 54 12
M  V30 56 1 55 13
M  V30 57 1 56 13
M  V30 58 1 14 57 CFG=3
M  V30 59 1 15 58 CFG=3
M  V30 60 1 16 59 CFG=3
M  V30 61 1 17 60 CFG=1
M  V30 62 1 61 18
M  V30 63 1 62 18
M  V30 64 1 63 18
M  V30 65 1 64 19
M  V30 66 1 65 19
M  V30 67 1 66 21
M  V30 68 1 67 23
M  V30 69 1 68 24
M  V30 70 1 69 26
M  V30 71 1 70 26
M  V30 72 1 71 27
M  V30 73 1 72 27
M  V30 74 1 28 73 CFG=3
M  V30 75 1 74 30
M  V30 76 1 75 30
M  V30 77 1 76 31
M  V30 78 1 77 31
M  V30 79 1 78 31
M  V30 80 1 32 79 CFG=1
M  V30 81 1 80 34
M  V30 82 1 81 34
M  V30 83 1 35 82 CFG=3
M  V30 84 1 37 83 CFG=3
M  V30 END BOND
M  V30 END CTAB
M  END
>  <i_epik_Tot_Q>  (1) 
0

>  <i_epik_Tot_abs_Q>  (1) 
2

>  <i_i_glide_confnum>  (1) 
10373

>  <i_i_glide_lignum>  (1) 
215

>  <i_i_glide_posenum>  (1) 
28

>  <i_i_glide_rotatable_bonds>  (1) 
24

>  <i_lp_mmshare_version>  (1) 
72125

>  <i_m_source_file_index>  (1) 
94

>  <i_f3d_flags>  (1) 
0

>  <num_sample>  (1) 
100

>  <b_lp_Chiralities_Consistent>  (1) 
1

>  <r_epik_Charging_Adjusted_Penalty>  (1) 
0.37121505818338452

>  <r_epik_Ionization_Penalty>  (1) 
0.37121789513022985

>  <r_epik_Ionization_Penalty_Charging>  (1) 
0.00098257200063165957

>  <r_epik_Ionization_Penalty_Neutral>  (1) 
0.37023532312959817

>  <r_epik_State_Penalty>  (1) 
0.37023248618275284

>  <r_glide_ring_energy>  (1) 
0

>  <r_i_docking_score>  (1) 
-2.5251169128499904

>  <r_i_glide_ecoul>  (1) 
-9.263672651371337

>  <r_i_glide_eff_state_penalty>  (1) 
0.37023248618275284

>  <r_i_glide_einternal>  (1) 
46.676748209546595

>  <r_i_glide_emodel>  (1) 
15.997138236775754

>  <r_i_glide_emodel_strain>  (1) 
15.643448210181958

>  <r_i_glide_energy>  (1) 
-11.168135155001478

>  <r_i_glide_erotb>  (1) 
0.82577533054746977

>  <r_i_glide_esite>  (1) 
0

>  <r_i_glide_evdw>  (1) 
-1.9044625036301408

>  <r_i_glide_gscore>  (1) 
-2.8953493990327432

>  <r_i_glide_gscore_strain>  (1) 
2.9108620525454896

>  <r_i_glide_hbond>  (1) 
-0.50810107932100834

>  <r_i_glide_ligand_efficiency>  (1) 
-0.064746587508974107

>  <r_i_glide_ligand_efficiency_ln>  (1) 
-0.54145674582121572

>  <r_i_glide_ligand_efficiency_sa>  (1) 
-0.21956936845655114

>  <r_i_glide_lipo>  (1) 
-2.3733462468522624

>  <r_i_glide_metal>  (1) 
-0

>  <r_i_glide_rewards>  (1) 
-2.2657654330652246

>  <r_lp_Energy>  (1) 
10.604659999999999

>  <s_epik_Chemistry_Notes>  (1) 
This compound contains an acetal/aminal-like group ( X-CH(R)-Y where X, Y are N, S, or O) that may be acid/base labile, releasing an aldehyde.

>  <s_epik_cmdline>  (1) 
J2VwaWtfcHl0aG9uJywgJy1waHQnLCAnMS4wJywgJy1waCcsICc3LjQnLCAnLXRuJywgJzgnLCAnLW1hJywgJzUwMCcsICctaW1hZScsICc8aW5maWxlLm1hZT4nLCAnLW9tYWUnLCAnPG91dGZpbGUubWFlPic=

>  <s_epik_input>  (1) 
W0NIMl0xW0NIMl1bQ0hdMVtDSDJdW0NAQEhdKFtDQEBIXShDKD1PKVtOSDJdKVtDSDJdQyg9TylbT0hdKVtDQEBIXShbQ0gyXVtPSF0pW0NIMl1bQ0gyXUMoPU8pTihbQ0gyXVtPSF0pW0NIMl1bQ0BASF0oW1MrXShbT0hdKVtPSF0pW0NASF0oW0NIM10pTjJbQ0gyXVtDSDJdW0NASF0oW09IXSlbQ0BASF0yW0NASF0oRilbQ0gzXQ==

>  <s_glide_docking_method>  (1) 
confgen

>  <s_i_glide_gridfile>  (1) 
gpcr_5ht2c_6bqh_protein_autoprepared_prepared

>  <s_lp_Force_Field>  (1) 
S-OPLS

>  <s_lp_Variant>  (1) 
DiffSBDD_93-3

>  <s_m_source_file>  (1) 
generated_GPCR_5HT2C_ligand_DiffSBDD_2026-06-23_prepared.sdf

>  <GenAI_Model>  (1) 
DiffSBDD

>  <Protein>  (1) 
GPCR_5HT2C

$$$$
DiffSBDD_57
     RDKit          3D

  0  0  0  0  0  0  0  0  0  0999 V3000
M  V30 BEGIN CTAB
M  V30 COUNTS 64 66 0 0 1
M  V30 BEGIN ATOM
M  V30 1 O 41.675434 32.612758 62.122432 0
M  V30 2 C 36.890632 33.342318 61.619073 0
M  V30 3 C 41.527631 33.810989 64.853028 0
M  V30 4 C 38.816611 31.930878 60.893170 0 CFG=2
M  V30 5 C 37.659975 30.718874 55.603169 0
M  V30 6 S 36.593396 33.132143 59.858519 0
M  V30 7 O 36.940296 29.803539 55.215213 0
M  V30 8 C 37.832876 32.215082 62.046039 0
M  V30 9 N 37.986795 28.937027 52.757122 0
M  V30 10 C 40.610076 36.181024 64.573012 0 CFG=2
M  V30 11 N 37.937917 30.937149 56.888451 0
M  V30 12 C 40.736772 33.375992 61.899896 0
M  V30 13 O 40.044340 37.183633 63.704516 0
M  V30 14 C 39.825401 33.101042 60.713617 0
M  V30 15 C 37.379641 30.599419 59.183679 0
M  V30 16 C 40.028466 29.913482 53.731158 0 CFG=2
M  V30 17 O 39.156824 37.338606 65.933907 0
M  V30 18 C 37.386286 30.173965 57.913151 0
M  V30 19 C 39.249085 28.630174 53.410058 0 CFG=1
M  V30 20 C 37.944872 31.942159 59.621672 0 CFG=2
M  V30 21 C 39.550256 30.581171 61.116346 0
M  V30 22 C 39.636595 31.299403 54.168587 0 CFG=2
M  V30 23 C 40.861477 34.832917 63.986460 0
M  V30 24 C 38.256724 31.707787 54.610468 0 CFG=2
M  V30 25 C 40.048384 31.042792 52.734592 0
M  V30 26 N 39.217419 36.537726 64.745528 0
M  V30 27 N 42.444489 34.220882 65.796819 0
M  V30 28 C 39.196534 27.679166 54.641382 0
M  V30 29 O 39.229886 26.349486 54.178637 0
M  V30 30 O 37.069441 27.854757 53.003221 0
M  V30 31 C 41.237218 32.495806 64.757606 0
M  V30 32 C 40.459887 34.610178 62.684589 0
M  V30 33 Cl 38.402034 33.323518 55.368655 0
M  V30 34 H 35.950961 33.346760 62.166891 0
M  V30 35 H 37.363679 34.312715 61.765960 0
M  V30 36 H 37.246341 31.322424 62.241645 0
M  V30 37 H 38.352383 32.462530 62.966672 0
M  V30 38 H 38.031835 28.965856 51.747051 0
M  V30 39 H 41.334106 36.534592 65.304028 0
M  V30 40 H 38.477624 31.748265 57.146637 0
M  V30 41 H 39.283406 34.020077 60.489254 0
M  V30 42 H 40.444734 32.937534 59.840119 0
M  V30 43 H 36.943333 29.980991 59.951771 0
M  V30 44 H 40.845212 29.737777 54.409187 0
M  V30 45 H 39.210286 36.686501 66.615797 0
M  V30 46 H 36.964462 29.229582 57.594346 0
M  V30 47 H 39.830561 28.118757 52.639244 0
M  V30 48 H 38.542150 32.346887 58.805918 0
M  V30 49 H 38.862696 29.740987 61.217127 0
M  V30 50 H 40.226311 30.354156 60.290851 0
M  V30 51 H 40.135170 30.583338 62.034515 0
M  V30 52 H 40.401307 31.737901 54.808418 0
M  V30 53 H 37.586600 31.805614 53.768262 0
M  V30 54 H 39.273065 31.094999 51.984083 0
M  V30 55 H 41.027703 31.337807 52.376927 0
M  V30 56 H 42.760671 35.178828 65.844388 0
M  V30 57 H 40.067705 27.803660 55.282608 0
M  V30 58 H 38.327749 27.822305 55.278502 0
M  V30 59 H 38.473889 26.248512 53.615442 0
M  V30 60 H 36.444210 28.272326 53.582203 0
M  V30 61 H 41.730706 31.775090 65.392944 0
M  V30 62 H 40.506768 32.121606 64.062691 0
M  V30 63 H 39.918171 35.388755 62.168522 0
M  V30 64 H 42.965478 33.555515 66.349290 0
M  V30 END ATOM
M  V30 BEGIN BOND
M  V30 1 1 6 2
M  V30 2 2 7 5
M  V30 3 1 8 2
M  V30 4 1 8 4
M  V30 5 1 11 5
M  V30 6 2 12 1
M  V30 7 1 13 10
M  V30 8 1 4 14 CFG=3
M  V30 9 1 14 12
M  V30 10 1 18 11
M  V30 11 2 18 15
M  V30 12 1 19 9
M  V30 13 1 19 16
M  V30 14 1 20 4
M  V30 15 1 20 6
M  V30 16 1 20 15
M  V30 17 1 21 4
M  V30 18 1 22 16
M  V30 19 1 23 3
M  V30 20 1 23 10
M  V30 21 1 24 5
M  V30 22 1 24 22
M  V30 23 1 25 16
M  V30 24 1 25 22
M  V30 25 1 26 10
M  V30 26 1 26 13
M  V30 27 1 26 17
M  V30 28 1 27 3
M  V30 29 1 28 19
M  V30 30 1 29 28
M  V30 31 1 30 9
M  V30 32 2 31 3
M  V30 33 1 32 12
M  V30 34 2 32 23
M  V30 35 1 33 24
M  V30 36 1 34 2
M  V30 37 1 35 2
M  V30 38 1 36 8
M  V30 39 1 37 8
M  V30 40 1 38 9
M  V30 41 1 10 39 CFG=1
M  V30 42 1 40 11
M  V30 43 1 41 14
M  V30 44 1 42 14
M  V30 45 1 43 15
M  V30 46 1 16 44 CFG=1
M  V30 47 1 45 17
M  V30 48 1 46 18
M  V30 49 1 19 47 CFG=3
M  V30 50 1 20 48 CFG=3
M  V30 51 1 49 21
M  V30 52 1 50 21
M  V30 53 1 51 21
M  V30 54 1 22 52 CFG=1
M  V30 55 1 24 53 CFG=3
M  V30 56 1 54 25
M  V30 57 1 55 25
M  V30 58 1 56 27
M  V30 59 1 57 28
M  V30 60 1 58 28
M  V30 61 1 59 29
M  V30 62 1 60 30
M  V30 63 1 61 31
M  V30 64 1 62 31
M  V30 65 1 63 32
M  V30 66 1 64 27
M  V30 END BOND
M  V30 END CTAB
M  END
>  <i_epik_Tot_Q>  (1) 
0

>  <i_epik_Tot_abs_Q>  (1) 
0

>  <i_i_glide_confnum>  (1) 
672

>  <i_i_glide_lignum>  (1) 
127

>  <i_i_glide_posenum>  (1) 
11

>  <i_i_glide_rotatable_bonds>  (1) 
16

>  <i_lp_mmshare_version>  (1) 
72125

>  <i_m_source_file_index>  (1) 
58

>  <i_f3d_flags>  (1) 
0

>  <num_sample>  (1) 
100

>  <b_lp_Chiralities_Consistent>  (1) 
1

>  <r_epik_Charging_Adjusted_Penalty>  (1) 
0.024416195549470061

>  <r_epik_Ionization_Penalty>  (1) 
0.014246986074461085

>  <r_epik_Ionization_Penalty_Charging>  (1) 
6.6592516266621022e-05

>  <r_epik_Ionization_Penalty_Neutral>  (1) 
0.014180393558194464

>  <r_epik_State_Penalty>  (1) 
0.024349603033203441

>  <r_glide_ring_energy>  (1) 
0.20502008593201695

>  <r_i_docking_score>  (1) 
-2.4949638428376635

>  <r_i_glide_ecoul>  (1) 
1.5324318352556852

>  <r_i_glide_eff_state_penalty>  (1) 
0.024349603033203441

>  <r_i_glide_einternal>  (1) 
30.911830569853624

>  <r_i_glide_emodel>  (1) 
-11.268759368643842

>  <r_i_glide_emodel_strain>  (1) 
7.9119987620385785

>  <r_i_glide_energy>  (1) 
-27.534197617544901

>  <r_i_glide_erotb>  (1) 
1.0500022235395752

>  <r_i_glide_esite>  (1) 
-0.25427766805358482

>  <r_i_glide_evdw>  (1) 
-29.066629452800587

>  <r_i_glide_gscore>  (1) 
-2.5193134458708668

>  <r_i_glide_gscore_strain>  (1) 
0.97799969050964464

>  <r_i_glide_hbond>  (1) 
0

>  <r_i_glide_ligand_efficiency>  (1) 
-0.075604964934474647

>  <r_i_glide_ligand_efficiency_ln>  (1) 
-0.55486704041568702

>  <r_i_glide_ligand_efficiency_sa>  (1) 
-0.24250552054545813

>  <r_i_glide_lipo>  (1) 
-2.2757363974279632

>  <r_i_glide_metal>  (1) 
-0

>  <r_i_glide_rewards>  (1) 
-0.7938345970868621

>  <r_lp_Energy>  (1) 
20.021283

>  <s_epik_Chemistry_Notes>  (1) 
This compound has an imine and may undergo hydrolysis. This compound contains an acetal/aminal-like group ( X-CH(R)-Y where X, Y are N, S, or O) that may be acid/base labile, releasing an aldehyde. This compound has a N-S or N-O group and may undergo hydrolysis at high or low pH.

>  <s_epik_cmdline>  (1) 
J2VwaWtfcHl0aG9uJywgJy1waHQnLCAnMS4wJywgJy1waCcsICc3LjQnLCAnLXRuJywgJzgnLCAnLW1hJywgJzUwMCcsICctaW1hZScsICc8aW5maWxlLm1hZT4nLCAnLW9tYWUnLCAnPG91dGZpbGUubWFlPic=

>  <s_epik_input>  (1) 
W09IXU4xT1tDQEBIXTFDKC9DKD1OL1tIXSlbQ0gzXSk9W0NIXS9DKD1PKVtDSDJdW0NAQF0yKFtDSDNdKVtDSDJdW0NIMl1TW0NAQEhdMi9bQ0hdPVtDSF1cW05IXUMoPU8pW0NAQEhdKENsKVtDQEhdKFtDSDJdMylbQ0BIXTNbQ0BIXShbTkhdW09IXSlbQ0gyXVtPSF0=

>  <s_glide_docking_method>  (1) 
confgen

>  <s_i_glide_gridfile>  (1) 
gpcr_5ht2c_6bqh_protein_autoprepared_prepared

>  <s_lp_Force_Field>  (1) 
S-OPLS

>  <s_lp_Variant>  (1) 
DiffSBDD_57-3

>  <s_m_source_file>  (1) 
generated_GPCR_5HT2C_ligand_DiffSBDD_2026-06-23_prepared.sdf

>  <GenAI_Model>  (1) 
DiffSBDD

>  <Protein>  (1) 
GPCR_5HT2C

$$$$
DiffSBDD_14
     RDKit          3D

  0  0  0  0  0  0  0  0  0  0999 V3000
M  V30 BEGIN CTAB
M  V30 COUNTS 49 48 0 0 1
M  V30 BEGIN ATOM
M  V30 1 C 38.429026 29.991352 59.168806 0
M  V30 2 C 39.308773 29.718199 52.398229 0
M  V30 3 C 37.036659 30.469682 59.573833 0
M  V30 4 C 39.924696 30.312958 54.808926 0
M  V30 5 O 36.844924 36.220702 59.768107 0 CHG=-1
M  V30 6 N 36.845536 33.674054 58.567759 0 CHG=1
M  V30 7 C 38.900124 29.941430 57.903148 0
M  V30 8 C 36.921758 33.852457 60.025690 0 CFG=2
M  V30 9 C 40.199986 30.767792 51.735017 0
M  V30 10 C 38.087098 32.081792 54.801606 0
M  V30 11 C 38.977579 31.179831 55.671713 0 CFG=1
M  V30 12 C 37.486867 35.267468 60.262200 0
M  V30 13 C 41.063042 30.169190 50.614299 0
M  V30 14 O 38.546144 35.365159 60.920498 0
M  V30 15 C 37.738755 32.720516 60.721758 0
M  V30 16 O 35.757456 31.482039 61.359618 0
M  V30 17 C 40.247625 29.699500 49.404164 0
M  V30 18 C 39.190776 29.520389 53.730204 0
M  V30 19 C 38.122874 30.356947 56.660864 0
M  V30 20 C 37.066454 31.334125 60.850410 0 CFG=1
M  V30 21 H 39.070281 29.667360 59.976199 0
M  V30 22 H 38.733490 29.095604 51.729204 0
M  V30 23 H 36.458382 29.567153 59.773779 0
M  V30 24 H 36.490228 30.982795 58.792116 0
M  V30 25 H 40.714335 30.944985 54.416940 0
M  V30 26 H 40.444843 29.592357 55.438854 0
M  V30 27 H 36.393147 34.492461 58.181399 0
M  V30 28 H 37.779704 33.617264 58.191127 0
M  V30 29 H 39.903150 29.578484 57.734375 0
M  V30 30 H 35.902942 33.868089 60.413869 0
M  V30 31 H 39.584364 31.554211 51.304426 0
M  V30 32 H 40.845102 31.288545 52.430808 0
M  V30 33 H 37.270769 31.521780 54.344666 0
M  V30 34 H 37.645150 32.883444 55.392761 0
M  V30 35 H 38.659535 32.537748 53.997545 0
M  V30 36 H 39.607907 31.848921 56.260225 0
M  V30 37 H 41.781020 30.919543 50.280730 0
M  V30 38 H 41.644977 29.337879 51.007935 0
M  V30 39 H 37.947605 33.033272 61.746387 0
M  V30 40 H 38.716993 32.617684 60.249871 0
M  V30 41 H 35.198438 31.833459 60.682768 0
M  V30 42 H 40.893864 29.337814 48.605426 0
M  V30 43 H 39.572685 28.885700 49.664243 0
M  V30 44 H 39.645142 30.513649 49.005642 0
M  V30 45 H 38.526665 28.745415 54.083858 0
M  V30 46 H 37.741203 29.458437 56.176845 0
M  V30 47 H 37.245202 30.937747 56.911566 0
M  V30 48 H 37.620853 30.776738 61.607566 0
M  V30 49 H 36.320300 32.846468 58.308251 0
M  V30 END ATOM
M  V30 BEGIN BOND
M  V30 1 1 3 1
M  V30 2 2 7 1
M  V30 3 1 8 6
M  V30 4 1 9 2
M  V30 5 1 11 4
M  V30 6 1 11 10
M  V30 7 1 12 5
M  V30 8 1 12 8
M  V30 9 1 13 9
M  V30 10 2 14 12
M  V30 11 1 15 8
M  V30 12 1 17 13
M  V30 13 2 18 2
M  V30 14 1 18 4
M  V30 15 1 19 7
M  V30 16 1 19 11
M  V30 17 1 20 3
M  V30 18 1 20 15
M  V30 19 1 20 16
M  V30 20 1 21 1
M  V30 21 1 22 2
M  V30 22 1 23 3
M  V30 23 1 24 3
M  V30 24 1 25 4
M  V30 25 1 26 4
M  V30 26 1 27 6
M  V30 27 1 28 6
M  V30 28 1 29 7
M  V30 29 1 8 30 CFG=1
M  V30 30 1 31 9
M  V30 31 1 32 9
M  V30 32 1 33 10
M  V30 33 1 34 10
M  V30 34 1 35 10
M  V30 35 1 11 36 CFG=1
M  V30 36 1 37 13
M  V30 37 1 38 13
M  V30 38 1 39 15
M  V30 39 1 40 15
M  V30 40 1 41 16
M  V30 41 1 42 17
M  V30 42 1 43 17
M  V30 43 1 44 17
M  V30 44 1 45 18
M  V30 45 1 46 19
M  V30 46 1 47 19
M  V30 47 1 20 48 CFG=1
M  V30 48 1 49 6
M  V30 END BOND
M  V30 END CTAB
M  END
>  <i_epik_Tot_Q>  (1) 
0

>  <i_epik_Tot_abs_Q>  (1) 
2

>  <i_i_glide_confnum>  (1) 
65

>  <i_i_glide_lignum>  (1) 
29

>  <i_i_glide_posenum>  (1) 
313

>  <i_i_glide_rotatable_bonds>  (1) 
12

>  <i_lp_mmshare_version>  (1) 
72125

>  <i_m_source_file_index>  (1) 
15

>  <i_f3d_flags>  (1) 
0

>  <num_sample>  (1) 
100

>  <b_lp_Chiralities_Consistent>  (1) 
1

>  <r_epik_Charging_Adjusted_Penalty>  (1) 
0.00991281995240933

>  <r_epik_Ionization_Penalty>  (1) 
0.0049587358016132182

>  <r_epik_Ionization_Penalty_Charging>  (1) 
0.0049586922537287062

>  <r_epik_Ionization_Penalty_Neutral>  (1) 
4.3547884512074136e-08

>  <r_epik_State_Penalty>  (1) 
0.0049541276986806238

>  <r_glide_ring_energy>  (1) 
0

>  <r_i_docking_score>  (1) 
-2.4652822769889533

>  <r_i_glide_ecoul>  (1) 
-7.067247300538706

>  <r_i_glide_eff_state_penalty>  (1) 
0.0049541276986806238

>  <r_i_glide_einternal>  (1) 
6.5195670091207454

>  <r_i_glide_emodel>  (1) 
-35.846666664232131

>  <r_i_glide_emodel_strain>  (1) 
1.1305401487504199

>  <r_i_glide_energy>  (1) 
-33.519748307922292

>  <r_i_glide_erotb>  (1) 
4.0583376510001772

>  <r_i_glide_esite>  (1) 
-0.070104186473052305

>  <r_i_glide_evdw>  (1) 
-26.452501007383585

>  <r_i_glide_gscore>  (1) 
-2.4702364046876339

>  <r_i_glide_gscore_strain>  (1) 
0

>  <r_i_glide_hbond>  (1) 
-0.51151643534252911

>  <r_i_glide_ligand_efficiency>  (1) 
-0.12326411384944766

>  <r_i_glide_ligand_efficiency_ln>  (1) 
-0.61697884347897414

>  <r_i_glide_ligand_efficiency_sa>  (1) 
-0.33459028212690095

>  <r_i_glide_lipo>  (1) 
-1.2573175566487937

>  <r_i_glide_metal>  (1) 
-0

>  <r_i_glide_rewards>  (1) 
-2.3069237317734501

>  <r_lp_Energy>  (1) 
-3.7149109999999999

>  <s_epik_cmdline>  (1) 
J2VwaWtfcHl0aG9uJywgJy1waHQnLCAnMS4wJywgJy1waCcsICc3LjQnLCAnLXRuJywgJzgnLCAnLW1hJywgJzUwMCcsICctaW1hZScsICc8aW5maWxlLm1hZT4nLCAnLW9tYWUnLCAnPG91dGZpbGUubWFlPic=

>  <s_epik_input>  (1) 
W09IXUMoPU8pW0NAQEhdKFtOSDJdKVtDSDJdW0NAQEhdKFtPSF0pW0NIMl0vW0NIXT1bQ0hdXFtDSDJdW0NAQEhdKFtDSDNdKVtDSDJdL1tDSF09W0NIXVxbQ0gyXVtDSDJdW0NIM10=

>  <s_glide_docking_method>  (1) 
confgen

>  <s_i_glide_gridfile>  (1) 
gpcr_5ht2c_6bqh_protein_autoprepared_prepared

>  <s_lp_Force_Field>  (1) 
S-OPLS

>  <s_lp_Variant>  (1) 
DiffSBDD_14-7

>  <s_m_source_file>  (1) 
generated_GPCR_5HT2C_ligand_DiffSBDD_2026-06-23_prepared.sdf

>  <GenAI_Model>  (1) 
DiffSBDD

>  <Protein>  (1) 
GPCR_5HT2C

$$$$
DiffSBDD_93
     RDKit          3D

  0  0  0  0  0  0  0  0  0  0999 V3000
M  V30 BEGIN CTAB
M  V30 COUNTS 83 84 0 0 1
M  V30 BEGIN ATOM
M  V30 1 C 36.794711 32.315850 60.983111 0
M  V30 2 O 35.591454 32.318101 60.230302 0
M  V30 3 C 42.778757 34.504750 65.412317 0
M  V30 4 C 38.180782 25.770859 56.220813 0
M  V30 5 O 39.245078 33.003916 58.410200 0
M  V30 6 C 38.782276 30.577509 54.267008 0
M  V30 7 N 37.541012 30.953717 54.567839 0
M  V30 8 O 39.594980 31.337904 53.766724 0
M  V30 9 O 41.774460 32.333558 61.367892 0
M  V30 10 C 37.133873 24.941661 56.944090 0
M  V30 11 C 41.981386 33.929908 64.255892 0
M  V30 12 C 37.812318 31.118626 58.578179 0
M  V30 13 C 38.633890 34.011222 60.922558 0
M  V30 14 C 38.600625 28.316491 55.809538 0 CFG=1
M  V30 15 C 39.184404 29.122063 54.566834 0 CFG=1
M  V30 16 C 40.924982 35.901535 64.937011 0 CFG=1
M  V30 17 C 40.173614 34.863774 62.790157 0 CFG=1
M  V30 18 C 41.125953 35.568031 61.789029 0
M  V30 19 C 38.652644 30.302428 57.567165 0
M  V30 20 S 40.401155 32.050518 62.299544 0 CHG=1
M  V30 21 O 36.062682 28.939136 58.567730 0
M  V30 22 N 37.953563 32.896239 60.268621 0
M  V30 23 O 39.587531 30.833135 61.452264 0
M  V30 24 O 41.044569 34.731039 67.058503 0
M  V30 25 F 39.221111 37.363460 64.240730 0
M  V30 26 C 37.675637 24.483779 55.624821 0
M  V30 27 C 37.219389 28.296816 58.044085 0
M  V30 28 C 37.829240 29.145515 56.914361 0 CFG=2
M  V30 29 C 38.389391 32.431428 59.068373 0
M  V30 30 C 39.415356 28.391078 53.196546 0
M  V30 31 C 39.820695 37.761366 66.459704 0
M  V30 32 C 39.418498 33.618296 62.220893 0 CFG=2
M  V30 33 O 37.082144 28.448674 52.755461 0
M  V30 34 C 37.904810 26.984389 55.365818 0
M  V30 35 C 39.659137 36.736892 65.324974 0 CFG=2
M  V30 36 C 38.209265 28.174470 52.289711 0
M  V30 37 C 41.804419 35.449519 66.104479 0 CFG=1
M  V30 38 O 38.444824 27.736995 51.145226 0 CHG=-1
M  V30 39 N 40.736526 34.686851 64.143830 0
M  V30 40 H 37.002194 31.304174 61.329201 0
M  V30 41 H 36.586724 32.890812 61.885338 0
M  V30 42 H 35.775783 32.270971 59.299188 0
M  V30 43 H 43.205138 33.745502 66.067940 0
M  V30 44 H 43.590259 35.075488 64.967746 0
M  V30 45 H 39.198332 25.718198 56.605552 0
M  V30 46 H 36.895901 30.287565 54.964048 0
M  V30 47 H 37.246873 31.904642 54.398019 0
M  V30 48 H 42.505037 32.239677 61.960940 0
M  V30 49 H 37.448683 24.398075 57.833771 0
M  V30 50 H 36.108366 25.305508 56.953976 0
M  V30 51 H 41.767973 32.883092 64.466769 0
M  V30 52 H 42.580214 33.974874 63.352634 0
M  V30 53 H 37.677282 30.485126 59.449191 0
M  V30 54 H 36.845008 31.342552 58.167428 0
M  V30 55 H 37.885989 34.770037 61.162398 0
M  V30 56 H 39.310012 34.504816 60.226838 0
M  V30 57 H 39.497532 27.972141 56.327529 0
M  V30 58 H 40.199418 29.307106 54.920005 0
M  V30 59 H 41.559223 36.537676 64.336287 0
M  V30 60 H 39.357783 35.571262 62.903298 0
M  V30 61 H 40.584756 36.046907 60.974910 0
M  V30 62 H 41.692563 36.371554 62.251950 0
M  V30 63 H 41.840958 34.884271 61.340014 0
M  V30 64 H 39.059198 30.978351 56.822103 0
M  V30 65 H 39.520422 29.885820 58.076455 0
M  V30 66 H 35.653102 29.448969 57.879185 0
M  V30 67 H 39.650391 31.069597 60.540318 0
M  V30 68 H 40.355756 35.294969 67.375128 0
M  V30 69 H 37.009591 24.535032 54.764821 0
M  V30 70 H 38.445015 23.736343 55.566830 0
M  V30 71 H 36.845140 27.347186 57.699408 0
M  V30 72 H 37.952069 28.088373 58.826899 0
M  V30 73 H 36.958022 29.574329 56.431033 0
M  V30 74 H 40.067315 28.999797 52.568747 0
M  V30 75 H 39.919004 27.428581 53.319039 0
M  V30 76 H 40.265449 37.336344 67.356896 0
M  V30 77 H 40.413717 38.619152 66.169449 0
M  V30 78 H 38.844822 38.139569 66.750907 0
M  V30 79 H 38.654963 33.351871 62.946796 0
M  V30 80 H 36.845191 27.080694 55.157573 0
M  V30 81 H 38.287103 26.635527 54.416980 0
M  V30 82 H 38.817567 36.137749 65.629669 0
M  V30 83 H 42.325156 36.284724 66.567915 0
M  V30 END ATOM
M  V30 BEGIN BOND
M  V30 1 1 2 1
M  V30 2 1 7 6
M  V30 3 2 8 6
M  V30 4 1 10 4
M  V30 5 1 11 3
M  V30 6 1 15 6
M  V30 7 1 15 14
M  V30 8 1 18 17
M  V30 9 1 19 12
M  V30 10 1 20 9
M  V30 11 1 22 1
M  V30 12 1 22 13
M  V30 13 1 23 20
M  V30 14 1 26 4
M  V30 15 1 26 10
M  V30 16 1 27 21
M  V30 17 1 28 14
M  V30 18 1 28 19
M  V30 19 1 28 27
M  V30 20 2 29 5
M  V30 21 1 29 12
M  V30 22 1 29 22
M  V30 23 1 30 15
M  V30 24 1 32 13
M  V30 25 1 32 17
M  V30 26 1 32 20
M  V30 27 1 34 4
M  V30 28 1 34 14
M  V30 29 1 35 16
M  V30 30 1 35 25
M  V30 31 1 35 31
M  V30 32 1 36 30
M  V30 33 2 36 33
M  V30 34 1 37 3
M  V30 35 1 37 16
M  V30 36 1 37 24
M  V30 37 1 38 36
M  V30 38 1 39 11
M  V30 39 1 39 16
M  V30 40 1 39 17
M  V30 41 1 40 1
M  V30 42 1 41 1
M  V30 43 1 42 2
M  V30 44 1 43 3
M  V30 45 1 44 3
M  V30 46 1 45 4
M  V30 47 1 46 7
M  V30 48 1 47 7
M  V30 49 1 48 9
M  V30 50 1 49 10
M  V30 51 1 50 10
M  V30 52 1 51 11
M  V30 53 1 52 11
M  V30 54 1 53 12
M  V30 55 1 54 12
M  V30 56 1 55 13
M  V30 57 1 56 13
M  V30 58 1 14 57 CFG=1
M  V30 59 1 15 58 CFG=1
M  V30 60 1 16 59 CFG=3
M  V30 61 1 17 60 CFG=1
M  V30 62 1 61 18
M  V30 63 1 62 18
M  V30 64 1 63 18
M  V30 65 1 64 19
M  V30 66 1 65 19
M  V30 67 1 66 21
M  V30 68 1 67 23
M  V30 69 1 68 24
M  V30 70 1 69 26
M  V30 71 1 70 26
M  V30 72 1 71 27
M  V30 73 1 72 27
M  V30 74 1 28 73 CFG=3
M  V30 75 1 74 30
M  V30 76 1 75 30
M  V30 77 1 76 31
M  V30 78 1 77 31
M  V30 79 1 78 31
M  V30 80 1 32 79 CFG=1
M  V30 81 1 80 34
M  V30 82 1 81 34
M  V30 83 1 35 82 CFG=1
M  V30 84 1 37 83 CFG=1
M  V30 END BOND
M  V30 END CTAB
M  END
>  <i_epik_Tot_Q>  (1) 
0

>  <i_epik_Tot_abs_Q>  (1) 
2

>  <i_i_glide_confnum>  (1) 
3703

>  <i_i_glide_lignum>  (1) 
215

>  <i_i_glide_posenum>  (1) 
16

>  <i_i_glide_rotatable_bonds>  (1) 
24

>  <i_lp_mmshare_version>  (1) 
72125

>  <i_m_source_file_index>  (1) 
94

>  <i_f3d_flags>  (1) 
0

>  <num_sample>  (1) 
100

>  <b_lp_Chiralities_Consistent>  (1) 
1

>  <r_epik_Charging_Adjusted_Penalty>  (1) 
0.37121505818338452

>  <r_epik_Ionization_Penalty>  (1) 
0.37121789513022985

>  <r_epik_Ionization_Penalty_Charging>  (1) 
0.00098257200063165957

>  <r_epik_Ionization_Penalty_Neutral>  (1) 
0.37023532312959817

>  <r_epik_State_Penalty>  (1) 
0.37023248618275284

>  <r_glide_ring_energy>  (1) 
0

>  <r_i_docking_score>  (1) 
-2.444717663721256

>  <r_i_glide_ecoul>  (1) 
-3.5514411524994793

>  <r_i_glide_eff_state_penalty>  (1) 
0.37023248618275284

>  <r_i_glide_einternal>  (1) 
123.2901810447795

>  <r_i_glide_emodel>  (1) 
31.707246768820866

>  <r_i_glide_emodel_strain>  (1) 
14.799458358607211

>  <r_i_glide_energy>  (1) 
-33.248879963968257

>  <r_i_glide_erotb>  (1) 
0.82577533054746977

>  <r_i_glide_esite>  (1) 
-0.12004398646572263

>  <r_i_glide_evdw>  (1) 
-29.697438811468778

>  <r_i_glide_gscore>  (1) 
-2.8149501499040088

>  <r_i_glide_gscore_strain>  (1) 
2.6998645896518028

>  <r_i_glide_hbond>  (1) 
0

>  <r_i_glide_ligand_efficiency>  (1) 
-0.06268506830054503

>  <r_i_glide_ligand_efficiency_ln>  (1) 
-0.52421686453960803

>  <r_i_glide_ligand_efficiency_sa>  (1) 
-0.21257832092693293

>  <r_i_glide_lipo>  (1) 
-2.8797410244887884

>  <r_i_glide_metal>  (1) 
-0

>  <r_i_glide_rewards>  (1) 
-1.3232169457004086

>  <r_lp_Energy>  (1) 
10.604659999999999

>  <s_epik_Chemistry_Notes>  (1) 
This compound contains an acetal/aminal-like group ( X-CH(R)-Y where X, Y are N, S, or O) that may be acid/base labile, releasing an aldehyde.

>  <s_epik_cmdline>  (1) 
J2VwaWtfcHl0aG9uJywgJy1waHQnLCAnMS4wJywgJy1waCcsICc3LjQnLCAnLXRuJywgJzgnLCAnLW1hJywgJzUwMCcsICctaW1hZScsICc8aW5maWxlLm1hZT4nLCAnLW9tYWUnLCAnPG91dGZpbGUubWFlPic=

>  <s_epik_input>  (1) 
W0NIMl0xW0NIMl1bQ0hdMVtDSDJdW0NAQEhdKFtDQEBIXShDKD1PKVtOSDJdKVtDSDJdQyg9TylbT0hdKVtDQEBIXShbQ0gyXVtPSF0pW0NIMl1bQ0gyXUMoPU8pTihbQ0gyXVtPSF0pW0NIMl1bQ0BASF0oW1MrXShbT0hdKVtPSF0pW0NASF0oW0NIM10pTjJbQ0gyXVtDSDJdW0NASF0oW09IXSlbQ0BASF0yW0NASF0oRilbQ0gzXQ==

>  <s_glide_docking_method>  (1) 
confgen

>  <s_i_glide_gridfile>  (1) 
gpcr_5ht2c_6bqh_protein_autoprepared_prepared

>  <s_lp_Force_Field>  (1) 
S-OPLS

>  <s_lp_Variant>  (1) 
DiffSBDD_93-3

>  <s_m_source_file>  (1) 
generated_GPCR_5HT2C_ligand_DiffSBDD_2026-06-23_prepared.sdf

>  <GenAI_Model>  (1) 
DiffSBDD

>  <Protein>  (1) 
GPCR_5HT2C

$$$$
DiffSBDD_92
     RDKit          3D

  0  0  0  0  0  0  0  0  0  0999 V3000
M  V30 BEGIN CTAB
M  V30 COUNTS 72 74 0 0 1
M  V30 BEGIN ATOM
M  V30 1 C 48.714016 42.944910 47.476104 0 CFG=2
M  V30 2 O 55.201345 47.647382 48.901768 0
M  V30 3 C 45.889636 45.469693 47.204204 0
M  V30 4 C 54.311078 46.943095 48.376374 0
M  V30 5 C 45.915870 44.697330 54.548421 0
M  V30 6 C 51.163271 45.086507 49.544940 0
M  V30 7 C 43.389442 44.988725 55.111997 0
M  V30 8 O 50.199145 44.890301 51.747997 0
M  V30 9 C 46.066106 45.220182 49.788412 0 CFG=2
M  V30 10 C 52.211446 46.165976 51.473549 0
M  V30 11 C 48.819416 41.554228 43.737539 0
M  V30 12 N 50.074205 44.290505 49.023709 0
M  V30 13 N 43.552085 44.537699 56.355991 0
M  V30 14 S 46.206793 43.394354 49.814335 0
M  V30 15 O 54.275909 46.674503 47.154638 0 CHG=-1
M  V30 16 O 50.933931 43.739267 46.982072 0
M  V30 17 C 44.615001 45.049082 54.285761 0
M  V30 18 C 48.461686 43.943620 44.536418 0
M  V30 19 C 46.617989 45.862271 48.501600 0
M  V30 20 C 49.112326 42.577548 44.846411 0 CFG=1
M  V30 21 C 46.728351 45.858029 51.026542 0
M  V30 22 C 46.918462 43.962268 44.538049 0
M  V30 23 O 42.298363 45.337741 54.666505 0
M  V30 24 C 53.229929 46.670789 50.645301 0
M  V30 25 S 44.445130 45.675057 52.677220 0
M  V30 26 C 52.193854 45.599233 48.706755 0
M  V30 27 C 46.139456 45.468866 52.345525 0
M  V30 28 C 51.180261 45.378324 50.929677 0
M  V30 29 C 46.790366 44.937755 53.435505 0
M  V30 30 C 50.022295 43.703534 47.801620 0
M  V30 31 C 53.224492 46.391692 49.260858 0
M  V30 32 C 48.100804 42.218587 48.713216 0 CFG=2
M  V30 33 C 46.564651 46.108148 45.972717 0
M  V30 34 O 47.679505 43.138892 49.732028 0
M  V30 35 C 49.043306 41.194833 49.375227 0
M  V30 36 C 48.777129 41.987523 46.245301 0
M  V30 37 C 46.319952 45.382119 44.633782 0
M  V30 38 H 48.007261 43.721534 47.210314 0
M  V30 39 H 44.844197 45.776583 47.249870 0
M  V30 40 H 45.870274 44.385992 47.120226 0
M  V30 41 H 46.269376 44.284460 55.481393 0
M  V30 42 H 49.727578 44.158788 51.382912 0
M  V30 43 H 45.000690 45.447253 49.824677 0
M  V30 44 H 52.221419 46.384084 52.531219 0
M  V30 45 H 47.753204 41.337741 43.671824 0
M  V30 46 H 49.338642 40.613254 43.921930 0
M  V30 47 H 49.144045 41.922714 42.763931 0
M  V30 48 H 49.284799 44.141478 49.637607 0
M  V30 49 H 44.466677 44.262993 56.677294 0
M  V30 50 H 42.756443 44.473084 56.972883 0
M  V30 51 H 48.813089 44.297546 43.566515 0
M  V30 52 H 48.855916 44.666189 45.246439 0
M  V30 53 H 46.563828 46.947389 48.596300 0
M  V30 54 H 47.679482 45.635045 48.421053 0
M  V30 55 H 50.189250 42.742314 44.814413 0
M  V30 56 H 47.792229 45.627314 51.020141 0
M  V30 57 H 46.668662 46.943641 50.943986 0
M  V30 58 H 46.565648 43.495643 43.617777 0
M  V30 59 H 46.524336 43.337385 45.336778 0
M  V30 60 H 54.016745 47.276654 51.071429 0
M  V30 61 H 52.196641 45.409289 47.651549 0
M  V30 62 H 47.847792 44.719308 53.475508 0
M  V30 63 H 47.245152 41.642433 48.360638 0
M  V30 64 H 46.214013 47.137058 45.885373 0
M  V30 65 H 47.636325 46.197678 46.142632 0
M  V30 66 H 49.394880 40.452614 48.659227 0
M  V30 67 H 48.528416 40.654919 50.167657 0
M  V30 68 H 49.918156 41.664224 49.823914 0
M  V30 69 H 49.483386 41.183169 46.451986 0
M  V30 70 H 47.808089 41.494540 46.163211 0
M  V30 71 H 45.248738 45.339976 44.447728 0
M  V30 72 H 46.730406 45.987741 43.824758 0
M  V30 END ATOM
M  V30 BEGIN BOND
M  V30 1 2 4 2
M  V30 2 1 12 6
M  V30 3 1 13 7
M  V30 4 1 14 9
M  V30 5 1 15 4
M  V30 6 2 17 5
M  V30 7 1 17 7
M  V30 8 1 19 3
M  V30 9 1 19 9
M  V30 10 1 20 11
M  V30 11 1 20 18
M  V30 12 1 21 9
M  V30 13 1 22 18
M  V30 14 2 23 7
M  V30 15 2 24 10
M  V30 16 1 25 17
M  V30 17 1 26 6
M  V30 18 1 27 21
M  V30 19 1 27 25
M  V30 20 2 28 6
M  V30 21 1 28 8
M  V30 22 1 28 10
M  V30 23 1 29 5
M  V30 24 2 29 27
M  V30 25 1 30 1
M  V30 26 1 30 12
M  V30 27 2 30 16
M  V30 28 1 31 4
M  V30 29 1 31 24
M  V30 30 2 31 26
M  V30 31 1 32 1
M  V30 32 1 33 3
M  V30 33 1 34 14
M  V30 34 1 34 32
M  V30 35 1 35 32
M  V30 36 1 36 1
M  V30 37 1 36 20
M  V30 38 1 37 22
M  V30 39 1 37 33
M  V30 40 1 1 38 CFG=3
M  V30 41 1 39 3
M  V30 42 1 40 3
M  V30 43 1 41 5
M  V30 44 1 42 8
M  V30 45 1 9 43 CFG=1
M  V30 46 1 44 10
M  V30 47 1 45 11
M  V30 48 1 46 11
M  V30 49 1 47 11
M  V30 50 1 48 12
M  V30 51 1 49 13
M  V30 52 1 50 13
M  V30 53 1 51 18
M  V30 54 1 52 18
M  V30 55 1 53 19
M  V30 56 1 54 19
M  V30 57 1 20 55 CFG=1
M  V30 58 1 56 21
M  V30 59 1 57 21
M  V30 60 1 58 22
M  V30 61 1 59 22
M  V30 62 1 60 24
M  V30 63 1 61 26
M  V30 64 1 62 29
M  V30 65 1 32 63 CFG=3
M  V30 66 1 64 33
M  V30 67 1 65 33
M  V30 68 1 66 35
M  V30 69 1 67 35
M  V30 70 1 68 35
M  V30 71 1 69 36
M  V30 72 1 70 36
M  V30 73 1 71 37
M  V30 74 1 72 37
M  V30 END BOND
M  V30 END CTAB
M  END
>  <i_epik_Tot_Q>  (1) 
-1

>  <i_epik_Tot_abs_Q>  (1) 
1

>  <i_i_glide_confnum>  (1) 
64

>  <i_i_glide_lignum>  (1) 
212

>  <i_i_glide_posenum>  (1) 
77

>  <i_i_glide_rotatable_bonds>  (1) 
8

>  <i_lp_mmshare_version>  (1) 
72125

>  <i_m_source_file_index>  (1) 
93

>  <i_f3d_flags>  (1) 
0

>  <num_sample>  (1) 
100

>  <b_lp_Chiralities_Consistent>  (1) 
1

>  <r_epik_Charging_Adjusted_Penalty>  (1) 
0.00060253989728688382

>  <r_epik_Ionization_Penalty>  (1) 
0.0030111313993829731

>  <r_epik_Ionization_Penalty_Charging>  (1) 
0.00060253989728688382

>  <r_epik_Ionization_Penalty_Neutral>  (1) 
0.0024085915020960894

>  <r_epik_State_Penalty>  (1) 
-0

>  <r_glide_ring_energy>  (1) 
0

>  <r_i_docking_score>  (1) 
-2.3077138878834238

>  <r_i_glide_ecoul>  (1) 
-0.18266188109744441

>  <r_i_glide_eff_state_penalty>  (1) 
-0

>  <r_i_glide_einternal>  (1) 
1.0079777236992502

>  <r_i_glide_emodel>  (1) 
-25.404067374597421

>  <r_i_glide_emodel_strain>  (1) 
0.20904628979819506

>  <r_i_glide_energy>  (1) 
-22.80342635245227

>  <r_i_glide_erotb>  (1) 
0.34529747416661971

>  <r_i_glide_esite>  (1) 
0

>  <r_i_glide_evdw>  (1) 
-22.620764471354825

>  <r_i_glide_gscore>  (1) 
-2.3077138878834238

>  <r_i_glide_gscore_strain>  (1) 
0

>  <r_i_glide_hbond>  (1) 
0

>  <r_i_glide_ligand_efficiency>  (1) 
-0.062370645618470916

>  <r_i_glide_ligand_efficiency_ln>  (1) 
-0.50048904179255249

>  <r_i_glide_ligand_efficiency_sa>  (1) 
-0.20783282823113475

>  <r_i_glide_lipo>  (1) 
-1.224205262779678

>  <r_i_glide_metal>  (1) 
-0

>  <r_i_glide_rewards>  (1) 
-0.27036859353800774

>  <r_lp_Energy>  (1) 
30.701922999999997

>  <r_lp_tautomer_probability>  (1) 
1

>  <s_epik_cmdline>  (1) 
J2VwaWtfcHl0aG9uJywgJy1waHQnLCAnMS4wJywgJy1waCcsICc3LjQnLCAnLXRuJywgJzgnLCAnLW1hJywgJzUwMCcsICctaW1hZScsICc8aW5maWxlLm1hZT4nLCAnLW9tYWUnLCAnPG91dGZpbGUubWFlPic=

>  <s_epik_input>  (1) 
W09IXWMxW2NIXVtjSF1jKEMoPU8pW09IXSlbY0hdYzFbTkhdQyg9TylbQ0BASF0yW0NAQEhdKFtDSDNdKU9TW0NAQEhdKFtDSDJdYyhzMylbY0hdW2NIXWMzQyg9TylbTkgyXSlbQ0gyXVtDSDJdW0NIMl1bQ0gyXVtDSDJdW0NIMl1bQ0BIXShbQ0gzXSlbQ0gyXTI=

>  <s_glide_docking_method>  (1) 
confgen

>  <s_i_glide_gridfile>  (1) 
gpcr_5ht2c_6bqh_protein_autoprepared_prepared

>  <s_lp_Force_Field>  (1) 
S-OPLS

>  <s_lp_Variant>  (1) 
DiffSBDD_92-1

>  <s_m_source_file>  (1) 
generated_GPCR_5HT2C_ligand_DiffSBDD_2026-06-23_prepared.sdf

>  <GenAI_Model>  (1) 
DiffSBDD

>  <Protein>  (1) 
GPCR_5HT2C

$$$$
DiffSBDD_14
     RDKit          3D

  0  0  0  0  0  0  0  0  0  0999 V3000
M  V30 BEGIN CTAB
M  V30 COUNTS 49 48 0 0 1
M  V30 BEGIN ATOM
M  V30 1 C 37.885606 29.961438 58.956157 0
M  V30 2 C 39.643818 29.948133 52.662852 0
M  V30 3 C 38.011530 31.458704 58.721668 0
M  V30 4 C 37.984368 28.622013 54.077634 0
M  V30 5 O 38.932943 34.612302 61.150464 0 CHG=-1
M  V30 6 N 36.445122 36.117406 59.367761 0 CHG=1
M  V30 7 C 37.793096 29.050748 57.968536 0
M  V30 8 C 36.797089 34.902547 60.112603 0 CFG=2
M  V30 9 C 40.142804 28.755107 51.866338 0
M  V30 10 C 39.722380 27.855148 55.788041 0
M  V30 11 C 38.254705 28.257435 55.554887 0 CFG=1
M  V30 12 C 37.898468 35.313834 61.108964 0
M  V30 13 C 39.540136 28.696521 50.472423 0
M  V30 14 O 37.677689 36.331088 61.803738 0
M  V30 15 C 37.192273 33.788285 59.116770 0
M  V30 16 O 35.875450 31.888683 59.767289 0
M  V30 17 C 40.045133 29.833953 49.573172 0
M  V30 18 C 38.703462 29.892006 53.627400 0
M  V30 19 C 37.807335 29.398855 56.489411 0
M  V30 20 C 37.210031 32.351632 59.681677 0 CFG=1
M  V30 21 H 37.872232 29.633953 59.985391 0
M  V30 22 H 40.088786 30.902537 52.418831 0
M  V30 23 H 37.694952 31.701636 57.708181 0
M  V30 24 H 39.065266 31.723461 58.787203 0
M  V30 25 H 38.188338 27.764889 53.440887 0
M  V30 26 H 36.916970 28.805410 53.950813 0
M  V30 27 H 36.218314 36.836514 60.040608 0
M  V30 28 H 37.247745 36.405657 58.828419 0
M  V30 29 H 37.700982 28.003858 58.217002 0
M  V30 30 H 35.917477 34.591460 60.677352 0
M  V30 31 H 41.224870 28.841230 51.767708 0
M  V30 32 H 39.977945 27.811829 52.382001 0
M  V30 33 H 40.397031 28.701359 55.653562 0
M  V30 34 H 39.871973 27.473614 56.798369 0
M  V30 35 H 40.029000 27.069815 55.096579 0
M  V30 36 H 37.645110 27.381662 55.780132 0
M  V30 37 H 39.808147 27.734401 50.044498 0
M  V30 38 H 38.452141 28.704207 50.545332 0
M  V30 39 H 38.172274 34.026527 58.700605 0
M  V30 40 H 36.519578 33.809690 58.256448 0
M  V30 41 H 35.577875 31.744175 58.869038 0
M  V30 42 H 39.645119 29.737105 48.567757 0
M  V30 43 H 39.733483 30.808250 49.949395 0
M  V30 44 H 41.132294 29.839232 49.497560 0
M  V30 45 H 38.419527 30.803720 54.133132 0
M  V30 46 H 36.805804 29.737803 56.221720 0
M  V30 47 H 38.471522 30.248194 56.336455 0
M  V30 48 H 37.656967 32.317712 60.675182 0
M  V30 49 H 35.665823 35.935341 58.751457 0
M  V30 END ATOM
M  V30 BEGIN BOND
M  V30 1 1 3 1
M  V30 2 2 7 1
M  V30 3 1 8 6
M  V30 4 1 9 2
M  V30 5 1 11 4
M  V30 6 1 11 10
M  V30 7 1 12 5
M  V30 8 1 12 8
M  V30 9 1 13 9
M  V30 10 2 14 12
M  V30 11 1 15 8
M  V30 12 1 17 13
M  V30 13 2 18 2
M  V30 14 1 18 4
M  V30 15 1 19 7
M  V30 16 1 19 11
M  V30 17 1 20 3
M  V30 18 1 20 15
M  V30 19 1 20 16
M  V30 20 1 21 1
M  V30 21 1 22 2
M  V30 22 1 23 3
M  V30 23 1 24 3
M  V30 24 1 25 4
M  V30 25 1 26 4
M  V30 26 1 27 6
M  V30 27 1 28 6
M  V30 28 1 29 7
M  V30 29 1 8 30 CFG=1
M  V30 30 1 31 9
M  V30 31 1 32 9
M  V30 32 1 33 10
M  V30 33 1 34 10
M  V30 34 1 35 10
M  V30 35 1 11 36 CFG=1
M  V30 36 1 37 13
M  V30 37 1 38 13
M  V30 38 1 39 15
M  V30 39 1 40 15
M  V30 40 1 41 16
M  V30 41 1 42 17
M  V30 42 1 43 17
M  V30 43 1 44 17
M  V30 44 1 45 18
M  V30 45 1 46 19
M  V30 46 1 47 19
M  V30 47 1 20 48 CFG=1
M  V30 48 1 49 6
M  V30 END BOND
M  V30 END CTAB
M  END
>  <i_epik_Tot_Q>  (1) 
0

>  <i_epik_Tot_abs_Q>  (1) 
2

>  <i_i_glide_confnum>  (1) 
49

>  <i_i_glide_lignum>  (1) 
29

>  <i_i_glide_posenum>  (1) 
320

>  <i_i_glide_rotatable_bonds>  (1) 
12

>  <i_lp_mmshare_version>  (1) 
72125

>  <i_m_source_file_index>  (1) 
15

>  <i_f3d_flags>  (1) 
0

>  <num_sample>  (1) 
100

>  <b_lp_Chiralities_Consistent>  (1) 
1

>  <r_epik_Charging_Adjusted_Penalty>  (1) 
0.00991281995240933

>  <r_epik_Ionization_Penalty>  (1) 
0.0049587358016132182

>  <r_epik_Ionization_Penalty_Charging>  (1) 
0.0049586922537287062

>  <r_epik_Ionization_Penalty_Neutral>  (1) 
4.3547884512074136e-08

>  <r_epik_State_Penalty>  (1) 
0.0049541276986806238

>  <r_glide_ring_energy>  (1) 
0

>  <r_i_docking_score>  (1) 
-2.2882157462592296

>  <r_i_glide_ecoul>  (1) 
-4.8125786217279227

>  <r_i_glide_eff_state_penalty>  (1) 
0.0049541276986806238

>  <r_i_glide_einternal>  (1) 
6.8938135857113565

>  <r_i_glide_emodel>  (1) 
-31.533690541097311

>  <r_i_glide_emodel_strain>  (1) 
1.7057670955411872

>  <r_i_glide_energy>  (1) 
-30.450614286991375

>  <r_i_glide_erotb>  (1) 
4.0583376510001772

>  <r_i_glide_esite>  (1) 
0

>  <r_i_glide_evdw>  (1) 
-25.638035665263452

>  <r_i_glide_gscore>  (1) 
-2.2931698739579103

>  <r_i_glide_gscore_strain>  (1) 
0

>  <r_i_glide_hbond>  (1) 
-0.16

>  <r_i_glide_ligand_efficiency>  (1) 
-0.11441078731296148

>  <r_i_glide_ligand_efficiency_ln>  (1) 
-0.57266493088236459

>  <r_i_glide_ligand_efficiency_sa>  (1) 
-0.31055865661079568

>  <r_i_glide_lipo>  (1) 
-1.9702639761905907

>  <r_i_glide_metal>  (1) 
-0

>  <r_i_glide_rewards>  (1) 
-2.2174549722451351

>  <r_lp_Energy>  (1) 
-3.7149109999999999

>  <s_epik_cmdline>  (1) 
J2VwaWtfcHl0aG9uJywgJy1waHQnLCAnMS4wJywgJy1waCcsICc3LjQnLCAnLXRuJywgJzgnLCAnLW1hJywgJzUwMCcsICctaW1hZScsICc8aW5maWxlLm1hZT4nLCAnLW9tYWUnLCAnPG91dGZpbGUubWFlPic=

>  <s_epik_input>  (1) 
W09IXUMoPU8pW0NAQEhdKFtOSDJdKVtDSDJdW0NAQEhdKFtPSF0pW0NIMl0vW0NIXT1bQ0hdXFtDSDJdW0NAQEhdKFtDSDNdKVtDSDJdL1tDSF09W0NIXVxbQ0gyXVtDSDJdW0NIM10=

>  <s_glide_docking_method>  (1) 
confgen

>  <s_i_glide_gridfile>  (1) 
gpcr_5ht2c_6bqh_protein_autoprepared_prepared

>  <s_lp_Force_Field>  (1) 
S-OPLS

>  <s_lp_Variant>  (1) 
DiffSBDD_14-7

>  <s_m_source_file>  (1) 
generated_GPCR_5HT2C_ligand_DiffSBDD_2026-06-23_prepared.sdf

>  <GenAI_Model>  (1) 
DiffSBDD

>  <Protein>  (1) 
GPCR_5HT2C

$$$$
DiffSBDD_93
     RDKit          3D

  0  0  0  0  0  0  0  0  0  0999 V3000
M  V30 BEGIN CTAB
M  V30 COUNTS 84 85 0 0 1
M  V30 BEGIN ATOM
M  V30 1 C 41.318155 27.853144 57.581846 0
M  V30 2 O 41.040608 26.537764 57.256007 0
M  V30 3 C 39.640469 27.027087 50.884945 0
M  V30 4 C 37.961512 33.375978 57.056356 0
M  V30 5 O 40.210835 28.044186 60.108402 0
M  V30 6 C 40.256098 33.090437 61.397160 0
M  V30 7 N 41.222117 33.804681 61.978024 0
M  V30 8 O 40.264922 31.865064 61.383782 0
M  V30 9 O 37.868455 26.420635 57.149508 0
M  V30 10 C 38.401045 33.788148 55.662762 0
M  V30 11 C 40.045102 27.337670 52.326819 0
M  V30 12 C 38.235753 29.208636 59.425087 0
M  V30 13 C 39.274938 28.948570 56.707944 0
M  V30 14 C 38.232605 33.179607 59.632803 0 CFG=2
M  V30 15 C 39.110887 33.890934 60.729268 0 CFG=1
M  V30 16 C 38.882414 29.246296 51.608220 0 CFG=1
M  V30 17 C 38.974599 28.977327 54.141922 0 CFG=1
M  V30 18 C 37.546994 29.552231 54.258206 0
M  V30 19 C 38.394839 30.698109 59.144924 0
M  V30 20 S 38.220866 26.602483 55.498321 0 CHG=1
M  V30 21 O 35.475885 31.650811 61.022939 0
M  V30 22 N 40.037106 28.450289 57.875034 0
M  V30 23 O 39.318455 25.337934 55.246216 0
M  V30 24 O 39.701058 28.937890 49.367818 0
M  V30 25 F 39.245288 31.369048 50.506499 0
M  V30 26 C 38.136966 32.363043 55.947852 0
M  V30 27 C 36.125196 31.651053 59.767964 0
M  V30 28 C 37.655102 31.753880 59.974479 0 CFG=2
M  V30 29 C 39.577915 28.507856 59.163466 0
M  V30 30 C 38.243325 34.593905 61.794827 0
M  V30 31 C 41.191471 30.489591 51.034927 0
M  V30 32 C 39.300110 28.086044 55.386407 0 CFG=2
M  V30 33 O 36.861182 36.490843 62.198392 0
M  V30 34 C 38.906812 33.291382 58.236367 0
M  V30 35 C 39.722099 30.593236 51.490150 0 CFG=2
M  V30 36 C 37.555608 35.898668 61.345937 0
M  V30 37 C 39.044116 28.334467 50.432567 0 CFG=1
M  V30 38 O 37.742803 36.275245 60.168682 0 CHG=-1
M  V30 39 N 39.072770 28.357331 52.770697 0 CFG=2 CHG=1
M  V30 40 H 41.817080 28.348511 56.748224 0
M  V30 41 H 42.017313 27.891283 58.419362 0
M  V30 42 H 41.862504 26.045019 57.217158 0
M  V30 43 H 40.422665 26.718549 50.179418 0
M  V30 44 H 38.873950 26.257406 50.871365 0
M  V30 45 H 36.946934 33.684563 57.309100 0
M  V30 46 H 41.175448 34.813111 61.968453 0
M  V30 47 H 41.990551 33.334908 62.431328 0
M  V30 48 H 38.699606 26.402220 57.602719 0
M  V30 49 H 37.672663 34.171142 54.967240 0
M  V30 50 H 39.431542 34.061927 55.461704 0
M  V30 51 H 41.021160 27.756217 52.167732 0
M  V30 52 H 40.103083 26.452699 52.958007 0
M  V30 53 H 37.400436 28.757297 58.892777 0
M  V30 54 H 38.044953 29.097459 60.487566 0
M  V30 55 H 39.728986 29.911474 56.506024 0
M  V30 56 H 38.231847 29.112617 56.942849 0
M  V30 57 H 37.363161 33.829923 59.548707 0
M  V30 58 H 39.654611 34.703566 60.245120 0
M  V30 59 H 37.802610 29.337866 51.683442 0
M  V30 60 H 39.683840 29.805451 54.176329 0
M  V30 61 H 37.185239 29.709364 55.268327 0
M  V30 62 H 37.477564 30.519792 53.767346 0
M  V30 63 H 36.836983 28.875217 53.791316 0
M  V30 64 H 39.448233 30.910485 59.278691 0
M  V30 65 H 38.139877 30.865491 58.106484 0
M  V30 66 H 34.542863 31.671601 60.868706 0
M  V30 67 H 39.995367 25.452379 55.904037 0
M  V30 68 H 39.085616 29.546807 48.968157 0
M  V30 69 H 39.022748 31.747601 55.902078 0
M  V30 70 H 37.245165 31.939197 55.510123 0
M  V30 71 H 35.730504 32.471091 59.166794 0
M  V30 72 H 35.851485 30.732995 59.246894 0
M  V30 73 H 37.847352 31.531329 61.024258 0
M  V30 74 H 37.472676 33.899307 62.132602 0
M  V30 75 H 38.845411 34.850043 62.669054 0
M  V30 76 H 41.645094 29.567669 51.367594 0
M  V30 77 H 41.332273 30.534188 49.955909 0
M  V30 78 H 41.756419 31.337646 51.372704 0
M  V30 79 H 40.305747 27.723548 55.201101 0
M  V30 80 H 39.545112 34.137731 58.258419 0
M  V30 81 H 39.645145 32.537695 58.016766 0
M  V30 82 H 39.644175 31.187491 52.401905 0
M  V30 83 H 38.045416 28.137796 50.168041 0
M  V30 84 H 38.228663 27.803522 52.736424 0
M  V30 END ATOM
M  V30 BEGIN BOND
M  V30 1 1 2 1
M  V30 2 1 7 6
M  V30 3 2 8 6
M  V30 4 1 10 4
M  V30 5 1 11 3
M  V30 6 1 15 6
M  V30 7 1 15 14
M  V30 8 1 18 17
M  V30 9 1 19 12
M  V30 10 1 20 9
M  V30 11 1 22 1
M  V30 12 1 22 13
M  V30 13 1 23 20
M  V30 14 1 26 4
M  V30 15 1 26 10
M  V30 16 1 27 21
M  V30 17 1 28 14
M  V30 18 1 28 19
M  V30 19 1 28 27
M  V30 20 2 29 5
M  V30 21 1 29 12
M  V30 22 1 29 22
M  V30 23 1 30 15
M  V30 24 1 32 13
M  V30 25 1 32 17
M  V30 26 1 32 20
M  V30 27 1 34 4
M  V30 28 1 34 14
M  V30 29 1 35 16
M  V30 30 1 35 25
M  V30 31 1 35 31
M  V30 32 1 36 30
M  V30 33 2 36 33
M  V30 34 1 37 3
M  V30 35 1 37 16
M  V30 36 1 37 24
M  V30 37 1 38 36
M  V30 38 1 39 11
M  V30 39 1 39 16
M  V30 40 1 39 17
M  V30 41 1 40 1
M  V30 42 1 41 1
M  V30 43 1 42 2
M  V30 44 1 43 3
M  V30 45 1 44 3
M  V30 46 1 45 4
M  V30 47 1 46 7
M  V30 48 1 47 7
M  V30 49 1 48 9
M  V30 50 1 49 10
M  V30 51 1 50 10
M  V30 52 1 51 11
M  V30 53 1 52 11
M  V30 54 1 53 12
M  V30 55 1 54 12
M  V30 56 1 55 13
M  V30 57 1 56 13
M  V30 58 1 14 57 CFG=3
M  V30 59 1 15 58 CFG=3
M  V30 60 1 16 59 CFG=1
M  V30 61 1 17 60 CFG=3
M  V30 62 1 61 18
M  V30 63 1 62 18
M  V30 64 1 63 18
M  V30 65 1 64 19
M  V30 66 1 65 19
M  V30 67 1 66 21
M  V30 68 1 67 23
M  V30 69 1 68 24
M  V30 70 1 69 26
M  V30 71 1 70 26
M  V30 72 1 71 27
M  V30 73 1 72 27
M  V30 74 1 28 73 CFG=1
M  V30 75 1 74 30
M  V30 76 1 75 30
M  V30 77 1 76 31
M  V30 78 1 77 31
M  V30 79 1 78 31
M  V30 80 1 32 79 CFG=3
M  V30 81 1 80 34
M  V30 82 1 81 34
M  V30 83 1 35 82 CFG=1
M  V30 84 1 37 83 CFG=3
M  V30 85 1 39 84 CFG=1
M  V30 END BOND
M  V30 END CTAB
M  END
>  <i_epik_Tot_Q>  (1) 
1

>  <i_epik_Tot_abs_Q>  (1) 
3

>  <i_i_glide_confnum>  (1) 
6547

>  <i_i_glide_lignum>  (1) 
223

>  <i_i_glide_posenum>  (1) 
20

>  <i_i_glide_rotatable_bonds>  (1) 
24

>  <i_lp_mmshare_version>  (1) 
72125

>  <i_m_source_file_index>  (1) 
94

>  <i_f3d_flags>  (1) 
0

>  <num_sample>  (1) 
100

>  <b_lp_Chiralities_Consistent>  (1) 
1

>  <r_epik_Charging_Adjusted_Penalty>  (1) 
0.90916677635763199

>  <r_epik_Ionization_Penalty>  (1) 
0.45507897092921873

>  <r_epik_Ionization_Penalty_Charging>  (1) 
0.45507471778648678

>  <r_epik_Ionization_Penalty_Neutral>  (1) 
4.2531427319391784e-06

>  <r_epik_State_Penalty>  (1) 
0.45409205857114521

>  <r_glide_ring_energy>  (1) 
0

>  <r_i_docking_score>  (1) 
-2.2307697370323556

>  <r_i_glide_ecoul>  (1) 
-11.191911804527145

>  <r_i_glide_eff_state_penalty>  (1) 
0.45409205857114521

>  <r_i_glide_einternal>  (1) 
32.410847073953882

>  <r_i_glide_emodel>  (1) 
11.468606948683249

>  <r_i_glide_emodel_strain>  (1) 
20.544555499787592

>  <r_i_glide_energy>  (1) 
-15.230395741096064

>  <r_i_glide_erotb>  (1) 
0.82188833391367333

>  <r_i_glide_esite>  (1) 
0

>  <r_i_glide_evdw>  (1) 
-4.0384839365689205

>  <r_i_glide_gscore>  (1) 
-2.684861795603501

>  <r_i_glide_gscore_strain>  (1) 
4.1361388749468979

>  <r_i_glide_hbond>  (1) 
-0.69896659918126491

>  <r_i_glide_ligand_efficiency>  (1) 
-0.057199224026470659

>  <r_i_glide_ligand_efficiency_ln>  (1) 
-0.47834035578444684

>  <r_i_glide_ligand_efficiency_sa>  (1) 
-0.19397466305009817

>  <r_i_glide_lipo>  (1) 
-2.4944774779765808

>  <r_i_glide_metal>  (1) 
-0

>  <r_i_glide_rewards>  (1) 
-2.5687339597987084

>  <r_lp_Energy>  (1) 
33.071545

>  <s_epik_Chemistry_Notes>  (1) 
This compound contains an acetal/aminal-like group ( X-CH(R)-Y where X, Y are N, S, or O) that may be acid/base labile, releasing an aldehyde.

>  <s_epik_cmdline>  (1) 
J2VwaWtfcHl0aG9uJywgJy1waHQnLCAnMS4wJywgJy1waCcsICc3LjQnLCAnLXRuJywgJzgnLCAnLW1hJywgJzUwMCcsICctaW1hZScsICc8aW5maWxlLm1hZT4nLCAnLW9tYWUnLCAnPG91dGZpbGUubWFlPic=

>  <s_epik_input>  (1) 
W0NIMl0xW0NIMl1bQ0hdMVtDSDJdW0NAQEhdKFtDQEBIXShDKD1PKVtOSDJdKVtDSDJdQyg9TylbT0hdKVtDQEBIXShbQ0gyXVtPSF0pW0NIMl1bQ0gyXUMoPU8pTihbQ0gyXVtPSF0pW0NIMl1bQ0BASF0oW1MrXShbT0hdKVtPSF0pW0NASF0oW0NIM10pTjJbQ0gyXVtDSDJdW0NASF0oW09IXSlbQ0BASF0yW0NASF0oRilbQ0gzXQ==

>  <s_glide_docking_method>  (1) 
confgen

>  <s_i_glide_gridfile>  (1) 
gpcr_5ht2c_6bqh_protein_autoprepared_prepared

>  <s_lp_Force_Field>  (1) 
S-OPLS

>  <s_lp_Variant>  (1) 
DiffSBDD_93-11

>  <s_m_source_file>  (1) 
generated_GPCR_5HT2C_ligand_DiffSBDD_2026-06-23_prepared.sdf

>  <GenAI_Model>  (1) 
DiffSBDD

>  <Protein>  (1) 
GPCR_5HT2C

$$$$
DiffSBDD_14
     RDKit          3D

  0  0  0  0  0  0  0  0  0  0999 V3000
M  V30 BEGIN CTAB
M  V30 COUNTS 49 48 0 0 1
M  V30 BEGIN ATOM
M  V30 1 C 38.900735 33.101271 58.236213 0
M  V30 2 C 38.938927 28.011930 53.073166 0
M  V30 3 C 37.610355 32.926607 59.016759 0
M  V30 4 C 37.948416 29.554384 54.846584 0
M  V30 5 O 40.845132 30.073334 60.752052 0 CHG=-1
M  V30 6 N 39.645107 30.838988 63.176354 0 CHG=1
M  V30 7 C 39.165249 32.523031 57.045783 0
M  V30 8 C 38.871675 30.599554 61.949262 0 CFG=2
M  V30 9 C 38.982414 29.063300 51.976707 0
M  V30 10 C 39.416261 29.436610 56.946674 0
M  V30 11 C 38.914173 30.316191 55.781061 0 CFG=2
M  V30 12 C 39.724918 29.655451 61.102296 0
M  V30 13 C 40.260074 28.964252 51.123285 0
M  V30 14 O 39.245147 28.537656 60.830389 0
M  V30 15 C 38.566355 31.912518 61.186658 0
M  V30 16 O 36.323383 31.497945 60.438641 0
M  V30 17 C 40.411025 30.136259 50.143406 0
M  V30 18 C 38.491010 28.226567 54.328430 0
M  V30 19 C 38.219960 31.591521 56.304509 0
M  V30 20 C 37.637138 31.714646 59.965117 0 CFG=1
M  V30 21 H 39.645271 33.737930 58.686048 0
M  V30 22 H 39.297302 27.028835 52.804035 0
M  V30 23 H 36.783251 32.862513 58.314463 0
M  V30 24 H 37.428643 33.842399 59.579863 0
M  V30 25 H 37.028751 29.337455 55.388109 0
M  V30 26 H 37.626868 30.203443 54.035718 0
M  V30 27 H 39.746650 29.956917 63.660639 0
M  V30 28 H 40.558839 31.177733 62.910820 0
M  V30 29 H 40.110131 32.718911 56.565757 0
M  V30 30 H 37.933717 30.137779 62.241312 0
M  V30 31 H 38.103155 28.931006 51.346783 0
M  V30 32 H 38.921057 30.062425 52.402207 0
M  V30 33 H 38.584324 29.026571 57.520070 0
M  V30 34 H 40.018476 28.601565 56.589410 0
M  V30 35 H 40.043044 29.995211 57.641755 0
M  V30 36 H 39.780000 30.615945 55.188203 0
M  V30 37 H 41.136050 28.949406 51.767725 0
M  V30 38 H 40.273209 28.015579 50.582634 0
M  V30 39 H 39.504415 32.362505 60.857977 0
M  V30 40 H 38.121450 32.644178 61.862974 0
M  V30 41 H 35.760937 31.410070 59.679005 0
M  V30 42 H 41.380947 30.123860 49.645055 0
M  V30 43 H 39.645195 30.103998 49.370591 0
M  V30 44 H 40.325855 31.092766 50.660799 0
M  V30 45 H 38.506354 27.411342 55.037459 0
M  V30 46 H 37.396005 31.278339 56.939623 0
M  V30 47 H 37.786432 32.152060 55.474729 0
M  V30 48 H 37.927653 30.834201 59.390521 0
M  V30 49 H 39.171070 31.505988 63.765662 0
M  V30 END ATOM
M  V30 BEGIN BOND
M  V30 1 1 3 1
M  V30 2 2 7 1
M  V30 3 1 8 6
M  V30 4 1 9 2
M  V30 5 1 11 4
M  V30 6 1 11 10
M  V30 7 1 12 5
M  V30 8 1 12 8
M  V30 9 1 13 9
M  V30 10 2 14 12
M  V30 11 1 15 8
M  V30 12 1 17 13
M  V30 13 2 18 2
M  V30 14 1 18 4
M  V30 15 1 19 7
M  V30 16 1 19 11
M  V30 17 1 20 3
M  V30 18 1 20 15
M  V30 19 1 20 16
M  V30 20 1 21 1
M  V30 21 1 22 2
M  V30 22 1 23 3
M  V30 23 1 24 3
M  V30 24 1 25 4
M  V30 25 1 26 4
M  V30 26 1 27 6
M  V30 27 1 28 6
M  V30 28 1 29 7
M  V30 29 1 8 30 CFG=1
M  V30 30 1 31 9
M  V30 31 1 32 9
M  V30 32 1 33 10
M  V30 33 1 34 10
M  V30 34 1 35 10
M  V30 35 1 11 36 CFG=3
M  V30 36 1 37 13
M  V30 37 1 38 13
M  V30 38 1 39 15
M  V30 39 1 40 15
M  V30 40 1 41 16
M  V30 41 1 42 17
M  V30 42 1 43 17
M  V30 43 1 44 17
M  V30 44 1 45 18
M  V30 45 1 46 19
M  V30 46 1 47 19
M  V30 47 1 20 48 CFG=3
M  V30 48 1 49 6
M  V30 END BOND
M  V30 END CTAB
M  END
>  <i_epik_Tot_Q>  (1) 
0

>  <i_epik_Tot_abs_Q>  (1) 
2

>  <i_i_glide_confnum>  (1) 
105

>  <i_i_glide_lignum>  (1) 
25

>  <i_i_glide_posenum>  (1) 
311

>  <i_i_glide_rotatable_bonds>  (1) 
12

>  <i_lp_mmshare_version>  (1) 
72125

>  <i_m_source_file_index>  (1) 
15

>  <i_f3d_flags>  (1) 
0

>  <num_sample>  (1) 
100

>  <b_lp_Chiralities_Consistent>  (1) 
1

>  <r_epik_Charging_Adjusted_Penalty>  (1) 
0.00991281995240933

>  <r_epik_Ionization_Penalty>  (1) 
0.0049587358016132182

>  <r_epik_Ionization_Penalty_Charging>  (1) 
0.0049586922537287062

>  <r_epik_Ionization_Penalty_Neutral>  (1) 
4.3547884512074136e-08

>  <r_epik_State_Penalty>  (1) 
0.0049541276986806238

>  <r_glide_ring_energy>  (1) 
0

>  <r_i_docking_score>  (1) 
-2.1982437755667679

>  <r_i_glide_ecoul>  (1) 
-5.2821738496591326

>  <r_i_glide_eff_state_penalty>  (1) 
0.0049541276986806238

>  <r_i_glide_einternal>  (1) 
3.5887302155411787

>  <r_i_glide_emodel>  (1) 
-34.062641244397248

>  <r_i_glide_emodel_strain>  (1) 
0.0020645345838543605

>  <r_i_glide_energy>  (1) 
-30.33142948108862

>  <r_i_glide_erotb>  (1) 
4.0583376510001772

>  <r_i_glide_esite>  (1) 
0

>  <r_i_glide_evdw>  (1) 
-25.049255631429485

>  <r_i_glide_gscore>  (1) 
-2.2031979032654485

>  <r_i_glide_gscore_strain>  (1) 
0

>  <r_i_glide_hbond>  (1) 
-0.13186474613235177

>  <r_i_glide_ligand_efficiency>  (1) 
-0.10991218877833839

>  <r_i_glide_ligand_efficiency_ln>  (1) 
-0.55014791409223907

>  <r_i_glide_ligand_efficiency_sa>  (1) 
-0.29834758149842677

>  <r_i_glide_lipo>  (1) 
-1.9322926146588559

>  <r_i_glide_metal>  (1) 
-0

>  <r_i_glide_rewards>  (1) 
-2.1525893344540736

>  <r_lp_Energy>  (1) 
-2.0844119999999999

>  <s_epik_cmdline>  (1) 
J2VwaWtfcHl0aG9uJywgJy1waHQnLCAnMS4wJywgJy1waCcsICc3LjQnLCAnLXRuJywgJzgnLCAnLW1hJywgJzUwMCcsICctaW1hZScsICc8aW5maWxlLm1hZT4nLCAnLW9tYWUnLCAnPG91dGZpbGUubWFlPic=

>  <s_epik_input>  (1) 
W09IXUMoPU8pW0NAQEhdKFtOSDJdKVtDSDJdW0NAQEhdKFtPSF0pW0NIMl0vW0NIXT1bQ0hdXFtDSDJdW0NAQEhdKFtDSDNdKVtDSDJdL1tDSF09W0NIXVxbQ0gyXVtDSDJdW0NIM10=

>  <s_glide_docking_method>  (1) 
confgen

>  <s_i_glide_gridfile>  (1) 
gpcr_5ht2c_6bqh_protein_autoprepared_prepared

>  <s_lp_Force_Field>  (1) 
S-OPLS

>  <s_lp_Variant>  (1) 
DiffSBDD_14-3

>  <s_m_source_file>  (1) 
generated_GPCR_5HT2C_ligand_DiffSBDD_2026-06-23_prepared.sdf

>  <GenAI_Model>  (1) 
DiffSBDD

>  <Protein>  (1) 
GPCR_5HT2C

$$$$
DiffSBDD_31
     RDKit          3D

  0  0  0  0  0  0  0  0  0  0999 V3000
M  V30 BEGIN CTAB
M  V30 COUNTS 39 38 0 0 1
M  V30 BEGIN ATOM
M  V30 1 S 38.845164 27.202565 53.795471 0
M  V30 2 C 38.154817 27.919106 55.310483 0
M  V30 3 C 39.626731 27.129570 50.720156 0
M  V30 4 C 39.249990 28.552981 56.185900 0
M  V30 5 C 40.350293 30.682169 50.821697 0
M  V30 6 C 38.730815 29.090837 57.530923 0
M  V30 7 N 37.645138 33.338428 56.935352 0 CHG=1
M  V30 8 C 39.808024 28.447338 51.474572 0 CFG=1
M  V30 9 C 38.161069 31.896695 58.901808 0
M  V30 10 C 37.617651 33.249174 58.407890 0
M  V30 11 O 39.644687 29.488215 50.525346 0
M  V30 12 C 37.625477 30.137678 57.336109 0
M  V30 13 N 37.245241 30.811737 58.569091 0
M  V30 14 C 38.814281 28.616200 52.643452 0
M  V30 15 H 37.662258 27.120273 55.867390 0
M  V30 16 H 37.383180 28.639622 55.042638 0
M  V30 17 H 39.645927 26.260669 51.370277 0
M  V30 18 H 38.699185 27.090114 50.165275 0
M  V30 19 H 40.445022 26.999509 50.022826 0
M  V30 20 H 39.747689 29.351830 55.634094 0
M  V30 21 H 40.022896 27.807962 56.385447 0
M  V30 22 H 40.115202 31.427821 50.062998 0
M  V30 23 H 40.071870 31.091676 51.791470 0
M  V30 24 H 41.428841 30.517135 50.804394 0
M  V30 25 H 39.568313 29.516731 58.087686 0
M  V30 26 H 38.350382 28.270766 58.138149 0
M  V30 27 H 37.407100 34.270204 56.631122 0
M  V30 28 H 38.550911 33.086972 56.569634 0
M  V30 29 H 40.837610 28.464303 51.823081 0
M  V30 30 H 38.238247 31.929623 59.989776 0
M  V30 31 H 39.171531 31.720426 58.526797 0
M  V30 32 H 36.600576 33.422467 58.765511 0
M  V30 33 H 38.226718 34.051505 58.823941 0
M  V30 34 H 36.726071 29.633346 56.983144 0
M  V30 35 H 37.894804 30.843754 56.552042 0
M  V30 36 H 36.325437 31.209095 58.369078 0
M  V30 37 H 37.798503 28.740711 52.261494 0
M  V30 38 H 39.056863 29.521559 53.196314 0
M  V30 39 H 36.937850 32.693108 56.576367 0
M  V30 END ATOM
M  V30 BEGIN BOND
M  V30 1 1 2 1
M  V30 2 1 4 2
M  V30 3 1 6 4
M  V30 4 1 8 3
M  V30 5 1 10 7
M  V30 6 1 10 9
M  V30 7 1 11 5
M  V30 8 1 11 8
M  V30 9 1 12 6
M  V30 10 1 13 9
M  V30 11 1 13 12
M  V30 12 1 14 1
M  V30 13 1 14 8
M  V30 14 1 15 2
M  V30 15 1 16 2
M  V30 16 1 17 3
M  V30 17 1 18 3
M  V30 18 1 19 3
M  V30 19 1 20 4
M  V30 20 1 21 4
M  V30 21 1 22 5
M  V30 22 1 23 5
M  V30 23 1 24 5
M  V30 24 1 25 6
M  V30 25 1 26 6
M  V30 26 1 27 7
M  V30 27 1 28 7
M  V30 28 1 8 29 CFG=1
M  V30 29 1 30 9
M  V30 30 1 31 9
M  V30 31 1 32 10
M  V30 32 1 33 10
M  V30 33 1 34 12
M  V30 34 1 35 12
M  V30 35 1 36 13
M  V30 36 1 37 14
M  V30 37 1 38 14
M  V30 38 1 39 7
M  V30 END BOND
M  V30 END CTAB
M  END
>  <i_epik_Tot_Q>  (1) 
1

>  <i_epik_Tot_abs_Q>  (1) 
1

>  <i_i_glide_confnum>  (1) 
356

>  <i_i_glide_lignum>  (1) 
74

>  <i_i_glide_posenum>  (1) 
333

>  <i_i_glide_rotatable_bonds>  (1) 
10

>  <i_lp_mmshare_version>  (1) 
72125

>  <i_m_source_file_index>  (1) 
32

>  <i_f3d_flags>  (1) 
0

>  <num_sample>  (1) 
100

>  <b_lp_Chiralities_Consistent>  (1) 
1

>  <r_epik_Charging_Adjusted_Penalty>  (1) 
0.89892965440130657

>  <r_epik_Ionization_Penalty>  (1) 
0.40851524068968265

>  <r_epik_Ionization_Penalty_Charging>  (1) 
0.0057066627245521461

>  <r_epik_Ionization_Penalty_Neutral>  (1) 
0.40280857796513048

>  <r_epik_State_Penalty>  (1) 
0.89322299167675445

>  <r_glide_ring_energy>  (1) 
0

>  <r_i_docking_score>  (1) 
-2.1484375265329447

>  <r_i_glide_ecoul>  (1) 
-6.0167944747551712

>  <r_i_glide_eff_state_penalty>  (1) 
0.89322299167675445

>  <r_i_glide_einternal>  (1) 
6.3725925946636748

>  <r_i_glide_emodel>  (1) 
-31.563806919986167

>  <r_i_glide_emodel_strain>  (1) 
0.086681380737355873

>  <r_i_glide_energy>  (1) 
-26.407072905378307

>  <r_i_glide_erotb>  (1) 
3.8565757309665742

>  <r_i_glide_esite>  (1) 
-0.10000000000000001

>  <r_i_glide_evdw>  (1) 
-20.390278430623134

>  <r_i_glide_gscore>  (1) 
-3.0416605182096994

>  <r_i_glide_gscore_strain>  (1) 
0

>  <r_i_glide_hbond>  (1) 
-0.36955296914246327

>  <r_i_glide_ligand_efficiency>  (1) 
-0.15345982332378177

>  <r_i_glide_ligand_efficiency_ln>  (1) 
-0.59038298436482439

>  <r_i_glide_ligand_efficiency_sa>  (1) 
-0.36986000604551017

>  <r_i_glide_lipo>  (1) 
-1.9664739261153437

>  <r_i_glide_metal>  (1) 
-0

>  <r_i_glide_rewards>  (1) 
-2.5401762611740337

>  <r_lp_Energy>  (1) 
8.7800750000000001

>  <s_epik_cmdline>  (1) 
J2VwaWtfcHl0aG9uJywgJy1waHQnLCAnMS4wJywgJy1waCcsICc3LjQnLCAnLXRuJywgJzgnLCAnLW1hJywgJzUwMCcsICctaW1hZScsICc8aW5maWxlLm1hZT4nLCAnLW9tYWUnLCAnPG91dGZpbGUubWFlPic=

>  <s_epik_input>  (1) 
W0NIM11PW0NASF0oW0NIM10pW0NIMl1TW0NIMl1bQ0gyXVtDSDJdW0NIMl1bTkhdW0NIMl1bQ0gyXVtOSDJd

>  <s_glide_docking_method>  (1) 
confgen

>  <s_i_glide_gridfile>  (1) 
gpcr_5ht2c_6bqh_protein_autoprepared_prepared

>  <s_lp_Force_Field>  (1) 
S-OPLS

>  <s_lp_Variant>  (1) 
DiffSBDD_31-2

>  <s_m_source_file>  (1) 
generated_GPCR_5HT2C_ligand_DiffSBDD_2026-06-23_prepared.sdf

>  <GenAI_Model>  (1) 
DiffSBDD

>  <Protein>  (1) 
GPCR_5HT2C

$$$$
DiffSBDD_93
     RDKit          3D

  0  0  0  0  0  0  0  0  0  0999 V3000
M  V30 BEGIN CTAB
M  V30 COUNTS 84 85 0 0 1
M  V30 BEGIN ATOM
M  V30 1 C 39.944704 30.972425 60.889688 0
M  V30 2 O 38.969458 30.137507 61.490086 0
M  V30 3 C 37.716061 28.753474 56.648858 0
M  V30 4 C 40.333915 36.032763 67.190610 0
M  V30 5 O 39.249225 34.179491 62.391166 0
M  V30 6 C 43.110192 31.671281 66.396853 0
M  V30 7 N 42.806462 30.402574 66.119963 0
M  V30 8 O 44.248529 32.119229 66.278031 0
M  V30 9 O 36.573513 34.839560 59.480279 0
M  V30 10 C 39.178317 36.282497 66.264508 0
M  V30 11 C 38.373801 29.822922 57.491390 0
M  V30 12 C 40.293295 32.280575 63.429265 0
M  V30 13 C 39.139055 33.113437 59.843128 0
M  V30 14 C 42.009070 34.025308 66.173474 0 CFG=1
M  V30 15 C 41.943578 32.586556 66.872128 0 CFG=2
M  V30 16 C 37.917538 30.871131 55.438392 0 CFG=1
M  V30 17 C 38.337534 32.360691 57.532982 0 CFG=1
M  V30 18 C 37.908952 33.620688 56.755154 0
M  V30 19 C 41.639738 32.954008 63.758684 0
M  V30 20 S 36.332535 33.157912 59.435998 0 CHG=1
M  V30 21 O 41.074043 36.141593 63.327262 0
M  V30 22 N 39.571658 32.388794 61.051202 0
M  V30 23 O 36.111966 32.765537 61.077467 0
M  V30 24 O 37.454499 28.739133 54.188935 0
M  V30 25 F 40.056092 31.805648 55.368702 0
M  V30 26 C 39.141708 35.172720 67.321015 0
M  V30 27 C 42.053392 35.445932 64.049218 0
M  V30 28 C 41.497613 34.171454 64.716361 0 CFG=2
M  V30 29 C 39.646083 33.027809 62.242879 0
M  V30 30 C 41.910747 32.597694 68.442191 0
M  V30 31 C 39.412664 31.030641 53.335208 0
M  V30 32 C 37.984952 32.447675 59.054938 0 CFG=2
M  V30 33 O 41.264888 30.310737 68.599320 0
M  V30 34 C 41.643938 35.276745 67.046702 0
M  V30 35 C 39.349803 30.820774 54.849090 0 CFG=2
M  V30 36 C 41.931952 31.225165 69.130760 0
M  V30 37 C 37.236952 29.498672 55.369185 0 CFG=1
M  V30 38 O 42.609457 31.125222 70.176287 0 CHG=-1
M  V30 39 N 37.865176 31.083947 56.909438 0 CFG=2 CHG=1
M  V30 40 H 39.979594 30.679828 59.842104 0
M  V30 41 H 40.945478 30.763885 61.271688 0
M  V30 42 H 39.372768 29.577325 62.143044 0
M  V30 43 H 38.391855 27.925506 56.437494 0
M  V30 44 H 36.914367 28.371767 57.281997 0
M  V30 45 H 40.431374 36.824511 67.927964 0
M  V30 46 H 41.864365 30.068388 66.274783 0
M  V30 47 H 43.524861 29.772013 65.797261 0
M  V30 48 H 37.133412 35.020593 60.220400 0
M  V30 49 H 38.549312 37.148609 66.472580 0
M  V30 50 H 39.346868 36.124162 65.206461 0
M  V30 51 H 39.459247 29.785136 57.416631 0
M  V30 52 H 38.124426 29.632090 58.527500 0
M  V30 53 H 39.645129 32.338875 64.300627 0
M  V30 54 H 40.453183 31.215313 63.302306 0
M  V30 55 H 40.033573 33.235639 59.242751 0
M  V30 56 H 38.902817 34.155848 60.038194 0
M  V30 57 H 43.078948 34.183652 66.052465 0
M  V30 58 H 41.007908 32.128270 66.551158 0
M  V30 59 H 37.321481 31.631101 54.927336 0
M  V30 60 H 39.419069 32.320736 57.477497 0
M  V30 61 H 38.087282 34.532817 57.318608 0
M  V30 62 H 38.386023 33.728345 55.782920 0
M  V30 63 H 36.846195 33.628840 56.586916 0
M  V30 64 H 42.354187 32.219092 64.098031 0
M  V30 65 H 42.104818 33.258287 62.821168 0
M  V30 66 H 40.847143 36.901314 63.840159 0
M  V30 67 H 36.842802 33.130801 61.551662 0
M  V30 68 H 36.967882 27.932594 54.256265 0
M  V30 69 H 39.448770 34.148603 67.108114 0
M  V30 70 H 38.536289 35.309376 68.214598 0
M  V30 71 H 42.506993 36.137378 64.749968 0
M  V30 72 H 42.845139 35.207195 63.366933 0
M  V30 73 H 40.445150 34.320992 64.859924 0
M  V30 74 H 42.744112 33.183195 68.835138 0
M  V30 75 H 40.987767 33.063927 68.788798 0
M  V30 76 H 38.987123 30.191755 52.791636 0
M  V30 77 H 38.864865 31.927384 53.047727 0
M  V30 78 H 40.446720 31.141853 53.000379 0
M  V30 79 H 37.866467 31.444596 59.438184 0
M  V30 80 H 41.645211 34.937841 68.073489 0
M  V30 81 H 42.395077 36.039790 66.877398 0
M  V30 82 H 39.868915 29.894897 55.111366 0
M  V30 83 H 36.171207 29.738717 55.429000 0
M  V30 84 H 36.846415 31.110699 57.029897 0
M  V30 END ATOM
M  V30 BEGIN BOND
M  V30 1 1 2 1
M  V30 2 1 7 6
M  V30 3 2 8 6
M  V30 4 1 10 4
M  V30 5 1 11 3
M  V30 6 1 15 6
M  V30 7 1 15 14
M  V30 8 1 18 17
M  V30 9 1 19 12
M  V30 10 1 20 9
M  V30 11 1 22 1
M  V30 12 1 22 13
M  V30 13 1 23 20
M  V30 14 1 26 4
M  V30 15 1 26 10
M  V30 16 1 27 21
M  V30 17 1 28 14
M  V30 18 1 28 19
M  V30 19 1 28 27
M  V30 20 2 29 5
M  V30 21 1 29 12
M  V30 22 1 29 22
M  V30 23 1 30 15
M  V30 24 1 32 13
M  V30 25 1 32 17
M  V30 26 1 32 20
M  V30 27 1 34 4
M  V30 28 1 34 14
M  V30 29 1 35 16
M  V30 30 1 35 25
M  V30 31 1 35 31
M  V30 32 1 36 30
M  V30 33 2 36 33
M  V30 34 1 37 3
M  V30 35 1 37 16
M  V30 36 1 37 24
M  V30 37 1 38 36
M  V30 38 1 39 11
M  V30 39 1 39 16
M  V30 40 1 39 17
M  V30 41 1 40 1
M  V30 42 1 41 1
M  V30 43 1 42 2
M  V30 44 1 43 3
M  V30 45 1 44 3
M  V30 46 1 45 4
M  V30 47 1 46 7
M  V30 48 1 47 7
M  V30 49 1 48 9
M  V30 50 1 49 10
M  V30 51 1 50 10
M  V30 52 1 51 11
M  V30 53 1 52 11
M  V30 54 1 53 12
M  V30 55 1 54 12
M  V30 56 1 55 13
M  V30 57 1 56 13
M  V30 58 1 14 57 CFG=3
M  V30 59 1 15 58 CFG=3
M  V30 60 1 16 59 CFG=3
M  V30 61 1 17 60 CFG=1
M  V30 62 1 61 18
M  V30 63 1 62 18
M  V30 64 1 63 18
M  V30 65 1 64 19
M  V30 66 1 65 19
M  V30 67 1 66 21
M  V30 68 1 67 23
M  V30 69 1 68 24
M  V30 70 1 69 26
M  V30 71 1 70 26
M  V30 72 1 71 27
M  V30 73 1 72 27
M  V30 74 1 28 73 CFG=1
M  V30 75 1 74 30
M  V30 76 1 75 30
M  V30 77 1 76 31
M  V30 78 1 77 31
M  V30 79 1 78 31
M  V30 80 1 32 79 CFG=1
M  V30 81 1 80 34
M  V30 82 1 81 34
M  V30 83 1 35 82 CFG=3
M  V30 84 1 37 83 CFG=1
M  V30 85 1 39 84 CFG=1
M  V30 END BOND
M  V30 END CTAB
M  END
>  <i_epik_Tot_Q>  (1) 
1

>  <i_epik_Tot_abs_Q>  (1) 
3

>  <i_i_glide_confnum>  (1) 
756

>  <i_i_glide_lignum>  (1) 
217

>  <i_i_glide_posenum>  (1) 
250

>  <i_i_glide_rotatable_bonds>  (1) 
24

>  <i_lp_mmshare_version>  (1) 
72125

>  <i_m_source_file_index>  (1) 
94

>  <i_f3d_flags>  (1) 
0

>  <num_sample>  (1) 
100

>  <b_lp_Chiralities_Consistent>  (1) 
1

>  <r_epik_Charging_Adjusted_Penalty>  (1) 
0.90916677635763199

>  <r_epik_Ionization_Penalty>  (1) 
0.45507897092921873

>  <r_epik_Ionization_Penalty_Charging>  (1) 
0.45507471778648678

>  <r_epik_Ionization_Penalty_Neutral>  (1) 
4.2531427319391784e-06

>  <r_epik_State_Penalty>  (1) 
0.45409205857114521

>  <r_glide_ring_energy>  (1) 
0

>  <r_i_docking_score>  (1) 
-2.1181913739142626

>  <r_i_glide_ecoul>  (1) 
-6.864089665648395

>  <r_i_glide_eff_state_penalty>  (1) 
0.45409205857114521

>  <r_i_glide_einternal>  (1) 
26.557598601822434

>  <r_i_glide_emodel>  (1) 
-13.583225449830579

>  <r_i_glide_emodel_strain>  (1) 
15.312216983761942

>  <r_i_glide_energy>  (1) 
-32.6978868377903

>  <r_i_glide_erotb>  (1) 
0.82188833391367333

>  <r_i_glide_esite>  (1) 
-0.17646215909601559

>  <r_i_glide_evdw>  (1) 
-25.833797172141907

>  <r_i_glide_gscore>  (1) 
-2.572283432485408

>  <r_i_glide_gscore_strain>  (1) 
2.8280542459404856

>  <r_i_glide_hbond>  (1) 
-0.3844154548247487

>  <r_i_glide_ligand_efficiency>  (1) 
-0.054312599331134935

>  <r_i_glide_ligand_efficiency_ln>  (1) 
-0.45420035900504901

>  <r_i_glide_ligand_efficiency_sa>  (1) 
-0.1841855083515884

>  <r_i_glide_lipo>  (1) 
-2.1330518073146361

>  <r_i_glide_metal>  (1) 
-0

>  <r_i_glide_rewards>  (1) 
-1.2069932826498104

>  <r_lp_Energy>  (1) 
20.226026999999998

>  <s_epik_Chemistry_Notes>  (1) 
This compound contains an acetal/aminal-like group ( X-CH(R)-Y where X, Y are N, S, or O) that may be acid/base labile, releasing an aldehyde.

>  <s_epik_cmdline>  (1) 
J2VwaWtfcHl0aG9uJywgJy1waHQnLCAnMS4wJywgJy1waCcsICc3LjQnLCAnLXRuJywgJzgnLCAnLW1hJywgJzUwMCcsICctaW1hZScsICc8aW5maWxlLm1hZT4nLCAnLW9tYWUnLCAnPG91dGZpbGUubWFlPic=

>  <s_epik_input>  (1) 
W0NIMl0xW0NIMl1bQ0hdMVtDSDJdW0NAQEhdKFtDQEBIXShDKD1PKVtOSDJdKVtDSDJdQyg9TylbT0hdKVtDQEBIXShbQ0gyXVtPSF0pW0NIMl1bQ0gyXUMoPU8pTihbQ0gyXVtPSF0pW0NIMl1bQ0BASF0oW1MrXShbT0hdKVtPSF0pW0NASF0oW0NIM10pTjJbQ0gyXVtDSDJdW0NASF0oW09IXSlbQ0BASF0yW0NASF0oRilbQ0gzXQ==

>  <s_glide_docking_method>  (1) 
confgen

>  <s_i_glide_gridfile>  (1) 
gpcr_5ht2c_6bqh_protein_autoprepared_prepared

>  <s_lp_Force_Field>  (1) 
S-OPLS

>  <s_lp_Variant>  (1) 
DiffSBDD_93-5

>  <s_m_source_file>  (1) 
generated_GPCR_5HT2C_ligand_DiffSBDD_2026-06-23_prepared.sdf

>  <GenAI_Model>  (1) 
DiffSBDD

>  <Protein>  (1) 
GPCR_5HT2C

$$$$
DiffSBDD_9
     RDKit          3D

  0  0  0  0  0  0  0  0  0  0999 V3000
M  V30 BEGIN CTAB
M  V30 COUNTS 66 67 0 0 1
M  V30 BEGIN ATOM
M  V30 1 C 38.313062 31.924303 57.159300 0 CFG=1
M  V30 2 C 36.045168 36.350299 63.043232 0
M  V30 3 C 37.694823 27.792067 54.269983 0
M  V30 4 C 41.054157 33.761163 64.930126 0
M  V30 5 O 37.245120 28.939593 53.747611 0
M  V30 6 O 42.445128 35.673981 64.798380 0
M  V30 7 C 38.411564 31.987000 55.640485 0 CFG=1
M  V30 8 C 39.633665 32.200632 56.480127 0
M  V30 9 N 37.649357 33.041416 57.851879 0
M  V30 10 C 38.506455 35.390315 60.713504 0
M  V30 11 C 39.092531 37.167329 62.423971 0 CFG=2
M  V30 12 C 39.838235 36.223944 63.391911 0
M  V30 13 C 41.017348 35.381290 62.858867 0 CFG=1
M  V30 14 C 37.517472 34.531164 59.900233 0
M  V30 15 C 41.826349 34.698662 63.992162 0 CFG=2
M  V30 16 C 36.631175 36.869992 61.713812 0
M  V30 17 C 39.978189 35.023738 60.573431 0
M  V30 18 C 39.492101 39.207854 61.130057 0
M  V30 19 C 38.410365 30.827683 54.660331 0
M  V30 20 C 38.072118 30.594762 57.861473 0
M  V30 21 O 36.333074 34.807885 59.756146 0
M  V30 22 C 38.035870 33.222737 59.255860 0
M  V30 23 O 37.873965 26.760960 53.630337 0
M  V30 24 C 37.077214 30.080304 54.582286 0
M  V30 25 C 38.092666 36.418726 61.536681 0
M  V30 26 C 40.571919 34.343848 61.805050 0
M  V30 27 O 38.045086 33.217765 55.073623 0
M  V30 28 O 39.998386 38.036071 61.767812 0
M  V30 29 C 36.396638 38.381074 61.595263 0
M  V30 30 H 35.780289 35.297690 62.967589 0
M  V30 31 H 36.742650 36.473925 63.870149 0
M  V30 32 H 35.142039 36.876985 63.357676 0
M  V30 33 H 37.875199 27.914667 55.339538 0
M  V30 34 H 40.417368 33.061682 64.389675 0
M  V30 35 H 41.748420 33.171132 65.528488 0
M  V30 36 H 40.445169 34.325637 65.634018 0
M  V30 37 H 42.101775 36.533991 64.586049 0
M  V30 38 H 40.352859 31.398423 56.387612 0
M  V30 39 H 40.049286 33.201085 56.535016 0
M  V30 40 H 36.640070 32.879886 57.782476 0
M  V30 41 H 38.504695 37.737742 63.125326 0
M  V30 42 H 40.168674 36.819720 64.242732 0
M  V30 43 H 39.094940 35.536223 63.767770 0
M  V30 44 H 41.708459 36.068992 62.368231 0
M  V30 45 H 42.622797 34.111643 63.537613 0
M  V30 46 H 36.045165 36.622367 60.862342 0
M  V30 47 H 40.213917 34.537463 59.639021 0
M  V30 48 H 40.513384 35.960470 60.436223 0
M  V30 49 H 40.333502 39.737829 60.698220 0
M  V30 50 H 38.840258 38.961558 60.300174 0
M  V30 51 H 38.974084 39.908907 61.767281 0
M  V30 52 H 38.696964 31.195647 53.674403 0
M  V30 53 H 39.188046 30.121372 54.952096 0
M  V30 54 H 38.474051 29.767477 57.277838 0
M  V30 55 H 38.560626 30.574395 58.834906 0
M  V30 56 H 37.002930 30.425527 57.999855 0
M  V30 57 H 37.570097 32.428771 59.839675 0
M  V30 58 H 39.093290 33.025688 59.374814 0
M  V30 59 H 36.729890 29.787989 55.573708 0
M  V30 60 H 36.307107 30.731212 54.169386 0
M  V30 61 H 41.442590 33.767729 61.492957 0
M  V30 62 H 39.863166 33.625378 62.218033 0
M  V30 63 H 37.111947 33.337697 55.249353 0
M  V30 64 H 36.778133 38.760116 60.652195 0
M  V30 65 H 35.330021 38.609633 61.609385 0
M  V30 66 H 36.840764 38.940830 62.404538 0
M  V30 END ATOM
M  V30 BEGIN BOND
M  V30 1 1 5 3
M  V30 2 1 7 1
M  V30 3 1 8 1
M  V30 4 1 8 7
M  V30 5 1 1 9 CFG=1
M  V30 6 1 12 11
M  V30 7 1 13 12
M  V30 8 1 14 10
M  V30 9 1 15 4
M  V30 10 1 15 6
M  V30 11 1 15 13
M  V30 12 1 16 2
M  V30 13 1 17 10
M  V30 14 1 19 7
M  V30 15 1 20 1
M  V30 16 2 21 14
M  V30 17 1 22 9
M  V30 18 1 22 14
M  V30 19 2 23 3
M  V30 20 1 24 5
M  V30 21 1 24 19
M  V30 22 2 25 10
M  V30 23 1 25 11
M  V30 24 1 25 16
M  V30 25 1 26 13
M  V30 26 1 26 17
M  V30 27 1 7 27 CFG=3
M  V30 28 1 28 11
M  V30 29 1 28 18
M  V30 30 1 29 16
M  V30 31 1 30 2
M  V30 32 1 31 2
M  V30 33 1 32 2
M  V30 34 1 33 3
M  V30 35 1 34 4
M  V30 36 1 35 4
M  V30 37 1 36 4
M  V30 38 1 37 6
M  V30 39 1 38 8
M  V30 40 1 39 8
M  V30 41 1 40 9
M  V30 42 1 11 41 CFG=1
M  V30 43 1 42 12
M  V30 44 1 43 12
M  V30 45 1 13 44 CFG=3
M  V30 46 1 15 45 CFG=3
M  V30 47 1 46 16
M  V30 48 1 47 17
M  V30 49 1 48 17
M  V30 50 1 49 18
M  V30 51 1 50 18
M  V30 52 1 51 18
M  V30 53 1 52 19
M  V30 54 1 53 19
M  V30 55 1 54 20
M  V30 56 1 55 20
M  V30 57 1 56 20
M  V30 58 1 57 22
M  V30 59 1 58 22
M  V30 60 1 59 24
M  V30 61 1 60 24
M  V30 62 1 61 26
M  V30 63 1 62 26
M  V30 64 1 63 27
M  V30 65 1 64 29
M  V30 66 1 65 29
M  V30 67 1 66 29
M  V30 END BOND
M  V30 END CTAB
M  END
>  <i_epik_Tot_Q>  (1) 
0

>  <i_epik_Tot_abs_Q>  (1) 
0

>  <i_i_glide_confnum>  (1) 
2327

>  <i_i_glide_lignum>  (1) 
16

>  <i_i_glide_posenum>  (1) 
133

>  <i_i_glide_rotatable_bonds>  (1) 
13

>  <i_lp_mmshare_version>  (1) 
72125

>  <i_m_source_file_index>  (1) 
10

>  <i_f3d_flags>  (1) 
0

>  <num_sample>  (1) 
100

>  <b_lp_Chiralities_Consistent>  (1) 
1

>  <r_epik_Charging_Adjusted_Penalty>  (1) 
0.70191645640278022

>  <r_epik_Ionization_Penalty>  (1) 
0.70191663338499877

>  <r_epik_Ionization_Penalty_Charging>  (1) 
0

>  <r_epik_Ionization_Penalty_Neutral>  (1) 
0.70191663338499877

>  <r_epik_State_Penalty>  (1) 
0.70191645640278022

>  <r_glide_ring_energy>  (1) 
0

>  <r_i_docking_score>  (1) 
-2.1003393384351261

>  <r_i_glide_ecoul>  (1) 
-5.9650675205063282

>  <r_i_glide_eff_state_penalty>  (1) 
0.70191645640278022

>  <r_i_glide_einternal>  (1) 
29.084950492539932

>  <r_i_glide_emodel>  (1) 
-15.053690626147691

>  <r_i_glide_emodel_strain>  (1) 
3.1548945449985695

>  <r_i_glide_energy>  (1) 
-28.775987620210664

>  <r_i_glide_erotb>  (1) 
0.93101816362055201

>  <r_i_glide_esite>  (1) 
0

>  <r_i_glide_evdw>  (1) 
-22.810920099704337

>  <r_i_glide_gscore>  (1) 
-2.8022557948379063

>  <r_i_glide_gscore_strain>  (1) 
0

>  <r_i_glide_hbond>  (1) 
-0.56285203595929179

>  <r_i_glide_ligand_efficiency>  (1) 
-0.072425494428797449

>  <r_i_glide_ligand_efficiency_ln>  (1) 
-0.48092444849142058

>  <r_i_glide_ligand_efficiency_sa>  (1) 
-0.22251406514221103

>  <r_i_glide_lipo>  (1) 
-2.4003154297418812

>  <r_i_glide_metal>  (1) 
-0

>  <r_i_glide_rewards>  (1) 
1.265199640303881

>  <r_lp_Energy>  (1) 
41.088991

>  <s_epik_Chemistry_Notes>  (1) 
This compound has an ester and may undergo hydrolysis at high or low pH.

>  <s_epik_cmdline>  (1) 
J2VwaWtfcHl0aG9uJywgJy1waHQnLCAnMS4wJywgJy1waCcsICc3LjQnLCAnLXRuJywgJzgnLCAnLW1hJywgJzUwMCcsICctaW1hZScsICc8aW5maWxlLm1hZT4nLCAnLW9tYWUnLCAnPG91dGZpbGUubWFlPic=

>  <s_epik_input>  (1) 
Tz1bQ0hdT1tDSDJdW0NIMl1bQ0BAXShbQ0gyXTEpKFtPSF0pW0NAXTEoW0NIM10pW05IXVtDSDJdQyg9TylDMj1DKFtDSF0oW0NIM10pW0NIM10pW0NASF0oT1tDSDNdKVtDSDJdW0NAQEhdKFtDQEBIXShbQ0gzXSlbT0hdKVtDSDJdW0NIMl0y

>  <s_glide_docking_method>  (1) 
confgen

>  <s_i_glide_gridfile>  (1) 
gpcr_5ht2c_6bqh_protein_autoprepared_prepared

>  <s_lp_Force_Field>  (1) 
S-OPLS

>  <s_lp_Variant>  (1) 
DiffSBDD_9-4

>  <s_m_source_file>  (1) 
generated_GPCR_5HT2C_ligand_DiffSBDD_2026-06-23_prepared.sdf

>  <GenAI_Model>  (1) 
DiffSBDD

>  <Protein>  (1) 
GPCR_5HT2C

$$$$
DiffSBDD_57
     RDKit          3D

  0  0  0  0  0  0  0  0  0  0999 V3000
M  V30 BEGIN CTAB
M  V30 COUNTS 64 66 0 0 1
M  V30 BEGIN ATOM
M  V30 1 O 37.145535 28.043245 58.094596 0
M  V30 2 C 39.072529 31.330641 54.772641 0
M  V30 3 C 38.659947 25.648813 57.377658 0
M  V30 4 C 38.585280 30.827066 57.184335 0 CFG=2
M  V30 5 C 38.206083 33.401711 61.185980 0
M  V30 6 S 38.051602 32.715244 55.310720 0
M  V30 7 O 37.303699 33.010941 61.918807 0
M  V30 8 C 39.651289 30.745332 56.056887 0
M  V30 9 N 38.909024 36.537844 64.117871 0
M  V30 10 C 39.799934 26.096475 55.202255 0 CFG=2
M  V30 11 N 38.204535 33.124501 59.867782 0
M  V30 12 C 37.645134 28.552037 57.131098 0
M  V30 13 O 39.336355 24.937807 54.567874 0
M  V30 14 C 37.347786 29.989863 56.859942 0
M  V30 15 C 39.245237 33.083528 57.720908 0
M  V30 16 C 39.134021 36.937267 61.752323 0 CFG=2
M  V30 17 O 40.044632 26.537756 52.967756 0
M  V30 18 C 39.245178 33.450980 59.000349 0
M  V30 19 C 38.225514 37.046590 62.936974 0 CFG=1
M  V30 20 C 38.164721 32.295133 57.078372 0 CFG=2
M  V30 21 C 39.093137 30.346145 58.610337 0
M  V30 22 C 39.611039 35.631382 61.189183 0 CFG=2
M  V30 23 C 38.971193 26.575770 56.277731 0
M  V30 24 C 39.387925 34.224268 61.779479 0 CFG=2
M  V30 25 C 40.607794 36.590045 61.797549 0
M  V30 26 N 39.078078 26.279919 53.971124 0
M  V30 27 N 38.329562 24.342864 57.088853 0
M  V30 28 C 36.801359 36.559461 62.599576 0
M  V30 29 O 35.855037 37.205805 63.422668 0
M  V30 30 O 38.160929 36.937755 65.278399 0
M  V30 31 C 38.701594 26.032411 58.646922 0
M  V30 32 C 38.530218 27.866823 56.182600 0
M  V30 33 Cl 40.894957 33.260184 61.775420 0
M  V30 34 H 39.851917 31.671597 54.091589 0
M  V30 35 H 38.456038 30.605370 54.242326 0
M  V30 36 H 40.445032 31.430974 56.272615 0
M  V30 37 H 40.173903 29.801609 55.938893 0
M  V30 38 H 39.804176 36.988854 64.273748 0
M  V30 39 H 40.873782 26.222166 55.283293 0
M  V30 40 H 37.433260 32.601035 59.479429 0
M  V30 41 H 36.966872 30.133907 55.851869 0
M  V30 42 H 36.538644 30.241220 57.544478 0
M  V30 43 H 40.072371 33.337735 57.092884 0
M  V30 44 H 38.845110 37.659691 60.992517 0
M  V30 45 H 40.162463 27.470976 53.051955 0
M  V30 46 H 40.045139 33.997235 59.434762 0
M  V30 47 H 38.130594 38.096455 63.058299 0
M  V30 48 H 37.245154 32.513712 57.595471 0
M  V30 49 H 39.645096 31.004194 59.256070 0
M  V30 50 H 38.246148 30.099293 59.253483 0
M  V30 51 H 39.716528 29.453948 58.533496 0
M  V30 52 H 39.489306 35.714781 60.129568 0
M  V30 53 H 39.171916 34.342184 62.836806 0
M  V30 54 H 41.073391 36.303126 62.736858 0
M  V30 55 H 41.255519 37.111514 61.102192 0
M  V30 56 H 38.235124 24.021170 56.133470 0
M  V30 57 H 36.562904 36.887230 61.587641 0
M  V30 58 H 36.672699 35.483225 62.567744 0
M  V30 59 H 35.997096 36.913407 64.312568 0
M  V30 60 H 38.046338 36.116225 65.733752 0
M  V30 61 H 38.450566 25.337926 59.405092 0
M  V30 62 H 38.987274 27.029283 58.940445 0
M  V30 63 H 38.836312 28.440364 55.326130 0
M  V30 64 H 38.060696 23.687651 57.810272 0
M  V30 END ATOM
M  V30 BEGIN BOND
M  V30 1 1 6 2
M  V30 2 2 7 5
M  V30 3 1 8 2
M  V30 4 1 8 4
M  V30 5 1 11 5
M  V30 6 2 12 1
M  V30 7 1 13 10
M  V30 8 1 4 14 CFG=3
M  V30 9 1 14 12
M  V30 10 1 18 11
M  V30 11 2 18 15
M  V30 12 1 19 9
M  V30 13 1 19 16
M  V30 14 1 20 4
M  V30 15 1 20 6
M  V30 16 1 20 15
M  V30 17 1 21 4
M  V30 18 1 22 16
M  V30 19 1 23 3
M  V30 20 1 23 10
M  V30 21 1 24 5
M  V30 22 1 24 22
M  V30 23 1 25 16
M  V30 24 1 25 22
M  V30 25 1 26 10
M  V30 26 1 26 13
M  V30 27 1 26 17
M  V30 28 1 27 3
M  V30 29 1 28 19
M  V30 30 1 29 28
M  V30 31 1 30 9
M  V30 32 2 31 3
M  V30 33 1 32 12
M  V30 34 2 32 23
M  V30 35 1 33 24
M  V30 36 1 34 2
M  V30 37 1 35 2
M  V30 38 1 36 8
M  V30 39 1 37 8
M  V30 40 1 38 9
M  V30 41 1 10 39 CFG=3
M  V30 42 1 40 11
M  V30 43 1 41 14
M  V30 44 1 42 14
M  V30 45 1 43 15
M  V30 46 1 16 44 CFG=3
M  V30 47 1 45 17
M  V30 48 1 46 18
M  V30 49 1 19 47 CFG=1
M  V30 50 1 20 48 CFG=1
M  V30 51 1 49 21
M  V30 52 1 50 21
M  V30 53 1 51 21
M  V30 54 1 22 52 CFG=3
M  V30 55 1 24 53 CFG=1
M  V30 56 1 54 25
M  V30 57 1 55 25
M  V30 58 1 56 27
M  V30 59 1 57 28
M  V30 60 1 58 28
M  V30 61 1 59 29
M  V30 62 1 60 30
M  V30 63 1 61 31
M  V30 64 1 62 31
M  V30 65 1 63 32
M  V30 66 1 64 27
M  V30 END BOND
M  V30 END CTAB
M  END
>  <i_epik_Tot_Q>  (1) 
0

>  <i_epik_Tot_abs_Q>  (1) 
0

>  <i_i_glide_confnum>  (1) 
5797

>  <i_i_glide_lignum>  (1) 
127

>  <i_i_glide_posenum>  (1) 
17

>  <i_i_glide_rotatable_bonds>  (1) 
16

>  <i_lp_mmshare_version>  (1) 
72125

>  <i_m_source_file_index>  (1) 
58

>  <i_f3d_flags>  (1) 
0

>  <num_sample>  (1) 
100

>  <b_lp_Chiralities_Consistent>  (1) 
1

>  <r_epik_Charging_Adjusted_Penalty>  (1) 
0.024416195549470061

>  <r_epik_Ionization_Penalty>  (1) 
0.014246986074461085

>  <r_epik_Ionization_Penalty_Charging>  (1) 
6.6592516266621022e-05

>  <r_epik_Ionization_Penalty_Neutral>  (1) 
0.014180393558194464

>  <r_epik_State_Penalty>  (1) 
0.024349603033203441

>  <r_glide_ring_energy>  (1) 
0.20502008593201695

>  <r_i_docking_score>  (1) 
-2.0577342005906156

>  <r_i_glide_ecoul>  (1) 
-2.5016006671480717

>  <r_i_glide_eff_state_penalty>  (1) 
0.024349603033203441

>  <r_i_glide_einternal>  (1) 
32.172454206453388

>  <r_i_glide_emodel>  (1) 
12.743909245088398

>  <r_i_glide_emodel_strain>  (1) 
4.6206387672422267

>  <r_i_glide_energy>  (1) 
-2.0931233781451595

>  <r_i_glide_erotb>  (1) 
1.0500022235395752

>  <r_i_glide_esite>  (1) 
-0.0052773021350716815

>  <r_i_glide_evdw>  (1) 
0.40847728900291236

>  <r_i_glide_gscore>  (1) 
-2.082083803623819

>  <r_i_glide_gscore_strain>  (1) 
0.15515969181055667

>  <r_i_glide_hbond>  (1) 
0

>  <r_i_glide_ligand_efficiency>  (1) 
-0.062355581836079262

>  <r_i_glide_ligand_efficiency_ln>  (1) 
-0.45762943183387228

>  <r_i_glide_ligand_efficiency_sa>  (1) 
-0.20000766940608844

>  <r_i_glide_lipo>  (1) 
-2.9037673685275984

>  <r_i_glide_metal>  (1) 
-0

>  <r_i_glide_rewards>  (1) 
-0.023384812689215551

>  <r_lp_Energy>  (1) 
20.021283

>  <s_epik_Chemistry_Notes>  (1) 
This compound has an imine and may undergo hydrolysis. This compound contains an acetal/aminal-like group ( X-CH(R)-Y where X, Y are N, S, or O) that may be acid/base labile, releasing an aldehyde. This compound has a N-S or N-O group and may undergo hydrolysis at high or low pH.

>  <s_epik_cmdline>  (1) 
J2VwaWtfcHl0aG9uJywgJy1waHQnLCAnMS4wJywgJy1waCcsICc3LjQnLCAnLXRuJywgJzgnLCAnLW1hJywgJzUwMCcsICctaW1hZScsICc8aW5maWxlLm1hZT4nLCAnLW9tYWUnLCAnPG91dGZpbGUubWFlPic=

>  <s_epik_input>  (1) 
W09IXU4xT1tDQEBIXTFDKC9DKD1OL1tIXSlbQ0gzXSk9W0NIXS9DKD1PKVtDSDJdW0NAQF0yKFtDSDNdKVtDSDJdW0NIMl1TW0NAQEhdMi9bQ0hdPVtDSF1cW05IXUMoPU8pW0NAQEhdKENsKVtDQEhdKFtDSDJdMylbQ0BIXTNbQ0BIXShbTkhdW09IXSlbQ0gyXVtPSF0=

>  <s_glide_docking_method>  (1) 
confgen

>  <s_i_glide_gridfile>  (1) 
gpcr_5ht2c_6bqh_protein_autoprepared_prepared

>  <s_lp_Force_Field>  (1) 
S-OPLS

>  <s_lp_Variant>  (1) 
DiffSBDD_57-3

>  <s_m_source_file>  (1) 
generated_GPCR_5HT2C_ligand_DiffSBDD_2026-06-23_prepared.sdf

>  <GenAI_Model>  (1) 
DiffSBDD

>  <Protein>  (1) 
GPCR_5HT2C

$$$$
DiffSBDD_6
     RDKit          3D

  0  0  0  0  0  0  0  0  0  0999 V3000
M  V30 BEGIN CTAB
M  V30 COUNTS 44 44 0 0 1
M  V30 BEGIN ATOM
M  V30 1 C 39.071323 34.883840 61.581558 0
M  V30 2 C 37.855409 27.737753 52.029383 0
M  V30 3 C 39.630676 27.968738 55.662326 0
M  V30 4 C 38.459381 28.625760 54.909020 0 CFG=1
M  V30 5 C 38.223837 32.223201 56.426094 0 CFG=2
M  V30 6 C 37.764431 29.734661 55.723283 0
M  V30 7 C 38.566040 33.019349 57.669887 0
M  V30 8 C 40.582738 35.118241 61.446264 0
M  V30 9 C 38.701589 30.799908 56.258894 0 CFG=1
M  V30 10 O 38.901033 29.197098 53.677533 0
M  V30 11 C 39.262799 31.886189 55.378013 0
M  V30 12 C 39.159615 28.297592 52.601343 0
M  V30 13 O 36.509916 32.937753 58.967760 0
M  V30 14 O 39.148272 32.161516 60.960407 0
M  V30 15 C 39.921268 29.080400 51.524546 0
M  V30 16 C 37.856961 32.504234 58.940970 0 CFG=2
M  V30 17 O 38.517315 34.295953 60.411162 0
M  V30 18 C 38.579367 32.960547 60.215260 0
M  V30 19 H 38.572543 35.839766 61.742136 0
M  V30 20 H 38.855299 34.270664 62.457511 0
M  V30 21 H 38.045359 27.155516 51.127305 0
M  V30 22 H 37.349373 27.076107 52.730209 0
M  V30 23 H 37.166754 28.538027 51.768660 0
M  V30 24 H 39.323346 27.646132 56.657045 0
M  V30 25 H 40.003556 27.087568 55.141545 0
M  V30 26 H 40.466730 28.658779 55.777556 0
M  V30 27 H 37.701329 27.867016 54.721819 0
M  V30 28 H 37.245141 32.459183 56.022744 0
M  V30 29 H 37.245159 29.298776 56.576541 0
M  V30 30 H 36.994013 30.207467 55.111703 0
M  V30 31 H 38.308613 34.063157 57.488298 0
M  V30 32 H 39.645135 32.986973 57.805460 0
M  V30 33 H 40.970095 35.644634 62.318883 0
M  V30 34 H 41.125374 34.176363 61.367759 0
M  V30 35 H 40.811557 35.720717 60.567764 0
M  V30 36 H 39.373671 30.435426 57.033382 0
M  V30 37 H 38.949712 31.905358 54.335592 0
M  V30 38 H 40.303909 32.137755 55.558263 0
M  V30 39 H 39.782780 27.466870 52.930686 0
M  V30 40 H 36.051277 32.537949 58.223541 0
M  V30 41 H 40.180707 28.438595 50.682128 0
M  V30 42 H 39.323358 29.907209 51.140136 0
M  V30 43 H 40.845133 29.498728 51.919448 0
M  V30 44 H 37.860718 31.413774 58.941346 0
M  V30 END ATOM
M  V30 BEGIN BOND
M  V30 1 1 4 3
M  V30 2 1 6 4
M  V30 3 1 7 5
M  V30 4 1 8 1
M  V30 5 1 9 5
M  V30 6 1 9 6
M  V30 7 1 10 4
M  V30 8 1 11 5
M  V30 9 1 11 9
M  V30 10 1 12 2
M  V30 11 1 12 10
M  V30 12 1 15 12
M  V30 13 1 16 7
M  V30 14 1 16 13
M  V30 15 1 17 1
M  V30 16 2 18 14
M  V30 17 1 18 16
M  V30 18 1 18 17
M  V30 19 1 19 1
M  V30 20 1 20 1
M  V30 21 1 21 2
M  V30 22 1 22 2
M  V30 23 1 23 2
M  V30 24 1 24 3
M  V30 25 1 25 3
M  V30 26 1 26 3
M  V30 27 1 4 27 CFG=3
M  V30 28 1 5 28 CFG=3
M  V30 29 1 29 6
M  V30 30 1 30 6
M  V30 31 1 31 7
M  V30 32 1 32 7
M  V30 33 1 33 8
M  V30 34 1 34 8
M  V30 35 1 35 8
M  V30 36 1 9 36 CFG=1
M  V30 37 1 37 11
M  V30 38 1 38 11
M  V30 39 1 39 12
M  V30 40 1 40 13
M  V30 41 1 41 15
M  V30 42 1 42 15
M  V30 43 1 43 15
M  V30 44 1 16 44 CFG=3
M  V30 END BOND
M  V30 END CTAB
M  END
>  <i_epik_Tot_Q>  (1) 
0

>  <i_epik_Tot_abs_Q>  (1) 
0

>  <i_i_glide_confnum>  (1) 
59

>  <i_i_glide_lignum>  (1) 
9

>  <i_i_glide_posenum>  (1) 
193

>  <i_i_glide_rotatable_bonds>  (1) 
10

>  <i_lp_mmshare_version>  (1) 
72125

>  <i_m_source_file_index>  (1) 
7

>  <i_f3d_flags>  (1) 
0

>  <num_sample>  (1) 
100

>  <b_lp_Chiralities_Consistent>  (1) 
1

>  <r_epik_Charging_Adjusted_Penalty>  (1) 
0

>  <r_epik_Ionization_Penalty>  (1) 
1.8372047820881467e-05

>  <r_epik_Ionization_Penalty_Charging>  (1) 
0

>  <r_epik_Ionization_Penalty_Neutral>  (1) 
1.8372047820881467e-05

>  <r_epik_State_Penalty>  (1) 
-0

>  <r_glide_ring_energy>  (1) 
0

>  <r_i_docking_score>  (1) 
-2.028424027523668

>  <r_i_glide_ecoul>  (1) 
-4.8018275749909414

>  <r_i_glide_eff_state_penalty>  (1) 
-0

>  <r_i_glide_einternal>  (1) 
7.887269969827055

>  <r_i_glide_emodel>  (1) 
-29.197661836122627

>  <r_i_glide_emodel_strain>  (1) 
0.25609058644852567

>  <r_i_glide_energy>  (1) 
-29.197562276399989

>  <r_i_glide_erotb>  (1) 
3.7046454867807075

>  <r_i_glide_esite>  (1) 
0

>  <r_i_glide_evdw>  (1) 
-24.395734701409047

>  <r_i_glide_gscore>  (1) 
-2.028424027523668

>  <r_i_glide_gscore_strain>  (1) 
0

>  <r_i_glide_hbond>  (1) 
-0.16

>  <r_i_glide_ligand_efficiency>  (1) 
-0.11269022375131489

>  <r_i_glide_ligand_efficiency_ln>  (1) 
-0.52139593688100372

>  <r_i_glide_ligand_efficiency_sa>  (1) 
-0.29533193410773351

>  <r_i_glide_lipo>  (1) 
-1.712923927648605

>  <r_i_glide_metal>  (1) 
-0

>  <r_i_glide_rewards>  (1) 
-1.9200847153366769

>  <r_lp_Energy>  (1) 
9.3243790000000004

>  <r_lp_tautomer_probability>  (1) 
1

>  <s_epik_Chemistry_Notes>  (1) 
This compound has an ester and may undergo hydrolysis at high or low pH.

>  <s_epik_cmdline>  (1) 
J2VwaWtfcHl0aG9uJywgJy1waHQnLCAnMS4wJywgJy1waCcsICc3LjQnLCAnLXRuJywgJzgnLCAnLW1hJywgJzUwMCcsICctaW1hZScsICc8aW5maWxlLm1hZT4nLCAnLW9tYWUnLCAnPG91dGZpbGUubWFlPic=

>  <s_epik_input>  (1) 
W0NIM11bQ0gyXU9DKD1PKVtDQEBIXShbT0hdKVtDSDJdW0NAQEhdMVtDSF0oW0NIMl0xKVtDSDJdW0NASF0oW0NIM10pT1tDSF0oW0NIM10pW0NIM10=

>  <s_glide_docking_method>  (1) 
confgen

>  <s_i_glide_gridfile>  (1) 
gpcr_5ht2c_6bqh_protein_autoprepared_prepared

>  <s_lp_Force_Field>  (1) 
S-OPLS

>  <s_lp_Variant>  (1) 
DiffSBDD_6-1

>  <s_m_source_file>  (1) 
generated_GPCR_5HT2C_ligand_DiffSBDD_2026-06-23_prepared.sdf

>  <GenAI_Model>  (1) 
DiffSBDD

>  <Protein>  (1) 
GPCR_5HT2C

$$$$
DiffSBDD_16
     RDKit          3D

  0  0  0  0  0  0  0  0  0  0999 V3000
M  V30 BEGIN CTAB
M  V30 COUNTS 69 73 0 0 1
M  V30 BEGIN ATOM
M  V30 1 C 50.709454 45.736773 62.534222 0
M  V30 2 C 42.099273 44.904239 61.836516 0
M  V30 3 C 46.892191 44.669353 64.671237 0 CFG=1
M  V30 4 C 45.584856 43.883504 64.459678 0
M  V30 5 C 51.049082 46.106294 60.132175 0
M  V30 6 C 51.389182 44.753308 59.963606 0
M  V30 7 C 49.274443 45.691733 67.518576 0
M  V30 8 C 50.370903 44.713406 67.983705 0
M  V30 9 C 47.988255 43.776828 65.310903 0
M  V30 10 C 51.408326 43.891679 61.070791 0
M  V30 11 O 49.730693 47.659655 66.256170 0
M  V30 12 C 44.309314 46.014245 61.520918 0
M  V30 13 C 44.994460 45.620151 62.635754 0
M  V30 14 C 46.379241 46.179164 62.920815 0
M  V30 15 C 42.952355 45.591330 61.098953 0
M  V30 16 C 50.718611 46.597876 61.412198 0
M  V30 17 N 40.902865 44.599063 61.223212 0
M  V30 18 C 41.014396 44.803857 57.631905 0
M  V30 19 N 47.309001 45.159052 63.368445 0
M  V30 20 C 42.418190 45.313635 57.506873 0
M  V30 21 C 51.036917 47.037305 58.937888 0
M  V30 22 C 50.318495 43.318245 67.341868 0
M  V30 23 C 50.556350 41.834301 65.317289 0
M  V30 24 C 50.516991 43.288322 65.812488 0 CFG=1
M  V30 25 C 50.340799 46.309147 63.877827 0
M  V30 26 C 49.485255 44.134662 65.029459 0 CFG=2
M  V30 27 C 49.628552 46.433521 66.224854 0
M  V30 28 C 42.411144 45.948721 59.777874 0 CFG=2
M  V30 29 C 49.859756 45.638432 64.977215 0
M  V30 30 C 41.189504 45.018058 60.032939 0
M  V30 31 N 43.125692 45.672356 58.523956 0
M  V30 32 C 51.075061 44.374008 62.351184 0
M  V30 33 C 44.476293 44.614961 63.669796 0
M  V30 34 C 40.445179 44.638291 58.843214 0
M  V30 35 H 42.248809 44.565970 62.836528 0
M  V30 36 H 46.718506 45.523480 65.328215 0
M  V30 37 H 45.826653 42.968553 63.917700 0
M  V30 38 H 45.188545 43.552176 65.418930 0
M  V30 39 H 51.645134 44.377174 58.983606 0
M  V30 40 H 49.191453 46.463545 68.284183 0
M  V30 41 H 48.285029 45.248477 67.485059 0
M  V30 42 H 51.357622 45.152028 67.824297 0
M  V30 43 H 50.278511 44.591920 69.063571 0
M  V30 44 H 47.766651 43.680683 66.368585 0
M  V30 45 H 47.846255 42.762055 64.938335 0
M  V30 46 H 51.686948 42.856169 60.941378 0
M  V30 47 H 44.813733 46.713070 60.869543 0
M  V30 48 H 46.781679 46.637325 62.016490 0
M  V30 49 H 46.305272 46.970908 63.667830 0
M  V30 50 H 50.457029 47.639100 61.533796 0
M  V30 51 H 40.509640 44.537679 56.715973 0
M  V30 52 H 48.235407 45.558656 63.436908 0
M  V30 53 H 42.814222 45.344955 56.488680 0
M  V30 54 H 50.154094 47.676091 58.963928 0
M  V30 55 H 51.926436 47.666901 58.942826 0
M  V30 56 H 51.018067 46.480647 57.999987 0
M  V30 57 H 51.100248 42.711726 67.801410 0
M  V30 58 H 49.385875 42.825067 67.615353 0
M  V30 59 H 49.670703 41.274772 65.618427 0
M  V30 60 H 50.635094 41.764870 64.232902 0
M  V30 61 H 51.429620 41.337799 65.731864 0
M  V30 62 H 51.503078 43.705072 65.599966 0
M  V30 63 H 50.494791 47.375512 63.968902 0
M  V30 64 H 49.439206 43.781061 64.016351 0
M  V30 65 H 42.086806 46.990370 59.802987 0
M  V30 66 H 51.136050 43.705775 63.182581 0
M  V30 67 H 43.791083 45.113746 64.356016 0
M  V30 68 H 43.987951 43.782271 63.170697 0
M  V30 69 H 39.459078 44.220421 58.978290 0
M  V30 END ATOM
M  V30 BEGIN BOND
M  V30 1 1 4 3
M  V30 2 1 6 5
M  V30 3 1 8 7
M  V30 4 1 9 3
M  V30 5 2 10 6
M  V30 6 2 13 12
M  V30 7 1 14 13
M  V30 8 2 15 2
M  V30 9 1 15 12
M  V30 10 1 16 1
M  V30 11 2 16 5
M  V30 12 1 17 2
M  V30 13 1 19 3
M  V30 14 1 19 14
M  V30 15 1 20 18
M  V30 16 1 21 5
M  V30 17 1 22 8
M  V30 18 1 24 22
M  V30 19 1 24 23
M  V30 20 1 25 1
M  V30 21 1 26 9
M  V30 22 1 26 24
M  V30 23 1 27 7
M  V30 24 2 27 11
M  V30 25 1 28 15
M  V30 26 2 29 25
M  V30 27 1 29 26
M  V30 28 1 29 27
M  V30 29 2 30 17
M  V30 30 1 30 28
M  V30 31 2 31 20
M  V30 32 1 31 28
M  V30 33 2 32 1
M  V30 34 1 32 10
M  V30 35 1 33 4
M  V30 36 1 33 13
M  V30 37 2 34 18
M  V30 38 1 34 30
M  V30 39 1 35 2
M  V30 40 1 3 36 CFG=1
M  V30 41 1 37 4
M  V30 42 1 38 4
M  V30 43 1 39 6
M  V30 44 1 40 7
M  V30 45 1 41 7
M  V30 46 1 42 8
M  V30 47 1 43 8
M  V30 48 1 44 9
M  V30 49 1 45 9
M  V30 50 1 46 10
M  V30 51 1 47 12
M  V30 52 1 48 14
M  V30 53 1 49 14
M  V30 54 1 50 16
M  V30 55 1 51 18
M  V30 56 1 52 19
M  V30 57 1 53 20
M  V30 58 1 54 21
M  V30 59 1 55 21
M  V30 60 1 56 21
M  V30 61 1 57 22
M  V30 62 1 58 22
M  V30 63 1 59 23
M  V30 64 1 60 23
M  V30 65 1 61 23
M  V30 66 1 24 62 CFG=1
M  V30 67 1 63 25
M  V30 68 1 26 64 CFG=3
M  V30 69 1 28 65 CFG=1
M  V30 70 1 66 32
M  V30 71 1 67 33
M  V30 72 1 68 33
M  V30 73 1 69 34
M  V30 END BOND
M  V30 END CTAB
M  END
>  <i_epik_Tot_Q>  (1) 
0

>  <i_epik_Tot_abs_Q>  (1) 
0

>  <i_i_glide_confnum>  (1) 
12

>  <i_i_glide_lignum>  (1) 
40

>  <i_i_glide_posenum>  (1) 
122

>  <i_i_glide_rotatable_bonds>  (1) 
4

>  <i_lp_mmshare_version>  (1) 
72125

>  <i_m_source_file_index>  (1) 
17

>  <i_f3d_flags>  (1) 
0

>  <num_sample>  (1) 
100

>  <b_lp_Chiralities_Consistent>  (1) 
1

>  <r_epik_Charging_Adjusted_Penalty>  (1) 
0.56391873878667209

>  <r_epik_Ionization_Penalty>  (1) 
0.56391873878667209

>  <r_epik_Ionization_Penalty_Charging>  (1) 
0

>  <r_epik_Ionization_Penalty_Neutral>  (1) 
0.56391873878667209

>  <r_epik_State_Penalty>  (1) 
0.56391873878667209

>  <r_glide_ring_energy>  (1) 
0

>  <r_i_docking_score>  (1) 
-2.0056945173019951

>  <r_i_glide_ecoul>  (1) 
0.54964746846779633

>  <r_i_glide_eff_state_penalty>  (1) 
0.56391873878667209

>  <r_i_glide_einternal>  (1) 
7.3340111170851969

>  <r_i_glide_emodel>  (1) 
-17.243205107190633

>  <r_i_glide_emodel_strain>  (1) 
0.77940411711671231

>  <r_i_glide_energy>  (1) 
-21.668139091891394

>  <r_i_glide_erotb>  (1) 
0.29265828080580603

>  <r_i_glide_esite>  (1) 
0

>  <r_i_glide_evdw>  (1) 
-22.21778656035919

>  <r_i_glide_gscore>  (1) 
-2.5696132560886671

>  <r_i_glide_gscore_strain>  (1) 
0

>  <r_i_glide_hbond>  (1) 
0

>  <r_i_glide_ligand_efficiency>  (1) 
-0.058991015214764561

>  <r_i_glide_ligand_efficiency_ln>  (1) 
-0.44311417669764153

>  <r_i_glide_ligand_efficiency_sa>  (1) 
-0.19110798905909088

>  <r_i_glide_lipo>  (1) 
-1.0640970850320852

>  <r_i_glide_metal>  (1) 
-0

>  <r_i_glide_rewards>  (1) 
-0.76973224411459751

>  <r_lp_Energy>  (1) 
58.143042999999999

>  <s_epik_Chemistry_Notes>  (1) 
This compound has an imine and may undergo hydrolysis.

>  <s_epik_cmdline>  (1) 
J2VwaWtfcHl0aG9uJywgJy1waHQnLCAnMS4wJywgJy1waCcsICc3LjQnLCAnLXRuJywgJzgnLCAnLW1hJywgJzUwMCcsICctaW1hZScsICc8aW5maWxlLm1hZT4nLCAnLW9tYWUnLCAnPG91dGZpbGUubWFlPic=

>  <s_epik_input>  (1) 
W2NIXTFbY0hdW2NIXWMoW0NIM10pW2NIXWMxL1tDSF09QyhDKD1PKVtDSDJdW0NIMl1bQ0gyXVtDQEhdMltDSDNdKVxbQ0BASF0yW0NIMl1bQ0BASF0zW0NIMl1bQ0gyXUMoL1tDSDJdW05IXTMpPVtDSF1cQzQ9W0NIXU49QyhbQ0BASF00NSlbQ0hdPVtDSF1bQ0hdPU41

>  <s_glide_docking_method>  (1) 
confgen

>  <s_i_glide_gridfile>  (1) 
gpcr_5ht2c_6bqh_protein_autoprepared_prepared

>  <s_lp_Force_Field>  (1) 
S-OPLS

>  <s_lp_Variant>  (1) 
DiffSBDD_16-8

>  <s_m_source_file>  (1) 
generated_GPCR_5HT2C_ligand_DiffSBDD_2026-06-23_prepared.sdf

>  <GenAI_Model>  (1) 
DiffSBDD

>  <Protein>  (1) 
GPCR_5HT2C

$$$$
DiffSBDD_27
     RDKit          3D

  0  0  0  0  0  0  0  0  0  0999 V3000
M  V30 BEGIN CTAB
M  V30 COUNTS 43 42 0 0 1
M  V30 BEGIN ATOM
M  V30 1 Cl 39.433032 25.337777 55.318847 0
M  V30 2 C 38.393716 29.500274 57.381220 0
M  V30 3 C 38.110502 30.851264 55.233614 0
M  V30 4 O 40.720511 26.537758 57.805394 0
M  V30 5 C 39.330864 28.472395 58.039372 0
M  V30 6 C 40.237199 30.094474 50.284509 0
M  V30 7 C 38.696382 26.481155 56.467899 0 CFG=1
M  V30 8 C 37.838259 25.705543 57.486553 0
M  V30 9 C 39.859927 30.937703 53.288340 0
M  V30 10 C 39.815019 27.348780 57.093187 0 CFG=2
M  V30 11 C 39.629133 27.746331 50.987326 0
M  V30 12 O 36.845134 24.937920 56.835164 0
M  V30 13 C 38.803570 31.676286 54.140862 0
M  V30 14 C 40.190914 29.097157 51.456827 0
M  V30 15 C 39.376460 29.611104 52.668205 0
M  V30 16 C 39.085270 30.352121 56.304304 0
M  V30 17 H 37.523748 28.991909 56.967542 0
M  V30 18 H 37.989533 30.166814 58.144362 0
M  V30 19 H 37.579556 30.011467 54.784698 0
M  V30 20 H 37.344397 31.466404 55.707919 0
M  V30 21 H 41.201057 26.001651 57.186942 0
M  V30 22 H 38.828022 28.034581 58.902110 0
M  V30 23 H 40.196260 28.998947 58.444284 0
M  V30 24 H 39.245138 30.466143 50.036769 0
M  V30 25 H 40.865497 30.954935 50.511800 0
M  V30 26 H 40.650827 29.636689 49.385972 0
M  V30 27 H 38.049151 27.116975 55.864042 0
M  V30 28 H 37.341482 26.393855 58.167741 0
M  V30 29 H 38.456090 25.040225 58.090010 0
M  V30 30 H 40.152763 31.623951 52.497177 0
M  V30 31 H 40.762272 30.762039 53.874236 0
M  V30 32 H 40.399358 27.783149 56.283620 0
M  V30 33 H 38.601347 27.846546 50.637406 0
M  V30 34 H 40.217630 27.336029 50.167762 0
M  V30 35 H 39.635178 27.011565 51.793100 0
M  V30 36 H 36.304326 25.512647 56.314814 0
M  V30 37 H 38.045142 32.092018 53.480909 0
M  V30 38 H 39.266454 32.537964 54.615405 0
M  V30 39 H 41.220463 28.927634 51.767757 0
M  V30 40 H 39.374360 28.848297 53.447753 0
M  V30 41 H 38.337034 29.705514 52.373343 0
M  V30 42 H 39.591337 31.195237 56.775913 0
M  V30 43 H 39.866398 29.784959 55.806428 0
M  V30 END ATOM
M  V30 BEGIN BOND
M  V30 1 1 5 2
M  V30 2 1 7 1
M  V30 3 1 8 7
M  V30 4 1 10 4
M  V30 5 1 10 5
M  V30 6 1 10 7
M  V30 7 1 12 8
M  V30 8 1 13 3
M  V30 9 1 13 9
M  V30 10 1 14 6
M  V30 11 1 14 11
M  V30 12 1 15 9
M  V30 13 1 15 14
M  V30 14 1 16 2
M  V30 15 1 16 3
M  V30 16 1 17 2
M  V30 17 1 18 2
M  V30 18 1 19 3
M  V30 19 1 20 3
M  V30 20 1 21 4
M  V30 21 1 22 5
M  V30 22 1 23 5
M  V30 23 1 24 6
M  V30 24 1 25 6
M  V30 25 1 26 6
M  V30 26 1 7 27 CFG=3
M  V30 27 1 28 8
M  V30 28 1 29 8
M  V30 29 1 30 9
M  V30 30 1 31 9
M  V30 31 1 10 32 CFG=3
M  V30 32 1 33 11
M  V30 33 1 34 11
M  V30 34 1 35 11
M  V30 35 1 36 12
M  V30 36 1 37 13
M  V30 37 1 38 13
M  V30 38 1 39 14
M  V30 39 1 40 15
M  V30 40 1 41 15
M  V30 41 1 42 16
M  V30 42 1 43 16
M  V30 END BOND
M  V30 END CTAB
M  END
>  <i_epik_Tot_Q>  (1) 
0

>  <i_epik_Tot_abs_Q>  (1) 
0

>  <i_i_glide_confnum>  (1) 
578

>  <i_i_glide_lignum>  (1) 
68

>  <i_i_glide_posenum>  (1) 
154

>  <i_i_glide_rotatable_bonds>  (1) 
12

>  <i_lp_mmshare_version>  (1) 
72125

>  <i_m_source_file_index>  (1) 
28

>  <i_f3d_flags>  (1) 
0

>  <num_sample>  (1) 
100

>  <b_lp_Chiralities_Consistent>  (1) 
1

>  <r_epik_Charging_Adjusted_Penalty>  (1) 
0

>  <r_epik_Ionization_Penalty>  (1) 
1.1488326125260632e-06

>  <r_epik_Ionization_Penalty_Charging>  (1) 
0

>  <r_epik_Ionization_Penalty_Neutral>  (1) 
1.1488326125260632e-06

>  <r_epik_State_Penalty>  (1) 
-0

>  <r_glide_ring_energy>  (1) 
0

>  <r_i_docking_score>  (1) 
-1.9941611878514069

>  <r_i_glide_ecoul>  (1) 
-1.8381454682030471

>  <r_i_glide_eff_state_penalty>  (1) 
-0

>  <r_i_glide_einternal>  (1) 
5.3099410317324578

>  <r_i_glide_emodel>  (1) 
-29.75823020915103

>  <r_i_glide_emodel_strain>  (1) 
0.42465612229140781

>  <r_i_glide_energy>  (1) 
-29.004600077387412

>  <r_i_glide_erotb>  (1) 
5.0120571657308659

>  <r_i_glide_esite>  (1) 
0

>  <r_i_glide_evdw>  (1) 
-27.166454609184363

>  <r_i_glide_gscore>  (1) 
-1.9941611878514069

>  <r_i_glide_gscore_strain>  (1) 
0

>  <r_i_glide_hbond>  (1) 
-0.30786743914379822

>  <r_i_glide_ligand_efficiency>  (1) 
-0.12463507424071293

>  <r_i_glide_ligand_efficiency_ln>  (1) 
-0.52859225711396285

>  <r_i_glide_ligand_efficiency_sa>  (1) 
-0.31406070718216905

>  <r_i_glide_lipo>  (1) 
-2.9042300068642208

>  <r_i_glide_metal>  (1) 
-0

>  <r_i_glide_rewards>  (1) 
-2.1600763568845789

>  <r_lp_Energy>  (1) 
6.3724119999999997

>  <r_lp_tautomer_probability>  (1) 
1

>  <s_epik_cmdline>  (1) 
J2VwaWtfcHl0aG9uJywgJy1waHQnLCAnMS4wJywgJy1waCcsICc3LjQnLCAnLXRuJywgJzgnLCAnLW1hJywgJzUwMCcsICctaW1hZScsICc8aW5maWxlLm1hZT4nLCAnLW9tYWUnLCAnPG91dGZpbGUubWFlPic=

>  <s_epik_input>  (1) 
W09IXVtDSDJdW0NASF0oQ2wpW0NASF0oW09IXSlbQ0gyXVtDSDJdW0NIMl1bQ0gyXVtDSDJdW0NIMl1bQ0gyXVtDSF0oW0NIM10pW0NIM10=

>  <s_glide_docking_method>  (1) 
confgen

>  <s_i_glide_gridfile>  (1) 
gpcr_5ht2c_6bqh_protein_autoprepared_prepared

>  <s_lp_Force_Field>  (1) 
S-OPLS

>  <s_lp_Variant>  (1) 
DiffSBDD_27-1

>  <s_m_source_file>  (1) 
generated_GPCR_5HT2C_ligand_DiffSBDD_2026-06-23_prepared.sdf

>  <GenAI_Model>  (1) 
DiffSBDD

>  <Protein>  (1) 
GPCR_5HT2C

$$$$
DiffSBDD_51
     RDKit          3D

  0  0  0  0  0  0  0  0  0  0999 V3000
M  V30 BEGIN CTAB
M  V30 COUNTS 39 39 0 0 1
M  V30 BEGIN ATOM
M  V30 1 C 38.845221 28.216050 50.979665 0
M  V30 2 C 39.794099 25.750966 58.168565 0
M  V30 3 C 37.895191 24.137811 57.631049 0
M  V30 4 C 38.754508 26.662340 55.189350 0
M  V30 5 N 37.931592 27.549841 54.625440 0
M  V30 6 C 38.301046 28.314696 53.452031 0
M  V30 7 C 40.040602 31.272492 49.884349 0
M  V30 8 C 40.692180 26.930932 57.764037 0
M  V30 9 O 39.877583 26.397016 54.758438 0
M  V30 10 N 38.226384 26.099664 56.277418 0
M  V30 11 C 40.192852 28.923789 51.035876 0
M  V30 12 C 38.937346 25.104349 57.061002 0 CFG=1
M  V30 13 C 40.404243 29.808298 49.837591 0
M  V30 14 C 41.490841 30.836271 49.874760 0
M  V30 15 C 38.541558 27.412772 52.230080 0
M  V30 16 H 38.845166 27.554188 50.115136 0
M  V30 17 H 38.045138 28.937751 50.862807 0
M  V30 18 H 39.142142 26.081547 58.974515 0
M  V30 19 H 40.445126 24.977823 58.567760 0
M  V30 20 H 38.373123 23.326691 58.167759 0
M  V30 21 H 37.222249 24.638266 58.324567 0
M  V30 22 H 37.282552 23.702603 56.841490 0
M  V30 23 H 37.024780 27.715833 55.032860 0
M  V30 24 H 37.495428 29.019234 53.243919 0
M  V30 25 H 39.181467 28.908297 53.696702 0
M  V30 26 H 39.641922 31.733988 48.983410 0
M  V30 27 H 39.645201 31.667813 50.818208 0
M  V30 28 H 41.327959 27.239072 58.593057 0
M  V30 29 H 41.344652 26.662738 56.934381 0
M  V30 30 H 40.106970 27.801615 57.468841 0
M  V30 31 H 37.301943 26.367366 56.576745 0
M  V30 32 H 40.289529 29.534300 51.932246 0
M  V30 33 H 40.983647 28.181383 51.081773 0
M  V30 34 H 39.600984 24.532935 56.409089 0
M  V30 35 H 40.256629 29.313227 48.882296 0
M  V30 36 H 42.053484 30.937742 50.798366 0
M  V30 37 H 42.073890 30.937742 48.967755 0
M  V30 38 H 39.348483 26.697221 52.383336 0
M  V30 39 H 37.645153 26.827038 52.065639 0
M  V30 END ATOM
M  V30 BEGIN BOND
M  V30 1 1 5 4
M  V30 2 1 6 5
M  V30 3 1 8 2
M  V30 4 2 9 4
M  V30 5 1 10 4
M  V30 6 1 11 1
M  V30 7 1 12 2
M  V30 8 1 12 3
M  V30 9 1 12 10
M  V30 10 1 13 7
M  V30 11 1 13 11
M  V30 12 1 14 7
M  V30 13 1 14 13
M  V30 14 1 15 1
M  V30 15 1 15 6
M  V30 16 1 16 1
M  V30 17 1 17 1
M  V30 18 1 18 2
M  V30 19 1 19 2
M  V30 20 1 20 3
M  V30 21 1 21 3
M  V30 22 1 22 3
M  V30 23 1 23 5
M  V30 24 1 24 6
M  V30 25 1 25 6
M  V30 26 1 26 7
M  V30 27 1 27 7
M  V30 28 1 28 8
M  V30 29 1 29 8
M  V30 30 1 30 8
M  V30 31 1 31 10
M  V30 32 1 32 11
M  V30 33 1 33 11
M  V30 34 1 12 34 CFG=3
M  V30 35 1 35 13
M  V30 36 1 36 14
M  V30 37 1 37 14
M  V30 38 1 38 15
M  V30 39 1 39 15
M  V30 END BOND
M  V30 END CTAB
M  END
>  <i_epik_Tot_Q>  (1) 
0

>  <i_epik_Tot_abs_Q>  (1) 
0

>  <i_i_glide_confnum>  (1) 
43

>  <i_i_glide_lignum>  (1) 
107

>  <i_i_glide_posenum>  (1) 
372

>  <i_i_glide_rotatable_bonds>  (1) 
9

>  <i_lp_mmshare_version>  (1) 
72125

>  <i_m_source_file_index>  (1) 
52

>  <i_f3d_flags>  (1) 
0

>  <num_sample>  (1) 
100

>  <b_lp_Chiralities_Consistent>  (1) 
1

>  <r_epik_Charging_Adjusted_Penalty>  (1) 
0

>  <r_epik_Ionization_Penalty>  (1) 
2.8418814736596529e-05

>  <r_epik_Ionization_Penalty_Charging>  (1) 
0

>  <r_epik_Ionization_Penalty_Neutral>  (1) 
2.8418814736596529e-05

>  <r_epik_State_Penalty>  (1) 
-0

>  <r_glide_ring_energy>  (1) 
0

>  <r_i_docking_score>  (1) 
-1.9533496516476658

>  <r_i_glide_ecoul>  (1) 
0.50745444861444988

>  <r_i_glide_eff_state_penalty>  (1) 
-0

>  <r_i_glide_einternal>  (1) 
4.5433442018038956

>  <r_i_glide_emodel>  (1) 
-28.111964105364933

>  <r_i_glide_emodel_strain>  (1) 
0.39196346645452884

>  <r_i_glide_energy>  (1) 
-27.195572515484486

>  <r_i_glide_erotb>  (1) 
5.1718031322358726

>  <r_i_glide_esite>  (1) 
0

>  <r_i_glide_evdw>  (1) 
-27.703026964098935

>  <r_i_glide_gscore>  (1) 
-1.9533496516476658

>  <r_i_glide_gscore_strain>  (1) 
0

>  <r_i_glide_hbond>  (1) 
0

>  <r_i_glide_ligand_efficiency>  (1) 
-0.13022331010984439

>  <r_i_glide_ligand_efficiency_ln>  (1) 
-0.52678619374328772

>  <r_i_glide_ligand_efficiency_sa>  (1) 
-0.32115829975217947

>  <r_i_glide_lipo>  (1) 
-3.0897483710722269

>  <r_i_glide_metal>  (1) 
-0

>  <r_i_glide_rewards>  (1) 
-2.7263712318985318

>  <r_lp_Energy>  (1) 
13.360514

>  <r_lp_tautomer_probability>  (1) 
1

>  <s_epik_cmdline>  (1) 
J2VwaWtfcHl0aG9uJywgJy1waHQnLCAnMS4wJywgJy1waCcsICc3LjQnLCAnLXRuJywgJzgnLCAnLW1hJywgJzUwMCcsICctaW1hZScsICc8aW5maWxlLm1hZT4nLCAnLW9tYWUnLCAnPG91dGZpbGUubWFlPic=

>  <s_epik_input>  (1) 
W0NIMl0xW0NIMl1bQ0hdMVtDSDJdW0NIMl1bQ0gyXVtDSDJdW05IXUMoPU8pW05IXVtDQEhdKFtDSDNdKVtDSDJdW0NIM10=

>  <s_glide_docking_method>  (1) 
confgen

>  <s_i_glide_gridfile>  (1) 
gpcr_5ht2c_6bqh_protein_autoprepared_prepared

>  <s_lp_Force_Field>  (1) 
S-OPLS

>  <s_lp_Variant>  (1) 
DiffSBDD_51-1

>  <s_m_source_file>  (1) 
generated_GPCR_5HT2C_ligand_DiffSBDD_2026-06-23_prepared.sdf

>  <GenAI_Model>  (1) 
DiffSBDD

>  <Protein>  (1) 
GPCR_5HT2C

$$$$
DiffSBDD_51
     RDKit          3D

  0  0  0  0  0  0  0  0  0  0999 V3000
M  V30 BEGIN CTAB
M  V30 COUNTS 39 39 0 0 1
M  V30 BEGIN ATOM
M  V30 1 C 39.072953 29.784044 53.019304 0
M  V30 2 C 37.860444 24.371223 57.141307 0
M  V30 3 C 39.101511 26.306910 58.237975 0
M  V30 4 C 38.453284 26.573392 54.684158 0
M  V30 5 N 39.338248 26.806612 53.707601 0
M  V30 6 C 38.940317 27.274193 52.379839 0
M  V30 7 C 41.352357 30.539923 49.905866 0
M  V30 8 C 36.885919 23.904840 56.044702 0
M  V30 9 O 37.245157 26.741263 54.560049 0
M  V30 10 N 39.032087 26.139103 55.812587 0
M  V30 11 C 40.320376 30.185006 52.221515 0
M  V30 12 C 38.270055 25.856799 57.031614 0 CFG=1
M  V30 13 C 40.125171 30.597518 50.781584 0
M  V30 14 C 40.216760 29.584989 49.658396 0
M  V30 15 C 38.256664 28.658147 52.367155 0
M  V30 16 H 38.445303 30.653288 53.204499 0
M  V30 17 H 39.383113 29.474622 54.017111 0
M  V30 18 H 38.749743 23.738214 57.145544 0
M  V30 19 H 37.377293 24.219732 58.107807 0
M  V30 20 H 38.517804 26.210796 59.151490 0
M  V30 21 H 40.014359 25.718040 58.345908 0
M  V30 22 H 39.388763 27.355949 58.149680 0
M  V30 23 H 40.319110 26.651017 53.879899 0
M  V30 24 H 39.830112 27.298746 51.755207 0
M  V30 25 H 38.278213 26.537754 51.928104 0
M  V30 26 H 41.507255 31.337649 49.191548 0
M  V30 27 H 42.259317 30.165392 50.372966 0
M  V30 28 H 36.477052 22.918253 56.263648 0
M  V30 29 H 36.045420 24.592206 55.951560 0
M  V30 30 H 37.376473 23.850055 55.072558 0
M  V30 31 H 40.032878 26.018706 55.841820 0
M  V30 32 H 40.844527 30.981464 52.750450 0
M  V30 33 H 40.981511 29.330085 52.167485 0
M  V30 34 H 37.357614 26.458354 57.043114 0
M  V30 35 H 39.470679 31.452862 50.627424 0
M  V30 36 H 40.371840 28.542628 49.918960 0
M  V30 37 H 39.645145 29.746005 48.751452 0
M  V30 38 H 38.029810 28.925537 51.338214 0
M  V30 39 H 37.287588 28.595373 52.860202 0
M  V30 END ATOM
M  V30 BEGIN BOND
M  V30 1 1 5 4
M  V30 2 1 6 5
M  V30 3 1 8 2
M  V30 4 2 9 4
M  V30 5 1 10 4
M  V30 6 1 11 1
M  V30 7 1 12 2
M  V30 8 1 12 3
M  V30 9 1 12 10
M  V30 10 1 13 7
M  V30 11 1 13 11
M  V30 12 1 14 7
M  V30 13 1 14 13
M  V30 14 1 15 1
M  V30 15 1 15 6
M  V30 16 1 16 1
M  V30 17 1 17 1
M  V30 18 1 18 2
M  V30 19 1 19 2
M  V30 20 1 20 3
M  V30 21 1 21 3
M  V30 22 1 22 3
M  V30 23 1 23 5
M  V30 24 1 24 6
M  V30 25 1 25 6
M  V30 26 1 26 7
M  V30 27 1 27 7
M  V30 28 1 28 8
M  V30 29 1 29 8
M  V30 30 1 30 8
M  V30 31 1 31 10
M  V30 32 1 32 11
M  V30 33 1 33 11
M  V30 34 1 12 34 CFG=3
M  V30 35 1 35 13
M  V30 36 1 36 14
M  V30 37 1 37 14
M  V30 38 1 38 15
M  V30 39 1 39 15
M  V30 END BOND
M  V30 END CTAB
M  END
>  <i_epik_Tot_Q>  (1) 
0

>  <i_epik_Tot_abs_Q>  (1) 
0

>  <i_i_glide_confnum>  (1) 
140

>  <i_i_glide_lignum>  (1) 
107

>  <i_i_glide_posenum>  (1) 
333

>  <i_i_glide_rotatable_bonds>  (1) 
9

>  <i_lp_mmshare_version>  (1) 
72125

>  <i_m_source_file_index>  (1) 
52

>  <i_f3d_flags>  (1) 
0

>  <num_sample>  (1) 
100

>  <b_lp_Chiralities_Consistent>  (1) 
1

>  <r_epik_Charging_Adjusted_Penalty>  (1) 
0

>  <r_epik_Ionization_Penalty>  (1) 
2.8418814736596529e-05

>  <r_epik_Ionization_Penalty_Charging>  (1) 
0

>  <r_epik_Ionization_Penalty_Neutral>  (1) 
2.8418814736596529e-05

>  <r_epik_State_Penalty>  (1) 
-0

>  <r_glide_ring_energy>  (1) 
0

>  <r_i_docking_score>  (1) 
-1.8822698838978351

>  <r_i_glide_ecoul>  (1) 
-0.17154978890205841

>  <r_i_glide_eff_state_penalty>  (1) 
-0

>  <r_i_glide_einternal>  (1) 
4.9576442685839659

>  <r_i_glide_emodel>  (1) 
-26.805863714474349

>  <r_i_glide_emodel_strain>  (1) 
0

>  <r_i_glide_energy>  (1) 
-25.834931066810423

>  <r_i_glide_erotb>  (1) 
5.1718031322358726

>  <r_i_glide_esite>  (1) 
0

>  <r_i_glide_evdw>  (1) 
-25.663381277908364

>  <r_i_glide_gscore>  (1) 
-1.8822698838978351

>  <r_i_glide_gscore_strain>  (1) 
0

>  <r_i_glide_hbond>  (1) 
0

>  <r_i_glide_ligand_efficiency>  (1) 
-0.12548465892652233

>  <r_i_glide_ligand_efficiency_ln>  (1) 
-0.50761715236172755

>  <r_i_glide_ligand_efficiency_sa>  (1) 
-0.30947178098783024

>  <r_i_glide_lipo>  (1) 
-2.8564326059257019

>  <r_i_glide_metal>  (1) 
-0

>  <r_i_glide_rewards>  (1) 
-2.888738877977278

>  <r_lp_Energy>  (1) 
13.360514

>  <r_lp_tautomer_probability>  (1) 
1

>  <s_epik_cmdline>  (1) 
J2VwaWtfcHl0aG9uJywgJy1waHQnLCAnMS4wJywgJy1waCcsICc3LjQnLCAnLXRuJywgJzgnLCAnLW1hJywgJzUwMCcsICctaW1hZScsICc8aW5maWxlLm1hZT4nLCAnLW9tYWUnLCAnPG91dGZpbGUubWFlPic=

>  <s_epik_input>  (1) 
W0NIMl0xW0NIMl1bQ0hdMVtDSDJdW0NIMl1bQ0gyXVtDSDJdW05IXUMoPU8pW05IXVtDQEhdKFtDSDNdKVtDSDJdW0NIM10=

>  <s_glide_docking_method>  (1) 
confgen

>  <s_i_glide_gridfile>  (1) 
gpcr_5ht2c_6bqh_protein_autoprepared_prepared

>  <s_lp_Force_Field>  (1) 
S-OPLS

>  <s_lp_Variant>  (1) 
DiffSBDD_51-1

>  <s_m_source_file>  (1) 
generated_GPCR_5HT2C_ligand_DiffSBDD_2026-06-23_prepared.sdf

>  <GenAI_Model>  (1) 
DiffSBDD

>  <Protein>  (1) 
GPCR_5HT2C

$$$$
DiffSBDD_27
     RDKit          3D

  0  0  0  0  0  0  0  0  0  0999 V3000
M  V30 BEGIN CTAB
M  V30 COUNTS 43 42 0 0 1
M  V30 BEGIN ATOM
M  V30 1 Cl 36.045155 34.137754 61.706698 0
M  V30 2 C 37.906649 31.396336 58.435470 0
M  V30 3 C 38.559082 30.760389 56.044389 0
M  V30 4 O 35.677849 33.337761 58.967760 0
M  V30 5 C 37.869724 32.485317 59.525770 0
M  V30 6 C 40.836727 30.428272 50.043316 0
M  V30 7 C 37.012635 34.767652 60.337085 0 CFG=2
M  V30 8 C 36.447633 36.144616 59.942343 0
M  V30 9 C 39.371696 30.174992 53.684059 0
M  V30 10 C 37.013420 33.728036 59.194988 0 CFG=2
M  V30 11 C 39.326148 28.649349 50.999202 0
M  V30 12 O 37.222828 36.804203 58.967758 0
M  V30 13 C 39.132730 31.279112 54.720663 0
M  V30 14 C 40.393612 29.703829 51.323376 0
M  V30 15 C 39.973727 30.743216 52.388481 0
M  V30 16 C 38.428111 31.888126 57.076094 0
M  V30 17 H 38.544128 30.583843 58.785198 0
M  V30 18 H 36.916511 30.955907 58.312722 0
M  V30 19 H 39.203796 29.974637 56.439284 0
M  V30 20 H 37.580873 30.307626 55.871673 0
M  V30 21 H 35.645114 32.717566 58.232509 0
M  V30 22 H 38.892027 32.806348 59.728785 0
M  V30 23 H 37.510385 32.030787 60.449681 0
M  V30 24 H 40.023912 31.029607 49.634131 0
M  V30 25 H 41.671991 31.095606 50.241797 0
M  V30 26 H 41.155279 29.737324 49.265219 0
M  V30 27 H 38.029053 34.905683 60.707890 0
M  V30 28 H 36.429763 36.790459 60.820704 0
M  V30 29 H 35.434221 36.044439 59.559409 0
M  V30 30 H 40.040838 29.427937 54.107793 0
M  V30 31 H 38.427933 29.671534 53.472502 0
M  V30 32 H 37.397363 34.195317 58.288380 0
M  V30 33 H 38.445137 29.109514 50.568563 0
M  V30 34 H 39.699609 27.927201 50.273225 0
M  V30 35 H 39.021772 28.083981 51.879696 0
M  V30 36 H 37.002956 36.434770 58.117341 0
M  V30 37 H 38.463727 32.034464 54.304145 0
M  V30 38 H 40.078606 31.779044 54.924965 0
M  V30 39 H 41.245138 29.152517 51.712627 0
M  V30 40 H 39.288077 31.473822 51.965882 0
M  V30 41 H 40.845137 31.337506 52.650489 0
M  V30 42 H 37.750845 32.641792 56.672364 0
M  V30 43 H 39.393487 32.376213 57.209411 0
M  V30 END ATOM
M  V30 BEGIN BOND
M  V30 1 1 5 2
M  V30 2 1 7 1
M  V30 3 1 8 7
M  V30 4 1 10 4
M  V30 5 1 10 5
M  V30 6 1 10 7
M  V30 7 1 12 8
M  V30 8 1 13 3
M  V30 9 1 13 9
M  V30 10 1 14 6
M  V30 11 1 14 11
M  V30 12 1 15 9
M  V30 13 1 15 14
M  V30 14 1 16 2
M  V30 15 1 16 3
M  V30 16 1 17 2
M  V30 17 1 18 2
M  V30 18 1 19 3
M  V30 19 1 20 3
M  V30 20 1 21 4
M  V30 21 1 22 5
M  V30 22 1 23 5
M  V30 23 1 24 6
M  V30 24 1 25 6
M  V30 25 1 26 6
M  V30 26 1 7 27 CFG=1
M  V30 27 1 28 8
M  V30 28 1 29 8
M  V30 29 1 30 9
M  V30 30 1 31 9
M  V30 31 1 10 32 CFG=3
M  V30 32 1 33 11
M  V30 33 1 34 11
M  V30 34 1 35 11
M  V30 35 1 36 12
M  V30 36 1 37 13
M  V30 37 1 38 13
M  V30 38 1 39 14
M  V30 39 1 40 15
M  V30 40 1 41 15
M  V30 41 1 42 16
M  V30 42 1 43 16
M  V30 END BOND
M  V30 END CTAB
M  END
>  <i_epik_Tot_Q>  (1) 
0

>  <i_epik_Tot_abs_Q>  (1) 
0

>  <i_i_glide_confnum>  (1) 
45

>  <i_i_glide_lignum>  (1) 
69

>  <i_i_glide_posenum>  (1) 
363

>  <i_i_glide_rotatable_bonds>  (1) 
12

>  <i_lp_mmshare_version>  (1) 
72125

>  <i_m_source_file_index>  (1) 
28

>  <i_f3d_flags>  (1) 
0

>  <num_sample>  (1) 
100

>  <b_lp_Chiralities_Consistent>  (1) 
1

>  <r_epik_Charging_Adjusted_Penalty>  (1) 
0

>  <r_epik_Ionization_Penalty>  (1) 
1.1488326125260632e-06

>  <r_epik_Ionization_Penalty_Charging>  (1) 
0

>  <r_epik_Ionization_Penalty_Neutral>  (1) 
1.1488326125260632e-06

>  <r_epik_State_Penalty>  (1) 
-0

>  <r_glide_ring_energy>  (1) 
0

>  <r_i_docking_score>  (1) 
-1.8482747565960311

>  <r_i_glide_ecoul>  (1) 
-7.6233606878554969

>  <r_i_glide_eff_state_penalty>  (1) 
-0

>  <r_i_glide_einternal>  (1) 
4.5782063057534925

>  <r_i_glide_emodel>  (1) 
-27.713740664195988

>  <r_i_glide_emodel_strain>  (1) 
0.16648077306625453

>  <r_i_glide_energy>  (1) 
-26.626101929770961

>  <r_i_glide_erotb>  (1) 
5.0120571657308659

>  <r_i_glide_esite>  (1) 
0

>  <r_i_glide_evdw>  (1) 
-19.002741241915462

>  <r_i_glide_gscore>  (1) 
-1.8482747565960311

>  <r_i_glide_gscore_strain>  (1) 
0

>  <r_i_glide_hbond>  (1) 
-0.45599999999999996

>  <r_i_glide_ligand_efficiency>  (1) 
-0.11551717228725195

>  <r_i_glide_ligand_efficiency_ln>  (1) 
-0.48992214436211134

>  <r_i_glide_ligand_efficiency_sa>  (1) 
-0.29108503397808283

>  <r_i_glide_lipo>  (1) 
-2.1925953030428116

>  <r_i_glide_metal>  (1) 
-0

>  <r_i_glide_rewards>  (1) 
-2.1180954540099881

>  <r_lp_Energy>  (1) 
8.3153009999999998

>  <r_lp_tautomer_probability>  (1) 
1

>  <s_epik_cmdline>  (1) 
J2VwaWtfcHl0aG9uJywgJy1waHQnLCAnMS4wJywgJy1waCcsICc3LjQnLCAnLXRuJywgJzgnLCAnLW1hJywgJzUwMCcsICctaW1hZScsICc8aW5maWxlLm1hZT4nLCAnLW9tYWUnLCAnPG91dGZpbGUubWFlPic=

>  <s_epik_input>  (1) 
W09IXVtDSDJdW0NASF0oQ2wpW0NASF0oW09IXSlbQ0gyXVtDSDJdW0NIMl1bQ0gyXVtDSDJdW0NIMl1bQ0gyXVtDSF0oW0NIM10pW0NIM10=

>  <s_glide_docking_method>  (1) 
confgen

>  <s_i_glide_gridfile>  (1) 
gpcr_5ht2c_6bqh_protein_autoprepared_prepared

>  <s_lp_Force_Field>  (1) 
S-OPLS

>  <s_lp_Variant>  (1) 
DiffSBDD_27-2

>  <s_m_source_file>  (1) 
generated_GPCR_5HT2C_ligand_DiffSBDD_2026-06-23_prepared.sdf

>  <GenAI_Model>  (1) 
DiffSBDD

>  <Protein>  (1) 
GPCR_5HT2C

$$$$
DiffSBDD_92
     RDKit          3D

  0  0  0  0  0  0  0  0  0  0999 V3000
M  V30 BEGIN CTAB
M  V30 COUNTS 72 74 0 0 1
M  V30 BEGIN ATOM
M  V30 1 C 48.840180 43.233736 47.592251 0 CFG=2
M  V30 2 O 53.306785 46.290884 54.127311 0
M  V30 3 C 45.850524 45.515004 47.738589 0
M  V30 4 C 52.312855 45.853110 53.505626 0
M  V30 5 C 45.330101 44.674648 55.047877 0
M  V30 6 C 51.459091 44.886438 49.901367 0
M  V30 7 C 42.844763 45.337309 55.469287 0
M  V30 8 O 52.851210 45.031040 47.892653 0
M  V30 9 C 45.954049 45.128879 50.320491 0 CFG=2
M  V30 10 C 53.789592 45.674524 49.984474 0
M  V30 11 C 49.060810 42.421167 43.704399 0
M  V30 12 N 50.278004 44.385676 49.215610 0
M  V30 13 N 42.864198 44.859772 56.714106 0
M  V30 14 S 46.318570 43.337754 50.251707 0
M  V30 15 O 51.213782 45.602424 54.050358 0 CHG=-1
M  V30 16 O 51.242211 43.225886 47.497003 0
M  V30 17 C 44.113674 45.218548 54.715169 0
M  V30 18 C 48.446247 44.628939 44.822311 0
M  V30 19 C 46.471798 45.905071 49.090724 0
M  V30 20 C 49.206452 43.289735 44.965300 0 CFG=1
M  V30 21 C 46.531004 45.754130 51.610498 0
M  V30 22 C 46.903364 44.525045 44.845277 0
M  V30 23 O 41.846086 45.847503 54.967295 0
M  V30 24 C 53.665394 45.885871 51.369782 0
M  V30 25 S 44.135270 45.871902 53.106947 0
M  V30 26 C 51.347021 45.123031 51.287237 0
M  V30 27 C 45.803691 45.430363 52.878934 0
M  V30 28 C 52.702077 45.182418 49.235727 0
M  V30 29 C 46.299036 44.797531 53.995867 0
M  V30 30 C 50.245381 43.622796 48.093242 0
M  V30 31 C 52.445149 45.615699 52.023973 0
M  V30 32 C 48.020507 42.459750 48.661222 0 CFG=2
M  V30 33 C 46.418627 46.387773 46.600412 0
M  V30 34 O 47.737889 43.310010 49.778705 0
M  V30 35 C 48.727481 41.193565 49.180834 0
M  V30 36 C 48.839184 42.473633 46.231936 0
M  V30 37 C 46.188008 45.852672 45.171207 0
M  V30 38 H 48.312933 44.170929 47.444395 0
M  V30 39 H 44.766472 45.621539 47.774696 0
M  V30 40 H 46.039446 44.460451 47.553545 0
M  V30 41 H 45.561364 44.206204 55.992682 0
M  V30 42 H 52.236954 44.366551 47.574712 0
M  V30 43 H 44.869826 45.238831 50.340098 0
M  V30 44 H 54.723454 45.898436 49.490170 0
M  V30 45 H 48.031581 42.090120 43.562873 0
M  V30 46 H 49.687394 41.530802 43.767631 0
M  V30 47 H 49.361311 42.968804 42.810729 0
M  V30 48 H 49.392202 44.547287 49.677022 0
M  V30 49 H 43.707252 44.448865 57.083492 0
M  V30 50 H 42.032237 44.910904 57.283070 0
M  V30 51 H 48.750190 45.122395 43.898562 0
M  V30 52 H 48.800919 45.292956 45.607098 0
M  V30 53 H 46.280186 46.967989 49.242894 0
M  V30 54 H 47.556305 45.809940 49.039285 0
M  V30 55 H 50.264029 43.545486 45.038660 0
M  V30 56 H 47.581450 45.474575 51.707192 0
M  V30 57 H 46.535813 46.840167 51.514658 0
M  V30 58 H 46.566472 44.171224 43.870241 0
M  V30 59 H 46.570560 43.766839 45.549402 0
M  V30 60 H 54.507158 46.264647 51.931741 0
M  V30 61 H 50.413017 44.916604 51.790678 0
M  V30 62 H 47.309944 44.429056 54.097567 0
M  V30 63 H 47.090867 42.149900 48.179526 0
M  V30 64 H 45.971177 47.379822 46.677174 0
M  V30 65 H 47.483141 46.551052 46.760459 0
M  V30 66 H 49.085566 40.567553 48.363869 0
M  V30 67 H 48.045148 40.584551 49.767756 0
M  V30 68 H 49.582290 41.435646 49.813134 0
M  V30 69 H 49.514396 41.619458 46.298939 0
M  V30 70 H 47.858118 42.025604 46.074840 0
M  V30 71 H 45.116991 45.737895 45.008499 0
M  V30 72 H 46.512381 46.608684 44.455223 0
M  V30 END ATOM
M  V30 BEGIN BOND
M  V30 1 2 4 2
M  V30 2 1 12 6
M  V30 3 1 13 7
M  V30 4 1 14 9
M  V30 5 1 15 4
M  V30 6 2 17 5
M  V30 7 1 17 7
M  V30 8 1 19 3
M  V30 9 1 19 9
M  V30 10 1 20 11
M  V30 11 1 20 18
M  V30 12 1 21 9
M  V30 13 1 22 18
M  V30 14 2 23 7
M  V30 15 2 24 10
M  V30 16 1 25 17
M  V30 17 1 26 6
M  V30 18 1 27 21
M  V30 19 1 27 25
M  V30 20 2 28 6
M  V30 21 1 28 8
M  V30 22 1 28 10
M  V30 23 1 29 5
M  V30 24 2 29 27
M  V30 25 1 30 1
M  V30 26 1 30 12
M  V30 27 2 30 16
M  V30 28 1 31 4
M  V30 29 1 31 24
M  V30 30 2 31 26
M  V30 31 1 32 1
M  V30 32 1 33 3
M  V30 33 1 34 14
M  V30 34 1 34 32
M  V30 35 1 35 32
M  V30 36 1 36 1
M  V30 37 1 36 20
M  V30 38 1 37 22
M  V30 39 1 37 33
M  V30 40 1 1 38 CFG=3
M  V30 41 1 39 3
M  V30 42 1 40 3
M  V30 43 1 41 5
M  V30 44 1 42 8
M  V30 45 1 9 43 CFG=1
M  V30 46 1 44 10
M  V30 47 1 45 11
M  V30 48 1 46 11
M  V30 49 1 47 11
M  V30 50 1 48 12
M  V30 51 1 49 13
M  V30 52 1 50 13
M  V30 53 1 51 18
M  V30 54 1 52 18
M  V30 55 1 53 19
M  V30 56 1 54 19
M  V30 57 1 20 55 CFG=1
M  V30 58 1 56 21
M  V30 59 1 57 21
M  V30 60 1 58 22
M  V30 61 1 59 22
M  V30 62 1 60 24
M  V30 63 1 61 26
M  V30 64 1 62 29
M  V30 65 1 32 63 CFG=3
M  V30 66 1 64 33
M  V30 67 1 65 33
M  V30 68 1 66 35
M  V30 69 1 67 35
M  V30 70 1 68 35
M  V30 71 1 69 36
M  V30 72 1 70 36
M  V30 73 1 71 37
M  V30 74 1 72 37
M  V30 END BOND
M  V30 END CTAB
M  END
>  <i_epik_Tot_Q>  (1) 
-1

>  <i_epik_Tot_abs_Q>  (1) 
1

>  <i_i_glide_confnum>  (1) 
64

>  <i_i_glide_lignum>  (1) 
212

>  <i_i_glide_posenum>  (1) 
77

>  <i_i_glide_rotatable_bonds>  (1) 
8

>  <i_lp_mmshare_version>  (1) 
72125

>  <i_m_source_file_index>  (1) 
93

>  <i_f3d_flags>  (1) 
0

>  <num_sample>  (1) 
100

>  <b_lp_Chiralities_Consistent>  (1) 
1

>  <r_epik_Charging_Adjusted_Penalty>  (1) 
0.00060253989728688382

>  <r_epik_Ionization_Penalty>  (1) 
0.0030111313993829731

>  <r_epik_Ionization_Penalty_Charging>  (1) 
0.00060253989728688382

>  <r_epik_Ionization_Penalty_Neutral>  (1) 
0.0024085915020960894

>  <r_epik_State_Penalty>  (1) 
-0

>  <r_glide_ring_energy>  (1) 
0

>  <r_i_docking_score>  (1) 
-1.8080465748585623

>  <r_i_glide_ecoul>  (1) 
-0.33162136193284392

>  <r_i_glide_eff_state_penalty>  (1) 
-0

>  <r_i_glide_einternal>  (1) 
21.294156443598503

>  <r_i_glide_emodel>  (1) 
-13.636063117374874

>  <r_i_glide_emodel_strain>  (1) 
0.25736862737873167

>  <r_i_glide_energy>  (1) 
-21.944312540314783

>  <r_i_glide_erotb>  (1) 
0.34529747416661971

>  <r_i_glide_esite>  (1) 
0

>  <r_i_glide_evdw>  (1) 
-21.61269117838194

>  <r_i_glide_gscore>  (1) 
-1.8080465748585623

>  <r_i_glide_gscore_strain>  (1) 
0

>  <r_i_glide_hbond>  (1) 
0

>  <r_i_glide_ligand_efficiency>  (1) 
-0.048866123644826009

>  <r_i_glide_ligand_efficiency_ln>  (1) 
-0.39212291546125172

>  <r_i_glide_ligand_efficiency_sa>  (1) 
-0.16283276501452223

>  <r_i_glide_lipo>  (1) 
-1.0229667858913385

>  <r_i_glide_metal>  (1) 
-0

>  <r_i_glide_rewards>  (1) 
5.0007518015714923e-07

>  <r_lp_Energy>  (1) 
30.701922999999997

>  <r_lp_tautomer_probability>  (1) 
1

>  <s_epik_cmdline>  (1) 
J2VwaWtfcHl0aG9uJywgJy1waHQnLCAnMS4wJywgJy1waCcsICc3LjQnLCAnLXRuJywgJzgnLCAnLW1hJywgJzUwMCcsICctaW1hZScsICc8aW5maWxlLm1hZT4nLCAnLW9tYWUnLCAnPG91dGZpbGUubWFlPic=

>  <s_epik_input>  (1) 
W09IXWMxW2NIXVtjSF1jKEMoPU8pW09IXSlbY0hdYzFbTkhdQyg9TylbQ0BASF0yW0NAQEhdKFtDSDNdKU9TW0NAQEhdKFtDSDJdYyhzMylbY0hdW2NIXWMzQyg9TylbTkgyXSlbQ0gyXVtDSDJdW0NIMl1bQ0gyXVtDSDJdW0NIMl1bQ0BIXShbQ0gzXSlbQ0gyXTI=

>  <s_glide_docking_method>  (1) 
confgen

>  <s_i_glide_gridfile>  (1) 
gpcr_5ht2c_6bqh_protein_autoprepared_prepared

>  <s_lp_Force_Field>  (1) 
S-OPLS

>  <s_lp_Variant>  (1) 
DiffSBDD_92-1

>  <s_m_source_file>  (1) 
generated_GPCR_5HT2C_ligand_DiffSBDD_2026-06-23_prepared.sdf

>  <GenAI_Model>  (1) 
DiffSBDD

>  <Protein>  (1) 
GPCR_5HT2C

$$$$
DiffSBDD_55
     RDKit          3D

  0  0  0  0  0  0  0  0  0  0999 V3000
M  V30 BEGIN CTAB
M  V30 COUNTS 39 38 0 0 1
M  V30 BEGIN ATOM
M  V30 1 C 38.554801 27.628378 53.670093 0
M  V30 2 C 37.958480 25.466825 54.949284 0
M  V30 3 C 39.121619 28.414867 50.846219 0
M  V30 4 C 37.892462 27.001161 54.905083 0
M  V30 5 C 37.670273 29.939191 54.374659 0
M  V30 6 C 38.880249 29.133067 53.872665 0 CFG=2
M  V30 7 C 39.757352 29.633623 51.485437 0
M  V30 8 C 39.645147 29.937550 52.804232 0
M  V30 9 C 37.477049 24.871611 56.286099 0
M  V30 10 C 38.197171 25.386352 57.551757 0
M  V30 11 N 40.445121 26.138609 56.708241 0 CHG=1
M  V30 12 C 40.542086 30.517405 50.538111 0
M  V30 13 C 39.721918 25.181922 57.562403 0
M  V30 14 H 37.858763 27.461686 52.853033 0
M  V30 15 H 39.476364 27.093678 53.437606 0
M  V30 16 H 37.336685 25.065411 54.148990 0
M  V30 17 H 38.968126 25.119774 54.732485 0
M  V30 18 H 39.571829 27.486604 51.194956 0
M  V30 19 H 38.045203 28.407425 50.994559 0
M  V30 20 H 39.270519 28.447684 49.767728 0
M  V30 21 H 38.341662 27.434443 55.794933 0
M  V30 22 H 36.845137 27.294627 54.925771 0
M  V30 23 H 37.855347 31.014413 54.364859 0
M  V30 24 H 36.795438 29.737727 53.767762 0
M  V30 25 H 37.408734 29.678788 55.400027 0
M  V30 26 H 39.594146 29.149019 54.697496 0
M  V30 27 H 40.132542 30.832672 53.166369 0
M  V30 28 H 36.409362 25.066976 56.393857 0
M  V30 29 H 37.571241 23.785938 56.238865 0
M  V30 30 H 37.948880 26.430199 57.746055 0
M  V30 31 H 37.782056 24.839986 58.399719 0
M  V30 32 H 41.421424 25.852963 56.649721 0
M  V30 33 H 40.039361 26.134682 55.783341 0
M  V30 34 H 41.325753 29.952904 50.036671 0
M  V30 35 H 39.882406 30.941045 49.779890 0
M  V30 36 H 41.012985 31.337735 51.074241 0
M  V30 37 H 40.101175 25.337786 58.568529 0
M  V30 38 H 39.970933 24.161043 57.272781 0
M  V30 39 H 40.382063 27.068185 57.098435 0
M  V30 END ATOM
M  V30 BEGIN BOND
M  V30 1 1 4 1
M  V30 2 1 4 2
M  V30 3 1 6 1
M  V30 4 1 6 5
M  V30 5 1 7 3
M  V30 6 1 8 6
M  V30 7 2 8 7
M  V30 8 1 9 2
M  V30 9 1 10 9
M  V30 10 1 12 7
M  V30 11 1 13 10
M  V30 12 1 13 11
M  V30 13 1 14 1
M  V30 14 1 15 1
M  V30 15 1 16 2
M  V30 16 1 17 2
M  V30 17 1 18 3
M  V30 18 1 19 3
M  V30 19 1 20 3
M  V30 20 1 21 4
M  V30 21 1 22 4
M  V30 22 1 23 5
M  V30 23 1 24 5
M  V30 24 1 25 5
M  V30 25 1 6 26 CFG=1
M  V30 26 1 27 8
M  V30 27 1 28 9
M  V30 28 1 29 9
M  V30 29 1 30 10
M  V30 30 1 31 10
M  V30 31 1 32 11
M  V30 32 1 33 11
M  V30 33 1 34 12
M  V30 34 1 35 12
M  V30 35 1 36 12
M  V30 36 1 37 13
M  V30 37 1 38 13
M  V30 38 1 39 11
M  V30 END BOND
M  V30 END CTAB
M  END
>  <i_epik_Tot_Q>  (1) 
1

>  <i_epik_Tot_abs_Q>  (1) 
1

>  <i_i_glide_confnum>  (1) 
91

>  <i_i_glide_lignum>  (1) 
121

>  <i_i_glide_posenum>  (1) 
262

>  <i_i_glide_rotatable_bonds>  (1) 
7

>  <i_lp_mmshare_version>  (1) 
72125

>  <i_m_source_file_index>  (1) 
56

>  <i_f3d_flags>  (1) 
0

>  <num_sample>  (1) 
100

>  <b_lp_Chiralities_Consistent>  (1) 
1

>  <r_epik_Charging_Adjusted_Penalty>  (1) 
0.00087881740244438776

>  <r_epik_Ionization_Penalty>  (1) 
0.00087881740244438776

>  <r_epik_Ionization_Penalty_Charging>  (1) 
0.00087881740244438776

>  <r_epik_Ionization_Penalty_Neutral>  (1) 
0

>  <r_epik_State_Penalty>  (1) 
-0

>  <r_glide_ring_energy>  (1) 
0

>  <r_i_docking_score>  (1) 
-1.7478066009844619

>  <r_i_glide_ecoul>  (1) 
-3.3346632897400266

>  <r_i_glide_eff_state_penalty>  (1) 
-0

>  <r_i_glide_einternal>  (1) 
6.1334152028240299

>  <r_i_glide_emodel>  (1) 
-24.359790915916349

>  <r_i_glide_emodel_strain>  (1) 
2.6144320577746694

>  <r_i_glide_energy>  (1) 
-26.027689179104961

>  <r_i_glide_erotb>  (1) 
5.6086689864227646

>  <r_i_glide_esite>  (1) 
-0.010272266073471571

>  <r_i_glide_evdw>  (1) 
-22.693025889364936

>  <r_i_glide_gscore>  (1) 
-1.7478066009844619

>  <r_i_glide_gscore_strain>  (1) 
0

>  <r_i_glide_hbond>  (1) 
0

>  <r_i_glide_ligand_efficiency>  (1) 
-0.13444666161418939

>  <r_i_glide_ligand_efficiency_ln>  (1) 
-0.49027529586816004

>  <r_i_glide_ligand_efficiency_sa>  (1) 
-0.3161290991016984

>  <r_i_glide_lipo>  (1) 
-3.4278884236344975

>  <r_i_glide_metal>  (1) 
-0

>  <r_i_glide_rewards>  (1) 
-2.2834641097700072

>  <r_lp_Energy>  (1) 
5.2842919999999998

>  <r_lp_tautomer_probability>  (1) 
1

>  <s_epik_cmdline>  (1) 
J2VwaWtfcHl0aG9uJywgJy1waHQnLCAnMS4wJywgJy1waCcsICc3LjQnLCAnLXRuJywgJzgnLCAnLW1hJywgJzUwMCcsICctaW1hZScsICc8aW5maWxlLm1hZT4nLCAnLW9tYWUnLCAnPG91dGZpbGUubWFlPic=

>  <s_epik_input>  (1) 
W0NIM11DKFtDSDNdKT1bQ0hdW0NAQEhdKFtDSDNdKVtDSDJdW0NIMl1bQ0gyXVtDSDJdW0NIMl1bQ0gyXVtOSDJd

>  <s_glide_docking_method>  (1) 
confgen

>  <s_i_glide_gridfile>  (1) 
gpcr_5ht2c_6bqh_protein_autoprepared_prepared

>  <s_lp_Force_Field>  (1) 
S-OPLS

>  <s_lp_Variant>  (1) 
DiffSBDD_55-1

>  <s_m_source_file>  (1) 
generated_GPCR_5HT2C_ligand_DiffSBDD_2026-06-23_prepared.sdf

>  <GenAI_Model>  (1) 
DiffSBDD

>  <Protein>  (1) 
GPCR_5HT2C

$$$$
DiffSBDD_93
     RDKit          3D

  0  0  0  0  0  0  0  0  0  0999 V3000
M  V30 BEGIN CTAB
M  V30 COUNTS 83 84 0 0 1
M  V30 BEGIN ATOM
M  V30 1 C 39.175128 30.161296 60.235129 0
M  V30 2 O 40.360298 30.436197 60.959834 0
M  V30 3 C 39.408607 27.927313 52.905168 0
M  V30 4 C 41.413214 35.530369 63.604568 0
M  V30 5 O 37.637120 32.039085 61.538003 0
M  V30 6 C 36.612286 37.264561 62.941167 0
M  V30 7 N 36.045157 36.085450 62.967833 0
M  V30 8 O 36.044753 38.266306 63.350365 0
M  V30 9 O 36.845122 29.737774 55.866331 0
M  V30 10 C 42.172114 35.707960 64.909326 0
M  V30 11 C 39.469794 29.311861 53.550869 0
M  V30 12 C 37.522165 33.605232 59.714161 0
M  V30 13 C 38.845093 31.605743 58.130055 0
M  V30 14 C 39.004904 36.077041 62.488288 0 CFG=1
M  V30 15 C 38.046301 37.336936 62.372465 0 CFG=1
M  V30 16 C 39.849201 27.839692 55.323679 0 CFG=1
M  V30 17 C 39.526116 30.383938 55.788728 0 CFG=1
M  V30 18 C 39.056322 31.712683 55.134388 0
M  V30 19 C 37.656670 34.730045 60.756938 0
M  V30 20 S 37.486800 29.337605 57.367990 0 CHG=1
M  V30 21 O 40.167088 33.262586 62.113543 0
M  V30 22 N 38.617876 31.384336 59.601067 0
M  V30 23 O 36.434214 30.137751 58.425421 0
M  V30 24 O 38.303012 26.285583 54.168681 0
M  V30 25 F 40.794125 26.393197 56.873395 0
M  V30 26 C 41.302728 34.503153 64.716633 0
M  V30 27 C 40.203015 34.213317 61.064568 0
M  V30 28 C 39.076182 35.263226 61.142798 0 CFG=2
M  V30 29 C 37.918469 32.262530 60.355667 0
M  V30 30 C 38.186922 38.120115 61.029850 0
M  V30 31 C 38.518740 26.188450 57.009555 0
M  V30 32 C 39.029531 30.315685 57.286999 0 CFG=2
M  V30 33 O 38.896605 40.340694 60.567721 0
M  V30 34 C 40.344708 36.539148 63.189206 0
M  V30 35 C 39.706349 27.126563 56.715359 0 CFG=2
M  V30 36 C 37.949067 39.635480 60.967805 0
M  V30 37 C 39.552486 26.944963 54.080999 0 CFG=1
M  V30 38 O 36.845775 40.059992 61.367692 0 CHG=-1
M  V30 39 N 39.231537 29.148445 54.980607 0
M  V30 40 H 38.451871 29.781764 60.958890 0
M  V30 41 H 39.341606 29.293063 59.612759 0
M  V30 42 H 40.221732 31.208312 61.495928 0
M  V30 43 H 38.465472 27.805957 52.369033 0
M  V30 44 H 40.200299 27.796434 52.167593 0
M  V30 45 H 42.045078 35.241442 62.779860 0
M  V30 46 H 36.542786 35.280958 62.623552 0
M  V30 47 H 35.116112 35.980584 63.357114 0
M  V30 48 H 37.466921 29.371636 55.242766 0
M  V30 49 H 43.244819 35.549235 64.905141 0
M  V30 50 H 41.812992 36.410850 65.659325 0
M  V30 51 H 38.730233 29.970159 53.098253 0
M  V30 52 H 40.445291 29.761713 53.379028 0
M  V30 53 H 38.120069 33.896540 58.852759 0
M  V30 54 H 36.488607 33.526770 59.375825 0
M  V30 55 H 39.630159 32.338403 57.941342 0
M  V30 56 H 37.960529 32.078742 57.701532 0
M  V30 57 H 38.593271 35.398317 63.219167 0
M  V30 58 H 38.519778 37.907933 63.136383 0
M  V30 59 H 40.911664 28.050394 55.367775 0
M  V30 60 H 40.595654 30.477046 55.767755 0
M  V30 61 H 39.451160 32.575408 55.671356 0
M  V30 62 H 39.423465 31.827738 54.116214 0
M  V30 63 H 37.973814 31.826937 55.102426 0
M  V30 64 H 37.039166 35.560462 60.416961 0
M  V30 65 H 37.175232 34.368319 61.658222 0
M  V30 66 H 39.261773 33.022187 62.265852 0
M  V30 67 H 35.998640 30.807475 57.880944 0
M  V30 68 H 38.101770 25.892187 53.332684 0
M  V30 69 H 40.445158 34.468280 65.371603 0
M  V30 70 H 41.793682 33.546123 64.553671 0
M  V30 71 H 40.127989 33.681723 60.122525 0
M  V30 72 H 41.171193 34.702604 61.003530 0
M  V30 73 H 39.355845 35.945081 60.344070 0
M  V30 74 H 39.250838 38.079449 60.967769 0
M  V30 75 H 37.748550 37.631190 60.159382 0
M  V30 76 H 37.560685 26.616447 56.723690 0
M  V30 77 H 38.623332 25.241774 56.481567 0
M  V30 78 H 38.478018 25.944791 58.071588 0
M  V30 79 H 39.855892 29.799882 57.754235 0
M  V30 80 H 40.831783 37.291575 62.569633 0
M  V30 81 H 40.086531 37.045380 64.121752 0
M  V30 82 H 39.822465 27.802657 57.547233 0
M  V30 83 H 40.336574 26.204096 53.914443 0
M  V30 END ATOM
M  V30 BEGIN BOND
M  V30 1 1 2 1
M  V30 2 1 7 6
M  V30 3 2 8 6
M  V30 4 1 10 4
M  V30 5 1 11 3
M  V30 6 1 15 6
M  V30 7 1 15 14
M  V30 8 1 18 17
M  V30 9 1 19 12
M  V30 10 1 20 9
M  V30 11 1 22 1
M  V30 12 1 22 13
M  V30 13 1 23 20
M  V30 14 1 26 4
M  V30 15 1 26 10
M  V30 16 1 27 21
M  V30 17 1 28 14
M  V30 18 1 28 19
M  V30 19 1 28 27
M  V30 20 2 29 5
M  V30 21 1 29 12
M  V30 22 1 29 22
M  V30 23 1 30 15
M  V30 24 1 32 13
M  V30 25 1 32 17
M  V30 26 1 32 20
M  V30 27 1 34 4
M  V30 28 1 34 14
M  V30 29 1 35 16
M  V30 30 1 35 25
M  V30 31 1 35 31
M  V30 32 1 36 30
M  V30 33 2 36 33
M  V30 34 1 37 3
M  V30 35 1 37 16
M  V30 36 1 37 24
M  V30 37 1 38 36
M  V30 38 1 39 11
M  V30 39 1 39 16
M  V30 40 1 39 17
M  V30 41 1 40 1
M  V30 42 1 41 1
M  V30 43 1 42 2
M  V30 44 1 43 3
M  V30 45 1 44 3
M  V30 46 1 45 4
M  V30 47 1 46 7
M  V30 48 1 47 7
M  V30 49 1 48 9
M  V30 50 1 49 10
M  V30 51 1 50 10
M  V30 52 1 51 11
M  V30 53 1 52 11
M  V30 54 1 53 12
M  V30 55 1 54 12
M  V30 56 1 55 13
M  V30 57 1 56 13
M  V30 58 1 14 57 CFG=1
M  V30 59 1 15 58 CFG=1
M  V30 60 1 16 59 CFG=3
M  V30 61 1 17 60 CFG=1
M  V30 62 1 61 18
M  V30 63 1 62 18
M  V30 64 1 63 18
M  V30 65 1 64 19
M  V30 66 1 65 19
M  V30 67 1 66 21
M  V30 68 1 67 23
M  V30 69 1 68 24
M  V30 70 1 69 26
M  V30 71 1 70 26
M  V30 72 1 71 27
M  V30 73 1 72 27
M  V30 74 1 28 73 CFG=3
M  V30 75 1 74 30
M  V30 76 1 75 30
M  V30 77 1 76 31
M  V30 78 1 77 31
M  V30 79 1 78 31
M  V30 80 1 32 79 CFG=1
M  V30 81 1 80 34
M  V30 82 1 81 34
M  V30 83 1 35 82 CFG=1
M  V30 84 1 37 83 CFG=3
M  V30 END BOND
M  V30 END CTAB
M  END
>  <i_epik_Tot_Q>  (1) 
0

>  <i_epik_Tot_abs_Q>  (1) 
2

>  <i_i_glide_confnum>  (1) 
966

>  <i_i_glide_lignum>  (1) 
215

>  <i_i_glide_posenum>  (1) 
47

>  <i_i_glide_rotatable_bonds>  (1) 
24

>  <i_lp_mmshare_version>  (1) 
72125

>  <i_m_source_file_index>  (1) 
94

>  <i_f3d_flags>  (1) 
0

>  <num_sample>  (1) 
100

>  <b_lp_Chiralities_Consistent>  (1) 
1

>  <r_epik_Charging_Adjusted_Penalty>  (1) 
0.37121505818338452

>  <r_epik_Ionization_Penalty>  (1) 
0.37121789513022985

>  <r_epik_Ionization_Penalty_Charging>  (1) 
0.00098257200063165957

>  <r_epik_Ionization_Penalty_Neutral>  (1) 
0.37023532312959817

>  <r_epik_State_Penalty>  (1) 
0.37023248618275284

>  <r_glide_ring_energy>  (1) 
0

>  <r_i_docking_score>  (1) 
-1.6516620081412356

>  <r_i_glide_ecoul>  (1) 
-10.33471680692548

>  <r_i_glide_eff_state_penalty>  (1) 
0.37023248618275284

>  <r_i_glide_einternal>  (1) 
30.980801060662223

>  <r_i_glide_emodel>  (1) 
4.3634660888712666

>  <r_i_glide_emodel_strain>  (1) 
18.085104831957267

>  <r_i_glide_energy>  (1) 
-20.960249276097514

>  <r_i_glide_erotb>  (1) 
0.82577533054746977

>  <r_i_glide_esite>  (1) 
-0.072641612270322536

>  <r_i_glide_evdw>  (1) 
-10.625532469172033

>  <r_i_glide_gscore>  (1) 
-2.0218944943239885

>  <r_i_glide_gscore_strain>  (1) 
3.5212762079893167

>  <r_i_glide_hbond>  (1) 
-0.5817050115904131

>  <r_i_glide_ligand_efficiency>  (1) 
-0.042350307901057323

>  <r_i_glide_ligand_efficiency_ln>  (1) 
-0.35416321975972431

>  <r_i_glide_ligand_efficiency_sa>  (1) 
-0.14361884876923889

>  <r_i_glide_lipo>  (1) 
-2.6390837909392397

>  <r_i_glide_metal>  (1) 
-0

>  <r_i_glide_rewards>  (1) 
-0.99403147356337673

>  <r_lp_Energy>  (1) 
10.604659999999999

>  <s_epik_Chemistry_Notes>  (1) 
This compound contains an acetal/aminal-like group ( X-CH(R)-Y where X, Y are N, S, or O) that may be acid/base labile, releasing an aldehyde.

>  <s_epik_cmdline>  (1) 
J2VwaWtfcHl0aG9uJywgJy1waHQnLCAnMS4wJywgJy1waCcsICc3LjQnLCAnLXRuJywgJzgnLCAnLW1hJywgJzUwMCcsICctaW1hZScsICc8aW5maWxlLm1hZT4nLCAnLW9tYWUnLCAnPG91dGZpbGUubWFlPic=

>  <s_epik_input>  (1) 
W0NIMl0xW0NIMl1bQ0hdMVtDSDJdW0NAQEhdKFtDQEBIXShDKD1PKVtOSDJdKVtDSDJdQyg9TylbT0hdKVtDQEBIXShbQ0gyXVtPSF0pW0NIMl1bQ0gyXUMoPU8pTihbQ0gyXVtPSF0pW0NIMl1bQ0BASF0oW1MrXShbT0hdKVtPSF0pW0NASF0oW0NIM10pTjJbQ0gyXVtDSDJdW0NASF0oW09IXSlbQ0BASF0yW0NASF0oRilbQ0gzXQ==

>  <s_glide_docking_method>  (1) 
confgen

>  <s_i_glide_gridfile>  (1) 
gpcr_5ht2c_6bqh_protein_autoprepared_prepared

>  <s_lp_Force_Field>  (1) 
S-OPLS

>  <s_lp_Variant>  (1) 
DiffSBDD_93-3

>  <s_m_source_file>  (1) 
generated_GPCR_5HT2C_ligand_DiffSBDD_2026-06-23_prepared.sdf

>  <GenAI_Model>  (1) 
DiffSBDD

>  <Protein>  (1) 
GPCR_5HT2C

$$$$
DiffSBDD_9
     RDKit          3D

  0  0  0  0  0  0  0  0  0  0999 V3000
M  V30 BEGIN CTAB
M  V30 COUNTS 66 67 0 0 1
M  V30 BEGIN ATOM
M  V30 1 C 38.604124 31.286853 55.645699 0 CFG=1
M  V30 2 C 35.967341 33.817115 61.603106 0
M  V30 3 C 38.350042 25.975525 55.459327 0
M  V30 4 C 41.687493 32.384104 65.447252 0
M  V30 5 O 38.076224 27.172025 54.925969 0
M  V30 6 O 42.107782 30.425408 64.202136 0
M  V30 7 C 37.964759 30.254376 54.758085 0 CFG=1
M  V30 8 C 37.823250 31.717158 54.424770 0
M  V30 9 N 38.045162 31.660089 56.963570 0
M  V30 10 C 38.746291 32.199633 60.378282 0
M  V30 11 C 39.399124 34.070562 61.965114 0 CFG=2
M  V30 12 C 39.774683 33.244923 63.200855 0
M  V30 13 C 40.717921 32.026247 63.056715 0 CFG=1
M  V30 14 C 37.793058 31.560067 59.397276 0
M  V30 15 C 41.101446 31.396517 64.423130 0 CFG=2
M  V30 16 C 37.122751 34.183920 60.656350 0
M  V30 17 C 40.034804 31.430865 60.677857 0
M  V30 18 C 40.765748 35.793784 61.050501 0
M  V30 19 C 38.642514 29.274032 53.810144 0
M  V30 20 C 40.080652 31.372800 55.623326 0
M  V30 21 O 36.571806 31.596771 59.536425 0
M  V30 22 C 38.373401 30.855289 58.152721 0
M  V30 23 O 37.502174 25.183559 55.865641 0
M  V30 24 C 39.147861 27.981711 54.475427 0
M  V30 25 C 38.435776 33.397974 60.967140 0
M  V30 26 C 40.100757 30.958354 62.129924 0
M  V30 27 O 36.840666 29.737830 55.367981 0
M  V30 28 O 40.637054 34.426197 61.367748 0
M  V30 29 C 37.243351 35.714095 60.522680 0
M  V30 30 H 35.905161 32.742325 61.768021 0
M  V30 31 H 36.044778 34.311715 62.567570 0
M  V30 32 H 35.014889 34.127401 61.174949 0
M  V30 33 H 39.428430 25.813236 55.475869 0
M  V30 34 H 40.938471 33.093071 65.801114 0
M  V30 35 H 42.063913 31.863657 66.327460 0
M  V30 36 H 42.516491 32.952201 65.020946 0
M  V30 37 H 42.260984 29.956922 65.008768 0
M  V30 38 H 38.394977 32.116994 53.588591 0
M  V30 39 H 36.845163 32.155681 54.567435 0
M  V30 40 H 37.022457 31.775332 56.924726 0
M  V30 41 H 38.917072 34.952418 62.382151 0
M  V30 42 H 40.231245 33.950500 63.891188 0
M  V30 43 H 38.845143 32.937755 63.635087 0
M  V30 44 H 41.650669 32.381771 62.614146 0
M  V30 45 H 40.231759 30.898650 64.858096 0
M  V30 46 H 36.797276 33.934510 59.649652 0
M  V30 47 H 40.155584 30.537843 60.068812 0
M  V30 48 H 40.906797 32.069107 60.557421 0
M  V30 49 H 41.730000 35.955904 60.579970 0
M  V30 50 H 40.001984 36.095436 60.345498 0
M  V30 51 H 40.704373 36.423797 61.938950 0
M  V30 52 H 37.938544 29.022980 53.016626 0
M  V30 53 H 39.477732 29.777465 53.324467 0
M  V30 54 H 40.461974 31.432624 54.604055 0
M  V30 55 H 40.428107 32.251263 56.167465 0
M  V30 56 H 40.445121 30.450744 56.066078 0
M  V30 57 H 37.921894 29.866452 58.067938 0
M  V30 58 H 39.443962 30.704881 58.208803 0
M  V30 59 H 39.713603 27.407545 53.741229 0
M  V30 60 H 39.816192 28.214744 55.305597 0
M  V30 61 H 40.717042 30.058423 62.149074 0
M  V30 62 H 39.121376 30.642948 62.492331 0
M  V30 63 H 36.423442 30.422973 55.879657 0
M  V30 64 H 37.973839 35.991709 59.767872 0
M  V30 65 H 36.294550 36.131548 60.184391 0
M  V30 66 H 37.486342 36.216627 61.457400 0
M  V30 END ATOM
M  V30 BEGIN BOND
M  V30 1 1 5 3
M  V30 2 1 7 1
M  V30 3 1 8 1
M  V30 4 1 8 7
M  V30 5 1 1 9 CFG=1
M  V30 6 1 12 11
M  V30 7 1 13 12
M  V30 8 1 14 10
M  V30 9 1 15 4
M  V30 10 1 15 6
M  V30 11 1 15 13
M  V30 12 1 16 2
M  V30 13 1 17 10
M  V30 14 1 19 7
M  V30 15 1 20 1
M  V30 16 2 21 14
M  V30 17 1 22 9
M  V30 18 1 22 14
M  V30 19 2 23 3
M  V30 20 1 24 5
M  V30 21 1 24 19
M  V30 22 2 25 10
M  V30 23 1 25 11
M  V30 24 1 25 16
M  V30 25 1 26 13
M  V30 26 1 26 17
M  V30 27 1 7 27 CFG=1
M  V30 28 1 28 11
M  V30 29 1 28 18
M  V30 30 1 29 16
M  V30 31 1 30 2
M  V30 32 1 31 2
M  V30 33 1 32 2
M  V30 34 1 33 3
M  V30 35 1 34 4
M  V30 36 1 35 4
M  V30 37 1 36 4
M  V30 38 1 37 6
M  V30 39 1 38 8
M  V30 40 1 39 8
M  V30 41 1 40 9
M  V30 42 1 11 41 CFG=1
M  V30 43 1 42 12
M  V30 44 1 43 12
M  V30 45 1 13 44 CFG=3
M  V30 46 1 15 45 CFG=1
M  V30 47 1 46 16
M  V30 48 1 47 17
M  V30 49 1 48 17
M  V30 50 1 49 18
M  V30 51 1 50 18
M  V30 52 1 51 18
M  V30 53 1 52 19
M  V30 54 1 53 19
M  V30 55 1 54 20
M  V30 56 1 55 20
M  V30 57 1 56 20
M  V30 58 1 57 22
M  V30 59 1 58 22
M  V30 60 1 59 24
M  V30 61 1 60 24
M  V30 62 1 61 26
M  V30 63 1 62 26
M  V30 64 1 63 27
M  V30 65 1 64 29
M  V30 66 1 65 29
M  V30 67 1 66 29
M  V30 END BOND
M  V30 END CTAB
M  END
>  <i_epik_Tot_Q>  (1) 
0

>  <i_epik_Tot_abs_Q>  (1) 
0

>  <i_i_glide_confnum>  (1) 
1276

>  <i_i_glide_lignum>  (1) 
16

>  <i_i_glide_posenum>  (1) 
159

>  <i_i_glide_rotatable_bonds>  (1) 
13

>  <i_lp_mmshare_version>  (1) 
72125

>  <i_m_source_file_index>  (1) 
10

>  <i_f3d_flags>  (1) 
0

>  <num_sample>  (1) 
100

>  <b_lp_Chiralities_Consistent>  (1) 
1

>  <r_epik_Charging_Adjusted_Penalty>  (1) 
0.70191645640278022

>  <r_epik_Ionization_Penalty>  (1) 
0.70191663338499877

>  <r_epik_Ionization_Penalty_Charging>  (1) 
0

>  <r_epik_Ionization_Penalty_Neutral>  (1) 
0.70191663338499877

>  <r_epik_State_Penalty>  (1) 
0.70191645640278022

>  <r_glide_ring_energy>  (1) 
0

>  <r_i_docking_score>  (1) 
-1.6307079648623839

>  <r_i_glide_ecoul>  (1) 
-6.702772466968006

>  <r_i_glide_eff_state_penalty>  (1) 
0.70191645640278022

>  <r_i_glide_einternal>  (1) 
12.16229299705212

>  <r_i_glide_emodel>  (1) 
-27.029522816917364

>  <r_i_glide_emodel_strain>  (1) 
3.1738319158896076

>  <r_i_glide_energy>  (1) 
-32.975612763638786

>  <r_i_glide_erotb>  (1) 
0.93101816362055201

>  <r_i_glide_esite>  (1) 
-0.048216347469046232

>  <r_i_glide_evdw>  (1) 
-26.272840296670783

>  <r_i_glide_gscore>  (1) 
-2.3326244212651641

>  <r_i_glide_gscore_strain>  (1) 
0

>  <r_i_glide_hbond>  (1) 
-0.30399999999999999

>  <r_i_glide_ligand_efficiency>  (1) 
-0.05623130913318565

>  <r_i_glide_ligand_efficiency_ln>  (1) 
-0.37339077276737492

>  <r_i_glide_ligand_efficiency_sa>  (1) 
-0.17276039718022856

>  <r_i_glide_lipo>  (1) 
-2.2030928262615244

>  <r_i_glide_metal>  (1) 
-0

>  <r_i_glide_rewards>  (1) 
1.6107244737235948

>  <r_lp_Energy>  (1) 
41.088991

>  <s_epik_Chemistry_Notes>  (1) 
This compound has an ester and may undergo hydrolysis at high or low pH.

>  <s_epik_cmdline>  (1) 
J2VwaWtfcHl0aG9uJywgJy1waHQnLCAnMS4wJywgJy1waCcsICc3LjQnLCAnLXRuJywgJzgnLCAnLW1hJywgJzUwMCcsICctaW1hZScsICc8aW5maWxlLm1hZT4nLCAnLW9tYWUnLCAnPG91dGZpbGUubWFlPic=

>  <s_epik_input>  (1) 
Tz1bQ0hdT1tDSDJdW0NIMl1bQ0BAXShbQ0gyXTEpKFtPSF0pW0NAXTEoW0NIM10pW05IXVtDSDJdQyg9TylDMj1DKFtDSF0oW0NIM10pW0NIM10pW0NASF0oT1tDSDNdKVtDSDJdW0NAQEhdKFtDQEBIXShbQ0gzXSlbT0hdKVtDSDJdW0NIMl0y

>  <s_glide_docking_method>  (1) 
confgen

>  <s_i_glide_gridfile>  (1) 
gpcr_5ht2c_6bqh_protein_autoprepared_prepared

>  <s_lp_Force_Field>  (1) 
S-OPLS

>  <s_lp_Variant>  (1) 
DiffSBDD_9-4

>  <s_m_source_file>  (1) 
generated_GPCR_5HT2C_ligand_DiffSBDD_2026-06-23_prepared.sdf

>  <GenAI_Model>  (1) 
DiffSBDD

>  <Protein>  (1) 
GPCR_5HT2C

$$$$
DiffSBDD_16
     RDKit          3D

  0  0  0  0  0  0  0  0  0  0999 V3000
M  V30 BEGIN CTAB
M  V30 COUNTS 70 74 0 0 1
M  V30 BEGIN ATOM
M  V30 1 C 39.997936 27.594159 58.227078 0
M  V30 2 C 39.566879 30.155881 51.019623 0
M  V30 3 C 38.949217 31.719173 57.129566 0 CFG=1
M  V30 4 C 38.135336 32.667461 56.270033 0
M  V30 5 C 38.622036 25.757698 57.347792 0
M  V30 6 C 39.395385 25.743582 56.176350 0
M  V30 7 C 39.183502 31.479580 61.491393 0
M  V30 8 C 37.784978 31.054036 61.947698 0
M  V30 9 C 38.260824 31.481758 58.449410 0
M  V30 10 C 40.460522 26.637363 56.027848 0
M  V30 11 O 41.080298 30.043997 61.565220 0
M  V30 12 C 39.217397 31.577508 52.969380 0
M  V30 13 C 39.350849 31.773914 54.296265 0
M  V30 14 C 40.010987 30.774903 55.208754 0
M  V30 15 C 39.409686 30.290373 52.318083 0
M  V30 16 C 38.903013 26.697761 58.366128 0
M  V30 17 N 39.518183 28.857857 50.558917 0
M  V30 18 C 37.728260 26.710982 52.846517 0
M  V30 19 N 39.218536 30.482246 56.383329 0 CHG=1
M  V30 20 C 37.552487 27.689183 53.948598 0
M  V30 21 C 37.509669 24.733670 57.529131 0
M  V30 22 C 36.710083 30.864230 60.866896 0
M  V30 23 C 35.826326 29.592153 58.850931 0
M  V30 24 C 37.021287 29.804429 59.789737 0 CFG=1
M  V30 25 C 40.353307 28.520200 59.328172 0
M  V30 26 C 38.298508 30.047195 59.039447 0 CFG=2
M  V30 27 C 40.045127 30.328605 60.960528 0
M  V30 28 C 39.208076 29.024718 53.004253 0 CFG=2
M  V30 29 C 39.592340 29.571383 59.748402 0
M  V30 30 C 39.083941 28.313298 51.660880 0
M  V30 31 N 38.086274 28.849307 53.932712 0
M  V30 32 C 40.782914 27.544139 57.060416 0
M  V30 33 C 38.865697 33.052677 54.990894 0
M  V30 34 C 38.437389 27.034832 51.729336 0
M  V30 35 H 39.653403 30.967859 50.299590 0
M  V30 36 H 39.871037 32.242474 57.326586 0
M  V30 37 H 37.824038 33.555375 56.824904 0
M  V30 38 H 37.245177 32.126172 55.991570 0
M  V30 39 H 39.183467 25.029582 55.397045 0
M  V30 40 H 39.706140 31.790296 62.394209 0
M  V30 41 H 39.198742 32.387991 60.899116 0
M  V30 42 H 37.891977 30.152620 62.551972 0
M  V30 43 H 37.430145 31.840706 62.609323 0
M  V30 44 H 38.591382 32.263377 59.115682 0
M  V30 45 H 37.220609 31.752245 58.294633 0
M  V30 46 H 41.056800 26.606996 55.131695 0
M  V30 47 H 38.843096 32.383005 52.366652 0
M  V30 48 H 40.512544 29.910396 54.803165 0
M  V30 49 H 40.843537 31.400608 55.495813 0
M  V30 50 H 38.319806 26.705950 59.275076 0
M  V30 51 H 37.231598 25.776226 52.969151 0
M  V30 52 H 39.739448 29.847147 56.968570 0
M  V30 53 H 36.917675 27.354778 54.767189 0
M  V30 54 H 36.657723 25.108184 58.100654 0
M  V30 55 H 37.159571 24.395038 56.550874 0
M  V30 56 H 37.928582 23.844533 58.016558 0
M  V30 57 H 35.772590 30.579257 61.339553 0
M  V30 58 H 36.482273 31.832737 60.415062 0
M  V30 59 H 35.229631 30.498829 58.745884 0
M  V30 60 H 36.126639 29.280838 57.850971 0
M  V30 61 H 35.188242 28.799686 59.227031 0
M  V30 62 H 37.239527 28.834874 60.167760 0
M  V30 63 H 41.271352 28.289723 59.859804 0
M  V30 64 H 38.197833 29.351447 58.216972 0
M  V30 65 H 40.044029 28.536899 53.419357 0
M  V30 66 H 41.630007 28.203524 56.952606 0
M  V30 67 H 39.640726 33.772279 55.240644 0
M  V30 68 H 38.051213 33.545559 54.449472 0
M  V30 69 H 38.544409 26.391980 50.877503 0
M  V30 70 H 38.352394 30.033393 56.103888 0
M  V30 END ATOM
M  V30 BEGIN BOND
M  V30 1 1 4 3
M  V30 2 1 6 5
M  V30 3 1 8 7
M  V30 4 1 9 3
M  V30 5 2 10 6
M  V30 6 2 13 12
M  V30 7 1 14 13
M  V30 8 2 15 2
M  V30 9 1 15 12
M  V30 10 1 16 1
M  V30 11 2 16 5
M  V30 12 1 17 2
M  V30 13 1 19 3
M  V30 14 1 19 14
M  V30 15 1 20 18
M  V30 16 1 21 5
M  V30 17 1 22 8
M  V30 18 1 24 22
M  V30 19 1 24 23
M  V30 20 1 25 1
M  V30 21 1 26 9
M  V30 22 1 26 24
M  V30 23 1 27 7
M  V30 24 2 27 11
M  V30 25 1 28 15
M  V30 26 2 29 25
M  V30 27 1 29 26
M  V30 28 1 29 27
M  V30 29 2 30 17
M  V30 30 1 30 28
M  V30 31 2 31 20
M  V30 32 1 31 28
M  V30 33 2 32 1
M  V30 34 1 32 10
M  V30 35 1 33 4
M  V30 36 1 33 13
M  V30 37 2 34 18
M  V30 38 1 34 30
M  V30 39 1 35 2
M  V30 40 1 3 36 CFG=1
M  V30 41 1 37 4
M  V30 42 1 38 4
M  V30 43 1 39 6
M  V30 44 1 40 7
M  V30 45 1 41 7
M  V30 46 1 42 8
M  V30 47 1 43 8
M  V30 48 1 44 9
M  V30 49 1 45 9
M  V30 50 1 46 10
M  V30 51 1 47 12
M  V30 52 1 48 14
M  V30 53 1 49 14
M  V30 54 1 50 16
M  V30 55 1 51 18
M  V30 56 1 52 19
M  V30 57 1 53 20
M  V30 58 1 54 21
M  V30 59 1 55 21
M  V30 60 1 56 21
M  V30 61 1 57 22
M  V30 62 1 58 22
M  V30 63 1 59 23
M  V30 64 1 60 23
M  V30 65 1 61 23
M  V30 66 1 24 62 CFG=1
M  V30 67 1 63 25
M  V30 68 1 26 64 CFG=3
M  V30 69 1 28 65 CFG=1
M  V30 70 1 66 32
M  V30 71 1 67 33
M  V30 72 1 68 33
M  V30 73 1 69 34
M  V30 74 1 70 19
M  V30 END BOND
M  V30 END CTAB
M  END
>  <i_epik_Tot_Q>  (1) 
1

>  <i_epik_Tot_abs_Q>  (1) 
1

>  <i_i_glide_confnum>  (1) 
10

>  <i_i_glide_lignum>  (1) 
35

>  <i_i_glide_posenum>  (1) 
277

>  <i_i_glide_rotatable_bonds>  (1) 
4

>  <i_lp_mmshare_version>  (1) 
72125

>  <i_m_source_file_index>  (1) 
17

>  <i_f3d_flags>  (1) 
0

>  <num_sample>  (1) 
100

>  <b_lp_Chiralities_Consistent>  (1) 
1

>  <r_epik_Charging_Adjusted_Penalty>  (1) 
0.57808156404405586

>  <r_epik_Ionization_Penalty>  (1) 
0.28904078202202793

>  <r_epik_Ionization_Penalty_Charging>  (1) 
0.28904078202202793

>  <r_epik_Ionization_Penalty_Neutral>  (1) 
0

>  <r_epik_State_Penalty>  (1) 
0.28904078202202793

>  <r_glide_ring_energy>  (1) 
0

>  <r_i_docking_score>  (1) 
-1.6048009903096845

>  <r_i_glide_ecoul>  (1) 
-3.9583995580775997

>  <r_i_glide_eff_state_penalty>  (1) 
0.28904078202202793

>  <r_i_glide_einternal>  (1) 
6.7409372957502711

>  <r_i_glide_emodel>  (1) 
8.9918536133008899

>  <r_i_glide_emodel_strain>  (1) 
25.543846007973428

>  <r_i_glide_energy>  (1) 
-17.116035895875722

>  <r_i_glide_erotb>  (1) 
0.29147875755417113

>  <r_i_glide_esite>  (1) 
-0.0010454401470288094

>  <r_i_glide_evdw>  (1) 
-13.157636337798122

>  <r_i_glide_gscore>  (1) 
-1.8938417723317125

>  <r_i_glide_gscore_strain>  (1) 
5.3859615019933571

>  <r_i_glide_hbond>  (1) 
-0.32000000000000001

>  <r_i_glide_ligand_efficiency>  (1) 
-0.047200029126755423

>  <r_i_glide_ligand_efficiency_ln>  (1) 
-0.35454555190249071

>  <r_i_glide_ligand_efficiency_sa>  (1) 
-0.15290977137967784

>  <r_i_glide_lipo>  (1) 
-3.8995632511567502

>  <r_i_glide_metal>  (1) 
-0

>  <r_i_glide_rewards>  (1) 
-2.099031589973916

>  <r_lp_Energy>  (1) 
58.685900999999994

>  <s_epik_Chemistry_Notes>  (1) 
This compound has an imine and may undergo hydrolysis.

>  <s_epik_cmdline>  (1) 
J2VwaWtfcHl0aG9uJywgJy1waHQnLCAnMS4wJywgJy1waCcsICc3LjQnLCAnLXRuJywgJzgnLCAnLW1hJywgJzUwMCcsICctaW1hZScsICc8aW5maWxlLm1hZT4nLCAnLW9tYWUnLCAnPG91dGZpbGUubWFlPic=

>  <s_epik_input>  (1) 
W2NIXTFbY0hdW2NIXWMoW0NIM10pW2NIXWMxL1tDSF09QyhDKD1PKVtDSDJdW0NIMl1bQ0gyXVtDQEhdMltDSDNdKVxbQ0BASF0yW0NIMl1bQ0BASF0zW0NIMl1bQ0gyXUMoXFtDSDJdW05IXTMpPVtDSF1cQzQ9W0NIXU49QyhbQ0BASF00NSlbQ0hdPVtDSF1bQ0hdPU41

>  <s_glide_docking_method>  (1) 
confgen

>  <s_i_glide_gridfile>  (1) 
gpcr_5ht2c_6bqh_protein_autoprepared_prepared

>  <s_lp_Force_Field>  (1) 
S-OPLS

>  <s_lp_Variant>  (1) 
DiffSBDD_16-3

>  <s_m_source_file>  (1) 
generated_GPCR_5HT2C_ligand_DiffSBDD_2026-06-23_prepared.sdf

>  <GenAI_Model>  (1) 
DiffSBDD

>  <Protein>  (1) 
GPCR_5HT2C

$$$$
DiffSBDD_27
     RDKit          3D

  0  0  0  0  0  0  0  0  0  0999 V3000
M  V30 BEGIN CTAB
M  V30 COUNTS 43 42 0 0 1
M  V30 BEGIN ATOM
M  V30 1 Cl 37.174810 32.035460 61.534111 0
M  V30 2 C 38.447224 28.751914 58.437864 0
M  V30 3 C 38.339247 29.807330 56.077819 0
M  V30 4 O 36.145829 30.537684 58.967892 0
M  V30 5 C 38.486979 30.033437 59.299619 0
M  V30 6 C 39.897152 29.691414 51.563419 0
M  V30 7 C 37.561215 32.380120 59.827208 0 CFG=2
M  V30 8 C 36.769022 33.607068 59.328678 0
M  V30 9 C 37.960631 28.307109 54.030639 0
M  V30 10 C 37.439871 31.114252 58.944631 0 CFG=2
M  V30 11 C 39.379853 27.498104 50.530716 0
M  V30 12 O 35.373704 33.393661 59.367792 0
M  V30 13 C 38.622882 29.569794 54.596041 0
M  V30 14 C 39.372899 28.268441 51.846127 0
M  V30 15 C 37.976443 28.212435 52.496564 0
M  V30 16 C 39.071445 28.849995 57.033200 0
M  V30 17 H 38.992534 27.978533 58.979987 0
M  V30 18 H 37.427002 28.377010 58.356111 0
M  V30 19 H 37.262626 29.773392 56.250867 0
M  V30 20 H 38.668297 30.823543 56.287351 0
M  V30 21 H 35.652615 30.921927 58.238442 0
M  V30 22 H 39.488134 30.461658 59.259758 0
M  V30 23 H 38.336333 29.737542 60.338344 0
M  V30 24 H 39.248884 30.207974 50.853497 0
M  V30 25 H 39.974506 30.318251 52.447364 0
M  V30 26 H 40.895460 29.650788 51.125551 0
M  V30 27 H 38.611049 32.674250 59.826104 0
M  V30 28 H 37.054504 33.854577 58.305768 0
M  V30 29 H 37.005371 34.479412 59.939068 0
M  V30 30 H 38.440856 27.421723 54.448816 0
M  V30 31 H 36.921972 28.266700 54.359510 0
M  V30 32 H 37.594480 31.461657 57.930739 0
M  V30 33 H 38.845160 28.059161 49.767776 0
M  V30 34 H 40.394823 27.337767 50.167739 0
M  V30 35 H 38.900811 26.528461 50.623371 0
M  V30 36 H 35.169628 32.748311 58.700718 0
M  V30 37 H 38.259456 30.435674 54.040983 0
M  V30 38 H 39.702210 29.528414 54.453962 0
M  V30 39 H 40.045199 27.749757 52.522415 0
M  V30 40 H 37.532898 27.247608 52.263102 0
M  V30 41 H 37.305461 28.938201 52.046990 0
M  V30 42 H 40.122311 29.133689 57.103957 0
M  V30 43 H 39.062163 27.845805 56.611121 0
M  V30 END ATOM
M  V30 BEGIN BOND
M  V30 1 1 5 2
M  V30 2 1 7 1
M  V30 3 1 8 7
M  V30 4 1 10 4
M  V30 5 1 10 5
M  V30 6 1 10 7
M  V30 7 1 12 8
M  V30 8 1 13 3
M  V30 9 1 13 9
M  V30 10 1 14 6
M  V30 11 1 14 11
M  V30 12 1 15 9
M  V30 13 1 15 14
M  V30 14 1 16 2
M  V30 15 1 16 3
M  V30 16 1 17 2
M  V30 17 1 18 2
M  V30 18 1 19 3
M  V30 19 1 20 3
M  V30 20 1 21 4
M  V30 21 1 22 5
M  V30 22 1 23 5
M  V30 23 1 24 6
M  V30 24 1 25 6
M  V30 25 1 26 6
M  V30 26 1 7 27 CFG=1
M  V30 27 1 28 8
M  V30 28 1 29 8
M  V30 29 1 30 9
M  V30 30 1 31 9
M  V30 31 1 10 32 CFG=3
M  V30 32 1 33 11
M  V30 33 1 34 11
M  V30 34 1 35 11
M  V30 35 1 36 12
M  V30 36 1 37 13
M  V30 37 1 38 13
M  V30 38 1 39 14
M  V30 39 1 40 15
M  V30 40 1 41 15
M  V30 41 1 42 16
M  V30 42 1 43 16
M  V30 END BOND
M  V30 END CTAB
M  END
>  <i_epik_Tot_Q>  (1) 
0

>  <i_epik_Tot_abs_Q>  (1) 
0

>  <i_i_glide_confnum>  (1) 
123

>  <i_i_glide_lignum>  (1) 
69

>  <i_i_glide_posenum>  (1) 
28

>  <i_i_glide_rotatable_bonds>  (1) 
12

>  <i_lp_mmshare_version>  (1) 
72125

>  <i_m_source_file_index>  (1) 
28

>  <i_f3d_flags>  (1) 
0

>  <num_sample>  (1) 
100

>  <b_lp_Chiralities_Consistent>  (1) 
1

>  <r_epik_Charging_Adjusted_Penalty>  (1) 
0

>  <r_epik_Ionization_Penalty>  (1) 
1.1488326125260632e-06

>  <r_epik_Ionization_Penalty_Charging>  (1) 
0

>  <r_epik_Ionization_Penalty_Neutral>  (1) 
1.1488326125260632e-06

>  <r_epik_State_Penalty>  (1) 
-0

>  <r_glide_ring_energy>  (1) 
0

>  <r_i_docking_score>  (1) 
-1.5916013094490069

>  <r_i_glide_ecoul>  (1) 
-8.3687478539683173

>  <r_i_glide_eff_state_penalty>  (1) 
-0

>  <r_i_glide_einternal>  (1) 
7.5256008466379454

>  <r_i_glide_emodel>  (1) 
-30.622137202340035

>  <r_i_glide_emodel_strain>  (1) 
0.67472602656998504

>  <r_i_glide_energy>  (1) 
-32.008495093125134

>  <r_i_glide_erotb>  (1) 
5.0120571657308659

>  <r_i_glide_esite>  (1) 
0

>  <r_i_glide_evdw>  (1) 
-23.639747239156815

>  <r_i_glide_gscore>  (1) 
-1.5916013094490069

>  <r_i_glide_gscore_strain>  (1) 
0

>  <r_i_glide_hbond>  (1) 
-0.30399999999999999

>  <r_i_glide_ligand_efficiency>  (1) 
-0.099475081840562932

>  <r_i_glide_ligand_efficiency_ln>  (1) 
-0.42188572002730135

>  <r_i_glide_ligand_efficiency_sa>  (1) 
-0.25066149910188096

>  <r_i_glide_lipo>  (1) 
-2.0561701227206783

>  <r_i_glide_metal>  (1) 
-0

>  <r_i_glide_rewards>  (1) 
-1.8061888124061061

>  <r_lp_Energy>  (1) 
8.3153009999999998

>  <r_lp_tautomer_probability>  (1) 
1

>  <s_epik_cmdline>  (1) 
J2VwaWtfcHl0aG9uJywgJy1waHQnLCAnMS4wJywgJy1waCcsICc3LjQnLCAnLXRuJywgJzgnLCAnLW1hJywgJzUwMCcsICctaW1hZScsICc8aW5maWxlLm1hZT4nLCAnLW9tYWUnLCAnPG91dGZpbGUubWFlPic=

>  <s_epik_input>  (1) 
W09IXVtDSDJdW0NASF0oQ2wpW0NASF0oW09IXSlbQ0gyXVtDSDJdW0NIMl1bQ0gyXVtDSDJdW0NIMl1bQ0gyXVtDSF0oW0NIM10pW0NIM10=

>  <s_glide_docking_method>  (1) 
confgen

>  <s_i_glide_gridfile>  (1) 
gpcr_5ht2c_6bqh_protein_autoprepared_prepared

>  <s_lp_Force_Field>  (1) 
S-OPLS

>  <s_lp_Variant>  (1) 
DiffSBDD_27-2

>  <s_m_source_file>  (1) 
generated_GPCR_5HT2C_ligand_DiffSBDD_2026-06-23_prepared.sdf

>  <GenAI_Model>  (1) 
DiffSBDD

>  <Protein>  (1) 
GPCR_5HT2C

$$$$
DiffSBDD_93
     RDKit          3D

  0  0  0  0  0  0  0  0  0  0999 V3000
M  V30 BEGIN CTAB
M  V30 COUNTS 83 84 0 0 1
M  V30 BEGIN ATOM
M  V30 1 C 39.663314 29.456525 61.802378 0
M  V30 2 O 40.843425 28.731671 61.528449 0
M  V30 3 C 39.728769 36.457875 64.936654 0
M  V30 4 C 40.362279 30.564670 52.276994 0
M  V30 5 O 37.997933 29.277024 59.620439 0
M  V30 6 C 37.655167 28.695876 54.615092 0
M  V30 7 N 36.845846 29.734882 54.854923 0
M  V30 8 O 37.244346 27.629091 54.168437 0
M  V30 9 O 42.273899 33.117015 64.079938 0
M  V30 10 C 40.657047 29.172388 51.729675 0
M  V30 11 C 40.418099 35.309162 64.220597 0
M  V30 12 C 38.490888 31.424397 58.657815 0
M  V30 13 C 40.304901 31.757785 61.002096 0
M  V30 14 C 39.626915 30.407968 54.865010 0 CFG=2
M  V30 15 C 39.160946 28.899624 54.908258 0 CFG=1
M  V30 16 C 39.240961 36.357641 62.516154 0 CFG=1
M  V30 17 C 40.228789 34.118561 62.023775 0 CFG=1
M  V30 18 C 41.584541 34.582698 61.493064 0
M  V30 19 C 38.299218 30.809133 57.234910 0
M  V30 20 S 41.067747 31.967486 63.787887 0 CHG=1
M  V30 21 O 38.045078 33.538422 56.598056 0
M  V30 22 N 39.467282 30.534068 60.820100 0
M  V30 23 O 42.073898 30.749089 63.187157 0
M  V30 24 O 37.551862 36.937738 64.154903 0
M  V30 25 F 38.443171 35.850675 60.323796 0
M  V30 26 C 39.793839 30.097388 50.940806 0
M  V30 27 C 38.489621 32.717802 55.546168 0
M  V30 28 C 39.130538 31.395319 56.041357 0 CFG=2
M  V30 29 C 38.634732 30.320462 59.745602 0
M  V30 30 C 39.803560 27.949199 55.982288 0
M  V30 31 C 37.609791 37.827853 61.100396 0
M  V30 32 C 40.101266 32.583486 62.321712 0 CFG=2
M  V30 33 O 40.207774 26.139348 54.473094 0
M  V30 34 C 39.384127 30.927553 53.390846 0
M  V30 35 C 38.080357 36.411591 61.470788 0 CFG=2
M  V30 36 C 39.797860 26.450539 55.613892 0
M  V30 37 C 38.919302 37.106778 63.823767 0 CFG=1
M  V30 38 O 39.393227 25.651559 56.488506 0 CHG=-1
M  V30 39 N 39.645422 35.039389 62.997111 0
M  V30 40 H 39.664145 29.833333 62.819488 0
M  V30 41 H 38.846135 28.737809 61.808393 0
M  V30 42 H 40.614546 27.883801 61.173849 0
M  V30 43 H 39.096467 36.137291 65.764007 0
M  V30 44 H 40.445027 37.132495 65.388438 0
M  V30 45 H 41.120581 31.337470 52.145143 0
M  V30 46 H 37.224533 30.594455 55.225382 0
M  V30 47 H 35.856943 29.652857 54.683463 0
M  V30 48 H 42.837875 33.107359 63.321851 0
M  V30 49 H 41.660192 28.988507 51.367800 0
M  V30 50 H 40.143843 28.278869 52.069422 0
M  V30 51 H 40.445439 34.448094 64.883327 0
M  V30 52 H 41.441318 35.615204 64.016328 0
M  V30 53 H 37.585550 31.976005 58.914323 0
M  V30 54 H 39.245069 32.183829 58.563027 0
M  V30 55 H 40.201876 32.471924 60.204488 0
M  V30 56 H 41.346747 31.460724 60.904882 0
M  V30 57 H 40.712662 30.386204 54.968693 0
M  V30 58 H 39.593704 28.493042 54.010169 0
M  V30 59 H 40.113193 36.841882 62.074147 0
M  V30 60 H 39.578691 34.192985 61.160498 0
M  V30 61 H 42.267708 33.738125 61.367583 0
M  V30 62 H 41.446371 35.134138 60.567770 0
M  V30 63 H 42.044842 35.320053 62.136670 0
M  V30 64 H 38.446861 29.747898 57.290532 0
M  V30 65 H 37.245217 30.906167 57.012429 0
M  V30 66 H 37.160162 33.260494 56.812937 0
M  V30 67 H 41.788254 29.938323 63.585511 0
M  V30 68 H 37.388432 36.012643 64.261478 0
M  V30 69 H 38.768968 29.737731 50.874744 0
M  V30 70 H 40.211026 30.504014 50.019869 0
M  V30 71 H 39.223734 33.305727 55.000673 0
M  V30 72 H 37.640724 32.535165 54.886503 0
M  V30 73 H 40.044783 31.719726 56.515322 0
M  V30 74 H 40.843709 28.232439 56.144970 0
M  V30 75 H 39.330415 28.002994 56.956793 0
M  V30 76 H 37.120772 38.327314 61.935560 0
M  V30 77 H 38.440170 38.453267 60.773691 0
M  V30 78 H 36.887100 37.785721 60.284856 0
M  V30 79 H 39.060350 32.433840 62.610247 0
M  V30 80 H 38.436922 30.563129 53.042351 0
M  V30 81 H 39.283834 32.001688 53.324426 0
M  V30 82 H 37.228117 35.826725 61.820856 0
M  V30 83 H 39.244552 38.137733 63.738931 0
M  V30 END ATOM
M  V30 BEGIN BOND
M  V30 1 1 2 1
M  V30 2 1 7 6
M  V30 3 2 8 6
M  V30 4 1 10 4
M  V30 5 1 11 3
M  V30 6 1 15 6
M  V30 7 1 15 14
M  V30 8 1 18 17
M  V30 9 1 19 12
M  V30 10 1 20 9
M  V30 11 1 22 1
M  V30 12 1 22 13
M  V30 13 1 23 20
M  V30 14 1 26 4
M  V30 15 1 26 10
M  V30 16 1 27 21
M  V30 17 1 28 14
M  V30 18 1 28 19
M  V30 19 1 28 27
M  V30 20 2 29 5
M  V30 21 1 29 12
M  V30 22 1 29 22
M  V30 23 1 30 15
M  V30 24 1 32 13
M  V30 25 1 32 17
M  V30 26 1 32 20
M  V30 27 1 34 4
M  V30 28 1 34 14
M  V30 29 1 35 16
M  V30 30 1 35 25
M  V30 31 1 35 31
M  V30 32 1 36 30
M  V30 33 2 36 33
M  V30 34 1 37 3
M  V30 35 1 37 16
M  V30 36 1 37 24
M  V30 37 1 38 36
M  V30 38 1 39 11
M  V30 39 1 39 16
M  V30 40 1 39 17
M  V30 41 1 40 1
M  V30 42 1 41 1
M  V30 43 1 42 2
M  V30 44 1 43 3
M  V30 45 1 44 3
M  V30 46 1 45 4
M  V30 47 1 46 7
M  V30 48 1 47 7
M  V30 49 1 48 9
M  V30 50 1 49 10
M  V30 51 1 50 10
M  V30 52 1 51 11
M  V30 53 1 52 11
M  V30 54 1 53 12
M  V30 55 1 54 12
M  V30 56 1 55 13
M  V30 57 1 56 13
M  V30 58 1 14 57 CFG=1
M  V30 59 1 15 58 CFG=3
M  V30 60 1 16 59 CFG=3
M  V30 61 1 17 60 CFG=3
M  V30 62 1 61 18
M  V30 63 1 62 18
M  V30 64 1 63 18
M  V30 65 1 64 19
M  V30 66 1 65 19
M  V30 67 1 66 21
M  V30 68 1 67 23
M  V30 69 1 68 24
M  V30 70 1 69 26
M  V30 71 1 70 26
M  V30 72 1 71 27
M  V30 73 1 72 27
M  V30 74 1 28 73 CFG=1
M  V30 75 1 74 30
M  V30 76 1 75 30
M  V30 77 1 76 31
M  V30 78 1 77 31
M  V30 79 1 78 31
M  V30 80 1 32 79 CFG=1
M  V30 81 1 80 34
M  V30 82 1 81 34
M  V30 83 1 35 82 CFG=1
M  V30 84 1 37 83 CFG=3
M  V30 END BOND
M  V30 END CTAB
M  END
>  <i_epik_Tot_Q>  (1) 
0

>  <i_epik_Tot_abs_Q>  (1) 
2

>  <i_i_glide_confnum>  (1) 
6275

>  <i_i_glide_lignum>  (1) 
216

>  <i_i_glide_posenum>  (1) 
20

>  <i_i_glide_rotatable_bonds>  (1) 
24

>  <i_lp_mmshare_version>  (1) 
72125

>  <i_m_source_file_index>  (1) 
94

>  <i_f3d_flags>  (1) 
0

>  <num_sample>  (1) 
100

>  <b_lp_Chiralities_Consistent>  (1) 
1

>  <r_epik_Charging_Adjusted_Penalty>  (1) 
0.37121505818338452

>  <r_epik_Ionization_Penalty>  (1) 
0.37121789513022985

>  <r_epik_Ionization_Penalty_Charging>  (1) 
0.00098257200063165957

>  <r_epik_Ionization_Penalty_Neutral>  (1) 
0.37023532312959817

>  <r_epik_State_Penalty>  (1) 
0.37023248618275284

>  <r_glide_ring_energy>  (1) 
0

>  <r_i_docking_score>  (1) 
-1.5624574396762889

>  <r_i_glide_ecoul>  (1) 
-4.8406721640640216

>  <r_i_glide_eff_state_penalty>  (1) 
0.37023248618275284

>  <r_i_glide_einternal>  (1) 
27.59884372000581

>  <r_i_glide_emodel>  (1) 
-8.0289835932713167

>  <r_i_glide_emodel_strain>  (1) 
23.518500934315639

>  <r_i_glide_energy>  (1) 
-38.076503002252345

>  <r_i_glide_erotb>  (1) 
0.82577533054746977

>  <r_i_glide_esite>  (1) 
-0.047578258594720091

>  <r_i_glide_evdw>  (1) 
-33.235830838188321

>  <r_i_glide_gscore>  (1) 
-1.9326899258590418

>  <r_i_glide_gscore_strain>  (1) 
4.8796252335789099

>  <r_i_glide_hbond>  (1) 
-0.29587829597213477

>  <r_i_glide_ligand_efficiency>  (1) 
-0.040063011273750997

>  <r_i_glide_ligand_efficiency_ln>  (1) 
-0.33503522805857916

>  <r_i_glide_ligand_efficiency_sa>  (1) 
-0.13586214227314997

>  <r_i_glide_lipo>  (1) 
-2.9122454864115355

>  <r_i_glide_metal>  (1) 
-0

>  <r_i_glide_rewards>  (1) 
-1.9944960824880116

>  <r_lp_Energy>  (1) 
12.407411999999999

>  <s_epik_Chemistry_Notes>  (1) 
This compound contains an acetal/aminal-like group ( X-CH(R)-Y where X, Y are N, S, or O) that may be acid/base labile, releasing an aldehyde.

>  <s_epik_cmdline>  (1) 
J2VwaWtfcHl0aG9uJywgJy1waHQnLCAnMS4wJywgJy1waCcsICc3LjQnLCAnLXRuJywgJzgnLCAnLW1hJywgJzUwMCcsICctaW1hZScsICc8aW5maWxlLm1hZT4nLCAnLW9tYWUnLCAnPG91dGZpbGUubWFlPic=

>  <s_epik_input>  (1) 
W0NIMl0xW0NIMl1bQ0hdMVtDSDJdW0NAQEhdKFtDQEBIXShDKD1PKVtOSDJdKVtDSDJdQyg9TylbT0hdKVtDQEBIXShbQ0gyXVtPSF0pW0NIMl1bQ0gyXUMoPU8pTihbQ0gyXVtPSF0pW0NIMl1bQ0BASF0oW1MrXShbT0hdKVtPSF0pW0NASF0oW0NIM10pTjJbQ0gyXVtDSDJdW0NASF0oW09IXSlbQ0BASF0yW0NASF0oRilbQ0gzXQ==

>  <s_glide_docking_method>  (1) 
confgen

>  <s_i_glide_gridfile>  (1) 
gpcr_5ht2c_6bqh_protein_autoprepared_prepared

>  <s_lp_Force_Field>  (1) 
S-OPLS

>  <s_lp_Variant>  (1) 
DiffSBDD_93-4

>  <s_m_source_file>  (1) 
generated_GPCR_5HT2C_ligand_DiffSBDD_2026-06-23_prepared.sdf

>  <GenAI_Model>  (1) 
DiffSBDD

>  <Protein>  (1) 
GPCR_5HT2C

$$$$
DiffSBDD_16
     RDKit          3D

  0  0  0  0  0  0  0  0  0  0999 V3000
M  V30 BEGIN CTAB
M  V30 COUNTS 70 74 0 0 1
M  V30 BEGIN ATOM
M  V30 1 C 49.313640 45.575987 53.125630 0
M  V30 2 C 53.544541 37.737769 52.931665 0
M  V30 3 C 49.799740 42.431105 50.285008 0 CFG=1
M  V30 4 C 50.102697 41.032765 49.731206 0
M  V30 5 C 47.814166 44.837384 54.924753 0
M  V30 6 C 48.842217 45.025881 55.864410 0
M  V30 7 C 48.651793 45.495569 47.983006 0
M  V30 8 C 47.163061 45.887325 48.014379 0
M  V30 9 C 48.378369 42.909890 49.896190 0
M  V30 10 C 50.095020 45.504240 55.447276 0
M  V30 11 O 50.389577 46.667955 49.114537 0
M  V30 12 C 52.495104 39.868086 52.410390 0
M  V30 13 C 51.835114 40.752127 51.600383 0
M  V30 14 C 51.374196 42.099895 52.140078 0
M  V30 15 C 53.043660 38.546246 52.028734 0
M  V30 16 C 48.043288 45.111277 53.561984 0
M  V30 17 N 54.045136 36.548650 52.461584 0
M  V30 18 C 54.845129 36.548374 48.967765 0
M  V30 19 N 49.982639 42.389893 51.751242 0 CHG=1
M  V30 20 C 54.445129 37.962689 48.688842 0
M  V30 21 C 46.454632 44.349830 55.379500 0
M  V30 22 C 46.245072 44.877646 48.716399 0
M  V30 23 C 45.431817 43.808345 50.864190 0
M  V30 24 C 46.497853 44.723152 50.226811 0 CFG=1
M  V30 25 C 49.609657 45.887976 51.687926 0
M  V30 26 C 47.929382 44.244549 50.566524 0 CFG=2
M  V30 27 C 49.433739 45.902686 49.238566 0
M  V30 28 C 53.110358 38.000448 50.651143 0 CFG=2
M  V30 29 C 48.996145 45.372328 50.573298 0
M  V30 30 C 53.948854 36.788434 51.195031 0
M  V30 31 N 53.810624 38.688322 49.545245 0
M  V30 32 C 50.328227 45.785365 54.087266 0
M  V30 33 C 51.500505 40.508020 50.120316 0
M  V30 34 C 54.629146 36.002471 50.179621 0
M  V30 35 H 53.597213 37.943793 53.991490 0
M  V30 36 H 50.525128 43.132611 49.869446 0
M  V30 37 H 50.005424 41.031093 48.644641 0
M  V30 38 H 49.349979 40.332798 50.099146 0
M  V30 39 H 48.665630 44.814789 56.909519 0
M  V30 40 H 49.104215 46.064513 47.169808 0
M  V30 41 H 48.820447 44.463919 47.695692 0
M  V30 42 H 47.041280 46.873082 48.466510 0
M  V30 43 H 46.820719 45.997815 46.984918 0
M  V30 44 H 48.301505 42.934332 48.815346 0
M  V30 45 H 47.661628 42.137801 50.167759 0
M  V30 46 H 50.881115 45.658953 56.171987 0
M  V30 47 H 52.644051 40.171553 53.436974 0
M  V30 48 H 51.452308 42.130441 53.227582 0
M  V30 49 H 52.029893 42.881162 51.752758 0
M  V30 50 H 47.233839 45.000357 52.870573 0
M  V30 51 H 55.346727 36.018074 48.175899 0
M  V30 52 H 49.725524 43.287972 52.137877 0
M  V30 53 H 54.740690 38.348880 47.709932 0
M  V30 54 H 45.733973 44.346056 54.561151 0
M  V30 55 H 46.530487 43.336500 55.767770 0
M  V30 56 H 46.066455 44.992903 56.169432 0
M  V30 57 H 45.217524 45.210382 48.570695 0
M  V30 58 H 46.307112 43.911039 48.215834 0
M  V30 59 H 45.378340 42.838138 50.369393 0
M  V30 60 H 45.625210 43.628369 51.921455 0
M  V30 61 H 44.445136 44.264404 50.808126 0
M  V30 62 H 46.366186 45.704476 50.686080 0
M  V30 63 H 50.390181 46.621434 51.538447 0
M  V30 64 H 47.887220 43.814422 51.546842 0
M  V30 65 H 52.143539 37.601436 50.339697 0
M  V30 66 H 51.295131 46.153796 53.776188 0
M  V30 67 H 52.261131 40.991567 49.506316 0
M  V30 68 H 51.430469 39.474699 49.829296 0
M  V30 69 H 54.954109 35.007902 50.447794 0
M  V30 70 H 49.377149 41.680356 52.137653 0
M  V30 END ATOM
M  V30 BEGIN BOND
M  V30 1 1 4 3
M  V30 2 1 6 5
M  V30 3 1 8 7
M  V30 4 1 9 3
M  V30 5 2 10 6
M  V30 6 2 13 12
M  V30 7 1 14 13
M  V30 8 2 15 2
M  V30 9 1 15 12
M  V30 10 1 16 1
M  V30 11 2 16 5
M  V30 12 1 17 2
M  V30 13 1 19 3
M  V30 14 1 19 14
M  V30 15 1 20 18
M  V30 16 1 21 5
M  V30 17 1 22 8
M  V30 18 1 24 22
M  V30 19 1 24 23
M  V30 20 1 25 1
M  V30 21 1 26 9
M  V30 22 1 26 24
M  V30 23 1 27 7
M  V30 24 2 27 11
M  V30 25 1 28 15
M  V30 26 2 29 25
M  V30 27 1 29 26
M  V30 28 1 29 27
M  V30 29 2 30 17
M  V30 30 1 30 28
M  V30 31 2 31 20
M  V30 32 1 31 28
M  V30 33 2 32 1
M  V30 34 1 32 10
M  V30 35 1 33 4
M  V30 36 1 33 13
M  V30 37 2 34 18
M  V30 38 1 34 30
M  V30 39 1 35 2
M  V30 40 1 3 36 CFG=3
M  V30 41 1 37 4
M  V30 42 1 38 4
M  V30 43 1 39 6
M  V30 44 1 40 7
M  V30 45 1 41 7
M  V30 46 1 42 8
M  V30 47 1 43 8
M  V30 48 1 44 9
M  V30 49 1 45 9
M  V30 50 1 46 10
M  V30 51 1 47 12
M  V30 52 1 48 14
M  V30 53 1 49 14
M  V30 54 1 50 16
M  V30 55 1 51 18
M  V30 56 1 52 19
M  V30 57 1 53 20
M  V30 58 1 54 21
M  V30 59 1 55 21
M  V30 60 1 56 21
M  V30 61 1 57 22
M  V30 62 1 58 22
M  V30 63 1 59 23
M  V30 64 1 60 23
M  V30 65 1 61 23
M  V30 66 1 24 62 CFG=1
M  V30 67 1 63 25
M  V30 68 1 26 64 CFG=1
M  V30 69 1 28 65 CFG=3
M  V30 70 1 66 32
M  V30 71 1 67 33
M  V30 72 1 68 33
M  V30 73 1 69 34
M  V30 74 1 70 19
M  V30 END BOND
M  V30 END CTAB
M  END
>  <i_epik_Tot_Q>  (1) 
1

>  <i_epik_Tot_abs_Q>  (1) 
1

>  <i_i_glide_confnum>  (1) 
15

>  <i_i_glide_lignum>  (1) 
36

>  <i_i_glide_posenum>  (1) 
203

>  <i_i_glide_rotatable_bonds>  (1) 
4

>  <i_lp_mmshare_version>  (1) 
72125

>  <i_m_source_file_index>  (1) 
17

>  <i_f3d_flags>  (1) 
0

>  <num_sample>  (1) 
100

>  <b_lp_Chiralities_Consistent>  (1) 
1

>  <r_epik_Charging_Adjusted_Penalty>  (1) 
0.57808156404405586

>  <r_epik_Ionization_Penalty>  (1) 
0.28904078202202793

>  <r_epik_Ionization_Penalty_Charging>  (1) 
0.28904078202202793

>  <r_epik_Ionization_Penalty_Neutral>  (1) 
0

>  <r_epik_State_Penalty>  (1) 
0.28904078202202793

>  <r_glide_ring_energy>  (1) 
0

>  <r_i_docking_score>  (1) 
-1.5620776604519979

>  <r_i_glide_ecoul>  (1) 
0.53477968801143372

>  <r_i_glide_eff_state_penalty>  (1) 
0.28904078202202793

>  <r_i_glide_einternal>  (1) 
0.37007675489089564

>  <r_i_glide_emodel>  (1) 
-17.459756735871057

>  <r_i_glide_emodel_strain>  (1) 
0.0073274027762124661

>  <r_i_glide_energy>  (1) 
-16.19186961221601

>  <r_i_glide_erotb>  (1) 
0.29147875755417113

>  <r_i_glide_esite>  (1) 
0

>  <r_i_glide_evdw>  (1) 
-16.726649300227443

>  <r_i_glide_gscore>  (1) 
-1.8511184424740259

>  <r_i_glide_gscore_strain>  (1) 
0

>  <r_i_glide_hbond>  (1) 
0

>  <r_i_glide_ligand_efficiency>  (1) 
-0.045943460601529353

>  <r_i_glide_ligand_efficiency_ln>  (1) 
-0.34510676998811601

>  <r_i_glide_ligand_efficiency_sa>  (1) 
-0.14883897715624161

>  <r_i_glide_lipo>  (1) 
-1.0772152336730842

>  <r_i_glide_metal>  (1) 
-0

>  <r_i_glide_rewards>  (1) 
-0.30926645454545576

>  <r_lp_Energy>  (1) 
58.700623999999998

>  <s_epik_Chemistry_Notes>  (1) 
This compound has an imine and may undergo hydrolysis.

>  <s_epik_cmdline>  (1) 
J2VwaWtfcHl0aG9uJywgJy1waHQnLCAnMS4wJywgJy1waCcsICc3LjQnLCAnLXRuJywgJzgnLCAnLW1hJywgJzUwMCcsICctaW1hZScsICc8aW5maWxlLm1hZT4nLCAnLW9tYWUnLCAnPG91dGZpbGUubWFlPic=

>  <s_epik_input>  (1) 
W2NIXTFbY0hdW2NIXWMoW0NIM10pW2NIXWMxL1tDSF09QyhDKD1PKVtDSDJdW0NIMl1bQ0gyXVtDQEhdMltDSDNdKVxbQ0BASF0yW0NIMl1bQ0BASF0zW0NIMl1bQ0gyXUMoL1tDSDJdW05IXTMpPVtDSF1cQzQ9W0NIXU49QyhbQ0BASF00NSlbQ0hdPVtDSF1bQ0hdPU41

>  <s_glide_docking_method>  (1) 
confgen

>  <s_i_glide_gridfile>  (1) 
gpcr_5ht2c_6bqh_protein_autoprepared_prepared

>  <s_lp_Force_Field>  (1) 
S-OPLS

>  <s_lp_Variant>  (1) 
DiffSBDD_16-4

>  <s_m_source_file>  (1) 
generated_GPCR_5HT2C_ligand_DiffSBDD_2026-06-23_prepared.sdf

>  <GenAI_Model>  (1) 
DiffSBDD

>  <Protein>  (1) 
GPCR_5HT2C

$$$$
DiffSBDD_51
     RDKit          3D

  0  0  0  0  0  0  0  0  0  0999 V3000
M  V30 BEGIN CTAB
M  V30 COUNTS 39 39 0 0 1
M  V30 BEGIN ATOM
M  V30 1 C 38.864568 28.399927 51.929979 0
M  V30 2 C 40.918063 27.917448 57.151616 0
M  V30 3 C 39.026192 26.925368 58.552002 0
M  V30 4 C 38.360696 25.659046 55.711069 0
M  V30 5 N 37.665272 25.841218 54.567767 0
M  V30 6 C 37.665973 27.089096 53.789077 0
M  V30 7 C 40.045426 31.074635 50.512558 0
M  V30 8 C 42.038645 27.890058 58.201384 0
M  V30 9 O 38.357164 24.600585 56.336277 0
M  V30 10 N 39.054711 26.747044 56.093894 0
M  V30 11 C 40.153346 28.507681 51.103728 0
M  V30 12 C 39.895010 26.773093 57.291035 0 CFG=1
M  V30 13 C 40.141322 29.630145 50.089871 0
M  V30 14 C 41.343124 30.537825 49.960558 0
M  V30 15 C 38.929166 27.228311 52.920017 0
M  V30 16 H 38.015625 28.264806 51.260129 0
M  V30 17 H 38.692066 29.329657 52.473062 0
M  V30 18 H 41.379972 27.860488 56.167790 0
M  V30 19 H 40.408238 28.881151 57.187382 0
M  V30 20 H 39.640495 26.937753 59.450181 0
M  V30 21 H 38.448063 27.849883 58.529599 0
M  V30 22 H 38.325794 26.096464 58.653594 0
M  V30 23 H 37.115925 25.072555 54.212396 0
M  V30 24 H 36.798384 27.054118 53.133158 0
M  V30 25 H 37.515078 27.966217 54.420993 0
M  V30 26 H 39.463944 31.740330 49.878271 0
M  V30 27 H 40.019226 31.302023 51.576560 0
M  V30 28 H 42.772167 28.672614 58.007775 0
M  V30 29 H 41.655626 28.046778 59.209502 0
M  V30 30 H 42.568929 26.937725 58.187994 0
M  V30 31 H 39.008187 27.582283 55.531406 0
M  V30 32 H 41.005383 28.641571 51.767759 0
M  V30 33 H 40.320647 27.577303 50.562722 0
M  V30 34 H 40.445114 25.831390 57.350412 0
M  V30 35 H 39.645137 29.373257 49.157427 0
M  V30 36 H 42.164369 30.412725 50.659568 0
M  V30 37 H 41.645151 30.854421 48.967781 0
M  V30 38 H 39.799332 27.337754 53.562547 0
M  V30 39 H 39.098951 26.314076 52.356433 0
M  V30 END ATOM
M  V30 BEGIN BOND
M  V30 1 1 5 4
M  V30 2 1 6 5
M  V30 3 1 8 2
M  V30 4 2 9 4
M  V30 5 1 10 4
M  V30 6 1 11 1
M  V30 7 1 12 2
M  V30 8 1 12 3
M  V30 9 1 12 10
M  V30 10 1 13 7
M  V30 11 1 13 11
M  V30 12 1 14 7
M  V30 13 1 14 13
M  V30 14 1 15 1
M  V30 15 1 15 6
M  V30 16 1 16 1
M  V30 17 1 17 1
M  V30 18 1 18 2
M  V30 19 1 19 2
M  V30 20 1 20 3
M  V30 21 1 21 3
M  V30 22 1 22 3
M  V30 23 1 23 5
M  V30 24 1 24 6
M  V30 25 1 25 6
M  V30 26 1 26 7
M  V30 27 1 27 7
M  V30 28 1 28 8
M  V30 29 1 29 8
M  V30 30 1 30 8
M  V30 31 1 31 10
M  V30 32 1 32 11
M  V30 33 1 33 11
M  V30 34 1 12 34 CFG=1
M  V30 35 1 35 13
M  V30 36 1 36 14
M  V30 37 1 37 14
M  V30 38 1 38 15
M  V30 39 1 39 15
M  V30 END BOND
M  V30 END CTAB
M  END
>  <i_epik_Tot_Q>  (1) 
0

>  <i_epik_Tot_abs_Q>  (1) 
0

>  <i_i_glide_confnum>  (1) 
51

>  <i_i_glide_lignum>  (1) 
107

>  <i_i_glide_posenum>  (1) 
84

>  <i_i_glide_rotatable_bonds>  (1) 
9

>  <i_lp_mmshare_version>  (1) 
72125

>  <i_m_source_file_index>  (1) 
52

>  <i_f3d_flags>  (1) 
0

>  <num_sample>  (1) 
100

>  <b_lp_Chiralities_Consistent>  (1) 
1

>  <r_epik_Charging_Adjusted_Penalty>  (1) 
0

>  <r_epik_Ionization_Penalty>  (1) 
2.8418814736596529e-05

>  <r_epik_Ionization_Penalty_Charging>  (1) 
0

>  <r_epik_Ionization_Penalty_Neutral>  (1) 
2.8418814736596529e-05

>  <r_epik_State_Penalty>  (1) 
-0

>  <r_glide_ring_energy>  (1) 
0

>  <r_i_docking_score>  (1) 
-1.5570458395338675

>  <r_i_glide_ecoul>  (1) 
-0.68164076210697599

>  <r_i_glide_eff_state_penalty>  (1) 
-0

>  <r_i_glide_einternal>  (1) 
14.204319779449724

>  <r_i_glide_emodel>  (1) 
-26.31327649479347

>  <r_i_glide_emodel_strain>  (1) 
0.29604683039939417

>  <r_i_glide_energy>  (1) 
-30.857787059755708

>  <r_i_glide_erotb>  (1) 
5.1718031322358726

>  <r_i_glide_esite>  (1) 
0

>  <r_i_glide_evdw>  (1) 
-30.176146297648732

>  <r_i_glide_gscore>  (1) 
-1.5570458395338675

>  <r_i_glide_gscore_strain>  (1) 
0

>  <r_i_glide_hbond>  (1) 
0

>  <r_i_glide_ligand_efficiency>  (1) 
-0.1038030559689245

>  <r_i_glide_ligand_efficiency_ln>  (1) 
-0.41990958997023259

>  <r_i_glide_ligand_efficiency_sa>  (1) 
-0.25600034998296323

>  <r_i_glide_lipo>  (1) 
-2.9234899744860083

>  <r_i_glide_metal>  (1) 
-0

>  <r_i_glide_rewards>  (1) 
-2.194305568085249

>  <r_lp_Energy>  (1) 
13.360514

>  <r_lp_tautomer_probability>  (1) 
1

>  <s_epik_cmdline>  (1) 
J2VwaWtfcHl0aG9uJywgJy1waHQnLCAnMS4wJywgJy1waCcsICc3LjQnLCAnLXRuJywgJzgnLCAnLW1hJywgJzUwMCcsICctaW1hZScsICc8aW5maWxlLm1hZT4nLCAnLW9tYWUnLCAnPG91dGZpbGUubWFlPic=

>  <s_epik_input>  (1) 
W0NIMl0xW0NIMl1bQ0hdMVtDSDJdW0NIMl1bQ0gyXVtDSDJdW05IXUMoPU8pW05IXVtDQEhdKFtDSDNdKVtDSDJdW0NIM10=

>  <s_glide_docking_method>  (1) 
confgen

>  <s_i_glide_gridfile>  (1) 
gpcr_5ht2c_6bqh_protein_autoprepared_prepared

>  <s_lp_Force_Field>  (1) 
S-OPLS

>  <s_lp_Variant>  (1) 
DiffSBDD_51-1

>  <s_m_source_file>  (1) 
generated_GPCR_5HT2C_ligand_DiffSBDD_2026-06-23_prepared.sdf

>  <GenAI_Model>  (1) 
DiffSBDD

>  <Protein>  (1) 
GPCR_5HT2C

$$$$
DiffSBDD_93
     RDKit          3D

  0  0  0  0  0  0  0  0  0  0999 V3000
M  V30 BEGIN CTAB
M  V30 COUNTS 84 85 0 0 1
M  V30 BEGIN ATOM
M  V30 1 C 37.789255 30.840224 61.205605 0
M  V30 2 O 37.246688 31.734712 62.167540 0
M  V30 3 C 39.822536 36.129257 64.195118 0
M  V30 4 C 40.142809 29.428057 52.227876 0
M  V30 5 O 37.696032 29.980240 58.557887 0
M  V30 6 C 37.999656 27.396126 55.985050 0
M  V30 7 N 37.607344 26.963826 57.186835 0
M  V30 8 O 37.312805 27.267207 54.970302 0
M  V30 9 O 35.708034 32.852144 59.766966 0
M  V30 10 C 39.524930 29.773477 50.904550 0
M  V30 11 C 39.633673 35.125766 63.059168 0
M  V30 12 C 38.712930 31.954030 57.602463 0
M  V30 13 C 38.966336 32.846296 60.366606 0
M  V30 14 C 39.538145 29.195478 54.843215 0 CFG=2
M  V30 15 C 39.359162 28.042260 55.910064 0 CFG=2
M  V30 16 C 38.823704 37.240874 62.310692 0 CFG=1
M  V30 17 C 38.966825 35.402953 60.608689 0 CFG=1
M  V30 18 C 40.446960 35.283918 60.338849 0
M  V30 19 C 39.547170 31.175367 56.551091 0
M  V30 20 S 36.396254 34.226016 60.467126 0 CHG=1
M  V30 21 O 36.845144 29.911858 54.308257 0
M  V30 22 N 38.311756 31.576664 60.055747 0
M  V30 23 O 35.839015 35.382077 59.367793 0
M  V30 24 O 37.596824 36.937418 64.347682 0
M  V30 25 F 36.940779 37.439873 60.835292 0
M  V30 26 C 40.037896 30.866187 51.812865 0
M  V30 27 C 37.343942 30.573804 55.404736 0
M  V30 28 C 38.873547 30.556798 55.296401 0 CFG=2
M  V30 29 C 38.195591 31.080215 58.785659 0
M  V30 30 C 40.374281 26.886601 55.874703 0
M  V30 31 C 38.207826 39.395208 60.969397 0
M  V30 32 C 38.189750 34.157673 60.065309 0 CFG=2
M  V30 33 O 39.245216 24.875323 55.271335 0
M  V30 34 C 39.291360 28.778366 53.318838 0
M  V30 35 C 37.688252 38.127602 61.689746 0 CFG=2
M  V30 36 C 40.048502 25.747591 54.883247 0
M  V30 37 C 38.876483 37.246954 63.842887 0 CFG=1
M  V30 38 O 40.615639 25.778654 53.768504 0 CHG=-1
M  V30 39 N 38.749840 35.782260 62.033886 0 CFG=1 CHG=1
M  V30 40 H 36.985642 30.166365 60.906643 0
M  V30 41 H 38.582876 30.238374 61.648730 0
M  V30 42 H 37.692288 31.575811 62.991782 0
M  V30 43 H 39.672140 35.737377 65.198784 0
M  V30 44 H 40.846128 36.506057 64.172145 0
M  V30 45 H 41.100142 28.950702 52.071868 0
M  V30 46 H 38.204445 27.089588 57.987307 0
M  V30 47 H 36.712602 26.507211 57.285145 0
M  V30 48 H 35.292830 32.376501 60.470163 0
M  V30 49 H 40.100292 29.573441 50.002426 0
M  V30 50 H 38.458563 29.591455 50.826363 0
M  V30 51 H 39.241737 34.166366 63.367201 0
M  V30 52 H 40.647344 34.878592 62.783612 0
M  V30 53 H 37.864016 32.465871 57.154132 0
M  V30 54 H 39.358419 32.766252 57.908588 0
M  V30 55 H 39.943252 32.824926 59.891993 0
M  V30 56 H 39.248726 32.853342 61.419583 0
M  V30 57 H 40.597377 29.430357 54.938906 0
M  V30 58 H 39.498567 28.479127 56.891154 0
M  V30 59 H 39.790213 37.583150 61.937815 0
M  V30 60 H 38.630337 36.215408 59.969260 0
M  V30 61 H 40.513563 34.937844 59.323823 0
M  V30 62 H 41.002707 36.199787 60.553815 0
M  V30 63 H 40.938319 34.493337 60.897233 0
M  V30 64 H 40.308530 31.853247 56.166047 0
M  V30 65 H 40.078234 30.410093 57.101451 0
M  V30 66 H 37.051415 28.986388 54.407383 0
M  V30 67 H 35.863168 34.982886 58.508734 0
M  V30 68 H 37.626782 36.969773 65.294964 0
M  V30 69 H 39.308153 31.498320 52.310006 0
M  V30 70 H 40.965021 31.343096 51.522525 0
M  V30 71 H 36.955799 30.074963 56.286460 0
M  V30 72 H 36.955307 31.590054 55.366565 0
M  V30 73 H 39.098852 31.259420 54.495789 0
M  V30 74 H 41.337667 27.337237 55.767680 0
M  V30 75 H 40.418533 26.418507 56.860265 0
M  V30 76 H 38.118786 40.287167 61.589103 0
M  V30 77 H 39.243888 39.320366 60.653204 0
M  V30 78 H 37.642998 39.612304 60.068849 0
M  V30 79 H 38.182033 34.244610 58.980415 0
M  V30 80 H 39.493484 27.727756 53.195631 0
M  V30 81 H 38.269025 28.789014 52.967158 0
M  V30 82 H 36.932188 38.413322 62.424933 0
M  V30 83 H 39.271958 38.137826 64.284279 0
M  V30 84 H 37.798518 35.578245 62.299529 0
M  V30 END ATOM
M  V30 BEGIN BOND
M  V30 1 1 2 1
M  V30 2 1 7 6
M  V30 3 2 8 6
M  V30 4 1 10 4
M  V30 5 1 11 3
M  V30 6 1 15 6
M  V30 7 1 15 14
M  V30 8 1 18 17
M  V30 9 1 19 12
M  V30 10 1 20 9
M  V30 11 1 22 1
M  V30 12 1 22 13
M  V30 13 1 23 20
M  V30 14 1 26 4
M  V30 15 1 26 10
M  V30 16 1 27 21
M  V30 17 1 28 14
M  V30 18 1 28 19
M  V30 19 1 28 27
M  V30 20 2 29 5
M  V30 21 1 29 12
M  V30 22 1 29 22
M  V30 23 1 30 15
M  V30 24 1 32 13
M  V30 25 1 32 17
M  V30 26 1 32 20
M  V30 27 1 34 4
M  V30 28 1 34 14
M  V30 29 1 35 16
M  V30 30 1 35 25
M  V30 31 1 35 31
M  V30 32 1 36 30
M  V30 33 2 36 33
M  V30 34 1 37 3
M  V30 35 1 37 16
M  V30 36 1 37 24
M  V30 37 1 38 36
M  V30 38 1 39 11
M  V30 39 1 39 16
M  V30 40 1 39 17
M  V30 41 1 40 1
M  V30 42 1 41 1
M  V30 43 1 42 2
M  V30 44 1 43 3
M  V30 45 1 44 3
M  V30 46 1 45 4
M  V30 47 1 46 7
M  V30 48 1 47 7
M  V30 49 1 48 9
M  V30 50 1 49 10
M  V30 51 1 50 10
M  V30 52 1 51 11
M  V30 53 1 52 11
M  V30 54 1 53 12
M  V30 55 1 54 12
M  V30 56 1 55 13
M  V30 57 1 56 13
M  V30 58 1 14 57 CFG=3
M  V30 59 1 15 58 CFG=1
M  V30 60 1 16 59 CFG=3
M  V30 61 1 17 60 CFG=3
M  V30 62 1 61 18
M  V30 63 1 62 18
M  V30 64 1 63 18
M  V30 65 1 64 19
M  V30 66 1 65 19
M  V30 67 1 66 21
M  V30 68 1 67 23
M  V30 69 1 68 24
M  V30 70 1 69 26
M  V30 71 1 70 26
M  V30 72 1 71 27
M  V30 73 1 72 27
M  V30 74 1 28 73 CFG=3
M  V30 75 1 74 30
M  V30 76 1 75 30
M  V30 77 1 76 31
M  V30 78 1 77 31
M  V30 79 1 78 31
M  V30 80 1 32 79 CFG=3
M  V30 81 1 80 34
M  V30 82 1 81 34
M  V30 83 1 35 82 CFG=1
M  V30 84 1 37 83 CFG=1
M  V30 85 1 39 84 CFG=1
M  V30 END BOND
M  V30 END CTAB
M  END
>  <i_epik_Tot_Q>  (1) 
1

>  <i_epik_Tot_abs_Q>  (1) 
3

>  <i_i_glide_confnum>  (1) 
8233

>  <i_i_glide_lignum>  (1) 
220

>  <i_i_glide_posenum>  (1) 
50

>  <i_i_glide_rotatable_bonds>  (1) 
24

>  <i_lp_mmshare_version>  (1) 
72125

>  <i_m_source_file_index>  (1) 
94

>  <i_f3d_flags>  (1) 
0

>  <num_sample>  (1) 
100

>  <b_lp_Chiralities_Consistent>  (1) 
1

>  <r_epik_Charging_Adjusted_Penalty>  (1) 
0.90916677635763199

>  <r_epik_Ionization_Penalty>  (1) 
0.45507897092921873

>  <r_epik_Ionization_Penalty_Charging>  (1) 
0.45507471778648678

>  <r_epik_Ionization_Penalty_Neutral>  (1) 
4.2531427319391784e-06

>  <r_epik_State_Penalty>  (1) 
0.45409205857114521

>  <r_glide_ring_energy>  (1) 
0

>  <r_i_docking_score>  (1) 
-1.5380988995106499

>  <r_i_glide_ecoul>  (1) 
-4.1233719989306028

>  <r_i_glide_eff_state_penalty>  (1) 
0.45409205857114521

>  <r_i_glide_einternal>  (1) 
23.821481766989745

>  <r_i_glide_emodel>  (1) 
5.4554025993030439

>  <r_i_glide_emodel_strain>  (1) 
16.435790810562438

>  <r_i_glide_energy>  (1) 
-14.410954813861828

>  <r_i_glide_erotb>  (1) 
0.82188833391367333

>  <r_i_glide_esite>  (1) 
-0.058645415938821846

>  <r_i_glide_evdw>  (1) 
-10.287582814931225

>  <r_i_glide_gscore>  (1) 
-1.9921909580817951

>  <r_i_glide_gscore_strain>  (1) 
3.1089477026406094

>  <r_i_glide_hbond>  (1) 
-0.41551189364463936

>  <r_i_glide_ligand_efficiency>  (1) 
-0.039438433320785893

>  <r_i_glide_ligand_efficiency_ln>  (1) 
-0.32981206558878434

>  <r_i_glide_ligand_efficiency_sa>  (1) 
-0.13374406637200034

>  <r_i_glide_lipo>  (1) 
-2.5813383176367162

>  <r_i_glide_metal>  (1) 
-0

>  <r_i_glide_rewards>  (1) 
-1.7346464268297481

>  <r_lp_Energy>  (1) 
27.354928999999998

>  <s_epik_Chemistry_Notes>  (1) 
This compound contains an acetal/aminal-like group ( X-CH(R)-Y where X, Y are N, S, or O) that may be acid/base labile, releasing an aldehyde.

>  <s_epik_cmdline>  (1) 
J2VwaWtfcHl0aG9uJywgJy1waHQnLCAnMS4wJywgJy1waCcsICc3LjQnLCAnLXRuJywgJzgnLCAnLW1hJywgJzUwMCcsICctaW1hZScsICc8aW5maWxlLm1hZT4nLCAnLW9tYWUnLCAnPG91dGZpbGUubWFlPic=

>  <s_epik_input>  (1) 
W0NIMl0xW0NIMl1bQ0hdMVtDSDJdW0NAQEhdKFtDQEBIXShDKD1PKVtOSDJdKVtDSDJdQyg9TylbT0hdKVtDQEBIXShbQ0gyXVtPSF0pW0NIMl1bQ0gyXUMoPU8pTihbQ0gyXVtPSF0pW0NIMl1bQ0BASF0oW1MrXShbT0hdKVtPSF0pW0NASF0oW0NIM10pTjJbQ0gyXVtDSDJdW0NASF0oW09IXSlbQ0BASF0yW0NASF0oRilbQ0gzXQ==

>  <s_glide_docking_method>  (1) 
confgen

>  <s_i_glide_gridfile>  (1) 
gpcr_5ht2c_6bqh_protein_autoprepared_prepared

>  <s_lp_Force_Field>  (1) 
S-OPLS

>  <s_lp_Variant>  (1) 
DiffSBDD_93-8

>  <s_m_source_file>  (1) 
generated_GPCR_5HT2C_ligand_DiffSBDD_2026-06-23_prepared.sdf

>  <GenAI_Model>  (1) 
DiffSBDD

>  <Protein>  (1) 
GPCR_5HT2C

$$$$
DiffSBDD_55
     RDKit          3D

  0  0  0  0  0  0  0  0  0  0999 V3000
M  V30 BEGIN CTAB
M  V30 COUNTS 39 38 0 0 1
M  V30 BEGIN ATOM
M  V30 1 C 37.715309 29.121380 54.376353 0
M  V30 2 C 37.862337 30.523903 56.515419 0
M  V30 3 C 39.568224 28.429942 50.360907 0
M  V30 4 C 38.538686 29.460240 55.639133 0
M  V30 5 C 39.235998 27.201509 53.606388 0
M  V30 6 C 38.523725 28.510689 53.217511 0 CFG=2
M  V30 7 C 39.935097 29.519498 51.351903 0
M  V30 8 C 39.471591 29.543770 52.617134 0
M  V30 9 C 38.835718 31.180320 57.506511 0
M  V30 10 C 38.194369 32.301817 58.340542 0
M  V30 11 N 35.931627 32.329773 59.367875 0 CHG=1
M  V30 12 C 40.867890 30.587270 50.826208 0
M  V30 13 C 37.290197 31.778383 59.472675 0
M  V30 14 H 37.238864 30.029954 54.007950 0
M  V30 15 H 36.899359 28.446552 54.629189 0
M  V30 16 H 37.462402 31.308465 55.873468 0
M  V30 17 H 37.010485 30.085558 57.035731 0
M  V30 18 H 40.443909 27.813115 50.166929 0
M  V30 19 H 38.768333 27.763748 50.675120 0
M  V30 20 H 39.253282 28.890834 49.425740 0
M  V30 21 H 38.720959 28.554543 56.219380 0
M  V30 22 H 39.523879 29.825428 55.355333 0
M  V30 23 H 39.798098 26.786063 52.768635 0
M  V30 24 H 39.926816 27.338530 54.438441 0
M  V30 25 H 38.506575 26.447217 53.906044 0
M  V30 26 H 37.778696 28.271064 52.460458 0
M  V30 27 H 39.779013 30.347343 53.270572 0
M  V30 28 H 39.276109 30.427601 58.159542 0
M  V30 29 H 39.647692 31.619583 56.928808 0
M  V30 30 H 38.988291 32.911531 58.778098 0
M  V30 31 H 37.651158 32.974347 57.671528 0
M  V30 32 H 35.294215 31.875268 60.002853 0
M  V30 33 H 35.925961 33.326756 59.519074 0
M  V30 34 H 41.810504 30.150481 50.496818 0
M  V30 35 H 40.414380 31.104674 49.981360 0
M  V30 36 H 41.082235 31.336469 51.588116 0
M  V30 37 H 37.208937 30.692636 59.439684 0
M  V30 38 H 37.713281 32.030860 60.443809 0
M  V30 39 H 35.633487 32.137672 58.394341 0
M  V30 END ATOM
M  V30 BEGIN BOND
M  V30 1 1 4 1
M  V30 2 1 4 2
M  V30 3 1 6 1
M  V30 4 1 6 5
M  V30 5 1 7 3
M  V30 6 1 8 6
M  V30 7 2 8 7
M  V30 8 1 9 2
M  V30 9 1 10 9
M  V30 10 1 12 7
M  V30 11 1 13 10
M  V30 12 1 13 11
M  V30 13 1 14 1
M  V30 14 1 15 1
M  V30 15 1 16 2
M  V30 16 1 17 2
M  V30 17 1 18 3
M  V30 18 1 19 3
M  V30 19 1 20 3
M  V30 20 1 21 4
M  V30 21 1 22 4
M  V30 22 1 23 5
M  V30 23 1 24 5
M  V30 24 1 25 5
M  V30 25 1 6 26 CFG=3
M  V30 26 1 27 8
M  V30 27 1 28 9
M  V30 28 1 29 9
M  V30 29 1 30 10
M  V30 30 1 31 10
M  V30 31 1 32 11
M  V30 32 1 33 11
M  V30 33 1 34 12
M  V30 34 1 35 12
M  V30 35 1 36 12
M  V30 36 1 37 13
M  V30 37 1 38 13
M  V30 38 1 39 11
M  V30 END BOND
M  V30 END CTAB
M  END
>  <i_epik_Tot_Q>  (1) 
1

>  <i_epik_Tot_abs_Q>  (1) 
1

>  <i_i_glide_confnum>  (1) 
152

>  <i_i_glide_lignum>  (1) 
121

>  <i_i_glide_posenum>  (1) 
306

>  <i_i_glide_rotatable_bonds>  (1) 
7

>  <i_lp_mmshare_version>  (1) 
72125

>  <i_m_source_file_index>  (1) 
56

>  <i_f3d_flags>  (1) 
0

>  <num_sample>  (1) 
100

>  <b_lp_Chiralities_Consistent>  (1) 
1

>  <r_epik_Charging_Adjusted_Penalty>  (1) 
0.00087881740244438776

>  <r_epik_Ionization_Penalty>  (1) 
0.00087881740244438776

>  <r_epik_Ionization_Penalty_Charging>  (1) 
0.00087881740244438776

>  <r_epik_Ionization_Penalty_Neutral>  (1) 
0

>  <r_epik_State_Penalty>  (1) 
-0

>  <r_glide_ring_energy>  (1) 
0

>  <r_i_docking_score>  (1) 
-1.5232282408490359

>  <r_i_glide_ecoul>  (1) 
-8.2520876546495572

>  <r_i_glide_eff_state_penalty>  (1) 
-0

>  <r_i_glide_einternal>  (1) 
4.4236086376129791

>  <r_i_glide_emodel>  (1) 
-24.167996698601961

>  <r_i_glide_emodel_strain>  (1) 
3.9436125941466047

>  <r_i_glide_energy>  (1) 
-26.825839779138217

>  <r_i_glide_erotb>  (1) 
5.6086689864227646

>  <r_i_glide_esite>  (1) 
-0.10000000000000001

>  <r_i_glide_evdw>  (1) 
-18.57375212448866

>  <r_i_glide_gscore>  (1) 
-1.5232282408490359

>  <r_i_glide_gscore_strain>  (1) 
0

>  <r_i_glide_hbond>  (1) 
-0.190632610340771

>  <r_i_glide_ligand_efficiency>  (1) 
-0.11717140314223352

>  <r_i_glide_ligand_efficiency_ln>  (1) 
-0.42727906854016801

>  <r_i_glide_ligand_efficiency_sa>  (1) 
-0.27550918461724672

>  <r_i_glide_lipo>  (1) 
-2.080689612538225

>  <r_i_glide_metal>  (1) 
-0

>  <r_i_glide_rewards>  (1) 
-2.5940742499709382

>  <r_lp_Energy>  (1) 
5.2842919999999998

>  <r_lp_tautomer_probability>  (1) 
1

>  <s_epik_cmdline>  (1) 
J2VwaWtfcHl0aG9uJywgJy1waHQnLCAnMS4wJywgJy1waCcsICc3LjQnLCAnLXRuJywgJzgnLCAnLW1hJywgJzUwMCcsICctaW1hZScsICc8aW5maWxlLm1hZT4nLCAnLW9tYWUnLCAnPG91dGZpbGUubWFlPic=

>  <s_epik_input>  (1) 
W0NIM11DKFtDSDNdKT1bQ0hdW0NAQEhdKFtDSDNdKVtDSDJdW0NIMl1bQ0gyXVtDSDJdW0NIMl1bQ0gyXVtOSDJd

>  <s_glide_docking_method>  (1) 
confgen

>  <s_i_glide_gridfile>  (1) 
gpcr_5ht2c_6bqh_protein_autoprepared_prepared

>  <s_lp_Force_Field>  (1) 
S-OPLS

>  <s_lp_Variant>  (1) 
DiffSBDD_55-1

>  <s_m_source_file>  (1) 
generated_GPCR_5HT2C_ligand_DiffSBDD_2026-06-23_prepared.sdf

>  <GenAI_Model>  (1) 
DiffSBDD

>  <Protein>  (1) 
GPCR_5HT2C

$$$$
DiffSBDD_27
     RDKit          3D

  0  0  0  0  0  0  0  0  0  0999 V3000
M  V30 BEGIN CTAB
M  V30 COUNTS 43 42 0 0 1
M  V30 BEGIN ATOM
M  V30 1 Cl 37.710227 33.033857 61.163909 0
M  V30 2 C 38.845196 29.802646 58.095210 0
M  V30 3 C 39.317826 30.148074 55.593861 0
M  V30 4 O 36.045165 30.137755 58.967753 0
M  V30 5 C 38.382617 30.452445 59.416383 0
M  V30 6 C 40.235905 29.758055 50.194376 0
M  V30 7 C 36.512221 31.834389 60.601157 0 CFG=1
M  V30 8 C 35.152891 32.535844 60.410365 0
M  V30 9 C 39.779773 30.634351 53.117291 0
M  V30 10 C 36.995579 31.122751 59.325889 0 CFG=2
M  V30 11 C 39.632157 27.394976 50.941911 0
M  V30 12 O 35.166772 33.493015 59.367762 0
M  V30 13 C 39.033077 31.056783 54.386671 0
M  V30 14 C 40.165992 28.767185 51.371303 0
M  V30 15 C 39.315399 29.283825 52.545076 0
M  V30 16 C 38.747954 30.743879 56.880896 0
M  V30 17 H 39.874166 29.460645 58.211762 0
M  V30 18 H 38.251638 28.908162 57.902291 0
M  V30 19 H 40.390726 29.990069 55.702414 0
M  V30 20 H 38.873694 29.165986 55.431879 0
M  V30 21 H 35.645139 30.438821 58.152450 0
M  V30 22 H 39.127113 31.193674 59.705978 0
M  V30 23 H 38.381190 29.702270 60.208100 0
M  V30 24 H 39.245135 30.057190 49.866965 0
M  V30 25 H 40.774888 30.665243 50.468286 0
M  V30 26 H 40.749580 29.337754 49.331315 0
M  V30 27 H 36.421635 31.094553 61.392914 0
M  V30 28 H 34.844525 33.022839 61.335956 0
M  V30 29 H 34.398187 31.793364 60.167734 0
M  V30 30 H 39.645113 31.411879 52.365603 0
M  V30 31 H 40.845127 30.606821 53.337939 0
M  V30 32 H 37.027553 31.880802 58.547629 0
M  V30 33 H 38.611397 27.464886 50.567760 0
M  V30 34 H 40.250822 26.952528 50.167759 0
M  V30 35 H 39.624773 26.695713 51.778381 0
M  V30 36 H 35.245161 33.039594 58.531896 0
M  V30 37 H 37.960068 31.097361 54.193097 0
M  V30 38 H 39.331117 32.076714 54.632955 0
M  V30 39 H 41.185459 28.620799 51.726659 0
M  V30 40 H 39.344358 28.531229 53.331804 0
M  V30 41 H 38.268982 29.337770 52.243611 0
M  V30 42 H 37.701795 30.982827 56.687510 0
M  V30 43 H 39.245858 31.688657 57.101048 0
M  V30 END ATOM
M  V30 BEGIN BOND
M  V30 1 1 5 2
M  V30 2 1 7 1
M  V30 3 1 8 7
M  V30 4 1 10 4
M  V30 5 1 10 5
M  V30 6 1 10 7
M  V30 7 1 12 8
M  V30 8 1 13 3
M  V30 9 1 13 9
M  V30 10 1 14 6
M  V30 11 1 14 11
M  V30 12 1 15 9
M  V30 13 1 15 14
M  V30 14 1 16 2
M  V30 15 1 16 3
M  V30 16 1 17 2
M  V30 17 1 18 2
M  V30 18 1 19 3
M  V30 19 1 20 3
M  V30 20 1 21 4
M  V30 21 1 22 5
M  V30 22 1 23 5
M  V30 23 1 24 6
M  V30 24 1 25 6
M  V30 25 1 26 6
M  V30 26 1 7 27 CFG=1
M  V30 27 1 28 8
M  V30 28 1 29 8
M  V30 29 1 30 9
M  V30 30 1 31 9
M  V30 31 1 10 32 CFG=3
M  V30 32 1 33 11
M  V30 33 1 34 11
M  V30 34 1 35 11
M  V30 35 1 36 12
M  V30 36 1 37 13
M  V30 37 1 38 13
M  V30 38 1 39 14
M  V30 39 1 40 15
M  V30 40 1 41 15
M  V30 41 1 42 16
M  V30 42 1 43 16
M  V30 END BOND
M  V30 END CTAB
M  END
>  <i_epik_Tot_Q>  (1) 
0

>  <i_epik_Tot_abs_Q>  (1) 
0

>  <i_i_glide_confnum>  (1) 
365

>  <i_i_glide_lignum>  (1) 
68

>  <i_i_glide_posenum>  (1) 
185

>  <i_i_glide_rotatable_bonds>  (1) 
12

>  <i_lp_mmshare_version>  (1) 
72125

>  <i_m_source_file_index>  (1) 
28

>  <i_f3d_flags>  (1) 
0

>  <num_sample>  (1) 
100

>  <b_lp_Chiralities_Consistent>  (1) 
1

>  <r_epik_Charging_Adjusted_Penalty>  (1) 
0

>  <r_epik_Ionization_Penalty>  (1) 
1.1488326125260632e-06

>  <r_epik_Ionization_Penalty_Charging>  (1) 
0

>  <r_epik_Ionization_Penalty_Neutral>  (1) 
1.1488326125260632e-06

>  <r_epik_State_Penalty>  (1) 
-0

>  <r_glide_ring_energy>  (1) 
0

>  <r_i_docking_score>  (1) 
-1.5088778277538983

>  <r_i_glide_ecoul>  (1) 
-4.0250721971496297

>  <r_i_glide_eff_state_penalty>  (1) 
-0

>  <r_i_glide_einternal>  (1) 
6.0764842996074444

>  <r_i_glide_emodel>  (1) 
-29.819508437739671

>  <r_i_glide_emodel_strain>  (1) 
1.1851545940846808

>  <r_i_glide_energy>  (1) 
-31.142479587419444

>  <r_i_glide_erotb>  (1) 
5.0120571657308659

>  <r_i_glide_esite>  (1) 
0

>  <r_i_glide_evdw>  (1) 
-27.117407390269815

>  <r_i_glide_gscore>  (1) 
-1.5088778277538983

>  <r_i_glide_gscore_strain>  (1) 
0

>  <r_i_glide_hbond>  (1) 
-0.30399999999999999

>  <r_i_glide_ligand_efficiency>  (1) 
-0.094304864234618646

>  <r_i_glide_ligand_efficiency_ln>  (1) 
-0.39995820876495636

>  <r_i_glide_ligand_efficiency_sa>  (1) 
-0.23763336711334843

>  <r_i_glide_lipo>  (1) 
-1.9984369632607415

>  <r_i_glide_metal>  (1) 
-0

>  <r_i_glide_rewards>  (1) 
-2.2588668311380875

>  <r_lp_Energy>  (1) 
6.3724119999999997

>  <r_lp_tautomer_probability>  (1) 
1

>  <s_epik_cmdline>  (1) 
J2VwaWtfcHl0aG9uJywgJy1waHQnLCAnMS4wJywgJy1waCcsICc3LjQnLCAnLXRuJywgJzgnLCAnLW1hJywgJzUwMCcsICctaW1hZScsICc8aW5maWxlLm1hZT4nLCAnLW9tYWUnLCAnPG91dGZpbGUubWFlPic=

>  <s_epik_input>  (1) 
W09IXVtDSDJdW0NASF0oQ2wpW0NASF0oW09IXSlbQ0gyXVtDSDJdW0NIMl1bQ0gyXVtDSDJdW0NIMl1bQ0gyXVtDSF0oW0NIM10pW0NIM10=

>  <s_glide_docking_method>  (1) 
confgen

>  <s_i_glide_gridfile>  (1) 
gpcr_5ht2c_6bqh_protein_autoprepared_prepared

>  <s_lp_Force_Field>  (1) 
S-OPLS

>  <s_lp_Variant>  (1) 
DiffSBDD_27-1

>  <s_m_source_file>  (1) 
generated_GPCR_5HT2C_ligand_DiffSBDD_2026-06-23_prepared.sdf

>  <GenAI_Model>  (1) 
DiffSBDD

>  <Protein>  (1) 
GPCR_5HT2C

$$$$
DiffSBDD_93
     RDKit          3D

  0  0  0  0  0  0  0  0  0  0999 V3000
M  V30 BEGIN CTAB
M  V30 COUNTS 84 85 0 0 1
M  V30 BEGIN ATOM
M  V30 1 C 36.080762 29.770151 58.231982 0
M  V30 2 O 35.713869 29.344954 59.416007 0
M  V30 3 C 37.885204 36.751779 61.530574 0
M  V30 4 C 39.819929 27.651017 52.217718 0
M  V30 5 O 39.174299 31.094199 57.099730 0
M  V30 6 C 40.000904 26.640238 57.362658 0
M  V30 7 N 41.281538 26.988900 57.482536 0
M  V30 8 O 39.206405 26.743385 58.291649 0
M  V30 9 O 36.086459 32.724369 61.763585 0
M  V30 10 C 39.107968 27.557309 50.895402 0
M  V30 11 C 38.173086 35.651793 60.505656 0
M  V30 12 C 37.377431 30.132876 55.826570 0
M  V30 13 C 37.817102 31.068751 59.527842 0
M  V30 14 C 39.869598 27.184496 54.824318 0 CFG=2
M  V30 15 C 39.544077 26.113131 55.959705 0 CFG=2
M  V30 16 C 39.431972 35.062545 62.425162 0 CFG=1
M  V30 17 C 38.844936 33.136365 60.710987 0 CFG=1
M  V30 18 C 39.238577 32.097853 61.840099 0
M  V30 19 C 37.954627 28.818686 55.316078 0
M  V30 20 S 36.071869 33.253720 60.176763 0 CHG=1
M  V30 21 O 39.362659 30.941260 53.982152 0
M  V30 22 N 37.324105 30.527419 58.245426 0
M  V30 23 O 34.824390 32.299426 59.546355 0
M  V30 24 O 39.532018 37.445513 63.167078 0
M  V30 25 F 40.909066 36.135699 60.951813 0
M  V30 26 C 38.920875 28.774860 51.754445 0
M  V30 27 C 40.179688 29.922130 54.479219 0
M  V30 28 C 39.468799 28.684181 55.139262 0 CFG=2
M  V30 29 C 38.045122 30.622870 57.125768 0
M  V30 30 C 38.092221 25.510771 55.832750 0
M  V30 31 C 41.714634 34.163857 61.673816 0
M  V30 32 C 37.730455 32.615873 59.695460 0 CFG=2
M  V30 33 O 36.766816 23.582067 56.150936 0
M  V30 34 C 39.496945 26.715163 53.379154 0
M  V30 35 C 40.874999 35.358804 62.005235 0 CFG=2
M  V30 36 C 37.602643 24.341423 56.679943 0
M  V30 37 C 38.694282 36.371057 62.789909 0 CFG=1
M  V30 38 O 38.048311 24.234932 57.832075 0 CHG=-1
M  V30 39 N 38.564191 34.487082 61.346510 0 CFG=2 CHG=1
M  V30 40 H 36.346031 28.808436 57.795560 0
M  V30 41 H 35.154753 30.124966 57.829657 0
M  V30 42 H 35.390308 28.459322 59.233880 0
M  V30 43 H 38.116877 37.746987 61.134907 0
M  V30 44 H 36.820849 36.735113 61.772505 0
M  V30 45 H 40.872394 27.835854 52.134471 0
M  V30 46 H 41.908048 26.879032 56.698070 0
M  V30 47 H 41.622898 27.362713 58.354339 0
M  V30 48 H 36.001644 33.499090 62.311302 0
M  V30 49 H 39.689058 27.735003 49.991400 0
M  V30 50 H 38.255510 26.880818 50.822397 0
M  V30 51 H 38.989047 35.956534 59.866964 0
M  V30 52 H 37.333431 35.541701 59.819655 0
M  V30 53 H 36.306405 29.970457 55.898159 0
M  V30 54 H 37.379430 30.964489 55.135942 0
M  V30 55 H 38.867881 30.796849 59.541628 0
M  V30 56 H 37.437206 30.571142 60.419830 0
M  V30 57 H 40.937026 27.120041 54.933696 0
M  V30 58 H 40.205990 25.257208 55.788849 0
M  V30 59 H 39.483956 34.418743 63.298930 0
M  V30 60 H 39.679967 33.272092 60.028729 0
M  V30 61 H 39.569138 31.131706 61.466751 0
M  V30 62 H 40.071126 32.398027 62.474215 0
M  V30 63 H 38.428098 31.899189 62.535229 0
M  V30 64 H 37.701790 28.136277 56.104338 0
M  V30 65 H 37.419685 28.469599 54.444258 0
M  V30 66 H 38.585816 30.994789 54.525359 0
M  V30 67 H 35.177327 31.757255 58.865401 0
M  V30 68 H 40.011568 37.247246 63.960535 0
M  V30 69 H 37.986967 28.925825 52.294883 0
M  V30 70 H 39.429737 29.691797 51.457910 0
M  V30 71 H 40.652298 29.759069 53.529648 0
M  V30 72 H 40.856225 30.386922 55.204292 0
M  V30 73 H 39.864859 28.810183 56.133555 0
M  V30 74 H 37.310622 26.224651 56.020378 0
M  V30 75 H 37.950272 25.135658 54.823026 0
M  V30 76 H 42.138032 33.732457 62.581444 0
M  V30 77 H 41.333340 33.382293 61.049623 0
M  V30 78 H 42.446821 34.534474 60.967811 0
M  V30 79 H 37.935051 33.080178 58.727175 0
M  V30 80 H 40.018957 25.769121 53.208205 0
M  V30 81 H 38.432607 26.519460 53.309447 0
M  V30 82 H 41.416384 35.948367 62.747325 0
M  V30 83 H 38.009094 36.188952 63.616518 0
M  V30 84 H 37.748974 34.295913 61.901750 0
M  V30 END ATOM
M  V30 BEGIN BOND
M  V30 1 1 2 1
M  V30 2 1 7 6
M  V30 3 2 8 6
M  V30 4 1 10 4
M  V30 5 1 11 3
M  V30 6 1 15 6
M  V30 7 1 15 14
M  V30 8 1 18 17
M  V30 9 1 19 12
M  V30 10 1 20 9
M  V30 11 1 22 1
M  V30 12 1 22 13
M  V30 13 1 23 20
M  V30 14 1 26 4
M  V30 15 1 26 10
M  V30 16 1 27 21
M  V30 17 1 28 14
M  V30 18 1 28 19
M  V30 19 1 28 27
M  V30 20 2 29 5
M  V30 21 1 29 12
M  V30 22 1 29 22
M  V30 23 1 30 15
M  V30 24 1 32 13
M  V30 25 1 32 17
M  V30 26 1 32 20
M  V30 27 1 34 4
M  V30 28 1 34 14
M  V30 29 1 35 16
M  V30 30 1 35 25
M  V30 31 1 35 31
M  V30 32 1 36 30
M  V30 33 2 36 33
M  V30 34 1 37 3
M  V30 35 1 37 16
M  V30 36 1 37 24
M  V30 37 1 38 36
M  V30 38 1 39 11
M  V30 39 1 39 16
M  V30 40 1 39 17
M  V30 41 1 40 1
M  V30 42 1 41 1
M  V30 43 1 42 2
M  V30 44 1 43 3
M  V30 45 1 44 3
M  V30 46 1 45 4
M  V30 47 1 46 7
M  V30 48 1 47 7
M  V30 49 1 48 9
M  V30 50 1 49 10
M  V30 51 1 50 10
M  V30 52 1 51 11
M  V30 53 1 52 11
M  V30 54 1 53 12
M  V30 55 1 54 12
M  V30 56 1 55 13
M  V30 57 1 56 13
M  V30 58 1 14 57 CFG=3
M  V30 59 1 15 58 CFG=3
M  V30 60 1 16 59 CFG=1
M  V30 61 1 17 60 CFG=3
M  V30 62 1 61 18
M  V30 63 1 62 18
M  V30 64 1 63 18
M  V30 65 1 64 19
M  V30 66 1 65 19
M  V30 67 1 66 21
M  V30 68 1 67 23
M  V30 69 1 68 24
M  V30 70 1 69 26
M  V30 71 1 70 26
M  V30 72 1 71 27
M  V30 73 1 72 27
M  V30 74 1 28 73 CFG=1
M  V30 75 1 74 30
M  V30 76 1 75 30
M  V30 77 1 76 31
M  V30 78 1 77 31
M  V30 79 1 78 31
M  V30 80 1 32 79 CFG=3
M  V30 81 1 80 34
M  V30 82 1 81 34
M  V30 83 1 35 82 CFG=1
M  V30 84 1 37 83 CFG=1
M  V30 85 1 39 84 CFG=1
M  V30 END BOND
M  V30 END CTAB
M  END
>  <i_epik_Tot_Q>  (1) 
1

>  <i_epik_Tot_abs_Q>  (1) 
3

>  <i_i_glide_confnum>  (1) 
4371

>  <i_i_glide_lignum>  (1) 
219

>  <i_i_glide_posenum>  (1) 
8

>  <i_i_glide_rotatable_bonds>  (1) 
24

>  <i_lp_mmshare_version>  (1) 
72125

>  <i_m_source_file_index>  (1) 
94

>  <i_f3d_flags>  (1) 
0

>  <num_sample>  (1) 
100

>  <b_lp_Chiralities_Consistent>  (1) 
1

>  <r_epik_Charging_Adjusted_Penalty>  (1) 
0.90916677635763199

>  <r_epik_Ionization_Penalty>  (1) 
0.45507897092921873

>  <r_epik_Ionization_Penalty_Charging>  (1) 
0.45507471778648678

>  <r_epik_Ionization_Penalty_Neutral>  (1) 
4.2531427319391784e-06

>  <r_epik_State_Penalty>  (1) 
0.45409205857114521

>  <r_glide_ring_energy>  (1) 
0

>  <r_i_docking_score>  (1) 
-1.4887538446056239

>  <r_i_glide_ecoul>  (1) 
-10.507128283294884

>  <r_i_glide_eff_state_penalty>  (1) 
0.45409205857114521

>  <r_i_glide_einternal>  (1) 
32.201617538133412

>  <r_i_glide_emodel>  (1) 
11.916677878971427

>  <r_i_glide_emodel_strain>  (1) 
22.822622973880371

>  <r_i_glide_energy>  (1) 
-20.287059862864663

>  <r_i_glide_erotb>  (1) 
0.82188833391367333

>  <r_i_glide_esite>  (1) 
-0.2875877767423754

>  <r_i_glide_evdw>  (1) 
-9.7799315795697783

>  <r_i_glide_gscore>  (1) 
-1.9428459031767691

>  <r_i_glide_gscore_strain>  (1) 
4.7056557434700927

>  <r_i_glide_hbond>  (1) 
-0.13543626662915309

>  <r_i_glide_ligand_efficiency>  (1) 
-0.038173175502708302

>  <r_i_glide_ligand_efficiency_ln>  (1) 
-0.31923108507446474

>  <r_i_glide_ligand_efficiency_sa>  (1) 
-0.12945330958097248

>  <r_i_glide_lipo>  (1) 
-3.6884733513735326

>  <r_i_glide_metal>  (1) 
-0

>  <r_i_glide_rewards>  (1) 
-1.2938267643427517

>  <r_lp_Energy>  (1) 
13.939579

>  <s_epik_Chemistry_Notes>  (1) 
This compound contains an acetal/aminal-like group ( X-CH(R)-Y where X, Y are N, S, or O) that may be acid/base labile, releasing an aldehyde.

>  <s_epik_cmdline>  (1) 
J2VwaWtfcHl0aG9uJywgJy1waHQnLCAnMS4wJywgJy1waCcsICc3LjQnLCAnLXRuJywgJzgnLCAnLW1hJywgJzUwMCcsICctaW1hZScsICc8aW5maWxlLm1hZT4nLCAnLW9tYWUnLCAnPG91dGZpbGUubWFlPic=

>  <s_epik_input>  (1) 
W0NIMl0xW0NIMl1bQ0hdMVtDSDJdW0NAQEhdKFtDQEBIXShDKD1PKVtOSDJdKVtDSDJdQyg9TylbT0hdKVtDQEBIXShbQ0gyXVtPSF0pW0NIMl1bQ0gyXUMoPU8pTihbQ0gyXVtPSF0pW0NIMl1bQ0BASF0oW1MrXShbT0hdKVtPSF0pW0NASF0oW0NIM10pTjJbQ0gyXVtDSDJdW0NASF0oW09IXSlbQ0BASF0yW0NASF0oRilbQ0gzXQ==

>  <s_glide_docking_method>  (1) 
confgen

>  <s_i_glide_gridfile>  (1) 
gpcr_5ht2c_6bqh_protein_autoprepared_prepared

>  <s_lp_Force_Field>  (1) 
S-OPLS

>  <s_lp_Variant>  (1) 
DiffSBDD_93-7

>  <s_m_source_file>  (1) 
generated_GPCR_5HT2C_ligand_DiffSBDD_2026-06-23_prepared.sdf

>  <GenAI_Model>  (1) 
DiffSBDD

>  <Protein>  (1) 
GPCR_5HT2C

$$$$
DiffSBDD_31
     RDKit          3D

  0  0  0  0  0  0  0  0  0  0999 V3000
M  V30 BEGIN CTAB
M  V30 COUNTS 39 38 0 0 1
M  V30 BEGIN ATOM
M  V30 1 S 38.049259 29.443185 54.093542 0
M  V30 2 C 39.605593 30.184059 54.669175 0
M  V30 3 C 39.381928 27.020939 50.990577 0
M  V30 4 C 39.355308 31.492702 55.444826 0
M  V30 5 C 39.744925 30.006810 50.347874 0
M  V30 6 C 38.508286 31.289110 56.713822 0
M  V30 7 N 36.845126 31.848501 61.514097 0
M  V30 8 C 39.402274 28.239685 51.910681 0 CFG=1
M  V30 9 C 37.051511 33.346373 59.576999 0
M  V30 10 C 36.143126 32.831775 60.703335 0
M  V30 11 O 38.845145 29.337755 51.221006 0
M  V30 12 C 38.252121 32.569241 57.524520 0
M  V30 13 N 37.245137 32.292198 58.567759 0 CHG=1
M  V30 14 C 38.582078 27.959116 53.187046 0
M  V30 15 H 40.238426 30.386824 53.805023 0
M  V30 16 H 40.134721 29.464085 55.294325 0
M  V30 17 H 39.645138 26.137755 51.559796 0
M  V30 18 H 38.395225 26.849883 50.568628 0
M  V30 19 H 40.086115 27.118490 50.167763 0
M  V30 20 H 38.860593 32.209551 54.787481 0
M  V30 21 H 40.312174 31.938957 55.715739 0
M  V30 22 H 39.245197 30.868498 49.905120 0
M  V30 23 H 40.621031 30.375771 50.883060 0
M  V30 24 H 40.076320 29.361016 49.534530 0
M  V30 25 H 38.987145 30.545724 57.352130 0
M  V30 26 H 37.543652 30.868152 56.429226 0
M  V30 27 H 37.112166 31.037034 60.975564 0
M  V30 28 H 37.696215 32.244568 61.892428 0
M  V30 29 H 40.434108 28.468691 52.167760 0
M  V30 30 H 36.597216 34.212592 59.093027 0
M  V30 31 H 38.012252 33.671754 59.979558 0
M  V30 32 H 35.225337 32.399204 60.301740 0
M  V30 33 H 35.847255 33.660517 61.348381 0
M  V30 34 H 37.875139 33.363976 56.878436 0
M  V30 35 H 39.181603 32.923893 57.972523 0
M  V30 36 H 37.493311 31.434098 59.032357 0
M  V30 37 H 39.133280 27.301160 53.859022 0
M  V30 38 H 37.667735 27.429240 52.915914 0
M  V30 39 H 36.364728 32.137755 58.052293 0
M  V30 END ATOM
M  V30 BEGIN BOND
M  V30 1 1 2 1
M  V30 2 1 4 2
M  V30 3 1 6 4
M  V30 4 1 8 3
M  V30 5 1 10 7
M  V30 6 1 10 9
M  V30 7 1 11 5
M  V30 8 1 11 8
M  V30 9 1 12 6
M  V30 10 1 13 9
M  V30 11 1 13 12
M  V30 12 1 14 1
M  V30 13 1 14 8
M  V30 14 1 15 2
M  V30 15 1 16 2
M  V30 16 1 17 3
M  V30 17 1 18 3
M  V30 18 1 19 3
M  V30 19 1 20 4
M  V30 20 1 21 4
M  V30 21 1 22 5
M  V30 22 1 23 5
M  V30 23 1 24 5
M  V30 24 1 25 6
M  V30 25 1 26 6
M  V30 26 1 27 7
M  V30 27 1 28 7
M  V30 28 1 8 29 CFG=1
M  V30 29 1 30 9
M  V30 30 1 31 9
M  V30 31 1 32 10
M  V30 32 1 33 10
M  V30 33 1 34 12
M  V30 34 1 35 12
M  V30 35 1 36 13
M  V30 36 1 37 14
M  V30 37 1 38 14
M  V30 38 1 39 13
M  V30 END BOND
M  V30 END CTAB
M  END
>  <i_epik_Tot_Q>  (1) 
1

>  <i_epik_Tot_abs_Q>  (1) 
1

>  <i_i_glide_confnum>  (1) 
115

>  <i_i_glide_lignum>  (1) 
73

>  <i_i_glide_posenum>  (1) 
113

>  <i_i_glide_rotatable_bonds>  (1) 
10

>  <i_lp_mmshare_version>  (1) 
72125

>  <i_m_source_file_index>  (1) 
32

>  <i_f3d_flags>  (1) 
0

>  <num_sample>  (1) 
100

>  <b_lp_Chiralities_Consistent>  (1) 
1

>  <r_epik_Charging_Adjusted_Penalty>  (1) 
0.34281104315020688

>  <r_epik_Ionization_Penalty>  (1) 
0.19450335348640826

>  <r_epik_Ionization_Penalty_Charging>  (1) 
0.0023970713432799498

>  <r_epik_Ionization_Penalty_Neutral>  (1) 
0.1921062821431283

>  <r_epik_State_Penalty>  (1) 
0.34041397180692695

>  <r_glide_ring_energy>  (1) 
0

>  <r_i_docking_score>  (1) 
-1.4886317698329539

>  <r_i_glide_ecoul>  (1) 
-8.935273028433496

>  <r_i_glide_eff_state_penalty>  (1) 
0.34041397180692695

>  <r_i_glide_einternal>  (1) 
3.5469970559966941

>  <r_i_glide_emodel>  (1) 
-35.13938130063174

>  <r_i_glide_emodel_strain>  (1) 
0.12234992209063322

>  <r_i_glide_energy>  (1) 
-31.904300777596507

>  <r_i_glide_erotb>  (1) 
5.5093939013808209

>  <r_i_glide_esite>  (1) 
-0.10000000000000001

>  <r_i_glide_evdw>  (1) 
-22.969027749163011

>  <r_i_glide_gscore>  (1) 
-1.8290457416398809

>  <r_i_glide_gscore_strain>  (1) 
0

>  <r_i_glide_hbond>  (1) 
-0.52000000000000002

>  <r_i_glide_ligand_efficiency>  (1) 
-0.10633084070235385

>  <r_i_glide_ligand_efficiency_ln>  (1) 
-0.4090707111751769

>  <r_i_glide_ligand_efficiency_sa>  (1) 
-0.25627245316202685

>  <r_i_glide_lipo>  (1) 
-1.8703525211213723

>  <r_i_glide_metal>  (1) 
-0

>  <r_i_glide_rewards>  (1) 
-2.3593447801761536

>  <r_lp_Energy>  (1) 
12.430294

>  <s_epik_cmdline>  (1) 
J2VwaWtfcHl0aG9uJywgJy1waHQnLCAnMS4wJywgJy1waCcsICc3LjQnLCAnLXRuJywgJzgnLCAnLW1hJywgJzUwMCcsICctaW1hZScsICc8aW5maWxlLm1hZT4nLCAnLW9tYWUnLCAnPG91dGZpbGUubWFlPic=

>  <s_epik_input>  (1) 
W0NIM11PW0NASF0oW0NIM10pW0NIMl1TW0NIMl1bQ0gyXVtDSDJdW0NIMl1bTkhdW0NIMl1bQ0gyXVtOSDJd

>  <s_glide_docking_method>  (1) 
confgen

>  <s_i_glide_gridfile>  (1) 
gpcr_5ht2c_6bqh_protein_autoprepared_prepared

>  <s_lp_Force_Field>  (1) 
S-OPLS

>  <s_lp_Variant>  (1) 
DiffSBDD_31-1

>  <s_m_source_file>  (1) 
generated_GPCR_5HT2C_ligand_DiffSBDD_2026-06-23_prepared.sdf

>  <GenAI_Model>  (1) 
DiffSBDD

>  <Protein>  (1) 
GPCR_5HT2C

$$$$
DiffSBDD_27
     RDKit          3D

  0  0  0  0  0  0  0  0  0  0999 V3000
M  V30 BEGIN CTAB
M  V30 COUNTS 43 42 0 0 1
M  V30 BEGIN ATOM
M  V30 1 Cl 39.173422 34.786188 60.937959 0
M  V30 2 C 38.042511 31.112591 58.453672 0
M  V30 3 C 38.541352 30.647712 55.999131 0
M  V30 4 O 35.943002 32.990346 59.367749 0
M  V30 5 C 38.150879 32.110652 59.619057 0
M  V30 6 C 40.383269 28.436792 51.282056 0
M  V30 7 C 37.457479 34.392489 60.616151 0 CFG=1
M  V30 8 C 36.677842 35.705004 60.406715 0
M  V30 9 C 39.129146 30.180684 53.577745 0
M  V30 10 C 37.302058 33.389046 59.448102 0 CFG=2
M  V30 11 C 40.117149 30.446867 49.804795 0
M  V30 12 O 37.185798 36.519129 59.367673 0
M  V30 13 C 39.124531 31.217064 54.702457 0
M  V30 14 C 39.645501 29.766065 51.092877 0
M  V30 15 C 39.795224 30.712175 52.300583 0
M  V30 16 C 38.494289 31.699101 57.108137 0
M  V30 17 H 38.657478 30.243520 58.689581 0
M  V30 18 H 37.021068 30.739557 58.368085 0
M  V30 19 H 39.142645 29.797236 56.322500 0
M  V30 20 H 37.533231 30.269973 55.819631 0
M  V30 21 H 35.792291 32.571262 58.515827 0
M  V30 22 H 39.201909 32.374505 59.733057 0
M  V30 23 H 37.867702 31.608651 60.545090 0
M  V30 24 H 41.455790 28.599329 51.367815 0
M  V30 25 H 40.045144 27.899915 52.167608 0
M  V30 26 H 40.214326 27.776550 50.430775 0
M  V30 27 H 37.087120 33.916246 61.524815 0
M  V30 28 H 36.682621 36.287683 61.328124 0
M  V30 29 H 35.644998 35.476000 60.167693 0
M  V30 30 H 39.645106 29.285807 53.922638 0
M  V30 31 H 38.101941 29.880694 53.367797 0
M  V30 32 H 37.573420 33.897105 58.523030 0
M  V30 33 H 41.163608 30.748243 49.868519 0
M  V30 34 H 40.016433 29.758849 48.967335 0
M  V30 35 H 39.524826 31.335858 49.584587 0
M  V30 36 H 36.946358 36.137395 58.531598 0
M  V30 37 H 38.549257 32.090896 54.391933 0
M  V30 38 H 40.142684 31.562772 54.885383 0
M  V30 39 H 38.590507 29.524302 50.967803 0
M  V30 40 H 39.366517 31.686078 52.061087 0
M  V30 41 H 40.845026 30.920519 52.488406 0
M  V30 42 H 37.813798 32.492753 56.797491 0
M  V30 43 H 39.476234 32.158779 57.217173 0
M  V30 END ATOM
M  V30 BEGIN BOND
M  V30 1 1 5 2
M  V30 2 1 7 1
M  V30 3 1 8 7
M  V30 4 1 10 4
M  V30 5 1 10 5
M  V30 6 1 10 7
M  V30 7 1 12 8
M  V30 8 1 13 3
M  V30 9 1 13 9
M  V30 10 1 14 6
M  V30 11 1 14 11
M  V30 12 1 15 9
M  V30 13 1 15 14
M  V30 14 1 16 2
M  V30 15 1 16 3
M  V30 16 1 17 2
M  V30 17 1 18 2
M  V30 18 1 19 3
M  V30 19 1 20 3
M  V30 20 1 21 4
M  V30 21 1 22 5
M  V30 22 1 23 5
M  V30 23 1 24 6
M  V30 24 1 25 6
M  V30 25 1 26 6
M  V30 26 1 7 27 CFG=1
M  V30 27 1 28 8
M  V30 28 1 29 8
M  V30 29 1 30 9
M  V30 30 1 31 9
M  V30 31 1 10 32 CFG=3
M  V30 32 1 33 11
M  V30 33 1 34 11
M  V30 34 1 35 11
M  V30 35 1 36 12
M  V30 36 1 37 13
M  V30 37 1 38 13
M  V30 38 1 39 14
M  V30 39 1 40 15
M  V30 40 1 41 15
M  V30 41 1 42 16
M  V30 42 1 43 16
M  V30 END BOND
M  V30 END CTAB
M  END
>  <i_epik_Tot_Q>  (1) 
0

>  <i_epik_Tot_abs_Q>  (1) 
0

>  <i_i_glide_confnum>  (1) 
365

>  <i_i_glide_lignum>  (1) 
68

>  <i_i_glide_posenum>  (1) 
185

>  <i_i_glide_rotatable_bonds>  (1) 
12

>  <i_lp_mmshare_version>  (1) 
72125

>  <i_m_source_file_index>  (1) 
28

>  <i_f3d_flags>  (1) 
0

>  <num_sample>  (1) 
100

>  <b_lp_Chiralities_Consistent>  (1) 
1

>  <r_epik_Charging_Adjusted_Penalty>  (1) 
0

>  <r_epik_Ionization_Penalty>  (1) 
1.1488326125260632e-06

>  <r_epik_Ionization_Penalty_Charging>  (1) 
0

>  <r_epik_Ionization_Penalty_Neutral>  (1) 
1.1488326125260632e-06

>  <r_epik_State_Penalty>  (1) 
-0

>  <r_glide_ring_energy>  (1) 
0

>  <r_i_docking_score>  (1) 
-1.458071543855779

>  <r_i_glide_ecoul>  (1) 
-5.1030179565664335

>  <r_i_glide_eff_state_penalty>  (1) 
-0

>  <r_i_glide_einternal>  (1) 
4.5500596243546392

>  <r_i_glide_emodel>  (1) 
-30.272637459010248

>  <r_i_glide_emodel_strain>  (1) 
0.092042034484062896

>  <r_i_glide_energy>  (1) 
-29.836945592003783

>  <r_i_glide_erotb>  (1) 
5.0120571657308659

>  <r_i_glide_esite>  (1) 
0

>  <r_i_glide_evdw>  (1) 
-24.73392763543735

>  <r_i_glide_gscore>  (1) 
-1.458071543855779

>  <r_i_glide_gscore_strain>  (1) 
0

>  <r_i_glide_hbond>  (1) 
-0.30000519163681

>  <r_i_glide_ligand_efficiency>  (1) 
-0.091129471490986186

>  <r_i_glide_ligand_efficiency_ln>  (1) 
-0.38649098833920165

>  <r_i_glide_ligand_efficiency_sa>  (1) 
-0.22963187879457647

>  <r_i_glide_lipo>  (1) 
-1.9874834782684767

>  <r_i_glide_metal>  (1) 
-0

>  <r_i_glide_rewards>  (1) 
-2.1804909644245258

>  <r_lp_Energy>  (1) 
6.3724119999999997

>  <r_lp_tautomer_probability>  (1) 
1

>  <s_epik_cmdline>  (1) 
J2VwaWtfcHl0aG9uJywgJy1waHQnLCAnMS4wJywgJy1waCcsICc3LjQnLCAnLXRuJywgJzgnLCAnLW1hJywgJzUwMCcsICctaW1hZScsICc8aW5maWxlLm1hZT4nLCAnLW9tYWUnLCAnPG91dGZpbGUubWFlPic=

>  <s_epik_input>  (1) 
W09IXVtDSDJdW0NASF0oQ2wpW0NASF0oW09IXSlbQ0gyXVtDSDJdW0NIMl1bQ0gyXVtDSDJdW0NIMl1bQ0gyXVtDSF0oW0NIM10pW0NIM10=

>  <s_glide_docking_method>  (1) 
confgen

>  <s_i_glide_gridfile>  (1) 
gpcr_5ht2c_6bqh_protein_autoprepared_prepared

>  <s_lp_Force_Field>  (1) 
S-OPLS

>  <s_lp_Variant>  (1) 
DiffSBDD_27-1

>  <s_m_source_file>  (1) 
generated_GPCR_5HT2C_ligand_DiffSBDD_2026-06-23_prepared.sdf

>  <GenAI_Model>  (1) 
DiffSBDD

>  <Protein>  (1) 
GPCR_5HT2C

$$$$
DiffSBDD_16
     RDKit          3D

  0  0  0  0  0  0  0  0  0  0999 V3000
M  V30 BEGIN CTAB
M  V30 COUNTS 70 74 0 0 1
M  V30 BEGIN ATOM
M  V30 1 C 51.799805 24.764927 52.623143 0
M  V30 2 C 52.784886 22.173759 44.501246 0
M  V30 3 C 52.840982 21.069140 50.964963 0 CFG=1
M  V30 4 C 53.705429 20.404190 49.880652 0
M  V30 5 C 51.759838 27.177514 52.190540 0
M  V30 6 C 53.123389 27.155410 51.859392 0
M  V30 7 C 50.918927 19.786470 53.872521 0
M  V30 8 C 51.531319 19.522735 55.239232 0
M  V30 9 C 53.639102 21.228500 52.291700 0
M  V30 10 C 53.832789 25.944880 51.897121 0
M  V30 11 O 49.245131 21.467087 53.709710 0
M  V30 12 C 52.168539 22.039582 46.848459 0
M  V30 13 C 52.222197 21.515046 48.111528 0
M  V30 14 C 51.471527 22.178285 49.256554 0
M  V30 15 C 52.812537 21.501609 45.627095 0
M  V30 16 C 51.107965 25.992480 52.569738 0
M  V30 17 N 53.396155 21.574313 43.428834 0
M  V30 18 C 53.824012 18.026450 43.741503 0
M  V30 19 N 52.357734 22.354883 50.422638 0 CHG=1
M  V30 20 C 53.218612 17.884548 45.101356 0
M  V30 21 C 50.983845 28.475616 52.134122 0
M  V30 22 C 53.022755 19.811712 55.209626 0
M  V30 23 C 54.852967 21.491644 55.200625 0
M  V30 24 C 53.353227 21.287840 54.935445 0 CFG=1
M  V30 25 C 51.011446 23.530298 53.020678 0
M  V30 26 C 52.950847 21.879424 53.539770 0 CFG=2
M  V30 27 C 50.449714 21.227152 53.662816 0
M  V30 28 C 53.527511 20.203449 45.518709 0 CFG=2
M  V30 29 C 51.473591 22.285227 53.376643 0
M  V30 30 C 53.645132 20.425266 43.966889 0
M  V30 31 N 52.906085 18.898870 45.834065 0
M  V30 32 C 53.182999 24.750713 52.270465 0
M  V30 33 C 53.007440 20.258087 48.510515 0
M  V30 34 C 54.002130 19.244706 43.195939 0
M  V30 35 H 52.316260 23.137969 44.362767 0
M  V30 36 H 51.974868 20.433885 51.149725 0
M  V30 37 H 54.040062 19.422279 50.218447 0
M  V30 38 H 54.612556 20.995935 49.743637 0
M  V30 39 H 53.625139 28.066589 51.566902 0
M  V30 40 H 50.045148 19.149924 53.767475 0
M  V30 41 H 51.596065 19.478054 53.078594 0
M  V30 42 H 51.035272 20.107803 56.015901 0
M  V30 43 H 51.378336 18.475421 55.502024 0
M  V30 44 H 53.972222 20.229920 52.570728 0
M  V30 45 H 54.568124 21.763514 52.091018 0
M  V30 46 H 54.879074 25.926924 51.628517 0
M  V30 47 H 51.585877 22.941703 46.725186 0
M  V30 48 H 51.081948 23.151142 48.954117 0
M  V30 49 H 50.613046 21.562730 49.530168 0
M  V30 50 H 50.064930 26.022200 52.823323 0
M  V30 51 H 54.058587 17.114686 43.212139 0
M  V30 52 H 51.845541 22.841367 51.146397 0
M  V30 53 H 53.039601 16.857444 45.429364 0
M  V30 54 H 50.283620 28.537704 52.967584 0
M  V30 55 H 51.645117 29.337732 52.167782 0
M  V30 56 H 50.412194 28.528168 51.207484 0
M  V30 57 H 53.430978 19.527403 56.180794 0
M  V30 58 H 53.515838 19.160864 54.487696 0
M  V30 59 H 55.419172 20.915028 54.475040 0
M  V30 60 H 55.153913 22.536756 55.120782 0
M  V30 61 H 55.136965 21.151000 56.196918 0
M  V30 62 H 52.832841 21.874008 55.696048 0
M  V30 63 H 49.939795 23.666694 52.996284 0
M  V30 64 H 53.419659 22.817558 53.768758 0
M  V30 65 H 54.535568 20.281784 45.928431 0
M  V30 66 H 53.742715 23.847941 52.250558 0
M  V30 67 H 52.318719 19.412869 48.533267 0
M  V30 68 H 53.835142 20.008326 47.871119 0
M  V30 69 H 54.377832 19.394414 42.196674 0
M  V30 70 H 53.148551 22.919969 50.148649 0
M  V30 END ATOM
M  V30 BEGIN BOND
M  V30 1 1 4 3
M  V30 2 1 6 5
M  V30 3 1 8 7
M  V30 4 1 9 3
M  V30 5 2 10 6
M  V30 6 2 13 12
M  V30 7 1 14 13
M  V30 8 2 15 2
M  V30 9 1 15 12
M  V30 10 1 16 1
M  V30 11 2 16 5
M  V30 12 1 17 2
M  V30 13 1 19 3
M  V30 14 1 19 14
M  V30 15 1 20 18
M  V30 16 1 21 5
M  V30 17 1 22 8
M  V30 18 1 24 22
M  V30 19 1 24 23
M  V30 20 1 25 1
M  V30 21 1 26 9
M  V30 22 1 26 24
M  V30 23 1 27 7
M  V30 24 2 27 11
M  V30 25 1 28 15
M  V30 26 2 29 25
M  V30 27 1 29 26
M  V30 28 1 29 27
M  V30 29 2 30 17
M  V30 30 1 30 28
M  V30 31 2 31 20
M  V30 32 1 31 28
M  V30 33 2 32 1
M  V30 34 1 32 10
M  V30 35 1 33 4
M  V30 36 1 33 13
M  V30 37 2 34 18
M  V30 38 1 34 30
M  V30 39 1 35 2
M  V30 40 1 3 36 CFG=1
M  V30 41 1 37 4
M  V30 42 1 38 4
M  V30 43 1 39 6
M  V30 44 1 40 7
M  V30 45 1 41 7
M  V30 46 1 42 8
M  V30 47 1 43 8
M  V30 48 1 44 9
M  V30 49 1 45 9
M  V30 50 1 46 10
M  V30 51 1 47 12
M  V30 52 1 48 14
M  V30 53 1 49 14
M  V30 54 1 50 16
M  V30 55 1 51 18
M  V30 56 1 52 19
M  V30 57 1 53 20
M  V30 58 1 54 21
M  V30 59 1 55 21
M  V30 60 1 56 21
M  V30 61 1 57 22
M  V30 62 1 58 22
M  V30 63 1 59 23
M  V30 64 1 60 23
M  V30 65 1 61 23
M  V30 66 1 24 62 CFG=1
M  V30 67 1 63 25
M  V30 68 1 26 64 CFG=1
M  V30 69 1 28 65 CFG=1
M  V30 70 1 66 32
M  V30 71 1 67 33
M  V30 72 1 68 33
M  V30 73 1 69 34
M  V30 74 1 70 19
M  V30 END BOND
M  V30 END CTAB
M  END
>  <i_epik_Tot_Q>  (1) 
1

>  <i_epik_Tot_abs_Q>  (1) 
1

>  <i_i_glide_confnum>  (1) 
9

>  <i_i_glide_lignum>  (1) 
36

>  <i_i_glide_posenum>  (1) 
171

>  <i_i_glide_rotatable_bonds>  (1) 
4

>  <i_lp_mmshare_version>  (1) 
72125

>  <i_m_source_file_index>  (1) 
17

>  <i_f3d_flags>  (1) 
0

>  <num_sample>  (1) 
100

>  <b_lp_Chiralities_Consistent>  (1) 
1

>  <r_epik_Charging_Adjusted_Penalty>  (1) 
0.57808156404405586

>  <r_epik_Ionization_Penalty>  (1) 
0.28904078202202793

>  <r_epik_Ionization_Penalty_Charging>  (1) 
0.28904078202202793

>  <r_epik_Ionization_Penalty_Neutral>  (1) 
0

>  <r_epik_State_Penalty>  (1) 
0.28904078202202793

>  <r_glide_ring_energy>  (1) 
0

>  <r_i_docking_score>  (1) 
-1.4131688776685587

>  <r_i_glide_ecoul>  (1) 
0.23872586942633234

>  <r_i_glide_eff_state_penalty>  (1) 
0.28904078202202793

>  <r_i_glide_einternal>  (1) 
3.0491353031801971

>  <r_i_glide_emodel>  (1) 
-17.452287426021968

>  <r_i_glide_emodel_strain>  (1) 
0

>  <r_i_glide_energy>  (1) 
-17.634068715844705

>  <r_i_glide_erotb>  (1) 
0.29147875755417113

>  <r_i_glide_esite>  (1) 
0

>  <r_i_glide_evdw>  (1) 
-17.872794585271038

>  <r_i_glide_gscore>  (1) 
-1.7022096596905867

>  <r_i_glide_gscore_strain>  (1) 
0

>  <r_i_glide_hbond>  (1) 
0

>  <r_i_glide_ligand_efficiency>  (1) 
-0.041563790519663489

>  <r_i_glide_ligand_efficiency_ln>  (1) 
-0.3122086431213732

>  <r_i_glide_ligand_efficiency_sa>  (1) 
-0.13465054627332704

>  <r_i_glide_lipo>  (1) 
-0.67337585073223094

>  <r_i_glide_metal>  (1) 
-0

>  <r_i_glide_rewards>  (1) 
-0.46248171766292479

>  <r_lp_Energy>  (1) 
58.700623999999998

>  <s_epik_Chemistry_Notes>  (1) 
This compound has an imine and may undergo hydrolysis.

>  <s_epik_cmdline>  (1) 
J2VwaWtfcHl0aG9uJywgJy1waHQnLCAnMS4wJywgJy1waCcsICc3LjQnLCAnLXRuJywgJzgnLCAnLW1hJywgJzUwMCcsICctaW1hZScsICc8aW5maWxlLm1hZT4nLCAnLW9tYWUnLCAnPG91dGZpbGUubWFlPic=

>  <s_epik_input>  (1) 
W2NIXTFbY0hdW2NIXWMoW0NIM10pW2NIXWMxL1tDSF09QyhDKD1PKVtDSDJdW0NIMl1bQ0gyXVtDQEhdMltDSDNdKVxbQ0BASF0yW0NIMl1bQ0BASF0zW0NIMl1bQ0gyXUMoL1tDSDJdW05IXTMpPVtDSF1cQzQ9W0NIXU49QyhbQ0BASF00NSlbQ0hdPVtDSF1bQ0hdPU41

>  <s_glide_docking_method>  (1) 
confgen

>  <s_i_glide_gridfile>  (1) 
gpcr_5ht2c_6bqh_protein_autoprepared_prepared

>  <s_lp_Force_Field>  (1) 
S-OPLS

>  <s_lp_Variant>  (1) 
DiffSBDD_16-4

>  <s_m_source_file>  (1) 
generated_GPCR_5HT2C_ligand_DiffSBDD_2026-06-23_prepared.sdf

>  <GenAI_Model>  (1) 
DiffSBDD

>  <Protein>  (1) 
GPCR_5HT2C

$$$$
DiffSBDD_93
     RDKit          3D

  0  0  0  0  0  0  0  0  0  0999 V3000
M  V30 BEGIN CTAB
M  V30 COUNTS 84 85 0 0 1
M  V30 BEGIN ATOM
M  V30 1 C 38.581029 25.720309 58.307474 0
M  V30 2 O 37.494628 24.957311 57.814848 0
M  V30 3 C 39.589561 27.498297 50.646928 0
M  V30 4 C 40.187424 31.564948 61.134179 0
M  V30 5 O 39.694233 27.829757 59.730506 0
M  V30 6 C 38.265238 33.289154 57.362683 0
M  V30 7 N 39.124277 32.308631 57.147083 0
M  V30 8 O 38.045105 34.137634 56.518360 0
M  V30 9 O 40.833608 25.739778 54.037067 0
M  V30 10 C 41.147758 31.970051 62.227607 0
M  V30 11 C 39.569037 27.012683 52.039625 0
M  V30 12 C 39.056350 29.533053 58.183316 0
M  V30 13 C 37.989564 27.443983 56.550324 0
M  V30 14 C 38.041815 32.331041 59.860630 0 CFG=1
M  V30 15 C 37.532555 33.324761 58.750130 0 CFG=1
M  V30 16 C 38.445047 29.047211 52.222936 0 CFG=1
M  V30 17 C 37.908371 27.279684 54.022005 0 CFG=1
M  V30 18 C 37.215638 25.954761 53.878504 0
M  V30 19 C 37.649077 30.099572 58.483144 0
M  V30 20 S 40.045107 25.925443 55.504161 0 CHG=1
M  V30 21 O 35.643522 31.468773 61.367177 0
M  V30 22 N 38.618508 27.127500 57.858818 0
M  V30 23 O 39.084775 24.537970 55.586928 0
M  V30 24 O 40.258698 29.792228 50.609998 0
M  V30 25 F 38.345576 29.982193 54.409383 0
M  V30 26 C 39.803455 31.374612 62.577356 0
M  V30 27 C 35.972924 30.864704 60.133247 0
M  V30 28 C 37.484905 30.873070 59.808708 0 CFG=2
M  V30 29 C 39.155407 28.085493 58.656800 0
M  V30 30 C 37.464456 34.769931 59.328237 0
M  V30 31 C 39.295682 31.434711 53.027790 0
M  V30 32 C 38.874931 27.308499 55.277828 0 CFG=2
M  V30 33 O 35.645320 34.111680 60.720550 0
M  V30 34 C 39.488079 32.622031 60.299801 0
M  V30 35 C 39.086703 29.958079 53.303799 0 CFG=2
M  V30 36 C 36.572993 34.939099 60.561789 0
M  V30 37 C 39.166918 28.930600 50.843140 0 CFG=1
M  V30 38 O 36.845609 35.890588 61.326853 0 CHG=-1
M  V30 39 N 38.390760 27.641406 52.647345 0 CFG=2 CHG=1
M  V30 40 H 39.532244 25.219528 58.131172 0
M  V30 41 H 38.445864 25.684526 59.367804 0
M  V30 42 H 37.778354 24.059625 57.710412 0
M  V30 43 H 40.549204 27.359230 50.167368 0
M  V30 44 H 38.847147 26.937620 50.074525 0
M  V30 45 H 40.446348 30.656693 60.603330 0
M  V30 46 H 39.279812 31.615043 57.860934 0
M  V30 47 H 39.612613 32.254995 56.267656 0
M  V30 48 H 41.758107 25.732946 54.239059 0
M  V30 49 H 42.023778 31.349776 62.398991 0
M  V30 50 H 41.286954 33.033866 62.413317 0
M  V30 51 H 40.445009 27.424778 52.509709 0
M  V30 52 H 39.635884 25.940133 51.990979 0
M  V30 53 H 39.815590 30.122526 58.682825 0
M  V30 54 H 39.310948 29.613047 57.127486 0
M  V30 55 H 37.550264 28.437391 56.520539 0
M  V30 56 H 37.116108 26.814503 56.449816 0
M  V30 57 H 37.607976 32.643388 60.798664 0
M  V30 58 H 36.506465 33.059358 58.508242 0
M  V30 59 H 37.416477 29.337657 52.063817 0
M  V30 60 H 37.099303 27.982285 54.218032 0
M  V30 61 H 36.813468 25.534277 54.797074 0
M  V30 62 H 36.446317 25.937447 53.110770 0
M  V30 63 H 37.997344 25.337738 53.541253 0
M  V30 64 H 37.258293 30.675856 57.647918 0
M  V30 65 H 36.951284 29.262089 58.518429 0
M  V30 66 H 35.625000 32.421474 61.223596 0
M  V30 67 H 38.705860 24.414638 54.731513 0
M  V30 68 H 40.458204 29.794056 49.683801 0
M  V30 69 H 39.032368 32.037725 62.965459 0
M  V30 70 H 39.779322 30.353350 62.955647 0
M  V30 71 H 35.396888 31.355593 59.352061 0
M  V30 72 H 35.644908 29.829897 60.155123 0
M  V30 73 H 37.956568 30.287509 60.595945 0
M  V30 74 H 38.446294 35.067355 59.680833 0
M  V30 75 H 37.150260 35.493245 58.574976 0
M  V30 76 H 39.670721 31.677803 52.037543 0
M  V30 77 H 38.427022 32.057168 53.229738 0
M  V30 78 H 40.044678 31.737742 53.747452 0
M  V30 79 H 39.534293 28.169895 55.240759 0
M  V30 80 H 40.049081 32.937902 59.439947 0
M  V30 81 H 39.476900 33.525649 60.910386 0
M  V30 82 H 40.045040 29.537556 53.570702 0
M  V30 83 H 38.445356 28.945642 50.066294 0
M  V30 84 H 37.643112 27.277474 52.067514 0
M  V30 END ATOM
M  V30 BEGIN BOND
M  V30 1 1 2 1
M  V30 2 1 7 6
M  V30 3 2 8 6
M  V30 4 1 10 4
M  V30 5 1 11 3
M  V30 6 1 15 6
M  V30 7 1 15 14
M  V30 8 1 18 17
M  V30 9 1 19 12
M  V30 10 1 20 9
M  V30 11 1 22 1
M  V30 12 1 22 13
M  V30 13 1 23 20
M  V30 14 1 26 4
M  V30 15 1 26 10
M  V30 16 1 27 21
M  V30 17 1 28 14
M  V30 18 1 28 19
M  V30 19 1 28 27
M  V30 20 2 29 5
M  V30 21 1 29 12
M  V30 22 1 29 22
M  V30 23 1 30 15
M  V30 24 1 32 13
M  V30 25 1 32 17
M  V30 26 1 32 20
M  V30 27 1 34 4
M  V30 28 1 34 14
M  V30 29 1 35 16
M  V30 30 1 35 25
M  V30 31 1 35 31
M  V30 32 1 36 30
M  V30 33 2 36 33
M  V30 34 1 37 3
M  V30 35 1 37 16
M  V30 36 1 37 24
M  V30 37 1 38 36
M  V30 38 1 39 11
M  V30 39 1 39 16
M  V30 40 1 39 17
M  V30 41 1 40 1
M  V30 42 1 41 1
M  V30 43 1 42 2
M  V30 44 1 43 3
M  V30 45 1 44 3
M  V30 46 1 45 4
M  V30 47 1 46 7
M  V30 48 1 47 7
M  V30 49 1 48 9
M  V30 50 1 49 10
M  V30 51 1 50 10
M  V30 52 1 51 11
M  V30 53 1 52 11
M  V30 54 1 53 12
M  V30 55 1 54 12
M  V30 56 1 55 13
M  V30 57 1 56 13
M  V30 58 1 14 57 CFG=1
M  V30 59 1 15 58 CFG=3
M  V30 60 1 16 59 CFG=3
M  V30 61 1 17 60 CFG=1
M  V30 62 1 61 18
M  V30 63 1 62 18
M  V30 64 1 63 18
M  V30 65 1 64 19
M  V30 66 1 65 19
M  V30 67 1 66 21
M  V30 68 1 67 23
M  V30 69 1 68 24
M  V30 70 1 69 26
M  V30 71 1 70 26
M  V30 72 1 71 27
M  V30 73 1 72 27
M  V30 74 1 28 73 CFG=1
M  V30 75 1 74 30
M  V30 76 1 75 30
M  V30 77 1 76 31
M  V30 78 1 77 31
M  V30 79 1 78 31
M  V30 80 1 32 79 CFG=3
M  V30 81 1 80 34
M  V30 82 1 81 34
M  V30 83 1 35 82 CFG=1
M  V30 84 1 37 83 CFG=3
M  V30 85 1 39 84 CFG=3
M  V30 END BOND
M  V30 END CTAB
M  END
>  <i_epik_Tot_Q>  (1) 
1

>  <i_epik_Tot_abs_Q>  (1) 
3

>  <i_i_glide_confnum>  (1) 
2973

>  <i_i_glide_lignum>  (1) 
221

>  <i_i_glide_posenum>  (1) 
24

>  <i_i_glide_rotatable_bonds>  (1) 
24

>  <i_lp_mmshare_version>  (1) 
72125

>  <i_m_source_file_index>  (1) 
94

>  <i_f3d_flags>  (1) 
0

>  <num_sample>  (1) 
100

>  <b_lp_Chiralities_Consistent>  (1) 
1

>  <r_epik_Charging_Adjusted_Penalty>  (1) 
0.90916677635763199

>  <r_epik_Ionization_Penalty>  (1) 
0.45507897092921873

>  <r_epik_Ionization_Penalty_Charging>  (1) 
0.45507471778648678

>  <r_epik_Ionization_Penalty_Neutral>  (1) 
4.2531427319391784e-06

>  <r_epik_State_Penalty>  (1) 
0.45409205857114521

>  <r_glide_ring_energy>  (1) 
0

>  <r_i_docking_score>  (1) 
-1.4045109566140745

>  <r_i_glide_ecoul>  (1) 
-4.4477442145194104

>  <r_i_glide_eff_state_penalty>  (1) 
0.45409205857114521

>  <r_i_glide_einternal>  (1) 
7.7126819590227242

>  <r_i_glide_emodel>  (1) 
1.0153189924515331

>  <r_i_glide_emodel_strain>  (1) 
19.098036202831182

>  <r_i_glide_energy>  (1) 
-15.515611682700682

>  <r_i_glide_erotb>  (1) 
0.82188833391367333

>  <r_i_glide_esite>  (1) 
-0.098533929086964067

>  <r_i_glide_evdw>  (1) 
-11.067867468181271

>  <r_i_glide_gscore>  (1) 
-1.8586030151852198

>  <r_i_glide_gscore_strain>  (1) 
3.7745090507077954

>  <r_i_glide_hbond>  (1) 
-0.32000000000000001

>  <r_i_glide_ligand_efficiency>  (1) 
-0.036013101451642937

>  <r_i_glide_ligand_efficiency_ln>  (1) 
-0.30116701851249195

>  <r_i_glide_ligand_efficiency_sa>  (1) 
-0.12212804174124164

>  <r_i_glide_lipo>  (1) 
-2.8993054350604792

>  <r_i_glide_metal>  (1) 
-0

>  <r_i_glide_rewards>  (1) 
-1.9166060300722698

>  <r_lp_Energy>  (1) 
28.475997

>  <s_epik_Chemistry_Notes>  (1) 
This compound contains an acetal/aminal-like group ( X-CH(R)-Y where X, Y are N, S, or O) that may be acid/base labile, releasing an aldehyde.

>  <s_epik_cmdline>  (1) 
J2VwaWtfcHl0aG9uJywgJy1waHQnLCAnMS4wJywgJy1waCcsICc3LjQnLCAnLXRuJywgJzgnLCAnLW1hJywgJzUwMCcsICctaW1hZScsICc8aW5maWxlLm1hZT4nLCAnLW9tYWUnLCAnPG91dGZpbGUubWFlPic=

>  <s_epik_input>  (1) 
W0NIMl0xW0NIMl1bQ0hdMVtDSDJdW0NAQEhdKFtDQEBIXShDKD1PKVtOSDJdKVtDSDJdQyg9TylbT0hdKVtDQEBIXShbQ0gyXVtPSF0pW0NIMl1bQ0gyXUMoPU8pTihbQ0gyXVtPSF0pW0NIMl1bQ0BASF0oW1MrXShbT0hdKVtPSF0pW0NASF0oW0NIM10pTjJbQ0gyXVtDSDJdW0NASF0oW09IXSlbQ0BASF0yW0NASF0oRilbQ0gzXQ==

>  <s_glide_docking_method>  (1) 
confgen

>  <s_i_glide_gridfile>  (1) 
gpcr_5ht2c_6bqh_protein_autoprepared_prepared

>  <s_lp_Force_Field>  (1) 
S-OPLS

>  <s_lp_Variant>  (1) 
DiffSBDD_93-9

>  <s_m_source_file>  (1) 
generated_GPCR_5HT2C_ligand_DiffSBDD_2026-06-23_prepared.sdf

>  <GenAI_Model>  (1) 
DiffSBDD

>  <Protein>  (1) 
GPCR_5HT2C

$$$$
DiffSBDD_93
     RDKit          3D

  0  0  0  0  0  0  0  0  0  0999 V3000
M  V30 BEGIN CTAB
M  V30 COUNTS 84 85 0 0 1
M  V30 BEGIN ATOM
M  V30 1 C 40.511837 29.432643 60.187254 0
M  V30 2 O 40.445297 28.137814 60.731213 0
M  V30 3 C 38.266423 27.212760 53.609976 0
M  V30 4 C 35.252412 34.682786 58.537575 0
M  V30 5 O 38.899385 30.942882 61.846419 0
M  V30 6 C 37.184302 37.529713 61.367564 0
M  V30 7 N 37.645161 38.107064 60.265021 0
M  V30 8 O 36.511587 38.136883 62.198090 0
M  V30 9 O 40.535551 26.822029 55.996414 0
M  V30 10 C 33.865728 34.144054 58.842116 0
M  V30 11 C 37.921943 27.819219 54.955890 0
M  V30 12 C 37.015112 31.012566 60.385342 0
M  V30 13 C 38.590798 29.510303 58.502794 0
M  V30 14 C 37.145841 35.050572 60.374485 0 CFG=1
M  V30 15 C 37.508531 36.034920 61.567415 0 CFG=1
M  V30 16 C 38.440635 29.615758 53.437018 0 CFG=1
M  V30 17 C 39.357166 29.772205 55.889558 0 CFG=1
M  V30 18 C 39.050156 31.295411 56.041133 0
M  V30 19 C 36.873985 32.466928 59.873886 0
M  V30 20 S 40.346805 27.460361 57.548543 0 CHG=1
M  V30 21 O 34.845143 32.501637 61.767747 0
M  V30 22 N 39.163860 29.909671 59.835900 0
M  V30 23 O 39.107567 26.488899 58.191345 0
M  V30 24 O 38.445173 28.101976 51.401882 0
M  V30 25 F 40.451665 30.937572 53.621462 0
M  V30 26 C 34.045114 35.190365 57.753396 0
M  V30 27 C 35.515127 33.718938 61.729269 0
M  V30 28 C 36.828927 33.623273 60.933820 0 CFG=2
M  V30 29 C 38.445606 30.622362 60.749020 0
M  V30 30 C 38.820922 35.784905 62.386171 0
M  V30 31 C 39.738839 30.925978 51.513760 0
M  V30 32 C 39.577456 29.142878 57.342034 0 CFG=2
M  V30 33 O 40.226619 35.205496 60.567792 0
M  V30 34 C 36.087694 35.640905 59.359667 0
M  V30 35 C 39.801458 30.114827 52.818802 0 CFG=2
M  V30 36 C 40.142518 35.852259 61.629554 0
M  V30 37 C 37.909142 28.364450 52.681918 0 CFG=1
M  V30 38 O 41.049182 36.537789 62.138202 0 CHG=-1
M  V30 39 N 38.346355 29.235279 54.907696 0 CFG=2 CHG=1
M  V30 40 H 41.249798 29.461913 59.393781 0
M  V30 41 H 40.962788 30.071240 60.949438 0
M  V30 42 H 40.552209 28.193954 61.671235 0
M  V30 43 H 39.329414 26.972368 53.549362 0
M  V30 44 H 37.697006 26.307759 53.395564 0
M  V30 45 H 35.898520 34.066478 57.919035 0
M  V30 46 H 38.196652 37.571860 59.609095 0
M  V30 47 H 37.439835 39.079060 60.086117 0
M  V30 48 H 41.349949 26.334212 56.026654 0
M  V30 49 H 33.684877 33.109709 58.568189 0
M  V30 50 H 33.336849 34.441322 59.731782 0
M  V30 51 H 38.185400 27.235180 55.824576 0
M  V30 52 H 36.845143 27.839948 54.964930 0
M  V30 53 H 36.537104 30.315677 59.699475 0
M  V30 54 H 36.452645 30.848531 61.296819 0
M  V30 55 H 37.976489 30.327534 58.143843 0
M  V30 56 H 37.887898 28.693752 58.666095 0
M  V30 57 H 38.034314 34.924774 59.763595 0
M  V30 58 H 36.759487 35.834626 62.323991 0
M  V30 59 H 37.736377 30.439694 53.367842 0
M  V30 60 H 40.332541 29.631492 55.430049 0
M  V30 61 H 39.735337 31.798864 56.718965 0
M  V30 62 H 39.067966 31.856075 55.110492 0
M  V30 63 H 38.038217 31.470007 56.408099 0
M  V30 64 H 37.663640 32.663173 59.147846 0
M  V30 65 H 35.952892 32.439587 59.304502 0
M  V30 66 H 34.628151 32.259824 60.878598 0
M  V30 67 H 38.359872 26.578350 57.624882 0
M  V30 68 H 37.944502 27.399172 51.007452 0
M  V30 69 H 33.774652 36.239117 57.768148 0
M  V30 70 H 34.045132 34.937736 56.710878 0
M  V30 71 H 35.645122 34.137747 62.726497 0
M  V30 72 H 34.845212 34.412348 61.257406 0
M  V30 73 H 37.616487 33.368590 61.639785 0
M  V30 74 H 38.867837 36.496952 63.211125 0
M  V30 75 H 38.844873 34.804848 62.857524 0
M  V30 76 H 39.245151 30.396413 50.700083 0
M  V30 77 H 39.245667 31.887265 51.658716 0
M  V30 78 H 40.748504 31.148834 51.164687 0
M  V30 79 H 40.444982 29.743860 57.568371 0
M  V30 80 H 35.406720 36.367721 59.767788 0
M  V30 81 H 36.656316 36.226353 58.636120 0
M  V30 82 H 40.445095 29.275595 52.573346 0
M  V30 83 H 36.822993 28.432636 52.587270 0
M  V30 84 H 37.506439 29.711850 55.212019 0
M  V30 END ATOM
M  V30 BEGIN BOND
M  V30 1 1 2 1
M  V30 2 1 7 6
M  V30 3 2 8 6
M  V30 4 1 10 4
M  V30 5 1 11 3
M  V30 6 1 15 6
M  V30 7 1 15 14
M  V30 8 1 18 17
M  V30 9 1 19 12
M  V30 10 1 20 9
M  V30 11 1 22 1
M  V30 12 1 22 13
M  V30 13 1 23 20
M  V30 14 1 26 4
M  V30 15 1 26 10
M  V30 16 1 27 21
M  V30 17 1 28 14
M  V30 18 1 28 19
M  V30 19 1 28 27
M  V30 20 2 29 5
M  V30 21 1 29 12
M  V30 22 1 29 22
M  V30 23 1 30 15
M  V30 24 1 32 13
M  V30 25 1 32 17
M  V30 26 1 32 20
M  V30 27 1 34 4
M  V30 28 1 34 14
M  V30 29 1 35 16
M  V30 30 1 35 25
M  V30 31 1 35 31
M  V30 32 1 36 30
M  V30 33 2 36 33
M  V30 34 1 37 3
M  V30 35 1 37 16
M  V30 36 1 37 24
M  V30 37 1 38 36
M  V30 38 1 39 11
M  V30 39 1 39 16
M  V30 40 1 39 17
M  V30 41 1 40 1
M  V30 42 1 41 1
M  V30 43 1 42 2
M  V30 44 1 43 3
M  V30 45 1 44 3
M  V30 46 1 45 4
M  V30 47 1 46 7
M  V30 48 1 47 7
M  V30 49 1 48 9
M  V30 50 1 49 10
M  V30 51 1 50 10
M  V30 52 1 51 11
M  V30 53 1 52 11
M  V30 54 1 53 12
M  V30 55 1 54 12
M  V30 56 1 55 13
M  V30 57 1 56 13
M  V30 58 1 14 57 CFG=3
M  V30 59 1 15 58 CFG=1
M  V30 60 1 16 59 CFG=1
M  V30 61 1 17 60 CFG=3
M  V30 62 1 61 18
M  V30 63 1 62 18
M  V30 64 1 63 18
M  V30 65 1 64 19
M  V30 66 1 65 19
M  V30 67 1 66 21
M  V30 68 1 67 23
M  V30 69 1 68 24
M  V30 70 1 69 26
M  V30 71 1 70 26
M  V30 72 1 71 27
M  V30 73 1 72 27
M  V30 74 1 28 73 CFG=1
M  V30 75 1 74 30
M  V30 76 1 75 30
M  V30 77 1 76 31
M  V30 78 1 77 31
M  V30 79 1 78 31
M  V30 80 1 32 79 CFG=1
M  V30 81 1 80 34
M  V30 82 1 81 34
M  V30 83 1 35 82 CFG=3
M  V30 84 1 37 83 CFG=3
M  V30 85 1 39 84 CFG=1
M  V30 END BOND
M  V30 END CTAB
M  END
>  <i_epik_Tot_Q>  (1) 
1

>  <i_epik_Tot_abs_Q>  (1) 
3

>  <i_i_glide_confnum>  (1) 
8265

>  <i_i_glide_lignum>  (1) 
221

>  <i_i_glide_posenum>  (1) 
30

>  <i_i_glide_rotatable_bonds>  (1) 
24

>  <i_lp_mmshare_version>  (1) 
72125

>  <i_m_source_file_index>  (1) 
94

>  <i_f3d_flags>  (1) 
0

>  <num_sample>  (1) 
100

>  <b_lp_Chiralities_Consistent>  (1) 
1

>  <r_epik_Charging_Adjusted_Penalty>  (1) 
0.90916677635763199

>  <r_epik_Ionization_Penalty>  (1) 
0.45507897092921873

>  <r_epik_Ionization_Penalty_Charging>  (1) 
0.45507471778648678

>  <r_epik_Ionization_Penalty_Neutral>  (1) 
4.2531427319391784e-06

>  <r_epik_State_Penalty>  (1) 
0.45409205857114521

>  <r_glide_ring_energy>  (1) 
0

>  <r_i_docking_score>  (1) 
-1.3984201533370195

>  <r_i_glide_ecoul>  (1) 
-3.2648411824238028

>  <r_i_glide_eff_state_penalty>  (1) 
0.45409205857114521

>  <r_i_glide_einternal>  (1) 
25.413525675639747

>  <r_i_glide_emodel>  (1) 
-2.7414369577871796

>  <r_i_glide_emodel_strain>  (1) 
22.07133031571837

>  <r_i_glide_energy>  (1) 
-31.117133795443479

>  <r_i_glide_erotb>  (1) 
0.82188833391367333

>  <r_i_glide_esite>  (1) 
0

>  <r_i_glide_evdw>  (1) 
-27.852292613019678

>  <r_i_glide_gscore>  (1) 
-1.8525122119081647

>  <r_i_glide_gscore_strain>  (1) 
4.5178325789295926

>  <r_i_glide_hbond>  (1) 
-0.2164419779008534

>  <r_i_glide_ligand_efficiency>  (1) 
-0.035856927008641529

>  <r_i_glide_ligand_efficiency_ln>  (1) 
-0.29986097739215856

>  <r_i_glide_ligand_efficiency_sa>  (1) 
-0.1215984211830289

>  <r_i_glide_lipo>  (1) 
-2.9638132492400224

>  <r_i_glide_metal>  (1) 
-0

>  <r_i_glide_rewards>  (1) 
-2.1296370895960002

>  <r_lp_Energy>  (1) 
28.475997

>  <s_epik_Chemistry_Notes>  (1) 
This compound contains an acetal/aminal-like group ( X-CH(R)-Y where X, Y are N, S, or O) that may be acid/base labile, releasing an aldehyde.

>  <s_epik_cmdline>  (1) 
J2VwaWtfcHl0aG9uJywgJy1waHQnLCAnMS4wJywgJy1waCcsICc3LjQnLCAnLXRuJywgJzgnLCAnLW1hJywgJzUwMCcsICctaW1hZScsICc8aW5maWxlLm1hZT4nLCAnLW9tYWUnLCAnPG91dGZpbGUubWFlPic=

>  <s_epik_input>  (1) 
W0NIMl0xW0NIMl1bQ0hdMVtDSDJdW0NAQEhdKFtDQEBIXShDKD1PKVtOSDJdKVtDSDJdQyg9TylbT0hdKVtDQEBIXShbQ0gyXVtPSF0pW0NIMl1bQ0gyXUMoPU8pTihbQ0gyXVtPSF0pW0NIMl1bQ0BASF0oW1MrXShbT0hdKVtPSF0pW0NASF0oW0NIM10pTjJbQ0gyXVtDSDJdW0NASF0oW09IXSlbQ0BASF0yW0NASF0oRilbQ0gzXQ==

>  <s_glide_docking_method>  (1) 
confgen

>  <s_i_glide_gridfile>  (1) 
gpcr_5ht2c_6bqh_protein_autoprepared_prepared

>  <s_lp_Force_Field>  (1) 
S-OPLS

>  <s_lp_Variant>  (1) 
DiffSBDD_93-9

>  <s_m_source_file>  (1) 
generated_GPCR_5HT2C_ligand_DiffSBDD_2026-06-23_prepared.sdf

>  <GenAI_Model>  (1) 
DiffSBDD

>  <Protein>  (1) 
GPCR_5HT2C

$$$$
DiffSBDD_27
     RDKit          3D

  0  0  0  0  0  0  0  0  0  0999 V3000
M  V30 BEGIN CTAB
M  V30 COUNTS 43 42 0 0 1
M  V30 BEGIN ATOM
M  V30 1 Cl 37.288440 31.891105 61.394399 0
M  V30 2 C 38.194872 28.637648 58.044121 0
M  V30 3 C 39.644773 29.743366 56.215303 0
M  V30 4 O 36.045181 30.537742 58.967763 0
M  V30 5 C 38.316636 29.776903 59.086893 0
M  V30 6 C 40.125311 28.137834 51.131215 0
M  V30 7 C 37.634117 32.225281 59.674626 0 CFG=2
M  V30 8 C 36.808222 33.435060 59.190455 0
M  V30 9 C 39.244423 29.707012 53.668549 0
M  V30 10 C 37.378493 30.969221 58.817982 0 CFG=2
M  V30 11 C 40.045093 30.304692 49.867776 0
M  V30 12 O 37.209095 34.622356 59.844672 0
M  V30 13 C 39.622610 30.538433 54.902410 0
M  V30 14 C 39.515586 29.540814 51.088567 0
M  V30 15 C 39.776010 30.346948 52.375599 0
M  V30 16 C 38.310170 29.065660 56.565545 0
M  V30 17 H 38.947061 27.878647 58.260751 0
M  V30 18 H 37.231427 28.143534 58.167775 0
M  V30 19 H 39.924750 30.445295 56.997707 0
M  V30 20 H 40.435929 28.992597 56.187241 0
M  V30 21 H 35.560959 30.994915 58.274484 0
M  V30 22 H 39.347354 30.128392 59.120491 0
M  V30 23 H 38.120103 29.372316 60.080448 0
M  V30 24 H 41.185885 28.198164 51.367754 0
M  V30 25 H 39.645129 27.505460 51.877430 0
M  V30 26 H 40.021000 27.630762 50.171327 0
M  V30 27 H 38.692227 32.481280 59.611779 0
M  V30 28 H 35.742819 33.271666 59.358223 0
M  V30 29 H 36.940038 33.579968 58.117080 0
M  V30 30 H 39.645132 28.702266 53.784805 0
M  V30 31 H 38.161016 29.593865 53.615399 0
M  V30 32 H 37.511859 31.286738 57.785140 0
M  V30 33 H 41.119050 30.481768 49.939231 0
M  V30 34 H 39.860776 29.737811 48.956231 0
M  V30 35 H 39.552909 31.272366 49.763772 0
M  V30 36 H 36.700381 35.337953 59.492970 0
M  V30 37 H 38.944677 31.388593 54.990425 0
M  V30 38 H 40.616838 30.964947 54.763135 0
M  V30 39 H 38.445141 29.404068 50.967768 0
M  V30 40 H 39.365461 31.352964 52.285702 0
M  V30 41 H 40.845135 30.499237 52.466406 0
M  V30 42 H 38.186060 28.184860 55.934674 0
M  V30 43 H 37.475958 29.715660 56.300797 0
M  V30 END ATOM
M  V30 BEGIN BOND
M  V30 1 1 5 2
M  V30 2 1 7 1
M  V30 3 1 8 7
M  V30 4 1 10 4
M  V30 5 1 10 5
M  V30 6 1 10 7
M  V30 7 1 12 8
M  V30 8 1 13 3
M  V30 9 1 13 9
M  V30 10 1 14 6
M  V30 11 1 14 11
M  V30 12 1 15 9
M  V30 13 1 15 14
M  V30 14 1 16 2
M  V30 15 1 16 3
M  V30 16 1 17 2
M  V30 17 1 18 2
M  V30 18 1 19 3
M  V30 19 1 20 3
M  V30 20 1 21 4
M  V30 21 1 22 5
M  V30 22 1 23 5
M  V30 23 1 24 6
M  V30 24 1 25 6
M  V30 25 1 26 6
M  V30 26 1 7 27 CFG=1
M  V30 27 1 28 8
M  V30 28 1 29 8
M  V30 29 1 30 9
M  V30 30 1 31 9
M  V30 31 1 10 32 CFG=3
M  V30 32 1 33 11
M  V30 33 1 34 11
M  V30 34 1 35 11
M  V30 35 1 36 12
M  V30 36 1 37 13
M  V30 37 1 38 13
M  V30 38 1 39 14
M  V30 39 1 40 15
M  V30 40 1 41 15
M  V30 41 1 42 16
M  V30 42 1 43 16
M  V30 END BOND
M  V30 END CTAB
M  END
>  <i_epik_Tot_Q>  (1) 
0

>  <i_epik_Tot_abs_Q>  (1) 
0

>  <i_i_glide_confnum>  (1) 
503

>  <i_i_glide_lignum>  (1) 
69

>  <i_i_glide_posenum>  (1) 
250

>  <i_i_glide_rotatable_bonds>  (1) 
12

>  <i_lp_mmshare_version>  (1) 
72125

>  <i_m_source_file_index>  (1) 
28

>  <i_f3d_flags>  (1) 
0

>  <num_sample>  (1) 
100

>  <b_lp_Chiralities_Consistent>  (1) 
1

>  <r_epik_Charging_Adjusted_Penalty>  (1) 
0

>  <r_epik_Ionization_Penalty>  (1) 
1.1488326125260632e-06

>  <r_epik_Ionization_Penalty_Charging>  (1) 
0

>  <r_epik_Ionization_Penalty_Neutral>  (1) 
1.1488326125260632e-06

>  <r_epik_State_Penalty>  (1) 
-0

>  <r_glide_ring_energy>  (1) 
0

>  <r_i_docking_score>  (1) 
-1.364151659021489

>  <r_i_glide_ecoul>  (1) 
-7.3706426511573131

>  <r_i_glide_eff_state_penalty>  (1) 
-0

>  <r_i_glide_einternal>  (1) 
8.6995722982117165

>  <r_i_glide_emodel>  (1) 
-27.277952531164765

>  <r_i_glide_emodel_strain>  (1) 
0.8542468585765377

>  <r_i_glide_energy>  (1) 
-29.866847798544185

>  <r_i_glide_erotb>  (1) 
5.0120571657308659

>  <r_i_glide_esite>  (1) 
0

>  <r_i_glide_evdw>  (1) 
-22.496205147386874

>  <r_i_glide_gscore>  (1) 
-1.364151659021489

>  <r_i_glide_gscore_strain>  (1) 
0

>  <r_i_glide_hbond>  (1) 
-0.16

>  <r_i_glide_ligand_efficiency>  (1) 
-0.085259478688843066

>  <r_i_glide_ligand_efficiency_ln>  (1) 
-0.36159564677158712

>  <r_i_glide_ligand_efficiency_sa>  (1) 
-0.21484042380627347

>  <r_i_glide_lipo>  (1) 
-1.8221354507371272

>  <r_i_glide_metal>  (1) 
-0

>  <r_i_glide_rewards>  (1) 
-2.1636667189722867

>  <r_lp_Energy>  (1) 
8.3153009999999998

>  <r_lp_tautomer_probability>  (1) 
1

>  <s_epik_cmdline>  (1) 
J2VwaWtfcHl0aG9uJywgJy1waHQnLCAnMS4wJywgJy1waCcsICc3LjQnLCAnLXRuJywgJzgnLCAnLW1hJywgJzUwMCcsICctaW1hZScsICc8aW5maWxlLm1hZT4nLCAnLW9tYWUnLCAnPG91dGZpbGUubWFlPic=

>  <s_epik_input>  (1) 
W09IXVtDSDJdW0NASF0oQ2wpW0NASF0oW09IXSlbQ0gyXVtDSDJdW0NIMl1bQ0gyXVtDSDJdW0NIMl1bQ0gyXVtDSF0oW0NIM10pW0NIM10=

>  <s_glide_docking_method>  (1) 
confgen

>  <s_i_glide_gridfile>  (1) 
gpcr_5ht2c_6bqh_protein_autoprepared_prepared

>  <s_lp_Force_Field>  (1) 
S-OPLS

>  <s_lp_Variant>  (1) 
DiffSBDD_27-2

>  <s_m_source_file>  (1) 
generated_GPCR_5HT2C_ligand_DiffSBDD_2026-06-23_prepared.sdf

>  <GenAI_Model>  (1) 
DiffSBDD

>  <Protein>  (1) 
GPCR_5HT2C

$$$$
DiffSBDD_27
     RDKit          3D

  0  0  0  0  0  0  0  0  0  0999 V3000
M  V30 BEGIN CTAB
M  V30 COUNTS 43 42 0 0 1
M  V30 BEGIN ATOM
M  V30 1 Cl 38.142033 32.537747 61.993660 0
M  V30 2 C 38.371783 32.985404 57.537238 0
M  V30 3 C 39.121927 31.868516 55.379119 0
M  V30 4 O 36.803852 35.061840 59.235794 0
M  V30 5 C 37.563151 32.791312 58.822033 0
M  V30 6 C 39.779612 28.683809 49.898242 0
M  V30 7 C 37.024301 33.669315 61.172337 0 CFG=2
M  V30 8 C 35.569614 33.137328 61.199414 0
M  V30 9 C 39.663113 30.839719 53.138893 0
M  V30 10 C 37.572411 34.001416 59.770008 0 CFG=2
M  V30 11 C 41.341283 30.455304 50.602918 0
M  V30 12 O 35.491162 31.743891 60.956440 0
M  V30 13 C 39.012164 30.617440 54.503610 0
M  V30 14 C 39.912254 29.936935 50.742402 0
M  V30 15 C 39.492168 29.644462 52.191626 0
M  V30 16 C 38.470017 31.675127 56.746124 0
M  V30 17 H 37.900861 33.755764 56.925727 0
M  V30 18 H 39.375474 33.337753 57.774468 0
M  V30 19 H 38.642001 32.703704 54.866976 0
M  V30 20 H 40.168706 32.137766 55.513614 0
M  V30 21 H 36.946310 35.118784 58.299876 0
M  V30 22 H 37.969879 31.922373 59.339238 0
M  V30 23 H 36.535765 32.537551 58.567762 0
M  V30 24 H 40.445069 27.890573 50.239314 0
M  V30 25 H 38.768541 28.291445 49.915141 0
M  V30 26 H 40.045137 28.937755 48.876787 0
M  V30 27 H 37.052078 34.589183 61.757882 0
M  V30 28 H 34.944404 33.665105 60.478201 0
M  V30 29 H 35.118998 33.337747 62.167758 0
M  V30 30 H 39.245152 31.735727 52.679025 0
M  V30 31 H 40.722173 31.040666 53.295227 0
M  V30 32 H 38.596856 34.360822 59.876965 0
M  V30 33 H 42.061333 29.732263 50.967756 0
M  V30 34 H 41.592885 30.705762 49.571825 0
M  V30 35 H 41.474567 31.337754 51.203052 0
M  V30 36 H 35.664138 31.593399 60.036918 0
M  V30 37 H 39.481041 29.769249 55.003992 0
M  V30 38 H 37.959965 30.361397 54.370896 0
M  V30 39 H 39.245155 30.697335 50.334734 0
M  V30 40 H 40.045127 28.787037 52.567803 0
M  V30 41 H 38.445335 29.337666 52.190389 0
M  V30 42 H 39.031170 30.935720 57.318864 0
M  V30 43 H 37.475351 31.255696 56.605912 0
M  V30 END ATOM
M  V30 BEGIN BOND
M  V30 1 1 5 2
M  V30 2 1 7 1
M  V30 3 1 8 7
M  V30 4 1 10 4
M  V30 5 1 10 5
M  V30 6 1 10 7
M  V30 7 1 12 8
M  V30 8 1 13 3
M  V30 9 1 13 9
M  V30 10 1 14 6
M  V30 11 1 14 11
M  V30 12 1 15 9
M  V30 13 1 15 14
M  V30 14 1 16 2
M  V30 15 1 16 3
M  V30 16 1 17 2
M  V30 17 1 18 2
M  V30 18 1 19 3
M  V30 19 1 20 3
M  V30 20 1 21 4
M  V30 21 1 22 5
M  V30 22 1 23 5
M  V30 23 1 24 6
M  V30 24 1 25 6
M  V30 25 1 26 6
M  V30 26 1 7 27 CFG=1
M  V30 27 1 28 8
M  V30 28 1 29 8
M  V30 29 1 30 9
M  V30 30 1 31 9
M  V30 31 1 10 32 CFG=1
M  V30 32 1 33 11
M  V30 33 1 34 11
M  V30 34 1 35 11
M  V30 35 1 36 12
M  V30 36 1 37 13
M  V30 37 1 38 13
M  V30 38 1 39 14
M  V30 39 1 40 15
M  V30 40 1 41 15
M  V30 41 1 42 16
M  V30 42 1 43 16
M  V30 END BOND
M  V30 END CTAB
M  END
>  <i_epik_Tot_Q>  (1) 
0

>  <i_epik_Tot_abs_Q>  (1) 
0

>  <i_i_glide_confnum>  (1) 
261

>  <i_i_glide_lignum>  (1) 
69

>  <i_i_glide_posenum>  (1) 
136

>  <i_i_glide_rotatable_bonds>  (1) 
12

>  <i_lp_mmshare_version>  (1) 
72125

>  <i_m_source_file_index>  (1) 
28

>  <i_f3d_flags>  (1) 
0

>  <num_sample>  (1) 
100

>  <b_lp_Chiralities_Consistent>  (1) 
1

>  <r_epik_Charging_Adjusted_Penalty>  (1) 
0

>  <r_epik_Ionization_Penalty>  (1) 
1.1488326125260632e-06

>  <r_epik_Ionization_Penalty_Charging>  (1) 
0

>  <r_epik_Ionization_Penalty_Neutral>  (1) 
1.1488326125260632e-06

>  <r_epik_State_Penalty>  (1) 
-0

>  <r_glide_ring_energy>  (1) 
0

>  <r_i_docking_score>  (1) 
-1.3337663078465001

>  <r_i_glide_ecoul>  (1) 
-4.3445931546521646

>  <r_i_glide_eff_state_penalty>  (1) 
-0

>  <r_i_glide_einternal>  (1) 
2.4907573388340571

>  <r_i_glide_emodel>  (1) 
-29.583143169863469

>  <r_i_glide_emodel_strain>  (1) 
0.13954016785363166

>  <r_i_glide_energy>  (1) 
-28.411174299431686

>  <r_i_glide_erotb>  (1) 
5.0120571657308659

>  <r_i_glide_esite>  (1) 
0

>  <r_i_glide_evdw>  (1) 
-24.066581144779519

>  <r_i_glide_gscore>  (1) 
-1.3337663078465001

>  <r_i_glide_gscore_strain>  (1) 
0

>  <r_i_glide_hbond>  (1) 
-0.22991488532364288

>  <r_i_glide_ligand_efficiency>  (1) 
-0.083360394240406255

>  <r_i_glide_ligand_efficiency_ln>  (1) 
-0.3535414024814888

>  <r_i_glide_ligand_efficiency_sa>  (1) 
-0.21005503086204638

>  <r_i_glide_lipo>  (1) 
-2.0611553753254195

>  <r_i_glide_metal>  (1) 
-0

>  <r_i_glide_rewards>  (1) 
-2.1997351824915032

>  <r_lp_Energy>  (1) 
8.3153009999999998

>  <r_lp_tautomer_probability>  (1) 
1

>  <s_epik_cmdline>  (1) 
J2VwaWtfcHl0aG9uJywgJy1waHQnLCAnMS4wJywgJy1waCcsICc3LjQnLCAnLXRuJywgJzgnLCAnLW1hJywgJzUwMCcsICctaW1hZScsICc8aW5maWxlLm1hZT4nLCAnLW9tYWUnLCAnPG91dGZpbGUubWFlPic=

>  <s_epik_input>  (1) 
W09IXVtDSDJdW0NASF0oQ2wpW0NASF0oW09IXSlbQ0gyXVtDSDJdW0NIMl1bQ0gyXVtDSDJdW0NIMl1bQ0gyXVtDSF0oW0NIM10pW0NIM10=

>  <s_glide_docking_method>  (1) 
confgen

>  <s_i_glide_gridfile>  (1) 
gpcr_5ht2c_6bqh_protein_autoprepared_prepared

>  <s_lp_Force_Field>  (1) 
S-OPLS

>  <s_lp_Variant>  (1) 
DiffSBDD_27-2

>  <s_m_source_file>  (1) 
generated_GPCR_5HT2C_ligand_DiffSBDD_2026-06-23_prepared.sdf

>  <GenAI_Model>  (1) 
DiffSBDD

>  <Protein>  (1) 
GPCR_5HT2C

$$$$
DiffSBDD_27
     RDKit          3D

  0  0  0  0  0  0  0  0  0  0999 V3000
M  V30 BEGIN CTAB
M  V30 COUNTS 43 42 0 0 1
M  V30 BEGIN ATOM
M  V30 1 Cl 38.852763 35.433912 60.968546 0
M  V30 2 C 37.874326 31.531190 58.887558 0
M  V30 3 C 38.796470 30.901813 56.588670 0
M  V30 4 O 35.706671 33.527953 59.367870 0
M  V30 5 C 37.837526 32.631530 59.960989 0
M  V30 6 C 39.798474 29.051361 51.483927 0
M  V30 7 C 37.152387 35.056974 60.558983 0 CFG=1
M  V30 8 C 36.471529 36.351521 60.074327 0
M  V30 9 C 39.811140 30.369968 54.296031 0
M  V30 10 C 37.063017 33.899054 59.538186 0 CFG=2
M  V30 11 C 37.781168 27.737765 52.204732 0
M  V30 12 O 37.119663 36.937757 58.967763 0
M  V30 13 C 39.349134 31.457858 55.270036 0
M  V30 14 C 39.028330 28.475004 52.688428 0
M  V30 15 C 38.647643 29.522285 53.754136 0
M  V30 16 C 38.443277 32.031543 57.552212 0
M  V30 17 H 38.486181 30.708953 59.259878 0
M  V30 18 H 36.877354 31.117194 58.728446 0
M  V30 19 H 39.530157 30.238654 57.047998 0
M  V30 20 H 37.901747 30.306440 56.404974 0
M  V30 21 H 35.645136 32.908246 58.645421 0
M  V30 22 H 38.870724 32.886293 60.194291 0
M  V30 23 H 37.415559 32.228846 60.882935 0
M  V30 24 H 39.245044 29.858415 51.003806 0
M  V30 25 H 40.776441 29.437644 51.767781 0
M  V30 26 H 39.976473 28.283425 50.730178 0
M  V30 27 H 36.679672 34.739826 61.489620 0
M  V30 28 H 36.445136 37.084696 60.880812 0
M  V30 29 H 35.451397 36.143276 59.767761 0
M  V30 30 H 40.329449 30.862750 53.473575 0
M  V30 31 H 40.542841 29.737746 54.794041 0
M  V30 32 H 37.442339 34.269739 58.586962 0
M  V30 33 H 37.063744 28.429329 51.767760 0
M  V30 34 H 38.045137 26.994323 51.450832 0
M  V30 35 H 37.282061 27.215918 53.021954 0
M  V30 36 H 36.900007 36.431948 58.193840 0
M  V30 37 H 38.601041 32.091160 54.790048 0
M  V30 38 H 40.195582 32.107348 55.492092 0
M  V30 39 H 39.645196 27.720696 53.170149 0
M  V30 40 H 38.174381 28.995198 54.582505 0
M  V30 41 H 37.882718 30.189976 53.367761 0
M  V30 42 H 37.710695 32.675747 57.063509 0
M  V30 43 H 39.323287 32.647970 57.731812 0
M  V30 END ATOM
M  V30 BEGIN BOND
M  V30 1 1 5 2
M  V30 2 1 7 1
M  V30 3 1 8 7
M  V30 4 1 10 4
M  V30 5 1 10 5
M  V30 6 1 10 7
M  V30 7 1 12 8
M  V30 8 1 13 3
M  V30 9 1 13 9
M  V30 10 1 14 6
M  V30 11 1 14 11
M  V30 12 1 15 9
M  V30 13 1 15 14
M  V30 14 1 16 2
M  V30 15 1 16 3
M  V30 16 1 17 2
M  V30 17 1 18 2
M  V30 18 1 19 3
M  V30 19 1 20 3
M  V30 20 1 21 4
M  V30 21 1 22 5
M  V30 22 1 23 5
M  V30 23 1 24 6
M  V30 24 1 25 6
M  V30 25 1 26 6
M  V30 26 1 7 27 CFG=1
M  V30 27 1 28 8
M  V30 28 1 29 8
M  V30 29 1 30 9
M  V30 30 1 31 9
M  V30 31 1 10 32 CFG=3
M  V30 32 1 33 11
M  V30 33 1 34 11
M  V30 34 1 35 11
M  V30 35 1 36 12
M  V30 36 1 37 13
M  V30 37 1 38 13
M  V30 38 1 39 14
M  V30 39 1 40 15
M  V30 40 1 41 15
M  V30 41 1 42 16
M  V30 42 1 43 16
M  V30 END BOND
M  V30 END CTAB
M  END
>  <i_epik_Tot_Q>  (1) 
0

>  <i_epik_Tot_abs_Q>  (1) 
0

>  <i_i_glide_confnum>  (1) 
365

>  <i_i_glide_lignum>  (1) 
68

>  <i_i_glide_posenum>  (1) 
185

>  <i_i_glide_rotatable_bonds>  (1) 
12

>  <i_lp_mmshare_version>  (1) 
72125

>  <i_m_source_file_index>  (1) 
28

>  <i_f3d_flags>  (1) 
0

>  <num_sample>  (1) 
100

>  <b_lp_Chiralities_Consistent>  (1) 
1

>  <r_epik_Charging_Adjusted_Penalty>  (1) 
0

>  <r_epik_Ionization_Penalty>  (1) 
1.1488326125260632e-06

>  <r_epik_Ionization_Penalty_Charging>  (1) 
0

>  <r_epik_Ionization_Penalty_Neutral>  (1) 
1.1488326125260632e-06

>  <r_epik_State_Penalty>  (1) 
-0

>  <r_glide_ring_energy>  (1) 
0

>  <r_i_docking_score>  (1) 
-1.3148759657518319

>  <r_i_glide_ecoul>  (1) 
-5.0948487749799574

>  <r_i_glide_eff_state_penalty>  (1) 
-0

>  <r_i_glide_einternal>  (1) 
5.0199140582098023

>  <r_i_glide_emodel>  (1) 
-28.70479304107376

>  <r_i_glide_emodel_strain>  (1) 
0.17485304474191921

>  <r_i_glide_energy>  (1) 
-28.862095695745733

>  <r_i_glide_erotb>  (1) 
5.0120571657308659

>  <r_i_glide_esite>  (1) 
0

>  <r_i_glide_evdw>  (1) 
-23.767246920765775

>  <r_i_glide_gscore>  (1) 
-1.3148759657518319

>  <r_i_glide_gscore_strain>  (1) 
0

>  <r_i_glide_hbond>  (1) 
-0.45772878038111353

>  <r_i_glide_ligand_efficiency>  (1) 
-0.082179747859489491

>  <r_i_glide_ligand_efficiency_ln>  (1) 
-0.34853413996614813

>  <r_i_glide_ligand_efficiency_sa>  (1) 
-0.20707998840644792

>  <r_i_glide_lipo>  (1) 
-1.9845636460337674

>  <r_i_glide_metal>  (1) 
-0

>  <r_i_glide_rewards>  (1) 
-1.9320510427825344

>  <r_lp_Energy>  (1) 
6.3724119999999997

>  <r_lp_tautomer_probability>  (1) 
1

>  <s_epik_cmdline>  (1) 
J2VwaWtfcHl0aG9uJywgJy1waHQnLCAnMS4wJywgJy1waCcsICc3LjQnLCAnLXRuJywgJzgnLCAnLW1hJywgJzUwMCcsICctaW1hZScsICc8aW5maWxlLm1hZT4nLCAnLW9tYWUnLCAnPG91dGZpbGUubWFlPic=

>  <s_epik_input>  (1) 
W09IXVtDSDJdW0NASF0oQ2wpW0NASF0oW09IXSlbQ0gyXVtDSDJdW0NIMl1bQ0gyXVtDSDJdW0NIMl1bQ0gyXVtDSF0oW0NIM10pW0NIM10=

>  <s_glide_docking_method>  (1) 
confgen

>  <s_i_glide_gridfile>  (1) 
gpcr_5ht2c_6bqh_protein_autoprepared_prepared

>  <s_lp_Force_Field>  (1) 
S-OPLS

>  <s_lp_Variant>  (1) 
DiffSBDD_27-1

>  <s_m_source_file>  (1) 
generated_GPCR_5HT2C_ligand_DiffSBDD_2026-06-23_prepared.sdf

>  <GenAI_Model>  (1) 
DiffSBDD

>  <Protein>  (1) 
GPCR_5HT2C

$$$$
DiffSBDD_31
     RDKit          3D

  0  0  0  0  0  0  0  0  0  0999 V3000
M  V30 BEGIN CTAB
M  V30 COUNTS 40 39 0 0 1
M  V30 BEGIN ATOM
M  V30 1 S 38.585768 29.737646 53.756652 0
M  V30 2 C 39.541674 29.982943 55.258160 0
M  V30 3 C 40.873317 30.254834 50.261516 0
M  V30 4 C 39.566183 31.467183 55.591492 0
M  V30 5 C 38.979817 27.395320 51.603687 0
M  V30 6 C 38.301317 31.882547 56.313424 0
M  V30 7 N 35.115477 32.327186 59.375055 0 CHG=1
M  V30 8 C 39.772914 29.666276 51.164924 0 CFG=1
M  V30 9 C 37.284084 33.500551 58.999430 0
M  V30 10 C 35.874940 33.568344 59.613997 0
M  V30 11 O 40.071367 28.271289 51.297882 0
M  V30 12 C 38.460507 33.304524 56.820529 0
M  V30 13 N 37.252196 33.734287 57.542201 0 CHG=1
M  V30 14 C 39.750996 30.411634 52.520390 0
M  V30 15 H 39.115122 29.386627 56.072786 0
M  V30 16 H 40.540944 29.578107 55.096944 0
M  V30 17 H 40.729415 31.320992 50.086616 0
M  V30 18 H 41.864999 30.134669 50.695427 0
M  V30 19 H 40.882383 29.763316 49.291803 0
M  V30 20 H 40.431537 31.703563 56.185411 0
M  V30 21 H 39.676652 32.051934 54.683053 0
M  V30 22 H 39.297836 26.364410 51.421301 0
M  V30 23 H 38.094418 27.554891 50.980783 0
M  V30 24 H 38.676621 27.422684 52.647261 0
M  V30 25 H 37.454971 31.803972 55.629927 0
M  V30 26 H 38.097996 31.204283 57.143385 0
M  V30 27 H 34.192160 32.386584 59.770023 0
M  V30 28 H 35.049832 32.137691 58.347155 0
M  V30 29 H 38.834467 29.808197 50.651246 0
M  V30 30 H 37.752901 32.540261 59.225240 0
M  V30 31 H 37.918692 34.271343 59.439464 0
M  V30 32 H 35.955725 33.704286 60.692832 0
M  V30 33 H 35.314404 34.419898 59.220556 0
M  V30 34 H 39.335999 33.354151 57.469948 0
M  V30 35 H 38.621491 33.978023 55.975521 0
M  V30 36 H 37.083969 34.712814 57.369802 0
M  V30 37 H 40.739635 30.389718 52.961540 0
M  V30 38 H 39.557405 31.474891 52.360147 0
M  V30 39 H 36.494063 33.189580 57.117760 0
M  V30 40 H 35.605618 31.539576 59.759314 0
M  V30 END ATOM
M  V30 BEGIN BOND
M  V30 1 1 2 1
M  V30 2 1 4 2
M  V30 3 1 6 4
M  V30 4 1 8 3
M  V30 5 1 10 7
M  V30 6 1 10 9
M  V30 7 1 11 5
M  V30 8 1 11 8
M  V30 9 1 12 6
M  V30 10 1 13 9
M  V30 11 1 13 12
M  V30 12 1 14 1
M  V30 13 1 14 8
M  V30 14 1 15 2
M  V30 15 1 16 2
M  V30 16 1 17 3
M  V30 17 1 18 3
M  V30 18 1 19 3
M  V30 19 1 20 4
M  V30 20 1 21 4
M  V30 21 1 22 5
M  V30 22 1 23 5
M  V30 23 1 24 5
M  V30 24 1 25 6
M  V30 25 1 26 6
M  V30 26 1 27 7
M  V30 27 1 28 7
M  V30 28 1 8 29 CFG=3
M  V30 29 1 30 9
M  V30 30 1 31 9
M  V30 31 1 32 10
M  V30 32 1 33 10
M  V30 33 1 34 12
M  V30 34 1 35 12
M  V30 35 1 36 13
M  V30 36 1 37 14
M  V30 37 1 38 14
M  V30 38 1 39 13
M  V30 39 1 40 7
M  V30 END BOND
M  V30 END CTAB
M  END
>  <i_epik_Tot_Q>  (1) 
2

>  <i_epik_Tot_abs_Q>  (1) 
2

>  <i_i_glide_confnum>  (1) 
31

>  <i_i_glide_lignum>  (1) 
75

>  <i_i_glide_posenum>  (1) 
23

>  <i_i_glide_rotatable_bonds>  (1) 
10

>  <i_lp_mmshare_version>  (1) 
72125

>  <i_m_source_file_index>  (1) 
32

>  <i_f3d_flags>  (1) 
0

>  <num_sample>  (1) 
100

>  <b_lp_Chiralities_Consistent>  (1) 
1

>  <r_epik_Charging_Adjusted_Penalty>  (1) 
2.088492378820884

>  <r_epik_Ionization_Penalty>  (1) 
1.179420884756136

>  <r_epik_Ionization_Penalty_Charging>  (1) 
1.1794208847540233

>  <r_epik_Ionization_Penalty_Neutral>  (1) 
2.1128257851734737e-12

>  <r_epik_State_Penalty>  (1) 
0.90907149406686061

>  <r_glide_ring_energy>  (1) 
0

>  <r_i_docking_score>  (1) 
-1.3098181146956782

>  <r_i_glide_ecoul>  (1) 
-13.112478585114093

>  <r_i_glide_eff_state_penalty>  (1) 
0.90907149406686061

>  <r_i_glide_einternal>  (1) 
7.3620800686860619

>  <r_i_glide_emodel>  (1) 
-33.869454055404319

>  <r_i_glide_emodel_strain>  (1) 
2.8890077453371972

>  <r_i_glide_energy>  (1) 
-33.16759060891745

>  <r_i_glide_erotb>  (1) 
5.4672764503098783

>  <r_i_glide_esite>  (1) 
-0.15532407309353891

>  <r_i_glide_evdw>  (1) 
-20.055112023803353

>  <r_i_glide_gscore>  (1) 
-2.2188896087625389

>  <r_i_glide_gscore_strain>  (1) 
0

>  <r_i_glide_hbond>  (1) 
-0.46283708502646576

>  <r_i_glide_ligand_efficiency>  (1) 
-0.093558436763977015

>  <r_i_glide_ligand_efficiency_ln>  (1) 
-0.35993335527752168

>  <r_i_glide_ligand_efficiency_sa>  (1) 
-0.22548914261502667

>  <r_i_glide_lipo>  (1) 
-1.9074186808642055

>  <r_i_glide_metal>  (1) 
-0

>  <r_i_glide_rewards>  (1) 
-2.190958831130926

>  <r_lp_Energy>  (1) 
18.306276999999998

>  <s_epik_cmdline>  (1) 
J2VwaWtfcHl0aG9uJywgJy1waHQnLCAnMS4wJywgJy1waCcsICc3LjQnLCAnLXRuJywgJzgnLCAnLW1hJywgJzUwMCcsICctaW1hZScsICc8aW5maWxlLm1hZT4nLCAnLW9tYWUnLCAnPG91dGZpbGUubWFlPic=

>  <s_epik_input>  (1) 
W0NIM11PW0NASF0oW0NIM10pW0NIMl1TW0NIMl1bQ0gyXVtDSDJdW0NIMl1bTkhdW0NIMl1bQ0gyXVtOSDJd

>  <s_glide_docking_method>  (1) 
confgen

>  <s_i_glide_gridfile>  (1) 
gpcr_5ht2c_6bqh_protein_autoprepared_prepared

>  <s_lp_Force_Field>  (1) 
S-OPLS

>  <s_lp_Variant>  (1) 
DiffSBDD_31-3

>  <s_m_source_file>  (1) 
generated_GPCR_5HT2C_ligand_DiffSBDD_2026-06-23_prepared.sdf

>  <GenAI_Model>  (1) 
DiffSBDD

>  <Protein>  (1) 
GPCR_5HT2C

$$$$
DiffSBDD_27
     RDKit          3D

  0  0  0  0  0  0  0  0  0  0999 V3000
M  V30 BEGIN CTAB
M  V30 COUNTS 43 42 0 0 1
M  V30 BEGIN ATOM
M  V30 1 Cl 37.011585 31.931654 61.367815 0
M  V30 2 C 38.514646 28.598570 58.374919 0
M  V30 3 C 38.881833 29.694821 56.060276 0
M  V30 4 O 36.058462 30.326946 58.967781 0
M  V30 5 C 38.415208 29.845217 59.281458 0
M  V30 6 C 40.140958 28.352933 51.489780 0
M  V30 7 C 37.438001 32.206036 59.654461 0 CFG=2
M  V30 8 C 36.563540 33.332418 59.070791 0
M  V30 9 C 38.945061 30.470768 53.645808 0
M  V30 10 C 37.352076 30.884911 58.859560 0 CFG=2
M  V30 11 C 40.342632 30.337495 49.958870 0
M  V30 12 O 36.722795 34.514650 59.831139 0
M  V30 13 C 39.618786 29.601789 54.721447 0
M  V30 14 C 39.645031 29.772669 51.206107 0
M  V30 15 C 39.806368 30.745397 52.397628 0
M  V30 16 C 39.424450 28.741295 57.136643 0
M  V30 17 H 38.921850 27.787345 58.978445 0
M  V30 18 H 37.521060 28.261422 58.077015 0
M  V30 19 H 37.818613 29.504446 55.904972 0
M  V30 20 H 38.980826 30.721497 56.406875 0
M  V30 21 H 35.533482 30.781268 58.307425 0
M  V30 22 H 39.395924 30.318014 59.340793 0
M  V30 23 H 38.189551 29.513981 60.295365 0
M  V30 24 H 41.193007 28.363321 51.767760 0
M  V30 25 H 39.570291 27.875950 52.284539 0
M  V30 26 H 40.042246 27.719440 50.607693 0
M  V30 27 H 38.474165 32.547196 59.645968 0
M  V30 28 H 35.510164 33.051031 59.066542 0
M  V30 29 H 36.844701 33.538494 58.036826 0
M  V30 30 H 37.985257 30.036403 53.367579 0
M  V30 31 H 38.711787 31.438008 54.094857 0
M  V30 32 H 37.481637 31.138090 57.812970 0
M  V30 33 H 41.416102 30.452168 50.118205 0
M  V30 34 H 40.196055 29.682598 49.099185 0
M  V30 35 H 39.943003 31.316631 49.694810 0
M  V30 36 H 36.431283 34.337471 60.713379 0
M  V30 37 H 40.650574 29.921359 54.872278 0
M  V30 38 H 39.645137 28.563182 54.398333 0
M  V30 39 H 38.586846 29.690024 50.967899 0
M  V30 40 H 39.541895 31.738751 52.038947 0
M  V30 41 H 40.845132 30.849112 52.686964 0
M  V30 42 H 40.425934 29.050607 57.438113 0
M  V30 43 H 39.541100 27.751547 56.695037 0
M  V30 END ATOM
M  V30 BEGIN BOND
M  V30 1 1 5 2
M  V30 2 1 7 1
M  V30 3 1 8 7
M  V30 4 1 10 4
M  V30 5 1 10 5
M  V30 6 1 10 7
M  V30 7 1 12 8
M  V30 8 1 13 3
M  V30 9 1 13 9
M  V30 10 1 14 6
M  V30 11 1 14 11
M  V30 12 1 15 9
M  V30 13 1 15 14
M  V30 14 1 16 2
M  V30 15 1 16 3
M  V30 16 1 17 2
M  V30 17 1 18 2
M  V30 18 1 19 3
M  V30 19 1 20 3
M  V30 20 1 21 4
M  V30 21 1 22 5
M  V30 22 1 23 5
M  V30 23 1 24 6
M  V30 24 1 25 6
M  V30 25 1 26 6
M  V30 26 1 7 27 CFG=1
M  V30 27 1 28 8
M  V30 28 1 29 8
M  V30 29 1 30 9
M  V30 30 1 31 9
M  V30 31 1 10 32 CFG=3
M  V30 32 1 33 11
M  V30 33 1 34 11
M  V30 34 1 35 11
M  V30 35 1 36 12
M  V30 36 1 37 13
M  V30 37 1 38 13
M  V30 38 1 39 14
M  V30 39 1 40 15
M  V30 40 1 41 15
M  V30 41 1 42 16
M  V30 42 1 43 16
M  V30 END BOND
M  V30 END CTAB
M  END
>  <i_epik_Tot_Q>  (1) 
0

>  <i_epik_Tot_abs_Q>  (1) 
0

>  <i_i_glide_confnum>  (1) 
123

>  <i_i_glide_lignum>  (1) 
69

>  <i_i_glide_posenum>  (1) 
28

>  <i_i_glide_rotatable_bonds>  (1) 
12

>  <i_lp_mmshare_version>  (1) 
72125

>  <i_m_source_file_index>  (1) 
28

>  <i_f3d_flags>  (1) 
0

>  <num_sample>  (1) 
100

>  <b_lp_Chiralities_Consistent>  (1) 
1

>  <r_epik_Charging_Adjusted_Penalty>  (1) 
0

>  <r_epik_Ionization_Penalty>  (1) 
1.1488326125260632e-06

>  <r_epik_Ionization_Penalty_Charging>  (1) 
0

>  <r_epik_Ionization_Penalty_Neutral>  (1) 
1.1488326125260632e-06

>  <r_epik_State_Penalty>  (1) 
-0

>  <r_glide_ring_energy>  (1) 
0

>  <r_i_docking_score>  (1) 
-1.3038358481038936

>  <r_i_glide_ecoul>  (1) 
-5.8575697787938728

>  <r_i_glide_eff_state_penalty>  (1) 
-0

>  <r_i_glide_einternal>  (1) 
5.114226965873276

>  <r_i_glide_emodel>  (1) 
-29.146052979065008

>  <r_i_glide_emodel_strain>  (1) 
0.15530577235092835

>  <r_i_glide_energy>  (1) 
-29.358962512697268

>  <r_i_glide_erotb>  (1) 
5.0120571657308659

>  <r_i_glide_esite>  (1) 
0

>  <r_i_glide_evdw>  (1) 
-23.501392733903394

>  <r_i_glide_gscore>  (1) 
-1.3038358481038936

>  <r_i_glide_gscore_strain>  (1) 
0

>  <r_i_glide_hbond>  (1) 
-0.16

>  <r_i_glide_ligand_efficiency>  (1) 
-0.081489740506493352

>  <r_i_glide_ligand_efficiency_ln>  (1) 
-0.34560773625220614

>  <r_i_glide_ligand_efficiency_sa>  (1) 
-0.20534127882920378

>  <r_i_glide_lipo>  (1) 
-1.8863265815621326

>  <r_i_glide_metal>  (1) 
-0

>  <r_i_glide_rewards>  (1) 
-2.2158613287583764

>  <r_lp_Energy>  (1) 
8.3153009999999998

>  <r_lp_tautomer_probability>  (1) 
1

>  <s_epik_cmdline>  (1) 
J2VwaWtfcHl0aG9uJywgJy1waHQnLCAnMS4wJywgJy1waCcsICc3LjQnLCAnLXRuJywgJzgnLCAnLW1hJywgJzUwMCcsICctaW1hZScsICc8aW5maWxlLm1hZT4nLCAnLW9tYWUnLCAnPG91dGZpbGUubWFlPic=

>  <s_epik_input>  (1) 
W09IXVtDSDJdW0NASF0oQ2wpW0NASF0oW09IXSlbQ0gyXVtDSDJdW0NIMl1bQ0gyXVtDSDJdW0NIMl1bQ0gyXVtDSF0oW0NIM10pW0NIM10=

>  <s_glide_docking_method>  (1) 
confgen

>  <s_i_glide_gridfile>  (1) 
gpcr_5ht2c_6bqh_protein_autoprepared_prepared

>  <s_lp_Force_Field>  (1) 
S-OPLS

>  <s_lp_Variant>  (1) 
DiffSBDD_27-2

>  <s_m_source_file>  (1) 
generated_GPCR_5HT2C_ligand_DiffSBDD_2026-06-23_prepared.sdf

>  <GenAI_Model>  (1) 
DiffSBDD

>  <Protein>  (1) 
GPCR_5HT2C

$$$$
DiffSBDD_27
     RDKit          3D

  0  0  0  0  0  0  0  0  0  0999 V3000
M  V30 BEGIN CTAB
M  V30 COUNTS 43 42 0 0 1
M  V30 BEGIN ATOM
M  V30 1 Cl 37.749840 33.916547 60.472788 0
M  V30 2 C 38.419016 29.784129 58.172844 0
M  V30 3 C 39.035603 30.211212 55.738237 0
M  V30 4 O 36.209326 31.337756 60.879801 0
M  V30 5 C 37.401143 29.936536 59.321628 0
M  V30 6 C 40.227161 29.877847 50.296813 0
M  V30 7 C 38.327804 32.259282 60.140065 0 CFG=1
M  V30 8 C 39.167003 31.792637 61.350991 0
M  V30 9 C 39.656244 30.627826 53.279718 0
M  V30 10 C 37.100772 31.382389 59.777963 0 CFG=2
M  V30 11 C 39.643574 27.481787 50.948234 0
M  V30 12 O 39.974790 30.671570 61.050596 0
M  V30 13 C 38.738342 31.006587 54.456084 0
M  V30 14 C 40.145133 28.846230 51.434789 0
M  V30 15 C 39.260675 29.294567 52.617518 0
M  V30 16 C 38.024199 30.482287 56.861703 0
M  V30 17 H 39.399608 30.137755 58.488371 0
M  V30 18 H 38.545134 28.719169 57.974405 0
M  V30 19 H 40.041005 30.457905 56.080995 0
M  V30 20 H 39.038348 29.142347 55.527420 0
M  V30 21 H 35.820637 32.197044 60.963618 0
M  V30 22 H 37.753882 29.349946 60.167759 0
M  V30 23 H 36.463515 29.468825 59.017192 0
M  V30 24 H 39.245137 30.205951 49.973906 0
M  V30 25 H 40.779286 30.765676 50.606530 0
M  V30 26 H 40.740192 29.471779 49.425506 0
M  V30 27 H 38.976570 32.354815 59.269227 0
M  V30 28 H 38.536058 31.574096 62.213252 0
M  V30 29 H 39.841088 32.594217 61.654355 0
M  V30 30 H 39.614278 31.424913 52.538258 0
M  V30 31 H 40.690212 30.592145 53.622178 0
M  V30 32 H 36.562347 31.875928 58.967762 0
M  V30 33 H 38.624973 27.544762 50.567759 0
M  V30 34 H 40.282864 27.082426 50.167760 0
M  V30 35 H 39.643324 26.751134 51.757610 0
M  V30 36 H 39.412166 29.921260 60.927231 0
M  V30 37 H 37.694184 30.877932 54.167772 0
M  V30 38 H 38.858638 32.069516 54.670728 0
M  V30 39 H 41.169904 28.699942 51.767760 0
M  V30 40 H 39.277965 28.509234 53.372861 0
M  V30 41 H 38.223223 29.337755 52.284994 0
M  V30 42 H 37.036659 30.137758 56.549570 0
M  V30 43 H 37.939216 31.557598 57.021518 0
M  V30 END ATOM
M  V30 BEGIN BOND
M  V30 1 1 5 2
M  V30 2 1 7 1
M  V30 3 1 8 7
M  V30 4 1 10 4
M  V30 5 1 10 5
M  V30 6 1 10 7
M  V30 7 1 12 8
M  V30 8 1 13 3
M  V30 9 1 13 9
M  V30 10 1 14 6
M  V30 11 1 14 11
M  V30 12 1 15 9
M  V30 13 1 15 14
M  V30 14 1 16 2
M  V30 15 1 16 3
M  V30 16 1 17 2
M  V30 17 1 18 2
M  V30 18 1 19 3
M  V30 19 1 20 3
M  V30 20 1 21 4
M  V30 21 1 22 5
M  V30 22 1 23 5
M  V30 23 1 24 6
M  V30 24 1 25 6
M  V30 25 1 26 6
M  V30 26 1 7 27 CFG=3
M  V30 27 1 28 8
M  V30 28 1 29 8
M  V30 29 1 30 9
M  V30 30 1 31 9
M  V30 31 1 10 32 CFG=3
M  V30 32 1 33 11
M  V30 33 1 34 11
M  V30 34 1 35 11
M  V30 35 1 36 12
M  V30 36 1 37 13
M  V30 37 1 38 13
M  V30 38 1 39 14
M  V30 39 1 40 15
M  V30 40 1 41 15
M  V30 41 1 42 16
M  V30 42 1 43 16
M  V30 END BOND
M  V30 END CTAB
M  END
>  <i_epik_Tot_Q>  (1) 
0

>  <i_epik_Tot_abs_Q>  (1) 
0

>  <i_i_glide_confnum>  (1) 
842

>  <i_i_glide_lignum>  (1) 
68

>  <i_i_glide_posenum>  (1) 
241

>  <i_i_glide_rotatable_bonds>  (1) 
12

>  <i_lp_mmshare_version>  (1) 
72125

>  <i_m_source_file_index>  (1) 
28

>  <i_f3d_flags>  (1) 
0

>  <num_sample>  (1) 
100

>  <b_lp_Chiralities_Consistent>  (1) 
1

>  <r_epik_Charging_Adjusted_Penalty>  (1) 
0

>  <r_epik_Ionization_Penalty>  (1) 
1.1488326125260632e-06

>  <r_epik_Ionization_Penalty_Charging>  (1) 
0

>  <r_epik_Ionization_Penalty_Neutral>  (1) 
1.1488326125260632e-06

>  <r_epik_State_Penalty>  (1) 
-0

>  <r_glide_ring_energy>  (1) 
0

>  <r_i_docking_score>  (1) 
-1.2574803623215376

>  <r_i_glide_ecoul>  (1) 
-3.2450619655623676

>  <r_i_glide_eff_state_penalty>  (1) 
-0

>  <r_i_glide_einternal>  (1) 
4.1280085282143579

>  <r_i_glide_emodel>  (1) 
-30.309531605804928

>  <r_i_glide_emodel_strain>  (1) 
0.092533673677023032

>  <r_i_glide_energy>  (1) 
-30.048890259749189

>  <r_i_glide_erotb>  (1) 
5.0120571657308659

>  <r_i_glide_esite>  (1) 
0

>  <r_i_glide_evdw>  (1) 
-26.803828294186822

>  <r_i_glide_gscore>  (1) 
-1.2574803623215376

>  <r_i_glide_gscore_strain>  (1) 
0

>  <r_i_glide_hbond>  (1) 
-0.21008217674316335

>  <r_i_glide_ligand_efficiency>  (1) 
-0.0785925226450961

>  <r_i_glide_ligand_efficiency_ln>  (1) 
-0.33332028877374503

>  <r_i_glide_ligand_efficiency_sa>  (1) 
-0.19804074728979215

>  <r_i_glide_lipo>  (1) 
-2.0449515764729638

>  <r_i_glide_metal>  (1) 
-0

>  <r_i_glide_rewards>  (1) 
-2.1875530652925801

>  <r_lp_Energy>  (1) 
6.3724119999999997

>  <r_lp_tautomer_probability>  (1) 
1

>  <s_epik_cmdline>  (1) 
J2VwaWtfcHl0aG9uJywgJy1waHQnLCAnMS4wJywgJy1waCcsICc3LjQnLCAnLXRuJywgJzgnLCAnLW1hJywgJzUwMCcsICctaW1hZScsICc8aW5maWxlLm1hZT4nLCAnLW9tYWUnLCAnPG91dGZpbGUubWFlPic=

>  <s_epik_input>  (1) 
W09IXVtDSDJdW0NASF0oQ2wpW0NASF0oW09IXSlbQ0gyXVtDSDJdW0NIMl1bQ0gyXVtDSDJdW0NIMl1bQ0gyXVtDSF0oW0NIM10pW0NIM10=

>  <s_glide_docking_method>  (1) 
confgen

>  <s_i_glide_gridfile>  (1) 
gpcr_5ht2c_6bqh_protein_autoprepared_prepared

>  <s_lp_Force_Field>  (1) 
S-OPLS

>  <s_lp_Variant>  (1) 
DiffSBDD_27-1

>  <s_m_source_file>  (1) 
generated_GPCR_5HT2C_ligand_DiffSBDD_2026-06-23_prepared.sdf

>  <GenAI_Model>  (1) 
DiffSBDD

>  <Protein>  (1) 
GPCR_5HT2C

$$$$
DiffSBDD_55
     RDKit          3D

  0  0  0  0  0  0  0  0  0  0999 V3000
M  V30 BEGIN CTAB
M  V30 COUNTS 39 38 0 0 1
M  V30 BEGIN ATOM
M  V30 1 C 39.143416 27.943532 54.860371 0
M  V30 2 C 39.254779 29.490727 56.951517 0
M  V30 3 C 39.611112 27.972266 51.214263 0
M  V30 4 C 40.027046 28.717239 55.866136 0
M  V30 5 C 37.233528 27.970548 53.146196 0
M  V30 6 C 38.310079 28.794250 53.876908 0 CFG=2
M  V30 7 C 39.723615 29.365382 51.809582 0
M  V30 8 C 39.151381 29.715532 52.986201 0
M  V30 9 C 39.052810 30.982686 56.634614 0
M  V30 10 C 38.191975 31.689892 57.690126 0
M  V30 11 N 36.856429 33.737755 58.167760 0 CHG=1
M  V30 12 C 40.525651 30.356761 50.989761 0
M  V30 13 C 37.934487 33.164514 57.344216 0
M  V30 14 H 38.469631 27.298548 55.426004 0
M  V30 15 H 39.773142 27.260018 54.292142 0
M  V30 16 H 38.294538 29.008113 57.139129 0
M  V30 17 H 39.809257 29.418564 57.888119 0
M  V30 18 H 39.645121 27.192094 51.971676 0
M  V30 19 H 38.693957 27.877804 50.632841 0
M  V30 20 H 40.445128 27.783693 50.540113 0
M  V30 21 H 40.650251 27.977691 56.371020 0
M  V30 22 H 40.729693 29.379568 55.363877 0
M  V30 23 H 36.765940 28.537751 52.341608 0
M  V30 24 H 37.615881 27.040037 52.730412 0
M  V30 25 H 36.445135 27.689760 53.842368 0
M  V30 26 H 37.719970 29.484525 54.477290 0
M  V30 27 H 39.281023 30.725852 53.347479 0
M  V30 28 H 40.019952 31.477709 56.550992 0
M  V30 29 H 38.575899 31.099906 55.663806 0
M  V30 30 H 37.245138 31.156309 57.767809 0
M  V30 31 H 38.664139 31.615179 58.670329 0
M  V30 32 H 36.667912 34.691442 57.881602 0
M  V30 33 H 36.045128 33.155203 57.960769 0
M  V30 34 H 41.552600 30.011725 50.869984 0
M  V30 35 H 40.084361 30.472230 49.999286 0
M  V30 36 H 40.551390 31.337753 51.464290 0
M  V30 37 H 38.845785 33.737755 57.481332 0
M  V30 38 H 37.645137 33.262624 56.296823 0
M  V30 39 H 37.080059 33.689501 59.149702 0
M  V30 END ATOM
M  V30 BEGIN BOND
M  V30 1 1 4 1
M  V30 2 1 4 2
M  V30 3 1 6 1
M  V30 4 1 6 5
M  V30 5 1 7 3
M  V30 6 1 8 6
M  V30 7 2 8 7
M  V30 8 1 9 2
M  V30 9 1 10 9
M  V30 10 1 12 7
M  V30 11 1 13 10
M  V30 12 1 13 11
M  V30 13 1 14 1
M  V30 14 1 15 1
M  V30 15 1 16 2
M  V30 16 1 17 2
M  V30 17 1 18 3
M  V30 18 1 19 3
M  V30 19 1 20 3
M  V30 20 1 21 4
M  V30 21 1 22 4
M  V30 22 1 23 5
M  V30 23 1 24 5
M  V30 24 1 25 5
M  V30 25 1 6 26 CFG=1
M  V30 26 1 27 8
M  V30 27 1 28 9
M  V30 28 1 29 9
M  V30 29 1 30 10
M  V30 30 1 31 10
M  V30 31 1 32 11
M  V30 32 1 33 11
M  V30 33 1 34 12
M  V30 34 1 35 12
M  V30 35 1 36 12
M  V30 36 1 37 13
M  V30 37 1 38 13
M  V30 38 1 39 11
M  V30 END BOND
M  V30 END CTAB
M  END
>  <i_epik_Tot_Q>  (1) 
1

>  <i_epik_Tot_abs_Q>  (1) 
1

>  <i_i_glide_confnum>  (1) 
151

>  <i_i_glide_lignum>  (1) 
121

>  <i_i_glide_posenum>  (1) 
155

>  <i_i_glide_rotatable_bonds>  (1) 
7

>  <i_lp_mmshare_version>  (1) 
72125

>  <i_m_source_file_index>  (1) 
56

>  <i_f3d_flags>  (1) 
0

>  <num_sample>  (1) 
100

>  <b_lp_Chiralities_Consistent>  (1) 
1

>  <r_epik_Charging_Adjusted_Penalty>  (1) 
0.00087881740244438776

>  <r_epik_Ionization_Penalty>  (1) 
0.00087881740244438776

>  <r_epik_Ionization_Penalty_Charging>  (1) 
0.00087881740244438776

>  <r_epik_Ionization_Penalty_Neutral>  (1) 
0

>  <r_epik_State_Penalty>  (1) 
-0

>  <r_glide_ring_energy>  (1) 
0

>  <r_i_docking_score>  (1) 
-1.2119561266826067

>  <r_i_glide_ecoul>  (1) 
-5.0960541054836037

>  <r_i_glide_eff_state_penalty>  (1) 
-0

>  <r_i_glide_einternal>  (1) 
6.0061811858454357

>  <r_i_glide_emodel>  (1) 
-25.26415246372412

>  <r_i_glide_emodel_strain>  (1) 
0.080328475120136744

>  <r_i_glide_energy>  (1) 
-25.564727883621629

>  <r_i_glide_erotb>  (1) 
5.6086689864227646

>  <r_i_glide_esite>  (1) 
-0.061786064837961563

>  <r_i_glide_evdw>  (1) 
-20.468673778138026

>  <r_i_glide_gscore>  (1) 
-1.2119561266826067

>  <r_i_glide_gscore_strain>  (1) 
0

>  <r_i_glide_hbond>  (1) 
-0.19154285847761038

>  <r_i_glide_ligand_efficiency>  (1) 
-0.093227394360200513

>  <r_i_glide_ligand_efficiency_ln>  (1) 
-0.33996447218694686

>  <r_i_glide_ligand_efficiency_sa>  (1) 
-0.21920880620496203

>  <r_i_glide_lipo>  (1) 
-2.1125056004383271

>  <r_i_glide_metal>  (1) 
-0

>  <r_i_glide_rewards>  (1) 
-2.666948784622031

>  <r_lp_Energy>  (1) 
5.2842919999999998

>  <r_lp_tautomer_probability>  (1) 
1

>  <s_epik_cmdline>  (1) 
J2VwaWtfcHl0aG9uJywgJy1waHQnLCAnMS4wJywgJy1waCcsICc3LjQnLCAnLXRuJywgJzgnLCAnLW1hJywgJzUwMCcsICctaW1hZScsICc8aW5maWxlLm1hZT4nLCAnLW9tYWUnLCAnPG91dGZpbGUubWFlPic=

>  <s_epik_input>  (1) 
W0NIM11DKFtDSDNdKT1bQ0hdW0NAQEhdKFtDSDNdKVtDSDJdW0NIMl1bQ0gyXVtDSDJdW0NIMl1bQ0gyXVtOSDJd

>  <s_glide_docking_method>  (1) 
confgen

>  <s_i_glide_gridfile>  (1) 
gpcr_5ht2c_6bqh_protein_autoprepared_prepared

>  <s_lp_Force_Field>  (1) 
S-OPLS

>  <s_lp_Variant>  (1) 
DiffSBDD_55-1

>  <s_m_source_file>  (1) 
generated_GPCR_5HT2C_ligand_DiffSBDD_2026-06-23_prepared.sdf

>  <GenAI_Model>  (1) 
DiffSBDD

>  <Protein>  (1) 
GPCR_5HT2C

$$$$
DiffSBDD_51
     RDKit          3D

  0  0  0  0  0  0  0  0  0  0999 V3000
M  V30 BEGIN CTAB
M  V30 COUNTS 39 39 0 0 1
M  V30 BEGIN ATOM
M  V30 1 C 37.507962 28.271610 53.203859 0
M  V30 2 C 38.303720 33.361112 59.621911 0
M  V30 3 C 37.180579 31.374122 60.790997 0
M  V30 4 C 38.266852 30.386338 57.672613 0
M  V30 5 N 37.644971 30.137755 56.517289 0
M  V30 6 C 38.118235 29.149906 55.557538 0
M  V30 7 C 40.045221 30.339268 51.996046 0
M  V30 8 C 37.046480 34.140962 59.196081 0
M  V30 9 O 39.292266 29.810720 58.036886 0
M  V30 10 N 37.645137 31.336749 58.384550 0
M  V30 11 C 38.861516 28.038614 52.514854 0
M  V30 12 C 38.133097 31.827544 59.673556 0 CFG=1
M  V30 13 C 39.222766 29.151762 51.549868 0
M  V30 14 C 40.619692 29.338820 51.018365 0
M  V30 15 C 37.480261 29.449997 54.195214 0
M  V30 16 H 37.196840 27.359592 53.716097 0
M  V30 17 H 36.754806 28.442638 52.434371 0
M  V30 18 H 38.634342 33.720800 60.597022 0
M  V30 19 H 39.110220 33.601398 58.927800 0
M  V30 20 H 37.518874 31.728269 61.764653 0
M  V30 21 H 36.165855 31.740599 60.634483 0
M  V30 22 H 37.133337 30.286937 60.831811 0
M  V30 23 H 36.797647 30.654580 56.293928 0
M  V30 24 H 39.206756 29.163155 55.475018 0
M  V30 25 H 37.830402 28.159363 55.911669 0
M  V30 26 H 39.765585 31.318179 51.611378 0
M  V30 27 H 40.441546 30.336993 53.010530 0
M  V30 28 H 37.241253 35.213323 59.188951 0
M  V30 29 H 36.720867 33.866842 58.192036 0
M  V30 30 H 36.214558 33.967156 59.878063 0
M  V30 31 H 36.787930 31.745217 58.011875 0
M  V30 32 H 39.645004 27.913217 53.258640 0
M  V30 33 H 38.816036 27.107082 51.948882 0
M  V30 34 H 39.115989 31.410436 59.901968 0
M  V30 35 H 38.445330 29.337851 50.818170 0
M  V30 36 H 41.381017 28.648401 51.367762 0
M  V30 37 H 40.723549 29.662450 49.984176 0
M  V30 38 H 36.445347 29.735212 54.360818 0
M  V30 39 H 37.939443 30.340157 53.766927 0
M  V30 END ATOM
M  V30 BEGIN BOND
M  V30 1 1 5 4
M  V30 2 1 6 5
M  V30 3 1 8 2
M  V30 4 2 9 4
M  V30 5 1 10 4
M  V30 6 1 11 1
M  V30 7 1 12 2
M  V30 8 1 12 3
M  V30 9 1 12 10
M  V30 10 1 13 7
M  V30 11 1 13 11
M  V30 12 1 14 7
M  V30 13 1 14 13
M  V30 14 1 15 1
M  V30 15 1 15 6
M  V30 16 1 16 1
M  V30 17 1 17 1
M  V30 18 1 18 2
M  V30 19 1 19 2
M  V30 20 1 20 3
M  V30 21 1 21 3
M  V30 22 1 22 3
M  V30 23 1 23 5
M  V30 24 1 24 6
M  V30 25 1 25 6
M  V30 26 1 26 7
M  V30 27 1 27 7
M  V30 28 1 28 8
M  V30 29 1 29 8
M  V30 30 1 30 8
M  V30 31 1 31 10
M  V30 32 1 32 11
M  V30 33 1 33 11
M  V30 34 1 12 34 CFG=1
M  V30 35 1 35 13
M  V30 36 1 36 14
M  V30 37 1 37 14
M  V30 38 1 38 15
M  V30 39 1 39 15
M  V30 END BOND
M  V30 END CTAB
M  END
>  <i_epik_Tot_Q>  (1) 
0

>  <i_epik_Tot_abs_Q>  (1) 
0

>  <i_i_glide_confnum>  (1) 
150

>  <i_i_glide_lignum>  (1) 
107

>  <i_i_glide_posenum>  (1) 
390

>  <i_i_glide_rotatable_bonds>  (1) 
9

>  <i_lp_mmshare_version>  (1) 
72125

>  <i_m_source_file_index>  (1) 
52

>  <i_f3d_flags>  (1) 
0

>  <num_sample>  (1) 
100

>  <b_lp_Chiralities_Consistent>  (1) 
1

>  <r_epik_Charging_Adjusted_Penalty>  (1) 
0

>  <r_epik_Ionization_Penalty>  (1) 
2.8418814736596529e-05

>  <r_epik_Ionization_Penalty_Charging>  (1) 
0

>  <r_epik_Ionization_Penalty_Neutral>  (1) 
2.8418814736596529e-05

>  <r_epik_State_Penalty>  (1) 
-0

>  <r_glide_ring_energy>  (1) 
0

>  <r_i_docking_score>  (1) 
-1.1859380902012153

>  <r_i_glide_ecoul>  (1) 
-4.7887280265205989

>  <r_i_glide_eff_state_penalty>  (1) 
-0

>  <r_i_glide_einternal>  (1) 
4.4974033582115602

>  <r_i_glide_emodel>  (1) 
-27.586001633885942

>  <r_i_glide_emodel_strain>  (1) 
0.26452342758920366

>  <r_i_glide_energy>  (1) 
-27.925683173436777

>  <r_i_glide_erotb>  (1) 
5.1718031322358726

>  <r_i_glide_esite>  (1) 
-0.24997857727042666

>  <r_i_glide_evdw>  (1) 
-23.136955146916179

>  <r_i_glide_gscore>  (1) 
-1.1859380902012153

>  <r_i_glide_gscore_strain>  (1) 
0

>  <r_i_glide_hbond>  (1) 
-0.30314610303021661

>  <r_i_glide_ligand_efficiency>  (1) 
-0.079062539346747687

>  <r_i_glide_ligand_efficiency_ln>  (1) 
-0.31982794889041627

>  <r_i_glide_ligand_efficiency_sa>  (1) 
-0.19498498916417706

>  <r_i_glide_lipo>  (1) 
-1.7283196907484082

>  <r_i_glide_metal>  (1) 
-0

>  <r_i_glide_rewards>  (1) 
-2.2011398900641379

>  <r_lp_Energy>  (1) 
13.360514

>  <r_lp_tautomer_probability>  (1) 
1

>  <s_epik_cmdline>  (1) 
J2VwaWtfcHl0aG9uJywgJy1waHQnLCAnMS4wJywgJy1waCcsICc3LjQnLCAnLXRuJywgJzgnLCAnLW1hJywgJzUwMCcsICctaW1hZScsICc8aW5maWxlLm1hZT4nLCAnLW9tYWUnLCAnPG91dGZpbGUubWFlPic=

>  <s_epik_input>  (1) 
W0NIMl0xW0NIMl1bQ0hdMVtDSDJdW0NIMl1bQ0gyXVtDSDJdW05IXUMoPU8pW05IXVtDQEhdKFtDSDNdKVtDSDJdW0NIM10=

>  <s_glide_docking_method>  (1) 
confgen

>  <s_i_glide_gridfile>  (1) 
gpcr_5ht2c_6bqh_protein_autoprepared_prepared

>  <s_lp_Force_Field>  (1) 
S-OPLS

>  <s_lp_Variant>  (1) 
DiffSBDD_51-1

>  <s_m_source_file>  (1) 
generated_GPCR_5HT2C_ligand_DiffSBDD_2026-06-23_prepared.sdf

>  <GenAI_Model>  (1) 
DiffSBDD

>  <Protein>  (1) 
GPCR_5HT2C

$$$$
DiffSBDD_70
     RDKit          3D

  0  0  0  0  0  0  0  0  0  0999 V3000
M  V30 BEGIN CTAB
M  V30 COUNTS 44 43 0 0 1
M  V30 BEGIN ATOM
M  V30 1 C 39.249780 31.987343 55.438021 0
M  V30 2 C 39.251820 29.184196 52.603988 0
M  V30 3 C 40.201673 30.877068 50.906808 0
M  V30 4 C 38.621258 27.152086 57.788099 0
M  V30 5 C 38.949376 28.195302 58.874605 0
M  V30 6 C 39.849141 28.468459 50.247652 0
M  V30 7 C 38.713446 31.554271 56.816286 0
M  V30 8 C 39.645975 29.972084 53.871446 0
M  V30 9 Cl 37.245306 24.537869 56.478477 0
M  V30 10 C 38.979678 30.083160 57.149984 0
M  V30 11 C 38.934313 24.718344 57.022763 0
M  V30 12 C 39.044781 25.729846 58.172028 0
M  V30 13 C 38.488246 29.625341 58.529406 0
M  V30 14 C 38.742367 31.172990 54.225142 0
M  V30 15 C 40.185289 29.421815 51.397017 0
M  V30 16 H 40.339332 31.986732 55.453152 0
M  V30 17 H 38.960712 33.029280 55.296515 0
M  V30 18 H 38.205734 29.337798 52.340768 0
M  V30 19 H 39.308489 28.122898 52.851137 0
M  V30 20 H 39.245138 31.173976 50.482601 0
M  V30 21 H 40.954577 31.014815 50.130170 0
M  V30 22 H 40.444757 31.566767 51.713663 0
M  V30 23 H 37.553063 27.176319 57.568302 0
M  V30 24 H 39.136318 27.410756 56.863422 0
M  V30 25 H 40.026157 28.201547 59.048796 0
M  V30 26 H 38.493852 27.896042 59.819308 0
M  V30 27 H 38.803533 28.537754 49.961094 0
M  V30 28 H 40.444617 28.704964 49.367752 0
M  V30 29 H 40.045135 27.431354 50.522752 0
M  V30 30 H 39.159864 32.188775 57.582085 0
M  V30 31 H 37.645093 31.747648 56.858895 0
M  V30 32 H 39.665863 29.263442 54.694142 0
M  V30 33 H 40.674066 30.322165 53.785721 0
M  V30 34 H 38.449877 29.482735 56.414083 0
M  V30 35 H 40.045029 29.873181 57.049004 0
M  V30 36 H 39.537341 25.016348 56.164149 0
M  V30 37 H 39.279195 23.737707 57.350058 0
M  V30 38 H 40.077384 25.743654 58.520324 0
M  V30 39 H 38.445115 25.384619 59.009836 0
M  V30 40 H 38.849676 30.310772 59.296510 0
M  V30 41 H 37.398839 29.680181 58.558590 0
M  V30 42 H 38.712046 31.842710 53.367455 0
M  V30 43 H 37.712126 30.853264 54.387708 0
M  V30 44 H 41.200535 29.179738 51.709214 0
M  V30 END ATOM
M  V30 BEGIN BOND
M  V30 1 1 5 4
M  V30 2 1 7 1
M  V30 3 1 8 2
M  V30 4 1 10 7
M  V30 5 1 11 9
M  V30 6 1 12 4
M  V30 7 1 12 11
M  V30 8 1 13 5
M  V30 9 1 13 10
M  V30 10 1 14 1
M  V30 11 1 14 8
M  V30 12 1 15 2
M  V30 13 1 15 3
M  V30 14 1 15 6
M  V30 15 1 16 1
M  V30 16 1 17 1
M  V30 17 1 18 2
M  V30 18 1 19 2
M  V30 19 1 20 3
M  V30 20 1 21 3
M  V30 21 1 22 3
M  V30 22 1 23 4
M  V30 23 1 24 4
M  V30 24 1 25 5
M  V30 25 1 26 5
M  V30 26 1 27 6
M  V30 27 1 28 6
M  V30 28 1 29 6
M  V30 29 1 30 7
M  V30 30 1 31 7
M  V30 31 1 32 8
M  V30 32 1 33 8
M  V30 33 1 34 10
M  V30 34 1 35 10
M  V30 35 1 36 11
M  V30 36 1 37 11
M  V30 37 1 38 12
M  V30 38 1 39 12
M  V30 39 1 40 13
M  V30 40 1 41 13
M  V30 41 1 42 14
M  V30 42 1 43 14
M  V30 43 1 44 15
M  V30 END BOND
M  V30 END CTAB
M  END
>  <i_epik_Tot_Q>  (1) 
0

>  <i_epik_Tot_abs_Q>  (1) 
0

>  <i_i_glide_confnum>  (1) 
66

>  <i_i_glide_lignum>  (1) 
155

>  <i_i_glide_posenum>  (1) 
7

>  <i_i_glide_rotatable_bonds>  (1) 
11

>  <i_lp_mmshare_version>  (1) 
72125

>  <i_m_source_file_index>  (1) 
71

>  <i_f3d_flags>  (1) 
0

>  <num_sample>  (1) 
100

>  <b_lp_Chiralities_Consistent>  (1) 
1

>  <r_epik_Charging_Adjusted_Penalty>  (1) 
0

>  <r_epik_Ionization_Penalty>  (1) 
0

>  <r_epik_Ionization_Penalty_Charging>  (1) 
0

>  <r_epik_Ionization_Penalty_Neutral>  (1) 
0

>  <r_epik_State_Penalty>  (1) 
-0

>  <r_glide_ring_energy>  (1) 
0

>  <r_i_docking_score>  (1) 
-1.1422733957892306

>  <r_i_glide_ecoul>  (1) 
-0.13522596835216402

>  <r_i_glide_eff_state_penalty>  (1) 
-0

>  <r_i_glide_einternal>  (1) 
5.1744921443351908

>  <r_i_glide_emodel>  (1) 
-27.612470389018895

>  <r_i_glide_emodel_strain>  (1) 
0.076487672600997314

>  <r_i_glide_energy>  (1) 
-28.45836736154126

>  <r_i_glide_erotb>  (1) 
5.690425690684874

>  <r_i_glide_esite>  (1) 
0

>  <r_i_glide_evdw>  (1) 
-28.323141393189097

>  <r_i_glide_gscore>  (1) 
-1.1422733957892306

>  <r_i_glide_gscore_strain>  (1) 
0

>  <r_i_glide_hbond>  (1) 
0

>  <r_i_glide_ligand_efficiency>  (1) 
-0.076151559719282044

>  <r_i_glide_ligand_efficiency_ln>  (1) 
-0.30805230076164886

>  <r_i_glide_ligand_efficiency_sa>  (1) 
-0.18780589605879125

>  <r_i_glide_lipo>  (1) 
-3.0705777686407503

>  <r_i_glide_metal>  (1) 
-0

>  <r_i_glide_rewards>  (1) 
-2.3256803529210743

>  <r_lp_Energy>  (1) 
6.1619519999999994

>  <r_lp_tautomer_probability>  (1) 
1

>  <s_epik_cmdline>  (1) 
J2VwaWtfcHl0aG9uJywgJy1waHQnLCAnMS4wJywgJy1waCcsICc3LjQnLCAnLXRuJywgJzgnLCAnLW1hJywgJzUwMCcsICctaW1hZScsICc8aW5maWxlLm1hZT4nLCAnLW9tYWUnLCAnPG91dGZpbGUubWFlPic=

>  <s_epik_input>  (1) 
W0NIM11bQ0hdKFtDSDNdKVtDSDJdW0NIMl1bQ0gyXVtDSDJdW0NIMl1bQ0gyXVtDSDJdW0NIMl1bQ0gyXVtDSDJdW0NIMl1DbA==

>  <s_glide_docking_method>  (1) 
confgen

>  <s_i_glide_gridfile>  (1) 
gpcr_5ht2c_6bqh_protein_autoprepared_prepared

>  <s_lp_Force_Field>  (1) 
S-OPLS

>  <s_lp_Variant>  (1) 
DiffSBDD_70-1

>  <s_m_source_file>  (1) 
generated_GPCR_5HT2C_ligand_DiffSBDD_2026-06-23_prepared.sdf

>  <GenAI_Model>  (1) 
DiffSBDD

>  <Protein>  (1) 
GPCR_5HT2C

$$$$
DiffSBDD_31
     RDKit          3D

  0  0  0  0  0  0  0  0  0  0999 V3000
M  V30 BEGIN CTAB
M  V30 COUNTS 39 38 0 0 1
M  V30 BEGIN ATOM
M  V30 1 S 38.617189 28.080605 54.494094 0
M  V30 2 C 37.929798 29.754001 54.588276 0
M  V30 3 C 39.261442 27.930757 50.385993 0
M  V30 4 C 38.719473 30.639237 55.553828 0
M  V30 5 C 40.549092 30.355929 51.150407 0
M  V30 6 C 38.296867 32.110375 55.414483 0
M  V30 7 N 35.339325 32.510739 59.767897 0
M  V30 8 C 39.520620 28.276919 51.850909 0 CFG=1
M  V30 9 C 37.493384 33.358756 58.920408 0
M  V30 10 C 36.751514 32.656697 60.069631 0
M  V30 11 O 39.648084 29.687474 52.024164 0
M  V30 12 C 38.503844 32.950303 56.677899 0
M  V30 13 N 37.645150 32.450525 57.767758 0 CHG=1
M  V30 14 C 38.370146 27.747062 52.728180 0
M  V30 15 H 36.882372 29.693201 54.886773 0
M  V30 16 H 37.935508 30.210999 53.602645 0
M  V30 17 H 39.002377 26.881168 50.255414 0
M  V30 18 H 38.445196 28.537429 50.011008 0
M  V30 19 H 40.132781 28.137677 49.769131 0
M  V30 20 H 39.789606 30.553308 55.359088 0
M  V30 21 H 38.559902 30.266548 56.565406 0
M  V30 22 H 40.785177 31.337756 51.558450 0
M  V30 23 H 41.481342 29.806310 51.013565 0
M  V30 24 H 40.098862 30.511595 50.169389 0
M  V30 25 H 37.245918 32.162014 55.136700 0
M  V30 26 H 38.838353 32.553906 54.578715 0
M  V30 27 H 34.882085 33.412869 59.760154 0
M  V30 28 H 35.219171 32.137766 58.825365 0
M  V30 29 H 40.445112 27.796205 52.167600 0
M  V30 30 H 36.980449 34.273064 58.616339 0
M  V30 31 H 38.486660 33.650515 59.264833 0
M  V30 32 H 36.845894 33.234209 60.990275 0
M  V30 33 H 37.186498 31.675611 60.265251 0
M  V30 34 H 38.239101 33.986303 56.459658 0
M  V30 35 H 39.549309 32.937547 56.987888 0
M  V30 36 H 38.008156 31.566921 58.090164 0
M  V30 37 H 38.297002 26.665920 52.610300 0
M  V30 38 H 37.411006 28.157104 52.409186 0
M  V30 39 H 36.707523 32.261120 57.375321 0
M  V30 END ATOM
M  V30 BEGIN BOND
M  V30 1 1 2 1
M  V30 2 1 4 2
M  V30 3 1 6 4
M  V30 4 1 8 3
M  V30 5 1 10 7
M  V30 6 1 10 9
M  V30 7 1 11 5
M  V30 8 1 11 8
M  V30 9 1 12 6
M  V30 10 1 13 9
M  V30 11 1 13 12
M  V30 12 1 14 1
M  V30 13 1 14 8
M  V30 14 1 15 2
M  V30 15 1 16 2
M  V30 16 1 17 3
M  V30 17 1 18 3
M  V30 18 1 19 3
M  V30 19 1 20 4
M  V30 20 1 21 4
M  V30 21 1 22 5
M  V30 22 1 23 5
M  V30 23 1 24 5
M  V30 24 1 25 6
M  V30 25 1 26 6
M  V30 26 1 27 7
M  V30 27 1 28 7
M  V30 28 1 8 29 CFG=1
M  V30 29 1 30 9
M  V30 30 1 31 9
M  V30 31 1 32 10
M  V30 32 1 33 10
M  V30 33 1 34 12
M  V30 34 1 35 12
M  V30 35 1 36 13
M  V30 36 1 37 14
M  V30 37 1 38 14
M  V30 38 1 39 13
M  V30 END BOND
M  V30 END CTAB
M  END
>  <i_epik_Tot_Q>  (1) 
1

>  <i_epik_Tot_abs_Q>  (1) 
1

>  <i_i_glide_confnum>  (1) 
175

>  <i_i_glide_lignum>  (1) 
73

>  <i_i_glide_posenum>  (1) 
251

>  <i_i_glide_rotatable_bonds>  (1) 
10

>  <i_lp_mmshare_version>  (1) 
72125

>  <i_m_source_file_index>  (1) 
32

>  <i_f3d_flags>  (1) 
0

>  <num_sample>  (1) 
100

>  <b_lp_Chiralities_Consistent>  (1) 
1

>  <r_epik_Charging_Adjusted_Penalty>  (1) 
0.34281104315020688

>  <r_epik_Ionization_Penalty>  (1) 
0.19450335348640826

>  <r_epik_Ionization_Penalty_Charging>  (1) 
0.0023970713432799498

>  <r_epik_Ionization_Penalty_Neutral>  (1) 
0.1921062821431283

>  <r_epik_State_Penalty>  (1) 
0.34041397180692695

>  <r_glide_ring_energy>  (1) 
0

>  <r_i_docking_score>  (1) 
-1.0611313337962904

>  <r_i_glide_ecoul>  (1) 
-9.1799890847902681

>  <r_i_glide_eff_state_penalty>  (1) 
0.34041397180692695

>  <r_i_glide_einternal>  (1) 
4.2076611930624477

>  <r_i_glide_emodel>  (1) 
-33.373238421991232

>  <r_i_glide_emodel_strain>  (1) 
2.2090692566199359

>  <r_i_glide_energy>  (1) 
-33.754454527737423

>  <r_i_glide_erotb>  (1) 
5.5093939013808209

>  <r_i_glide_esite>  (1) 
-0.10000000000000001

>  <r_i_glide_evdw>  (1) 
-24.574465442947158

>  <r_i_glide_gscore>  (1) 
-1.4015453056032174

>  <r_i_glide_gscore_strain>  (1) 
0

>  <r_i_glide_hbond>  (1) 
-0.344086638077998

>  <r_i_glide_ligand_efficiency>  (1) 
-0.075795095271163598

>  <r_i_glide_ligand_efficiency_ln>  (1) 
-0.29159511315214132

>  <r_i_glide_ligand_efficiency_sa>  (1) 
-0.18267696253021953

>  <r_i_glide_lipo>  (1) 
-1.5808403221956036

>  <r_i_glide_metal>  (1) 
-0

>  <r_i_glide_rewards>  (1) 
-2.2802906118445385

>  <r_lp_Energy>  (1) 
12.430294

>  <s_epik_cmdline>  (1) 
J2VwaWtfcHl0aG9uJywgJy1waHQnLCAnMS4wJywgJy1waCcsICc3LjQnLCAnLXRuJywgJzgnLCAnLW1hJywgJzUwMCcsICctaW1hZScsICc8aW5maWxlLm1hZT4nLCAnLW9tYWUnLCAnPG91dGZpbGUubWFlPic=

>  <s_epik_input>  (1) 
W0NIM11PW0NASF0oW0NIM10pW0NIMl1TW0NIMl1bQ0gyXVtDSDJdW0NIMl1bTkhdW0NIMl1bQ0gyXVtOSDJd

>  <s_glide_docking_method>  (1) 
confgen

>  <s_i_glide_gridfile>  (1) 
gpcr_5ht2c_6bqh_protein_autoprepared_prepared

>  <s_lp_Force_Field>  (1) 
S-OPLS

>  <s_lp_Variant>  (1) 
DiffSBDD_31-1

>  <s_m_source_file>  (1) 
generated_GPCR_5HT2C_ligand_DiffSBDD_2026-06-23_prepared.sdf

>  <GenAI_Model>  (1) 
DiffSBDD

>  <Protein>  (1) 
GPCR_5HT2C

$$$$
DiffSBDD_51
     RDKit          3D

  0  0  0  0  0  0  0  0  0  0999 V3000
M  V30 BEGIN CTAB
M  V30 COUNTS 39 39 0 0 1
M  V30 BEGIN ATOM
M  V30 1 C 38.215530 28.030344 54.183996 0
M  V30 2 C 36.832561 33.604330 60.258827 0
M  V30 3 C 37.150850 31.361178 61.436387 0
M  V30 4 C 37.966387 30.554443 58.479884 0
M  V30 5 N 37.505683 30.137750 57.296153 0
M  V30 6 C 38.101158 29.037600 56.548195 0
M  V30 7 C 40.272612 28.801385 51.570387 0
M  V30 8 C 35.306437 33.536773 60.069913 0
M  V30 9 O 38.938889 30.061878 59.052795 0
M  V30 10 N 37.245143 31.571954 58.967760 0
M  V30 11 C 37.970326 28.248201 52.679195 0
M  V30 12 C 37.543010 32.235693 60.234024 0 CFG=1
M  V30 13 C 38.930659 29.254460 52.068276 0
M  V30 14 C 39.245138 29.276115 50.586650 0
M  V30 15 C 37.832095 29.243022 55.049898 0
M  V30 16 H 39.261122 27.769784 54.350647 0
M  V30 17 H 37.632895 27.168194 54.511131 0
M  V30 18 H 37.057394 34.116845 61.194865 0
M  V30 19 H 37.250506 34.231925 59.470152 0
M  V30 20 H 37.274015 31.908857 62.370875 0
M  V30 21 H 36.114079 31.031460 61.367766 0
M  V30 22 H 37.782396 30.475726 61.497309 0
M  V30 23 H 36.694027 30.606633 56.895469 0
M  V30 24 H 39.176386 28.968111 56.724057 0
M  V30 25 H 37.655494 28.104222 56.894432 0
M  V30 26 H 41.135996 29.437278 51.733490 0
M  V30 27 H 40.445138 27.737755 51.622853 0
M  V30 28 H 34.883176 34.537751 60.025626 0
M  V30 29 H 35.028541 33.037608 59.141452 0
M  V30 30 H 34.822512 33.011129 60.892720 0
M  V30 31 H 36.457116 31.915669 58.423993 0
M  V30 32 H 38.077136 27.298155 52.153610 0
M  V30 33 H 36.944159 28.571136 52.504368 0
M  V30 34 H 38.617351 32.423898 60.285678 0
M  V30 35 H 38.935816 30.217868 52.567805 0
M  V30 36 H 38.845086 28.505546 49.934106 0
M  V30 37 H 39.403532 30.248209 50.124050 0
M  V30 38 H 36.777356 29.468268 54.894735 0
M  V30 39 H 38.377831 30.128667 54.725748 0
M  V30 END ATOM
M  V30 BEGIN BOND
M  V30 1 1 5 4
M  V30 2 1 6 5
M  V30 3 1 8 2
M  V30 4 2 9 4
M  V30 5 1 10 4
M  V30 6 1 11 1
M  V30 7 1 12 2
M  V30 8 1 12 3
M  V30 9 1 12 10
M  V30 10 1 13 7
M  V30 11 1 13 11
M  V30 12 1 14 7
M  V30 13 1 14 13
M  V30 14 1 15 1
M  V30 15 1 15 6
M  V30 16 1 16 1
M  V30 17 1 17 1
M  V30 18 1 18 2
M  V30 19 1 19 2
M  V30 20 1 20 3
M  V30 21 1 21 3
M  V30 22 1 22 3
M  V30 23 1 23 5
M  V30 24 1 24 6
M  V30 25 1 25 6
M  V30 26 1 26 7
M  V30 27 1 27 7
M  V30 28 1 28 8
M  V30 29 1 29 8
M  V30 30 1 30 8
M  V30 31 1 31 10
M  V30 32 1 32 11
M  V30 33 1 33 11
M  V30 34 1 12 34 CFG=3
M  V30 35 1 35 13
M  V30 36 1 36 14
M  V30 37 1 37 14
M  V30 38 1 38 15
M  V30 39 1 39 15
M  V30 END BOND
M  V30 END CTAB
M  END
>  <i_epik_Tot_Q>  (1) 
0

>  <i_epik_Tot_abs_Q>  (1) 
0

>  <i_i_glide_confnum>  (1) 
150

>  <i_i_glide_lignum>  (1) 
107

>  <i_i_glide_posenum>  (1) 
390

>  <i_i_glide_rotatable_bonds>  (1) 
9

>  <i_lp_mmshare_version>  (1) 
72125

>  <i_m_source_file_index>  (1) 
52

>  <i_f3d_flags>  (1) 
0

>  <num_sample>  (1) 
100

>  <b_lp_Chiralities_Consistent>  (1) 
1

>  <r_epik_Charging_Adjusted_Penalty>  (1) 
0

>  <r_epik_Ionization_Penalty>  (1) 
2.8418814736596529e-05

>  <r_epik_Ionization_Penalty_Charging>  (1) 
0

>  <r_epik_Ionization_Penalty_Neutral>  (1) 
2.8418814736596529e-05

>  <r_epik_State_Penalty>  (1) 
-0

>  <r_glide_ring_energy>  (1) 
0

>  <r_i_docking_score>  (1) 
-0.98336062892144849

>  <r_i_glide_ecoul>  (1) 
-5.4165321549083671

>  <r_i_glide_eff_state_penalty>  (1) 
-0

>  <r_i_glide_einternal>  (1) 
1.9953284575094834

>  <r_i_glide_emodel>  (1) 
-27.363340698150914

>  <r_i_glide_emodel_strain>  (1) 
0

>  <r_i_glide_energy>  (1) 
-26.558737855095529

>  <r_i_glide_erotb>  (1) 
5.1718031322358726

>  <r_i_glide_esite>  (1) 
-0.25861450035817901

>  <r_i_glide_evdw>  (1) 
-21.142205700187162

>  <r_i_glide_gscore>  (1) 
-0.98336062892144849

>  <r_i_glide_gscore_strain>  (1) 
0

>  <r_i_glide_hbond>  (1) 
-0.30399999999999999

>  <r_i_glide_ligand_efficiency>  (1) 
-0.065557375261429893

>  <r_i_glide_ligand_efficiency_ln>  (1) 
-0.26519614772991656

>  <r_i_glide_ligand_efficiency_sa>  (1) 
-0.16167839043115209

>  <r_i_glide_lipo>  (1) 
-1.6132781573371364

>  <r_i_glide_metal>  (1) 
-0

>  <r_i_glide_rewards>  (1) 
-2.1096809952163933

>  <r_lp_Energy>  (1) 
13.360514

>  <r_lp_tautomer_probability>  (1) 
1

>  <s_epik_cmdline>  (1) 
J2VwaWtfcHl0aG9uJywgJy1waHQnLCAnMS4wJywgJy1waCcsICc3LjQnLCAnLXRuJywgJzgnLCAnLW1hJywgJzUwMCcsICctaW1hZScsICc8aW5maWxlLm1hZT4nLCAnLW9tYWUnLCAnPG91dGZpbGUubWFlPic=

>  <s_epik_input>  (1) 
W0NIMl0xW0NIMl1bQ0hdMVtDSDJdW0NIMl1bQ0gyXVtDSDJdW05IXUMoPU8pW05IXVtDQEhdKFtDSDNdKVtDSDJdW0NIM10=

>  <s_glide_docking_method>  (1) 
confgen

>  <s_i_glide_gridfile>  (1) 
gpcr_5ht2c_6bqh_protein_autoprepared_prepared

>  <s_lp_Force_Field>  (1) 
S-OPLS

>  <s_lp_Variant>  (1) 
DiffSBDD_51-1

>  <s_m_source_file>  (1) 
generated_GPCR_5HT2C_ligand_DiffSBDD_2026-06-23_prepared.sdf

>  <GenAI_Model>  (1) 
DiffSBDD

>  <Protein>  (1) 
GPCR_5HT2C

$$$$
DiffSBDD_31
     RDKit          3D

  0  0  0  0  0  0  0  0  0  0999 V3000
M  V30 BEGIN CTAB
M  V30 COUNTS 40 39 0 0 1
M  V30 BEGIN ATOM
M  V30 1 S 37.314156 28.171041 53.368965 0
M  V30 2 C 37.603715 26.400374 53.656999 0
M  V30 3 C 39.122508 27.401855 50.874123 0
M  V30 4 C 37.663060 25.993640 55.134884 0
M  V30 5 C 40.243924 30.231044 50.058708 0
M  V30 6 C 38.939580 26.484491 55.817867 0
M  V30 7 N 43.374585 27.338359 57.767464 0 CHG=1
M  V30 8 C 39.587904 28.618694 51.681954 0 CFG=1
M  V30 9 C 40.876546 27.689487 57.781739 0
M  V30 10 C 42.214864 27.875333 58.511540 0
M  V30 11 O 39.245174 29.790853 50.970862 0
M  V30 12 C 39.075386 26.035289 57.271950 0
M  V30 13 N 40.443769 26.273048 57.773476 0 CHG=1
M  V30 14 C 39.030222 28.729970 53.121305 0
M  V30 15 H 36.819943 25.834894 53.163029 0
M  V30 16 H 38.534260 26.137191 53.164254 0
M  V30 17 H 39.642695 26.505345 51.192535 0
M  V30 18 H 38.057284 27.217814 50.967999 0
M  V30 19 H 39.301668 27.543982 49.813692 0
M  V30 20 H 36.782620 26.346965 55.668936 0
M  V30 21 H 37.632571 24.905796 55.192427 0
M  V30 22 H 39.912126 31.142735 49.560768 0
M  V30 23 H 40.443748 29.486609 49.287928 0
M  V30 24 H 41.179456 30.453254 50.574867 0
M  V30 25 H 39.802294 26.134689 55.247933 0
M  V30 26 H 38.950253 27.573039 55.789094 0
M  V30 27 H 44.192266 27.416163 58.357612 0
M  V30 28 H 43.248741 26.358738 57.527085 0
M  V30 29 H 40.674311 28.577132 51.766134 0
M  V30 30 H 40.951412 28.076521 56.764204 0
M  V30 31 H 40.109227 28.280603 58.286901 0
M  V30 32 H 42.389439 28.940545 58.670047 0
M  V30 33 H 42.165111 27.409360 59.494186 0
M  V30 34 H 38.347516 26.549873 57.902668 0
M  V30 35 H 38.868640 24.966334 57.346494 0
M  V30 36 H 40.481216 25.908103 58.714575 0
M  V30 37 H 39.645021 28.143897 53.791731 0
M  V30 38 H 39.115012 29.759784 53.466623 0
M  V30 39 H 41.074890 25.735263 57.190571 0
M  V30 40 H 43.529947 27.865739 56.918870 0
M  V30 END ATOM
M  V30 BEGIN BOND
M  V30 1 1 2 1
M  V30 2 1 4 2
M  V30 3 1 6 4
M  V30 4 1 8 3
M  V30 5 1 10 7
M  V30 6 1 10 9
M  V30 7 1 11 5
M  V30 8 1 11 8
M  V30 9 1 12 6
M  V30 10 1 13 9
M  V30 11 1 13 12
M  V30 12 1 14 1
M  V30 13 1 14 8
M  V30 14 1 15 2
M  V30 15 1 16 2
M  V30 16 1 17 3
M  V30 17 1 18 3
M  V30 18 1 19 3
M  V30 19 1 20 4
M  V30 20 1 21 4
M  V30 21 1 22 5
M  V30 22 1 23 5
M  V30 23 1 24 5
M  V30 24 1 25 6
M  V30 25 1 26 6
M  V30 26 1 27 7
M  V30 27 1 28 7
M  V30 28 1 8 29 CFG=1
M  V30 29 1 30 9
M  V30 30 1 31 9
M  V30 31 1 32 10
M  V30 32 1 33 10
M  V30 33 1 34 12
M  V30 34 1 35 12
M  V30 35 1 36 13
M  V30 36 1 37 14
M  V30 37 1 38 14
M  V30 38 1 39 13
M  V30 39 1 40 7
M  V30 END BOND
M  V30 END CTAB
M  END
>  <i_epik_Tot_Q>  (1) 
2

>  <i_epik_Tot_abs_Q>  (1) 
2

>  <i_i_glide_confnum>  (1) 
92

>  <i_i_glide_lignum>  (1) 
75

>  <i_i_glide_posenum>  (1) 
366

>  <i_i_glide_rotatable_bonds>  (1) 
10

>  <i_lp_mmshare_version>  (1) 
72125

>  <i_m_source_file_index>  (1) 
32

>  <i_f3d_flags>  (1) 
0

>  <num_sample>  (1) 
100

>  <b_lp_Chiralities_Consistent>  (1) 
1

>  <r_epik_Charging_Adjusted_Penalty>  (1) 
2.088492378820884

>  <r_epik_Ionization_Penalty>  (1) 
1.179420884756136

>  <r_epik_Ionization_Penalty_Charging>  (1) 
1.1794208847540233

>  <r_epik_Ionization_Penalty_Neutral>  (1) 
2.1128257851734737e-12

>  <r_epik_State_Penalty>  (1) 
0.90907149406686061

>  <r_glide_ring_energy>  (1) 
0

>  <r_i_docking_score>  (1) 
-0.97462437109155931

>  <r_i_glide_ecoul>  (1) 
-7.0096846205414138

>  <r_i_glide_eff_state_penalty>  (1) 
0.90907149406686061

>  <r_i_glide_einternal>  (1) 
5.1485918059049833

>  <r_i_glide_emodel>  (1) 
-31.934770243525612

>  <r_i_glide_emodel_strain>  (1) 
1.1954034806141882

>  <r_i_glide_energy>  (1) 
-29.531080444306689

>  <r_i_glide_erotb>  (1) 
5.4672764503098783

>  <r_i_glide_esite>  (1) 
0

>  <r_i_glide_evdw>  (1) 
-22.521395823765275

>  <r_i_glide_gscore>  (1) 
-1.8836958651584199

>  <r_i_glide_gscore_strain>  (1) 
0

>  <r_i_glide_hbond>  (1) 
0

>  <r_i_glide_ligand_efficiency>  (1) 
-0.069616026506539946

>  <r_i_glide_ligand_efficiency_ln>  (1) 
-0.26782330774508628

>  <r_i_glide_ligand_efficiency_sa>  (1) 
-0.16778452774735503

>  <r_i_glide_lipo>  (1) 
-3.0528666478816877

>  <r_i_glide_metal>  (1) 
-0

>  <r_i_glide_rewards>  (1) 
-2.1205831833171347

>  <r_lp_Energy>  (1) 
18.306276999999998

>  <s_epik_cmdline>  (1) 
J2VwaWtfcHl0aG9uJywgJy1waHQnLCAnMS4wJywgJy1waCcsICc3LjQnLCAnLXRuJywgJzgnLCAnLW1hJywgJzUwMCcsICctaW1hZScsICc8aW5maWxlLm1hZT4nLCAnLW9tYWUnLCAnPG91dGZpbGUubWFlPic=

>  <s_epik_input>  (1) 
W0NIM11PW0NASF0oW0NIM10pW0NIMl1TW0NIMl1bQ0gyXVtDSDJdW0NIMl1bTkhdW0NIMl1bQ0gyXVtOSDJd

>  <s_glide_docking_method>  (1) 
confgen

>  <s_i_glide_gridfile>  (1) 
gpcr_5ht2c_6bqh_protein_autoprepared_prepared

>  <s_lp_Force_Field>  (1) 
S-OPLS

>  <s_lp_Variant>  (1) 
DiffSBDD_31-3

>  <s_m_source_file>  (1) 
generated_GPCR_5HT2C_ligand_DiffSBDD_2026-06-23_prepared.sdf

>  <GenAI_Model>  (1) 
DiffSBDD

>  <Protein>  (1) 
GPCR_5HT2C

$$$$
DiffSBDD_78
     RDKit          3D

  0  0  0  0  0  0  0  0  0  0999 V3000
M  V30 BEGIN CTAB
M  V30 COUNTS 105 110 0 0 1
M  V30 BEGIN ATOM
M  V30 1 O 39.934947 36.139206 64.852743 0
M  V30 2 C 39.130313 25.355713 57.758541 0
M  V30 3 C 40.299326 30.239852 54.742161 0 CFG=1
M  V30 4 C 37.712610 38.018843 59.897529 0
M  V30 5 O 34.439631 38.537685 62.672708 0
M  V30 6 C 37.850454 27.716421 57.353008 0 CFG=2
M  V30 7 C 38.909305 36.889364 64.212480 0
M  V30 8 O 37.815059 37.721402 62.359697 0
M  V30 9 C 38.043486 26.326433 57.868629 0 CFG=2
M  V30 10 O 36.963878 35.147965 58.966365 0
M  V30 11 C 39.019639 34.996552 48.309600 0
M  V30 12 N 39.352136 29.336846 55.397642 0
M  V30 13 N 38.252236 26.694315 56.454312 0 CFG=1 CHG=1
M  V30 14 C 37.247914 35.840506 49.562996 0
M  V30 15 C 38.780062 24.062899 57.044290 0
M  V30 16 C 40.142903 30.890453 53.361233 0 CFG=1
M  V30 17 N 39.275299 29.754775 56.778327 0
M  V30 18 C 39.780540 36.209267 66.273122 0
M  V30 19 C 38.823488 28.776106 57.772307 0 CFG=1
M  V30 20 C 37.379936 34.371230 49.636698 0
M  V30 21 C 39.029112 30.440565 59.684028 0
M  V30 22 C 37.800454 38.676053 61.296660 0 CFG=2
M  V30 23 C 38.122631 31.970456 56.520962 0
M  V30 24 C 38.842268 32.451441 48.898836 0
M  V30 25 C 35.307125 38.537056 61.571465 0
M  V30 26 C 38.923924 36.884840 62.668882 0 CFG=2
M  V30 27 C 38.417039 32.114565 55.036682 0
M  V30 28 C 40.821337 35.359498 67.004663 0
M  V30 29 O 40.262377 25.583508 58.167576 0
M  V30 30 C 38.151655 29.984141 58.512140 0
M  V30 31 C 38.359342 33.902429 48.967719 0
M  V30 32 C 36.771187 29.820056 59.169191 0
M  V30 33 C 37.142246 35.213295 61.763904 0
M  V30 34 C 37.411053 25.804992 55.618133 0
M  V30 35 C 39.247602 31.890876 50.334408 0
M  V30 36 C 39.463874 30.405256 50.825956 0
M  V30 37 O 38.448854 36.137761 48.746324 0
M  V30 38 N 37.525964 32.925738 58.623350 0
M  V30 39 S 36.838856 33.567042 61.084671 0
M  V30 40 C 37.842021 33.033286 57.287676 0
M  V30 41 C 36.508039 39.481062 61.619187 0
M  V30 42 C 37.121094 34.002151 59.371461 0
M  V30 43 C 38.115227 24.410027 55.660902 0
M  V30 44 C 39.303114 30.084702 52.383181 0
M  V30 45 O 39.945712 34.939473 47.509960 0
M  V30 46 C 38.090853 30.536910 57.039816 0 CFG=2
M  V30 47 C 39.805372 31.633538 54.664981 0 CFG=1
M  V30 48 C 38.637215 35.489333 62.062573 0
M  V30 49 H 41.352499 30.137432 54.967374 0
M  V30 50 H 37.920026 38.730637 59.101412 0
M  V30 51 H 36.735886 37.588584 59.679642 0
M  V30 52 H 38.433095 37.209690 59.810707 0
M  V30 53 H 34.045155 39.392017 62.746464 0
M  V30 54 H 36.836715 28.004512 57.363138 0
M  V30 55 H 39.018415 37.913670 64.555955 0
M  V30 56 H 37.928442 36.554954 64.552063 0
M  V30 57 H 37.086982 25.833047 58.047796 0
M  V30 58 H 39.686257 28.380790 55.313934 0
M  V30 59 H 37.248920 36.330428 50.531082 0
M  V30 60 H 38.062566 23.533784 57.676562 0
M  V30 61 H 39.647508 23.424522 56.969672 0
M  V30 62 H 40.999351 31.333447 52.864375 0
M  V30 63 H 39.869351 37.248025 66.593929 0
M  V30 64 H 38.790908 35.869151 66.584398 0
M  V30 65 H 39.672700 28.370886 58.325571 0
M  V30 66 H 36.718347 33.785325 50.230107 0
M  V30 67 H 38.710586 31.348790 60.188925 0
M  V30 68 H 40.043405 30.535392 59.379104 0
M  V30 69 H 39.064720 29.665297 60.453910 0
M  V30 70 H 38.684788 39.315964 61.355054 0
M  V30 71 H 39.648315 32.453970 48.190776 0
M  V30 72 H 38.045408 31.894842 48.443121 0
M  V30 73 H 35.682889 37.549950 61.680534 0
M  V30 74 H 34.845390 38.536648 60.597040 0
M  V30 75 H 39.876174 37.294422 62.319107 0
M  V30 76 H 37.656123 31.583528 54.467234 0
M  V30 77 H 38.315057 33.163759 54.764724 0
M  V30 78 H 40.671237 35.420048 68.084828 0
M  V30 79 H 41.827912 35.712992 66.788566 0
M  V30 80 H 40.756140 34.308359 66.721467 0
M  V30 81 H 36.439685 36.137761 48.936172 0
M  V30 82 H 36.510186 30.666988 59.807383 0
M  V30 83 H 36.760857 28.943114 59.802978 0
M  V30 84 H 35.965805 29.721518 58.437622 0
M  V30 85 H 36.780724 35.943496 61.062932 0
M  V30 86 H 36.474876 35.364639 62.594123 0
M  V30 87 H 36.387634 25.741838 55.990181 0
M  V30 88 H 37.366900 26.188708 54.597157 0
M  V30 89 H 40.280801 32.127670 50.343191 0
M  V30 90 H 38.834115 32.537010 51.118580 0
M  V30 91 H 38.860896 29.702106 50.255471 0
M  V30 92 H 40.476867 30.104395 50.542399 0
M  V30 93 H 37.584014 32.025689 59.072867 0
M  V30 94 H 37.826570 34.043511 56.912868 0
M  V30 95 H 36.478466 39.922207 62.605019 0
M  V30 96 H 36.384834 40.339739 60.967790 0
M  V30 97 H 38.894687 24.402451 54.897885 0
M  V30 98 H 37.408322 23.630257 55.370177 0
M  V30 99 H 39.641592 29.055302 52.489336 0
M  V30 100 H 38.303066 30.031799 52.817055 0
M  V30 101 H 37.229185 30.104790 56.529162 0
M  V30 102 H 40.548460 32.137728 55.263934 0
M  V30 103 H 39.194897 35.420951 61.127516 0
M  V30 104 H 39.040503 34.702667 62.703019 0
M  V30 105 H 39.242329 26.692985 56.252346 0
M  V30 END ATOM
M  V30 BEGIN BOND
M  V30 1 1 7 1
M  V30 2 1 9 2
M  V30 3 1 9 6
M  V30 4 1 12 3
M  V30 5 1 13 6
M  V30 6 1 13 9
M  V30 7 1 15 2
M  V30 8 1 16 3
M  V30 9 1 17 12
M  V30 10 1 18 1
M  V30 11 1 19 6
M  V30 12 1 19 17
M  V30 13 1 20 14
M  V30 14 1 22 4
M  V30 15 1 22 8
M  V30 16 1 25 5
M  V30 17 1 26 7
M  V30 18 1 26 8
M  V30 19 1 27 23
M  V30 20 1 28 18
M  V30 21 2 29 2
M  V30 22 1 30 19
M  V30 23 1 30 21
M  V30 24 1 31 11
M  V30 25 2 31 20
M  V30 26 1 31 24
M  V30 27 1 32 30
M  V30 28 1 34 13
M  V30 29 1 35 24
M  V30 30 1 36 35
M  V30 31 1 37 11
M  V30 32 1 37 14
M  V30 33 1 39 33
M  V30 34 2 40 23
M  V30 35 1 40 38
M  V30 36 1 41 22
M  V30 37 1 41 25
M  V30 38 2 42 10
M  V30 39 1 42 38
M  V30 40 1 42 39
M  V30 41 1 43 15
M  V30 42 1 43 34
M  V30 43 1 44 16
M  V30 44 1 44 36
M  V30 45 2 45 11
M  V30 46 1 46 17
M  V30 47 1 46 23
M  V30 48 1 46 30
M  V30 49 1 47 3
M  V30 50 1 47 16
M  V30 51 1 47 27
M  V30 52 1 48 26
M  V30 53 1 48 33
M  V30 54 1 3 49 CFG=1
M  V30 55 1 50 4
M  V30 56 1 51 4
M  V30 57 1 52 4
M  V30 58 1 53 5
M  V30 59 1 6 54 CFG=3
M  V30 60 1 55 7
M  V30 61 1 56 7
M  V30 62 1 9 57 CFG=3
M  V30 63 1 58 12
M  V30 64 1 59 14
M  V30 65 1 60 15
M  V30 66 1 61 15
M  V30 67 1 16 62 CFG=3
M  V30 68 1 63 18
M  V30 69 1 64 18
M  V30 70 1 19 65 CFG=1
M  V30 71 1 66 20
M  V30 72 1 67 21
M  V30 73 1 68 21
M  V30 74 1 69 21
M  V30 75 1 22 70 CFG=3
M  V30 76 1 71 24
M  V30 77 1 72 24
M  V30 78 1 73 25
M  V30 79 1 74 25
M  V30 80 1 26 75 CFG=1
M  V30 81 1 76 27
M  V30 82 1 77 27
M  V30 83 1 78 28
M  V30 84 1 79 28
M  V30 85 1 80 28
M  V30 86 1 81 14
M  V30 87 1 82 32
M  V30 88 1 83 32
M  V30 89 1 84 32
M  V30 90 1 85 33
M  V30 91 1 86 33
M  V30 92 1 87 34
M  V30 93 1 88 34
M  V30 94 1 89 35
M  V30 95 1 90 35
M  V30 96 1 91 36
M  V30 97 1 92 36
M  V30 98 1 93 38
M  V30 99 1 94 40
M  V30 100 1 95 41
M  V30 101 1 96 41
M  V30 102 1 97 43
M  V30 103 1 98 43
M  V30 104 1 99 44
M  V30 105 1 100 44
M  V30 106 1 46 101 CFG=3
M  V30 107 1 47 102 CFG=1
M  V30 108 1 103 48
M  V30 109 1 104 48
M  V30 110 1 13 105 CFG=3
M  V30 END BOND
M  V30 END CTAB
M  END
>  <i_epik_Tot_Q>  (1) 
1

>  <i_epik_Tot_abs_Q>  (1) 
1

>  <i_i_glide_confnum>  (1) 
4448

>  <i_i_glide_lignum>  (1) 
182

>  <i_i_glide_posenum>  (1) 
188

>  <i_i_glide_rotatable_bonds>  (1) 
20

>  <i_lp_mmshare_version>  (1) 
72125

>  <i_m_source_file_index>  (1) 
79

>  <i_f3d_flags>  (1) 
0

>  <num_sample>  (1) 
100

>  <b_lp_Chiralities_Consistent>  (1) 
1

>  <r_epik_Charging_Adjusted_Penalty>  (1) 
0.27991857207723647

>  <r_epik_Ionization_Penalty>  (1) 
0.14008487576319317

>  <r_epik_Ionization_Penalty_Charging>  (1) 
0.13995928603861824

>  <r_epik_Ionization_Penalty_Neutral>  (1) 
0.0001255897245749389

>  <r_epik_State_Penalty>  (1) 
0.13995928603861821

>  <r_glide_ring_energy>  (1) 
0

>  <r_i_docking_score>  (1) 
-0.93507190054072409

>  <r_i_glide_ecoul>  (1) 
-1.5933074943319161

>  <r_i_glide_eff_state_penalty>  (1) 
0.13995928603861821

>  <r_i_glide_einternal>  (1) 
31.631376326566816

>  <r_i_glide_emodel>  (1) 
-21.46512683921685

>  <r_i_glide_emodel_strain>  (1) 
22.443964969902737

>  <r_i_glide_energy>  (1) 
-3.0763371653708305

>  <r_i_glide_erotb>  (1) 
0.59343049219720367

>  <r_i_glide_esite>  (1) 
-0.10163147568320247

>  <r_i_glide_evdw>  (1) 
-1.4830296710389146

>  <r_i_glide_gscore>  (1) 
-1.0750311865793423

>  <r_i_glide_gscore_strain>  (1) 
4.6109912424756843

>  <r_i_glide_hbond>  (1) 
-0.32976915759408021

>  <r_i_glide_ligand_efficiency>  (1) 
-0.019480664594598417

>  <r_i_glide_ligand_efficiency_ln>  (1) 
-0.19195921056159537

>  <r_i_glide_ligand_efficiency_sa>  (1) 
-0.070797433593801515

>  <r_i_glide_lipo>  (1) 
-4.0781353203038284

>  <r_i_glide_metal>  (1) 
-0

>  <r_i_glide_rewards>  (1) 
-1.4567693599693863

>  <r_lp_Energy>  (1) 
62.784340999999998

>  <r_lp_tautomer_probability>  (1) 
0.99979120136373534

>  <s_epik_Chemistry_Notes>  (1) 
This compound has an ester and may undergo hydrolysis at high or low pH.

>  <s_epik_cmdline>  (1) 
J2VwaWtfcHl0aG9uJywgJy1waHQnLCAnMS4wJywgJy1waCcsICc3LjQnLCAnLXRuJywgJzgnLCAnLW1hJywgJzUwMCcsICctaW1hZScsICc8aW5maWxlLm1hZT4nLCAnLW9tYWUnLCAnPG91dGZpbGUubWFlPic=

>  <s_epik_input>  (1) 
W09IXVtDSDJdW0NIMl1bQ0BIXShbQ0gzXSlPW0NAQEhdKFtDSDJdT1tDSDJdW0NIM10pW0NIMl1bQ0gyXVNDKD1PKVtOSF1cW0NIXT1DKFtDQEhdMU4oW05IXTIpW0NAQEhdKEMxKFtDSDNdKVtDSDNdKVtDQEhdM04oW0NASF0zNClbQ0gyXVtDSDJdW0NIMl1DND1PKVxbQ0gyXVtDQEBIXShbQ0BASF0yNSlbQ0BASF01W0NIMl1bQ0gyXVtDSDJdW0NIMl1bQ0BASF0oQzY9TylbQ0hdPVtDSF1PNg==

>  <s_glide_docking_method>  (1) 
confgen

>  <s_i_glide_gridfile>  (1) 
gpcr_5ht2c_6bqh_protein_autoprepared_prepared

>  <s_lp_Force_Field>  (1) 
S-OPLS

>  <s_lp_Variant>  (1) 
DiffSBDD_78-4

>  <s_m_source_file>  (1) 
generated_GPCR_5HT2C_ligand_DiffSBDD_2026-06-23_prepared.sdf

>  <GenAI_Model>  (1) 
DiffSBDD

>  <Protein>  (1) 
GPCR_5HT2C

$$$$
DiffSBDD_55
     RDKit          3D

  0  0  0  0  0  0  0  0  0  0999 V3000
M  V30 BEGIN CTAB
M  V30 COUNTS 39 38 0 0 1
M  V30 BEGIN ATOM
M  V30 1 C 37.417540 28.521239 54.073159 0
M  V30 2 C 38.839387 29.472205 56.082307 0
M  V30 3 C 39.587849 28.362847 50.293592 0
M  V30 4 C 37.666986 29.656599 55.098505 0
M  V30 5 C 39.445610 26.957511 53.786652 0
M  V30 6 C 38.578886 28.063886 53.161594 0 CFG=2
M  V30 7 C 39.866606 29.375782 51.384657 0
M  V30 8 C 39.420091 29.235145 52.650041 0
M  V30 9 C 38.673372 28.308411 57.075897 0
M  V30 10 C 39.898159 28.116989 57.992661 0
M  V30 11 N 42.268626 27.337749 58.167761 0 CHG=1
M  V30 12 C 40.696691 30.570386 50.960892 0
M  V30 13 C 41.111135 27.501152 57.271782 0
M  V30 14 H 36.634236 28.872786 53.402604 0
M  V30 15 H 36.988848 27.650450 54.567752 0
M  V30 16 H 39.769139 29.373989 55.527561 0
M  V30 17 H 38.946893 30.395771 56.652885 0
M  V30 18 H 40.445109 27.705873 50.167797 0
M  V30 19 H 38.715076 27.737782 50.440167 0
M  V30 20 H 39.427908 28.908267 49.367762 0
M  V30 21 H 37.815721 30.591678 54.557457 0
M  V30 22 H 36.752601 29.819206 55.670366 0
M  V30 23 H 40.128585 26.537757 53.047652 0
M  V30 24 H 40.044998 27.319436 54.616984 0
M  V30 25 H 38.828780 26.137610 54.155138 0
M  V30 26 H 38.067223 27.575647 52.338882 0
M  V30 27 H 39.665532 29.996487 53.373313 0
M  V30 28 H 37.795111 28.504317 57.692767 0
M  V30 29 H 38.462519 27.379021 56.546650 0
M  V30 30 H 40.169551 29.073426 58.442005 0
M  V30 31 H 39.611811 27.464238 58.818438 0
M  V30 32 H 42.961688 26.766837 57.699437 0
M  V30 33 H 42.664340 28.236537 58.401711 0
M  V30 34 H 41.673389 30.249329 50.597662 0
M  V30 35 H 40.197550 31.110342 50.155736 0
M  V30 36 H 40.845071 31.269406 51.784071 0
M  V30 37 H 40.845386 26.524571 56.865600 0
M  V30 38 H 41.424698 28.122660 56.433831 0
M  V30 39 H 41.987781 26.870028 59.016882 0
M  V30 END ATOM
M  V30 BEGIN BOND
M  V30 1 1 4 1
M  V30 2 1 4 2
M  V30 3 1 6 1
M  V30 4 1 6 5
M  V30 5 1 7 3
M  V30 6 1 8 6
M  V30 7 2 8 7
M  V30 8 1 9 2
M  V30 9 1 10 9
M  V30 10 1 12 7
M  V30 11 1 13 10
M  V30 12 1 13 11
M  V30 13 1 14 1
M  V30 14 1 15 1
M  V30 15 1 16 2
M  V30 16 1 17 2
M  V30 17 1 18 3
M  V30 18 1 19 3
M  V30 19 1 20 3
M  V30 20 1 21 4
M  V30 21 1 22 4
M  V30 22 1 23 5
M  V30 23 1 24 5
M  V30 24 1 25 5
M  V30 25 1 6 26 CFG=3
M  V30 26 1 27 8
M  V30 27 1 28 9
M  V30 28 1 29 9
M  V30 29 1 30 10
M  V30 30 1 31 10
M  V30 31 1 32 11
M  V30 32 1 33 11
M  V30 33 1 34 12
M  V30 34 1 35 12
M  V30 35 1 36 12
M  V30 36 1 37 13
M  V30 37 1 38 13
M  V30 38 1 39 11
M  V30 END BOND
M  V30 END CTAB
M  END
>  <i_epik_Tot_Q>  (1) 
1

>  <i_epik_Tot_abs_Q>  (1) 
1

>  <i_i_glide_confnum>  (1) 
92

>  <i_i_glide_lignum>  (1) 
121

>  <i_i_glide_posenum>  (1) 
64

>  <i_i_glide_rotatable_bonds>  (1) 
7

>  <i_lp_mmshare_version>  (1) 
72125

>  <i_m_source_file_index>  (1) 
56

>  <i_f3d_flags>  (1) 
0

>  <num_sample>  (1) 
100

>  <b_lp_Chiralities_Consistent>  (1) 
1

>  <r_epik_Charging_Adjusted_Penalty>  (1) 
0.00087881740244438776

>  <r_epik_Ionization_Penalty>  (1) 
0.00087881740244438776

>  <r_epik_Ionization_Penalty_Charging>  (1) 
0.00087881740244438776

>  <r_epik_Ionization_Penalty_Neutral>  (1) 
0

>  <r_epik_State_Penalty>  (1) 
-0

>  <r_glide_ring_energy>  (1) 
0

>  <r_i_docking_score>  (1) 
-0.93373577423181242

>  <r_i_glide_ecoul>  (1) 
-3.1179889549518327

>  <r_i_glide_eff_state_penalty>  (1) 
-0

>  <r_i_glide_einternal>  (1) 
5.6403071068157358

>  <r_i_glide_emodel>  (1) 
-22.539400666416498

>  <r_i_glide_emodel_strain>  (1) 
0.76182843129494771

>  <r_i_glide_energy>  (1) 
-23.977377095836065

>  <r_i_glide_erotb>  (1) 
5.6086689864227646

>  <r_i_glide_esite>  (1) 
0

>  <r_i_glide_evdw>  (1) 
-20.859388140884231

>  <r_i_glide_gscore>  (1) 
-0.93373577423181242

>  <r_i_glide_gscore_strain>  (1) 
0

>  <r_i_glide_hbond>  (1) 
0

>  <r_i_glide_ligand_efficiency>  (1) 
-0.071825828787062493

>  <r_i_glide_ligand_efficiency_ln>  (1) 
-0.26192118894409477

>  <r_i_glide_ligand_efficiency_sa>  (1) 
-0.16888656270131222

>  <r_i_glide_lipo>  (1) 
-2.5428781852074973

>  <r_i_glide_metal>  (1) 
-0

>  <r_i_glide_rewards>  (1) 
-2.4888588251600923

>  <r_lp_Energy>  (1) 
5.2842919999999998

>  <r_lp_tautomer_probability>  (1) 
1

>  <s_epik_cmdline>  (1) 
J2VwaWtfcHl0aG9uJywgJy1waHQnLCAnMS4wJywgJy1waCcsICc3LjQnLCAnLXRuJywgJzgnLCAnLW1hJywgJzUwMCcsICctaW1hZScsICc8aW5maWxlLm1hZT4nLCAnLW9tYWUnLCAnPG91dGZpbGUubWFlPic=

>  <s_epik_input>  (1) 
W0NIM11DKFtDSDNdKT1bQ0hdW0NAQEhdKFtDSDNdKVtDSDJdW0NIMl1bQ0gyXVtDSDJdW0NIMl1bQ0gyXVtOSDJd

>  <s_glide_docking_method>  (1) 
confgen

>  <s_i_glide_gridfile>  (1) 
gpcr_5ht2c_6bqh_protein_autoprepared_prepared

>  <s_lp_Force_Field>  (1) 
S-OPLS

>  <s_lp_Variant>  (1) 
DiffSBDD_55-1

>  <s_m_source_file>  (1) 
generated_GPCR_5HT2C_ligand_DiffSBDD_2026-06-23_prepared.sdf

>  <GenAI_Model>  (1) 
DiffSBDD

>  <Protein>  (1) 
GPCR_5HT2C

$$$$
DiffSBDD_31
     RDKit          3D

  0  0  0  0  0  0  0  0  0  0999 V3000
M  V30 BEGIN CTAB
M  V30 COUNTS 39 38 0 0 1
M  V30 BEGIN ATOM
M  V30 1 S 38.045108 28.584457 54.398186 0
M  V30 2 C 38.344700 30.373108 54.533832 0
M  V30 3 C 39.330766 27.575602 50.567780 0
M  V30 4 C 38.249618 30.821217 56.002951 0
M  V30 5 C 40.841078 29.973211 51.003727 0
M  V30 6 C 38.598635 32.303776 56.236112 0
M  V30 7 N 34.845009 32.398592 59.767759 0
M  V30 8 C 39.318190 28.342208 51.902573 0 CFG=1
M  V30 9 C 37.088801 33.328534 59.619444 0
M  V30 10 C 35.625908 33.601214 59.982494 0
M  V30 11 O 39.645161 29.718269 51.722027 0
M  V30 12 C 38.570116 32.700019 57.727341 0
M  V30 13 N 37.245186 33.188747 58.160180 0 CHG=1
M  V30 14 C 37.953488 28.273309 52.605801 0
M  V30 15 H 37.617398 30.911148 53.927861 0
M  V30 16 H 39.332210 30.599363 54.131667 0
M  V30 17 H 38.844742 26.603173 50.647456 0
M  V30 18 H 38.845017 28.144779 49.779612 0
M  V30 19 H 40.347777 27.388824 50.224570 0
M  V30 20 H 38.924312 30.202970 56.596484 0
M  V30 21 H 37.245139 30.614537 56.374199 0
M  V30 22 H 41.134418 31.013841 51.133672 0
M  V30 23 H 41.645138 29.337738 51.367520 0
M  V30 24 H 40.711393 29.799415 49.935260 0
M  V30 25 H 37.939544 32.948310 55.651480 0
M  V30 26 H 39.606006 32.475983 55.853673 0
M  V30 27 H 34.845174 32.137760 58.781432 0
M  V30 28 H 35.235257 31.614878 60.270380 0
M  V30 29 H 40.045124 27.868874 52.558339 0
M  V30 30 H 37.715525 34.153927 59.959126 0
M  V30 31 H 37.443140 32.431562 60.130182 0
M  V30 32 H 35.214580 34.425933 59.398430 0
M  V30 33 H 35.546731 33.880148 61.034152 0
M  V30 34 H 39.296568 33.486602 57.921396 0
M  V30 35 H 38.865267 31.848690 58.341287 0
M  V30 36 H 36.541373 32.537729 57.801800 0
M  V30 37 H 37.553929 27.264657 52.507180 0
M  V30 38 H 37.233655 28.937769 52.134792 0
M  V30 39 H 37.057383 34.078244 57.720484 0
M  V30 END ATOM
M  V30 BEGIN BOND
M  V30 1 1 2 1
M  V30 2 1 4 2
M  V30 3 1 6 4
M  V30 4 1 8 3
M  V30 5 1 10 7
M  V30 6 1 10 9
M  V30 7 1 11 5
M  V30 8 1 11 8
M  V30 9 1 12 6
M  V30 10 1 13 9
M  V30 11 1 13 12
M  V30 12 1 14 1
M  V30 13 1 14 8
M  V30 14 1 15 2
M  V30 15 1 16 2
M  V30 16 1 17 3
M  V30 17 1 18 3
M  V30 18 1 19 3
M  V30 19 1 20 4
M  V30 20 1 21 4
M  V30 21 1 22 5
M  V30 22 1 23 5
M  V30 23 1 24 5
M  V30 24 1 25 6
M  V30 25 1 26 6
M  V30 26 1 27 7
M  V30 27 1 28 7
M  V30 28 1 8 29 CFG=1
M  V30 29 1 30 9
M  V30 30 1 31 9
M  V30 31 1 32 10
M  V30 32 1 33 10
M  V30 33 1 34 12
M  V30 34 1 35 12
M  V30 35 1 36 13
M  V30 36 1 37 14
M  V30 37 1 38 14
M  V30 38 1 39 13
M  V30 END BOND
M  V30 END CTAB
M  END
>  <i_epik_Tot_Q>  (1) 
1

>  <i_epik_Tot_abs_Q>  (1) 
1

>  <i_i_glide_confnum>  (1) 
191

>  <i_i_glide_lignum>  (1) 
73

>  <i_i_glide_posenum>  (1) 
64

>  <i_i_glide_rotatable_bonds>  (1) 
10

>  <i_lp_mmshare_version>  (1) 
72125

>  <i_m_source_file_index>  (1) 
32

>  <i_f3d_flags>  (1) 
0

>  <num_sample>  (1) 
100

>  <b_lp_Chiralities_Consistent>  (1) 
1

>  <r_epik_Charging_Adjusted_Penalty>  (1) 
0.34281104315020688

>  <r_epik_Ionization_Penalty>  (1) 
0.19450335348640826

>  <r_epik_Ionization_Penalty_Charging>  (1) 
0.0023970713432799498

>  <r_epik_Ionization_Penalty_Neutral>  (1) 
0.1921062821431283

>  <r_epik_State_Penalty>  (1) 
0.34041397180692695

>  <r_glide_ring_energy>  (1) 
0

>  <r_i_docking_score>  (1) 
-0.85136046641385899

>  <r_i_glide_ecoul>  (1) 
-6.6985151505356946

>  <r_i_glide_eff_state_penalty>  (1) 
0.34041397180692695

>  <r_i_glide_einternal>  (1) 
7.4832020055297654

>  <r_i_glide_emodel>  (1) 
-31.638824538028647

>  <r_i_glide_emodel_strain>  (1) 
0.71478718500992189

>  <r_i_glide_energy>  (1) 
-32.75198852135388

>  <r_i_glide_erotb>  (1) 
5.5093939013808209

>  <r_i_glide_esite>  (1) 
-0.085986269468781115

>  <r_i_glide_evdw>  (1) 
-26.053473370818185

>  <r_i_glide_gscore>  (1) 
-1.191774438220786

>  <r_i_glide_gscore_strain>  (1) 
0

>  <r_i_glide_hbond>  (1) 
-0.35999999999999999

>  <r_i_glide_ligand_efficiency>  (1) 
-0.060811461886704214

>  <r_i_glide_ligand_efficiency_ln>  (1) 
-0.23395082552982741

>  <r_i_glide_ligand_efficiency_sa>  (1) 
-0.14656427443942702

>  <r_i_glide_lipo>  (1) 
-1.6659003665894889

>  <r_i_glide_metal>  (1) 
-0

>  <r_i_glide_rewards>  (1) 
-2.2818307624220733

>  <r_lp_Energy>  (1) 
12.430294

>  <s_epik_cmdline>  (1) 
J2VwaWtfcHl0aG9uJywgJy1waHQnLCAnMS4wJywgJy1waCcsICc3LjQnLCAnLXRuJywgJzgnLCAnLW1hJywgJzUwMCcsICctaW1hZScsICc8aW5maWxlLm1hZT4nLCAnLW9tYWUnLCAnPG91dGZpbGUubWFlPic=

>  <s_epik_input>  (1) 
W0NIM11PW0NASF0oW0NIM10pW0NIMl1TW0NIMl1bQ0gyXVtDSDJdW0NIMl1bTkhdW0NIMl1bQ0gyXVtOSDJd

>  <s_glide_docking_method>  (1) 
confgen

>  <s_i_glide_gridfile>  (1) 
gpcr_5ht2c_6bqh_protein_autoprepared_prepared

>  <s_lp_Force_Field>  (1) 
S-OPLS

>  <s_lp_Variant>  (1) 
DiffSBDD_31-1

>  <s_m_source_file>  (1) 
generated_GPCR_5HT2C_ligand_DiffSBDD_2026-06-23_prepared.sdf

>  <GenAI_Model>  (1) 
DiffSBDD

>  <Protein>  (1) 
GPCR_5HT2C

$$$$
DiffSBDD_55
     RDKit          3D

  0  0  0  0  0  0  0  0  0  0999 V3000
M  V30 BEGIN CTAB
M  V30 COUNTS 39 38 0 0 1
M  V30 BEGIN ATOM
M  V30 1 C 39.917233 30.268331 55.030581 0
M  V30 2 C 38.803603 31.786380 56.797476 0
M  V30 3 C 39.581757 28.329732 51.602410 0
M  V30 4 C 39.284962 30.372967 56.431067 0
M  V30 5 C 37.852509 29.248807 53.867041 0
M  V30 6 C 38.922469 30.362661 53.855150 0 CFG=2
M  V30 7 C 39.932621 29.807226 51.544444 0
M  V30 8 C 39.645137 30.684494 52.537653 0
M  V30 9 C 38.128880 31.820789 58.174266 0
M  V30 10 C 37.743261 33.241590 58.614206 0
M  V30 11 N 35.389780 33.012266 59.367760 0 CHG=1
M  V30 12 C 40.638630 30.252358 50.280043 0
M  V30 13 C 36.775687 33.248243 59.807075 0
M  V30 14 H 40.445133 29.319995 54.967762 0
M  V30 15 H 40.681829 31.040435 54.931575 0
M  V30 16 H 39.645140 32.479177 56.776664 0
M  V30 17 H 38.090452 32.145987 56.055323 0
M  V30 18 H 39.809556 27.886810 52.567758 0
M  V30 19 H 38.533775 28.165307 51.351873 0
M  V30 20 H 40.169447 27.779433 50.867709 0
M  V30 21 H 38.466386 29.660502 56.530338 0
M  V30 22 H 40.028095 30.062389 57.166183 0
M  V30 23 H 37.278653 29.214516 52.944673 0
M  V30 24 H 38.276008 28.262410 54.048802 0
M  V30 25 H 37.131760 29.424317 54.665968 0
M  V30 26 H 38.348332 31.277532 54.000876 0
M  V30 27 H 39.938594 31.716803 52.412289 0
M  V30 28 H 37.245138 31.184406 58.139965 0
M  V30 29 H 38.788503 31.380263 58.922866 0
M  V30 30 H 38.657788 33.767331 58.888839 0
M  V30 31 H 37.310644 33.797879 57.780164 0
M  V30 32 H 34.795354 32.776191 60.147122 0
M  V30 33 H 35.042197 33.845352 58.915108 0
M  V30 34 H 41.645137 29.841385 50.251118 0
M  V30 35 H 40.092926 29.914325 49.398290 0
M  V30 36 H 40.721626 31.337753 50.228555 0
M  V30 37 H 37.065991 32.492467 60.537915 0
M  V30 38 H 36.809694 34.212218 60.316124 0
M  V30 39 H 35.373488 32.268550 58.668665 0
M  V30 END ATOM
M  V30 BEGIN BOND
M  V30 1 1 4 1
M  V30 2 1 4 2
M  V30 3 1 6 1
M  V30 4 1 6 5
M  V30 5 1 7 3
M  V30 6 1 8 6
M  V30 7 2 8 7
M  V30 8 1 9 2
M  V30 9 1 10 9
M  V30 10 1 12 7
M  V30 11 1 13 10
M  V30 12 1 13 11
M  V30 13 1 14 1
M  V30 14 1 15 1
M  V30 15 1 16 2
M  V30 16 1 17 2
M  V30 17 1 18 3
M  V30 18 1 19 3
M  V30 19 1 20 3
M  V30 20 1 21 4
M  V30 21 1 22 4
M  V30 22 1 23 5
M  V30 23 1 24 5
M  V30 24 1 25 5
M  V30 25 1 6 26 CFG=1
M  V30 26 1 27 8
M  V30 27 1 28 9
M  V30 28 1 29 9
M  V30 29 1 30 10
M  V30 30 1 31 10
M  V30 31 1 32 11
M  V30 32 1 33 11
M  V30 33 1 34 12
M  V30 34 1 35 12
M  V30 35 1 36 12
M  V30 36 1 37 13
M  V30 37 1 38 13
M  V30 38 1 39 11
M  V30 END BOND
M  V30 END CTAB
M  END
>  <i_epik_Tot_Q>  (1) 
1

>  <i_epik_Tot_abs_Q>  (1) 
1

>  <i_i_glide_confnum>  (1) 
120

>  <i_i_glide_lignum>  (1) 
121

>  <i_i_glide_posenum>  (1) 
326

>  <i_i_glide_rotatable_bonds>  (1) 
7

>  <i_lp_mmshare_version>  (1) 
72125

>  <i_m_source_file_index>  (1) 
56

>  <i_f3d_flags>  (1) 
0

>  <num_sample>  (1) 
100

>  <b_lp_Chiralities_Consistent>  (1) 
1

>  <r_epik_Charging_Adjusted_Penalty>  (1) 
0.00087881740244438776

>  <r_epik_Ionization_Penalty>  (1) 
0.00087881740244438776

>  <r_epik_Ionization_Penalty_Charging>  (1) 
0.00087881740244438776

>  <r_epik_Ionization_Penalty_Neutral>  (1) 
0

>  <r_epik_State_Penalty>  (1) 
-0

>  <r_glide_ring_energy>  (1) 
0

>  <r_i_docking_score>  (1) 
-0.84099187637052042

>  <r_i_glide_ecoul>  (1) 
-3.7858283697375779

>  <r_i_glide_eff_state_penalty>  (1) 
-0

>  <r_i_glide_einternal>  (1) 
5.0135414813525854

>  <r_i_glide_emodel>  (1) 
-22.290928118900393

>  <r_i_glide_emodel_strain>  (1) 
0.89707145116131315

>  <r_i_glide_energy>  (1) 
-23.763719466756051

>  <r_i_glide_erotb>  (1) 
5.6086689864227646

>  <r_i_glide_esite>  (1) 
-0.079104851853419159

>  <r_i_glide_evdw>  (1) 
-19.977891097018475

>  <r_i_glide_gscore>  (1) 
-0.84099187637052042

>  <r_i_glide_gscore_strain>  (1) 
0

>  <r_i_glide_hbond>  (1) 
-0.18539335113287825

>  <r_i_glide_ligand_efficiency>  (1) 
-0.064691682797732339

>  <r_i_glide_ligand_efficiency_ln>  (1) 
-0.23590570076691311

>  <r_i_glide_ligand_efficiency_sa>  (1) 
-0.15211179776933628

>  <r_i_glide_lipo>  (1) 
-1.9882011108304145

>  <r_i_glide_metal>  (1) 
-0

>  <r_i_glide_rewards>  (1) 
-2.6301927386650128

>  <r_lp_Energy>  (1) 
5.2842919999999998

>  <r_lp_tautomer_probability>  (1) 
1

>  <s_epik_cmdline>  (1) 
J2VwaWtfcHl0aG9uJywgJy1waHQnLCAnMS4wJywgJy1waCcsICc3LjQnLCAnLXRuJywgJzgnLCAnLW1hJywgJzUwMCcsICctaW1hZScsICc8aW5maWxlLm1hZT4nLCAnLW9tYWUnLCAnPG91dGZpbGUubWFlPic=

>  <s_epik_input>  (1) 
W0NIM11DKFtDSDNdKT1bQ0hdW0NAQEhdKFtDSDNdKVtDSDJdW0NIMl1bQ0gyXVtDSDJdW0NIMl1bQ0gyXVtOSDJd

>  <s_glide_docking_method>  (1) 
confgen

>  <s_i_glide_gridfile>  (1) 
gpcr_5ht2c_6bqh_protein_autoprepared_prepared

>  <s_lp_Force_Field>  (1) 
S-OPLS

>  <s_lp_Variant>  (1) 
DiffSBDD_55-1

>  <s_m_source_file>  (1) 
generated_GPCR_5HT2C_ligand_DiffSBDD_2026-06-23_prepared.sdf

>  <GenAI_Model>  (1) 
DiffSBDD

>  <Protein>  (1) 
GPCR_5HT2C

$$$$
DiffSBDD_70
     RDKit          3D

  0  0  0  0  0  0  0  0  0  0999 V3000
M  V30 BEGIN CTAB
M  V30 COUNTS 44 43 0 0 1
M  V30 BEGIN ATOM
M  V30 1 C 39.126425 31.804485 55.735509 0
M  V30 2 C 39.277915 29.348615 52.674590 0
M  V30 3 C 40.226002 30.463287 50.546797 0
M  V30 4 C 39.361987 34.513143 60.708162 0
M  V30 5 C 37.976078 34.110764 60.172988 0
M  V30 6 C 39.730701 27.987223 50.612693 0
M  V30 7 C 38.603183 31.649943 57.167802 0
M  V30 8 C 39.580348 30.592217 53.530671 0
M  V30 9 Cl 41.245126 34.991290 63.367315 0
M  V30 10 C 38.605197 32.970342 57.948781 0
M  V30 11 C 40.663045 36.183104 62.174940 0
M  V30 12 C 39.300697 35.766370 61.598524 0
M  V30 13 C 37.976734 32.816760 59.341719 0
M  V30 14 C 38.917993 30.526220 54.911856 0
M  V30 15 C 40.174626 29.202830 51.429955 0
M  V30 16 H 40.183077 32.069187 55.766740 0
M  V30 17 H 38.614037 32.632896 55.244462 0
M  V30 18 H 38.228082 29.338011 52.379402 0
M  V30 19 H 39.403411 28.455774 53.289042 0
M  V30 20 H 39.240741 30.727922 50.167749 0
M  V30 21 H 40.873928 30.308573 49.683966 0
M  V30 22 H 40.618513 31.325571 51.088035 0
M  V30 23 H 39.783411 33.680656 61.272680 0
M  V30 24 H 40.044078 34.697581 59.878377 0
M  V30 25 H 37.548528 34.924022 59.584712 0
M  V30 26 H 37.305306 33.967469 61.020989 0
M  V30 27 H 38.754480 28.157957 50.165050 0
M  V30 28 H 40.445128 27.789269 49.816973 0
M  V30 29 H 39.649871 27.088448 51.225063 0
M  V30 30 H 37.590571 31.252552 57.134665 0
M  V30 31 H 39.201383 30.906614 57.695973 0
M  V30 32 H 40.656771 30.700660 53.663030 0
M  V30 33 H 39.245349 31.489412 53.008480 0
M  V30 34 H 39.627187 33.337583 58.032433 0
M  V30 35 H 38.048437 33.722424 57.387239 0
M  V30 36 H 41.418249 36.281146 61.394607 0
M  V30 37 H 40.589550 37.141055 62.690707 0
M  V30 38 H 38.895522 36.592889 61.014010 0
M  V30 39 H 38.598799 35.606682 62.417388 0
M  V30 40 H 36.944114 32.487618 59.212472 0
M  V30 41 H 38.478902 32.021498 59.893310 0
M  V30 42 H 37.847963 30.345572 54.798623 0
M  V30 43 H 39.317626 29.672913 55.460927 0
M  V30 44 H 41.191380 29.004886 51.767282 0
M  V30 END ATOM
M  V30 BEGIN BOND
M  V30 1 1 5 4
M  V30 2 1 7 1
M  V30 3 1 8 2
M  V30 4 1 10 7
M  V30 5 1 11 9
M  V30 6 1 12 4
M  V30 7 1 12 11
M  V30 8 1 13 5
M  V30 9 1 13 10
M  V30 10 1 14 1
M  V30 11 1 14 8
M  V30 12 1 15 2
M  V30 13 1 15 3
M  V30 14 1 15 6
M  V30 15 1 16 1
M  V30 16 1 17 1
M  V30 17 1 18 2
M  V30 18 1 19 2
M  V30 19 1 20 3
M  V30 20 1 21 3
M  V30 21 1 22 3
M  V30 22 1 23 4
M  V30 23 1 24 4
M  V30 24 1 25 5
M  V30 25 1 26 5
M  V30 26 1 27 6
M  V30 27 1 28 6
M  V30 28 1 29 6
M  V30 29 1 30 7
M  V30 30 1 31 7
M  V30 31 1 32 8
M  V30 32 1 33 8
M  V30 33 1 34 10
M  V30 34 1 35 10
M  V30 35 1 36 11
M  V30 36 1 37 11
M  V30 37 1 38 12
M  V30 38 1 39 12
M  V30 39 1 40 13
M  V30 40 1 41 13
M  V30 41 1 42 14
M  V30 42 1 43 14
M  V30 43 1 44 15
M  V30 END BOND
M  V30 END CTAB
M  END
>  <i_epik_Tot_Q>  (1) 
0

>  <i_epik_Tot_abs_Q>  (1) 
0

>  <i_i_glide_confnum>  (1) 
53

>  <i_i_glide_lignum>  (1) 
155

>  <i_i_glide_posenum>  (1) 
5

>  <i_i_glide_rotatable_bonds>  (1) 
11

>  <i_lp_mmshare_version>  (1) 
72125

>  <i_m_source_file_index>  (1) 
71

>  <i_f3d_flags>  (1) 
0

>  <num_sample>  (1) 
100

>  <b_lp_Chiralities_Consistent>  (1) 
1

>  <r_epik_Charging_Adjusted_Penalty>  (1) 
0

>  <r_epik_Ionization_Penalty>  (1) 
0

>  <r_epik_Ionization_Penalty_Charging>  (1) 
0

>  <r_epik_Ionization_Penalty_Neutral>  (1) 
0

>  <r_epik_State_Penalty>  (1) 
-0

>  <r_glide_ring_energy>  (1) 
0

>  <r_i_docking_score>  (1) 
-0.83249831344150327

>  <r_i_glide_ecoul>  (1) 
-0.22018346587290863

>  <r_i_glide_eff_state_penalty>  (1) 
-0

>  <r_i_glide_einternal>  (1) 
2.5589072141172435

>  <r_i_glide_emodel>  (1) 
-27.146105287713837

>  <r_i_glide_emodel_strain>  (1) 
0

>  <r_i_glide_energy>  (1) 
-27.100704396203561

>  <r_i_glide_erotb>  (1) 
5.690425690684874

>  <r_i_glide_esite>  (1) 
0

>  <r_i_glide_evdw>  (1) 
-26.880520930330654

>  <r_i_glide_gscore>  (1) 
-0.83249831344150327

>  <r_i_glide_gscore_strain>  (1) 
0

>  <r_i_glide_hbond>  (1) 
0

>  <r_i_glide_ligand_efficiency>  (1) 
-0.055499887562766886

>  <r_i_glide_ligand_efficiency_ln>  (1) 
-0.22451106869967535

>  <r_i_glide_ligand_efficiency_sa>  (1) 
-0.1368744928312792

>  <r_i_glide_lipo>  (1) 
-2.8416027436055118

>  <r_i_glide_metal>  (1) 
-0

>  <r_i_glide_rewards>  (1) 
-2.3042676941233964

>  <r_lp_Energy>  (1) 
6.1619519999999994

>  <r_lp_tautomer_probability>  (1) 
1

>  <s_epik_cmdline>  (1) 
J2VwaWtfcHl0aG9uJywgJy1waHQnLCAnMS4wJywgJy1waCcsICc3LjQnLCAnLXRuJywgJzgnLCAnLW1hJywgJzUwMCcsICctaW1hZScsICc8aW5maWxlLm1hZT4nLCAnLW9tYWUnLCAnPG91dGZpbGUubWFlPic=

>  <s_epik_input>  (1) 
W0NIM11bQ0hdKFtDSDNdKVtDSDJdW0NIMl1bQ0gyXVtDSDJdW0NIMl1bQ0gyXVtDSDJdW0NIMl1bQ0gyXVtDSDJdW0NIMl1DbA==

>  <s_glide_docking_method>  (1) 
confgen

>  <s_i_glide_gridfile>  (1) 
gpcr_5ht2c_6bqh_protein_autoprepared_prepared

>  <s_lp_Force_Field>  (1) 
S-OPLS

>  <s_lp_Variant>  (1) 
DiffSBDD_70-1

>  <s_m_source_file>  (1) 
generated_GPCR_5HT2C_ligand_DiffSBDD_2026-06-23_prepared.sdf

>  <GenAI_Model>  (1) 
DiffSBDD

>  <Protein>  (1) 
GPCR_5HT2C

$$$$
DiffSBDD_93
     RDKit          3D

  0  0  0  0  0  0  0  0  0  0999 V3000
M  V30 BEGIN CTAB
M  V30 COUNTS 84 85 0 0 1
M  V30 BEGIN ATOM
M  V30 1 C 37.915659 33.452050 57.043102 0
M  V30 2 O 38.445488 33.499283 55.738259 0
M  V30 3 C 39.047046 28.782582 53.020321 0
M  V30 4 C 39.990758 36.164935 64.911678 0
M  V30 5 O 38.844988 31.403757 59.866639 0
M  V30 6 C 41.517941 32.233125 62.026102 0
M  V30 7 N 41.125766 31.177496 61.331166 0
M  V30 8 O 42.445348 32.937852 61.684238 0
M  V30 9 O 37.245092 27.639456 57.767756 0
M  V30 10 C 39.194254 36.137794 66.211018 0
M  V30 11 C 39.011572 29.426146 54.411487 0
M  V30 12 C 38.315434 33.737827 59.856690 0
M  V30 13 C 38.681125 31.049484 57.039382 0
M  V30 14 C 40.126022 33.974537 63.367644 0 CFG=2
M  V30 15 C 40.752274 32.531172 63.294199 0 CFG=2
M  V30 16 C 39.178085 27.052953 54.695923 0 CFG=1
M  V30 17 C 39.675230 28.559066 56.710458 0 CFG=1
M  V30 18 C 41.203337 28.409668 56.611987 0
M  V30 19 C 38.346136 33.720797 61.412706 0
M  V30 20 S 37.785667 28.937789 58.703502 0 CHG=1
M  V30 21 O 41.309343 35.337993 60.967735 0
M  V30 22 N 38.393229 32.296086 57.826629 0
M  V30 23 O 36.443112 29.980802 58.656283 0
M  V30 24 O 37.245159 27.295650 53.258441 0
M  V30 25 F 37.299733 25.911315 55.680923 0
M  V30 26 C 40.445150 36.936670 66.146821 0
M  V30 27 C 40.071683 35.772523 61.430674 0
M  V30 28 C 39.340779 34.653370 62.187864 0 CFG=2
M  V30 29 C 38.536512 32.368701 59.183511 0
M  V30 30 C 41.556360 32.089365 64.552857 0
M  V30 31 C 39.354207 25.118357 56.482857 0
M  V30 32 C 39.102514 29.678278 57.670790 0 CFG=2
M  V30 33 O 43.165509 30.394147 64.996786 0
M  V30 34 C 40.820094 34.978963 64.375774 0
M  V30 35 C 38.572797 25.761099 55.324077 0 CFG=2
M  V30 36 C 42.029857 30.627905 64.531798 0
M  V30 37 C 38.653686 27.337187 53.276737 0 CFG=1
M  V30 38 O 41.246109 29.780688 64.048421 0 CHG=-1
M  V30 39 N 38.926077 28.332336 55.423711 0 CFG=1 CHG=1
M  V30 40 H 36.845245 33.347012 56.968008 0
M  V30 41 H 38.044970 34.437719 57.476027 0
M  V30 42 H 37.732247 33.711984 55.150962 0
M  V30 43 H 38.385135 29.292482 52.318835 0
M  V30 44 H 40.044732 28.831640 52.589147 0
M  V30 45 H 39.567804 36.791132 64.133592 0
M  V30 46 H 40.356396 30.613741 61.666979 0
M  V30 47 H 41.584466 30.948633 60.464025 0
M  V30 48 H 37.187943 26.891401 58.345314 0
M  V30 49 H 38.252021 36.681491 66.233919 0
M  V30 50 H 39.239474 35.252678 66.843710 0
M  V30 51 H 38.120293 30.048532 54.478937 0
M  V30 52 H 39.883595 30.068777 54.543355 0
M  V30 53 H 39.106092 34.372848 59.472428 0
M  V30 54 H 37.359524 34.160865 59.542748 0
M  V30 55 H 39.489665 31.330535 56.365472 0
M  V30 56 H 37.795358 30.893048 56.427414 0
M  V30 57 H 39.245107 33.559879 63.767752 0
M  V30 58 H 39.915648 31.828002 63.263666 0
M  V30 59 H 40.252789 26.906170 54.601275 0
M  V30 60 H 39.527559 27.652401 57.277414 0
M  V30 61 H 41.702611 28.704831 57.536984 0
M  V30 62 H 41.479125 27.363846 56.477144 0
M  V30 63 H 41.619518 28.937725 55.767833 0
M  V30 64 H 37.337362 33.992275 61.723992 0
M  V30 65 H 38.424406 32.708264 61.804066 0
M  V30 66 H 41.661246 34.689396 61.568562 0
M  V30 67 H 36.316328 30.303566 57.769657 0
M  V30 68 H 36.954335 26.973597 52.410068 0
M  V30 69 H 41.306328 36.555221 66.692182 0
M  V30 70 H 40.318357 38.017391 66.168062 0
M  V30 71 H 39.469484 36.152753 60.608674 0
M  V30 72 H 40.270086 36.628411 62.075783 0
M  V30 73 H 38.619568 35.286940 62.709773 0
M  V30 74 H 42.431131 32.725540 64.690996 0
M  V30 75 H 40.931573 32.199107 65.440684 0
M  V30 76 H 40.426444 25.113080 56.288773 0
M  V30 77 H 39.174766 25.600923 57.440336 0
M  V30 78 H 39.043670 24.083169 56.618056 0
M  V30 79 H 39.920314 29.873933 58.362555 0
M  V30 80 H 41.175140 34.460796 65.263168 0
M  V30 81 H 41.720673 35.380746 63.907329 0
M  V30 82 H 38.536946 25.001165 54.547455 0
M  V30 83 H 39.056699 26.644949 52.534622 0
M  V30 84 H 37.943883 28.254650 55.665593 0
M  V30 END ATOM
M  V30 BEGIN BOND
M  V30 1 1 2 1
M  V30 2 1 7 6
M  V30 3 2 8 6
M  V30 4 1 10 4
M  V30 5 1 11 3
M  V30 6 1 15 6
M  V30 7 1 15 14
M  V30 8 1 18 17
M  V30 9 1 19 12
M  V30 10 1 20 9
M  V30 11 1 22 1
M  V30 12 1 22 13
M  V30 13 1 23 20
M  V30 14 1 26 4
M  V30 15 1 26 10
M  V30 16 1 27 21
M  V30 17 1 28 14
M  V30 18 1 28 19
M  V30 19 1 28 27
M  V30 20 2 29 5
M  V30 21 1 29 12
M  V30 22 1 29 22
M  V30 23 1 30 15
M  V30 24 1 32 13
M  V30 25 1 32 17
M  V30 26 1 32 20
M  V30 27 1 34 4
M  V30 28 1 34 14
M  V30 29 1 35 16
M  V30 30 1 35 25
M  V30 31 1 35 31
M  V30 32 1 36 30
M  V30 33 2 36 33
M  V30 34 1 37 3
M  V30 35 1 37 16
M  V30 36 1 37 24
M  V30 37 1 38 36
M  V30 38 1 39 11
M  V30 39 1 39 16
M  V30 40 1 39 17
M  V30 41 1 40 1
M  V30 42 1 41 1
M  V30 43 1 42 2
M  V30 44 1 43 3
M  V30 45 1 44 3
M  V30 46 1 45 4
M  V30 47 1 46 7
M  V30 48 1 47 7
M  V30 49 1 48 9
M  V30 50 1 49 10
M  V30 51 1 50 10
M  V30 52 1 51 11
M  V30 53 1 52 11
M  V30 54 1 53 12
M  V30 55 1 54 12
M  V30 56 1 55 13
M  V30 57 1 56 13
M  V30 58 1 14 57 CFG=1
M  V30 59 1 15 58 CFG=3
M  V30 60 1 16 59 CFG=3
M  V30 61 1 17 60 CFG=1
M  V30 62 1 61 18
M  V30 63 1 62 18
M  V30 64 1 63 18
M  V30 65 1 64 19
M  V30 66 1 65 19
M  V30 67 1 66 21
M  V30 68 1 67 23
M  V30 69 1 68 24
M  V30 70 1 69 26
M  V30 71 1 70 26
M  V30 72 1 71 27
M  V30 73 1 72 27
M  V30 74 1 28 73 CFG=1
M  V30 75 1 74 30
M  V30 76 1 75 30
M  V30 77 1 76 31
M  V30 78 1 77 31
M  V30 79 1 78 31
M  V30 80 1 32 79 CFG=1
M  V30 81 1 80 34
M  V30 82 1 81 34
M  V30 83 1 35 82 CFG=3
M  V30 84 1 37 83 CFG=3
M  V30 85 1 39 84 CFG=1
M  V30 END BOND
M  V30 END CTAB
M  END
>  <i_epik_Tot_Q>  (1) 
1

>  <i_epik_Tot_abs_Q>  (1) 
3

>  <i_i_glide_confnum>  (1) 
3350

>  <i_i_glide_lignum>  (1) 
220

>  <i_i_glide_posenum>  (1) 
83

>  <i_i_glide_rotatable_bonds>  (1) 
24

>  <i_lp_mmshare_version>  (1) 
72125

>  <i_m_source_file_index>  (1) 
94

>  <i_f3d_flags>  (1) 
0

>  <num_sample>  (1) 
100

>  <b_lp_Chiralities_Consistent>  (1) 
1

>  <r_epik_Charging_Adjusted_Penalty>  (1) 
0.90916677635763199

>  <r_epik_Ionization_Penalty>  (1) 
0.45507897092921873

>  <r_epik_Ionization_Penalty_Charging>  (1) 
0.45507471778648678

>  <r_epik_Ionization_Penalty_Neutral>  (1) 
4.2531427319391784e-06

>  <r_epik_State_Penalty>  (1) 
0.45409205857114521

>  <r_glide_ring_energy>  (1) 
0

>  <r_i_docking_score>  (1) 
-0.73074973381661867

>  <r_i_glide_ecoul>  (1) 
-5.2994360069355411

>  <r_i_glide_eff_state_penalty>  (1) 
0.45409205857114521

>  <r_i_glide_einternal>  (1) 
35.511029971811517

>  <r_i_glide_emodel>  (1) 
4.8599821993312737

>  <r_i_glide_emodel_strain>  (1) 
24.212994421995688

>  <r_i_glide_energy>  (1) 
-32.065002212147277

>  <r_i_glide_erotb>  (1) 
0.82188833391367333

>  <r_i_glide_esite>  (1) 
-0.20606829411830577

>  <r_i_glide_evdw>  (1) 
-26.765566205211737

>  <r_i_glide_gscore>  (1) 
-1.1848417923877639

>  <r_i_glide_gscore_strain>  (1) 
5.0532486054989221

>  <r_i_glide_hbond>  (1) 
-0.42011236776025085

>  <r_i_glide_ligand_efficiency>  (1) 
-0.01873717266196458

>  <r_i_glide_ligand_efficiency_ln>  (1) 
-0.15669348649504353

>  <r_i_glide_ligand_efficiency_sa>  (1) 
-0.063541714340986516

>  <r_i_glide_lipo>  (1) 
-3.1463626658268384

>  <r_i_glide_metal>  (1) 
-0

>  <r_i_glide_rewards>  (1) 
-1.1542416927940455

>  <r_lp_Energy>  (1) 
27.354928999999998

>  <s_epik_Chemistry_Notes>  (1) 
This compound contains an acetal/aminal-like group ( X-CH(R)-Y where X, Y are N, S, or O) that may be acid/base labile, releasing an aldehyde.

>  <s_epik_cmdline>  (1) 
J2VwaWtfcHl0aG9uJywgJy1waHQnLCAnMS4wJywgJy1waCcsICc3LjQnLCAnLXRuJywgJzgnLCAnLW1hJywgJzUwMCcsICctaW1hZScsICc8aW5maWxlLm1hZT4nLCAnLW9tYWUnLCAnPG91dGZpbGUubWFlPic=

>  <s_epik_input>  (1) 
W0NIMl0xW0NIMl1bQ0hdMVtDSDJdW0NAQEhdKFtDQEBIXShDKD1PKVtOSDJdKVtDSDJdQyg9TylbT0hdKVtDQEBIXShbQ0gyXVtPSF0pW0NIMl1bQ0gyXUMoPU8pTihbQ0gyXVtPSF0pW0NIMl1bQ0BASF0oW1MrXShbT0hdKVtPSF0pW0NASF0oW0NIM10pTjJbQ0gyXVtDSDJdW0NASF0oW09IXSlbQ0BASF0yW0NASF0oRilbQ0gzXQ==

>  <s_glide_docking_method>  (1) 
confgen

>  <s_i_glide_gridfile>  (1) 
gpcr_5ht2c_6bqh_protein_autoprepared_prepared

>  <s_lp_Force_Field>  (1) 
S-OPLS

>  <s_lp_Variant>  (1) 
DiffSBDD_93-8

>  <s_m_source_file>  (1) 
generated_GPCR_5HT2C_ligand_DiffSBDD_2026-06-23_prepared.sdf

>  <GenAI_Model>  (1) 
DiffSBDD

>  <Protein>  (1) 
GPCR_5HT2C

$$$$
DiffSBDD_31
     RDKit          3D

  0  0  0  0  0  0  0  0  0  0999 V3000
M  V30 BEGIN CTAB
M  V30 COUNTS 39 38 0 0 1
M  V30 BEGIN ATOM
M  V30 1 S 38.830208 29.913652 53.767760 0
M  V30 2 C 39.984768 30.465474 55.045323 0
M  V30 3 C 40.050137 30.001759 49.791416 0
M  V30 4 C 39.294105 30.599517 56.406153 0
M  V30 5 C 39.135229 27.128892 51.665119 0
M  V30 6 C 38.520003 31.916044 56.559440 0
M  V30 7 N 36.445508 36.065514 59.367757 0
M  V30 8 C 39.464230 29.421393 51.082383 0 CFG=1
M  V30 9 C 36.992975 33.671774 59.582187 0
M  V30 10 C 35.930005 34.763374 59.744595 0
M  V30 11 O 40.045102 28.137726 51.249770 0
M  V30 12 C 38.113763 32.149979 58.016933 0
M  V30 13 N 37.245139 33.329690 58.167758 0 CHG=1
M  V30 14 C 39.795675 30.313242 52.287040 0
M  V30 15 H 40.442689 31.409571 54.751525 0
M  V30 16 H 40.791930 29.737772 55.107263 0
M  V30 17 H 39.613004 30.973098 49.558828 0
M  V30 18 H 41.129951 30.134075 49.867857 0
M  V30 19 H 39.853067 29.337781 48.951686 0
M  V30 20 H 40.045137 30.537730 57.189747 0
M  V30 21 H 38.631526 29.750010 56.577485 0
M  V30 22 H 39.645135 26.168532 51.711454 0
M  V30 23 H 38.726686 27.329954 52.653853 0
M  V30 24 H 38.306097 27.024758 50.966448 0
M  V30 25 H 37.642582 31.894976 55.912793 0
M  V30 26 H 39.133299 32.752646 56.221776 0
M  V30 27 H 37.371196 36.227986 59.738483 0
M  V30 28 H 36.494896 36.138443 58.355459 0
M  V30 29 H 38.386761 29.337692 50.967771 0
M  V30 30 H 37.925549 33.964582 60.068051 0
M  V30 31 H 36.642172 32.773820 60.093650 0
M  V30 32 H 35.645161 34.812200 60.795691 0
M  V30 33 H 35.025113 34.536855 59.178305 0
M  V30 34 H 39.005638 32.277649 58.630861 0
M  V30 35 H 37.581077 31.276857 58.398179 0
M  V30 36 H 36.367514 33.068479 57.715541 0
M  V30 37 H 39.645133 31.366592 52.051543 0
M  V30 38 H 40.845108 30.206072 52.515424 0
M  V30 39 H 37.638160 34.123122 57.684414 0
M  V30 END ATOM
M  V30 BEGIN BOND
M  V30 1 1 2 1
M  V30 2 1 4 2
M  V30 3 1 6 4
M  V30 4 1 8 3
M  V30 5 1 10 7
M  V30 6 1 10 9
M  V30 7 1 11 5
M  V30 8 1 11 8
M  V30 9 1 12 6
M  V30 10 1 13 9
M  V30 11 1 13 12
M  V30 12 1 14 1
M  V30 13 1 14 8
M  V30 14 1 15 2
M  V30 15 1 16 2
M  V30 16 1 17 3
M  V30 17 1 18 3
M  V30 18 1 19 3
M  V30 19 1 20 4
M  V30 20 1 21 4
M  V30 21 1 22 5
M  V30 22 1 23 5
M  V30 23 1 24 5
M  V30 24 1 25 6
M  V30 25 1 26 6
M  V30 26 1 27 7
M  V30 27 1 28 7
M  V30 28 1 8 29 CFG=3
M  V30 29 1 30 9
M  V30 30 1 31 9
M  V30 31 1 32 10
M  V30 32 1 33 10
M  V30 33 1 34 12
M  V30 34 1 35 12
M  V30 35 1 36 13
M  V30 36 1 37 14
M  V30 37 1 38 14
M  V30 38 1 39 13
M  V30 END BOND
M  V30 END CTAB
M  END
>  <i_epik_Tot_Q>  (1) 
1

>  <i_epik_Tot_abs_Q>  (1) 
1

>  <i_i_glide_confnum>  (1) 
86

>  <i_i_glide_lignum>  (1) 
73

>  <i_i_glide_posenum>  (1) 
369

>  <i_i_glide_rotatable_bonds>  (1) 
10

>  <i_lp_mmshare_version>  (1) 
72125

>  <i_m_source_file_index>  (1) 
32

>  <i_f3d_flags>  (1) 
0

>  <num_sample>  (1) 
100

>  <b_lp_Chiralities_Consistent>  (1) 
1

>  <r_epik_Charging_Adjusted_Penalty>  (1) 
0.34281104315020688

>  <r_epik_Ionization_Penalty>  (1) 
0.19450335348640826

>  <r_epik_Ionization_Penalty_Charging>  (1) 
0.0023970713432799498

>  <r_epik_Ionization_Penalty_Neutral>  (1) 
0.1921062821431283

>  <r_epik_State_Penalty>  (1) 
0.34041397180692695

>  <r_glide_ring_energy>  (1) 
0

>  <r_i_docking_score>  (1) 
-0.69416139953712097

>  <r_i_glide_ecoul>  (1) 
-6.0339473706183879

>  <r_i_glide_eff_state_penalty>  (1) 
0.34041397180692695

>  <r_i_glide_einternal>  (1) 
5.6051537398146181

>  <r_i_glide_emodel>  (1) 
-29.887538900291808

>  <r_i_glide_emodel_strain>  (1) 
0.65641752957642474

>  <r_i_glide_energy>  (1) 
-30.444291640717534

>  <r_i_glide_erotb>  (1) 
5.5093939013808209

>  <r_i_glide_esite>  (1) 
-0.079392377259643807

>  <r_i_glide_evdw>  (1) 
-24.410344270099145

>  <r_i_glide_gscore>  (1) 
-1.034575371344048

>  <r_i_glide_gscore_strain>  (1) 
0

>  <r_i_glide_hbond>  (1) 
-0.52000000000000002

>  <r_i_glide_ligand_efficiency>  (1) 
-0.049582957109794358

>  <r_i_glide_ligand_efficiency_ln>  (1) 
-0.19075308154337639

>  <r_i_glide_ligand_efficiency_sa>  (1) 
-0.1195019805131031

>  <r_i_glide_lipo>  (1) 
-1.5607373092729311

>  <r_i_glide_metal>  (1) 
-0

>  <r_i_glide_rewards>  (1) 
-2.2582302670945777

>  <r_lp_Energy>  (1) 
12.430294

>  <s_epik_cmdline>  (1) 
J2VwaWtfcHl0aG9uJywgJy1waHQnLCAnMS4wJywgJy1waCcsICc3LjQnLCAnLXRuJywgJzgnLCAnLW1hJywgJzUwMCcsICctaW1hZScsICc8aW5maWxlLm1hZT4nLCAnLW9tYWUnLCAnPG91dGZpbGUubWFlPic=

>  <s_epik_input>  (1) 
W0NIM11PW0NASF0oW0NIM10pW0NIMl1TW0NIMl1bQ0gyXVtDSDJdW0NIMl1bTkhdW0NIMl1bQ0gyXVtOSDJd

>  <s_glide_docking_method>  (1) 
confgen

>  <s_i_glide_gridfile>  (1) 
gpcr_5ht2c_6bqh_protein_autoprepared_prepared

>  <s_lp_Force_Field>  (1) 
S-OPLS

>  <s_lp_Variant>  (1) 
DiffSBDD_31-1

>  <s_m_source_file>  (1) 
generated_GPCR_5HT2C_ligand_DiffSBDD_2026-06-23_prepared.sdf

>  <GenAI_Model>  (1) 
DiffSBDD

>  <Protein>  (1) 
GPCR_5HT2C

$$$$
DiffSBDD_31
     RDKit          3D

  0  0  0  0  0  0  0  0  0  0999 V3000
M  V30 BEGIN CTAB
M  V30 COUNTS 40 39 0 0 1
M  V30 BEGIN ATOM
M  V30 1 S 38.698194 29.725400 53.900229 0
M  V30 2 C 39.767659 29.908976 55.354892 0
M  V30 3 C 40.273424 30.325063 50.087509 0
M  V30 4 C 39.086099 29.399643 56.629937 0
M  V30 5 C 39.162143 27.240453 51.575963 0
M  V30 6 C 38.027732 30.376395 57.145809 0
M  V30 7 N 37.244844 33.737705 57.769266 0 CHG=1
M  V30 8 C 39.550688 29.591445 51.222898 0 CFG=1
M  V30 9 C 37.126820 32.064675 59.652340 0
M  V30 10 C 36.705456 33.450277 59.115128 0
M  V30 11 O 40.073772 28.269794 51.223476 0
M  V30 12 C 37.342460 29.895663 58.431328 0
M  V30 13 N 36.445674 30.937637 58.968139 0 CHG=1
M  V30 14 C 39.803709 30.294624 52.573323 0
M  V30 15 H 40.677335 29.335992 55.197633 0
M  V30 16 H 40.063503 30.953430 55.459582 0
M  V30 17 H 39.883585 31.337043 49.959043 0
M  V30 18 H 41.343008 30.407694 50.286184 0
M  V30 19 H 40.145293 29.793134 49.143153 0
M  V30 20 H 38.644287 28.417667 56.451967 0
M  V30 21 H 39.843474 29.258325 57.402573 0
M  V30 22 H 39.645137 26.276785 51.412134 0
M  V30 23 H 38.258998 27.272468 50.965934 0
M  V30 24 H 38.875990 27.285521 52.624963 0
M  V30 25 H 38.515821 31.336112 57.315384 0
M  V30 26 H 37.265989 30.540144 56.380437 0
M  V30 27 H 37.020462 34.694604 57.513038 0
M  V30 28 H 38.244773 33.607097 57.734473 0
M  V30 29 H 38.485982 29.577477 50.983663 0
M  V30 30 H 36.868589 31.998079 60.709577 0
M  V30 31 H 38.212359 31.962816 59.608251 0
M  V30 32 H 35.618297 33.549208 59.093707 0
M  V30 33 H 37.076069 34.222756 59.790120 0
M  V30 34 H 36.750740 29.005453 58.213233 0
M  V30 35 H 38.073747 29.608544 59.188405 0
M  V30 36 H 35.896377 31.311244 58.181891 0
M  V30 37 H 40.845038 30.159544 52.861190 0
M  V30 38 H 39.650127 31.368127 52.469693 0
M  V30 39 H 35.799206 30.506409 59.612444 0
M  V30 40 H 36.783152 33.123812 57.098639 0
M  V30 END ATOM
M  V30 BEGIN BOND
M  V30 1 1 2 1
M  V30 2 1 4 2
M  V30 3 1 6 4
M  V30 4 1 8 3
M  V30 5 1 10 7
M  V30 6 1 10 9
M  V30 7 1 11 5
M  V30 8 1 11 8
M  V30 9 1 12 6
M  V30 10 1 13 9
M  V30 11 1 13 12
M  V30 12 1 14 1
M  V30 13 1 14 8
M  V30 14 1 15 2
M  V30 15 1 16 2
M  V30 16 1 17 3
M  V30 17 1 18 3
M  V30 18 1 19 3
M  V30 19 1 20 4
M  V30 20 1 21 4
M  V30 21 1 22 5
M  V30 22 1 23 5
M  V30 23 1 24 5
M  V30 24 1 25 6
M  V30 25 1 26 6
M  V30 26 1 27 7
M  V30 27 1 28 7
M  V30 28 1 8 29 CFG=3
M  V30 29 1 30 9
M  V30 30 1 31 9
M  V30 31 1 32 10
M  V30 32 1 33 10
M  V30 33 1 34 12
M  V30 34 1 35 12
M  V30 35 1 36 13
M  V30 36 1 37 14
M  V30 37 1 38 14
M  V30 38 1 39 13
M  V30 39 1 40 7
M  V30 END BOND
M  V30 END CTAB
M  END
>  <i_epik_Tot_Q>  (1) 
2

>  <i_epik_Tot_abs_Q>  (1) 
2

>  <i_i_glide_confnum>  (1) 
261

>  <i_i_glide_lignum>  (1) 
75

>  <i_i_glide_posenum>  (1) 
141

>  <i_i_glide_rotatable_bonds>  (1) 
10

>  <i_lp_mmshare_version>  (1) 
72125

>  <i_m_source_file_index>  (1) 
32

>  <i_f3d_flags>  (1) 
0

>  <num_sample>  (1) 
100

>  <b_lp_Chiralities_Consistent>  (1) 
1

>  <r_epik_Charging_Adjusted_Penalty>  (1) 
2.088492378820884

>  <r_epik_Ionization_Penalty>  (1) 
1.179420884756136

>  <r_epik_Ionization_Penalty_Charging>  (1) 
1.1794208847540233

>  <r_epik_Ionization_Penalty_Neutral>  (1) 
2.1128257851734737e-12

>  <r_epik_State_Penalty>  (1) 
0.90907149406686061

>  <r_glide_ring_energy>  (1) 
0

>  <r_i_docking_score>  (1) 
-0.68826269088659864

>  <r_i_glide_ecoul>  (1) 
-9.8244808561887282

>  <r_i_glide_eff_state_penalty>  (1) 
0.90907149406686061

>  <r_i_glide_einternal>  (1) 
8.6927058316293806

>  <r_i_glide_emodel>  (1) 
-29.425376235105208

>  <r_i_glide_emodel_strain>  (1) 
1.9970342131654588

>  <r_i_glide_energy>  (1) 
-30.533860128866948

>  <r_i_glide_erotb>  (1) 
5.4672764503098783

>  <r_i_glide_esite>  (1) 
-0.16307735287490099

>  <r_i_glide_evdw>  (1) 
-20.70937927267822

>  <r_i_glide_gscore>  (1) 
-1.5973341849534592

>  <r_i_glide_gscore_strain>  (1) 
0

>  <r_i_glide_hbond>  (1) 
-0.39152462119798526

>  <r_i_glide_ligand_efficiency>  (1) 
-0.049161620777614191

>  <r_i_glide_ligand_efficiency_ln>  (1) 
-0.18913213740421222

>  <r_i_glide_ligand_efficiency_sa>  (1) 
-0.1184865000114831

>  <r_i_glide_lipo>  (1) 
-1.7657604298728418

>  <r_i_glide_metal>  (1) 
-0

>  <r_i_glide_rewards>  (1) 
-2.2351071392553892

>  <r_lp_Energy>  (1) 
18.306276999999998

>  <s_epik_cmdline>  (1) 
J2VwaWtfcHl0aG9uJywgJy1waHQnLCAnMS4wJywgJy1waCcsICc3LjQnLCAnLXRuJywgJzgnLCAnLW1hJywgJzUwMCcsICctaW1hZScsICc8aW5maWxlLm1hZT4nLCAnLW9tYWUnLCAnPG91dGZpbGUubWFlPic=

>  <s_epik_input>  (1) 
W0NIM11PW0NASF0oW0NIM10pW0NIMl1TW0NIMl1bQ0gyXVtDSDJdW0NIMl1bTkhdW0NIMl1bQ0gyXVtOSDJd

>  <s_glide_docking_method>  (1) 
confgen

>  <s_i_glide_gridfile>  (1) 
gpcr_5ht2c_6bqh_protein_autoprepared_prepared

>  <s_lp_Force_Field>  (1) 
S-OPLS

>  <s_lp_Variant>  (1) 
DiffSBDD_31-3

>  <s_m_source_file>  (1) 
generated_GPCR_5HT2C_ligand_DiffSBDD_2026-06-23_prepared.sdf

>  <GenAI_Model>  (1) 
DiffSBDD

>  <Protein>  (1) 
GPCR_5HT2C

$$$$
DiffSBDD_31
     RDKit          3D

  0  0  0  0  0  0  0  0  0  0999 V3000
M  V30 BEGIN CTAB
M  V30 COUNTS 39 38 0 0 1
M  V30 BEGIN ATOM
M  V30 1 S 37.709418 28.088347 53.510495 0
M  V30 2 C 37.656774 26.401345 54.189860 0
M  V30 3 C 39.674446 30.410607 52.567059 0
M  V30 4 C 38.952812 25.913850 54.872423 0
M  V30 5 C 40.642544 30.124318 49.768879 0
M  V30 6 C 39.211311 26.458210 56.292867 0
M  V30 7 N 37.645173 31.603478 55.371548 0 CHG=1
M  V30 8 C 39.315350 29.292825 51.565938 0 CFG=1
M  V30 9 C 39.393218 30.208045 56.482694 0
M  V30 10 C 38.308127 31.283363 56.647256 0
M  V30 11 O 40.393025 29.061523 50.674997 0
M  V30 12 C 39.828921 27.865293 56.361607 0
M  V30 13 N 38.792640 28.883998 56.404420 0
M  V30 14 C 39.003925 27.947385 52.240066 0
M  V30 15 H 37.385615 25.737743 53.369874 0
M  V30 16 H 36.845138 26.345893 54.912063 0
M  V30 17 H 38.844917 30.627288 53.230474 0
M  V30 18 H 40.519957 30.137792 53.192332 0
M  V30 19 H 39.917698 31.346248 52.066098 0
M  V30 20 H 39.828200 26.057405 54.242356 0
M  V30 21 H 38.861170 24.830723 54.968196 0
M  V30 22 H 41.245314 29.738658 48.948997 0
M  V30 23 H 39.719119 30.526832 49.353120 0
M  V30 24 H 41.198543 30.936621 50.239074 0
M  V30 25 H 39.926713 25.781074 56.761952 0
M  V30 26 H 38.311625 26.390793 56.906677 0
M  V30 27 H 36.818779 32.165462 55.586022 0
M  V30 28 H 38.262704 32.108493 54.755044 0
M  V30 29 H 38.445215 29.575832 50.977785 0
M  V30 30 H 40.044858 30.230070 57.357088 0
M  V30 31 H 40.020458 30.407415 55.612534 0
M  V30 32 H 37.564032 30.965076 57.379141 0
M  V30 33 H 38.751002 32.201989 57.033777 0
M  V30 34 H 40.495873 28.031456 55.516199 0
M  V30 35 H 40.430331 27.947405 57.268290 0
M  V30 36 H 38.226484 28.779303 55.571260 0
M  V30 37 H 39.915616 27.552024 52.680035 0
M  V30 38 H 38.680025 27.222216 51.492003 0
M  V30 39 H 37.327213 30.748763 54.941949 0
M  V30 END ATOM
M  V30 BEGIN BOND
M  V30 1 1 2 1
M  V30 2 1 4 2
M  V30 3 1 6 4
M  V30 4 1 8 3
M  V30 5 1 10 7
M  V30 6 1 10 9
M  V30 7 1 11 5
M  V30 8 1 11 8
M  V30 9 1 12 6
M  V30 10 1 13 9
M  V30 11 1 13 12
M  V30 12 1 14 1
M  V30 13 1 14 8
M  V30 14 1 15 2
M  V30 15 1 16 2
M  V30 16 1 17 3
M  V30 17 1 18 3
M  V30 18 1 19 3
M  V30 19 1 20 4
M  V30 20 1 21 4
M  V30 21 1 22 5
M  V30 22 1 23 5
M  V30 23 1 24 5
M  V30 24 1 25 6
M  V30 25 1 26 6
M  V30 26 1 27 7
M  V30 27 1 28 7
M  V30 28 1 8 29 CFG=3
M  V30 29 1 30 9
M  V30 30 1 31 9
M  V30 31 1 32 10
M  V30 32 1 33 10
M  V30 33 1 34 12
M  V30 34 1 35 12
M  V30 35 1 36 13
M  V30 36 1 37 14
M  V30 37 1 38 14
M  V30 38 1 39 7
M  V30 END BOND
M  V30 END CTAB
M  END
>  <i_epik_Tot_Q>  (1) 
1

>  <i_epik_Tot_abs_Q>  (1) 
1

>  <i_i_glide_confnum>  (1) 
12

>  <i_i_glide_lignum>  (1) 
74

>  <i_i_glide_posenum>  (1) 
39

>  <i_i_glide_rotatable_bonds>  (1) 
10

>  <i_lp_mmshare_version>  (1) 
72125

>  <i_m_source_file_index>  (1) 
32

>  <i_f3d_flags>  (1) 
0

>  <num_sample>  (1) 
100

>  <b_lp_Chiralities_Consistent>  (1) 
1

>  <r_epik_Charging_Adjusted_Penalty>  (1) 
0.89892965440130657

>  <r_epik_Ionization_Penalty>  (1) 
0.40851524068968265

>  <r_epik_Ionization_Penalty_Charging>  (1) 
0.0057066627245521461

>  <r_epik_Ionization_Penalty_Neutral>  (1) 
0.40280857796513048

>  <r_epik_State_Penalty>  (1) 
0.89322299167675445

>  <r_glide_ring_energy>  (1) 
0

>  <r_i_docking_score>  (1) 
-0.59660458632134783

>  <r_i_glide_ecoul>  (1) 
-3.3968503736717581

>  <r_i_glide_eff_state_penalty>  (1) 
0.89322299167675445

>  <r_i_glide_einternal>  (1) 
9.0681692337712771

>  <r_i_glide_emodel>  (1) 
-28.331155678140767

>  <r_i_glide_emodel_strain>  (1) 
0.065138054577989379

>  <r_i_glide_energy>  (1) 
-28.80144388136355

>  <r_i_glide_erotb>  (1) 
5.5093939013808209

>  <r_i_glide_esite>  (1) 
-0.10000000000000001

>  <r_i_glide_evdw>  (1) 
-25.404593507691793

>  <r_i_glide_gscore>  (1) 
-1.4898275779981023

>  <r_i_glide_gscore_strain>  (1) 
0

>  <r_i_glide_hbond>  (1) 
-0.32519810570130603

>  <r_i_glide_ligand_efficiency>  (1) 
-0.042614613308667705

>  <r_i_glide_ligand_efficiency_ln>  (1) 
-0.16394481655072585

>  <r_i_glide_ligand_efficiency_sa>  (1) 
-0.10270728060670428

>  <r_i_glide_lipo>  (1) 
-2.779139851626768

>  <r_i_glide_metal>  (1) 
-0

>  <r_i_glide_rewards>  (1) 
-2.0151262906154965

>  <r_lp_Energy>  (1) 
8.7800750000000001

>  <s_epik_cmdline>  (1) 
J2VwaWtfcHl0aG9uJywgJy1waHQnLCAnMS4wJywgJy1waCcsICc3LjQnLCAnLXRuJywgJzgnLCAnLW1hJywgJzUwMCcsICctaW1hZScsICc8aW5maWxlLm1hZT4nLCAnLW9tYWUnLCAnPG91dGZpbGUubWFlPic=

>  <s_epik_input>  (1) 
W0NIM11PW0NASF0oW0NIM10pW0NIMl1TW0NIMl1bQ0gyXVtDSDJdW0NIMl1bTkhdW0NIMl1bQ0gyXVtOSDJd

>  <s_glide_docking_method>  (1) 
confgen

>  <s_i_glide_gridfile>  (1) 
gpcr_5ht2c_6bqh_protein_autoprepared_prepared

>  <s_lp_Force_Field>  (1) 
S-OPLS

>  <s_lp_Variant>  (1) 
DiffSBDD_31-2

>  <s_m_source_file>  (1) 
generated_GPCR_5HT2C_ligand_DiffSBDD_2026-06-23_prepared.sdf

>  <GenAI_Model>  (1) 
DiffSBDD

>  <Protein>  (1) 
GPCR_5HT2C

$$$$
DiffSBDD_31
     RDKit          3D

  0  0  0  0  0  0  0  0  0  0999 V3000
M  V30 BEGIN CTAB
M  V30 COUNTS 40 39 0 0 1
M  V30 BEGIN ATOM
M  V30 1 S 39.192164 29.828328 53.590808 0
M  V30 2 C 39.527508 31.047380 54.872432 0
M  V30 3 C 40.789679 30.414557 49.820692 0
M  V30 4 C 39.163881 30.477101 56.243276 0
M  V30 5 C 39.263406 27.555178 51.032318 0
M  V30 6 C 38.494970 31.515715 57.137386 0
M  V30 7 N 35.020599 34.138128 58.967778 0 CHG=1
M  V30 8 C 39.851710 29.858838 50.892849 0 CFG=1
M  V30 9 C 37.148832 32.955637 59.552401 0
M  V30 10 C 35.878370 33.657060 60.066457 0
M  V30 11 O 40.283902 28.536911 51.187887 0
M  V30 12 C 38.001448 30.891278 58.444861 0
M  V30 13 N 36.845189 31.630640 58.967744 0 CHG=1
M  V30 14 C 39.847465 30.721278 52.164229 0
M  V30 15 H 40.577413 31.339681 54.849217 0
M  V30 16 H 38.939485 31.935407 54.637189 0
M  V30 17 H 40.454917 31.392513 49.476125 0
M  V30 18 H 41.808459 30.521968 50.194582 0
M  V30 19 H 40.819102 29.737771 48.967730 0
M  V30 20 H 38.467788 29.646492 56.115363 0
M  V30 21 H 40.044952 30.054209 56.724942 0
M  V30 22 H 39.645006 26.565937 51.282820 0
M  V30 23 H 38.904813 27.525457 50.005336 0
M  V30 24 H 38.409070 27.753888 51.680339 0
M  V30 25 H 39.172962 32.346617 57.337841 0
M  V30 26 H 37.645837 31.932552 56.590959 0
M  V30 27 H 34.176026 34.548716 59.345420 0
M  V30 28 H 35.509276 34.839240 58.423249 0
M  V30 29 H 38.845079 29.843922 50.487913 0
M  V30 30 H 37.841228 32.812440 60.383727 0
M  V30 31 H 37.658545 33.586888 58.822403 0
M  V30 32 H 35.302127 32.991715 60.710693 0
M  V30 33 H 36.154863 34.517441 60.676962 0
M  V30 34 H 37.655267 29.872815 58.263801 0
M  V30 35 H 38.800212 30.823263 59.184702 0
M  V30 36 H 36.190839 31.737705 58.182289 0
M  V30 37 H 40.845135 31.033726 52.418613 0
M  V30 38 H 39.298767 31.651708 52.018939 0
M  V30 39 H 36.400066 31.053117 59.665190 0
M  V30 40 H 34.772442 33.375770 58.348940 0
M  V30 END ATOM
M  V30 BEGIN BOND
M  V30 1 1 2 1
M  V30 2 1 4 2
M  V30 3 1 6 4
M  V30 4 1 8 3
M  V30 5 1 10 7
M  V30 6 1 10 9
M  V30 7 1 11 5
M  V30 8 1 11 8
M  V30 9 1 12 6
M  V30 10 1 13 9
M  V30 11 1 13 12
M  V30 12 1 14 1
M  V30 13 1 14 8
M  V30 14 1 15 2
M  V30 15 1 16 2
M  V30 16 1 17 3
M  V30 17 1 18 3
M  V30 18 1 19 3
M  V30 19 1 20 4
M  V30 20 1 21 4
M  V30 21 1 22 5
M  V30 22 1 23 5
M  V30 23 1 24 5
M  V30 24 1 25 6
M  V30 25 1 26 6
M  V30 26 1 27 7
M  V30 27 1 28 7
M  V30 28 1 8 29 CFG=3
M  V30 29 1 30 9
M  V30 30 1 31 9
M  V30 31 1 32 10
M  V30 32 1 33 10
M  V30 33 1 34 12
M  V30 34 1 35 12
M  V30 35 1 36 13
M  V30 36 1 37 14
M  V30 37 1 38 14
M  V30 38 1 39 13
M  V30 39 1 40 7
M  V30 END BOND
M  V30 END CTAB
M  END
>  <i_epik_Tot_Q>  (1) 
2

>  <i_epik_Tot_abs_Q>  (1) 
2

>  <i_i_glide_confnum>  (1) 
261

>  <i_i_glide_lignum>  (1) 
75

>  <i_i_glide_posenum>  (1) 
141

>  <i_i_glide_rotatable_bonds>  (1) 
10

>  <i_lp_mmshare_version>  (1) 
72125

>  <i_m_source_file_index>  (1) 
32

>  <i_f3d_flags>  (1) 
0

>  <num_sample>  (1) 
100

>  <b_lp_Chiralities_Consistent>  (1) 
1

>  <r_epik_Charging_Adjusted_Penalty>  (1) 
2.088492378820884

>  <r_epik_Ionization_Penalty>  (1) 
1.179420884756136

>  <r_epik_Ionization_Penalty_Charging>  (1) 
1.1794208847540233

>  <r_epik_Ionization_Penalty_Neutral>  (1) 
2.1128257851734737e-12

>  <r_epik_State_Penalty>  (1) 
0.90907149406686061

>  <r_glide_ring_energy>  (1) 
0

>  <r_i_docking_score>  (1) 
-0.58775703446737049

>  <r_i_glide_ecoul>  (1) 
-8.671172201399429

>  <r_i_glide_eff_state_penalty>  (1) 
0.90907149406686061

>  <r_i_glide_einternal>  (1) 
6.3008914379179135

>  <r_i_glide_emodel>  (1) 
-30.483024119189089

>  <r_i_glide_emodel_strain>  (1) 
2.5993007221233189

>  <r_i_glide_energy>  (1) 
-31.327251990392789

>  <r_i_glide_erotb>  (1) 
5.4672764503098783

>  <r_i_glide_esite>  (1) 
-0.10000000000000001

>  <r_i_glide_evdw>  (1) 
-22.65607978899336

>  <r_i_glide_gscore>  (1) 
-1.4968285285342311

>  <r_i_glide_gscore_strain>  (1) 
0

>  <r_i_glide_hbond>  (1) 
-0.35887414413673369

>  <r_i_glide_ligand_efficiency>  (1) 
-0.041982645319097893

>  <r_i_glide_ligand_efficiency_ln>  (1) 
-0.16151354079643243

>  <r_i_glide_ligand_efficiency_sa>  (1) 
-0.10118414784543622

>  <r_i_glide_lipo>  (1) 
-1.6929772115082347

>  <r_i_glide_metal>  (1) 
-0

>  <r_i_glide_rewards>  (1) 
-2.3787738035395591

>  <r_lp_Energy>  (1) 
18.306276999999998

>  <s_epik_cmdline>  (1) 
J2VwaWtfcHl0aG9uJywgJy1waHQnLCAnMS4wJywgJy1waCcsICc3LjQnLCAnLXRuJywgJzgnLCAnLW1hJywgJzUwMCcsICctaW1hZScsICc8aW5maWxlLm1hZT4nLCAnLW9tYWUnLCAnPG91dGZpbGUubWFlPic=

>  <s_epik_input>  (1) 
W0NIM11PW0NASF0oW0NIM10pW0NIMl1TW0NIMl1bQ0gyXVtDSDJdW0NIMl1bTkhdW0NIMl1bQ0gyXVtOSDJd

>  <s_glide_docking_method>  (1) 
confgen

>  <s_i_glide_gridfile>  (1) 
gpcr_5ht2c_6bqh_protein_autoprepared_prepared

>  <s_lp_Force_Field>  (1) 
S-OPLS

>  <s_lp_Variant>  (1) 
DiffSBDD_31-3

>  <s_m_source_file>  (1) 
generated_GPCR_5HT2C_ligand_DiffSBDD_2026-06-23_prepared.sdf

>  <GenAI_Model>  (1) 
DiffSBDD

>  <Protein>  (1) 
GPCR_5HT2C

$$$$
DiffSBDD_31
     RDKit          3D

  0  0  0  0  0  0  0  0  0  0999 V3000
M  V30 BEGIN CTAB
M  V30 COUNTS 39 38 0 0 1
M  V30 BEGIN ATOM
M  V30 1 S 38.845144 28.841255 54.474174 0
M  V30 2 C 40.043640 29.973721 55.235500 0
M  V30 3 C 39.504991 27.886340 51.188626 0
M  V30 4 C 39.466971 31.335987 55.660835 0
M  V30 5 C 40.776575 30.413892 49.959279 0
M  V30 6 C 38.560445 31.247563 56.892213 0
M  V30 7 N 34.514133 33.180826 59.767546 0
M  V30 8 C 39.729252 29.276292 51.801493 0 CFG=1
M  V30 9 C 36.860139 33.732613 59.248317 0
M  V30 10 C 35.819732 33.449165 60.343975 0
M  V30 11 O 39.645153 30.285662 50.803732 0
M  V30 12 C 38.246627 32.622296 57.497730 0
M  V30 13 N 37.245134 32.481138 58.567735 0 CHG=1
M  V30 14 C 38.653817 29.617193 52.851072 0
M  V30 15 H 40.860546 30.138319 54.537808 0
M  V30 16 H 40.445553 29.458449 56.105250 0
M  V30 17 H 39.590077 27.105011 51.944999 0
M  V30 18 H 38.511148 27.812900 50.746829 0
M  V30 19 H 40.231460 27.666771 50.408380 0
M  V30 20 H 38.929429 31.816022 54.844028 0
M  V30 21 H 40.299040 32.005064 55.879025 0
M  V30 22 H 40.676898 31.323003 49.367783 0
M  V30 23 H 41.703798 30.490665 50.528075 0
M  V30 24 H 40.845138 29.579443 49.262730 0
M  V30 25 H 39.032790 30.621042 57.650130 0
M  V30 26 H 37.634922 30.745045 56.608258 0
M  V30 27 H 34.115320 34.024233 59.375379 0
M  V30 28 H 34.568089 32.516036 59.005309 0
M  V30 29 H 40.717614 29.338180 52.242639 0
M  V30 30 H 36.479876 34.456817 58.526633 0
M  V30 31 H 37.749948 34.175137 59.697830 0
M  V30 32 H 35.725325 34.306052 61.011853 0
M  V30 33 H 36.131327 32.604445 60.959502 0
M  V30 34 H 37.845546 33.284922 56.728970 0
M  V30 35 H 39.154879 33.083447 57.888058 0
M  V30 36 H 37.540214 31.791690 59.242179 0
M  V30 37 H 37.670113 29.337682 52.473598 0
M  V30 38 H 38.656348 30.689029 53.015462 0
M  V30 39 H 36.407884 32.137909 58.077104 0
M  V30 END ATOM
M  V30 BEGIN BOND
M  V30 1 1 2 1
M  V30 2 1 4 2
M  V30 3 1 6 4
M  V30 4 1 8 3
M  V30 5 1 10 7
M  V30 6 1 10 9
M  V30 7 1 11 5
M  V30 8 1 11 8
M  V30 9 1 12 6
M  V30 10 1 13 9
M  V30 11 1 13 12
M  V30 12 1 14 1
M  V30 13 1 14 8
M  V30 14 1 15 2
M  V30 15 1 16 2
M  V30 16 1 17 3
M  V30 17 1 18 3
M  V30 18 1 19 3
M  V30 19 1 20 4
M  V30 20 1 21 4
M  V30 21 1 22 5
M  V30 22 1 23 5
M  V30 23 1 24 5
M  V30 24 1 25 6
M  V30 25 1 26 6
M  V30 26 1 27 7
M  V30 27 1 28 7
M  V30 28 1 8 29 CFG=1
M  V30 29 1 30 9
M  V30 30 1 31 9
M  V30 31 1 32 10
M  V30 32 1 33 10
M  V30 33 1 34 12
M  V30 34 1 35 12
M  V30 35 1 36 13
M  V30 36 1 37 14
M  V30 37 1 38 14
M  V30 38 1 39 13
M  V30 END BOND
M  V30 END CTAB
M  END
>  <i_epik_Tot_Q>  (1) 
1

>  <i_epik_Tot_abs_Q>  (1) 
1

>  <i_i_glide_confnum>  (1) 
161

>  <i_i_glide_lignum>  (1) 
73

>  <i_i_glide_posenum>  (1) 
198

>  <i_i_glide_rotatable_bonds>  (1) 
10

>  <i_lp_mmshare_version>  (1) 
72125

>  <i_m_source_file_index>  (1) 
32

>  <i_f3d_flags>  (1) 
0

>  <num_sample>  (1) 
100

>  <b_lp_Chiralities_Consistent>  (1) 
1

>  <r_epik_Charging_Adjusted_Penalty>  (1) 
0.34281104315020688

>  <r_epik_Ionization_Penalty>  (1) 
0.19450335348640826

>  <r_epik_Ionization_Penalty_Charging>  (1) 
0.0023970713432799498

>  <r_epik_Ionization_Penalty_Neutral>  (1) 
0.1921062821431283

>  <r_epik_State_Penalty>  (1) 
0.34041397180692695

>  <r_glide_ring_energy>  (1) 
0

>  <r_i_docking_score>  (1) 
-0.47168870320971151

>  <r_i_glide_ecoul>  (1) 
-5.2959150363449314

>  <r_i_glide_eff_state_penalty>  (1) 
0.34041397180692695

>  <r_i_glide_einternal>  (1) 
1.9081356700894814

>  <r_i_glide_emodel>  (1) 
-30.1853936724401

>  <r_i_glide_emodel_strain>  (1) 
0.0017322697481862992

>  <r_i_glide_energy>  (1) 
-28.863043455711455

>  <r_i_glide_erotb>  (1) 
5.5093939013808209

>  <r_i_glide_esite>  (1) 
-0.10000000000000001

>  <r_i_glide_evdw>  (1) 
-23.567128419366522

>  <r_i_glide_gscore>  (1) 
-0.81210267501663846

>  <r_i_glide_gscore_strain>  (1) 
0

>  <r_i_glide_hbond>  (1) 
-0.26537433721186998

>  <r_i_glide_ligand_efficiency>  (1) 
-0.033692050229265108

>  <r_i_glide_ligand_efficiency_ln>  (1) 
-0.12961837654247155

>  <r_i_glide_ligand_efficiency_sa>  (1) 
-0.081202634224266587

>  <r_i_glide_lipo>  (1) 
-1.6898454700804564

>  <r_i_glide_metal>  (1) 
-0

>  <r_i_glide_rewards>  (1) 
-2.2935330926850663

>  <r_lp_Energy>  (1) 
12.430294

>  <s_epik_cmdline>  (1) 
J2VwaWtfcHl0aG9uJywgJy1waHQnLCAnMS4wJywgJy1waCcsICc3LjQnLCAnLXRuJywgJzgnLCAnLW1hJywgJzUwMCcsICctaW1hZScsICc8aW5maWxlLm1hZT4nLCAnLW9tYWUnLCAnPG91dGZpbGUubWFlPic=

>  <s_epik_input>  (1) 
W0NIM11PW0NASF0oW0NIM10pW0NIMl1TW0NIMl1bQ0gyXVtDSDJdW0NIMl1bTkhdW0NIMl1bQ0gyXVtOSDJd

>  <s_glide_docking_method>  (1) 
confgen

>  <s_i_glide_gridfile>  (1) 
gpcr_5ht2c_6bqh_protein_autoprepared_prepared

>  <s_lp_Force_Field>  (1) 
S-OPLS

>  <s_lp_Variant>  (1) 
DiffSBDD_31-1

>  <s_m_source_file>  (1) 
generated_GPCR_5HT2C_ligand_DiffSBDD_2026-06-23_prepared.sdf

>  <GenAI_Model>  (1) 
DiffSBDD

>  <Protein>  (1) 
GPCR_5HT2C

$$$$
DiffSBDD_31
     RDKit          3D

  0  0  0  0  0  0  0  0  0  0999 V3000
M  V30 BEGIN CTAB
M  V30 COUNTS 40 39 0 0 1
M  V30 BEGIN ATOM
M  V30 1 S 38.806073 28.907684 53.661333 0
M  V30 2 C 40.044591 29.950250 54.481236 0
M  V30 3 C 39.645236 27.375531 50.693011 0
M  V30 4 C 39.513484 31.302042 54.966838 0
M  V30 5 C 41.366922 30.537796 50.171602 0
M  V30 6 C 38.576297 31.172701 56.168063 0
M  V30 7 N 34.984673 33.085888 59.367819 0 CHG=1
M  V30 8 C 40.119919 28.749379 51.165811 0 CFG=1
M  V30 9 C 37.501789 33.276125 59.164299 0
M  V30 10 C 36.130123 33.986886 59.120684 0
M  V30 11 O 40.428731 29.487787 49.988261 0
M  V30 12 C 38.409069 32.480667 56.952004 0
M  V30 13 N 37.645125 32.185176 58.172180 0 CHG=1
M  V30 14 C 39.020770 29.473299 51.951601 0
M  V30 15 H 40.474323 29.396042 55.316417 0
M  V30 16 H 40.845150 30.137756 53.772545 0
M  V30 17 H 39.306709 26.744040 51.514821 0
M  V30 18 H 38.845148 27.476712 49.973501 0
M  V30 19 H 40.445096 26.864575 50.167759 0
M  V30 20 H 40.377222 31.892462 55.270049 0
M  V30 21 H 39.031963 31.848909 54.155259 0
M  V30 22 H 41.601451 30.992547 49.212602 0
M  V30 23 H 42.305228 30.161139 50.572011 0
M  V30 24 H 40.992178 31.326651 50.825807 0
M  V30 25 H 37.604422 30.801700 55.836279 0
M  V30 26 H 38.979611 30.414510 56.841207 0
M  V30 27 H 34.134922 33.632192 59.414148 0
M  V30 28 H 34.898810 32.432894 58.591283 0
M  V30 29 H 41.018137 28.625825 51.767697 0
M  V30 30 H 37.643169 32.841688 60.154432 0
M  V30 31 H 38.307029 34.002126 59.043253 0
M  V30 32 H 36.109494 34.771990 59.879158 0
M  V30 33 H 35.980045 34.483033 58.167798 0
M  V30 34 H 39.383703 32.889980 57.220183 0
M  V30 35 H 37.886834 33.228688 56.352734 0
M  V30 36 H 36.720918 31.895282 57.838719 0
M  V30 37 H 39.245144 30.537117 51.992279 0
M  V30 38 H 38.071578 29.337755 51.433989 0
M  V30 39 H 38.088600 31.397062 58.620381 0
M  V30 40 H 35.101675 32.582735 60.234493 0
M  V30 END ATOM
M  V30 BEGIN BOND
M  V30 1 1 2 1
M  V30 2 1 4 2
M  V30 3 1 6 4
M  V30 4 1 8 3
M  V30 5 1 10 7
M  V30 6 1 10 9
M  V30 7 1 11 5
M  V30 8 1 11 8
M  V30 9 1 12 6
M  V30 10 1 13 9
M  V30 11 1 13 12
M  V30 12 1 14 1
M  V30 13 1 14 8
M  V30 14 1 15 2
M  V30 15 1 16 2
M  V30 16 1 17 3
M  V30 17 1 18 3
M  V30 18 1 19 3
M  V30 19 1 20 4
M  V30 20 1 21 4
M  V30 21 1 22 5
M  V30 22 1 23 5
M  V30 23 1 24 5
M  V30 24 1 25 6
M  V30 25 1 26 6
M  V30 26 1 27 7
M  V30 27 1 28 7
M  V30 28 1 8 29 CFG=1
M  V30 29 1 30 9
M  V30 30 1 31 9
M  V30 31 1 32 10
M  V30 32 1 33 10
M  V30 33 1 34 12
M  V30 34 1 35 12
M  V30 35 1 36 13
M  V30 36 1 37 14
M  V30 37 1 38 14
M  V30 38 1 39 13
M  V30 39 1 40 7
M  V30 END BOND
M  V30 END CTAB
M  END
>  <i_epik_Tot_Q>  (1) 
2

>  <i_epik_Tot_abs_Q>  (1) 
2

>  <i_i_glide_confnum>  (1) 
46

>  <i_i_glide_lignum>  (1) 
75

>  <i_i_glide_posenum>  (1) 
106

>  <i_i_glide_rotatable_bonds>  (1) 
10

>  <i_lp_mmshare_version>  (1) 
72125

>  <i_m_source_file_index>  (1) 
32

>  <i_f3d_flags>  (1) 
0

>  <num_sample>  (1) 
100

>  <b_lp_Chiralities_Consistent>  (1) 
1

>  <r_epik_Charging_Adjusted_Penalty>  (1) 
2.088492378820884

>  <r_epik_Ionization_Penalty>  (1) 
1.179420884756136

>  <r_epik_Ionization_Penalty_Charging>  (1) 
1.1794208847540233

>  <r_epik_Ionization_Penalty_Neutral>  (1) 
2.1128257851734737e-12

>  <r_epik_State_Penalty>  (1) 
0.90907149406686061

>  <r_glide_ring_energy>  (1) 
0

>  <r_i_docking_score>  (1) 
-0.45414264851639363

>  <r_i_glide_ecoul>  (1) 
-7.9116377818000228

>  <r_i_glide_eff_state_penalty>  (1) 
0.90907149406686061

>  <r_i_glide_einternal>  (1) 
6.5612176695608238

>  <r_i_glide_emodel>  (1) 
-29.021215646764688

>  <r_i_glide_emodel_strain>  (1) 
0.51949774877432464

>  <r_i_glide_energy>  (1) 
-28.35369473412802

>  <r_i_glide_erotb>  (1) 
5.4672764503098783

>  <r_i_glide_esite>  (1) 
-0.13755967336665792

>  <r_i_glide_evdw>  (1) 
-20.442056952327995

>  <r_i_glide_gscore>  (1) 
-1.3632141425832542

>  <r_i_glide_gscore_strain>  (1) 
0

>  <r_i_glide_hbond>  (1) 
-0.40000000000000002

>  <r_i_glide_ligand_efficiency>  (1) 
-0.032438760608313834

>  <r_i_glide_ligand_efficiency_ln>  (1) 
-0.12479678317252786

>  <r_i_glide_ligand_efficiency_sa>  (1) 
-0.078182027939559764

>  <r_i_glide_lipo>  (1) 
-1.6731526155354597

>  <r_i_glide_metal>  (1) 
-0

>  <r_i_glide_rewards>  (1) 
-2.4109297891046118

>  <r_lp_Energy>  (1) 
18.306276999999998

>  <s_epik_cmdline>  (1) 
J2VwaWtfcHl0aG9uJywgJy1waHQnLCAnMS4wJywgJy1waCcsICc3LjQnLCAnLXRuJywgJzgnLCAnLW1hJywgJzUwMCcsICctaW1hZScsICc8aW5maWxlLm1hZT4nLCAnLW9tYWUnLCAnPG91dGZpbGUubWFlPic=

>  <s_epik_input>  (1) 
W0NIM11PW0NASF0oW0NIM10pW0NIMl1TW0NIMl1bQ0gyXVtDSDJdW0NIMl1bTkhdW0NIMl1bQ0gyXVtOSDJd

>  <s_glide_docking_method>  (1) 
confgen

>  <s_i_glide_gridfile>  (1) 
gpcr_5ht2c_6bqh_protein_autoprepared_prepared

>  <s_lp_Force_Field>  (1) 
S-OPLS

>  <s_lp_Variant>  (1) 
DiffSBDD_31-3

>  <s_m_source_file>  (1) 
generated_GPCR_5HT2C_ligand_DiffSBDD_2026-06-23_prepared.sdf

>  <GenAI_Model>  (1) 
DiffSBDD

>  <Protein>  (1) 
GPCR_5HT2C

$$$$
DiffSBDD_16
     RDKit          3D

  0  0  0  0  0  0  0  0  0  0999 V3000
M  V30 BEGIN CTAB
M  V30 COUNTS 70 74 0 0 1
M  V30 BEGIN ATOM
M  V30 1 C 39.835422 27.110484 57.412366 0
M  V30 2 C 37.864901 35.739059 62.008585 0
M  V30 3 C 37.384082 30.501943 58.159966 0 CFG=1
M  V30 4 C 36.113797 30.546713 59.065866 0
M  V30 5 C 42.024228 27.445969 58.346165 0
M  V30 6 C 41.438684 28.046280 59.489909 0
M  V30 7 C 37.037536 28.356884 53.501967 0
M  V30 8 C 38.141075 29.124013 52.791743 0
M  V30 9 C 37.190037 29.804505 56.766520 0
M  V30 10 C 40.047825 28.138110 59.599058 0
M  V30 11 O 37.531190 26.111370 54.049547 0
M  V30 12 C 36.876778 33.759692 61.008623 0
M  V30 13 C 36.995980 32.713637 60.152265 0
M  V30 14 C 38.317774 32.267202 59.548398 0
M  V30 15 C 37.993047 34.490285 61.630441 0
M  V30 16 C 41.209212 26.967366 57.332442 0
M  V30 17 N 38.922769 36.263021 62.714153 0
M  V30 18 C 41.858472 34.207291 63.054316 0
M  V30 19 N 38.045181 31.813445 58.157038 0 CHG=1
M  V30 20 C 41.482230 33.161870 62.046483 0
M  V30 21 C 43.528108 27.337959 58.195846 0
M  V30 22 C 38.456077 30.392763 53.587267 0
M  V30 23 C 39.681305 31.431557 55.493383 0
M  V30 24 C 39.151017 30.115697 54.920925 0 CFG=1
M  V30 25 C 39.048086 26.774273 56.278455 0
M  V30 26 C 38.400672 29.238269 55.965862 0 CFG=2
M  V30 27 C 37.642514 27.289162 54.381957 0
M  V30 28 C 39.244140 33.849772 62.135275 0 CFG=2
M  V30 29 C 38.363588 27.708065 55.602636 0
M  V30 30 C 39.694071 35.221138 62.747105 0
M  V30 31 N 40.335400 33.144651 61.451407 0
M  V30 32 C 39.244266 27.675674 58.556507 0
M  V30 33 C 35.772287 31.946228 59.666394 0
M  V30 34 C 41.013289 35.213517 63.350068 0
M  V30 35 H 36.998395 36.359088 61.829746 0
M  V30 36 H 38.089391 29.892187 58.707392 0
M  V30 37 H 36.273622 29.859098 59.895940 0
M  V30 38 H 35.244177 30.139038 58.549041 0
M  V30 39 H 42.045103 28.418512 60.283743 0
M  V30 40 H 36.379891 27.877419 52.777507 0
M  V30 41 H 36.445132 29.037340 54.104302 0
M  V30 42 H 39.045578 28.526428 52.664395 0
M  V30 43 H 37.815774 29.337732 51.776809 0
M  V30 44 H 36.711430 28.937745 57.165326 0
M  V30 45 H 36.462983 30.246667 56.093149 0
M  V30 46 H 39.599845 28.584607 60.474881 0
M  V30 47 H 35.877117 34.053438 61.296790 0
M  V30 48 H 38.979122 33.122809 59.423902 0
M  V30 49 H 38.803964 31.494694 60.146218 0
M  V30 50 H 41.645128 26.537780 56.449647 0
M  V30 51 H 42.845146 34.138779 63.481380 0
M  V30 52 H 38.898507 31.758464 57.622541 0
M  V30 53 H 42.258803 32.424909 61.826195 0
M  V30 54 H 43.788976 26.872810 57.246681 0
M  V30 55 H 43.978349 28.328386 58.167759 0
M  V30 56 H 43.973561 26.718847 58.967806 0
M  V30 57 H 39.107469 31.023242 52.978696 0
M  V30 58 H 37.552755 30.976809 53.767839 0
M  V30 59 H 38.932308 32.223128 55.468958 0
M  V30 60 H 40.045122 31.323127 56.510681 0
M  V30 61 H 40.532629 31.737778 54.891679 0
M  V30 62 H 40.046606 29.545370 54.674142 0
M  V30 63 H 39.074604 25.748251 55.935980 0
M  V30 64 H 39.160045 29.315029 56.728724 0
M  V30 65 H 38.915837 33.207535 62.955242 0
M  V30 66 H 38.171789 27.771696 58.617025 0
M  V30 67 H 35.078427 31.815291 60.497564 0
M  V30 68 H 35.239287 32.580586 58.967715 0
M  V30 69 H 41.264412 36.020915 64.023257 0
M  V30 70 H 37.405833 32.459462 57.707750 0
M  V30 END ATOM
M  V30 BEGIN BOND
M  V30 1 1 4 3
M  V30 2 1 6 5
M  V30 3 1 8 7
M  V30 4 1 9 3
M  V30 5 2 10 6
M  V30 6 2 13 12
M  V30 7 1 14 13
M  V30 8 2 15 2
M  V30 9 1 15 12
M  V30 10 1 16 1
M  V30 11 2 16 5
M  V30 12 1 17 2
M  V30 13 1 19 3
M  V30 14 1 19 14
M  V30 15 1 20 18
M  V30 16 1 21 5
M  V30 17 1 22 8
M  V30 18 1 24 22
M  V30 19 1 24 23
M  V30 20 1 25 1
M  V30 21 1 26 9
M  V30 22 1 26 24
M  V30 23 1 27 7
M  V30 24 2 27 11
M  V30 25 1 28 15
M  V30 26 2 29 25
M  V30 27 1 29 26
M  V30 28 1 29 27
M  V30 29 2 30 17
M  V30 30 1 30 28
M  V30 31 2 31 20
M  V30 32 1 31 28
M  V30 33 2 32 1
M  V30 34 1 32 10
M  V30 35 1 33 4
M  V30 36 1 33 13
M  V30 37 2 34 18
M  V30 38 1 34 30
M  V30 39 1 35 2
M  V30 40 1 3 36 CFG=1
M  V30 41 1 37 4
M  V30 42 1 38 4
M  V30 43 1 39 6
M  V30 44 1 40 7
M  V30 45 1 41 7
M  V30 46 1 42 8
M  V30 47 1 43 8
M  V30 48 1 44 9
M  V30 49 1 45 9
M  V30 50 1 46 10
M  V30 51 1 47 12
M  V30 52 1 48 14
M  V30 53 1 49 14
M  V30 54 1 50 16
M  V30 55 1 51 18
M  V30 56 1 52 19
M  V30 57 1 53 20
M  V30 58 1 54 21
M  V30 59 1 55 21
M  V30 60 1 56 21
M  V30 61 1 57 22
M  V30 62 1 58 22
M  V30 63 1 59 23
M  V30 64 1 60 23
M  V30 65 1 61 23
M  V30 66 1 24 62 CFG=3
M  V30 67 1 63 25
M  V30 68 1 26 64 CFG=1
M  V30 69 1 28 65 CFG=1
M  V30 70 1 66 32
M  V30 71 1 67 33
M  V30 72 1 68 33
M  V30 73 1 69 34
M  V30 74 1 70 19
M  V30 END BOND
M  V30 END CTAB
M  END
>  <i_epik_Tot_Q>  (1) 
1

>  <i_epik_Tot_abs_Q>  (1) 
1

>  <i_i_glide_confnum>  (1) 
11

>  <i_i_glide_lignum>  (1) 
35

>  <i_i_glide_posenum>  (1) 
317

>  <i_i_glide_rotatable_bonds>  (1) 
4

>  <i_lp_mmshare_version>  (1) 
72125

>  <i_m_source_file_index>  (1) 
17

>  <i_f3d_flags>  (1) 
0

>  <num_sample>  (1) 
100

>  <b_lp_Chiralities_Consistent>  (1) 
1

>  <r_epik_Charging_Adjusted_Penalty>  (1) 
0.57808156404405586

>  <r_epik_Ionization_Penalty>  (1) 
0.28904078202202793

>  <r_epik_Ionization_Penalty_Charging>  (1) 
0.28904078202202793

>  <r_epik_Ionization_Penalty_Neutral>  (1) 
0

>  <r_epik_State_Penalty>  (1) 
0.28904078202202793

>  <r_glide_ring_energy>  (1) 
0

>  <r_i_docking_score>  (1) 
-0.33157854144837945

>  <r_i_glide_ecoul>  (1) 
-1.951436329382747

>  <r_i_glide_eff_state_penalty>  (1) 
0.28904078202202793

>  <r_i_glide_einternal>  (1) 
59.955354319652301

>  <r_i_glide_emodel>  (1) 
30.3945129224943

>  <r_i_glide_emodel_strain>  (1) 
29.616481119610938

>  <r_i_glide_energy>  (1) 
-28.279968908073744

>  <r_i_glide_erotb>  (1) 
0.29147875755417113

>  <r_i_glide_esite>  (1) 
-0.095171117824013787

>  <r_i_glide_evdw>  (1) 
-26.328532578690997

>  <r_i_glide_gscore>  (1) 
-0.62061932347040738

>  <r_i_glide_gscore_strain>  (1) 
6.4041202799027346

>  <r_i_glide_hbond>  (1) 
-0.032728447982759375

>  <r_i_glide_ligand_efficiency>  (1) 
-0.0097523100425993964

>  <r_i_glide_ligand_efficiency_ln>  (1) 
-0.07325500026900697

>  <r_i_glide_ligand_efficiency_sa>  (1) 
-0.031593698703721924

>  <r_i_glide_lipo>  (1) 
-3.3004029090370679

>  <r_i_glide_metal>  (1) 
-0

>  <r_i_glide_rewards>  (1) 
-2.2787738077415103

>  <r_lp_Energy>  (1) 
58.685900999999994

>  <s_epik_Chemistry_Notes>  (1) 
This compound has an imine and may undergo hydrolysis.

>  <s_epik_cmdline>  (1) 
J2VwaWtfcHl0aG9uJywgJy1waHQnLCAnMS4wJywgJy1waCcsICc3LjQnLCAnLXRuJywgJzgnLCAnLW1hJywgJzUwMCcsICctaW1hZScsICc8aW5maWxlLm1hZT4nLCAnLW9tYWUnLCAnPG91dGZpbGUubWFlPic=

>  <s_epik_input>  (1) 
W2NIXTFbY0hdW2NIXWMoW0NIM10pW2NIXWMxL1tDSF09QyhDKD1PKVtDSDJdW0NIMl1bQ0gyXVtDQEhdMltDSDNdKVxbQ0BASF0yW0NIMl1bQ0BASF0zW0NIMl1bQ0gyXUMoXFtDSDJdW05IXTMpPVtDSF1cQzQ9W0NIXU49QyhbQ0BASF00NSlbQ0hdPVtDSF1bQ0hdPU41

>  <s_glide_docking_method>  (1) 
confgen

>  <s_i_glide_gridfile>  (1) 
gpcr_5ht2c_6bqh_protein_autoprepared_prepared

>  <s_lp_Force_Field>  (1) 
S-OPLS

>  <s_lp_Variant>  (1) 
DiffSBDD_16-3

>  <s_m_source_file>  (1) 
generated_GPCR_5HT2C_ligand_DiffSBDD_2026-06-23_prepared.sdf

>  <GenAI_Model>  (1) 
DiffSBDD

>  <Protein>  (1) 
GPCR_5HT2C

$$$$
DiffSBDD_31
     RDKit          3D

  0  0  0  0  0  0  0  0  0  0999 V3000
M  V30 BEGIN CTAB
M  V30 COUNTS 39 38 0 0 1
M  V30 BEGIN ATOM
M  V30 1 S 38.976354 29.973162 53.767748 0
M  V30 2 C 40.045200 30.549841 55.116004 0
M  V30 3 C 40.715409 30.401112 49.973188 0
M  V30 4 C 39.591939 31.891550 55.711218 0
M  V30 5 C 39.253582 27.538666 51.204971 0
M  V30 6 C 38.562971 31.704100 56.825822 0
M  V30 7 N 34.429192 33.337691 59.367761 0 CHG=1
M  V30 8 C 39.800861 29.851358 51.071941 0 CFG=1
M  V30 9 C 36.833211 33.907010 59.266333 0
M  V30 10 C 35.639830 33.577144 60.170447 0
M  V30 11 O 40.253908 28.537703 51.367795 0
M  V30 12 C 38.290910 32.993282 57.607628 0
M  V30 13 N 37.245198 32.701025 58.567760 0
M  V30 14 C 39.819443 30.732886 52.341078 0
M  V30 15 H 41.069738 30.626757 54.755301 0
M  V30 16 H 40.061689 29.779452 55.886914 0
M  V30 17 H 40.380700 31.384763 49.645514 0
M  V30 18 H 41.746035 30.493596 50.317135 0
M  V30 19 H 40.712695 29.738029 49.106851 0
M  V30 20 H 39.198291 32.544218 54.931936 0
M  V30 21 H 40.445137 32.416879 56.132943 0
M  V30 22 H 39.645107 26.561554 51.485086 0
M  V30 23 H 38.381937 27.736869 51.829777 0
M  V30 24 H 38.926067 27.480460 50.167773 0
M  V30 25 H 38.910818 30.939809 57.522489 0
M  V30 26 H 37.643529 31.322582 56.383282 0
M  V30 27 H 33.658011 33.077467 59.963696 0
M  V30 28 H 34.194535 34.176667 58.857143 0
M  V30 29 H 38.795678 29.816733 50.663756 0
M  V30 30 H 37.669554 34.263458 59.869010 0
M  V30 31 H 36.577306 34.704172 58.567503 0
M  V30 32 H 35.849172 32.705528 60.792317 0
M  V30 33 H 35.449110 34.410401 60.847045 0
M  V30 34 H 37.963905 33.781155 56.926368 0
M  V30 35 H 39.191181 33.337870 58.117850 0
M  V30 36 H 36.483235 32.315479 57.995628 0
M  V30 37 H 39.386893 31.715307 52.152912 0
M  V30 38 H 40.845135 30.937742 52.615022 0
M  V30 39 H 34.620965 32.596260 58.699929 0
M  V30 END ATOM
M  V30 BEGIN BOND
M  V30 1 1 2 1
M  V30 2 1 4 2
M  V30 3 1 6 4
M  V30 4 1 8 3
M  V30 5 1 10 7
M  V30 6 1 10 9
M  V30 7 1 11 5
M  V30 8 1 11 8
M  V30 9 1 12 6
M  V30 10 1 13 9
M  V30 11 1 13 12
M  V30 12 1 14 1
M  V30 13 1 14 8
M  V30 14 1 15 2
M  V30 15 1 16 2
M  V30 16 1 17 3
M  V30 17 1 18 3
M  V30 18 1 19 3
M  V30 19 1 20 4
M  V30 20 1 21 4
M  V30 21 1 22 5
M  V30 22 1 23 5
M  V30 23 1 24 5
M  V30 24 1 25 6
M  V30 25 1 26 6
M  V30 26 1 27 7
M  V30 27 1 28 7
M  V30 28 1 8 29 CFG=3
M  V30 29 1 30 9
M  V30 30 1 31 9
M  V30 31 1 32 10
M  V30 32 1 33 10
M  V30 33 1 34 12
M  V30 34 1 35 12
M  V30 35 1 36 13
M  V30 36 1 37 14
M  V30 37 1 38 14
M  V30 38 1 39 7
M  V30 END BOND
M  V30 END CTAB
M  END
>  <i_epik_Tot_Q>  (1) 
1

>  <i_epik_Tot_abs_Q>  (1) 
1

>  <i_i_glide_confnum>  (1) 
245

>  <i_i_glide_lignum>  (1) 
74

>  <i_i_glide_posenum>  (1) 
278

>  <i_i_glide_rotatable_bonds>  (1) 
10

>  <i_lp_mmshare_version>  (1) 
72125

>  <i_m_source_file_index>  (1) 
32

>  <i_f3d_flags>  (1) 
0

>  <num_sample>  (1) 
100

>  <b_lp_Chiralities_Consistent>  (1) 
1

>  <r_epik_Charging_Adjusted_Penalty>  (1) 
0.89892965440130657

>  <r_epik_Ionization_Penalty>  (1) 
0.40851524068968265

>  <r_epik_Ionization_Penalty_Charging>  (1) 
0.0057066627245521461

>  <r_epik_Ionization_Penalty_Neutral>  (1) 
0.40280857796513048

>  <r_epik_State_Penalty>  (1) 
0.89322299167675445

>  <r_glide_ring_energy>  (1) 
0

>  <r_i_docking_score>  (1) 
-0.22289506378312218

>  <r_i_glide_ecoul>  (1) 
-7.0971844397836827

>  <r_i_glide_eff_state_penalty>  (1) 
0.89322299167675445

>  <r_i_glide_einternal>  (1) 
6.4937590181928542

>  <r_i_glide_emodel>  (1) 
-29.884333092263237

>  <r_i_glide_emodel_strain>  (1) 
1.5867529540288658

>  <r_i_glide_energy>  (1) 
-31.624736259682674

>  <r_i_glide_erotb>  (1) 
5.5093939013808209

>  <r_i_glide_esite>  (1) 
0

>  <r_i_glide_evdw>  (1) 
-24.527551819898992

>  <r_i_glide_gscore>  (1) 
-1.1161180554598766

>  <r_i_glide_gscore_strain>  (1) 
0

>  <r_i_glide_hbond>  (1) 
-0.35999999999999999

>  <r_i_glide_ligand_efficiency>  (1) 
-0.015921075984508728

>  <r_i_glide_ligand_efficiency_ln>  (1) 
-0.061250770074207074

>  <r_i_glide_ligand_efficiency_sa>  (1) 
-0.038372058121409744

>  <r_i_glide_lipo>  (1) 
-1.8762797976778003

>  <r_i_glide_metal>  (1) 
-0

>  <r_i_glide_rewards>  (1) 
-2.0982769022003951

>  <r_lp_Energy>  (1) 
8.7800750000000001

>  <s_epik_cmdline>  (1) 
J2VwaWtfcHl0aG9uJywgJy1waHQnLCAnMS4wJywgJy1waCcsICc3LjQnLCAnLXRuJywgJzgnLCAnLW1hJywgJzUwMCcsICctaW1hZScsICc8aW5maWxlLm1hZT4nLCAnLW9tYWUnLCAnPG91dGZpbGUubWFlPic=

>  <s_epik_input>  (1) 
W0NIM11PW0NASF0oW0NIM10pW0NIMl1TW0NIMl1bQ0gyXVtDSDJdW0NIMl1bTkhdW0NIMl1bQ0gyXVtOSDJd

>  <s_glide_docking_method>  (1) 
confgen

>  <s_i_glide_gridfile>  (1) 
gpcr_5ht2c_6bqh_protein_autoprepared_prepared

>  <s_lp_Force_Field>  (1) 
S-OPLS

>  <s_lp_Variant>  (1) 
DiffSBDD_31-2

>  <s_m_source_file>  (1) 
generated_GPCR_5HT2C_ligand_DiffSBDD_2026-06-23_prepared.sdf

>  <GenAI_Model>  (1) 
DiffSBDD

>  <Protein>  (1) 
GPCR_5HT2C

$$$$
DiffSBDD_31
     RDKit          3D

  0  0  0  0  0  0  0  0  0  0999 V3000
M  V30 BEGIN CTAB
M  V30 COUNTS 39 38 0 0 1
M  V30 BEGIN ATOM
M  V30 1 S 38.045172 29.385209 54.078435 0
M  V30 2 C 39.663722 30.078056 54.512836 0
M  V30 3 C 39.359993 26.990536 50.978302 0
M  V30 4 C 39.521195 31.432368 55.212638 0
M  V30 5 C 39.773015 29.985369 50.342738 0
M  V30 6 C 38.789301 31.332302 56.555589 0
M  V30 7 N 34.937191 33.337755 59.367760 0 CHG=1
M  V30 8 C 39.362007 28.210704 51.886287 0 CFG=1
M  V30 9 C 37.345741 33.767888 58.948972 0
M  V30 10 C 36.249495 33.550256 60.002105 0
M  V30 11 O 38.845150 29.337754 51.202159 0
M  V30 12 C 38.610417 32.688330 57.239216 0
M  V30 13 N 37.645138 32.500774 58.303753 0
M  V30 14 C 38.506754 27.913100 53.131913 0
M  V30 15 H 40.250833 30.214971 53.605955 0
M  V30 16 H 40.200452 29.371630 55.146652 0
M  V30 17 H 39.645140 26.125107 51.561708 0
M  V30 18 H 38.374518 26.792671 50.567760 0
M  V30 19 H 40.072800 27.091640 50.167760 0
M  V30 20 H 38.993518 32.125160 54.555358 0
M  V30 21 H 40.511773 31.852558 55.367767 0
M  V30 22 H 39.307512 30.870732 49.909192 0
M  V30 23 H 40.658936 30.315072 50.887771 0
M  V30 24 H 40.083605 29.338222 49.522556 0
M  V30 25 H 39.318368 30.648821 57.220920 0
M  V30 26 H 37.803228 30.895966 56.389294 0
M  V30 27 H 34.238371 33.118325 60.061263 0
M  V30 28 H 34.667913 34.173247 58.868477 0
M  V30 29 H 40.392731 28.413192 52.167759 0
M  V30 30 H 38.252593 34.138387 59.428801 0
M  V30 31 H 37.036764 34.514385 58.215039 0
M  V30 32 H 36.491254 32.702543 60.645030 0
M  V30 33 H 36.177088 34.426439 60.647465 0
M  V30 34 H 38.225928 33.419172 56.525856 0
M  V30 35 H 39.557766 33.062209 57.629222 0
M  V30 36 H 36.797891 32.137765 57.848809 0
M  V30 37 H 39.023340 27.211604 53.787603 0
M  V30 38 H 37.574118 27.432314 52.832713 0
M  V30 39 H 35.011739 32.577468 58.695341 0
M  V30 END ATOM
M  V30 BEGIN BOND
M  V30 1 1 2 1
M  V30 2 1 4 2
M  V30 3 1 6 4
M  V30 4 1 8 3
M  V30 5 1 10 7
M  V30 6 1 10 9
M  V30 7 1 11 5
M  V30 8 1 11 8
M  V30 9 1 12 6
M  V30 10 1 13 9
M  V30 11 1 13 12
M  V30 12 1 14 1
M  V30 13 1 14 8
M  V30 14 1 15 2
M  V30 15 1 16 2
M  V30 16 1 17 3
M  V30 17 1 18 3
M  V30 18 1 19 3
M  V30 19 1 20 4
M  V30 20 1 21 4
M  V30 21 1 22 5
M  V30 22 1 23 5
M  V30 23 1 24 5
M  V30 24 1 25 6
M  V30 25 1 26 6
M  V30 26 1 27 7
M  V30 27 1 28 7
M  V30 28 1 8 29 CFG=1
M  V30 29 1 30 9
M  V30 30 1 31 9
M  V30 31 1 32 10
M  V30 32 1 33 10
M  V30 33 1 34 12
M  V30 34 1 35 12
M  V30 35 1 36 13
M  V30 36 1 37 14
M  V30 37 1 38 14
M  V30 38 1 39 7
M  V30 END BOND
M  V30 END CTAB
M  END
>  <i_epik_Tot_Q>  (1) 
1

>  <i_epik_Tot_abs_Q>  (1) 
1

>  <i_i_glide_confnum>  (1) 
283

>  <i_i_glide_lignum>  (1) 
74

>  <i_i_glide_posenum>  (1) 
327

>  <i_i_glide_rotatable_bonds>  (1) 
10

>  <i_lp_mmshare_version>  (1) 
72125

>  <i_m_source_file_index>  (1) 
32

>  <i_f3d_flags>  (1) 
0

>  <num_sample>  (1) 
100

>  <b_lp_Chiralities_Consistent>  (1) 
1

>  <r_epik_Charging_Adjusted_Penalty>  (1) 
0.89892965440130657

>  <r_epik_Ionization_Penalty>  (1) 
0.40851524068968265

>  <r_epik_Ionization_Penalty_Charging>  (1) 
0.0057066627245521461

>  <r_epik_Ionization_Penalty_Neutral>  (1) 
0.40280857796513048

>  <r_epik_State_Penalty>  (1) 
0.89322299167675445

>  <r_glide_ring_energy>  (1) 
0

>  <r_i_docking_score>  (1) 
-0.22269591485990592

>  <r_i_glide_ecoul>  (1) 
-6.9289456050464295

>  <r_i_glide_eff_state_penalty>  (1) 
0.89322299167675445

>  <r_i_glide_einternal>  (1) 
4.3731061379870395

>  <r_i_glide_emodel>  (1) 
-30.833561236822881

>  <r_i_glide_emodel_strain>  (1) 
0.084906626210163427

>  <r_i_glide_energy>  (1) 
-30.012343561164577

>  <r_i_glide_erotb>  (1) 
5.5093939013808209

>  <r_i_glide_esite>  (1) 
-0.020287962143512753

>  <r_i_glide_evdw>  (1) 
-23.083397956118148

>  <r_i_glide_gscore>  (1) 
-1.1159189065366604

>  <r_i_glide_gscore_strain>  (1) 
0

>  <r_i_glide_hbond>  (1) 
-0.35999999999999999

>  <r_i_glide_ligand_efficiency>  (1) 
-0.01590685106142185

>  <r_i_glide_ligand_efficiency_ln>  (1) 
-0.06119604465903003

>  <r_i_glide_ligand_efficiency_sa>  (1) 
-0.038337774033073424

>  <r_i_glide_lipo>  (1) 
-1.9120990007773802

>  <r_i_glide_metal>  (1) 
-0

>  <r_i_glide_rewards>  (1) 
-2.1394141064337169

>  <r_lp_Energy>  (1) 
8.7800750000000001

>  <s_epik_cmdline>  (1) 
J2VwaWtfcHl0aG9uJywgJy1waHQnLCAnMS4wJywgJy1waCcsICc3LjQnLCAnLXRuJywgJzgnLCAnLW1hJywgJzUwMCcsICctaW1hZScsICc8aW5maWxlLm1hZT4nLCAnLW9tYWUnLCAnPG91dGZpbGUubWFlPic=

>  <s_epik_input>  (1) 
W0NIM11PW0NASF0oW0NIM10pW0NIMl1TW0NIMl1bQ0gyXVtDSDJdW0NIMl1bTkhdW0NIMl1bQ0gyXVtOSDJd

>  <s_glide_docking_method>  (1) 
confgen

>  <s_i_glide_gridfile>  (1) 
gpcr_5ht2c_6bqh_protein_autoprepared_prepared

>  <s_lp_Force_Field>  (1) 
S-OPLS

>  <s_lp_Variant>  (1) 
DiffSBDD_31-2

>  <s_m_source_file>  (1) 
generated_GPCR_5HT2C_ligand_DiffSBDD_2026-06-23_prepared.sdf

>  <GenAI_Model>  (1) 
DiffSBDD

>  <Protein>  (1) 
GPCR_5HT2C

$$$$
DiffSBDD_31
     RDKit          3D

  0  0  0  0  0  0  0  0  0  0999 V3000
M  V30 BEGIN CTAB
M  V30 COUNTS 39 38 0 0 1
M  V30 BEGIN ATOM
M  V30 1 S 37.668575 27.465487 53.380605 0
M  V30 2 C 38.368738 26.722089 54.884087 0
M  V30 3 C 39.496370 30.158833 52.958741 0
M  V30 4 C 39.048112 27.760907 55.791902 0
M  V30 5 C 40.495220 30.208895 50.060754 0
M  V30 6 C 38.044827 28.696062 56.486264 0
M  V30 7 N 36.445187 33.172649 58.967760 0 CHG=1
M  V30 8 C 39.315065 29.113032 51.836021 0 CFG=1
M  V30 9 C 38.347262 31.588308 58.827632 0
M  V30 10 C 37.319383 32.274566 59.735832 0
M  V30 11 O 40.445243 29.122287 50.975870 0
M  V30 12 C 38.720277 29.797332 57.308411 0
M  V30 13 N 37.709073 30.537662 58.048779 0
M  V30 14 C 39.159484 27.673618 52.359496 0
M  V30 15 H 39.076400 25.944514 54.594887 0
M  V30 16 H 37.567072 26.222800 55.429499 0
M  V30 17 H 38.662815 30.142037 53.660419 0
M  V30 18 H 40.411112 29.992565 53.524435 0
M  V30 19 H 39.549911 31.173788 52.567760 0
M  V30 20 H 39.769964 28.340980 55.218905 0
M  V30 21 H 39.624692 27.237360 56.555343 0
M  V30 22 H 41.400122 30.137819 49.457606 0
M  V30 23 H 39.645151 30.189332 49.379829 0
M  V30 24 H 40.519197 31.175480 50.562595 0
M  V30 25 H 37.406438 28.099445 57.140029 0
M  V30 26 H 37.392841 29.161057 55.745274 0
M  V30 27 H 35.746052 33.586651 59.565665 0
M  V30 28 H 36.985954 33.897022 58.518967 0
M  V30 29 H 38.424871 29.337755 51.251417 0
M  V30 30 H 39.119532 31.138310 59.453523 0
M  V30 31 H 38.841248 32.308990 58.173552 0
M  V30 32 H 36.715972 31.536938 60.267267 0
M  V30 33 H 37.834876 32.868154 60.491594 0
M  V30 34 H 39.273837 30.469480 56.650557 0
M  V30 35 H 39.434841 29.356538 58.005229 0
M  V30 36 H 37.004977 30.914169 57.412563 0
M  V30 37 H 40.044157 27.354374 52.909777 0
M  V30 38 H 39.073119 26.988356 51.515192 0
M  V30 39 H 35.977599 32.624080 58.239482 0
M  V30 END ATOM
M  V30 BEGIN BOND
M  V30 1 1 2 1
M  V30 2 1 4 2
M  V30 3 1 6 4
M  V30 4 1 8 3
M  V30 5 1 10 7
M  V30 6 1 10 9
M  V30 7 1 11 5
M  V30 8 1 11 8
M  V30 9 1 12 6
M  V30 10 1 13 9
M  V30 11 1 13 12
M  V30 12 1 14 1
M  V30 13 1 14 8
M  V30 14 1 15 2
M  V30 15 1 16 2
M  V30 16 1 17 3
M  V30 17 1 18 3
M  V30 18 1 19 3
M  V30 19 1 20 4
M  V30 20 1 21 4
M  V30 21 1 22 5
M  V30 22 1 23 5
M  V30 23 1 24 5
M  V30 24 1 25 6
M  V30 25 1 26 6
M  V30 26 1 27 7
M  V30 27 1 28 7
M  V30 28 1 8 29 CFG=3
M  V30 29 1 30 9
M  V30 30 1 31 9
M  V30 31 1 32 10
M  V30 32 1 33 10
M  V30 33 1 34 12
M  V30 34 1 35 12
M  V30 35 1 36 13
M  V30 36 1 37 14
M  V30 37 1 38 14
M  V30 38 1 39 7
M  V30 END BOND
M  V30 END CTAB
M  END
>  <i_epik_Tot_Q>  (1) 
1

>  <i_epik_Tot_abs_Q>  (1) 
1

>  <i_i_glide_confnum>  (1) 
115

>  <i_i_glide_lignum>  (1) 
74

>  <i_i_glide_posenum>  (1) 
314

>  <i_i_glide_rotatable_bonds>  (1) 
10

>  <i_lp_mmshare_version>  (1) 
72125

>  <i_m_source_file_index>  (1) 
32

>  <i_f3d_flags>  (1) 
0

>  <num_sample>  (1) 
100

>  <b_lp_Chiralities_Consistent>  (1) 
1

>  <r_epik_Charging_Adjusted_Penalty>  (1) 
0.89892965440130657

>  <r_epik_Ionization_Penalty>  (1) 
0.40851524068968265

>  <r_epik_Ionization_Penalty_Charging>  (1) 
0.0057066627245521461

>  <r_epik_Ionization_Penalty_Neutral>  (1) 
0.40280857796513048

>  <r_epik_State_Penalty>  (1) 
0.89322299167675445

>  <r_glide_ring_energy>  (1) 
0

>  <r_i_docking_score>  (1) 
-0.17077078494963094

>  <r_i_glide_ecoul>  (1) 
-6.1842161082752352

>  <r_i_glide_eff_state_penalty>  (1) 
0.89322299167675445

>  <r_i_glide_einternal>  (1) 
3.2906401842361674

>  <r_i_glide_emodel>  (1) 
-30.795388695172178

>  <r_i_glide_emodel_strain>  (1) 
0

>  <r_i_glide_energy>  (1) 
-29.491937638745966

>  <r_i_glide_erotb>  (1) 
5.5093939013808209

>  <r_i_glide_esite>  (1) 
-0.10000000000000001

>  <r_i_glide_evdw>  (1) 
-23.307721530470733

>  <r_i_glide_gscore>  (1) 
-1.0639937766263854

>  <r_i_glide_gscore_strain>  (1) 
0

>  <r_i_glide_hbond>  (1) 
-0.35999999999999999

>  <r_i_glide_ligand_efficiency>  (1) 
-0.012197913210687925

>  <r_i_glide_ligand_efficiency_ln>  (1) 
-0.046927203800794695

>  <r_i_glide_ligand_efficiency_sa>  (1) 
-0.029398706163820346

>  <r_i_glide_lipo>  (1) 
-2.0441586309899109

>  <r_i_glide_metal>  (1) 
-0

>  <r_i_glide_rewards>  (1) 
-1.9762105542524728

>  <r_lp_Energy>  (1) 
8.7800750000000001

>  <s_epik_cmdline>  (1) 
J2VwaWtfcHl0aG9uJywgJy1waHQnLCAnMS4wJywgJy1waCcsICc3LjQnLCAnLXRuJywgJzgnLCAnLW1hJywgJzUwMCcsICctaW1hZScsICc8aW5maWxlLm1hZT4nLCAnLW9tYWUnLCAnPG91dGZpbGUubWFlPic=

>  <s_epik_input>  (1) 
W0NIM11PW0NASF0oW0NIM10pW0NIMl1TW0NIMl1bQ0gyXVtDSDJdW0NIMl1bTkhdW0NIMl1bQ0gyXVtOSDJd

>  <s_glide_docking_method>  (1) 
confgen

>  <s_i_glide_gridfile>  (1) 
gpcr_5ht2c_6bqh_protein_autoprepared_prepared

>  <s_lp_Force_Field>  (1) 
S-OPLS

>  <s_lp_Variant>  (1) 
DiffSBDD_31-2

>  <s_m_source_file>  (1) 
generated_GPCR_5HT2C_ligand_DiffSBDD_2026-06-23_prepared.sdf

>  <GenAI_Model>  (1) 
DiffSBDD

>  <Protein>  (1) 
GPCR_5HT2C

$$$$
DiffSBDD_70
     RDKit          3D

  0  0  0  0  0  0  0  0  0  0999 V3000
M  V30 BEGIN CTAB
M  V30 COUNTS 44 43 0 0 1
M  V30 BEGIN ATOM
M  V30 1 C 38.958787 31.560870 55.752590 0
M  V30 2 C 39.343387 29.452026 52.455491 0
M  V30 3 C 39.891846 30.944531 50.447180 0
M  V30 4 C 38.950377 34.347589 60.650664 0
M  V30 5 C 37.628748 33.689194 60.208867 0
M  V30 6 C 39.858701 28.473413 50.169740 0
M  V30 7 C 38.422155 31.298935 57.167842 0
M  V30 8 C 39.514626 30.614862 53.455780 0
M  V30 9 Cl 40.638478 35.736588 63.103713 0
M  V30 10 C 38.338753 32.594529 57.991724 0
M  V30 11 C 41.002751 34.245426 62.199730 0
M  V30 12 C 39.718005 33.551346 61.721403 0
M  V30 13 C 37.778781 32.381166 59.407139 0
M  V30 14 C 38.920449 30.323374 54.841917 0
M  V30 15 C 40.148898 29.609846 51.145841 0
M  V30 16 H 39.980334 31.936103 55.820884 0
M  V30 17 H 38.368251 32.355311 55.293879 0
M  V30 18 H 38.284882 29.336499 52.219833 0
M  V30 19 H 39.641350 28.519324 52.935128 0
M  V30 20 H 38.846974 31.073524 50.167703 0
M  V30 21 H 40.504323 31.059044 49.552491 0
M  V30 22 H 40.163589 31.741153 51.122284 0
M  V30 23 H 39.593470 34.523484 59.788456 0
M  V30 24 H 38.713298 35.334268 61.049709 0
M  V30 25 H 37.060784 34.402033 59.608523 0
M  V30 26 H 37.018283 33.500153 61.092431 0
M  V30 27 H 38.813463 28.456780 49.880439 0
M  V30 28 H 40.444992 28.620971 49.269071 0
M  V30 29 H 40.103058 27.498015 50.586496 0
M  V30 30 H 37.431449 30.846897 57.102638 0
M  V30 31 H 39.056657 30.574298 57.678053 0
M  V30 32 H 40.571203 30.860563 53.563457 0
M  V30 33 H 39.036020 31.511651 53.060156 0
M  V30 34 H 39.326787 33.048804 58.047581 0
M  V30 35 H 37.701221 33.306121 57.464841 0
M  V30 36 H 41.575181 33.594021 62.859966 0
M  V30 37 H 41.647670 34.515514 61.366878 0
M  V30 38 H 39.070243 33.361482 62.578101 0
M  V30 39 H 39.986111 32.575403 61.318024 0
M  V30 40 H 36.792479 31.923756 59.315780 0
M  V30 41 H 38.391616 31.663880 59.952840 0
M  V30 42 H 37.887483 29.988505 54.737949 0
M  V30 43 H 39.470944 29.503613 55.303930 0
M  V30 44 H 41.213949 29.576064 51.376783 0
M  V30 END ATOM
M  V30 BEGIN BOND
M  V30 1 1 5 4
M  V30 2 1 7 1
M  V30 3 1 8 2
M  V30 4 1 10 7
M  V30 5 1 11 9
M  V30 6 1 12 4
M  V30 7 1 12 11
M  V30 8 1 13 5
M  V30 9 1 13 10
M  V30 10 1 14 1
M  V30 11 1 14 8
M  V30 12 1 15 2
M  V30 13 1 15 3
M  V30 14 1 15 6
M  V30 15 1 16 1
M  V30 16 1 17 1
M  V30 17 1 18 2
M  V30 18 1 19 2
M  V30 19 1 20 3
M  V30 20 1 21 3
M  V30 21 1 22 3
M  V30 22 1 23 4
M  V30 23 1 24 4
M  V30 24 1 25 5
M  V30 25 1 26 5
M  V30 26 1 27 6
M  V30 27 1 28 6
M  V30 28 1 29 6
M  V30 29 1 30 7
M  V30 30 1 31 7
M  V30 31 1 32 8
M  V30 32 1 33 8
M  V30 33 1 34 10
M  V30 34 1 35 10
M  V30 35 1 36 11
M  V30 36 1 37 11
M  V30 37 1 38 12
M  V30 38 1 39 12
M  V30 39 1 40 13
M  V30 40 1 41 13
M  V30 41 1 42 14
M  V30 42 1 43 14
M  V30 43 1 44 15
M  V30 END BOND
M  V30 END CTAB
M  END
>  <i_epik_Tot_Q>  (1) 
0

>  <i_epik_Tot_abs_Q>  (1) 
0

>  <i_i_glide_confnum>  (1) 
85

>  <i_i_glide_lignum>  (1) 
155

>  <i_i_glide_posenum>  (1) 
266

>  <i_i_glide_rotatable_bonds>  (1) 
11

>  <i_lp_mmshare_version>  (1) 
72125

>  <i_m_source_file_index>  (1) 
71

>  <i_f3d_flags>  (1) 
0

>  <num_sample>  (1) 
100

>  <b_lp_Chiralities_Consistent>  (1) 
1

>  <r_epik_Charging_Adjusted_Penalty>  (1) 
0

>  <r_epik_Ionization_Penalty>  (1) 
0

>  <r_epik_Ionization_Penalty_Charging>  (1) 
0

>  <r_epik_Ionization_Penalty_Neutral>  (1) 
0

>  <r_epik_State_Penalty>  (1) 
-0

>  <r_glide_ring_energy>  (1) 
0

>  <r_i_docking_score>  (1) 
-0.10421045438950333

>  <r_i_glide_ecoul>  (1) 
0.77143875592808908

>  <r_i_glide_eff_state_penalty>  (1) 
-0

>  <r_i_glide_einternal>  (1) 
3.1203529178487068

>  <r_i_glide_emodel>  (1) 
-22.442744716338449

>  <r_i_glide_emodel_strain>  (1) 
0

>  <r_i_glide_energy>  (1) 
-23.83707856985848

>  <r_i_glide_erotb>  (1) 
5.690425690684874

>  <r_i_glide_esite>  (1) 
0

>  <r_i_glide_evdw>  (1) 
-24.608517325786568

>  <r_i_glide_gscore>  (1) 
-0.10421045438950333

>  <r_i_glide_gscore_strain>  (1) 
0

>  <r_i_glide_hbond>  (1) 
0

>  <r_i_glide_ligand_efficiency>  (1) 
-0.0069473636259668884

>  <r_i_glide_ligand_efficiency_ln>  (1) 
-0.02810384130142763

>  <r_i_glide_ligand_efficiency_sa>  (1) 
-0.017133672059123858

>  <r_i_glide_lipo>  (1) 
-2.4030078059098665

>  <r_i_glide_metal>  (1) 
-0

>  <r_i_glide_rewards>  (1) 
-2.276918286264396

>  <r_lp_Energy>  (1) 
6.1619519999999994

>  <r_lp_tautomer_probability>  (1) 
1

>  <s_epik_cmdline>  (1) 
J2VwaWtfcHl0aG9uJywgJy1waHQnLCAnMS4wJywgJy1waCcsICc3LjQnLCAnLXRuJywgJzgnLCAnLW1hJywgJzUwMCcsICctaW1hZScsICc8aW5maWxlLm1hZT4nLCAnLW9tYWUnLCAnPG91dGZpbGUubWFlPic=

>  <s_epik_input>  (1) 
W0NIM11bQ0hdKFtDSDNdKVtDSDJdW0NIMl1bQ0gyXVtDSDJdW0NIMl1bQ0gyXVtDSDJdW0NIMl1bQ0gyXVtDSDJdW0NIMl1DbA==

>  <s_glide_docking_method>  (1) 
confgen

>  <s_i_glide_gridfile>  (1) 
gpcr_5ht2c_6bqh_protein_autoprepared_prepared

>  <s_lp_Force_Field>  (1) 
S-OPLS

>  <s_lp_Variant>  (1) 
DiffSBDD_70-1

>  <s_m_source_file>  (1) 
generated_GPCR_5HT2C_ligand_DiffSBDD_2026-06-23_prepared.sdf

>  <GenAI_Model>  (1) 
DiffSBDD

>  <Protein>  (1) 
GPCR_5HT2C

$$$$
DiffSBDD_72
     RDKit          3D

  0  0  0  0  0  0  0  0  0  0999 V3000
M  V30 BEGIN CTAB
M  V30 COUNTS 31 30 0 0 1
M  V30 BEGIN ATOM
M  V30 1 C 38.133979 27.045275 53.770228 0
M  V30 2 C 39.265970 28.949623 52.383281 0 CFG=2
M  V30 3 C 40.224815 29.182824 51.191742 0
M  V30 4 C 40.230548 30.617954 50.647415 0
M  V30 5 C 38.822033 31.633498 55.284123 0
M  V30 6 C 38.678140 30.961412 53.904186 0
M  V30 7 C 38.528699 30.723134 56.491853 0
M  V30 8 O 36.845140 27.434283 53.367786 0
M  V30 9 C 39.644891 29.793373 53.634531 0
M  V30 10 C 39.156359 27.431187 52.686273 0
M  V30 11 O 37.245137 30.137750 56.408476 0
M  V30 12 H 38.137877 25.965361 53.919775 0
M  V30 13 H 38.357629 27.489241 54.739111 0
M  V30 14 H 38.276949 29.260182 52.045979 0
M  V30 15 H 41.242208 28.899804 51.462749 0
M  V30 16 H 39.943151 28.519260 50.372496 0
M  V30 17 H 40.928050 30.710057 49.814698 0
M  V30 18 H 39.245262 30.909309 50.283690 0
M  V30 19 H 40.537546 31.337599 51.405605 0
M  V30 20 H 38.145321 32.488529 55.322193 0
M  V30 21 H 39.826009 32.046653 55.382403 0
M  V30 22 H 37.647924 30.621692 53.790688 0
M  V30 23 H 38.845043 31.722225 53.140780 0
M  V30 24 H 38.587757 31.299474 57.415453 0
M  V30 25 H 39.274616 29.933509 56.574853 0
M  V30 26 H 36.613661 26.912089 52.609233 0
M  V30 27 H 40.652113 30.194274 53.543134 0
M  V30 28 H 39.684837 29.157824 54.514297 0
M  V30 29 H 38.885513 26.912180 51.766055 0
M  V30 30 H 40.124051 27.020437 52.967742 0
M  V30 31 H 36.575612 30.811988 56.567767 0
M  V30 END ATOM
M  V30 BEGIN BOND
M  V30 1 1 3 2
M  V30 2 1 4 3
M  V30 3 1 6 5
M  V30 4 1 7 5
M  V30 5 1 8 1
M  V30 6 1 9 2
M  V30 7 1 9 6
M  V30 8 1 10 1
M  V30 9 1 10 2
M  V30 10 1 11 7
M  V30 11 1 12 1
M  V30 12 1 13 1
M  V30 13 1 2 14 CFG=3
M  V30 14 1 15 3
M  V30 15 1 16 3
M  V30 16 1 17 4
M  V30 17 1 18 4
M  V30 18 1 19 4
M  V30 19 1 20 5
M  V30 20 1 21 5
M  V30 21 1 22 6
M  V30 22 1 23 6
M  V30 23 1 24 7
M  V30 24 1 25 7
M  V30 25 1 26 8
M  V30 26 1 27 9
M  V30 27 1 28 9
M  V30 28 1 29 10
M  V30 29 1 30 10
M  V30 30 1 31 11
M  V30 END BOND
M  V30 END CTAB
M  END
>  <i_epik_Tot_Q>  (1) 
0

>  <i_epik_Tot_abs_Q>  (1) 
0

>  <i_i_glide_confnum>  (1) 
84

>  <i_i_glide_lignum>  (1) 
157

>  <i_i_glide_posenum>  (1) 
328

>  <i_i_glide_rotatable_bonds>  (1) 
9

>  <i_lp_mmshare_version>  (1) 
72125

>  <i_m_source_file_index>  (1) 
73

>  <i_f3d_flags>  (1) 
0

>  <num_sample>  (1) 
100

>  <b_lp_Chiralities_Consistent>  (1) 
1

>  <r_epik_Charging_Adjusted_Penalty>  (1) 
0

>  <r_epik_Ionization_Penalty>  (1) 
6.8305747369592256e-07

>  <r_epik_Ionization_Penalty_Charging>  (1) 
0

>  <r_epik_Ionization_Penalty_Neutral>  (1) 
6.8305747369592256e-07

>  <r_epik_State_Penalty>  (1) 
-0

>  <r_glide_ring_energy>  (1) 
0

>  <r_i_docking_score>  (1) 
-0.089065010021435131

>  <r_i_glide_ecoul>  (1) 
-7.4524113511595731

>  <r_i_glide_eff_state_penalty>  (1) 
-0

>  <r_i_glide_einternal>  (1) 
6.4862499782131193

>  <r_i_glide_emodel>  (1) 
-21.09936363793415

>  <r_i_glide_emodel_strain>  (1) 
0.047100219049877268

>  <r_i_glide_energy>  (1) 
-24.258051116604285

>  <r_i_glide_erotb>  (1) 
7.048896204493313

>  <r_i_glide_esite>  (1) 
0

>  <r_i_glide_evdw>  (1) 
-16.805639765444713

>  <r_i_glide_gscore>  (1) 
-0.089065010021435131

>  <r_i_glide_gscore_strain>  (1) 
0

>  <r_i_glide_hbond>  (1) 
-0.45599999999999996

>  <r_i_glide_ligand_efficiency>  (1) 
-0.0080968190928577388

>  <r_i_glide_ligand_efficiency_ln>  (1) 
-0.026211817278313215

>  <r_i_glide_ligand_efficiency_sa>  (1) 
-0.018007164459457121

>  <r_i_glide_lipo>  (1) 
-2.0892582459438476

>  <r_i_glide_metal>  (1) 
-0

>  <r_i_glide_rewards>  (1) 
-2.6345592776247297

>  <r_lp_Energy>  (1) 
7.4990809999999994

>  <r_lp_tautomer_probability>  (1) 
1

>  <s_epik_cmdline>  (1) 
J2VwaWtfcHl0aG9uJywgJy1waHQnLCAnMS4wJywgJy1waCcsICc3LjQnLCAnLXRuJywgJzgnLCAnLW1hJywgJzUwMCcsICctaW1hZScsICc8aW5maWxlLm1hZT4nLCAnLW9tYWUnLCAnPG91dGZpbGUubWFlPic=

>  <s_epik_input>  (1) 
W09IXVtDSDJdW0NIMl1bQ0BIXShbQ0gyXVtDSDNdKVtDSDJdW0NIMl1bQ0gyXVtDSDJdW09IXQ==

>  <s_glide_docking_method>  (1) 
confgen

>  <s_i_glide_gridfile>  (1) 
gpcr_5ht2c_6bqh_protein_autoprepared_prepared

>  <s_lp_Force_Field>  (1) 
S-OPLS

>  <s_lp_Variant>  (1) 
DiffSBDD_72-1

>  <s_m_source_file>  (1) 
generated_GPCR_5HT2C_ligand_DiffSBDD_2026-06-23_prepared.sdf

>  <GenAI_Model>  (1) 
DiffSBDD

>  <Protein>  (1) 
GPCR_5HT2C

$$$$
DiffSBDD_70
     RDKit          3D

  0  0  0  0  0  0  0  0  0  0999 V3000
M  V30 BEGIN CTAB
M  V30 COUNTS 44 43 0 0 1
M  V30 BEGIN ATOM
M  V30 1 C 38.652376 33.059123 58.293142 0
M  V30 2 C 39.040413 34.439968 61.891797 0
M  V30 3 C 38.833799 36.941559 62.382730 0
M  V30 4 C 39.580358 30.168019 53.654900 0
M  V30 5 C 38.118080 30.262067 54.135329 0
M  V30 6 C 41.131725 35.865808 62.257332 0
M  V30 7 C 38.301996 31.670234 57.762708 0
M  V30 8 C 39.060874 34.464088 60.364665 0
M  V30 9 Cl 39.245129 27.337718 52.151789 0
M  V30 10 C 38.417168 31.630971 56.242623 0
M  V30 11 C 38.956800 28.937344 51.435039 0
M  V30 12 C 39.797171 30.021286 52.131998 0
M  V30 13 C 37.986435 30.283240 55.658786 0
M  V30 14 C 38.614987 33.108195 59.816122 0
M  V30 15 C 39.649541 35.664276 62.599035 0
M  V30 16 H 37.957630 33.794209 57.884031 0
M  V30 17 H 39.645195 33.337714 57.943115 0
M  V30 18 H 39.551371 33.545130 62.248875 0
M  V30 19 H 37.996186 34.326090 62.167744 0
M  V30 20 H 38.842548 37.259879 61.341526 0
M  V30 21 H 39.249803 37.745088 62.985873 0
M  V30 22 H 37.795218 36.805252 62.686794 0
M  V30 23 H 40.130787 31.049820 53.982404 0
M  V30 24 H 40.045119 29.333138 54.171162 0
M  V30 25 H 37.544261 29.415192 53.759149 0
M  V30 26 H 37.645216 31.168423 53.767760 0
M  V30 27 H 41.271642 36.215290 61.234166 0
M  V30 28 H 41.592116 36.597490 62.922502 0
M  V30 29 H 41.671245 34.927294 62.372631 0
M  V30 30 H 38.962508 30.919691 58.199024 0
M  V30 31 H 37.288685 31.406804 58.068744 0
M  V30 32 H 38.396590 35.248752 60.001889 0
M  V30 33 H 40.055971 34.694786 59.992188 0
M  V30 34 H 37.792233 32.419702 55.818095 0
M  V30 35 H 39.444828 31.858439 55.959870 0
M  V30 36 H 37.890066 29.127674 51.509715 0
M  V30 37 H 39.205369 28.873731 50.374590 0
M  V30 38 H 39.645120 30.984799 51.645101 0
M  V30 39 H 40.845075 29.787527 51.953023 0
M  V30 40 H 38.555088 29.465405 56.102457 0
M  V30 41 H 36.942023 30.111057 55.922797 0
M  V30 42 H 39.263448 32.327316 60.215462 0
M  V30 43 H 37.606174 32.880250 60.162896 0
M  V30 44 H 39.612867 35.451576 63.668184 0
M  V30 END ATOM
M  V30 BEGIN BOND
M  V30 1 1 5 4
M  V30 2 1 7 1
M  V30 3 1 8 2
M  V30 4 1 10 7
M  V30 5 1 11 9
M  V30 6 1 12 4
M  V30 7 1 12 11
M  V30 8 1 13 5
M  V30 9 1 13 10
M  V30 10 1 14 1
M  V30 11 1 14 8
M  V30 12 1 15 2
M  V30 13 1 15 3
M  V30 14 1 15 6
M  V30 15 1 16 1
M  V30 16 1 17 1
M  V30 17 1 18 2
M  V30 18 1 19 2
M  V30 19 1 20 3
M  V30 20 1 21 3
M  V30 21 1 22 3
M  V30 22 1 23 4
M  V30 23 1 24 4
M  V30 24 1 25 5
M  V30 25 1 26 5
M  V30 26 1 27 6
M  V30 27 1 28 6
M  V30 28 1 29 6
M  V30 29 1 30 7
M  V30 30 1 31 7
M  V30 31 1 32 8
M  V30 32 1 33 8
M  V30 33 1 34 10
M  V30 34 1 35 10
M  V30 35 1 36 11
M  V30 36 1 37 11
M  V30 37 1 38 12
M  V30 38 1 39 12
M  V30 39 1 40 13
M  V30 40 1 41 13
M  V30 41 1 42 14
M  V30 42 1 43 14
M  V30 43 1 44 15
M  V30 END BOND
M  V30 END CTAB
M  END
>  <i_epik_Tot_Q>  (1) 
0

>  <i_epik_Tot_abs_Q>  (1) 
0

>  <i_i_glide_confnum>  (1) 
58

>  <i_i_glide_lignum>  (1) 
155

>  <i_i_glide_posenum>  (1) 
216

>  <i_i_glide_rotatable_bonds>  (1) 
11

>  <i_lp_mmshare_version>  (1) 
72125

>  <i_m_source_file_index>  (1) 
71

>  <i_f3d_flags>  (1) 
0

>  <num_sample>  (1) 
100

>  <b_lp_Chiralities_Consistent>  (1) 
1

>  <r_epik_Charging_Adjusted_Penalty>  (1) 
0

>  <r_epik_Ionization_Penalty>  (1) 
0

>  <r_epik_Ionization_Penalty_Charging>  (1) 
0

>  <r_epik_Ionization_Penalty_Neutral>  (1) 
0

>  <r_epik_State_Penalty>  (1) 
-0

>  <r_glide_ring_energy>  (1) 
0

>  <r_i_docking_score>  (1) 
-0.045112817212767636

>  <r_i_glide_ecoul>  (1) 
0.083945709350598474

>  <r_i_glide_eff_state_penalty>  (1) 
-0

>  <r_i_glide_einternal>  (1) 
4.9792585240421907

>  <r_i_glide_emodel>  (1) 
-22.31662863644457

>  <r_i_glide_emodel_strain>  (1) 
0.081540261461363173

>  <r_i_glide_energy>  (1) 
-24.816004718592147

>  <r_i_glide_erotb>  (1) 
5.690425690684874

>  <r_i_glide_esite>  (1) 
0

>  <r_i_glide_evdw>  (1) 
-24.899950427942745

>  <r_i_glide_gscore>  (1) 
-0.045112817212767636

>  <r_i_glide_gscore_strain>  (1) 
0

>  <r_i_glide_hbond>  (1) 
0

>  <r_i_glide_ligand_efficiency>  (1) 
-0.0030075211475178425

>  <r_i_glide_ligand_efficiency_ln>  (1) 
-0.012166182971136138

>  <r_i_glide_ligand_efficiency_sa>  (1) 
-0.0074171849678127347

>  <r_i_glide_lipo>  (1) 
-2.4758652296750485

>  <r_i_glide_metal>  (1) 
-0

>  <r_i_glide_rewards>  (1) 
-2.0272676132280458

>  <r_lp_Energy>  (1) 
6.1619519999999994

>  <r_lp_tautomer_probability>  (1) 
1

>  <s_epik_cmdline>  (1) 
J2VwaWtfcHl0aG9uJywgJy1waHQnLCAnMS4wJywgJy1waCcsICc3LjQnLCAnLXRuJywgJzgnLCAnLW1hJywgJzUwMCcsICctaW1hZScsICc8aW5maWxlLm1hZT4nLCAnLW9tYWUnLCAnPG91dGZpbGUubWFlPic=

>  <s_epik_input>  (1) 
W0NIM11bQ0hdKFtDSDNdKVtDSDJdW0NIMl1bQ0gyXVtDSDJdW0NIMl1bQ0gyXVtDSDJdW0NIMl1bQ0gyXVtDSDJdW0NIMl1DbA==

>  <s_glide_docking_method>  (1) 
confgen

>  <s_i_glide_gridfile>  (1) 
gpcr_5ht2c_6bqh_protein_autoprepared_prepared

>  <s_lp_Force_Field>  (1) 
S-OPLS

>  <s_lp_Variant>  (1) 
DiffSBDD_70-1

>  <s_m_source_file>  (1) 
generated_GPCR_5HT2C_ligand_DiffSBDD_2026-06-23_prepared.sdf

>  <GenAI_Model>  (1) 
DiffSBDD

>  <Protein>  (1) 
GPCR_5HT2C

$$$$
DiffSBDD_70
     RDKit          3D

  0  0  0  0  0  0  0  0  0  0999 V3000
M  V30 BEGIN CTAB
M  V30 COUNTS 44 43 0 0 1
M  V30 BEGIN ATOM
M  V30 1 C 38.819423 30.094621 56.155013 0
M  V30 2 C 39.220246 29.222559 52.354044 0
M  V30 3 C 39.998987 31.024458 50.683923 0
M  V30 4 C 36.897605 35.300681 59.344756 0
M  V30 5 C 37.656640 33.969786 59.255337 0
M  V30 6 C 39.921279 28.608135 50.025043 0
M  V30 7 C 38.363799 31.557032 56.245910 0
M  V30 8 C 39.394144 30.059475 53.634214 0
M  V30 9 Cl 36.444414 38.137752 62.273703 0
M  V30 10 C 38.275690 32.036586 57.700668 0
M  V30 11 C 36.605538 37.446700 60.647246 0
M  V30 12 C 37.036632 35.978733 60.712053 0
M  V30 13 C 37.787766 33.482519 57.807785 0
M  V30 14 C 38.570359 29.456805 54.783794 0
M  V30 15 C 40.151762 29.582391 51.181433 0
M  V30 16 H 38.272506 29.509409 56.896882 0
M  V30 17 H 39.872873 30.015197 56.424788 0
M  V30 18 H 38.180933 29.279621 52.032413 0
M  V30 19 H 39.391019 28.173380 52.601002 0
M  V30 20 H 39.051970 31.179882 50.167598 0
M  V30 21 H 40.791592 31.275739 49.977505 0
M  V30 22 H 40.058549 31.737694 51.503641 0
M  V30 23 H 37.245996 35.979796 58.568018 0
M  V30 24 H 35.843422 35.138185 59.115296 0
M  V30 25 H 37.136700 33.224238 59.858278 0
M  V30 26 H 38.655780 34.076939 59.678222 0
M  V30 27 H 38.864024 28.530106 49.770647 0
M  V30 28 H 40.445257 28.937813 49.127932 0
M  V30 29 H 40.267412 27.605151 50.272838 0
M  V30 30 H 39.045097 32.197261 55.682863 0
M  V30 31 H 37.383951 31.661886 55.774636 0
M  V30 32 H 40.445592 30.116134 53.915066 0
M  V30 33 H 39.072990 31.087429 53.460616 0
M  V30 34 H 37.589718 31.388861 58.249551 0
M  V30 35 H 39.245055 31.941943 58.182362 0
M  V30 36 H 37.330877 38.047620 60.098750 0
M  V30 37 H 35.645149 37.558674 60.155859 0
M  V30 38 H 36.445183 35.430294 61.445276 0
M  V30 39 H 38.068534 35.934602 61.058231 0
M  V30 40 H 38.445106 34.137666 57.241306 0
M  V30 41 H 36.826439 33.568142 57.320208 0
M  V30 42 H 37.508734 29.518125 54.542341 0
M  V30 43 H 38.794977 28.393652 54.869758 0
M  V30 44 H 41.182244 29.456627 51.510295 0
M  V30 END ATOM
M  V30 BEGIN BOND
M  V30 1 1 5 4
M  V30 2 1 7 1
M  V30 3 1 8 2
M  V30 4 1 10 7
M  V30 5 1 11 9
M  V30 6 1 12 4
M  V30 7 1 12 11
M  V30 8 1 13 5
M  V30 9 1 13 10
M  V30 10 1 14 1
M  V30 11 1 14 8
M  V30 12 1 15 2
M  V30 13 1 15 3
M  V30 14 1 15 6
M  V30 15 1 16 1
M  V30 16 1 17 1
M  V30 17 1 18 2
M  V30 18 1 19 2
M  V30 19 1 20 3
M  V30 20 1 21 3
M  V30 21 1 22 3
M  V30 22 1 23 4
M  V30 23 1 24 4
M  V30 24 1 25 5
M  V30 25 1 26 5
M  V30 26 1 27 6
M  V30 27 1 28 6
M  V30 28 1 29 6
M  V30 29 1 30 7
M  V30 30 1 31 7
M  V30 31 1 32 8
M  V30 32 1 33 8
M  V30 33 1 34 10
M  V30 34 1 35 10
M  V30 35 1 36 11
M  V30 36 1 37 11
M  V30 37 1 38 12
M  V30 38 1 39 12
M  V30 39 1 40 13
M  V30 40 1 41 13
M  V30 41 1 42 14
M  V30 42 1 43 14
M  V30 43 1 44 15
M  V30 END BOND
M  V30 END CTAB
M  END
>  <i_epik_Tot_Q>  (1) 
0

>  <i_epik_Tot_abs_Q>  (1) 
0

>  <i_i_glide_confnum>  (1) 
43

>  <i_i_glide_lignum>  (1) 
155

>  <i_i_glide_posenum>  (1) 
251

>  <i_i_glide_rotatable_bonds>  (1) 
11

>  <i_lp_mmshare_version>  (1) 
72125

>  <i_m_source_file_index>  (1) 
71

>  <i_f3d_flags>  (1) 
0

>  <num_sample>  (1) 
100

>  <b_lp_Chiralities_Consistent>  (1) 
1

>  <r_epik_Charging_Adjusted_Penalty>  (1) 
0

>  <r_epik_Ionization_Penalty>  (1) 
0

>  <r_epik_Ionization_Penalty_Charging>  (1) 
0

>  <r_epik_Ionization_Penalty_Neutral>  (1) 
0

>  <r_epik_State_Penalty>  (1) 
-0

>  <r_glide_ring_energy>  (1) 
0

>  <r_i_docking_score>  (1) 
-0.04503182086576718

>  <r_i_glide_ecoul>  (1) 
-0.13296170257896128

>  <r_i_glide_eff_state_penalty>  (1) 
-0

>  <r_i_glide_einternal>  (1) 
2.724106145943872

>  <r_i_glide_emodel>  (1) 
-22.482657033388406

>  <r_i_glide_emodel_strain>  (1) 
0.037548266204876501

>  <r_i_glide_energy>  (1) 
-23.810593830440048

>  <r_i_glide_erotb>  (1) 
5.690425690684874

>  <r_i_glide_esite>  (1) 
0

>  <r_i_glide_evdw>  (1) 
-23.677632127861088

>  <r_i_glide_gscore>  (1) 
-0.04503182086576718

>  <r_i_glide_gscore_strain>  (1) 
0

>  <r_i_glide_hbond>  (1) 
0

>  <r_i_glide_ligand_efficiency>  (1) 
-0.0030021213910511454

>  <r_i_glide_ligand_efficiency_ln>  (1) 
-0.012144339591837664

>  <r_i_glide_ligand_efficiency_sa>  (1) 
-0.0074038680232161227

>  <r_i_glide_lipo>  (1) 
-2.1059214494258245

>  <r_i_glide_metal>  (1) 
-0

>  <r_i_glide_rewards>  (1) 
-2.425710200344918

>  <r_lp_Energy>  (1) 
6.1619519999999994

>  <r_lp_tautomer_probability>  (1) 
1

>  <s_epik_cmdline>  (1) 
J2VwaWtfcHl0aG9uJywgJy1waHQnLCAnMS4wJywgJy1waCcsICc3LjQnLCAnLXRuJywgJzgnLCAnLW1hJywgJzUwMCcsICctaW1hZScsICc8aW5maWxlLm1hZT4nLCAnLW9tYWUnLCAnPG91dGZpbGUubWFlPic=

>  <s_epik_input>  (1) 
W0NIM11bQ0hdKFtDSDNdKVtDSDJdW0NIMl1bQ0gyXVtDSDJdW0NIMl1bQ0gyXVtDSDJdW0NIMl1bQ0gyXVtDSDJdW0NIMl1DbA==

>  <s_glide_docking_method>  (1) 
confgen

>  <s_i_glide_gridfile>  (1) 
gpcr_5ht2c_6bqh_protein_autoprepared_prepared

>  <s_lp_Force_Field>  (1) 
S-OPLS

>  <s_lp_Variant>  (1) 
DiffSBDD_70-1

>  <s_m_source_file>  (1) 
generated_GPCR_5HT2C_ligand_DiffSBDD_2026-06-23_prepared.sdf

>  <GenAI_Model>  (1) 
DiffSBDD

>  <Protein>  (1) 
GPCR_5HT2C

$$$$
DiffSBDD_72
     RDKit          3D

  0  0  0  0  0  0  0  0  0  0999 V3000
M  V30 BEGIN CTAB
M  V30 COUNTS 31 30 0 0 1
M  V30 BEGIN ATOM
M  V30 1 C 38.291422 27.101515 53.704182 0
M  V30 2 C 39.213724 29.034670 52.150549 0 CFG=2
M  V30 3 C 40.243761 29.192252 51.001010 0
M  V30 4 C 40.246739 30.546305 50.275525 0
M  V30 5 C 37.987398 31.775921 54.604203 0
M  V30 6 C 38.236073 30.298672 54.240564 0
M  V30 7 C 38.651146 32.237919 55.909629 0
M  V30 8 O 36.948304 27.337755 53.367794 0
M  V30 9 C 39.457674 30.038584 53.322094 0
M  V30 10 C 39.200621 27.530981 52.547877 0
M  V30 11 O 38.044991 31.605425 57.019553 0
M  V30 12 H 38.412207 26.034567 53.888021 0
M  V30 13 H 38.550057 27.599869 54.635276 0
M  V30 14 H 38.237123 29.264924 51.723342 0
M  V30 15 H 41.247813 28.982022 51.368142 0
M  V30 16 H 40.041053 28.427485 50.249348 0
M  V30 17 H 40.867217 30.503989 49.377993 0
M  V30 18 H 39.245140 30.835298 49.961567 0
M  V30 19 H 40.648020 31.338491 50.905461 0
M  V30 20 H 36.912057 31.926280 54.693745 0
M  V30 21 H 38.291775 32.427888 53.786108 0
M  V30 22 H 38.316494 29.710285 55.153882 0
M  V30 23 H 37.326609 29.937971 53.766788 0
M  V30 24 H 38.527657 33.315353 56.024688 0
M  V30 25 H 39.722300 32.033510 55.900223 0
M  V30 26 H 36.740689 26.812613 52.604192 0
M  V30 27 H 39.759964 30.994258 52.900866 0
M  V30 28 H 40.306964 29.737894 53.930746 0
M  V30 29 H 38.915134 26.948856 51.670471 0
M  V30 30 H 40.206811 27.195232 52.778335 0
M  V30 31 H 37.093454 31.737798 56.968551 0
M  V30 END ATOM
M  V30 BEGIN BOND
M  V30 1 1 3 2
M  V30 2 1 4 3
M  V30 3 1 6 5
M  V30 4 1 7 5
M  V30 5 1 8 1
M  V30 6 1 9 2
M  V30 7 1 9 6
M  V30 8 1 10 1
M  V30 9 1 10 2
M  V30 10 1 11 7
M  V30 11 1 12 1
M  V30 12 1 13 1
M  V30 13 1 2 14 CFG=3
M  V30 14 1 15 3
M  V30 15 1 16 3
M  V30 16 1 17 4
M  V30 17 1 18 4
M  V30 18 1 19 4
M  V30 19 1 20 5
M  V30 20 1 21 5
M  V30 21 1 22 6
M  V30 22 1 23 6
M  V30 23 1 24 7
M  V30 24 1 25 7
M  V30 25 1 26 8
M  V30 26 1 27 9
M  V30 27 1 28 9
M  V30 28 1 29 10
M  V30 29 1 30 10
M  V30 30 1 31 11
M  V30 END BOND
M  V30 END CTAB
M  END
>  <i_epik_Tot_Q>  (1) 
0

>  <i_epik_Tot_abs_Q>  (1) 
0

>  <i_i_glide_confnum>  (1) 
84

>  <i_i_glide_lignum>  (1) 
157

>  <i_i_glide_posenum>  (1) 
328

>  <i_i_glide_rotatable_bonds>  (1) 
9

>  <i_lp_mmshare_version>  (1) 
72125

>  <i_m_source_file_index>  (1) 
73

>  <i_f3d_flags>  (1) 
0

>  <num_sample>  (1) 
100

>  <b_lp_Chiralities_Consistent>  (1) 
1

>  <r_epik_Charging_Adjusted_Penalty>  (1) 
0

>  <r_epik_Ionization_Penalty>  (1) 
6.8305747369592256e-07

>  <r_epik_Ionization_Penalty_Charging>  (1) 
0

>  <r_epik_Ionization_Penalty_Neutral>  (1) 
6.8305747369592256e-07

>  <r_epik_State_Penalty>  (1) 
-0

>  <r_glide_ring_energy>  (1) 
0

>  <r_i_docking_score>  (1) 
0.0088329193897118685

>  <r_i_glide_ecoul>  (1) 
-6.8861173416372825

>  <r_i_glide_eff_state_penalty>  (1) 
-0

>  <r_i_glide_einternal>  (1) 
8.9143230085673935

>  <r_i_glide_emodel>  (1) 
-19.479120926288807

>  <r_i_glide_emodel_strain>  (1) 
1.6170577490663529

>  <r_i_glide_energy>  (1) 
-25.566385281873487

>  <r_i_glide_erotb>  (1) 
7.048896204493313

>  <r_i_glide_esite>  (1) 
0

>  <r_i_glide_evdw>  (1) 
-18.680267940236206

>  <r_i_glide_gscore>  (1) 
0.0088329193897118685

>  <r_i_glide_gscore_strain>  (1) 
0

>  <r_i_glide_hbond>  (1) 
-0.45599999999999996

>  <r_i_glide_ligand_efficiency>  (1) 
0.00080299267179198802

>  <r_i_glide_ligand_efficiency_ln>  (1) 
0.0025995266718263008

>  <r_i_glide_ligand_efficiency_sa>  (1) 
0.0017858397149384424

>  <r_i_glide_lipo>  (1) 
-1.9778511220189845

>  <r_i_glide_metal>  (1) 
-0

>  <r_i_glide_rewards>  (1) 
-2.6392811648272136

>  <r_lp_Energy>  (1) 
7.4990809999999994

>  <r_lp_tautomer_probability>  (1) 
1

>  <s_epik_cmdline>  (1) 
J2VwaWtfcHl0aG9uJywgJy1waHQnLCAnMS4wJywgJy1waCcsICc3LjQnLCAnLXRuJywgJzgnLCAnLW1hJywgJzUwMCcsICctaW1hZScsICc8aW5maWxlLm1hZT4nLCAnLW9tYWUnLCAnPG91dGZpbGUubWFlPic=

>  <s_epik_input>  (1) 
W09IXVtDSDJdW0NIMl1bQ0BIXShbQ0gyXVtDSDNdKVtDSDJdW0NIMl1bQ0gyXVtDSDJdW09IXQ==

>  <s_glide_docking_method>  (1) 
confgen

>  <s_i_glide_gridfile>  (1) 
gpcr_5ht2c_6bqh_protein_autoprepared_prepared

>  <s_lp_Force_Field>  (1) 
S-OPLS

>  <s_lp_Variant>  (1) 
DiffSBDD_72-1

>  <s_m_source_file>  (1) 
generated_GPCR_5HT2C_ligand_DiffSBDD_2026-06-23_prepared.sdf

>  <GenAI_Model>  (1) 
DiffSBDD

>  <Protein>  (1) 
GPCR_5HT2C

$$$$
DiffSBDD_72
     RDKit          3D

  0  0  0  0  0  0  0  0  0  0999 V3000
M  V30 BEGIN CTAB
M  V30 COUNTS 31 30 0 0 1
M  V30 BEGIN ATOM
M  V30 1 C 38.116783 27.035265 53.725602 0
M  V30 2 C 39.265549 28.940538 52.352487 0 CFG=2
M  V30 3 C 40.229526 29.173313 51.166673 0
M  V30 4 C 40.226524 30.606452 50.617273 0
M  V30 5 C 38.821766 31.624617 55.230787 0
M  V30 6 C 38.687373 30.957919 53.856440 0
M  V30 7 C 38.393059 30.705239 56.383228 0
M  V30 8 O 36.845148 27.516088 53.367794 0
M  V30 9 C 39.644557 29.778789 53.606475 0
M  V30 10 C 39.146367 27.422083 52.648285 0
M  V30 11 O 38.045146 31.486005 57.500063 0
M  V30 12 H 38.062806 25.950037 53.816544 0
M  V30 13 H 38.379969 27.413614 54.711882 0
M  V30 14 H 38.280103 29.258385 52.011592 0
M  V30 15 H 41.244975 28.896764 51.449229 0
M  V30 16 H 39.959093 28.504160 50.348172 0
M  V30 17 H 40.942062 30.704914 49.800379 0
M  V30 18 H 39.245153 30.880848 50.227829 0
M  V30 19 H 40.506498 31.334263 51.378940 0
M  V30 20 H 38.180420 32.508267 55.225674 0
M  V30 21 H 39.837462 31.987139 55.394258 0
M  V30 22 H 37.654721 30.618683 53.767561 0
M  V30 23 H 38.845226 31.715012 53.088158 0
M  V30 24 H 39.191940 30.013260 56.649900 0
M  V30 25 H 37.521066 30.109687 56.108323 0
M  V30 26 H 36.615628 27.113960 52.537167 0
M  V30 27 H 40.659923 30.162180 53.531316 0
M  V30 28 H 39.654505 29.146870 54.490691 0
M  V30 29 H 38.877341 26.909221 51.723348 0
M  V30 30 H 40.111977 27.007674 52.932776 0
M  V30 31 H 37.128358 31.738922 57.371678 0
M  V30 END ATOM
M  V30 BEGIN BOND
M  V30 1 1 3 2
M  V30 2 1 4 3
M  V30 3 1 6 5
M  V30 4 1 7 5
M  V30 5 1 8 1
M  V30 6 1 9 2
M  V30 7 1 9 6
M  V30 8 1 10 1
M  V30 9 1 10 2
M  V30 10 1 11 7
M  V30 11 1 12 1
M  V30 12 1 13 1
M  V30 13 1 2 14 CFG=3
M  V30 14 1 15 3
M  V30 15 1 16 3
M  V30 16 1 17 4
M  V30 17 1 18 4
M  V30 18 1 19 4
M  V30 19 1 20 5
M  V30 20 1 21 5
M  V30 21 1 22 6
M  V30 22 1 23 6
M  V30 23 1 24 7
M  V30 24 1 25 7
M  V30 25 1 26 8
M  V30 26 1 27 9
M  V30 27 1 28 9
M  V30 28 1 29 10
M  V30 29 1 30 10
M  V30 30 1 31 11
M  V30 END BOND
M  V30 END CTAB
M  END
>  <i_epik_Tot_Q>  (1) 
0

>  <i_epik_Tot_abs_Q>  (1) 
0

>  <i_i_glide_confnum>  (1) 
84

>  <i_i_glide_lignum>  (1) 
157

>  <i_i_glide_posenum>  (1) 
204

>  <i_i_glide_rotatable_bonds>  (1) 
9

>  <i_lp_mmshare_version>  (1) 
72125

>  <i_m_source_file_index>  (1) 
73

>  <i_f3d_flags>  (1) 
0

>  <num_sample>  (1) 
100

>  <b_lp_Chiralities_Consistent>  (1) 
1

>  <r_epik_Charging_Adjusted_Penalty>  (1) 
0

>  <r_epik_Ionization_Penalty>  (1) 
6.8305747369592256e-07

>  <r_epik_Ionization_Penalty_Charging>  (1) 
0

>  <r_epik_Ionization_Penalty_Neutral>  (1) 
6.8305747369592256e-07

>  <r_epik_State_Penalty>  (1) 
-0

>  <r_glide_ring_energy>  (1) 
0

>  <r_i_docking_score>  (1) 
0.052380439888607133

>  <r_i_glide_ecoul>  (1) 
-5.7750826935871009

>  <r_i_glide_eff_state_penalty>  (1) 
-0

>  <r_i_glide_einternal>  (1) 
6.6136748800238143

>  <r_i_glide_emodel>  (1) 
-20.609433995701266

>  <r_i_glide_emodel_strain>  (1) 
0.26161624598704414

>  <r_i_glide_energy>  (1) 
-24.255246951415486

>  <r_i_glide_erotb>  (1) 
7.048896204493313

>  <r_i_glide_esite>  (1) 
0

>  <r_i_glide_evdw>  (1) 
-18.480164257828385

>  <r_i_glide_gscore>  (1) 
0.052380439888607133

>  <r_i_glide_gscore_strain>  (1) 
0

>  <r_i_glide_hbond>  (1) 
-0.45599999999999996

>  <r_i_glide_ligand_efficiency>  (1) 
0.0047618581716915576

>  <r_i_glide_ligand_efficiency_ln>  (1) 
0.015415554536932122

>  <r_i_glide_ligand_efficiency_sa>  (1) 
0.010590277767956827

>  <r_i_glide_lipo>  (1) 
-2.1090239270484785

>  <r_i_glide_metal>  (1) 
-0

>  <r_i_glide_rewards>  (1) 
-2.6412212206267429

>  <r_lp_Energy>  (1) 
7.4990809999999994

>  <r_lp_tautomer_probability>  (1) 
1

>  <s_epik_cmdline>  (1) 
J2VwaWtfcHl0aG9uJywgJy1waHQnLCAnMS4wJywgJy1waCcsICc3LjQnLCAnLXRuJywgJzgnLCAnLW1hJywgJzUwMCcsICctaW1hZScsICc8aW5maWxlLm1hZT4nLCAnLW9tYWUnLCAnPG91dGZpbGUubWFlPic=

>  <s_epik_input>  (1) 
W09IXVtDSDJdW0NIMl1bQ0BIXShbQ0gyXVtDSDNdKVtDSDJdW0NIMl1bQ0gyXVtDSDJdW09IXQ==

>  <s_glide_docking_method>  (1) 
confgen

>  <s_i_glide_gridfile>  (1) 
gpcr_5ht2c_6bqh_protein_autoprepared_prepared

>  <s_lp_Force_Field>  (1) 
S-OPLS

>  <s_lp_Variant>  (1) 
DiffSBDD_72-1

>  <s_m_source_file>  (1) 
generated_GPCR_5HT2C_ligand_DiffSBDD_2026-06-23_prepared.sdf

>  <GenAI_Model>  (1) 
DiffSBDD

>  <Protein>  (1) 
GPCR_5HT2C

$$$$
DiffSBDD_93
     RDKit          3D

  0  0  0  0  0  0  0  0  0  0999 V3000
M  V30 BEGIN CTAB
M  V30 COUNTS 84 85 0 0 1
M  V30 BEGIN ATOM
M  V30 1 C 37.004583 30.742074 59.027724 0
M  V30 2 O 36.579193 30.116511 60.167790 0
M  V30 3 C 40.510902 36.036261 64.509987 0
M  V30 4 C 37.625196 27.791161 54.037809 0
M  V30 5 O 37.645109 34.190212 58.380721 0
M  V30 6 C 38.642796 27.155072 56.896199 0
M  V30 7 N 37.646486 27.219583 57.767758 0
M  V30 8 O 38.913069 26.124715 56.280001 0
M  V30 9 O 39.599740 30.541162 60.235083 0
M  V30 10 C 36.829474 27.861365 52.794854 0
M  V30 11 C 39.572005 35.778935 63.358011 0
M  V30 12 C 37.937470 32.335727 56.910559 0
M  V30 13 C 37.082154 32.700447 60.656562 0
M  V30 14 C 38.855832 29.387595 55.579849 0 CFG=1
M  V30 15 C 39.464535 28.454201 56.674382 0 CFG=2
M  V30 16 C 40.496008 33.622665 63.918775 0 CFG=1
M  V30 17 C 39.163909 34.067081 61.604394 0 CFG=1
M  V30 18 C 40.045040 34.187157 60.385403 0
M  V30 19 C 39.333992 31.714906 56.761341 0
M  V30 20 S 39.380414 31.236290 61.749896 0 CHG=1
M  V30 21 O 37.633146 31.510173 54.167796 0
M  V30 22 N 37.289334 32.164135 59.274555 0
M  V30 23 O 38.445200 30.137782 62.567734 0
M  V30 24 O 42.301882 34.770896 65.331454 0
M  V30 25 F 42.442477 32.328157 64.589397 0
M  V30 26 C 37.679324 26.655012 53.054716 0
M  V30 27 C 39.024033 31.644419 54.288115 0
M  V30 28 C 39.497251 30.825928 55.496553 0 CFG=2
M  V30 29 C 37.615187 32.979126 58.260208 0
M  V30 30 C 40.947840 28.123850 56.397095 0
M  V30 31 C 42.304610 32.692359 62.281296 0
M  V30 32 C 38.326469 32.742888 61.630783 0 CFG=2
M  V30 33 O 42.450680 28.537605 58.167559 0
M  V30 34 C 38.834147 28.652265 54.214283 0
M  V30 35 C 41.566702 32.527356 63.607782 0 CFG=2
M  V30 36 C 41.635206 27.729038 57.685502 0
M  V30 37 C 40.924065 34.656134 65.025178 0 CFG=1
M  V30 38 O 41.321850 26.627877 58.167739 0 CHG=-1
M  V30 39 N 40.018297 34.489235 62.780682 0 CFG=1 CHG=1
M  V30 40 H 36.189727 30.549515 58.334669 0
M  V30 41 H 37.838758 30.196274 58.603390 0
M  V30 42 H 35.772249 29.659539 59.968655 0
M  V30 43 H 41.372953 36.537743 64.073754 0
M  V30 44 H 40.095034 36.689864 65.279155 0
M  V30 45 H 37.042365 27.595751 54.925582 0
M  V30 46 H 37.458507 28.078375 58.256315 0
M  V30 47 H 37.088657 26.397775 57.949695 0
M  V30 48 H 38.776209 30.111804 60.047329 0
M  V30 49 H 35.773587 27.737729 52.967618 0
M  V30 50 H 37.132410 28.536880 52.000381 0
M  V30 51 H 39.621499 36.583771 62.622819 0
M  V30 52 H 38.544285 35.737758 63.711086 0
M  V30 53 H 37.245831 31.543643 56.677104 0
M  V30 54 H 37.771100 33.115125 56.167550 0
M  V30 55 H 36.257570 32.203548 61.164866 0
M  V30 56 H 36.669083 33.708854 60.581982 0
M  V30 57 H 37.814912 29.545836 55.863850 0
M  V30 58 H 39.427053 28.985843 57.623889 0
M  V30 59 H 39.645442 33.041324 64.263746 0
M  V30 60 H 38.428168 34.863749 61.478030 0
M  V30 61 H 39.545344 34.537848 59.510860 0
M  V30 62 H 40.844980 34.913470 60.551412 0
M  V30 63 H 40.445085 33.215731 60.128535 0
M  V30 64 H 40.044832 32.539493 56.705709 0
M  V30 65 H 39.605837 31.140215 57.638836 0
M  V30 66 H 37.209933 31.912860 54.915585 0
M  V30 67 H 38.965647 29.753493 63.261332 0
M  V30 68 H 42.672720 35.517137 64.883654 0
M  V30 69 H 38.586292 26.540126 52.464407 0
M  V30 70 H 37.186674 25.736343 53.367541 0
M  V30 71 H 39.244455 32.691211 54.460270 0
M  V30 72 H 39.521231 31.355197 53.360038 0
M  V30 73 H 40.565250 30.712256 55.338554 0
M  V30 74 H 41.049958 27.280346 55.717926 0
M  V30 75 H 41.477647 28.937414 55.918355 0
M  V30 76 H 42.445157 33.735717 62.034489 0
M  V30 77 H 43.244909 32.173408 62.315878 0
M  V30 78 H 41.807617 32.241497 61.435238 0
M  V30 79 H 37.851558 32.783143 62.606485 0
M  V30 80 H 38.902450 29.306921 53.352003 0
M  V30 81 H 39.668953 27.979118 54.115888 0
M  V30 82 H 41.108443 31.543987 63.647030 0
M  V30 83 H 40.438876 34.422895 65.970301 0
M  V30 84 H 40.891478 34.753049 62.344515 0
M  V30 END ATOM
M  V30 BEGIN BOND
M  V30 1 1 2 1
M  V30 2 1 7 6
M  V30 3 2 8 6
M  V30 4 1 10 4
M  V30 5 1 11 3
M  V30 6 1 15 6
M  V30 7 1 15 14
M  V30 8 1 18 17
M  V30 9 1 19 12
M  V30 10 1 20 9
M  V30 11 1 22 1
M  V30 12 1 22 13
M  V30 13 1 23 20
M  V30 14 1 26 4
M  V30 15 1 26 10
M  V30 16 1 27 21
M  V30 17 1 28 14
M  V30 18 1 28 19
M  V30 19 1 28 27
M  V30 20 2 29 5
M  V30 21 1 29 12
M  V30 22 1 29 22
M  V30 23 1 30 15
M  V30 24 1 32 13
M  V30 25 1 32 17
M  V30 26 1 32 20
M  V30 27 1 34 4
M  V30 28 1 34 14
M  V30 29 1 35 16
M  V30 30 1 35 25
M  V30 31 1 35 31
M  V30 32 1 36 30
M  V30 33 2 36 33
M  V30 34 1 37 3
M  V30 35 1 37 16
M  V30 36 1 37 24
M  V30 37 1 38 36
M  V30 38 1 39 11
M  V30 39 1 39 16
M  V30 40 1 39 17
M  V30 41 1 40 1
M  V30 42 1 41 1
M  V30 43 1 42 2
M  V30 44 1 43 3
M  V30 45 1 44 3
M  V30 46 1 45 4
M  V30 47 1 46 7
M  V30 48 1 47 7
M  V30 49 1 48 9
M  V30 50 1 49 10
M  V30 51 1 50 10
M  V30 52 1 51 11
M  V30 53 1 52 11
M  V30 54 1 53 12
M  V30 55 1 54 12
M  V30 56 1 55 13
M  V30 57 1 56 13
M  V30 58 1 14 57 CFG=1
M  V30 59 1 15 58 CFG=1
M  V30 60 1 16 59 CFG=1
M  V30 61 1 17 60 CFG=3
M  V30 62 1 61 18
M  V30 63 1 62 18
M  V30 64 1 63 18
M  V30 65 1 64 19
M  V30 66 1 65 19
M  V30 67 1 66 21
M  V30 68 1 67 23
M  V30 69 1 68 24
M  V30 70 1 69 26
M  V30 71 1 70 26
M  V30 72 1 71 27
M  V30 73 1 72 27
M  V30 74 1 28 73 CFG=3
M  V30 75 1 74 30
M  V30 76 1 75 30
M  V30 77 1 76 31
M  V30 78 1 77 31
M  V30 79 1 78 31
M  V30 80 1 32 79 CFG=1
M  V30 81 1 80 34
M  V30 82 1 81 34
M  V30 83 1 35 82 CFG=3
M  V30 84 1 37 83 CFG=1
M  V30 85 1 39 84 CFG=3
M  V30 END BOND
M  V30 END CTAB
M  END
>  <i_epik_Tot_Q>  (1) 
1

>  <i_epik_Tot_abs_Q>  (1) 
3

>  <i_i_glide_confnum>  (1) 
6121

>  <i_i_glide_lignum>  (1) 
218

>  <i_i_glide_posenum>  (1) 
78

>  <i_i_glide_rotatable_bonds>  (1) 
24

>  <i_lp_mmshare_version>  (1) 
72125

>  <i_m_source_file_index>  (1) 
94

>  <i_f3d_flags>  (1) 
0

>  <num_sample>  (1) 
100

>  <b_lp_Chiralities_Consistent>  (1) 
1

>  <r_epik_Charging_Adjusted_Penalty>  (1) 
0.90916677635763199

>  <r_epik_Ionization_Penalty>  (1) 
0.45507897092921873

>  <r_epik_Ionization_Penalty_Charging>  (1) 
0.45507471778648678

>  <r_epik_Ionization_Penalty_Neutral>  (1) 
4.2531427319391784e-06

>  <r_epik_State_Penalty>  (1) 
0.45409205857114521

>  <r_glide_ring_energy>  (1) 
0

>  <r_i_docking_score>  (1) 
0.52477241242837613

>  <r_i_glide_ecoul>  (1) 
-6.4643666025265487

>  <r_i_glide_eff_state_penalty>  (1) 
0.45409205857114521

>  <r_i_glide_einternal>  (1) 
47.4855380070492

>  <r_i_glide_emodel>  (1) 
29.278257487721369

>  <r_i_glide_emodel_strain>  (1) 
24.146924513315881

>  <r_i_glide_energy>  (1) 
-18.886950548458344

>  <r_i_glide_erotb>  (1) 
0.82188833391367333

>  <r_i_glide_esite>  (1) 
-0.2689360066725896

>  <r_i_glide_evdw>  (1) 
-12.422583945931795

>  <r_i_glide_gscore>  (1) 
0.070680353857230926

>  <r_i_glide_gscore_strain>  (1) 
5.0367311283289702

>  <r_i_glide_hbond>  (1) 
-0.1237391711178354

>  <r_i_glide_ligand_efficiency>  (1) 
0.013455702882778876

>  <r_i_glide_ligand_efficiency_ln>  (1) 
0.11252610177542993

>  <r_i_glide_ligand_efficiency_sa>  (1) 
0.045631133589878435

>  <r_i_glide_lipo>  (1) 
-2.6034929931264243

>  <r_i_glide_metal>  (1) 
-0

>  <r_i_glide_rewards>  (1) 
-1.200986749792992

>  <r_lp_Energy>  (1) 
13.278706999999999

>  <s_epik_Chemistry_Notes>  (1) 
This compound contains an acetal/aminal-like group ( X-CH(R)-Y where X, Y are N, S, or O) that may be acid/base labile, releasing an aldehyde.

>  <s_epik_cmdline>  (1) 
J2VwaWtfcHl0aG9uJywgJy1waHQnLCAnMS4wJywgJy1waCcsICc3LjQnLCAnLXRuJywgJzgnLCAnLW1hJywgJzUwMCcsICctaW1hZScsICc8aW5maWxlLm1hZT4nLCAnLW9tYWUnLCAnPG91dGZpbGUubWFlPic=

>  <s_epik_input>  (1) 
W0NIMl0xW0NIMl1bQ0hdMVtDSDJdW0NAQEhdKFtDQEBIXShDKD1PKVtOSDJdKVtDSDJdQyg9TylbT0hdKVtDQEBIXShbQ0gyXVtPSF0pW0NIMl1bQ0gyXUMoPU8pTihbQ0gyXVtPSF0pW0NIMl1bQ0BASF0oW1MrXShbT0hdKVtPSF0pW0NASF0oW0NIM10pTjJbQ0gyXVtDSDJdW0NASF0oW09IXSlbQ0BASF0yW0NASF0oRilbQ0gzXQ==

>  <s_glide_docking_method>  (1) 
confgen

>  <s_i_glide_gridfile>  (1) 
gpcr_5ht2c_6bqh_protein_autoprepared_prepared

>  <s_lp_Force_Field>  (1) 
S-OPLS

>  <s_lp_Variant>  (1) 
DiffSBDD_93-6

>  <s_m_source_file>  (1) 
generated_GPCR_5HT2C_ligand_DiffSBDD_2026-06-23_prepared.sdf

>  <GenAI_Model>  (1) 
DiffSBDD

>  <Protein>  (1) 
GPCR_5HT2C

$$$$
DiffSBDD_72
     RDKit          3D

  0  0  0  0  0  0  0  0  0  0999 V3000
M  V30 BEGIN CTAB
M  V30 COUNTS 31 30 0 0 1
M  V30 BEGIN ATOM
M  V30 1 C 37.612069 27.142382 54.073777 0
M  V30 2 C 38.938649 29.080187 52.970873 0 CFG=2
M  V30 3 C 39.610882 28.611474 51.655142 0
M  V30 4 C 39.123113 27.266297 51.116787 0
M  V30 5 C 38.520095 30.936623 55.739330 0
M  V30 6 C 38.798429 31.354104 54.288819 0
M  V30 7 C 38.281456 32.148010 56.650856 0
M  V30 8 O 37.645287 26.228404 55.149680 0
M  V30 9 C 39.643347 30.374110 53.453807 0
M  V30 10 C 38.904865 27.977735 54.063680 0
M  V30 11 O 37.645141 31.730746 57.834688 0
M  V30 12 H 36.738954 27.786456 54.172522 0
M  V30 13 H 37.482476 26.578570 53.151925 0
M  V30 14 H 37.908341 29.337745 52.725947 0
M  V30 15 H 39.436386 29.365242 50.885608 0
M  V30 16 H 40.694008 28.561169 51.767771 0
M  V30 17 H 39.597578 27.038121 50.167746 0
M  V30 18 H 39.380387 26.452973 51.791858 0
M  V30 19 H 38.045129 27.264638 50.967927 0
M  V30 20 H 39.359830 30.372295 56.145731 0
M  V30 21 H 37.653061 30.274367 55.753738 0
M  V30 22 H 37.862090 31.584449 53.781060 0
M  V30 23 H 39.341559 32.294337 54.324112 0
M  V30 24 H 37.645088 32.887248 56.162912 0
M  V30 25 H 39.224079 32.640545 56.891823 0
M  V30 26 H 37.707915 26.714464 55.958102 0
M  V30 27 H 39.969923 30.935216 52.576532 0
M  V30 28 H 40.559597 30.137831 53.992624 0
M  V30 29 H 39.763137 27.314530 53.964340 0
M  V30 30 H 39.014443 28.424503 55.048233 0
M  V30 31 H 36.699962 31.737475 57.621514 0
M  V30 END ATOM
M  V30 BEGIN BOND
M  V30 1 1 3 2
M  V30 2 1 4 3
M  V30 3 1 6 5
M  V30 4 1 7 5
M  V30 5 1 8 1
M  V30 6 1 9 2
M  V30 7 1 9 6
M  V30 8 1 10 1
M  V30 9 1 10 2
M  V30 10 1 11 7
M  V30 11 1 12 1
M  V30 12 1 13 1
M  V30 13 1 2 14 CFG=3
M  V30 14 1 15 3
M  V30 15 1 16 3
M  V30 16 1 17 4
M  V30 17 1 18 4
M  V30 18 1 19 4
M  V30 19 1 20 5
M  V30 20 1 21 5
M  V30 21 1 22 6
M  V30 22 1 23 6
M  V30 23 1 24 7
M  V30 24 1 25 7
M  V30 25 1 26 8
M  V30 26 1 27 9
M  V30 27 1 28 9
M  V30 28 1 29 10
M  V30 29 1 30 10
M  V30 30 1 31 11
M  V30 END BOND
M  V30 END CTAB
M  END
>  <i_epik_Tot_Q>  (1) 
0

>  <i_epik_Tot_abs_Q>  (1) 
0

>  <i_i_glide_confnum>  (1) 
150

>  <i_i_glide_lignum>  (1) 
157

>  <i_i_glide_posenum>  (1) 
303

>  <i_i_glide_rotatable_bonds>  (1) 
9

>  <i_lp_mmshare_version>  (1) 
72125

>  <i_m_source_file_index>  (1) 
73

>  <i_f3d_flags>  (1) 
0

>  <num_sample>  (1) 
100

>  <b_lp_Chiralities_Consistent>  (1) 
1

>  <r_epik_Charging_Adjusted_Penalty>  (1) 
0

>  <r_epik_Ionization_Penalty>  (1) 
6.8305747369592256e-07

>  <r_epik_Ionization_Penalty_Charging>  (1) 
0

>  <r_epik_Ionization_Penalty_Neutral>  (1) 
6.8305747369592256e-07

>  <r_epik_State_Penalty>  (1) 
-0

>  <r_glide_ring_energy>  (1) 
0

>  <r_i_docking_score>  (1) 
0.68643682942136253

>  <r_i_glide_ecoul>  (1) 
-6.2478368667203146

>  <r_i_glide_eff_state_penalty>  (1) 
-0

>  <r_i_glide_einternal>  (1) 
5.272392960826175

>  <r_i_glide_emodel>  (1) 
-18.245084477680876

>  <r_i_glide_emodel_strain>  (1) 
0.86166223483689386

>  <r_i_glide_energy>  (1) 
-22.756723373903519

>  <r_i_glide_erotb>  (1) 
7.048896204493313

>  <r_i_glide_esite>  (1) 
0

>  <r_i_glide_evdw>  (1) 
-16.508886507183202

>  <r_i_glide_gscore>  (1) 
0.68643682942136253

>  <r_i_glide_gscore_strain>  (1) 
0

>  <r_i_glide_hbond>  (1) 
-0.16

>  <r_i_glide_ligand_efficiency>  (1) 
0.062403348129214775

>  <r_i_glide_ligand_efficiency_ln>  (1) 
0.20201824197366761

>  <r_i_glide_ligand_efficiency_sa>  (1) 
0.1387838038242396

>  <r_i_glide_lipo>  (1) 
-1.9938671594335811

>  <r_i_glide_metal>  (1) 
-0

>  <r_i_glide_rewards>  (1) 
-2.4459723602711625

>  <r_lp_Energy>  (1) 
7.4990809999999994

>  <r_lp_tautomer_probability>  (1) 
1

>  <s_epik_cmdline>  (1) 
J2VwaWtfcHl0aG9uJywgJy1waHQnLCAnMS4wJywgJy1waCcsICc3LjQnLCAnLXRuJywgJzgnLCAnLW1hJywgJzUwMCcsICctaW1hZScsICc8aW5maWxlLm1hZT4nLCAnLW9tYWUnLCAnPG91dGZpbGUubWFlPic=

>  <s_epik_input>  (1) 
W09IXVtDSDJdW0NIMl1bQ0BIXShbQ0gyXVtDSDNdKVtDSDJdW0NIMl1bQ0gyXVtDSDJdW09IXQ==

>  <s_glide_docking_method>  (1) 
confgen

>  <s_i_glide_gridfile>  (1) 
gpcr_5ht2c_6bqh_protein_autoprepared_prepared

>  <s_lp_Force_Field>  (1) 
S-OPLS

>  <s_lp_Variant>  (1) 
DiffSBDD_72-1

>  <s_m_source_file>  (1) 
generated_GPCR_5HT2C_ligand_DiffSBDD_2026-06-23_prepared.sdf

>  <GenAI_Model>  (1) 
DiffSBDD

>  <Protein>  (1) 
GPCR_5HT2C

$$$$
DiffSBDD_72
     RDKit          3D

  0  0  0  0  0  0  0  0  0  0999 V3000
M  V30 BEGIN CTAB
M  V30 COUNTS 31 30 0 0 1
M  V30 BEGIN ATOM
M  V30 1 C 37.725033 27.337744 53.919856 0
M  V30 2 C 39.133196 29.008215 52.552927 0 CFG=2
M  V30 3 C 40.161607 29.114676 51.403957 0
M  V30 4 C 40.202738 30.493717 50.727117 0
M  V30 5 C 38.574370 31.610208 55.492147 0
M  V30 6 C 38.422406 30.928153 54.126371 0
M  V30 7 C 38.316217 30.665758 56.674509 0
M  V30 8 O 37.645137 25.981363 54.293174 0
M  V30 9 C 39.509201 29.896766 53.773949 0
M  V30 10 C 38.912205 27.535690 52.962835 0
M  V30 11 O 38.045137 31.425830 57.828630 0
M  V30 12 H 37.836548 27.932020 54.826386 0
M  V30 13 H 36.790589 27.640724 53.446223 0
M  V30 14 H 38.179854 29.337755 52.141538 0
M  V30 15 H 41.155676 28.857915 51.767556 0
M  V30 16 H 39.926345 28.375692 50.636682 0
M  V30 17 H 40.958169 30.515015 49.941128 0
M  V30 18 H 39.245159 30.735286 50.265264 0
M  V30 19 H 40.445107 31.289230 51.431904 0
M  V30 20 H 37.847132 32.423956 55.529481 0
M  V30 21 H 39.556140 32.076311 55.584928 0
M  V30 22 H 37.436233 30.464473 54.084609 0
M  V30 23 H 38.435292 31.708836 53.367760 0
M  V30 24 H 39.175045 30.018614 56.852964 0
M  V30 25 H 37.453375 30.026106 56.483339 0
M  V30 26 H 37.424576 25.473293 53.526190 0
M  V30 27 H 40.445137 30.427076 53.598240 0
M  V30 28 H 39.712079 29.268175 54.640358 0
M  V30 29 H 38.733549 26.937755 52.067827 0
M  V30 30 H 39.817978 27.132123 53.415847 0
M  V30 31 H 37.146251 31.737756 57.737946 0
M  V30 END ATOM
M  V30 BEGIN BOND
M  V30 1 1 3 2
M  V30 2 1 4 3
M  V30 3 1 6 5
M  V30 4 1 7 5
M  V30 5 1 8 1
M  V30 6 1 9 2
M  V30 7 1 9 6
M  V30 8 1 10 1
M  V30 9 1 10 2
M  V30 10 1 11 7
M  V30 11 1 12 1
M  V30 12 1 13 1
M  V30 13 1 2 14 CFG=3
M  V30 14 1 15 3
M  V30 15 1 16 3
M  V30 16 1 17 4
M  V30 17 1 18 4
M  V30 18 1 19 4
M  V30 19 1 20 5
M  V30 20 1 21 5
M  V30 21 1 22 6
M  V30 22 1 23 6
M  V30 23 1 24 7
M  V30 24 1 25 7
M  V30 25 1 26 8
M  V30 26 1 27 9
M  V30 27 1 28 9
M  V30 28 1 29 10
M  V30 29 1 30 10
M  V30 30 1 31 11
M  V30 END BOND
M  V30 END CTAB
M  END
>  <i_epik_Tot_Q>  (1) 
0

>  <i_epik_Tot_abs_Q>  (1) 
0

>  <i_i_glide_confnum>  (1) 
84

>  <i_i_glide_lignum>  (1) 
157

>  <i_i_glide_posenum>  (1) 
204

>  <i_i_glide_rotatable_bonds>  (1) 
9

>  <i_lp_mmshare_version>  (1) 
72125

>  <i_m_source_file_index>  (1) 
73

>  <i_f3d_flags>  (1) 
0

>  <num_sample>  (1) 
100

>  <b_lp_Chiralities_Consistent>  (1) 
1

>  <r_epik_Charging_Adjusted_Penalty>  (1) 
0

>  <r_epik_Ionization_Penalty>  (1) 
6.8305747369592256e-07

>  <r_epik_Ionization_Penalty_Charging>  (1) 
0

>  <r_epik_Ionization_Penalty_Neutral>  (1) 
6.8305747369592256e-07

>  <r_epik_State_Penalty>  (1) 
-0

>  <r_glide_ring_energy>  (1) 
0

>  <r_i_docking_score>  (1) 
0.89405898916646587

>  <r_i_glide_ecoul>  (1) 
-3.4997274342324314

>  <r_i_glide_eff_state_penalty>  (1) 
-0

>  <r_i_glide_einternal>  (1) 
6.2937193318358444

>  <r_i_glide_emodel>  (1) 
-18.937709300239888

>  <r_i_glide_emodel_strain>  (1) 
0.23562258094697519

>  <r_i_glide_energy>  (1) 
-23.640603338822679

>  <r_i_glide_erotb>  (1) 
7.048896204493313

>  <r_i_glide_esite>  (1) 
0

>  <r_i_glide_evdw>  (1) 
-20.140875904590249

>  <r_i_glide_gscore>  (1) 
0.89405898916646587

>  <r_i_glide_gscore_strain>  (1) 
0

>  <r_i_glide_hbond>  (1) 
-0.16

>  <r_i_glide_ligand_efficiency>  (1) 
0.081278089924224167

>  <r_i_glide_ligand_efficiency_ln>  (1) 
0.26312140822108232

>  <r_i_glide_ligand_efficiency_sa>  (1) 
0.18076085379097706

>  <r_i_glide_lipo>  (1) 
-1.9669336944165843

>  <r_i_glide_metal>  (1) 
-0

>  <r_i_glide_rewards>  (1) 
-2.4959006105458852

>  <r_lp_Energy>  (1) 
7.4990809999999994

>  <r_lp_tautomer_probability>  (1) 
1

>  <s_epik_cmdline>  (1) 
J2VwaWtfcHl0aG9uJywgJy1waHQnLCAnMS4wJywgJy1waCcsICc3LjQnLCAnLXRuJywgJzgnLCAnLW1hJywgJzUwMCcsICctaW1hZScsICc8aW5maWxlLm1hZT4nLCAnLW9tYWUnLCAnPG91dGZpbGUubWFlPic=

>  <s_epik_input>  (1) 
W09IXVtDSDJdW0NIMl1bQ0BIXShbQ0gyXVtDSDNdKVtDSDJdW0NIMl1bQ0gyXVtDSDJdW09IXQ==

>  <s_glide_docking_method>  (1) 
confgen

>  <s_i_glide_gridfile>  (1) 
gpcr_5ht2c_6bqh_protein_autoprepared_prepared

>  <s_lp_Force_Field>  (1) 
S-OPLS

>  <s_lp_Variant>  (1) 
DiffSBDD_72-1

>  <s_m_source_file>  (1) 
generated_GPCR_5HT2C_ligand_DiffSBDD_2026-06-23_prepared.sdf

>  <GenAI_Model>  (1) 
DiffSBDD

>  <Protein>  (1) 
GPCR_5HT2C

$$$$
