Pocket2Mol_0
     RDKit          3D

 10 10  0  0  0  0  0  0  0  0999 V2000
   12.6960    8.1730   -1.9280 C   0  0  0  0  0  0  0  0  0  0  0  0
   12.5120    8.7560   -3.0760 C   0  0  0  0  0  0  0  0  0  0  0  0
   11.9600    8.1690   -4.0250 N   0  0  0  0  0  0  0  0  0  0  0  0
   11.7220    6.9030   -3.6370 C   0  0  0  0  0  0  0  0  0  0  0  0
   12.2600    6.6640   -2.3210 C   0  0  0  0  0  0  0  0  0  0  0  0
   13.0457    8.5849   -0.9698 H   0  0  0  0  0  0  0  0  0  0  0  0
   12.8525    9.7931   -3.2117 H   0  0  0  0  0  0  0  0  0  0  0  0
   11.1900    6.1532   -4.2409 H   0  0  0  0  0  0  0  0  0  0  0  0
   11.4994    6.2651   -1.6337 H   0  0  0  0  0  0  0  0  0  0  0  0
   13.0671    5.9180   -2.2751 H   0  0  0  0  0  0  0  0  0  0  0  0
  1  2  2  0
  2  3  1  0
  3  4  2  0
  4  5  1  0
  5  1  1  0
  1  6  1  0
  2  7  1  0
  4  8  1  0
  5  9  1  0
  5 10  1  0
M  END
>  <ID>  (1) 
Pocket2Mol_0_0

>  <docking_score>  (1) 
-3.704

$$$$
Pocket2Mol_10
     RDKit          3D

 13 12  0  0  0  0  0  0  0  0999 V2000
   12.4130    8.9790   -3.5030 C   0  0  0  0  0  0  0  0  0  0  0  0
   12.6970    8.0600   -2.7120 N   0  0  0  0  0  0  0  0  0  0  0  0
   12.6880    8.2980   -1.4120 C   0  0  0  0  0  0  0  0  0  0  0  0
   11.9070    6.8300   -3.0480 C   0  0  0  0  0  0  0  0  0  0  0  0
   12.1349    9.8789   -2.9349 H   0  0  0  0  0  0  0  0  0  0  0  0
   13.2847    9.2001   -4.1364 H   0  0  0  0  0  0  0  0  0  0  0  0
   11.5685    8.6697   -4.1364 H   0  0  0  0  0  0  0  0  0  0  0  0
   12.7241    7.3446   -0.8644 H   0  0  0  0  0  0  0  0  0  0  0  0
   13.5637    8.9077   -1.1448 H   0  0  0  0  0  0  0  0  0  0  0  0
   11.7687    8.8398   -1.1448 H   0  0  0  0  0  0  0  0  0  0  0  0
   11.5883    6.3339   -2.1194 H   0  0  0  0  0  0  0  0  0  0  0  0
   11.0210    7.1124   -3.6355 H   0  0  0  0  0  0  0  0  0  0  0  0
   12.5324    6.1417   -3.6355 H   0  0  0  0  0  0  0  0  0  0  0  0
  1  2  1  0
  2  3  1  0
  2  4  1  0
  1  5  1  0
  1  6  1  0
  1  7  1  0
  3  8  1  0
  3  9  1  0
  3 10  1  0
  4 11  1  0
  4 12  1  0
  4 13  1  0
M  END
>  <ID>  (2) 
Pocket2Mol_10_0

>  <docking_score>  (2) 
-2.466

$$$$
Pocket2Mol_11
     RDKit          3D

 14 14  0  0  0  0  0  0  0  0999 V2000
   11.3070    6.5460   -4.8370 C   0  0  0  0  0  0  0  0  0  0  0  0
   11.7960    7.3550   -3.8110 C   0  0  0  0  0  0  0  0  0  0  0  0
   12.0570    8.7840   -3.6990 C   0  0  0  0  0  0  0  0  0  0  0  0
   12.4370    9.0970   -2.6060 O   0  0  0  0  0  0  0  0  0  0  0  0
   12.5770    8.0690   -1.7320 C   0  0  0  0  0  0  0  0  0  0  0  0
   11.9920    6.7550   -2.4570 C   0  0  0  0  0  0  0  0  0  0  0  0
   10.7839    5.6806   -4.4039 H   0  0  0  0  0  0  0  0  0  0  0  0
   10.6071    7.1243   -5.4580 H   0  0  0  0  0  0  0  0  0  0  0  0
   12.1444    6.1951   -5.4580 H   0  0  0  0  0  0  0  0  0  0  0  0
   11.9205    9.4967   -4.5257 H   0  0  0  0  0  0  0  0  0  0  0  0
   13.6392    7.9239   -1.4858 H   0  0  0  0  0  0  0  0  0  0  0  0
   12.0393    8.2735   -0.7944 H   0  0  0  0  0  0  0  0  0  0  0  0
   12.7137    5.9249   -2.4666 H   0  0  0  0  0  0  0  0  0  0  0  0
   11.1072    6.2939   -1.9938 H   0  0  0  0  0  0  0  0  0  0  0  0
  1  2  1  0
  2  3  2  0
  3  4  1  0
  4  5  1  0
  5  6  1  0
  6  2  1  0
  1  7  1  0
  1  8  1  0
  1  9  1  0
  3 10  1  0
  5 11  1  0
  5 12  1  0
  6 13  1  0
  6 14  1  0
M  END
>  <ID>  (3) 
Pocket2Mol_11_0

>  <docking_score>  (3) 
-4.419

$$$$
Pocket2Mol_12
     RDKit          3D

 16 16  0  0  0  0  0  0  0  0999 V2000
   11.0450    6.6190   -5.3770 C   0  0  0  0  0  0  0  0  0  0  0  0
   11.7420    7.5590   -4.4940 C   0  0  0  0  0  0  0  0  0  0  0  0
   11.9490    8.8410   -4.4300 C   0  0  0  0  0  0  0  0  0  0  0  0
   12.4270    9.3750   -3.4120 N   0  0  0  0  0  0  0  0  0  0  0  0
   12.5650    8.4170   -2.4770 C   0  0  0  0  0  0  0  0  0  0  0  0
   12.9730    8.4690   -1.1290 N   0  0  0  0  0  0  0  0  0  0  0  0
   12.0240    7.0780   -3.0310 C   0  0  0  0  0  0  0  0  0  0  0  0
   10.4986    5.8821   -4.7700 H   0  0  0  0  0  0  0  0  0  0  0  0
   10.3352    7.1697   -6.0118 H   0  0  0  0  0  0  0  0  0  0  0  0
   11.7782    6.0998   -6.0118 H   0  0  0  0  0  0  0  0  0  0  0  0
   11.6956    9.4693   -5.2966 H   0  0  0  0  0  0  0  0  0  0  0  0
   12.6740   10.3690   -3.3040 H   0  0  0  0  0  0  0  0  0  0  0  0
   13.0120    7.6050   -0.5690 H   0  0  0  0  0  0  0  0  0  0  0  0
   13.2310    9.3700   -0.7050 H   0  0  0  0  0  0  0  0  0  0  0  0
   12.7749    6.2751   -2.9919 H   0  0  0  0  0  0  0  0  0  0  0  0
   11.1735    6.6359   -2.4914 H   0  0  0  0  0  0  0  0  0  0  0  0
  1  2  1  0
  2  3  2  0
  3  4  1  0
  4  5  2  0
  5  6  1  0
  5  7  1  0
  7  2  1  0
  1  8  1  0
  1  9  1  0
  1 10  1  0
  3 11  1  0
  4 12  1  0
  6 13  1  0
  6 14  1  0
  7 15  1  0
  7 16  1  0
M  CHG  1   4   1
M  END
>  <ID>  (4) 
Pocket2Mol_12_0

>  <docking_score>  (4) 
-4.987

$$$$
Pocket2Mol_13
     RDKit          3D

 17 17  0  0  0  0  0  0  0  0999 V2000
   10.7470   10.6140   -4.2900 O   0  0  0  0  0  0  0  0  0  0  0  0
   11.4960    9.8270   -5.0060 C   0  0  1  0  0  0  0  0  0  0  0  0
   10.6080    9.1320   -6.0740 C   0  0  0  0  0  0  0  0  0  0  0  0
   10.7980    8.5400   -7.4570 C   0  0  0  0  0  0  0  0  0  0  0  0
   12.1910    8.5110   -7.6180 C   0  0  0  0  0  0  0  0  0  0  0  0
   12.7510    9.4130   -6.8040 O   0  0  0  0  0  0  0  0  0  0  0  0
   12.0590   10.2210   -6.2540 C   0  0  0  0  0  0  0  0  0  0  0  0
   11.0360   10.5730   -3.3440 H   0  0  0  0  0  0  0  0  0  0  0  0
   12.1160    9.4693   -4.1707 H   0  0  0  0  0  0  0  0  0  0  0  0
   10.1889    8.2838   -5.5128 H   0  0  0  0  0  0  0  0  0  0  0  0
   10.1899   10.0766   -6.4521 H   0  0  0  0  0  0  0  0  0  0  0  0
   10.3758    7.5257   -7.5109 H   0  0  0  0  0  0  0  0  0  0  0  0
   10.2902    9.1195   -8.2421 H   0  0  0  0  0  0  0  0  0  0  0  0
   12.5684    7.5081   -7.3696 H   0  0  0  0  0  0  0  0  0  0  0  0
   12.4455    8.7494   -8.6613 H   0  0  0  0  0  0  0  0  0  0  0  0
   12.6687   11.1194   -6.0776 H   0  0  0  0  0  0  0  0  0  0  0  0
   11.2018   10.3775   -6.9253 H   0  0  0  0  0  0  0  0  0  0  0  0
  1  2  1  0
  2  3  1  0
  3  4  1  0
  4  5  1  0
  5  6  1  0
  6  7  1  0
  7  2  1  0
  1  8  1  0
  2  9  1  1
  3 10  1  0
  3 11  1  0
  4 12  1  0
  4 13  1  0
  5 14  1  0
  5 15  1  0
  7 16  1  0
  7 17  1  0
M  END
>  <ID>  (5) 
Pocket2Mol_13_0

>  <docking_score>  (5) 
-4.245

$$$$
Pocket2Mol_14
     RDKit          3D

 17 17  0  0  0  0  0  0  0  0999 V2000
   11.3800    6.7750   -4.8870 C   0  0  0  0  0  0  0  0  0  0  0  0
   11.5660    6.6120   -3.3090 C   0  0  0  0  0  0  0  0  0  0  0  0
   12.6650    7.3260   -2.9750 O   0  0  0  0  0  0  0  0  0  0  0  0
   12.6090    8.5410   -2.4190 C   0  0  0  0  0  0  0  0  0  0  0  0
   12.0160    9.4640   -3.2870 C   0  0  0  0  0  0  0  0  0  0  0  0
   12.4500    9.0220   -4.6380 O   0  0  0  0  0  0  0  0  0  0  0  0
   11.4480    8.3510   -5.3760 C   0  0  0  0  0  0  0  0  0  0  0  0
   12.1778    6.2138   -5.3955 H   0  0  0  0  0  0  0  0  0  0  0  0
   10.3832    6.3888   -5.1462 H   0  0  0  0  0  0  0  0  0  0  0  0
   10.6841    7.0027   -2.7803 H   0  0  0  0  0  0  0  0  0  0  0  0
   11.6794    5.5542   -3.0295 H   0  0  0  0  0  0  0  0  0  0  0  0
   12.0168    8.4859   -1.4936 H   0  0  0  0  0  0  0  0  0  0  0  0
   13.6346    8.8740   -2.2017 H   0  0  0  0  0  0  0  0  0  0  0  0
   10.9199    9.4337   -3.1997 H   0  0  0  0  0  0  0  0  0  0  0  0
   12.3113   10.5005   -3.0669 H   0  0  0  0  0  0  0  0  0  0  0  0
   10.4754    8.8336   -5.1997 H   0  0  0  0  0  0  0  0  0  0  0  0
   11.6857    8.3959   -6.4491 H   0  0  0  0  0  0  0  0  0  0  0  0
  1  2  1  0
  2  3  1  0
  3  4  1  0
  4  5  1  0
  5  6  1  0
  6  7  1  0
  7  1  1  0
  1  8  1  0
  1  9  1  0
  2 10  1  0
  2 11  1  0
  4 12  1  0
  4 13  1  0
  5 14  1  0
  5 15  1  0
  7 16  1  0
  7 17  1  0
M  END
>  <ID>  (6) 
Pocket2Mol_14_0

>  <docking_score>  (6) 
-3.982

$$$$
Pocket2Mol_15
     RDKit          3D

 19 19  0  0  0  0  0  0  0  0999 V2000
   11.5580    8.7270   -7.9290 C   0  0  0  0  0  0  0  0  0  0  0  0
   10.8510    8.1620   -6.9540 C   0  0  0  0  0  0  0  0  0  0  0  0
    9.4680    8.2080   -7.1570 C   0  0  0  0  0  0  0  0  0  0  0  0
   11.1820    6.6840   -6.6510 C   0  0  0  0  0  0  0  0  0  0  0  0
   11.1520    6.6180   -5.0840 C   0  0  0  0  0  0  0  0  0  0  0  0
   11.5660    7.8390   -4.9080 C   0  0  0  0  0  0  0  0  0  0  0  0
   11.0520    8.6180   -5.8650 O   0  0  0  0  0  0  0  0  0  0  0  0
   12.3467    9.3573   -7.4922 H   0  0  0  0  0  0  0  0  0  0  0  0
   12.0167    7.9438   -8.5505 H   0  0  0  0  0  0  0  0  0  0  0  0
   10.8953    9.3471   -8.5505 H   0  0  0  0  0  0  0  0  0  0  0  0
    8.9550    8.2251   -6.1841 H   0  0  0  0  0  0  0  0  0  0  0  0
    9.2105    9.1152   -7.7233 H   0  0  0  0  0  0  0  0  0  0  0  0
    9.1508    7.3199   -7.7233 H   0  0  0  0  0  0  0  0  0  0  0  0
   10.4266    6.0141   -7.0876 H   0  0  0  0  0  0  0  0  0  0  0  0
   12.1449    6.3640   -7.0757 H   0  0  0  0  0  0  0  0  0  0  0  0
   10.1429    6.4455   -4.6816 H   0  0  0  0  0  0  0  0  0  0  0  0
   11.7199    5.8118   -4.5966 H   0  0  0  0  0  0  0  0  0  0  0  0
   11.2373    8.2008   -3.9226 H   0  0  0  0  0  0  0  0  0  0  0  0
   12.6645    7.8682   -4.9570 H   0  0  0  0  0  0  0  0  0  0  0  0
  1  2  1  0
  2  3  1  0
  2  4  1  0
  4  5  1  0
  5  6  1  0
  6  7  1  0
  7  2  1  0
  1  8  1  0
  1  9  1  0
  1 10  1  0
  3 11  1  0
  3 12  1  0
  3 13  1  0
  4 14  1  0
  4 15  1  0
  5 16  1  0
  5 17  1  0
  6 18  1  0
  6 19  1  0
M  END
>  <ID>  (7) 
Pocket2Mol_15_0

>  <docking_score>  (7) 
-4.424

$$$$
Pocket2Mol_16
     RDKit          3D

 12 12  0  0  0  0  0  0  0  0999 V2000
   12.6560    8.8130   -1.1170 O   0  0  0  0  0  0  0  0  0  0  0  0
   12.3400    8.3160   -2.4440 C   0  0  0  0  0  0  0  0  0  0  0  0
   12.0100    7.0280   -2.6600 C   0  0  0  0  0  0  0  0  0  0  0  0
   11.5490    6.7310   -3.8390 C   0  0  0  0  0  0  0  0  0  0  0  0
   11.5430    7.5630   -4.7660 N   0  0  0  0  0  0  0  0  0  0  0  0
   11.9280    8.8310   -4.6010 C   0  0  0  0  0  0  0  0  0  0  0  0
   12.2960    9.2080   -3.3890 C   0  0  0  0  0  0  0  0  0  0  0  0
   12.5360    8.2270   -0.3280 H   0  0  0  0  0  0  0  0  0  0  0  0
   12.1250    6.2643   -1.8767 H   0  0  0  0  0  0  0  0  0  0  0  0
   11.1548    5.7205   -4.0222 H   0  0  0  0  0  0  0  0  0  0  0  0
   11.9385    9.5370   -5.4444 H   0  0  0  0  0  0  0  0  0  0  0  0
   12.5599   10.2559   -3.1837 H   0  0  0  0  0  0  0  0  0  0  0  0
  1  2  1  0
  2  3  2  0
  3  4  1  0
  4  5  2  0
  5  6  1  0
  6  7  2  0
  7  2  1  0
  1  8  1  0
  3  9  1  0
  4 10  1  0
  6 11  1  0
  7 12  1  0
M  END
>  <ID>  (8) 
Pocket2Mol_16_0

>  <docking_score>  (8) 
-4.567

$$$$
Pocket2Mol_17
     RDKit          3D

 15 15  0  0  0  0  0  0  0  0999 V2000
   12.3650    6.9380   -2.3680 C   0  0  0  0  0  0  0  0  0  0  0  0
   12.6360    8.2430   -2.2000 C   0  0  0  0  0  0  0  0  0  0  0  0
   12.2050    9.1970   -3.0330 O   0  0  0  0  0  0  0  0  0  0  0  0
   12.4200    9.0960   -4.2060 C   0  0  0  0  0  0  0  0  0  0  0  0
   11.4620    8.3630   -4.9640 C   0  0  0  0  0  0  0  0  0  0  0  0
   11.7110    6.8770   -4.5120 O   0  0  0  0  0  0  0  0  0  0  0  0
   11.5160    6.7000   -3.0990 C   0  0  0  0  0  0  0  0  0  0  0  0
   12.9214    6.1504   -1.8387 H   0  0  0  0  0  0  0  0  0  0  0  0
   13.2434    8.5425   -1.3332 H   0  0  0  0  0  0  0  0  0  0  0  0
   12.4727   10.1115   -4.6254 H   0  0  0  0  0  0  0  0  0  0  0  0
   13.3554    8.5224   -4.2837 H   0  0  0  0  0  0  0  0  0  0  0  0
   10.4379    8.6832   -4.7216 H   0  0  0  0  0  0  0  0  0  0  0  0
   11.5666    8.5082   -6.0493 H   0  0  0  0  0  0  0  0  0  0  0  0
   10.6647    7.3358   -2.8142 H   0  0  0  0  0  0  0  0  0  0  0  0
   11.3926    5.6118   -2.9961 H   0  0  0  0  0  0  0  0  0  0  0  0
  1  2  2  0
  2  3  1  0
  3  4  1  0
  4  5  1  0
  5  6  1  0
  6  7  1  0
  7  1  1  0
  1  8  1  0
  2  9  1  0
  4 10  1  0
  4 11  1  0
  5 12  1  0
  5 13  1  0
  7 14  1  0
  7 15  1  0
M  END
>  <ID>  (9) 
Pocket2Mol_17_0

>  <docking_score>  (9) 
-4.106

$$$$
Pocket2Mol_18
     RDKit          3D

 13 13  0  0  0  0  0  0  0  0999 V2000
   12.6890    8.7890   -1.1090 N   0  0  0  0  0  0  0  0  0  0  0  0
   12.3460    8.3140   -2.4370 C   0  0  0  0  0  0  0  0  0  0  0  0
   12.0030    7.0310   -2.6660 C   0  0  0  0  0  0  0  0  0  0  0  0
   11.5200    6.7540   -3.8410 C   0  0  0  0  0  0  0  0  0  0  0  0
   11.5030    7.6000   -4.7550 N   0  0  0  0  0  0  0  0  0  0  0  0
   11.9630    8.7610   -4.5950 C   0  0  0  0  0  0  0  0  0  0  0  0
   12.1980    9.1020   -3.5390 C   0  0  0  0  0  0  0  0  0  0  0  0
   12.0420    8.6320   -0.3230 H   0  0  0  0  0  0  0  0  0  0  0  0
   13.5790    9.2830   -0.9530 H   0  0  0  0  0  0  0  0  0  0  0  0
   12.1258    6.2553   -1.8958 H   0  0  0  0  0  0  0  0  0  0  0  0
   11.1168    5.7486   -4.0324 H   0  0  0  0  0  0  0  0  0  0  0  0
   12.1322    9.4258   -5.4549 H   0  0  0  0  0  0  0  0  0  0  0  0
   12.3195   10.1848   -3.3883 H   0  0  0  0  0  0  0  0  0  0  0  0
  1  2  1  0
  2  3  2  0
  3  4  1  0
  4  5  2  0
  5  6  1  0
  6  7  2  0
  7  2  1  0
  1  8  1  0
  1  9  1  0
  3 10  1  0
  4 11  1  0
  6 12  1  0
  7 13  1  0
M  END
>  <ID>  (10) 
Pocket2Mol_18_0

>  <docking_score>  (10) 
-4.542

$$$$
Pocket2Mol_19
     RDKit          3D

 12 12  0  0  0  0  0  0  0  0999 V2000
   13.1560    8.5400   -1.2280 O   0  0  0  0  0  0  0  0  0  0  0  0
   12.4550    8.2920   -2.5820 C   0  0  0  0  0  0  0  0  0  0  0  0
   12.0350    6.9830   -2.5920 C   0  0  0  0  0  0  0  0  0  0  0  0
   11.6030    6.6500   -3.8390 C   0  0  0  0  0  0  0  0  0  0  0  0
   11.4780    7.6490   -4.9210 C   0  0  0  0  0  0  0  0  0  0  0  0
   11.8980    8.8900   -4.6480 N   0  0  0  0  0  0  0  0  0  0  0  0
   12.4120    9.1610   -3.5470 C   0  0  0  0  0  0  0  0  0  0  0  0
   12.6860    8.3310   -0.3820 H   0  0  0  0  0  0  0  0  0  0  0  0
   12.0464    6.3074   -1.7240 H   0  0  0  0  0  0  0  0  0  0  0  0
   11.3382    5.6031   -4.0484 H   0  0  0  0  0  0  0  0  0  0  0  0
   11.0598    7.3851   -5.9036 H   0  0  0  0  0  0  0  0  0  0  0  0
   12.8406   10.1614   -3.3871 H   0  0  0  0  0  0  0  0  0  0  0  0
  1  2  1  0
  2  3  1  0
  3  4  2  0
  4  5  1  0
  5  6  2  0
  6  7  1  0
  7  2  2  0
  1  8  1  0
  3  9  1  0
  4 10  1  0
  5 11  1  0
  7 12  1  0
M  END
>  <ID>  (11) 
Pocket2Mol_19_0

>  <docking_score>  (11) 
-4.694

$$$$
Pocket2Mol_1
     RDKit          3D

 10 10  0  0  0  0  0  0  0  0999 V2000
   12.3340    7.1040   -2.2120 C   0  0  0  0  0  0  0  0  0  0  0  0
   12.1430    7.7620   -3.5220 C   0  0  0  0  0  0  0  0  0  0  0  0
   12.1140    9.1070   -3.1920 C   0  0  0  0  0  0  0  0  0  0  0  0
   12.4040    9.2880   -1.8070 N   0  0  0  0  0  0  0  0  0  0  0  0
   12.5830    8.1140   -1.4320 C   0  0  0  0  0  0  0  0  0  0  0  0
   12.2794    6.0343   -1.9614 H   0  0  0  0  0  0  0  0  0  0  0  0
   12.0474    7.2977   -4.5146 H   0  0  0  0  0  0  0  0  0  0  0  0
   11.8976    9.9215   -3.8989 H   0  0  0  0  0  0  0  0  0  0  0  0
   12.4510   10.1600   -1.2610 H   0  0  0  0  0  0  0  0  0  0  0  0
   12.9610    7.9270   -0.4161 H   0  0  0  0  0  0  0  0  0  0  0  0
  1  2  1  0
  2  3  2  0
  3  4  1  0
  4  5  1  0
  5  1  2  0
  1  6  1  0
  2  7  1  0
  3  8  1  0
  4  9  1  0
  5 10  1  0
M  END
>  <ID>  (12) 
Pocket2Mol_1_0

>  <docking_score>  (12) 
-3.826

$$$$
Pocket2Mol_20
     RDKit          3D

 12 12  0  0  0  0  0  0  0  0999 V2000
   12.4900    8.8660   -1.5180 N   0  0  0  0  0  0  0  0  0  0  0  0
   12.1690    8.3110   -2.8210 C   0  0  0  0  0  0  0  0  0  0  0  0
   11.9160    6.9990   -2.9900 C   0  0  0  0  0  0  0  0  0  0  0  0
   11.4420    6.6380   -4.1460 C   0  0  0  0  0  0  0  0  0  0  0  0
   11.3560    7.4390   -5.0950 N   0  0  0  0  0  0  0  0  0  0  0  0
   11.7950    8.7150   -4.9460 C   0  0  0  0  0  0  0  0  0  0  0  0
   12.1830    9.2670   -3.6860 N   0  0  0  0  0  0  0  0  0  0  0  0
   13.4540    9.1670   -1.3100 H   0  0  0  0  0  0  0  0  0  0  0  0
   11.7550    8.9600   -0.8040 H   0  0  0  0  0  0  0  0  0  0  0  0
   12.1013    6.2682   -2.1890 H   0  0  0  0  0  0  0  0  0  0  0  0
   11.1089    5.5994   -4.2887 H   0  0  0  0  0  0  0  0  0  0  0  0
   11.8550    9.3552   -5.8385 H   0  0  0  0  0  0  0  0  0  0  0  0
  1  2  1  0
  2  3  1  0
  3  4  2  0
  4  5  1  0
  5  6  2  0
  6  7  1  0
  7  2  2  0
  1  8  1  0
  1  9  1  0
  3 10  1  0
  4 11  1  0
  6 12  1  0
M  END
>  <ID>  (13) 
Pocket2Mol_20_0

>  <docking_score>  (13) 
-4.454

$$$$
Pocket2Mol_21
     RDKit          3D

  9  9  0  0  0  0  0  0  0  0999 V2000
   12.6510    8.1070   -1.9120 C   0  0  0  0  0  0  0  0  0  0  0  0
   11.9440    6.7430   -2.3270 C   0  0  0  0  0  0  0  0  0  0  0  0
   11.6400    6.8410   -3.7770 C   0  0  0  0  0  0  0  0  0  0  0  0
   11.9470    8.0890   -4.0740 O   0  0  0  0  0  0  0  0  0  0  0  0
   12.5850    8.7630   -3.1100 C   0  0  0  0  0  0  0  0  0  0  0  0
   13.0693    8.4275   -0.9464 H   0  0  0  0  0  0  0  0  0  0  0  0
   11.7231    5.8914   -1.6667 H   0  0  0  0  0  0  0  0  0  0  0  0
   11.2510    6.0585   -4.4451 H   0  0  0  0  0  0  0  0  0  0  0  0
   13.0199    9.7610   -3.2680 H   0  0  0  0  0  0  0  0  0  0  0  0
  1  2  1  0
  2  3  2  0
  3  4  1  0
  4  5  1  0
  5  1  2  0
  1  6  1  0
  2  7  1  0
  3  8  1  0
  5  9  1  0
M  END
>  <ID>  (14) 
Pocket2Mol_21_0

>  <docking_score>  (14) 
-3.7

$$$$
Pocket2Mol_22
     RDKit          3D

 11 11  0  0  0  0  0  0  0  0999 V2000
   13.1820    8.2710   -0.9090 F   0  0  0  0  0  0  0  0  0  0  0  0
   12.5480    8.1140   -2.2900 C   0  0  0  0  0  0  0  0  0  0  0  0
   12.2170    6.8300   -2.5340 C   0  0  0  0  0  0  0  0  0  0  0  0
   11.5840    6.6030   -3.7820 C   0  0  0  0  0  0  0  0  0  0  0  0
   11.5400    7.5920   -4.6450 C   0  0  0  0  0  0  0  0  0  0  0  0
   12.0280    8.7990   -4.3390 N   0  0  0  0  0  0  0  0  0  0  0  0
   12.5560    9.0110   -3.2310 C   0  0  0  0  0  0  0  0  0  0  0  0
   12.4226    6.0199   -1.8188 H   0  0  0  0  0  0  0  0  0  0  0  0
   11.1415    5.6247   -4.0211 H   0  0  0  0  0  0  0  0  0  0  0  0
   11.0941    7.4247   -5.6366 H   0  0  0  0  0  0  0  0  0  0  0  0
   13.0408    9.9806   -3.0442 H   0  0  0  0  0  0  0  0  0  0  0  0
  1  2  1  0
  2  3  1  0
  3  4  2  0
  4  5  1  0
  5  6  2  0
  6  7  1  0
  7  2  2  0
  3  8  1  0
  4  9  1  0
  5 10  1  0
  7 11  1  0
M  END
>  <ID>  (15) 
Pocket2Mol_22_0

>  <docking_score>  (15) 
-4.868

$$$$
Pocket2Mol_23
     RDKit          3D

 15 16  0  0  0  0  0  0  0  0999 V2000
   10.7470   10.6140   -4.2900 O   0  0  0  0  0  0  0  0  0  0  0  0
   11.4960    9.8270   -5.0060 C   0  0  1  0  0  0  0  0  0  0  0  0
   10.6080    9.1320   -6.0740 C   0  0  2  0  0  0  0  0  0  0  0  0
   10.7980    8.5400   -7.4570 C   0  0  0  0  0  0  0  0  0  0  0  0
   12.1910    8.5110   -7.6180 C   0  0  0  0  0  0  0  0  0  0  0  0
   12.7510    9.4130   -6.8040 O   0  0  0  0  0  0  0  0  0  0  0  0
   12.0590   10.2210   -6.2540 C   0  0  2  0  0  0  0  0  0  0  0  0
   11.0360   10.5730   -3.3440 H   0  0  0  0  0  0  0  0  0  0  0  0
   12.1160    9.4693   -4.1707 H   0  0  0  0  0  0  0  0  0  0  0  0
    9.6198    8.6988   -5.8601 H   0  0  0  0  0  0  0  0  0  0  0  0
   10.3758    7.5257   -7.5109 H   0  0  0  0  0  0  0  0  0  0  0  0
   10.2902    9.1195   -8.2421 H   0  0  0  0  0  0  0  0  0  0  0  0
   12.5684    7.5081   -7.3696 H   0  0  0  0  0  0  0  0  0  0  0  0
   12.4455    8.7494   -8.6613 H   0  0  0  0  0  0  0  0  0  0  0  0
   12.4459   11.1980   -6.5792 H   0  0  0  0  0  0  0  0  0  0  0  0
  1  2  1  0
  2  3  1  0
  3  4  1  0
  4  5  1  0
  5  6  1  0
  6  7  1  0
  7  2  1  0
  7  3  1  0
  1  8  1  0
  2  9  1  1
  3 10  1  6
  4 11  1  0
  4 12  1  0
  5 13  1  0
  5 14  1  0
  7 15  1  6
M  END
>  <ID>  (16) 
Pocket2Mol_23_0

>  <docking_score>  (16) 
-4.245

$$$$
Pocket2Mol_24
     RDKit          3D

 15 15  0  0  0  0  0  0  0  0999 V2000
   11.0330    6.7020   -5.3870 C   0  0  0  0  0  0  0  0  0  0  0  0
   11.7550    7.6210   -4.5010 C   0  0  0  0  0  0  0  0  0  0  0  0
   11.9970    8.8970   -4.4350 C   0  0  0  0  0  0  0  0  0  0  0  0
   12.4870    9.4160   -3.4150 N   0  0  0  0  0  0  0  0  0  0  0  0
   12.5960    8.4540   -2.4810 C   0  0  0  0  0  0  0  0  0  0  0  0
   13.0020    8.4930   -1.1330 N   0  0  0  0  0  0  0  0  0  0  0  0
   12.0760    7.2690   -3.0960 N   0  0  0  0  0  0  0  0  0  0  0  0
   10.4654    5.9796   -4.7821 H   0  0  0  0  0  0  0  0  0  0  0  0
   10.3398    7.2734   -6.0217 H   0  0  0  0  0  0  0  0  0  0  0  0
   11.7523    6.1637   -6.0217 H   0  0  0  0  0  0  0  0  0  0  0  0
   11.7631    9.5331   -5.3014 H   0  0  0  0  0  0  0  0  0  0  0  0
   12.7610   10.4030   -3.3050 H   0  0  0  0  0  0  0  0  0  0  0  0
   13.9930    8.3500   -0.8880 H   0  0  0  0  0  0  0  0  0  0  0  0
   12.3080    8.6640   -0.3910 H   0  0  0  0  0  0  0  0  0  0  0  0
   11.9500    6.3490   -2.6500 H   0  0  0  0  0  0  0  0  0  0  0  0
  1  2  1  0
  2  3  2  0
  3  4  1  0
  4  5  2  0
  5  6  1  0
  5  7  1  0
  7  2  1  0
  1  8  1  0
  1  9  1  0
  1 10  1  0
  3 11  1  0
  4 12  1  0
  6 13  1  0
  6 14  1  0
  7 15  1  0
M  CHG  1   4   1
M  END
>  <ID>  (17) 
Pocket2Mol_24_0

>  <docking_score>  (17) 
-4.246

$$$$
Pocket2Mol_25
     RDKit          3D

 15 15  0  0  0  0  0  0  0  0999 V2000
   12.7080    8.8230   -1.4930 O   0  0  0  0  0  0  0  0  0  0  0  0
   12.7490    8.4910   -2.7510 C   0  0  1  0  0  0  0  0  0  0  0  0
   12.0390    6.9970   -3.1050 C   0  0  0  0  0  0  0  0  0  0  0  0
   11.3180    6.6900   -4.4400 C   0  0  0  0  0  0  0  0  0  0  0  0
   11.3830    7.7970   -5.3360 C   0  0  0  0  0  0  0  0  0  0  0  0
   12.1530    8.7910   -4.8790 O   0  0  0  0  0  0  0  0  0  0  0  0
   12.0100    9.1790   -3.7560 C   0  0  0  0  0  0  0  0  0  0  0  0
   13.6180    9.0630   -1.1860 H   0  0  0  0  0  0  0  0  0  0  0  0
   13.8354    8.6536   -2.8089 H   0  0  0  0  0  0  0  0  0  0  0  0
   12.0924    6.2019   -2.3467 H   0  0  0  0  0  0  0  0  0  0  0  0
   10.8182    5.7372   -4.6686 H   0  0  0  0  0  0  0  0  0  0  0  0
   11.7923    7.4485   -6.2957 H   0  0  0  0  0  0  0  0  0  0  0  0
   10.3628    8.1932   -5.4464 H   0  0  0  0  0  0  0  0  0  0  0  0
   12.3091   10.2371   -3.7265 H   0  0  0  0  0  0  0  0  0  0  0  0
   10.9516    8.9990   -3.5163 H   0  0  0  0  0  0  0  0  0  0  0  0
  1  2  1  0
  2  3  1  0
  3  4  2  0
  4  5  1  0
  5  6  1  0
  6  7  1  0
  7  2  1  0
  1  8  1  0
  2  9  1  6
  3 10  1  0
  4 11  1  0
  5 12  1  0
  5 13  1  0
  7 14  1  0
  7 15  1  0
M  END
>  <ID>  (18) 
Pocket2Mol_25_0

>  <docking_score>  (18) 
-4.594

$$$$
Pocket2Mol_26
     RDKit          3D

 15 15  0  0  0  0  0  0  0  0999 V2000
   12.5220    8.3050   -1.5850 C   0  0  0  0  0  0  0  0  0  0  0  0
   12.5940    7.8760   -2.8420 C   0  0  0  0  0  0  0  0  0  0  0  0
   11.9090    6.7710   -3.1540 C   0  0  0  0  0  0  0  0  0  0  0  0
   11.4590    6.6120   -4.4950 C   0  0  0  0  0  0  0  0  0  0  0  0
   11.3770    7.9350   -5.2070 C   0  0  0  0  0  0  0  0  0  0  0  0
   11.9450    9.0150   -4.5980 C   0  0  0  0  0  0  0  0  0  0  0  0
   12.8390    8.7290   -3.6450 O   0  0  0  0  0  0  0  0  0  0  0  0
   12.6644    7.4567   -0.8993 H   0  0  0  0  0  0  0  0  0  0  0  0
   13.3068    9.0552   -1.4081 H   0  0  0  0  0  0  0  0  0  0  0  0
   11.5353    8.7579   -1.4081 H   0  0  0  0  0  0  0  0  0  0  0  0
   11.6986    6.0043   -2.3938 H   0  0  0  0  0  0  0  0  0  0  0  0
   11.2036    5.6449   -4.9526 H   0  0  0  0  0  0  0  0  0  0  0  0
   10.8774    8.0277   -6.1826 H   0  0  0  0  0  0  0  0  0  0  0  0
   12.4509    9.6135   -5.3700 H   0  0  0  0  0  0  0  0  0  0  0  0
   11.1242    9.5474   -4.0953 H   0  0  0  0  0  0  0  0  0  0  0  0
  1  2  1  0
  2  3  2  0
  3  4  1  0
  4  5  2  0
  5  6  1  0
  6  7  1  0
  7  2  1  0
  1  8  1  0
  1  9  1  0
  1 10  1  0
  3 11  1  0
  4 12  1  0
  5 13  1  0
  6 14  1  0
  6 15  1  0
M  END
>  <ID>  (19) 
Pocket2Mol_26_0

>  <docking_score>  (19) 
-4.943

$$$$
Pocket2Mol_27
     RDKit          3D

 13 13  0  0  0  0  0  0  0  0999 V2000
   11.9270    6.4280   -2.3560 O   0  0  0  0  0  0  0  0  0  0  0  0
   11.7390    7.1240   -3.6050 C   0  0  0  0  0  0  0  0  0  0  0  0
   11.2250    6.5490   -4.6710 C   0  0  0  0  0  0  0  0  0  0  0  0
   11.1040    7.2880   -5.8290 C   0  0  0  0  0  0  0  0  0  0  0  0
   11.5470    8.5500   -5.8630 N   0  0  0  0  0  0  0  0  0  0  0  0
   12.0530    9.0760   -4.8550 C   0  0  0  0  0  0  0  0  0  0  0  0
   12.0660    8.4710   -3.7040 C   0  0  0  0  0  0  0  0  0  0  0  0
   12.7550    9.0330   -2.4420 O   0  0  0  0  0  0  0  0  0  0  0  0
   12.4290    6.8580   -1.6200 H   0  0  0  0  0  0  0  0  0  0  0  0
   10.8981    5.4992   -4.6391 H   0  0  0  0  0  0  0  0  0  0  0  0
   10.6443    6.8409   -6.7227 H   0  0  0  0  0  0  0  0  0  0  0  0
   12.5003   10.0774   -4.9398 H   0  0  0  0  0  0  0  0  0  0  0  0
   12.2090    9.4020   -1.7030 H   0  0  0  0  0  0  0  0  0  0  0  0
  1  2  1  0
  2  3  2  0
  3  4  1  0
  4  5  2  0
  5  6  1  0
  6  7  2  0
  7  8  1  0
  7  2  1  0
  1  9  1  0
  3 10  1  0
  4 11  1  0
  6 12  1  0
  8 13  1  0
M  END
>  <ID>  (20) 
Pocket2Mol_27_0

>  <docking_score>  (20) 
-4.505

$$$$
Pocket2Mol_28
     RDKit          3D

 18 18  0  0  0  0  0  0  0  0999 V2000
    7.9140    5.5340   -9.1100 O   0  0  0  0  0  0  0  0  0  0  0  0
    9.1560    5.7170   -8.7650 C   0  0  0  0  0  0  0  0  0  0  0  0
    9.5370    6.2340   -7.4940 C   0  0  0  0  0  0  0  0  0  0  0  0
   10.7120    6.3320   -7.2910 O   0  0  0  0  0  0  0  0  0  0  0  0
   11.3550    7.4440   -7.6640 C   0  0  0  0  0  0  0  0  0  0  0  0
   10.5210    8.2100   -8.4900 C   0  0  0  0  0  0  0  0  0  0  0  0
   11.0010    7.3400   -9.6800 O   0  0  0  0  0  0  0  0  0  0  0  0
    9.7200    6.9020   -9.8400 C   0  0  0  0  0  0  0  0  0  0  0  0
    7.3400    5.5710   -8.3050 H   0  0  0  0  0  0  0  0  0  0  0  0
    9.5506    4.6902   -8.7582 H   0  0  0  0  0  0  0  0  0  0  0  0
    9.0952    7.2364   -7.3941 H   0  0  0  0  0  0  0  0  0  0  0  0
    9.1731    5.5011   -6.7589 H   0  0  0  0  0  0  0  0  0  0  0  0
   11.6249    8.0284   -6.7720 H   0  0  0  0  0  0  0  0  0  0  0  0
   12.2681    7.1730   -8.2143 H   0  0  0  0  0  0  0  0  0  0  0  0
    9.4481    8.1236   -8.2634 H   0  0  0  0  0  0  0  0  0  0  0  0
   10.5865    9.3077   -8.5156 H   0  0  0  0  0  0  0  0  0  0  0  0
    9.0588    7.7758   -9.7433 H   0  0  0  0  0  0  0  0  0  0  0  0
    9.7128    6.4123  -10.8250 H   0  0  0  0  0  0  0  0  0  0  0  0
  1  2  1  0
  2  3  1  0
  3  4  1  0
  4  5  1  0
  5  6  1  0
  6  7  1  0
  7  8  1  0
  8  2  1  0
  1  9  1  0
  2 10  1  0
  3 11  1  0
  3 12  1  0
  5 13  1  0
  5 14  1  0
  6 15  1  0
  6 16  1  0
  8 17  1  0
  8 18  1  0
M  END
>  <ID>  (21) 
Pocket2Mol_28_0

>  <docking_score>  (21) 
-3.991

$$$$
Pocket2Mol_29
     RDKit          3D

 14 14  0  0  0  0  0  0  0  0999 V2000
   10.9050    6.9860   -6.2660 C   0  0  0  0  0  0  0  0  0  0  0  0
   11.2620    6.3190   -5.0560 O   0  0  0  0  0  0  0  0  0  0  0  0
   11.6680    7.2100   -3.9840 C   0  0  0  0  0  0  0  0  0  0  0  0
   11.8320    6.7730   -2.7200 C   0  0  0  0  0  0  0  0  0  0  0  0
   12.3900    7.5960   -1.8830 C   0  0  0  0  0  0  0  0  0  0  0  0
   12.6340    8.7770   -2.1930 N   0  0  0  0  0  0  0  0  0  0  0  0
   12.2570    9.0870   -3.5400 C   0  0  0  0  0  0  0  0  0  0  0  0
   11.8500    8.3320   -4.3840 N   0  0  0  0  0  0  0  0  0  0  0  0
   10.3983    7.9327   -6.0271 H   0  0  0  0  0  0  0  0  0  0  0  0
   11.8126    7.1936   -6.8518 H   0  0  0  0  0  0  0  0  0  0  0  0
   10.2289    6.3459   -6.8518 H   0  0  0  0  0  0  0  0  0  0  0  0
   11.5091    5.7678   -2.4113 H   0  0  0  0  0  0  0  0  0  0  0  0
   12.6532    7.2404   -0.8759 H   0  0  0  0  0  0  0  0  0  0  0  0
   12.3508   10.1416   -3.8384 H   0  0  0  0  0  0  0  0  0  0  0  0
  1  2  1  0
  2  3  1  0
  3  4  1  0
  4  5  2  0
  5  6  1  0
  6  7  2  0
  7  8  1  0
  8  3  2  0
  1  9  1  0
  1 10  1  0
  1 11  1  0
  4 12  1  0
  5 13  1  0
  7 14  1  0
M  END
>  <ID>  (22) 
Pocket2Mol_29_0

>  <docking_score>  (22) 
-4.502

$$$$
Pocket2Mol_2
     RDKit          3D

 11 10  0  0  0  0  0  0  0  0999 V2000
    7.2210    3.4710    0.8090 C   0  0  0  0  0  0  0  0  0  0  0  0
    7.1240    4.7850    0.5800 O   0  0  0  0  0  0  0  0  0  0  0  0
    7.3010    5.2050   -0.5270 C   0  0  0  0  0  0  0  0  0  0  0  0
    6.3800    4.8330   -1.4130 C   0  0  0  0  0  0  0  0  0  0  0  0
    8.3340    5.8160   -0.9020 O   0  0  0  0  0  0  0  0  0  0  0  0
    7.2345    3.2878    1.8936 H   0  0  0  0  0  0  0  0  0  0  0  0
    6.3584    2.9561    0.3609 H   0  0  0  0  0  0  0  0  0  0  0  0
    8.1498    3.0883    0.3609 H   0  0  0  0  0  0  0  0  0  0  0  0
    5.4862    4.4720   -0.8831 H   0  0  0  0  0  0  0  0  0  0  0  0
    6.1100    5.6926   -2.0440 H   0  0  0  0  0  0  0  0  0  0  0  0
    6.7827    4.0270   -2.0440 H   0  0  0  0  0  0  0  0  0  0  0  0
  1  2  1  0
  2  3  1  0
  3  4  1  0
  3  5  2  0
  1  6  1  0
  1  7  1  0
  1  8  1  0
  4  9  1  0
  4 10  1  0
  4 11  1  0
M  END
>  <ID>  (23) 
Pocket2Mol_2_0

>  <docking_score>  (23) 
-3.307

$$$$
Pocket2Mol_30
     RDKit          3D

 20 21  0  0  0  0  0  0  0  0999 V2000
   12.6010    8.3040   -8.3840 C   0  0  0  0  0  0  0  0  0  0  0  0
   11.6250    7.8080   -7.6280 C   0  0  1  0  0  0  0  0  0  0  0  0
   10.4830    7.4420   -8.3470 C   0  0  0  0  0  0  0  0  0  0  0  0
    9.9870    6.0090   -7.9410 C   0  0  0  0  0  0  0  0  0  0  0  0
   11.3120    6.2540   -6.8310 C   0  0  2  0  0  0  0  0  0  0  0  0
   11.0930    6.7590   -5.3350 C   0  0  0  0  0  0  0  0  0  0  0  0
   11.4020    8.1550   -5.4770 C   0  0  0  0  0  0  0  0  0  0  0  0
   11.2580    8.5350   -6.7510 O   0  0  0  0  0  0  0  0  0  0  0  0
   13.3953    8.7077   -7.7390 H   0  0  0  0  0  0  0  0  0  0  0  0
   13.0142    7.5065   -9.0190 H   0  0  0  0  0  0  0  0  0  0  0  0
   12.2004    9.1079   -9.0190 H   0  0  0  0  0  0  0  0  0  0  0  0
    9.6831    8.1690   -8.1430 H   0  0  0  0  0  0  0  0  0  0  0  0
   10.7359    7.4310   -9.4175 H   0  0  0  0  0  0  0  0  0  0  0  0
    8.9813    5.9422   -7.5005 H   0  0  0  0  0  0  0  0  0  0  0  0
    9.8480    5.1501   -8.6140 H   0  0  0  0  0  0  0  0  0  0  0  0
   11.9291    5.3521   -6.7054 H   0  0  0  0  0  0  0  0  0  0  0  0
   10.0556    6.6052   -5.0031 H   0  0  0  0  0  0  0  0  0  0  0  0
   11.6975    6.2319   -4.5822 H   0  0  0  0  0  0  0  0  0  0  0  0
   10.7218    8.7435   -4.8437 H   0  0  0  0  0  0  0  0  0  0  0  0
   12.4444    8.3239   -5.1689 H   0  0  0  0  0  0  0  0  0  0  0  0
  2  1  1  6
  2  3  1  0
  3  4  1  0
  4  5  1  0
  5  6  1  0
  6  7  1  0
  7  8  1  0
  5  2  1  0
  8  2  1  0
  1  9  1  0
  1 10  1  0
  1 11  1  0
  3 12  1  0
  3 13  1  0
  4 14  1  0
  4 15  1  0
  5 16  1  1
  6 17  1  0
  6 18  1  0
  7 19  1  0
  7 20  1  0
M  END
>  <ID>  (24) 
Pocket2Mol_30_0

>  <docking_score>  (24) 
-5.174

$$$$
Pocket2Mol_31
     RDKit          3D

 17 18  0  0  0  0  0  0  0  0999 V2000
   11.0820    7.1270   -6.0370 C   0  0  0  0  0  0  0  0  0  0  0  0
   11.4950    8.5940   -6.1840 C   0  0  0  0  0  0  0  0  0  0  0  0
   11.9590    9.3030   -5.1170 C   0  0  0  0  0  0  0  0  0  0  0  0
   12.0590    8.6900   -3.8870 C   0  0  0  0  0  0  0  0  0  0  0  0
   11.7240    7.3490   -3.9320 C   0  0  0  0  0  0  0  0  0  0  0  0
   11.2390    6.4950   -4.9060 C   0  0  0  0  0  0  0  0  0  0  0  0
   12.0140    6.9310   -2.4410 C   0  0  0  0  0  0  0  0  0  0  0  0
   12.5860    8.1540   -1.7750 C   0  0  0  0  0  0  0  0  0  0  0  0
   12.4800    9.1060   -2.7080 O   0  0  0  0  0  0  0  0  0  0  0  0
   10.6465    6.5979   -6.8974 H   0  0  0  0  0  0  0  0  0  0  0  0
   11.4159    9.0831   -7.1661 H   0  0  0  0  0  0  0  0  0  0  0  0
   12.2515   10.3566   -5.2366 H   0  0  0  0  0  0  0  0  0  0  0  0
   11.0162    5.4293   -4.7489 H   0  0  0  0  0  0  0  0  0  0  0  0
   11.0834    6.6231   -1.9418 H   0  0  0  0  0  0  0  0  0  0  0  0
   12.7081    6.0793   -2.3874 H   0  0  0  0  0  0  0  0  0  0  0  0
   12.0068    8.4185   -0.8780 H   0  0  0  0  0  0  0  0  0  0  0  0
   13.6214    8.0069   -1.4339 H   0  0  0  0  0  0  0  0  0  0  0  0
  1  2  2  0
  2  3  1  0
  3  4  2  0
  4  5  1  0
  5  6  2  0
  5  7  1  0
  7  8  1  0
  8  9  1  0
  6  1  1  0
  9  4  1  0
  1 10  1  0
  2 11  1  0
  3 12  1  0
  6 13  1  0
  7 14  1  0
  7 15  1  0
  8 16  1  0
  8 17  1  0
M  END
>  <ID>  (25) 
Pocket2Mol_31_0

>  <docking_score>  (25) 
-6.325

$$$$
Pocket2Mol_32
     RDKit          3D

 12 12  0  0  0  0  0  0  0  0999 V2000
   12.3150    7.0660   -2.2390 C   0  0  0  0  0  0  0  0  0  0  0  0
   12.5780    8.0520   -1.4340 C   0  0  0  0  0  0  0  0  0  0  0  0
   12.4170    9.2380   -1.7800 N   0  0  0  0  0  0  0  0  0  0  0  0
   12.1190    9.1000   -3.1630 C   0  0  0  0  0  0  0  0  0  0  0  0
   12.1380    7.7590   -3.5330 C   0  0  0  0  0  0  0  0  0  0  0  0
   12.2427    5.9915   -2.0150 H   0  0  0  0  0  0  0  0  0  0  0  0
   12.9518    7.8340   -0.4227 H   0  0  0  0  0  0  0  0  0  0  0  0
   12.4820   10.0950   -1.2120 H   0  0  0  0  0  0  0  0  0  0  0  0
   11.1204    9.5164   -3.3617 H   0  0  0  0  0  0  0  0  0  0  0  0
   12.8780    9.6414   -3.7467 H   0  0  0  0  0  0  0  0  0  0  0  0
   11.1924    7.4668   -4.0131 H   0  0  0  0  0  0  0  0  0  0  0  0
   12.9223    7.5201   -4.2664 H   0  0  0  0  0  0  0  0  0  0  0  0
  1  2  2  0
  2  3  1  0
  3  4  1  0
  4  5  1  0
  5  1  1  0
  1  6  1  0
  2  7  1  0
  3  8  1  0
  4  9  1  0
  4 10  1  0
  5 11  1  0
  5 12  1  0
M  END
>  <ID>  (26) 
Pocket2Mol_32_0

>  <docking_score>  (26) 
-3.826

$$$$
Pocket2Mol_33
     RDKit          3D

 21 22  0  0  0  0  0  0  0  0999 V2000
   10.9650    6.6170   -6.1920 C   0  0  0  0  0  0  0  0  0  0  0  0
   10.9590    7.7730   -6.8510 C   0  0  1  0  0  0  0  0  0  0  0  0
   11.0420    8.8970   -6.0230 C   0  0  0  0  0  0  0  0  0  0  0  0
   12.2090    9.8330   -6.4960 C   0  0  0  0  0  0  0  0  0  0  0  0
   12.8560    9.1590   -7.4300 O   0  0  0  0  0  0  0  0  0  0  0  0
   12.1240    7.9880   -7.9030 C   0  0  2  0  0  0  0  0  0  0  0  0
   11.3210    8.6370   -9.1080 C   0  0  0  0  0  0  0  0  0  0  0  0
   10.1770    8.0610   -8.8770 C   0  0  0  0  0  0  0  0  0  0  0  0
   10.0060    7.9380   -7.5570 O   0  0  0  0  0  0  0  0  0  0  0  0
   10.9640    6.8121   -5.1094 H   0  0  0  0  0  0  0  0  0  0  0  0
   10.0699    6.0370   -6.4609 H   0  0  0  0  0  0  0  0  0  0  0  0
   11.8661    6.0463   -6.4609 H   0  0  0  0  0  0  0  0  0  0  0  0
   10.0923    9.4505   -6.0653 H   0  0  0  0  0  0  0  0  0  0  0  0
   11.2399    8.5695   -4.9917 H   0  0  0  0  0  0  0  0  0  0  0  0
   11.8054   10.7690   -6.9095 H   0  0  0  0  0  0  0  0  0  0  0  0
   12.8719   10.1061   -5.6618 H   0  0  0  0  0  0  0  0  0  0  0  0
   12.7381    7.0953   -8.0928 H   0  0  0  0  0  0  0  0  0  0  0  0
   11.2618    9.7327   -9.0304 H   0  0  0  0  0  0  0  0  0  0  0  0
   11.7464    8.4930  -10.1122 H   0  0  0  0  0  0  0  0  0  0  0  0
    9.3654    8.6727   -9.2978 H   0  0  0  0  0  0  0  0  0  0  0  0
   10.1625    7.0661   -9.3461 H   0  0  0  0  0  0  0  0  0  0  0  0
  2  1  1  1
  2  3  1  0
  3  4  1  0
  4  5  1  0
  5  6  1  0
  6  7  1  0
  7  8  1  0
  8  9  1  0
  6  2  1  0
  9  2  1  0
  1 10  1  0
  1 11  1  0
  1 12  1  0
  3 13  1  0
  3 14  1  0
  4 15  1  0
  4 16  1  0
  6 17  1  6
  7 18  1  0
  7 19  1  0
  8 20  1  0
  8 21  1  0
M  END
>  <ID>  (27) 
Pocket2Mol_33_0

>  <docking_score>  (27) 
-4.987

$$$$
Pocket2Mol_34
     RDKit          3D

 16 17  0  0  0  0  0  0  0  0999 V2000
   11.4930    8.5770   -6.0460 C   0  0  0  0  0  0  0  0  0  0  0  0
   11.9150    9.2890   -4.9540 C   0  0  0  0  0  0  0  0  0  0  0  0
   12.0220    8.7270   -3.7390 C   0  0  0  0  0  0  0  0  0  0  0  0
   11.7800    7.3700   -3.8580 C   0  0  0  0  0  0  0  0  0  0  0  0
   11.2750    6.5510   -4.8520 C   0  0  0  0  0  0  0  0  0  0  0  0
   11.2040    7.2540   -6.0920 N   0  0  0  0  0  0  0  0  0  0  0  0
   11.9990    6.7430   -2.4620 C   0  0  0  0  0  0  0  0  0  0  0  0
   12.7650    8.0870   -1.7220 C   0  0  0  0  0  0  0  0  0  0  0  0
   12.5120    9.0910   -2.5700 O   0  0  0  0  0  0  0  0  0  0  0  0
   11.3765    9.1388   -6.9845 H   0  0  0  0  0  0  0  0  0  0  0  0
   12.1735   10.3512   -5.0760 H   0  0  0  0  0  0  0  0  0  0  0  0
   10.9706    5.5040   -4.7069 H   0  0  0  0  0  0  0  0  0  0  0  0
   11.0515    6.4789   -1.9695 H   0  0  0  0  0  0  0  0  0  0  0  0
   12.5550    5.7942   -2.4383 H   0  0  0  0  0  0  0  0  0  0  0  0
   12.3333    8.2901   -0.7309 H   0  0  0  0  0  0  0  0  0  0  0  0
   13.8400    7.9290   -1.5504 H   0  0  0  0  0  0  0  0  0  0  0  0
  1  2  1  0
  2  3  2  0
  3  4  1  0
  4  5  2  0
  5  6  1  0
  4  7  1  0
  7  8  1  0
  8  9  1  0
  6  1  2  0
  9  3  1  0
  1 10  1  0
  2 11  1  0
  5 12  1  0
  7 13  1  0
  7 14  1  0
  8 15  1  0
  8 16  1  0
M  END
>  <ID>  (28) 
Pocket2Mol_34_0

>  <docking_score>  (28) 
-5.529

$$$$
Pocket2Mol_35
     RDKit          3D

 15 16  0  0  0  0  0  0  0  0999 V2000
   12.5010    7.9040   -2.4810 C   0  0  0  0  0  0  0  0  0  0  0  0
   11.9080    6.7610   -3.0890 C   0  0  0  0  0  0  0  0  0  0  0  0
   11.3740    6.6970   -4.4450 C   0  0  0  0  0  0  0  0  0  0  0  0
   11.4010    7.8370   -5.1580 C   0  0  0  0  0  0  0  0  0  0  0  0
   12.0640    8.8760   -4.5310 C   0  0  0  0  0  0  0  0  0  0  0  0
   12.5280    9.1070   -3.2480 C   0  0  0  0  0  0  0  0  0  0  0  0
   11.9110    9.9890   -5.7050 O   0  0  0  0  0  0  0  0  0  0  0  0
   11.6070    9.2020   -6.9250 C   0  0  0  0  0  0  0  0  0  0  0  0
   11.1320    8.0540   -6.4310 O   0  0  0  0  0  0  0  0  0  0  0  0
   12.9199    7.8615   -1.4648 H   0  0  0  0  0  0  0  0  0  0  0  0
   11.8472    5.8453   -2.4825 H   0  0  0  0  0  0  0  0  0  0  0  0
   10.9696    5.7634   -4.8632 H   0  0  0  0  0  0  0  0  0  0  0  0
   12.8701   10.0824   -2.8717 H   0  0  0  0  0  0  0  0  0  0  0  0
   10.8521    9.7084   -7.5444 H   0  0  0  0  0  0  0  0  0  0  0  0
   12.4793    9.0640   -7.5807 H   0  0  0  0  0  0  0  0  0  0  0  0
  1  2  2  0
  2  3  1  0
  3  4  2  0
  4  5  1  0
  5  6  2  0
  5  7  1  0
  7  8  1  0
  8  9  1  0
  6  1  1  0
  9  4  1  0
  1 10  1  0
  2 11  1  0
  3 12  1  0
  6 13  1  0
  8 14  1  0
  8 15  1  0
M  END
>  <ID>  (29) 
Pocket2Mol_35_0

>  <docking_score>  (29) 
-5.826

$$$$
Pocket2Mol_36
     RDKit          3D

 17 18  0  0  0  0  0  0  0  0999 V2000
   12.4750    7.0640   -2.2440 C   0  0  0  0  0  0  0  0  0  0  0  0
   12.6680    8.5740   -2.5290 C   0  0  0  0  0  0  0  0  0  0  0  0
   12.3740    9.3920   -3.6210 C   0  0  0  0  0  0  0  0  0  0  0  0
   11.9140    8.5320   -4.6550 C   0  0  0  0  0  0  0  0  0  0  0  0
   11.7450    8.7900   -5.9380 O   0  0  0  0  0  0  0  0  0  0  0  0
   11.2370    7.7840   -6.6580 C   0  0  0  0  0  0  0  0  0  0  0  0
   11.1330    6.6260   -5.7040 C   0  0  0  0  0  0  0  0  0  0  0  0
   11.6080    7.2330   -4.2900 C   0  0  0  0  0  0  0  0  0  0  0  0
   11.6400    6.5170   -3.1070 C   0  0  0  0  0  0  0  0  0  0  0  0
   12.9701    6.5179   -1.4275 H   0  0  0  0  0  0  0  0  0  0  0  0
   13.1357    9.1166   -1.6942 H   0  0  0  0  0  0  0  0  0  0  0  0
   11.5915   10.1172   -3.3532 H   0  0  0  0  0  0  0  0  0  0  0  0
   13.2583    9.9625   -3.9411 H   0  0  0  0  0  0  0  0  0  0  0  0
   10.9553    7.8001   -7.7212 H   0  0  0  0  0  0  0  0  0  0  0  0
   10.8068    5.5984   -5.9224 H   0  0  0  0  0  0  0  0  0  0  0  0
   10.6309    6.5003   -2.6696 H   0  0  0  0  0  0  0  0  0  0  0  0
   11.9830    5.4950   -3.3259 H   0  0  0  0  0  0  0  0  0  0  0  0
  1  2  2  0
  2  3  1  0
  3  4  1  0
  4  5  1  0
  5  6  1  0
  6  7  2  0
  7  8  1  0
  8  9  1  0
  9  1  1  0
  8  4  2  0
  1 10  1  0
  2 11  1  0
  3 12  1  0
  3 13  1  0
  6 14  1  0
  7 15  1  0
  9 16  1  0
  9 17  1  0
M  END
>  <ID>  (30) 
Pocket2Mol_36_0

>  <docking_score>  (30) 
-6.218

$$$$
Pocket2Mol_37
     RDKit          3D

 15 16  0  0  0  0  0  0  0  0999 V2000
   10.9510    7.2840   -5.8540 C   0  0  0  0  0  0  0  0  0  0  0  0
   11.2830    8.6120   -5.9010 C   0  0  0  0  0  0  0  0  0  0  0  0
   12.0350    9.4000   -5.0560 C   0  0  0  0  0  0  0  0  0  0  0  0
   12.1530    8.6820   -3.8350 C   0  0  0  0  0  0  0  0  0  0  0  0
   12.5670    9.1070   -2.6570 O   0  0  0  0  0  0  0  0  0  0  0  0
   12.6230    8.1730   -1.7020 C   0  0  0  0  0  0  0  0  0  0  0  0
   12.1220    6.8610   -2.4180 C   0  0  0  0  0  0  0  0  0  0  0  0
   11.7720    7.3520   -3.8580 C   0  0  0  0  0  0  0  0  0  0  0  0
   11.2750    6.4950   -4.8230 C   0  0  0  0  0  0  0  0  0  0  0  0
   10.3957    6.8486   -6.6978 H   0  0  0  0  0  0  0  0  0  0  0  0
   10.8754    9.1471   -6.7714 H   0  0  0  0  0  0  0  0  0  0  0  0
   12.4598   10.3891   -5.2821 H   0  0  0  0  0  0  0  0  0  0  0  0
   12.9447    8.2926   -0.6569 H   0  0  0  0  0  0  0  0  0  0  0  0
   12.0391    5.8455   -2.0034 H   0  0  0  0  0  0  0  0  0  0  0  0
   11.1691    5.4021   -4.7573 H   0  0  0  0  0  0  0  0  0  0  0  0
  1  2  2  0
  2  3  1  0
  3  4  2  0
  4  5  1  0
  5  6  1  0
  6  7  2  0
  7  8  1  0
  8  9  2  0
  9  1  1  0
  8  4  1  0
  1 10  1  0
  2 11  1  0
  3 12  1  0
  6 13  1  0
  7 14  1  0
  9 15  1  0
M  END
>  <ID>  (31) 
Pocket2Mol_37_0

>  <docking_score>  (31) 
-6.32

$$$$
Pocket2Mol_38
     RDKit          3D

 14 15  0  0  0  0  0  0  0  0999 V2000
   11.4560    8.6520   -6.0310 C   0  0  0  0  0  0  0  0  0  0  0  0
   11.9670    9.3690   -5.0490 C   0  0  0  0  0  0  0  0  0  0  0  0
   12.0170    8.7240   -3.8250 C   0  0  0  0  0  0  0  0  0  0  0  0
   12.4430    9.0930   -2.6320 O   0  0  0  0  0  0  0  0  0  0  0  0
   12.5820    8.1010   -1.7460 C   0  0  0  0  0  0  0  0  0  0  0  0
   12.0170    6.7110   -2.5370 C   0  0  0  0  0  0  0  0  0  0  0  0
   11.7120    7.3800   -3.9300 C   0  0  0  0  0  0  0  0  0  0  0  0
   11.2350    6.5620   -4.9390 C   0  0  0  0  0  0  0  0  0  0  0  0
   11.2180    7.3420   -6.1460 N   0  0  0  0  0  0  0  0  0  0  0  0
   11.1743    9.2396   -6.9172 H   0  0  0  0  0  0  0  0  0  0  0  0
   12.3255   10.3991   -5.1914 H   0  0  0  0  0  0  0  0  0  0  0  0
   12.9783    8.1715   -0.7223 H   0  0  0  0  0  0  0  0  0  0  0  0
   11.9008    5.6741   -2.1886 H   0  0  0  0  0  0  0  0  0  0  0  0
   10.9265    5.5111   -4.8365 H   0  0  0  0  0  0  0  0  0  0  0  0
  1  2  1  0
  2  3  2  0
  3  4  1  0
  4  5  1  0
  5  6  2  0
  6  7  1  0
  7  8  2  0
  8  9  1  0
  9  1  2  0
  7  3  1  0
  1 10  1  0
  2 11  1  0
  5 12  1  0
  6 13  1  0
  8 14  1  0
M  END
>  <ID>  (32) 
Pocket2Mol_38_0

>  <docking_score>  (32) 
-5.577

$$$$
Pocket2Mol_39
     RDKit          3D

 14 14  0  0  0  0  0  0  0  0999 V2000
   12.7950    9.5730   -6.3110 O   0  0  0  0  0  0  0  0  0  0  0  0
   11.9290    9.5630   -5.2320 C   0  0  0  0  0  0  0  0  0  0  0  0
   11.1000   10.3080   -5.3270 O   0  0  0  0  0  0  0  0  0  0  0  0
   12.0040    8.6280   -4.2320 C   0  0  0  0  0  0  0  0  0  0  0  0
   11.4790    7.2860   -4.3430 C   0  0  0  0  0  0  0  0  0  0  0  0
   11.9520    6.5820   -3.4980 O   0  0  0  0  0  0  0  0  0  0  0  0
   11.8800    6.9530   -2.2150 C   0  0  0  0  0  0  0  0  0  0  0  0
   12.5090    8.2170   -1.9880 C   0  0  0  0  0  0  0  0  0  0  0  0
   12.8560    8.7700   -3.3150 O   0  0  0  0  0  0  0  0  0  0  0  0
   10.7484    6.9579   -5.0970 H   0  0  0  0  0  0  0  0  0  0  0  0
   10.8214    7.0256   -1.9249 H   0  0  0  0  0  0  0  0  0  0  0  0
   12.4061    6.1980   -1.6124 H   0  0  0  0  0  0  0  0  0  0  0  0
   11.8181    8.8946   -1.4650 H   0  0  0  0  0  0  0  0  0  0  0  0
   13.4067    8.1028   -1.3626 H   0  0  0  0  0  0  0  0  0  0  0  0
  1  2  2  0
  2  3  1  0
  2  4  1  0
  4  5  2  0
  5  6  1  0
  6  7  1  0
  7  8  1  0
  8  9  1  0
  9  4  1  0
  5 10  1  0
  7 11  1  0
  7 12  1  0
  8 13  1  0
  8 14  1  0
M  CHG  1   3  -1
M  END
>  <ID>  (33) 
Pocket2Mol_39_0

>  <docking_score>  (33) 
-4.624

$$$$
Pocket2Mol_3
     RDKit          3D

  9  9  0  0  0  0  0  0  0  0999 V2000
    7.1980    4.8800    0.0240 C   0  0  0  0  0  0  0  0  0  0  0  0
    6.5490    4.7750   -1.0970 C   0  0  0  0  0  0  0  0  0  0  0  0
    6.1070    3.6810   -1.4950 N   0  0  0  0  0  0  0  0  0  0  0  0
    6.8880    2.7650   -0.4560 N   0  0  0  0  0  0  0  0  0  0  0  0
    7.4520    3.4660    0.3700 C   0  0  0  0  0  0  0  0  0  0  0  0
    7.4847    5.7884    0.5741 H   0  0  0  0  0  0  0  0  0  0  0  0
    6.3862    5.6743   -1.7091 H   0  0  0  0  0  0  0  0  0  0  0  0
    6.9150    1.7350   -0.4770 H   0  0  0  0  0  0  0  0  0  0  0  0
    8.0460    3.1070    1.2234 H   0  0  0  0  0  0  0  0  0  0  0  0
  1  2  1  0
  2  3  2  0
  3  4  1  0
  4  5  1  0
  5  1  2  0
  1  6  1  0
  2  7  1  0
  4  8  1  0
  5  9  1  0
M  END
>  <ID>  (34) 
Pocket2Mol_3_0

>  <docking_score>  (34) 
-3.856

$$$$
Pocket2Mol_40
     RDKit          3D

 15 16  0  0  0  0  0  0  0  0999 V2000
   12.4310    7.7480   -2.6220 C   0  0  0  0  0  0  0  0  0  0  0  0
   11.8150    6.6660   -3.0560 C   0  0  0  0  0  0  0  0  0  0  0  0
   11.3010    6.6260   -4.4350 C   0  0  0  0  0  0  0  0  0  0  0  0
   11.5850    7.8690   -4.9710 C   0  0  0  0  0  0  0  0  0  0  0  0
   12.2210    9.0080   -4.5130 C   0  0  0  0  0  0  0  0  0  0  0  0
   12.7260    8.9650   -3.1840 C   0  0  0  0  0  0  0  0  0  0  0  0
   12.2820    9.9880   -5.3940 O   0  0  0  0  0  0  0  0  0  0  0  0
   11.6580    9.7500   -6.5530 C   0  0  0  0  0  0  0  0  0  0  0  0
   11.0880    7.9700   -6.5520 S   0  0  0  0  0  0  0  0  0  0  0  0
   12.7853    7.6552   -1.5847 H   0  0  0  0  0  0  0  0  0  0  0  0
   11.6859    5.7987   -2.3919 H   0  0  0  0  0  0  0  0  0  0  0  0
   10.7973    5.7849   -4.9339 H   0  0  0  0  0  0  0  0  0  0  0  0
   13.2689    9.7807   -2.6841 H   0  0  0  0  0  0  0  0  0  0  0  0
   10.7906   10.4190   -6.6535 H   0  0  0  0  0  0  0  0  0  0  0  0
   12.3401    9.9309   -7.3968 H   0  0  0  0  0  0  0  0  0  0  0  0
  1  2  2  0
  2  3  1  0
  3  4  2  0
  4  5  1  0
  5  6  2  0
  5  7  1  0
  7  8  1  0
  8  9  1  0
  6  1  1  0
  9  4  1  0
  1 10  1  0
  2 11  1  0
  3 12  1  0
  6 13  1  0
  8 14  1  0
  8 15  1  0
M  END
>  <ID>  (35) 
Pocket2Mol_40_0

>  <docking_score>  (35) 
-5.778

$$$$
Pocket2Mol_41
     RDKit          3D

 23 24  0  0  0  0  0  0  0  0999 V2000
   11.2990    8.9160   -6.5790 C   0  0  0  0  0  0  0  0  0  0  0  0
   11.3800    7.9740   -7.5150 C   0  0  1  0  0  0  0  0  0  0  0  0
   11.2250    6.6740   -7.0250 C   0  0  0  0  0  0  0  0  0  0  0  0
   10.1180    5.9170   -7.8390 C   0  0  0  0  0  0  0  0  0  0  0  0
    9.4070    6.9210   -8.5540 C   0  0  0  0  0  0  0  0  0  0  0  0
   10.3270    8.0650   -8.6950 C   0  0  2  0  0  0  0  0  0  0  0  0
   11.2500    7.7420   -9.9440 C   0  0  0  0  0  0  0  0  0  0  0  0
   12.3610    8.2160   -9.4590 C   0  0  0  0  0  0  0  0  0  0  0  0
   12.3990    7.9840   -8.1430 O   0  0  0  0  0  0  0  0  0  0  0  0
   11.3392    8.4487   -5.5840 H   0  0  0  0  0  0  0  0  0  0  0  0
   12.1403    9.6160   -6.6895 H   0  0  0  0  0  0  0  0  0  0  0  0
   10.3506    9.4621   -6.6895 H   0  0  0  0  0  0  0  0  0  0  0  0
   12.1787    6.1340   -7.1193 H   0  0  0  0  0  0  0  0  0  0  0  0
   10.9238    6.7221   -5.9681 H   0  0  0  0  0  0  0  0  0  0  0  0
   10.5777    5.2023   -8.5375 H   0  0  0  0  0  0  0  0  0  0  0  0
    9.4520    5.3422   -7.1786 H   0  0  0  0  0  0  0  0  0  0  0  0
    9.1128    6.5455   -9.5452 H   0  0  0  0  0  0  0  0  0  0  0  0
    8.4883    7.2121   -8.0236 H   0  0  0  0  0  0  0  0  0  0  0  0
    9.7611    9.0071   -8.7433 H   0  0  0  0  0  0  0  0  0  0  0  0
   11.3102    6.6637  -10.1529 H   0  0  0  0  0  0  0  0  0  0  0  0
   10.9246    8.1532  -10.9110 H   0  0  0  0  0  0  0  0  0  0  0  0
   13.2153    7.7218   -9.9448 H   0  0  0  0  0  0  0  0  0  0  0  0
   12.4142    9.2987   -9.6457 H   0  0  0  0  0  0  0  0  0  0  0  0
  2  1  1  1
  2  3  1  0
  3  4  1  0
  4  5  1  0
  5  6  1  0
  6  7  1  0
  7  8  1  0
  8  9  1  0
  6  2  1  0
  9  2  1  0
  1 10  1  0
  1 11  1  0
  1 12  1  0
  3 13  1  0
  3 14  1  0
  4 15  1  0
  4 16  1  0
  5 17  1  0
  5 18  1  0
  6 19  1  6
  7 20  1  0
  7 21  1  0
  8 22  1  0
  8 23  1  0
M  END
>  <ID>  (36) 
Pocket2Mol_41_0

>  <docking_score>  (36) 
-5.396

$$$$
Pocket2Mol_42
     RDKit          3D

 16 17  0  0  0  0  0  0  0  0999 V2000
   12.7390    8.5010   -2.5220 C   0  0  0  0  0  0  0  0  0  0  0  0
   12.4440    7.1900   -2.4140 C   0  0  0  0  0  0  0  0  0  0  0  0
   11.7580    6.4920   -3.2320 C   0  0  0  0  0  0  0  0  0  0  0  0
   11.3700    7.0410   -4.4570 C   0  0  0  0  0  0  0  0  0  0  0  0
   11.8960    8.3110   -4.6130 C   0  0  0  0  0  0  0  0  0  0  0  0
   12.4110    9.2670   -3.7560 C   0  0  0  0  0  0  0  0  0  0  0  0
   11.4010    8.9250   -6.0570 N   0  0  0  0  0  0  0  0  0  0  0  0
   11.2100    7.1860   -6.6890 C   0  0  0  0  0  0  0  0  0  0  0  0
   10.9730    6.4760   -5.5810 O   0  0  0  0  0  0  0  0  0  0  0  0
   13.2312    9.0144   -1.6829 H   0  0  0  0  0  0  0  0  0  0  0  0
   12.8356    6.6680   -1.5284 H   0  0  0  0  0  0  0  0  0  0  0  0
   11.4728    5.4614   -2.9740 H   0  0  0  0  0  0  0  0  0  0  0  0
   12.5466   10.3425   -3.9427 H   0  0  0  0  0  0  0  0  0  0  0  0
   11.2590    9.8690   -6.4450 H   0  0  0  0  0  0  0  0  0  0  0  0
   10.3661    7.1131   -7.3908 H   0  0  0  0  0  0  0  0  0  0  0  0
   12.0913    6.8325   -7.2443 H   0  0  0  0  0  0  0  0  0  0  0  0
  1  2  2  0
  2  3  1  0
  3  4  2  0
  4  5  1  0
  5  6  2  0
  5  7  1  0
  7  8  1  0
  8  9  1  0
  6  1  1  0
  9  4  1  0
  1 10  1  0
  2 11  1  0
  3 12  1  0
  6 13  1  0
  7 14  1  0
  8 15  1  0
  8 16  1  0
M  END
>  <ID>  (37) 
Pocket2Mol_42_0

>  <docking_score>  (37) 
-5.766

$$$$
Pocket2Mol_43
     RDKit          3D

  8  8  0  0  0  0  0  0  0  0999 V2000
   12.0580    6.9230   -2.3210 C   0  0  0  0  0  0  0  0  0  0  0  0
   12.5950    8.0740   -2.0450 C   0  0  0  0  0  0  0  0  0  0  0  0
   12.3830    8.9690   -3.3730 S   0  0  0  0  0  0  0  0  0  0  0  0
   11.6720    7.5680   -4.4380 C   0  0  0  0  0  0  0  0  0  0  0  0
   11.6660    6.6450   -3.4700 N   0  0  0  0  0  0  0  0  0  0  0  0
   11.9471    6.1766   -1.5206 H   0  0  0  0  0  0  0  0  0  0  0  0
   13.0879    8.3741   -1.1085 H   0  0  0  0  0  0  0  0  0  0  0  0
   11.3677    7.5285   -5.4943 H   0  0  0  0  0  0  0  0  0  0  0  0
  1  2  2  0
  2  3  1  0
  3  4  1  0
  4  5  2  0
  5  1  1  0
  1  6  1  0
  2  7  1  0
  4  8  1  0
M  END
>  <ID>  (38) 
Pocket2Mol_43_0

>  <docking_score>  (38) 
-2.919

$$$$
Pocket2Mol_44
     RDKit          3D

 14 15  0  0  0  0  0  0  0  0999 V2000
   12.3260    7.7110   -2.0300 C   0  0  0  0  0  0  0  0  0  0  0  0
   11.9520    6.7100   -2.8840 C   0  0  0  0  0  0  0  0  0  0  0  0
   11.5450    6.9900   -4.1500 C   0  0  0  0  0  0  0  0  0  0  0  0
   11.7280    8.3390   -4.3910 C   0  0  0  0  0  0  0  0  0  0  0  0
   12.0140    9.4420   -3.6060 C   0  0  0  0  0  0  0  0  0  0  0  0
   12.4240    9.0350   -2.3010 N   0  0  0  0  0  0  0  0  0  0  0  0
   11.1780    8.3800   -5.9540 O   0  0  0  0  0  0  0  0  0  0  0  0
   11.2770    6.9600   -6.3760 C   0  0  0  0  0  0  0  0  0  0  0  0
   11.2650    6.2790   -5.2250 O   0  0  0  0  0  0  0  0  0  0  0  0
   12.5764    7.4054   -1.0034 H   0  0  0  0  0  0  0  0  0  0  0  0
   11.9811    5.6650   -2.5416 H   0  0  0  0  0  0  0  0  0  0  0  0
   11.9362   10.4868   -3.9411 H   0  0  0  0  0  0  0  0  0  0  0  0
   10.4202    6.6786   -7.0058 H   0  0  0  0  0  0  0  0  0  0  0  0
   12.1756    6.7587   -6.9777 H   0  0  0  0  0  0  0  0  0  0  0  0
  1  2  1  0
  2  3  2  0
  3  4  1  0
  4  5  2  0
  5  6  1  0
  4  7  1  0
  7  8  1  0
  8  9  1  0
  6  1  2  0
  9  3  1  0
  1 10  1  0
  2 11  1  0
  5 12  1  0
  8 13  1  0
  8 14  1  0
M  END
>  <ID>  (39) 
Pocket2Mol_44_0

>  <docking_score>  (39) 
-5.169

$$$$
Pocket2Mol_45
     RDKit          3D

 13 13  0  0  0  0  0  0  0  0999 V2000
   11.7760    6.8030   -3.4670 C   0  0  0  0  0  0  0  0  0  0  0  0
   12.3540    6.7840   -2.2050 C   0  0  0  0  0  0  0  0  0  0  0  0
   12.6350    8.1670   -1.7330 C   0  0  0  0  0  0  0  0  0  0  0  0
   12.3450    8.8020   -2.7310 O   0  0  0  0  0  0  0  0  0  0  0  0
   12.0560    8.1250   -3.6780 C   0  0  0  0  0  0  0  0  0  0  0  0
   12.2762    6.1343   -4.1830 H   0  0  0  0  0  0  0  0  0  0  0  0
   10.7329    6.4685   -3.5678 H   0  0  0  0  0  0  0  0  0  0  0  0
   11.6655    6.2950   -1.5001 H   0  0  0  0  0  0  0  0  0  0  0  0
   13.3027    6.2298   -2.2594 H   0  0  0  0  0  0  0  0  0  0  0  0
   12.0004    8.4416   -0.8775 H   0  0  0  0  0  0  0  0  0  0  0  0
   13.6596    8.3286   -1.3667 H   0  0  0  0  0  0  0  0  0  0  0  0
   11.1668    8.5765   -4.1423 H   0  0  0  0  0  0  0  0  0  0  0  0
   12.9674    8.1152   -4.2939 H   0  0  0  0  0  0  0  0  0  0  0  0
  1  2  1  0
  2  3  1  0
  3  4  1  0
  4  5  1  0
  5  1  1  0
  1  6  1  0
  1  7  1  0
  2  8  1  0
  2  9  1  0
  3 10  1  0
  3 11  1  0
  5 12  1  0
  5 13  1  0
M  END
>  <ID>  (40) 
Pocket2Mol_45_0

>  <docking_score>  (40) 
-3.698

$$$$
Pocket2Mol_46
     RDKit          3D

  8  8  0  0  0  0  0  0  0  0999 V2000
   12.4860    8.7230   -3.0500 C   0  0  0  0  0  0  0  0  0  0  0  0
   12.6230    8.1090   -1.9120 C   0  0  0  0  0  0  0  0  0  0  0  0
   12.3180    6.7100   -2.2760 C   0  0  0  0  0  0  0  0  0  0  0  0
   11.6640    6.8980   -3.6980 C   0  0  0  0  0  0  0  0  0  0  0  0
   11.9650    8.1660   -4.0340 N   0  0  0  0  0  0  0  0  0  0  0  0
   12.8958    8.5244   -0.9307 H   0  0  0  0  0  0  0  0  0  0  0  0
   12.4987    5.7857   -1.7076 H   0  0  0  0  0  0  0  0  0  0  0  0
   11.0925    6.1615   -4.2819 H   0  0  0  0  0  0  0  0  0  0  0  0
  1  2  2  0
  2  3  1  0
  3  4  2  0
  4  5  1  0
  5  1  2  0
  2  6  1  0
  3  7  1  0
  4  8  1  0
M  END
>  <ID>  (41) 
Pocket2Mol_46_0

>  <docking_score>  (41) 
-3.702

$$$$
Pocket2Mol_47
     RDKit          3D

 11 11  0  0  0  0  0  0  0  0999 V2000
   12.1550    6.7270   -2.3540 C   0  0  0  0  0  0  0  0  0  0  0  0
   11.6760    6.7830   -3.6680 C   0  0  0  0  0  0  0  0  0  0  0  0
   11.8260    8.0100   -4.1810 O   0  0  0  0  0  0  0  0  0  0  0  0
   12.5760    8.7650   -3.2300 C   0  0  0  0  0  0  0  0  0  0  0  0
   12.5880    8.0860   -1.9110 C   0  0  0  0  0  0  0  0  0  0  0  0
   12.2051    5.8166   -1.7386 H   0  0  0  0  0  0  0  0  0  0  0  0
   11.2349    5.9317   -4.2073 H   0  0  0  0  0  0  0  0  0  0  0  0
   13.6099    8.8729   -3.5896 H   0  0  0  0  0  0  0  0  0  0  0  0
   12.1063    9.7529   -3.1141 H   0  0  0  0  0  0  0  0  0  0  0  0
   13.5915    8.0743   -1.4606 H   0  0  0  0  0  0  0  0  0  0  0  0
   11.9697    8.5519   -1.1296 H   0  0  0  0  0  0  0  0  0  0  0  0
  1  2  2  0
  2  3  1  0
  3  4  1  0
  4  5  1  0
  5  1  1  0
  1  6  1  0
  2  7  1  0
  4  8  1  0
  4  9  1  0
  5 10  1  0
  5 11  1  0
M  END
>  <ID>  (42) 
Pocket2Mol_47_0

>  <docking_score>  (42) 
-3.759

$$$$
Pocket2Mol_48
     RDKit          3D

 13 12  0  0  0  0  0  0  0  0999 V2000
    6.1660    4.6380   -1.5620 C   0  0  0  0  0  0  0  0  0  0  0  0
    6.7020    5.3570   -0.5700 O   0  0  0  0  0  0  0  0  0  0  0  0
    7.5530    4.8710    0.1170 C   0  0  0  0  0  0  0  0  0  0  0  0
    7.3250    3.6080    0.4680 C   0  0  0  0  0  0  0  0  0  0  0  0
    6.5890    3.2290    1.6040 O   0  0  0  0  0  0  0  0  0  0  0  0
    5.5592    3.8241   -1.1385 H   0  0  0  0  0  0  0  0  0  0  0  0
    5.5289    5.2861   -2.1817 H   0  0  0  0  0  0  0  0  0  0  0  0
    6.9690    4.2125   -2.1817 H   0  0  0  0  0  0  0  0  0  0  0  0
    8.5033    4.9076   -0.4359 H   0  0  0  0  0  0  0  0  0  0  0  0
    7.5742    5.4554    1.0487 H   0  0  0  0  0  0  0  0  0  0  0  0
    6.8093    3.1489   -0.3883 H   0  0  0  0  0  0  0  0  0  0  0  0
    8.3362    3.2850    0.7563 H   0  0  0  0  0  0  0  0  0  0  0  0
    6.8370    2.3060    1.8640 H   0  0  0  0  0  0  0  0  0  0  0  0
  1  2  1  0
  2  3  1  0
  3  4  1  0
  4  5  1  0
  1  6  1  0
  1  7  1  0
  1  8  1  0
  3  9  1  0
  3 10  1  0
  4 11  1  0
  4 12  1  0
  5 13  1  0
M  END
>  <ID>  (43) 
Pocket2Mol_48_0

>  <docking_score>  (43) 
-3.302

$$$$
Pocket2Mol_49
     RDKit          3D

 11 11  0  0  0  0  0  0  0  0999 V2000
    6.9090    5.3680   -0.7270 C   0  0  0  0  0  0  0  0  0  0  0  0
    6.2330    4.4940   -1.5340 C   0  0  0  0  0  0  0  0  0  0  0  0
    6.6180    3.2810   -0.8550 O   0  0  0  0  0  0  0  0  0  0  0  0
    7.3120    3.6300    0.4640 C   0  0  0  0  0  0  0  0  0  0  0  0
    7.3480    4.9580    0.3110 O   0  0  0  0  0  0  0  0  0  0  0  0
    7.7573    5.7588   -1.3081 H   0  0  0  0  0  0  0  0  0  0  0  0
    6.1499    6.1061   -0.4289 H   0  0  0  0  0  0  0  0  0  0  0  0
    5.1457    4.6593   -1.5133 H   0  0  0  0  0  0  0  0  0  0  0  0
    6.4596    4.5457   -2.6092 H   0  0  0  0  0  0  0  0  0  0  0  0
    6.7187    3.3276    1.3395 H   0  0  0  0  0  0  0  0  0  0  0  0
    8.2796    3.1389    0.6445 H   0  0  0  0  0  0  0  0  0  0  0  0
  1  2  1  0
  2  3  1  0
  3  4  1  0
  4  5  1  0
  5  1  1  0
  1  6  1  0
  1  7  1  0
  2  8  1  0
  2  9  1  0
  4 10  1  0
  4 11  1  0
M  END
>  <ID>  (44) 
Pocket2Mol_49_0

>  <docking_score>  (44) 
-3.458

$$$$
Pocket2Mol_4
     RDKit          3D

 16 16  0  0  0  0  0  0  0  0999 V2000
   11.9540    6.9070   -2.4050 C   0  0  0  0  0  0  0  0  0  0  0  0
   12.7380    8.2440   -2.1360 C   0  0  0  0  0  0  0  0  0  0  0  0
   12.1320    9.1620   -3.0410 C   0  0  0  0  0  0  0  0  0  0  0  0
   12.3780    9.0050   -4.2020 O   0  0  0  0  0  0  0  0  0  0  0  0
   11.6280    8.1690   -4.9280 C   0  0  0  0  0  0  0  0  0  0  0  0
   11.6380    6.7930   -3.8080 C   0  0  0  0  0  0  0  0  0  0  0  0
   12.5766    6.0525   -2.1014 H   0  0  0  0  0  0  0  0  0  0  0  0
   11.0198    6.9136   -1.8243 H   0  0  0  0  0  0  0  0  0  0  0  0
   12.6102    8.5739   -1.0944 H   0  0  0  0  0  0  0  0  0  0  0  0
   13.8237    8.1454   -2.2827 H   0  0  0  0  0  0  0  0  0  0  0  0
   11.0418    9.0847   -2.9163 H   0  0  0  0  0  0  0  0  0  0  0  0
   12.5510   10.1460   -2.7837 H   0  0  0  0  0  0  0  0  0  0  0  0
   10.6141    8.5601   -5.0986 H   0  0  0  0  0  0  0  0  0  0  0  0
   11.9837    7.9636   -5.9484 H   0  0  0  0  0  0  0  0  0  0  0  0
   10.6271    6.3617   -3.8537 H   0  0  0  0  0  0  0  0  0  0  0  0
   12.5049    6.2248   -4.1762 H   0  0  0  0  0  0  0  0  0  0  0  0
  1  2  1  0
  2  3  1  0
  3  4  1  0
  4  5  1  0
  5  6  1  0
  6  1  1  0
  1  7  1  0
  1  8  1  0
  2  9  1  0
  2 10  1  0
  3 11  1  0
  3 12  1  0
  5 13  1  0
  5 14  1  0
  6 15  1  0
  6 16  1  0
M  END
>  <ID>  (45) 
Pocket2Mol_4_0

>  <docking_score>  (45) 
-4.385

$$$$
Pocket2Mol_5
     RDKit          3D

 14 14  0  0  0  0  0  0  0  0999 V2000
    7.1720    3.1290    0.1500 C   0  0  0  0  0  0  0  0  0  0  0  0
    7.4260    4.3270    0.8260 C   0  0  0  0  0  0  0  0  0  0  0  0
    7.8510    5.2650   -0.2450 O   0  0  0  0  0  0  0  0  0  0  0  0
    6.9550    5.6560   -1.0370 C   0  0  0  0  0  0  0  0  0  0  0  0
    6.1700    4.4920   -1.3470 C   0  0  0  0  0  0  0  0  0  0  0  0
    6.6730    3.3630   -1.0690 O   0  0  0  0  0  0  0  0  0  0  0  0
    8.1114    2.5651    0.0520 H   0  0  0  0  0  0  0  0  0  0  0  0
    6.4340    2.5513    0.7259 H   0  0  0  0  0  0  0  0  0  0  0  0
    6.5177    4.6926    1.3273 H   0  0  0  0  0  0  0  0  0  0  0  0
    8.1853    4.2141    1.6138 H   0  0  0  0  0  0  0  0  0  0  0  0
    6.3291    6.4236   -0.5583 H   0  0  0  0  0  0  0  0  0  0  0  0
    7.3850    6.1071   -1.9434 H   0  0  0  0  0  0  0  0  0  0  0  0
    5.2216    4.5763   -0.7962 H   0  0  0  0  0  0  0  0  0  0  0  0
    6.0753    4.4978   -2.4429 H   0  0  0  0  0  0  0  0  0  0  0  0
  1  2  1  0
  2  3  1  0
  3  4  1  0
  4  5  1  0
  5  6  1  0
  6  1  1  0
  1  7  1  0
  1  8  1  0
  2  9  1  0
  2 10  1  0
  4 11  1  0
  4 12  1  0
  5 13  1  0
  5 14  1  0
M  END
>  <ID>  (46) 
Pocket2Mol_5_0

>  <docking_score>  (46) 
-3.7

$$$$
Pocket2Mol_6
     RDKit          3D

 11 11  0  0  0  0  0  0  0  0999 V2000
   12.0740    6.7790   -2.4690 C   0  0  0  0  0  0  0  0  0  0  0  0
   12.3930    7.9490   -1.8830 C   0  0  0  0  0  0  0  0  0  0  0  0
   12.4350    8.9970   -2.6510 C   0  0  0  0  0  0  0  0  0  0  0  0
   12.0640    8.9510   -3.8380 N   0  0  0  0  0  0  0  0  0  0  0  0
   11.6680    7.8980   -4.4610 C   0  0  0  0  0  0  0  0  0  0  0  0
   11.6730    6.6790   -3.7330 C   0  0  0  0  0  0  0  0  0  0  0  0
   12.1490    5.8587   -1.8712 H   0  0  0  0  0  0  0  0  0  0  0  0
   12.6077    8.0146   -0.8062 H   0  0  0  0  0  0  0  0  0  0  0  0
   12.8075    9.9476   -2.2417 H   0  0  0  0  0  0  0  0  0  0  0  0
   11.3403    7.9398   -5.5102 H   0  0  0  0  0  0  0  0  0  0  0  0
   11.3676    5.7222   -4.1816 H   0  0  0  0  0  0  0  0  0  0  0  0
  1  2  2  0
  2  3  1  0
  3  4  2  0
  4  5  1  0
  5  6  2  0
  6  1  1  0
  1  7  1  0
  2  8  1  0
  3  9  1  0
  5 10  1  0
  6 11  1  0
M  END
>  <ID>  (47) 
Pocket2Mol_6_0

>  <docking_score>  (47) 
-4.339

$$$$
Pocket2Mol_7
     RDKit          3D

 13 13  0  0  0  0  0  0  0  0999 V2000
   11.2500    6.5390   -4.8940 C   0  0  0  0  0  0  0  0  0  0  0  0
   11.8590    7.4030   -3.8770 C   0  0  0  0  0  0  0  0  0  0  0  0
   12.0270    8.6760   -3.6770 C   0  0  0  0  0  0  0  0  0  0  0  0
   12.4180    9.1180   -2.5800 N   0  0  0  0  0  0  0  0  0  0  0  0
   12.5140    8.0770   -1.7330 C   0  0  0  0  0  0  0  0  0  0  0  0
   12.0830    6.7790   -2.3590 C   0  0  0  0  0  0  0  0  0  0  0  0
   10.6835    5.7353   -4.4009 H   0  0  0  0  0  0  0  0  0  0  0  0
   10.5708    7.1343   -5.5219 H   0  0  0  0  0  0  0  0  0  0  0  0
   12.0390    6.0994   -5.5219 H   0  0  0  0  0  0  0  0  0  0  0  0
   11.8189    9.3801   -4.4961 H   0  0  0  0  0  0  0  0  0  0  0  0
   12.8690    8.1655   -0.6956 H   0  0  0  0  0  0  0  0  0  0  0  0
   12.8665    6.0077   -2.3255 H   0  0  0  0  0  0  0  0  0  0  0  0
   11.2355    6.2506   -1.8980 H   0  0  0  0  0  0  0  0  0  0  0  0
  1  2  1  0
  2  3  2  0
  3  4  1  0
  4  5  2  0
  5  6  1  0
  6  2  1  0
  1  7  1  0
  1  8  1  0
  1  9  1  0
  3 10  1  0
  5 11  1  0
  6 12  1  0
  6 13  1  0
M  END
>  <ID>  (48) 
Pocket2Mol_7_0

>  <docking_score>  (48) 
-4.365

$$$$
Pocket2Mol_8
     RDKit          3D

 12 12  0  0  0  0  0  0  0  0999 V2000
   11.1620    6.5870   -5.2970 C   0  0  0  0  0  0  0  0  0  0  0  0
   11.5730    7.1440   -4.0050 C   0  0  0  0  0  0  0  0  0  0  0  0
   11.9170    6.6970   -2.8340 C   0  0  0  0  0  0  0  0  0  0  0  0
   12.4240    7.4410   -1.9740 N   0  0  0  0  0  0  0  0  0  0  0  0
   12.5930    8.6530   -2.5330 C   0  0  0  0  0  0  0  0  0  0  0  0
   12.0950    8.4980   -3.8950 N   0  0  0  0  0  0  0  0  0  0  0  0
   10.5164    5.7121   -5.1304 H   0  0  0  0  0  0  0  0  0  0  0  0
   10.6079    7.3487   -5.8651 H   0  0  0  0  0  0  0  0  0  0  0  0
   12.0533    6.2822   -5.8651 H   0  0  0  0  0  0  0  0  0  0  0  0
   11.7562    5.6350   -2.5969 H   0  0  0  0  0  0  0  0  0  0  0  0
   13.0123    9.5572   -2.0676 H   0  0  0  0  0  0  0  0  0  0  0  0
   12.1080    9.2110   -4.6370 H   0  0  0  0  0  0  0  0  0  0  0  0
  1  2  1  0
  2  3  2  0
  3  4  1  0
  4  5  2  0
  5  6  1  0
  6  2  1  0
  1  7  1  0
  1  8  1  0
  1  9  1  0
  3 10  1  0
  5 11  1  0
  6 12  1  0
M  END
>  <ID>  (49) 
Pocket2Mol_8_0

>  <docking_score>  (49) 
-3.726

$$$$
Pocket2Mol_9
     RDKit          3D

 12 12  0  0  0  0  0  0  0  0999 V2000
   11.2690    6.5370   -4.8560 C   0  0  0  0  0  0  0  0  0  0  0  0
   11.7660    7.3550   -3.8410 C   0  0  0  0  0  0  0  0  0  0  0  0
   12.0230    6.9400   -2.5240 C   0  0  0  0  0  0  0  0  0  0  0  0
   12.5610    8.0870   -1.7740 C   0  0  0  0  0  0  0  0  0  0  0  0
   12.4160    9.1070   -2.6560 O   0  0  0  0  0  0  0  0  0  0  0  0
   12.0290    8.7840   -3.7440 C   0  0  0  0  0  0  0  0  0  0  0  0
   10.7466    5.6772   -4.4112 H   0  0  0  0  0  0  0  0  0  0  0  0
   10.5667    7.1108   -5.4785 H   0  0  0  0  0  0  0  0  0  0  0  0
   12.1018    6.1781   -5.4785 H   0  0  0  0  0  0  0  0  0  0  0  0
   11.8516    5.9306   -2.1217 H   0  0  0  0  0  0  0  0  0  0  0  0
   12.9758    8.1107   -0.7555 H   0  0  0  0  0  0  0  0  0  0  0  0
   11.8882    9.4890   -4.5766 H   0  0  0  0  0  0  0  0  0  0  0  0
  1  2  1  0
  2  3  1  0
  3  4  2  0
  4  5  1  0
  5  6  1  0
  6  2  2  0
  1  7  1  0
  1  8  1  0
  1  9  1  0
  3 10  1  0
  4 11  1  0
  6 12  1  0
M  END
>  <ID>  (50) 
Pocket2Mol_9_0

>  <docking_score>  (50) 
-4.363

$$$$
