Pocket2Mol_0_num_sample_50
     RDKit          3D

 10 10  0  0  0  0  0  0  0  0999 V2000
   12.6690    8.1520   -1.9080 C   0  0  0  0  0  0  0  0  0  0  0  0
   12.5070    8.7430   -3.0540 C   0  0  0  0  0  0  0  0  0  0  0  0
   11.9660    8.1660   -4.0160 N   0  0  0  0  0  0  0  0  0  0  0  0
   11.7120    6.9000   -3.6390 C   0  0  0  0  0  0  0  0  0  0  0  0
   12.2280    6.6490   -2.3160 C   0  0  0  0  0  0  0  0  0  0  0  0
   13.0072    8.5555   -0.9422 H   0  0  0  0  0  0  0  0  0  0  0  0
   12.8564    9.7787   -3.1774 H   0  0  0  0  0  0  0  0  0  0  0  0
   11.1832    6.1580   -4.2553 H   0  0  0  0  0  0  0  0  0  0  0  0
   11.4540    6.2520   -1.6427 H   0  0  0  0  0  0  0  0  0  0  0  0
   13.0285    5.8965   -2.2619 H   0  0  0  0  0  0  0  0  0  0  0  0
  1  2  2  0
  2  3  1  0
  3  4  2  0
  4  5  1  0
  5  1  1  0
  1  6  1  0
  2  7  1  0
  4  8  1  0
  5  9  1  0
  5 10  1  0
M  END

>  <ID>
Pocket2Mol_0_num_sample_50

>  <docking_score>
-3.688

$$$$
Pocket2Mol_10_num_sample_50
     RDKit          3D

 13 12  0  0  0  0  0  0  0  0999 V2000
   12.4040    8.9140   -3.4810 C   0  0  0  0  0  0  0  0  0  0  0  0
   12.7140    8.0420   -2.6480 N   0  0  0  0  0  0  0  0  0  0  0  0
   12.6980    8.3390   -1.3600 C   0  0  0  0  0  0  0  0  0  0  0  0
   11.9620    6.7750   -2.9270 C   0  0  0  0  0  0  0  0  0  0  0  0
   12.0803    9.8245   -2.9555 H   0  0  0  0  0  0  0  0  0  0  0  0
   13.2752    9.1448   -4.1117 H   0  0  0  0  0  0  0  0  0  0  0  0
   11.5827    8.5431   -4.1117 H   0  0  0  0  0  0  0  0  0  0  0  0
   12.7479    7.4123   -0.7694 H   0  0  0  0  0  0  0  0  0  0  0  0
   13.5632    8.9742   -1.1194 H   0  0  0  0  0  0  0  0  0  0  0  0
   11.7695    8.8776   -1.1194 H   0  0  0  0  0  0  0  0  0  0  0  0
   11.6796    6.2993   -1.9762 H   0  0  0  0  0  0  0  0  0  0  0  0
   11.0550    7.0066   -3.5047 H   0  0  0  0  0  0  0  0  0  0  0  0
   12.5997    6.0897   -3.5047 H   0  0  0  0  0  0  0  0  0  0  0  0
  1  2  1  0
  2  3  1  0
  2  4  1  0
  1  5  1  0
  1  6  1  0
  1  7  1  0
  3  8  1  0
  3  9  1  0
  3 10  1  0
  4 11  1  0
  4 12  1  0
  4 13  1  0
M  END

>  <ID>
Pocket2Mol_10_num_sample_50

>  <docking_score>
-2.458

$$$$
Pocket2Mol_11_num_sample_50
     RDKit          3D

 14 14  0  0  0  0  0  0  0  0999 V2000
   11.2900    6.5540   -4.8770 C   0  0  0  0  0  0  0  0  0  0  0  0
   11.7830    7.3590   -3.8500 C   0  0  0  0  0  0  0  0  0  0  0  0
   12.1080    8.7760   -3.7570 C   0  0  0  0  0  0  0  0  0  0  0  0
   12.4670    9.0940   -2.6580 O   0  0  0  0  0  0  0  0  0  0  0  0
   12.5300    8.0780   -1.7610 C   0  0  0  0  0  0  0  0  0  0  0  0
   11.9070    6.7780   -2.4790 C   0  0  0  0  0  0  0  0  0  0  0  0
   10.7616    5.6913   -4.4451 H   0  0  0  0  0  0  0  0  0  0  0  0
   10.5939    7.1370   -5.4979 H   0  0  0  0  0  0  0  0  0  0  0  0
   12.1257    6.1989   -5.4979 H   0  0  0  0  0  0  0  0  0  0  0  0
   12.0324    9.4767   -4.6015 H   0  0  0  0  0  0  0  0  0  0  0  0
   13.5758    7.8884   -1.4775 H   0  0  0  0  0  0  0  0  0  0  0  0
   11.9724    8.3266   -0.8459 H   0  0  0  0  0  0  0  0  0  0  0  0
   12.5886    5.9151   -2.4491 H   0  0  0  0  0  0  0  0  0  0  0  0
   10.9873    6.3680   -2.0363 H   0  0  0  0  0  0  0  0  0  0  0  0
  1  2  1  0
  2  3  2  0
  3  4  1  0
  4  5  1  0
  5  6  1  0
  6  2  1  0
  1  7  1  0
  1  8  1  0
  1  9  1  0
  3 10  1  0
  5 11  1  0
  5 12  1  0
  6 13  1  0
  6 14  1  0
M  END

>  <ID>
Pocket2Mol_11_num_sample_50

>  <docking_score>
-4.424

$$$$
Pocket2Mol_12_num_sample_50
     RDKit          3D

 16 16  0  0  0  0  0  0  0  0999 V2000
   11.0730    6.6250   -5.2940 C   0  0  0  0  0  0  0  0  0  0  0  0
   11.7740    7.5510   -4.3990 C   0  0  0  0  0  0  0  0  0  0  0  0
   11.9650    8.8340   -4.3050 C   0  0  0  0  0  0  0  0  0  0  0  0
   12.4540    9.3480   -3.2820 N   0  0  0  0  0  0  0  0  0  0  0  0
   12.6210    8.3680   -2.3750 C   0  0  0  0  0  0  0  0  0  0  0  0
   13.0530    8.3900   -1.0340 N   0  0  0  0  0  0  0  0  0  0  0  0
   12.0890    7.0360   -2.9540 C   0  0  0  0  0  0  0  0  0  0  0  0
   10.5156    5.8887   -4.6963 H   0  0  0  0  0  0  0  0  0  0  0  0
   10.3726    7.1879   -5.9286 H   0  0  0  0  0  0  0  0  0  0  0  0
   11.8048    6.1037   -5.9286 H   0  0  0  0  0  0  0  0  0  0  0  0
   11.6876    9.4810   -5.1503 H   0  0  0  0  0  0  0  0  0  0  0  0
   12.6900   10.3420   -3.1520 H   0  0  0  0  0  0  0  0  0  0  0  0
   13.1140    7.5130   -0.4980 H   0  0  0  0  0  0  0  0  0  0  0  0
   13.3070    9.2840   -0.5910 H   0  0  0  0  0  0  0  0  0  0  0  0
   12.8516    6.2433   -2.9492 H   0  0  0  0  0  0  0  0  0  0  0  0
   11.2547    6.5677   -2.4112 H   0  0  0  0  0  0  0  0  0  0  0  0
  1  2  1  0
  2  3  2  0
  3  4  1  0
  4  5  2  0
  5  6  1  0
  5  7  1  0
  7  2  1  0
  1  8  1  0
  1  9  1  0
  1 10  1  0
  3 11  1  0
  4 12  1  0
  6 13  1  0
  6 14  1  0
  7 15  1  0
  7 16  1  0
M  CHG  1   4   1
M  END

>  <ID>
Pocket2Mol_12_num_sample_50

>  <docking_score>
-5.026

$$$$
Pocket2Mol_13_num_sample_50
     RDKit          3D

 17 17  0  0  0  0  0  0  0  0999 V2000
   12.9460    8.5820   -1.3320 O   0  0  0  0  0  0  0  0  0  0  0  0
   12.9240    8.4690   -2.6280 C   0  0  1  0  0  0  0  0  0  0  0  0
   12.1620    7.1690   -3.0010 C   0  0  0  0  0  0  0  0  0  0  0  0
   11.3530    6.6580   -4.1770 C   0  0  0  0  0  0  0  0  0  0  0  0
   11.5770    7.6180   -5.1750 C   0  0  0  0  0  0  0  0  0  0  0  0
   11.9430    8.7720   -4.6080 O   0  0  0  0  0  0  0  0  0  0  0  0
   11.8290    8.9100   -3.4240 C   0  0  0  0  0  0  0  0  0  0  0  0
   12.4930    9.4210   -1.0660 H   0  0  0  0  0  0  0  0  0  0  0  0
   13.9494    8.8327   -2.7903 H   0  0  0  0  0  0  0  0  0  0  0  0
   12.9468    6.4039   -2.9080 H   0  0  0  0  0  0  0  0  0  0  0  0
   11.2745    7.4272   -2.4046 H   0  0  0  0  0  0  0  0  0  0  0  0
   11.7091    5.6679   -4.4978 H   0  0  0  0  0  0  0  0  0  0  0  0
   10.2867    6.5308   -3.9386 H   0  0  0  0  0  0  0  0  0  0  0  0
   12.3756    7.2697   -5.8464 H   0  0  0  0  0  0  0  0  0  0  0  0
   10.6531    7.7695   -5.7525 H   0  0  0  0  0  0  0  0  0  0  0  0
   11.6801    9.9815   -3.2245 H   0  0  0  0  0  0  0  0  0  0  0  0
   10.9812    8.2714   -3.1352 H   0  0  0  0  0  0  0  0  0  0  0  0
  1  2  1  0
  2  3  1  0
  3  4  1  0
  4  5  1  0
  5  6  1  0
  6  7  1  0
  7  2  1  0
  1  8  1  0
  2  9  1  6
  3 10  1  0
  3 11  1  0
  4 12  1  0
  4 13  1  0
  5 14  1  0
  5 15  1  0
  7 16  1  0
  7 17  1  0
M  END

>  <ID>
Pocket2Mol_13_num_sample_50

>  <docking_score>
-4.254

$$$$
Pocket2Mol_14_num_sample_50
     RDKit          3D

 17 17  0  0  0  0  0  0  0  0999 V2000
   11.3630    6.8220   -4.9180 C   0  0  0  0  0  0  0  0  0  0  0  0
   11.5200    6.6410   -3.3400 C   0  0  0  0  0  0  0  0  0  0  0  0
   12.6180    7.3440   -2.9790 O   0  0  0  0  0  0  0  0  0  0  0  0
   12.5600    8.5540   -2.4100 C   0  0  0  0  0  0  0  0  0  0  0  0
   11.9880    9.4900   -3.2790 C   0  0  0  0  0  0  0  0  0  0  0  0
   12.4430    9.0590   -4.6260 O   0  0  0  0  0  0  0  0  0  0  0  0
   11.4510    8.4020   -5.3900 C   0  0  0  0  0  0  0  0  0  0  0  0
   12.1655    6.2600   -5.4183 H   0  0  0  0  0  0  0  0  0  0  0  0
   10.3678    6.4464   -5.1982 H   0  0  0  0  0  0  0  0  0  0  0  0
   10.6316    7.0321   -2.8226 H   0  0  0  0  0  0  0  0  0  0  0  0
   11.6214    5.5795   -3.0700 H   0  0  0  0  0  0  0  0  0  0  0  0
   11.9512    8.4928   -1.4959 H   0  0  0  0  0  0  0  0  0  0  0  0
   13.5835    8.8780   -2.1704 H   0  0  0  0  0  0  0  0  0  0  0  0
   10.8903    9.4659   -3.2113 H   0  0  0  0  0  0  0  0  0  0  0  0
   12.2857   10.5223   -3.0430 H   0  0  0  0  0  0  0  0  0  0  0  0
   10.4783    8.8895   -5.2279 H   0  0  0  0  0  0  0  0  0  0  0  0
   11.7098    8.4557   -6.4578 H   0  0  0  0  0  0  0  0  0  0  0  0
  1  2  1  0
  2  3  1  0
  3  4  1  0
  4  5  1  0
  5  6  1  0
  6  7  1  0
  7  1  1  0
  1  8  1  0
  1  9  1  0
  2 10  1  0
  2 11  1  0
  4 12  1  0
  4 13  1  0
  5 14  1  0
  5 15  1  0
  7 16  1  0
  7 17  1  0
M  END

>  <ID>
Pocket2Mol_14_num_sample_50

>  <docking_score>
-3.968

$$$$
Pocket2Mol_15_num_sample_50
     RDKit          3D

 19 19  0  0  0  0  0  0  0  0999 V2000
   11.6030    8.5920   -7.9350 C   0  0  0  0  0  0  0  0  0  0  0  0
   10.8820    8.0870   -6.9370 C   0  0  0  0  0  0  0  0  0  0  0  0
    9.5010    8.1520   -7.1470 C   0  0  0  0  0  0  0  0  0  0  0  0
   11.1810    6.6180   -6.5650 C   0  0  0  0  0  0  0  0  0  0  0  0
   11.1470    6.6260   -4.9970 C   0  0  0  0  0  0  0  0  0  0  0  0
   11.5850    7.8450   -4.8760 C   0  0  0  0  0  0  0  0  0  0  0  0
   11.0890    8.5890   -5.8710 O   0  0  0  0  0  0  0  0  0  0  0  0
   12.4387    9.1773   -7.5240 H   0  0  0  0  0  0  0  0  0  0  0  0
   11.9984    7.7724   -8.5530 H   0  0  0  0  0  0  0  0  0  0  0  0
   10.9679    9.2437   -8.5530 H   0  0  0  0  0  0  0  0  0  0  0  0
    8.9833    8.1764   -6.1767 H   0  0  0  0  0  0  0  0  0  0  0  0
    9.2589    9.0625   -7.7147 H   0  0  0  0  0  0  0  0  0  0  0  0
    9.1744    7.2682   -7.7147 H   0  0  0  0  0  0  0  0  0  0  0  0
   10.4123    5.9446   -6.9719 H   0  0  0  0  0  0  0  0  0  0  0  0
   12.1375    6.2581   -6.9720 H   0  0  0  0  0  0  0  0  0  0  0  0
   10.1339    6.4926   -4.5899 H   0  0  0  0  0  0  0  0  0  0  0  0
   11.6980    5.8322   -4.4715 H   0  0  0  0  0  0  0  0  0  0  0  0
   11.2607    8.2587   -3.9097 H   0  0  0  0  0  0  0  0  0  0  0  0
   12.6840    7.8502   -4.9217 H   0  0  0  0  0  0  0  0  0  0  0  0
  1  2  1  0
  2  3  1  0
  2  4  1  0
  4  5  1  0
  5  6  1  0
  6  7  1  0
  7  2  1  0
  1  8  1  0
  1  9  1  0
  1 10  1  0
  3 11  1  0
  3 12  1  0
  3 13  1  0
  4 14  1  0
  4 15  1  0
  5 16  1  0
  5 17  1  0
  6 18  1  0
  6 19  1  0
M  END

>  <ID>
Pocket2Mol_15_num_sample_50

>  <docking_score>
-4.413

$$$$
Pocket2Mol_16_num_sample_50
     RDKit          3D

 12 12  0  0  0  0  0  0  0  0999 V2000
   12.9620    8.6990   -1.2900 O   0  0  0  0  0  0  0  0  0  0  0  0
   12.5210    8.2250   -2.5900 C   0  0  0  0  0  0  0  0  0  0  0  0
   12.0750    6.9670   -2.7730 C   0  0  0  0  0  0  0  0  0  0  0  0
   11.5160    6.7050   -3.9170 C   0  0  0  0  0  0  0  0  0  0  0  0
   11.5170    7.5320   -4.8490 N   0  0  0  0  0  0  0  0  0  0  0  0
   12.0120    8.7650   -4.7200 C   0  0  0  0  0  0  0  0  0  0  0  0
   12.4880    9.1140   -3.5380 C   0  0  0  0  0  0  0  0  0  0  0  0
   12.8420    9.6490   -1.0430 H   0  0  0  0  0  0  0  0  0  0  0  0
   12.1788    6.1990   -1.9924 H   0  0  0  0  0  0  0  0  0  0  0  0
   11.0302    5.7294   -4.0659 H   0  0  0  0  0  0  0  0  0  0  0  0
   12.0232    9.4657   -5.5679 H   0  0  0  0  0  0  0  0  0  0  0  0
   12.8496   10.1374   -3.3594 H   0  0  0  0  0  0  0  0  0  0  0  0
  1  2  1  0
  2  3  2  0
  3  4  1  0
  4  5  2  0
  5  6  1  0
  6  7  2  0
  7  2  1  0
  1  8  1  0
  3  9  1  0
  4 10  1  0
  6 11  1  0
  7 12  1  0
M  END

>  <ID>
Pocket2Mol_16_num_sample_50

>  <docking_score>
-4.567

$$$$
Pocket2Mol_17_num_sample_50
     RDKit          3D

 15 15  0  0  0  0  0  0  0  0999 V2000
   12.4160    7.0260   -2.3730 C   0  0  0  0  0  0  0  0  0  0  0  0
   12.6020    8.3550   -2.3120 C   0  0  0  0  0  0  0  0  0  0  0  0
   12.0660    9.2130   -3.1860 O   0  0  0  0  0  0  0  0  0  0  0  0
   12.2310    9.0410   -4.3600 C   0  0  0  0  0  0  0  0  0  0  0  0
   11.2920    8.1920   -5.0120 C   0  0  0  0  0  0  0  0  0  0  0  0
   11.6660    6.7630   -4.4700 O   0  0  0  0  0  0  0  0  0  0  0  0
   11.5520    6.6780   -3.0400 C   0  0  0  0  0  0  0  0  0  0  0  0
   13.0511    6.3188   -1.8193 H   0  0  0  0  0  0  0  0  0  0  0  0
   13.2272    8.7579   -1.5016 H   0  0  0  0  0  0  0  0  0  0  0  0
   12.1912   10.0243   -4.8515 H   0  0  0  0  0  0  0  0  0  0  0  0
   13.2000    8.5279   -4.4476 H   0  0  0  0  0  0  0  0  0  0  0  0
   10.2608    8.4605   -4.7388 H   0  0  0  0  0  0  0  0  0  0  0  0
   11.3341    8.2629   -6.1089 H   0  0  0  0  0  0  0  0  0  0  0  0
   10.6723    7.2742   -2.7561 H   0  0  0  0  0  0  0  0  0  0  0  0
   11.5116    5.5945   -2.8547 H   0  0  0  0  0  0  0  0  0  0  0  0
  1  2  2  0
  2  3  1  0
  3  4  1  0
  4  5  1  0
  5  6  1  0
  6  7  1  0
  7  1  1  0
  1  8  1  0
  2  9  1  0
  4 10  1  0
  4 11  1  0
  5 12  1  0
  5 13  1  0
  7 14  1  0
  7 15  1  0
M  END

>  <ID>
Pocket2Mol_17_num_sample_50

>  <docking_score>
-4.06

$$$$
Pocket2Mol_18_num_sample_50
     RDKit          3D

 13 13  0  0  0  0  0  0  0  0999 V2000
   12.6600    8.7250   -1.0600 N   0  0  0  0  0  0  0  0  0  0  0  0
   12.3410    8.2790   -2.4040 C   0  0  0  0  0  0  0  0  0  0  0  0
   11.9880    7.0050   -2.6650 C   0  0  0  0  0  0  0  0  0  0  0  0
   11.5280    6.7570   -3.8550 C   0  0  0  0  0  0  0  0  0  0  0  0
   11.5410    7.6190   -4.7530 N   0  0  0  0  0  0  0  0  0  0  0  0
   12.0110    8.7720   -4.5610 C   0  0  0  0  0  0  0  0  0  0  0  0
   12.2270    9.0900   -3.4940 C   0  0  0  0  0  0  0  0  0  0  0  0
   13.2760    8.1560   -0.4610 H   0  0  0  0  0  0  0  0  0  0  0  0
   12.2710    9.6100   -0.7060 H   0  0  0  0  0  0  0  0  0  0  0  0
   12.0845    6.2132   -1.9075 H   0  0  0  0  0  0  0  0  0  0  0  0
   11.1169    5.7605   -4.0741 H   0  0  0  0  0  0  0  0  0  0  0  0
   12.2063    9.4509   -5.4042 H   0  0  0  0  0  0  0  0  0  0  0  0
   12.3586   10.1681   -3.3199 H   0  0  0  0  0  0  0  0  0  0  0  0
  1  2  1  0
  2  3  2  0
  3  4  1  0
  4  5  2  0
  5  6  1  0
  6  7  2  0
  7  2  1  0
  1  8  1  0
  1  9  1  0
  3 10  1  0
  4 11  1  0
  6 12  1  0
  7 13  1  0
M  END

>  <ID>
Pocket2Mol_18_num_sample_50

>  <docking_score>
-4.552

$$$$
Pocket2Mol_19_num_sample_50
     RDKit          3D

 12 12  0  0  0  0  0  0  0  0999 V2000
   13.1490    8.5480   -1.2520 O   0  0  0  0  0  0  0  0  0  0  0  0
   12.4430    8.3040   -2.6030 C   0  0  0  0  0  0  0  0  0  0  0  0
   12.0270    6.9940   -2.6170 C   0  0  0  0  0  0  0  0  0  0  0  0
   11.5910    6.6660   -3.8640 C   0  0  0  0  0  0  0  0  0  0  0  0
   11.4580    7.6680   -4.9400 C   0  0  0  0  0  0  0  0  0  0  0  0
   11.8760    8.9090   -4.6640 N   0  0  0  0  0  0  0  0  0  0  0  0
   12.3940    9.1780   -3.5640 C   0  0  0  0  0  0  0  0  0  0  0  0
   14.1030    8.8120   -1.2320 H   0  0  0  0  0  0  0  0  0  0  0  0
   12.0439    6.3143   -1.7523 H   0  0  0  0  0  0  0  0  0  0  0  0
   11.3289    5.6192   -4.0772 H   0  0  0  0  0  0  0  0  0  0  0  0
   11.0356    7.4071   -5.9216 H   0  0  0  0  0  0  0  0  0  0  0  0
   12.8202   10.1790   -3.4017 H   0  0  0  0  0  0  0  0  0  0  0  0
  1  2  1  0
  2  3  2  0
  3  4  1  0
  4  5  2  0
  5  6  1  0
  6  7  2  0
  7  2  1  0
  1  8  1  0
  3  9  1  0
  4 10  1  0
  5 11  1  0
  7 12  1  0
M  END

>  <ID>
Pocket2Mol_19_num_sample_50

>  <docking_score>
-4.7

$$$$
Pocket2Mol_1_num_sample_50
     RDKit          3D

 10 10  0  0  0  0  0  0  0  0999 V2000
   12.3070    7.0960   -2.2620 C   0  0  0  0  0  0  0  0  0  0  0  0
   12.1370    7.7880   -3.5570 C   0  0  0  0  0  0  0  0  0  0  0  0
   12.1150    9.1240   -3.1950 C   0  0  0  0  0  0  0  0  0  0  0  0
   12.3890    9.2690   -1.8030 N   0  0  0  0  0  0  0  0  0  0  0  0
   12.5550    8.0850   -1.4550 C   0  0  0  0  0  0  0  0  0  0  0  0
   12.2408    6.0210   -2.0385 H   0  0  0  0  0  0  0  0  0  0  0  0
   12.0494    7.3491   -4.5618 H   0  0  0  0  0  0  0  0  0  0  0  0
   11.9143    9.9572   -3.8846 H   0  0  0  0  0  0  0  0  0  0  0  0
   12.4360   10.1270   -1.2360 H   0  0  0  0  0  0  0  0  0  0  0  0
   12.9204    7.8704   -0.4399 H   0  0  0  0  0  0  0  0  0  0  0  0
  1  2  1  0
  2  3  2  0
  3  4  1  0
  4  5  1  0
  5  1  2  0
  1  6  1  0
  2  7  1  0
  3  8  1  0
  4  9  1  0
  5 10  1  0
M  END

>  <ID>
Pocket2Mol_1_num_sample_50

>  <docking_score>
-3.82

$$$$
Pocket2Mol_20_num_sample_50
     RDKit          3D

 12 12  0  0  0  0  0  0  0  0999 V2000
   12.5400    8.8450   -1.4270 N   0  0  0  0  0  0  0  0  0  0  0  0
   12.2240    8.3030   -2.7360 C   0  0  0  0  0  0  0  0  0  0  0  0
   11.9410    6.9980   -2.9140 C   0  0  0  0  0  0  0  0  0  0  0  0
   11.4750    6.6530   -4.0780 C   0  0  0  0  0  0  0  0  0  0  0  0
   11.4220    7.4600   -5.0250 N   0  0  0  0  0  0  0  0  0  0  0  0
   11.8900    8.7240   -4.8650 C   0  0  0  0  0  0  0  0  0  0  0  0
   12.2740    9.2620   -3.5970 N   0  0  0  0  0  0  0  0  0  0  0  0
   12.6140    8.2170   -0.6130 H   0  0  0  0  0  0  0  0  0  0  0  0
   12.6910    9.8570   -1.3130 H   0  0  0  0  0  0  0  0  0  0  0  0
   12.0966    6.2599   -2.1134 H   0  0  0  0  0  0  0  0  0  0  0  0
   11.1190    5.6233   -4.2298 H   0  0  0  0  0  0  0  0  0  0  0  0
   11.9782    9.3657   -5.7540 H   0  0  0  0  0  0  0  0  0  0  0  0
  1  2  1  0
  2  3  2  0
  3  4  1  0
  4  5  2  0
  5  6  1  0
  6  7  2  0
  7  2  1  0
  1  8  1  0
  1  9  1  0
  3 10  1  0
  4 11  1  0
  6 12  1  0
M  END

>  <ID>
Pocket2Mol_20_num_sample_50

>  <docking_score>
-4.489

$$$$
Pocket2Mol_21_num_sample_50
     RDKit          3D

  9  9  0  0  0  0  0  0  0  0999 V2000
   12.1920    6.7050   -2.3160 C   0  0  0  0  0  0  0  0  0  0  0  0
   12.6710    8.2010   -2.0600 C   0  0  0  0  0  0  0  0  0  0  0  0
   12.3120    8.9790   -3.2720 C   0  0  0  0  0  0  0  0  0  0  0  0
   11.8830    8.0600   -4.1150 O   0  0  0  0  0  0  0  0  0  0  0  0
   11.7170    6.8410   -3.5910 C   0  0  0  0  0  0  0  0  0  0  0  0
   12.2314    5.8223   -1.6608 H   0  0  0  0  0  0  0  0  0  0  0  0
   13.1716    8.5844   -1.1587 H   0  0  0  0  0  0  0  0  0  0  0  0
   12.3862   10.0651   -3.4297 H   0  0  0  0  0  0  0  0  0  0  0  0
   11.2383    6.0165   -4.1398 H   0  0  0  0  0  0  0  0  0  0  0  0
  1  2  1  0
  2  3  2  0
  3  4  1  0
  4  5  1  0
  5  1  2  0
  1  6  1  0
  2  7  1  0
  3  8  1  0
  5  9  1  0
M  END

>  <ID>
Pocket2Mol_21_num_sample_50

>  <docking_score>
-3.729

$$$$
Pocket2Mol_22_num_sample_50
     RDKit          3D

 11 11  0  0  0  0  0  0  0  0999 V2000
   13.1350    8.2500   -0.9710 F   0  0  0  0  0  0  0  0  0  0  0  0
   12.5140    8.1110   -2.3600 C   0  0  0  0  0  0  0  0  0  0  0  0
   12.1830    6.8310   -2.6230 C   0  0  0  0  0  0  0  0  0  0  0  0
   11.5610    6.6210   -3.8800 C   0  0  0  0  0  0  0  0  0  0  0  0
   11.5270    7.6200   -4.7310 C   0  0  0  0  0  0  0  0  0  0  0  0
   12.0140    8.8230   -4.4040 N   0  0  0  0  0  0  0  0  0  0  0  0
   12.5310    9.0200   -3.2890 C   0  0  0  0  0  0  0  0  0  0  0  0
   12.3804    6.0116   -1.9162 H   0  0  0  0  0  0  0  0  0  0  0  0
   11.1187    5.6467   -4.1352 H   0  0  0  0  0  0  0  0  0  0  0  0
   11.0911    7.4658   -5.7291 H   0  0  0  0  0  0  0  0  0  0  0  0
   13.0141    9.9869   -3.0848 H   0  0  0  0  0  0  0  0  0  0  0  0
  1  2  1  0
  2  3  2  0
  3  4  1  0
  4  5  2  0
  5  6  1  0
  6  7  2  0
  7  2  1  0
  3  8  1  0
  4  9  1  0
  5 10  1  0
  7 11  1  0
M  END

>  <ID>
Pocket2Mol_22_num_sample_50

>  <docking_score>
-4.885

$$$$
Pocket2Mol_23_num_sample_50
     RDKit          3D

 15 16  0  0  0  0  0  0  0  0999 V2000
   12.9460    8.5820   -1.3320 O   0  0  0  0  0  0  0  0  0  0  0  0
   12.9240    8.4690   -2.6280 C   0  0  1  0  0  0  0  0  0  0  0  0
   12.1620    7.1690   -3.0010 C   0  0  2  0  0  0  0  0  0  0  0  0
   11.3530    6.6580   -4.1770 C   0  0  0  0  0  0  0  0  0  0  0  0
   11.5770    7.6180   -5.1750 C   0  0  0  0  0  0  0  0  0  0  0  0
   11.9430    8.7720   -4.6080 O   0  0  0  0  0  0  0  0  0  0  0  0
   11.8290    8.9100   -3.4240 C   0  0  2  0  0  0  0  0  0  0  0  0
   12.4930    9.4210   -1.0660 H   0  0  0  0  0  0  0  0  0  0  0  0
   13.9494    8.8327   -2.7903 H   0  0  0  0  0  0  0  0  0  0  0  0
   12.3113    6.2050   -2.4927 H   0  0  0  0  0  0  0  0  0  0  0  0
   11.7091    5.6679   -4.4978 H   0  0  0  0  0  0  0  0  0  0  0  0
   10.2867    6.5308   -3.9386 H   0  0  0  0  0  0  0  0  0  0  0  0
   12.3756    7.2697   -5.8464 H   0  0  0  0  0  0  0  0  0  0  0  0
   10.6531    7.7695   -5.7525 H   0  0  0  0  0  0  0  0  0  0  0  0
   11.1685    9.7808   -3.2994 H   0  0  0  0  0  0  0  0  0  0  0  0
  1  2  1  0
  2  3  1  0
  3  4  1  0
  4  5  1  0
  5  6  1  0
  6  7  1  0
  7  2  1  0
  7  3  1  0
  1  8  1  0
  2  9  1  6
  3 10  1  1
  4 11  1  0
  4 12  1  0
  5 13  1  0
  5 14  1  0
  7 15  1  6
M  END

>  <ID>
Pocket2Mol_23_num_sample_50

>  <docking_score>
-4.254

$$$$
Pocket2Mol_24_num_sample_50
     RDKit          3D

 15 15  0  0  0  0  0  0  0  0999 V2000
   11.0270    6.7030   -5.3770 C   0  0  0  0  0  0  0  0  0  0  0  0
   11.7450    7.6310   -4.4980 C   0  0  0  0  0  0  0  0  0  0  0  0
   11.9760    8.9090   -4.4350 C   0  0  0  0  0  0  0  0  0  0  0  0
   12.4680    9.4340   -3.4190 N   0  0  0  0  0  0  0  0  0  0  0  0
   12.5930    8.4750   -2.4850 C   0  0  0  0  0  0  0  0  0  0  0  0
   13.0080    8.5200   -1.1390 N   0  0  0  0  0  0  0  0  0  0  0  0
   12.0800    7.2840   -3.0940 N   0  0  0  0  0  0  0  0  0  0  0  0
   10.4669    5.9791   -4.7668 H   0  0  0  0  0  0  0  0  0  0  0  0
   10.3273    7.2664   -6.0118 H   0  0  0  0  0  0  0  0  0  0  0  0
   11.7480    6.1672   -6.0118 H   0  0  0  0  0  0  0  0  0  0  0  0
   11.7307    9.5419   -5.3006 H   0  0  0  0  0  0  0  0  0  0  0  0
   12.7340   10.4240   -3.3130 H   0  0  0  0  0  0  0  0  0  0  0  0
   13.8800    9.0060   -0.8850 H   0  0  0  0  0  0  0  0  0  0  0  0
   12.4390    8.0660   -0.4100 H   0  0  0  0  0  0  0  0  0  0  0  0
   11.9660    6.3640   -2.6460 H   0  0  0  0  0  0  0  0  0  0  0  0
  1  2  1  0
  2  3  2  0
  3  4  1  0
  4  5  2  0
  5  6  1  0
  5  7  1  0
  7  2  1  0
  1  8  1  0
  1  9  1  0
  1 10  1  0
  3 11  1  0
  4 12  1  0
  6 13  1  0
  6 14  1  0
  7 15  1  0
M  CHG  1   4   1
M  END

>  <ID>
Pocket2Mol_24_num_sample_50

>  <docking_score>
-4.252

$$$$
Pocket2Mol_25_num_sample_50
     RDKit          3D

 15 15  0  0  0  0  0  0  0  0999 V2000
   12.7080    8.8230   -1.4930 O   0  0  0  0  0  0  0  0  0  0  0  0
   12.7490    8.4910   -2.7510 C   0  0  1  0  0  0  0  0  0  0  0  0
   12.0390    6.9970   -3.1050 C   0  0  0  0  0  0  0  0  0  0  0  0
   11.3180    6.6900   -4.4400 C   0  0  0  0  0  0  0  0  0  0  0  0
   11.3830    7.7970   -5.3360 C   0  0  0  0  0  0  0  0  0  0  0  0
   12.1530    8.7910   -4.8790 O   0  0  0  0  0  0  0  0  0  0  0  0
   12.0100    9.1790   -3.7560 C   0  0  0  0  0  0  0  0  0  0  0  0
   13.6180    9.0630   -1.1860 H   0  0  0  0  0  0  0  0  0  0  0  0
   13.8354    8.6536   -2.8089 H   0  0  0  0  0  0  0  0  0  0  0  0
   12.0924    6.2019   -2.3467 H   0  0  0  0  0  0  0  0  0  0  0  0
   10.8182    5.7372   -4.6686 H   0  0  0  0  0  0  0  0  0  0  0  0
   11.7923    7.4485   -6.2957 H   0  0  0  0  0  0  0  0  0  0  0  0
   10.3628    8.1932   -5.4464 H   0  0  0  0  0  0  0  0  0  0  0  0
   12.3091   10.2371   -3.7265 H   0  0  0  0  0  0  0  0  0  0  0  0
   10.9516    8.9990   -3.5163 H   0  0  0  0  0  0  0  0  0  0  0  0
  1  2  1  0
  2  3  1  0
  3  4  2  0
  4  5  1  0
  5  6  1  0
  6  7  1  0
  7  2  1  0
  1  8  1  0
  2  9  1  6
  3 10  1  0
  4 11  1  0
  5 12  1  0
  5 13  1  0
  7 14  1  0
  7 15  1  0
M  END

>  <ID>
Pocket2Mol_25_num_sample_50

>  <docking_score>
-4.594

$$$$
Pocket2Mol_26_num_sample_50
     RDKit          3D

 15 15  0  0  0  0  0  0  0  0999 V2000
   12.5520    8.3710   -1.5910 C   0  0  0  0  0  0  0  0  0  0  0  0
   12.6020    7.9160   -2.8400 C   0  0  0  0  0  0  0  0  0  0  0  0
   11.9000    6.8150   -3.1220 C   0  0  0  0  0  0  0  0  0  0  0  0
   11.4310    6.6360   -4.4540 C   0  0  0  0  0  0  0  0  0  0  0  0
   11.3560    7.9450   -5.1900 C   0  0  0  0  0  0  0  0  0  0  0  0
   11.9450    9.0300   -4.6090 C   0  0  0  0  0  0  0  0  0  0  0  0
   12.8480    8.7510   -3.6620 O   0  0  0  0  0  0  0  0  0  0  0  0
   12.6446    7.5285   -0.8899 H   0  0  0  0  0  0  0  0  0  0  0  0
   13.3778    9.0785   -1.4252 H   0  0  0  0  0  0  0  0  0  0  0  0
   11.5923    8.8823   -1.4252 H   0  0  0  0  0  0  0  0  0  0  0  0
   11.6897    6.0657   -2.3446 H   0  0  0  0  0  0  0  0  0  0  0  0
   11.1581    5.6635   -4.8896 H   0  0  0  0  0  0  0  0  0  0  0  0
   10.8452    8.0250   -6.1609 H   0  0  0  0  0  0  0  0  0  0  0  0
   12.4479    9.6074   -5.3987 H   0  0  0  0  0  0  0  0  0  0  0  0
   11.1373    9.5822   -4.1063 H   0  0  0  0  0  0  0  0  0  0  0  0
  1  2  1  0
  2  3  2  0
  3  4  1  0
  4  5  2  0
  5  6  1  0
  6  7  1  0
  7  2  1  0
  1  8  1  0
  1  9  1  0
  1 10  1  0
  3 11  1  0
  4 12  1  0
  5 13  1  0
  6 14  1  0
  6 15  1  0
M  END

>  <ID>
Pocket2Mol_26_num_sample_50

>  <docking_score>
-4.942

$$$$
Pocket2Mol_27_num_sample_50
     RDKit          3D

 13 13  0  0  0  0  0  0  0  0999 V2000
   11.9270    6.4280   -2.3560 O   0  0  0  0  0  0  0  0  0  0  0  0
   11.7390    7.1240   -3.6050 C   0  0  0  0  0  0  0  0  0  0  0  0
   11.2250    6.5490   -4.6710 C   0  0  0  0  0  0  0  0  0  0  0  0
   11.1040    7.2880   -5.8290 C   0  0  0  0  0  0  0  0  0  0  0  0
   11.5470    8.5500   -5.8630 N   0  0  0  0  0  0  0  0  0  0  0  0
   12.0530    9.0760   -4.8550 C   0  0  0  0  0  0  0  0  0  0  0  0
   12.0660    8.4710   -3.7040 C   0  0  0  0  0  0  0  0  0  0  0  0
   12.7550    9.0330   -2.4420 O   0  0  0  0  0  0  0  0  0  0  0  0
   12.4290    6.8580   -1.6200 H   0  0  0  0  0  0  0  0  0  0  0  0
   10.8981    5.4992   -4.6391 H   0  0  0  0  0  0  0  0  0  0  0  0
   10.6443    6.8409   -6.7227 H   0  0  0  0  0  0  0  0  0  0  0  0
   12.5003   10.0774   -4.9398 H   0  0  0  0  0  0  0  0  0  0  0  0
   12.2090    9.4020   -1.7030 H   0  0  0  0  0  0  0  0  0  0  0  0
  1  2  1  0
  2  3  2  0
  3  4  1  0
  4  5  2  0
  5  6  1  0
  6  7  2  0
  7  8  1  0
  7  2  1  0
  1  9  1  0
  3 10  1  0
  4 11  1  0
  6 12  1  0
  8 13  1  0
M  END

>  <ID>
Pocket2Mol_27_num_sample_50

>  <docking_score>
-4.505

$$$$
Pocket2Mol_28_num_sample_50
     RDKit          3D

 18 18  0  0  0  0  0  0  0  0999 V2000
    7.9050    5.5240   -9.0530 O   0  0  0  0  0  0  0  0  0  0  0  0
    9.1520    5.7170   -8.7380 C   0  0  0  0  0  0  0  0  0  0  0  0
    9.5600    6.2320   -7.4740 C   0  0  0  0  0  0  0  0  0  0  0  0
   10.7390    6.3400   -7.3000 O   0  0  0  0  0  0  0  0  0  0  0  0
   11.3630    7.4590   -7.6840 C   0  0  0  0  0  0  0  0  0  0  0  0
   10.5010    8.2210   -8.4870 C   0  0  0  0  0  0  0  0  0  0  0  0
   10.9600    7.3600   -9.6920 O   0  0  0  0  0  0  0  0  0  0  0  0
    9.6790    6.9110   -9.8210 C   0  0  0  0  0  0  0  0  0  0  0  0
    7.5720    6.2980   -9.5720 H   0  0  0  0  0  0  0  0  0  0  0  0
    9.5555    4.6937   -8.7453 H   0  0  0  0  0  0  0  0  0  0  0  0
    9.1116    7.2298   -7.3583 H   0  0  0  0  0  0  0  0  0  0  0  0
    9.2213    5.4925   -6.7334 H   0  0  0  0  0  0  0  0  0  0  0  0
   11.6495    8.0425   -6.7966 H   0  0  0  0  0  0  0  0  0  0  0  0
   12.2649    7.1986   -8.2573 H   0  0  0  0  0  0  0  0  0  0  0  0
    9.4348    8.1235   -8.2346 H   0  0  0  0  0  0  0  0  0  0  0  0
   10.5555    9.3194   -8.5098 H   0  0  0  0  0  0  0  0  0  0  0  0
    9.0129    7.7785   -9.7038 H   0  0  0  0  0  0  0  0  0  0  0  0
    9.6517    6.4248  -10.8073 H   0  0  0  0  0  0  0  0  0  0  0  0
  1  2  1  0
  2  3  1  0
  3  4  1  0
  4  5  1  0
  5  6  1  0
  6  7  1  0
  7  8  1  0
  8  2  1  0
  1  9  1  0
  2 10  1  0
  3 11  1  0
  3 12  1  0
  5 13  1  0
  5 14  1  0
  6 15  1  0
  6 16  1  0
  8 17  1  0
  8 18  1  0
M  END

>  <ID>
Pocket2Mol_28_num_sample_50

>  <docking_score>
-3.996

$$$$
Pocket2Mol_29_num_sample_50
     RDKit          3D

 14 14  0  0  0  0  0  0  0  0999 V2000
   11.0800    7.4060   -6.4560 C   0  0  0  0  0  0  0  0  0  0  0  0
   11.1780    6.5930   -5.2880 O   0  0  0  0  0  0  0  0  0  0  0  0
   11.6690    7.2940   -4.1150 C   0  0  0  0  0  0  0  0  0  0  0  0
   11.8160    6.6750   -2.9280 C   0  0  0  0  0  0  0  0  0  0  0  0
   12.4500    7.3300   -2.0000 C   0  0  0  0  0  0  0  0  0  0  0  0
   12.7820    8.5200   -2.1530 N   0  0  0  0  0  0  0  0  0  0  0  0
   12.4110    9.0410   -3.4350 C   0  0  0  0  0  0  0  0  0  0  0  0
   11.9330    8.4430   -4.3630 N   0  0  0  0  0  0  0  0  0  0  0  0
   10.9532    8.4581   -6.1609 H   0  0  0  0  0  0  0  0  0  0  0  0
   11.9973    7.3009   -7.0539 H   0  0  0  0  0  0  0  0  0  0  0  0
   10.2139    7.0860   -7.0539 H   0  0  0  0  0  0  0  0  0  0  0  0
   11.4191    5.6644   -2.7517 H   0  0  0  0  0  0  0  0  0  0  0  0
   12.6987    6.8202   -1.0575 H   0  0  0  0  0  0  0  0  0  0  0  0
   12.5839   10.1163   -3.5892 H   0  0  0  0  0  0  0  0  0  0  0  0
  1  2  1  0
  2  3  1  0
  3  4  2  0
  4  5  1  0
  5  6  2  0
  6  7  1  0
  7  8  2  0
  8  3  1  0
  1  9  1  0
  1 10  1  0
  1 11  1  0
  4 12  1  0
  5 13  1  0
  7 14  1  0
M  END

>  <ID>
Pocket2Mol_29_num_sample_50

>  <docking_score>
-4.427

$$$$
Pocket2Mol_2_num_sample_50
     RDKit          3D

 11 10  0  0  0  0  0  0  0  0999 V2000
   12.2420    9.1850   -3.1620 C   0  0  0  0  0  0  0  0  0  0  0  0
   12.6570    7.9160   -3.0730 O   0  0  0  0  0  0  0  0  0  0  0  0
   11.8510    7.0310   -3.0740 C   0  0  0  0  0  0  0  0  0  0  0  0
   11.4590    6.6420   -4.2850 C   0  0  0  0  0  0  0  0  0  0  0  0
   11.2790    6.5850   -2.0470 O   0  0  0  0  0  0  0  0  0  0  0  0
   12.1068    9.5983   -2.1516 H   0  0  0  0  0  0  0  0  0  0  0  0
   12.9927    9.7791   -3.7038 H   0  0  0  0  0  0  0  0  0  0  0  0
   11.2853    9.2208   -3.7038 H   0  0  0  0  0  0  0  0  0  0  0  0
   10.6812    5.8702   -4.1883 H   0  0  0  0  0  0  0  0  0  0  0  0
   11.0533    7.5047   -4.8338 H   0  0  0  0  0  0  0  0  0  0  0  0
   12.3185    6.2296   -4.8338 H   0  0  0  0  0  0  0  0  0  0  0  0
  1  2  1  0
  2  3  1  0
  3  4  1  0
  3  5  2  0
  1  6  1  0
  1  7  1  0
  1  8  1  0
  4  9  1  0
  4 10  1  0
  4 11  1  0
M  END

>  <ID>
Pocket2Mol_2_num_sample_50

>  <docking_score>
-3.262

$$$$
Pocket2Mol_30_num_sample_50
     RDKit          3D

 20 21  0  0  0  0  0  0  0  0999 V2000
   12.5820    8.2540   -8.3390 C   0  0  0  0  0  0  0  0  0  0  0  0
   11.6110    7.7480   -7.5830 C   0  0  1  0  0  0  0  0  0  0  0  0
   10.4830    7.3440   -8.3050 C   0  0  0  0  0  0  0  0  0  0  0  0
   10.0180    5.9060   -7.8800 C   0  0  0  0  0  0  0  0  0  0  0  0
   11.3270    6.2000   -6.7630 C   0  0  2  0  0  0  0  0  0  0  0  0
   11.0840    6.7240   -5.2770 C   0  0  0  0  0  0  0  0  0  0  0  0
   11.3620    8.1250   -5.4390 C   0  0  0  0  0  0  0  0  0  0  0  0
   11.2200    8.4800   -6.7210 O   0  0  0  0  0  0  0  0  0  0  0  0
   13.3721    8.6657   -7.6939 H   0  0  0  0  0  0  0  0  0  0  0  0
   13.0034    7.4608   -8.9740 H   0  0  0  0  0  0  0  0  0  0  0  0
   12.1732    9.0538   -8.9740 H   0  0  0  0  0  0  0  0  0  0  0  0
    9.6646    8.0549   -8.1183 H   0  0  0  0  0  0  0  0  0  0  0  0
   10.7441    7.3226   -9.3733 H   0  0  0  0  0  0  0  0  0  0  0  0
    9.0103    5.8221   -7.4469 H   0  0  0  0  0  0  0  0  0  0  0  0
    9.9055    5.0335   -8.5403 H   0  0  0  0  0  0  0  0  0  0  0  0
   11.9634    5.3147   -6.6174 H   0  0  0  0  0  0  0  0  0  0  0  0
   10.0477    6.5516   -4.9509 H   0  0  0  0  0  0  0  0  0  0  0  0
   11.6944    6.2232   -4.5110 H   0  0  0  0  0  0  0  0  0  0  0  0
   10.6629    8.7078   -4.8212 H   0  0  0  0  0  0  0  0  0  0  0  0
   12.3972    8.3237   -5.1246 H   0  0  0  0  0  0  0  0  0  0  0  0
  2  1  1  6
  2  3  1  0
  3  4  1  0
  4  5  1  0
  5  6  1  0
  6  7  1  0
  7  8  1  0
  5  2  1  0
  8  2  1  0
  1  9  1  0
  1 10  1  0
  1 11  1  0
  3 12  1  0
  3 13  1  0
  4 14  1  0
  4 15  1  0
  5 16  1  1
  6 17  1  0
  6 18  1  0
  7 19  1  0
  7 20  1  0
M  END

>  <ID>
Pocket2Mol_30_num_sample_50

>  <docking_score>
-5.176

$$$$
Pocket2Mol_31_num_sample_50
     RDKit          3D

 17 18  0  0  0  0  0  0  0  0999 V2000
   11.0800    7.1360   -6.0280 C   0  0  0  0  0  0  0  0  0  0  0  0
   11.4960    8.6020   -6.1670 C   0  0  0  0  0  0  0  0  0  0  0  0
   11.9620    9.3050   -5.0960 C   0  0  0  0  0  0  0  0  0  0  0  0
   12.0620    8.6840   -3.8700 C   0  0  0  0  0  0  0  0  0  0  0  0
   11.7250    7.3450   -3.9220 C   0  0  0  0  0  0  0  0  0  0  0  0
   11.2370    6.4970   -4.9010 C   0  0  0  0  0  0  0  0  0  0  0  0
   12.0150    6.9180   -2.4340 C   0  0  0  0  0  0  0  0  0  0  0  0
   12.5910    8.1350   -1.7610 C   0  0  0  0  0  0  0  0  0  0  0  0
   12.4860    9.0930   -2.6890 O   0  0  0  0  0  0  0  0  0  0  0  0
   10.6421    6.6129   -6.8909 H   0  0  0  0  0  0  0  0  0  0  0  0
   11.4178    9.0964   -7.1465 H   0  0  0  0  0  0  0  0  0  0  0  0
   12.2557   10.3590   -5.2095 H   0  0  0  0  0  0  0  0  0  0  0  0
   11.0123    5.4308   -4.7499 H   0  0  0  0  0  0  0  0  0  0  0  0
   11.0839    6.6098   -1.9359 H   0  0  0  0  0  0  0  0  0  0  0  0
   12.7069    6.0642   -2.3861 H   0  0  0  0  0  0  0  0  0  0  0  0
   12.0136    8.3956   -0.8617 H   0  0  0  0  0  0  0  0  0  0  0  0
   13.6263    7.9833   -1.4216 H   0  0  0  0  0  0  0  0  0  0  0  0
  1  2  2  0
  2  3  1  0
  3  4  2  0
  4  5  1  0
  5  6  2  0
  5  7  1  0
  7  8  1  0
  8  9  1  0
  6  1  1  0
  9  4  1  0
  1 10  1  0
  2 11  1  0
  3 12  1  0
  6 13  1  0
  7 14  1  0
  7 15  1  0
  8 16  1  0
  8 17  1  0
M  END

>  <ID>
Pocket2Mol_31_num_sample_50

>  <docking_score>
-6.323

$$$$
Pocket2Mol_32_num_sample_50
     RDKit          3D

 12 12  0  0  0  0  0  0  0  0999 V2000
   12.3150    7.0660   -2.2390 C   0  0  0  0  0  0  0  0  0  0  0  0
   12.5780    8.0520   -1.4340 C   0  0  0  0  0  0  0  0  0  0  0  0
   12.4170    9.2380   -1.7800 N   0  0  0  0  0  0  0  0  0  0  0  0
   12.1190    9.1000   -3.1630 C   0  0  0  0  0  0  0  0  0  0  0  0
   12.1380    7.7590   -3.5330 C   0  0  0  0  0  0  0  0  0  0  0  0
   12.2427    5.9915   -2.0150 H   0  0  0  0  0  0  0  0  0  0  0  0
   12.9518    7.8340   -0.4227 H   0  0  0  0  0  0  0  0  0  0  0  0
   12.4820   10.0950   -1.2120 H   0  0  0  0  0  0  0  0  0  0  0  0
   11.1204    9.5164   -3.3617 H   0  0  0  0  0  0  0  0  0  0  0  0
   12.8780    9.6414   -3.7467 H   0  0  0  0  0  0  0  0  0  0  0  0
   11.1924    7.4668   -4.0131 H   0  0  0  0  0  0  0  0  0  0  0  0
   12.9223    7.5201   -4.2664 H   0  0  0  0  0  0  0  0  0  0  0  0
  1  2  2  0
  2  3  1  0
  3  4  1  0
  4  5  1  0
  5  1  1  0
  1  6  1  0
  2  7  1  0
  3  8  1  0
  4  9  1  0
  4 10  1  0
  5 11  1  0
  5 12  1  0
M  END

>  <ID>
Pocket2Mol_32_num_sample_50

>  <docking_score>
-3.826

$$$$
Pocket2Mol_33_num_sample_50
     RDKit          3D

 21 22  0  0  0  0  0  0  0  0999 V2000
   10.9650    6.6170   -6.1920 C   0  0  0  0  0  0  0  0  0  0  0  0
   10.9590    7.7730   -6.8510 C   0  0  1  0  0  0  0  0  0  0  0  0
   11.0420    8.8970   -6.0230 C   0  0  0  0  0  0  0  0  0  0  0  0
   12.2090    9.8330   -6.4960 C   0  0  0  0  0  0  0  0  0  0  0  0
   12.8560    9.1590   -7.4300 O   0  0  0  0  0  0  0  0  0  0  0  0
   12.1240    7.9880   -7.9030 C   0  0  2  0  0  0  0  0  0  0  0  0
   11.3210    8.6370   -9.1080 C   0  0  0  0  0  0  0  0  0  0  0  0
   10.1770    8.0610   -8.8770 C   0  0  0  0  0  0  0  0  0  0  0  0
   10.0060    7.9380   -7.5570 O   0  0  0  0  0  0  0  0  0  0  0  0
   10.9640    6.8121   -5.1094 H   0  0  0  0  0  0  0  0  0  0  0  0
   10.0699    6.0370   -6.4609 H   0  0  0  0  0  0  0  0  0  0  0  0
   11.8661    6.0463   -6.4609 H   0  0  0  0  0  0  0  0  0  0  0  0
   10.0923    9.4505   -6.0653 H   0  0  0  0  0  0  0  0  0  0  0  0
   11.2399    8.5695   -4.9917 H   0  0  0  0  0  0  0  0  0  0  0  0
   11.8054   10.7690   -6.9095 H   0  0  0  0  0  0  0  0  0  0  0  0
   12.8719   10.1061   -5.6618 H   0  0  0  0  0  0  0  0  0  0  0  0
   12.7381    7.0953   -8.0928 H   0  0  0  0  0  0  0  0  0  0  0  0
   11.2618    9.7327   -9.0304 H   0  0  0  0  0  0  0  0  0  0  0  0
   11.7464    8.4930  -10.1122 H   0  0  0  0  0  0  0  0  0  0  0  0
    9.3654    8.6727   -9.2978 H   0  0  0  0  0  0  0  0  0  0  0  0
   10.1625    7.0661   -9.3461 H   0  0  0  0  0  0  0  0  0  0  0  0
  2  1  1  1
  2  3  1  0
  3  4  1  0
  4  5  1  0
  5  6  1  0
  6  7  1  0
  7  8  1  0
  8  9  1  0
  6  2  1  0
  9  2  1  0
  1 10  1  0
  1 11  1  0
  1 12  1  0
  3 13  1  0
  3 14  1  0
  4 15  1  0
  4 16  1  0
  6 17  1  6
  7 18  1  0
  7 19  1  0
  8 20  1  0
  8 21  1  0
M  END

>  <ID>
Pocket2Mol_33_num_sample_50

>  <docking_score>
-4.987

$$$$
Pocket2Mol_34_num_sample_50
     RDKit          3D

 16 17  0  0  0  0  0  0  0  0999 V2000
   11.4540    8.5680   -6.1650 C   0  0  0  0  0  0  0  0  0  0  0  0
   11.8970    9.2860   -5.0840 C   0  0  0  0  0  0  0  0  0  0  0  0
   12.0040    8.7350   -3.8630 C   0  0  0  0  0  0  0  0  0  0  0  0
   11.7390    7.3820   -3.9650 C   0  0  0  0  0  0  0  0  0  0  0  0
   11.2130    6.5600   -4.9450 C   0  0  0  0  0  0  0  0  0  0  0  0
   11.1430    7.2490   -6.1930 N   0  0  0  0  0  0  0  0  0  0  0  0
   11.9590    6.7670   -2.5630 C   0  0  0  0  0  0  0  0  0  0  0  0
   12.7530    8.1070   -1.8450 C   0  0  0  0  0  0  0  0  0  0  0  0
   12.5100    9.1050   -2.7020 O   0  0  0  0  0  0  0  0  0  0  0  0
   11.3389    9.1208   -7.1090 H   0  0  0  0  0  0  0  0  0  0  0  0
   12.1724   10.3422   -5.2201 H   0  0  0  0  0  0  0  0  0  0  0  0
   10.8931    5.5198   -4.7849 H   0  0  0  0  0  0  0  0  0  0  0  0
   11.0114    6.5243   -2.0599 H   0  0  0  0  0  0  0  0  0  0  0  0
   12.4994    5.8094   -2.5325 H   0  0  0  0  0  0  0  0  0  0  0  0
   12.3327    8.3286   -0.8529 H   0  0  0  0  0  0  0  0  0  0  0  0
   13.8266    7.9332   -1.6804 H   0  0  0  0  0  0  0  0  0  0  0  0
  1  2  2  0
  2  3  1  0
  3  4  2  0
  4  5  1  0
  5  6  2  0
  4  7  1  0
  7  8  1  0
  8  9  1  0
  6  1  1  0
  9  3  1  0
  1 10  1  0
  2 11  1  0
  5 12  1  0
  7 13  1  0
  7 14  1  0
  8 15  1  0
  8 16  1  0
M  END

>  <ID>
Pocket2Mol_34_num_sample_50

>  <docking_score>
-5.518

$$$$
Pocket2Mol_35_num_sample_50
     RDKit          3D

 15 16  0  0  0  0  0  0  0  0999 V2000
   12.4090    7.8850   -2.4920 C   0  0  0  0  0  0  0  0  0  0  0  0
   11.8880    6.7290   -3.1390 C   0  0  0  0  0  0  0  0  0  0  0  0
   11.4080    6.6670   -4.5160 C   0  0  0  0  0  0  0  0  0  0  0  0
   11.4140    7.8190   -5.2090 C   0  0  0  0  0  0  0  0  0  0  0  0
   12.0090    8.8740   -4.5410 C   0  0  0  0  0  0  0  0  0  0  0  0
   12.4140    9.1010   -3.2380 C   0  0  0  0  0  0  0  0  0  0  0  0
   11.8530   10.0000   -5.7020 O   0  0  0  0  0  0  0  0  0  0  0  0
   11.6280    9.2230   -6.9450 C   0  0  0  0  0  0  0  0  0  0  0  0
   11.1830    8.0470   -6.4880 O   0  0  0  0  0  0  0  0  0  0  0  0
   12.7912    7.8425   -1.4614 H   0  0  0  0  0  0  0  0  0  0  0  0
   11.8432    5.8013   -2.5496 H   0  0  0  0  0  0  0  0  0  0  0  0
   11.0589    5.7251   -4.9642 H   0  0  0  0  0  0  0  0  0  0  0  0
   12.7002   10.0829   -2.8332 H   0  0  0  0  0  0  0  0  0  0  0  0
   10.8762    9.7088   -7.5844 H   0  0  0  0  0  0  0  0  0  0  0  0
   12.5293    9.1327   -7.5691 H   0  0  0  0  0  0  0  0  0  0  0  0
  1  2  2  0
  2  3  1  0
  3  4  2  0
  4  5  1  0
  5  6  2  0
  5  7  1  0
  7  8  1  0
  8  9  1  0
  6  1  1  0
  9  4  1  0
  1 10  1  0
  2 11  1  0
  3 12  1  0
  6 13  1  0
  8 14  1  0
  8 15  1  0
M  END

>  <ID>
Pocket2Mol_35_num_sample_50

>  <docking_score>
-5.832

$$$$
Pocket2Mol_36_num_sample_50
     RDKit          3D

 17 18  0  0  0  0  0  0  0  0999 V2000
   10.7560    7.1920   -6.0760 C   0  0  0  0  0  0  0  0  0  0  0  0
   11.2860    8.6470   -6.1180 C   0  0  0  0  0  0  0  0  0  0  0  0
   11.9810    9.4440   -5.2080 C   0  0  0  0  0  0  0  0  0  0  0  0
   12.0590    8.6990   -3.9990 C   0  0  0  0  0  0  0  0  0  0  0  0
   12.3990    9.1070   -2.7920 O   0  0  0  0  0  0  0  0  0  0  0  0
   12.4350    8.1510   -1.8570 C   0  0  0  0  0  0  0  0  0  0  0  0
   11.9480    6.9050   -2.5450 C   0  0  0  0  0  0  0  0  0  0  0  0
   11.7200    7.3600   -4.0730 C   0  0  0  0  0  0  0  0  0  0  0  0
   11.3000    6.5130   -5.0830 C   0  0  0  0  0  0  0  0  0  0  0  0
   10.0213    6.7780   -6.7823 H   0  0  0  0  0  0  0  0  0  0  0  0
   11.0683    9.1605   -7.0661 H   0  0  0  0  0  0  0  0  0  0  0  0
   12.9906    9.6616   -5.5865 H   0  0  0  0  0  0  0  0  0  0  0  0
   11.4720   10.4064   -5.0510 H   0  0  0  0  0  0  0  0  0  0  0  0
   12.7528    8.2540   -0.8090 H   0  0  0  0  0  0  0  0  0  0  0  0
   11.7849    5.9102   -2.1049 H   0  0  0  0  0  0  0  0  0  0  0  0
   12.1654    5.9507   -5.4637 H   0  0  0  0  0  0  0  0  0  0  0  0
   10.5441    5.8272   -4.6727 H   0  0  0  0  0  0  0  0  0  0  0  0
  1  2  2  0
  2  3  1  0
  3  4  1  0
  4  5  1  0
  5  6  1  0
  6  7  2  0
  7  8  1  0
  8  9  1  0
  9  1  1  0
  8  4  2  0
  1 10  1  0
  2 11  1  0
  3 12  1  0
  3 13  1  0
  6 14  1  0
  7 15  1  0
  9 16  1  0
  9 17  1  0
M  END

>  <ID>
Pocket2Mol_36_num_sample_50

>  <docking_score>
-6.217

$$$$
Pocket2Mol_37_num_sample_50
     RDKit          3D

 15 16  0  0  0  0  0  0  0  0999 V2000
   10.9470    7.2630   -6.0530 C   0  0  0  0  0  0  0  0  0  0  0  0
   11.2300    8.6020   -6.1010 C   0  0  0  0  0  0  0  0  0  0  0  0
   11.9190    9.4250   -5.2370 C   0  0  0  0  0  0  0  0  0  0  0  0
   12.0180    8.7230   -4.0050 C   0  0  0  0  0  0  0  0  0  0  0  0
   12.3720    9.1740   -2.8170 O   0  0  0  0  0  0  0  0  0  0  0  0
   12.4270    8.2510   -1.8510 C   0  0  0  0  0  0  0  0  0  0  0  0
   12.0030    6.9140   -2.5720 C   0  0  0  0  0  0  0  0  0  0  0  0
   11.6890    7.3800   -4.0290 C   0  0  0  0  0  0  0  0  0  0  0  0
   11.2610    6.4960   -5.0030 C   0  0  0  0  0  0  0  0  0  0  0  0
   10.4410    6.7994   -6.9127 H   0  0  0  0  0  0  0  0  0  0  0  0
   10.8355    9.1136   -6.9913 H   0  0  0  0  0  0  0  0  0  0  0  0
   12.3144   10.4276   -5.4572 H   0  0  0  0  0  0  0  0  0  0  0  0
   12.7043    8.3919   -0.7959 H   0  0  0  0  0  0  0  0  0  0  0  0
   11.9430    5.8996   -2.1509 H   0  0  0  0  0  0  0  0  0  0  0  0
   11.1935    5.4005   -4.9300 H   0  0  0  0  0  0  0  0  0  0  0  0
  1  2  2  0
  2  3  1  0
  3  4  2  0
  4  5  1  0
  5  6  1  0
  6  7  2  0
  7  8  1  0
  8  9  2  0
  9  1  1  0
  8  4  1  0
  1 10  1  0
  2 11  1  0
  3 12  1  0
  6 13  1  0
  7 14  1  0
  9 15  1  0
M  END

>  <ID>
Pocket2Mol_37_num_sample_50

>  <docking_score>
-6.228

$$$$
Pocket2Mol_38_num_sample_50
     RDKit          3D

 14 15  0  0  0  0  0  0  0  0999 V2000
   11.4820    8.6050   -6.0330 C   0  0  0  0  0  0  0  0  0  0  0  0
   12.0200    9.3380   -5.0770 C   0  0  0  0  0  0  0  0  0  0  0  0
   12.0690    8.7280   -3.8360 C   0  0  0  0  0  0  0  0  0  0  0  0
   12.5170    9.1210   -2.6580 O   0  0  0  0  0  0  0  0  0  0  0  0
   12.6440    8.1510   -1.7460 C   0  0  0  0  0  0  0  0  0  0  0  0
   12.0410    6.7530   -2.4910 C   0  0  0  0  0  0  0  0  0  0  0  0
   11.7340    7.3880   -3.8990 C   0  0  0  0  0  0  0  0  0  0  0  0
   11.2280    6.5520   -4.8790 C   0  0  0  0  0  0  0  0  0  0  0  0
   11.2140    7.2980   -6.1080 N   0  0  0  0  0  0  0  0  0  0  0  0
   11.2032    9.1735   -6.9325 H   0  0  0  0  0  0  0  0  0  0  0  0
   12.4001   10.3551   -5.2529 H   0  0  0  0  0  0  0  0  0  0  0  0
   13.0528    8.2413   -0.7288 H   0  0  0  0  0  0  0  0  0  0  0  0
   11.9069    5.7291   -2.1120 H   0  0  0  0  0  0  0  0  0  0  0  0
   10.8982    5.5114   -4.7431 H   0  0  0  0  0  0  0  0  0  0  0  0
  1  2  2  0
  2  3  1  0
  3  4  1  0
  4  5  1  0
  5  6  2  0
  6  7  1  0
  7  8  1  0
  8  9  2  0
  9  1  1  0
  7  3  2  0
  1 10  1  0
  2 11  1  0
  5 12  1  0
  6 13  1  0
  8 14  1  0
M  END

>  <ID>
Pocket2Mol_38_num_sample_50

>  <docking_score>
-5.58

$$$$
Pocket2Mol_39_num_sample_50
     RDKit          3D

 14 14  0  0  0  0  0  0  0  0999 V2000
   12.7950    9.5730   -6.3110 O   0  0  0  0  0  0  0  0  0  0  0  0
   11.9290    9.5630   -5.2320 C   0  0  0  0  0  0  0  0  0  0  0  0
   11.1000   10.3080   -5.3270 O   0  0  0  0  0  0  0  0  0  0  0  0
   12.0040    8.6280   -4.2320 C   0  0  0  0  0  0  0  0  0  0  0  0
   11.4790    7.2860   -4.3430 C   0  0  0  0  0  0  0  0  0  0  0  0
   11.9520    6.5820   -3.4980 O   0  0  0  0  0  0  0  0  0  0  0  0
   11.8800    6.9530   -2.2150 C   0  0  0  0  0  0  0  0  0  0  0  0
   12.5090    8.2170   -1.9880 C   0  0  0  0  0  0  0  0  0  0  0  0
   12.8560    8.7700   -3.3150 O   0  0  0  0  0  0  0  0  0  0  0  0
   10.7484    6.9579   -5.0970 H   0  0  0  0  0  0  0  0  0  0  0  0
   10.8214    7.0256   -1.9249 H   0  0  0  0  0  0  0  0  0  0  0  0
   12.4061    6.1980   -1.6124 H   0  0  0  0  0  0  0  0  0  0  0  0
   11.8181    8.8946   -1.4650 H   0  0  0  0  0  0  0  0  0  0  0  0
   13.4067    8.1028   -1.3626 H   0  0  0  0  0  0  0  0  0  0  0  0
  1  2  2  0
  2  3  1  0
  2  4  1  0
  4  5  2  0
  5  6  1  0
  6  7  1  0
  7  8  1  0
  8  9  1  0
  9  4  1  0
  5 10  1  0
  7 11  1  0
  7 12  1  0
  8 13  1  0
  8 14  1  0
M  CHG  1   3  -1
M  END

>  <ID>
Pocket2Mol_39_num_sample_50

>  <docking_score>
-4.624

$$$$
Pocket2Mol_3_num_sample_50
     RDKit          3D

  9  9  0  0  0  0  0  0  0  0999 V2000
    7.2170    4.9220   -0.0070 C   0  0  0  0  0  0  0  0  0  0  0  0
    6.5630    4.7760   -1.1210 C   0  0  0  0  0  0  0  0  0  0  0  0
    6.0980    3.6740   -1.4660 N   0  0  0  0  0  0  0  0  0  0  0  0
    6.8630    2.7940   -0.3850 N   0  0  0  0  0  0  0  0  0  0  0  0
    7.4420    3.5210    0.4060 C   0  0  0  0  0  0  0  0  0  0  0  0
    7.5239    5.8497    0.4982 H   0  0  0  0  0  0  0  0  0  0  0  0
    6.4168    5.6482   -1.7752 H   0  0  0  0  0  0  0  0  0  0  0  0
    6.8690    1.7630   -0.3560 H   0  0  0  0  0  0  0  0  0  0  0  0
    8.0294    3.1908    1.2754 H   0  0  0  0  0  0  0  0  0  0  0  0
  1  2  1  0
  2  3  2  0
  3  4  1  0
  4  5  1  0
  5  1  2  0
  1  6  1  0
  2  7  1  0
  4  8  1  0
  5  9  1  0
M  END

>  <ID>
Pocket2Mol_3_num_sample_50

>  <docking_score>
-3.877

$$$$
Pocket2Mol_40_num_sample_50
     RDKit          3D

 15 16  0  0  0  0  0  0  0  0999 V2000
   12.0710    6.9590   -3.0320 C   0  0  0  0  0  0  0  0  0  0  0  0
   12.6480    8.0950   -2.6900 C   0  0  0  0  0  0  0  0  0  0  0  0
   12.6070    9.2390   -3.6150 C   0  0  0  0  0  0  0  0  0  0  0  0
   11.9430    8.7810   -4.7390 C   0  0  0  0  0  0  0  0  0  0  0  0
   11.3480    7.5870   -5.1030 C   0  0  0  0  0  0  0  0  0  0  0  0
   11.3910    6.5350   -4.1480 C   0  0  0  0  0  0  0  0  0  0  0  0
   10.8010    7.5970   -6.3040 O   0  0  0  0  0  0  0  0  0  0  0  0
   10.9750    8.7260   -6.9990 C   0  0  0  0  0  0  0  0  0  0  0  0
   11.7880    9.9810   -5.8770 S   0  0  0  0  0  0  0  0  0  0  0  0
   12.1518    6.1837   -2.2559 H   0  0  0  0  0  0  0  0  0  0  0  0
   13.1568    8.1866   -1.7191 H   0  0  0  0  0  0  0  0  0  0  0  0
   13.0176   10.2457   -3.4479 H   0  0  0  0  0  0  0  0  0  0  0  0
   10.9487    5.5368   -4.2817 H   0  0  0  0  0  0  0  0  0  0  0  0
   11.6188    8.5322   -7.8696 H   0  0  0  0  0  0  0  0  0  0  0  0
   10.0066    9.1060   -7.3564 H   0  0  0  0  0  0  0  0  0  0  0  0
  1  2  2  0
  2  3  1  0
  3  4  2  0
  4  5  1  0
  5  6  2  0
  5  7  1  0
  7  8  1  0
  8  9  1  0
  6  1  1  0
  9  4  1  0
  1 10  1  0
  2 11  1  0
  3 12  1  0
  6 13  1  0
  8 14  1  0
  8 15  1  0
M  END

>  <ID>
Pocket2Mol_40_num_sample_50

>  <docking_score>
-5.726

$$$$
Pocket2Mol_41_num_sample_50
     RDKit          3D

 23 24  0  0  0  0  0  0  0  0999 V2000
   11.0520    6.6460   -5.5440 C   0  0  0  0  0  0  0  0  0  0  0  0
   10.8050    7.6450   -6.3880 C   0  0  1  0  0  0  0  0  0  0  0  0
   11.0490    8.9130   -5.8520 C   0  0  0  0  0  0  0  0  0  0  0  0
   11.9910    9.7310   -6.8040 C   0  0  0  0  0  0  0  0  0  0  0  0
   12.5570    8.7810   -7.6990 C   0  0  0  0  0  0  0  0  0  0  0  0
   11.6250    7.6390   -7.7430 C   0  0  2  0  0  0  0  0  0  0  0  0
   10.4900    8.0320   -8.7800 C   0  0  0  0  0  0  0  0  0  0  0  0
    9.4850    7.5180   -8.1330 C   0  0  0  0  0  0  0  0  0  0  0  0
    9.6880    7.6660   -6.8190 O   0  0  0  0  0  0  0  0  0  0  0  0
   10.9622    7.0092   -4.5096 H   0  0  0  0  0  0  0  0  0  0  0  0
   10.3271    5.8360   -5.7124 H   0  0  0  0  0  0  0  0  0  0  0  0
   12.0709    6.2671   -5.7124 H   0  0  0  0  0  0  0  0  0  0  0  0
   10.0951    9.4485   -5.7366 H   0  0  0  0  0  0  0  0  0  0  0  0
   11.5374    8.8011   -4.8727 H   0  0  0  0  0  0  0  0  0  0  0  0
   11.4133   10.4842   -7.3599 H   0  0  0  0  0  0  0  0  0  0  0  0
   12.7675   10.2692   -6.2406 H   0  0  0  0  0  0  0  0  0  0  0  0
   12.6660    9.2212   -8.7012 H   0  0  0  0  0  0  0  0  0  0  0  0
   13.5563    8.4658   -7.3643 H   0  0  0  0  0  0  0  0  0  0  0  0
   12.1708    6.7074   -7.9536 H   0  0  0  0  0  0  0  0  0  0  0  0
   10.3952    9.1208   -8.9047 H   0  0  0  0  0  0  0  0  0  0  0  0
   10.6329    7.6859   -9.8143 H   0  0  0  0  0  0  0  0  0  0  0  0
    8.5578    8.0340   -8.4228 H   0  0  0  0  0  0  0  0  0  0  0  0
    9.3959    6.4489   -8.3759 H   0  0  0  0  0  0  0  0  0  0  0  0
  2  1  1  1
  2  3  1  0
  3  4  1  0
  4  5  1  0
  5  6  1  0
  6  7  1  0
  7  8  1  0
  8  9  1  0
  6  2  1  0
  9  2  1  0
  1 10  1  0
  1 11  1  0
  1 12  1  0
  3 13  1  0
  3 14  1  0
  4 15  1  0
  4 16  1  0
  5 17  1  0
  5 18  1  0
  6 19  1  6
  7 20  1  0
  7 21  1  0
  8 22  1  0
  8 23  1  0
M  END

>  <ID>
Pocket2Mol_41_num_sample_50

>  <docking_score>
-5.401

$$$$
Pocket2Mol_42_num_sample_50
     RDKit          3D

 16 17  0  0  0  0  0  0  0  0999 V2000
   12.7610    8.5000   -2.4730 C   0  0  0  0  0  0  0  0  0  0  0  0
   12.4410    7.1940   -2.3800 C   0  0  0  0  0  0  0  0  0  0  0  0
   11.7380    6.5210   -3.2060 C   0  0  0  0  0  0  0  0  0  0  0  0
   11.3560    7.0950   -4.4220 C   0  0  0  0  0  0  0  0  0  0  0  0
   11.9070    8.3550   -4.5620 C   0  0  0  0  0  0  0  0  0  0  0  0
   12.4440    9.2890   -3.6940 C   0  0  0  0  0  0  0  0  0  0  0  0
   11.4200    8.9990   -5.9960 N   0  0  0  0  0  0  0  0  0  0  0  0
   11.1920    7.2730   -6.6510 C   0  0  0  0  0  0  0  0  0  0  0  0
   10.9440    6.5530   -5.5520 O   0  0  0  0  0  0  0  0  0  0  0  0
   13.2667    8.9924   -1.6293 H   0  0  0  0  0  0  0  0  0  0  0  0
   12.8249    6.6528   -1.5027 H   0  0  0  0  0  0  0  0  0  0  0  0
   11.4337    5.4925   -2.9617 H   0  0  0  0  0  0  0  0  0  0  0  0
   12.6002   10.3641   -3.8664 H   0  0  0  0  0  0  0  0  0  0  0  0
   11.2950    9.9510   -6.3710 H   0  0  0  0  0  0  0  0  0  0  0  0
   10.3447    7.2267   -7.3510 H   0  0  0  0  0  0  0  0  0  0  0  0
   12.0643    6.9094   -7.2140 H   0  0  0  0  0  0  0  0  0  0  0  0
  1  2  2  0
  2  3  1  0
  3  4  2  0
  4  5  1  0
  5  6  2  0
  5  7  1  0
  7  8  1  0
  8  9  1  0
  6  1  1  0
  9  4  1  0
  1 10  1  0
  2 11  1  0
  3 12  1  0
  6 13  1  0
  7 14  1  0
  8 15  1  0
  8 16  1  0
M  END

>  <ID>
Pocket2Mol_42_num_sample_50

>  <docking_score>
-5.752

$$$$
Pocket2Mol_43_num_sample_50
     RDKit          3D

  8  8  0  0  0  0  0  0  0  0999 V2000
   12.0620    6.9290   -2.3270 C   0  0  0  0  0  0  0  0  0  0  0  0
   12.5930    8.0880   -2.0720 C   0  0  0  0  0  0  0  0  0  0  0  0
   12.3600    8.9630   -3.4100 S   0  0  0  0  0  0  0  0  0  0  0  0
   11.6490    7.5420   -4.4490 C   0  0  0  0  0  0  0  0  0  0  0  0
   11.6600    6.6320   -3.4680 N   0  0  0  0  0  0  0  0  0  0  0  0
   11.9654    6.1928   -1.5155 H   0  0  0  0  0  0  0  0  0  0  0  0
   13.0932    8.4047   -1.1449 H   0  0  0  0  0  0  0  0  0  0  0  0
   11.3344    7.4857   -5.5015 H   0  0  0  0  0  0  0  0  0  0  0  0
  1  2  2  0
  2  3  1  0
  3  4  1  0
  4  5  2  0
  5  1  1  0
  1  6  1  0
  2  7  1  0
  4  8  1  0
M  END

>  <ID>
Pocket2Mol_43_num_sample_50

>  <docking_score>
-2.908

$$$$
Pocket2Mol_44_num_sample_50
     RDKit          3D

 14 15  0  0  0  0  0  0  0  0999 V2000
   12.4240    7.5470   -1.9200 C   0  0  0  0  0  0  0  0  0  0  0  0
   11.9540    6.6020   -2.7900 C   0  0  0  0  0  0  0  0  0  0  0  0
   11.5380    6.9460   -4.0360 C   0  0  0  0  0  0  0  0  0  0  0  0
   11.8160    8.2840   -4.2470 C   0  0  0  0  0  0  0  0  0  0  0  0
   12.2050    9.3400   -3.4420 C   0  0  0  0  0  0  0  0  0  0  0  0
   12.6160    8.8670   -2.1590 N   0  0  0  0  0  0  0  0  0  0  0  0
   11.2320    8.4100   -5.7930 O   0  0  0  0  0  0  0  0  0  0  0  0
   11.2120    6.9990   -6.2550 C   0  0  0  0  0  0  0  0  0  0  0  0
   11.1770    6.2890   -5.1220 O   0  0  0  0  0  0  0  0  0  0  0  0
   12.6754    7.1945   -0.9088 H   0  0  0  0  0  0  0  0  0  0  0  0
   11.9124    5.5486   -2.4759 H   0  0  0  0  0  0  0  0  0  0  0  0
   12.1985   10.3966   -3.7478 H   0  0  0  0  0  0  0  0  0  0  0  0
   10.3207    6.8009   -6.8685 H   0  0  0  0  0  0  0  0  0  0  0  0
   12.0770    6.7474   -6.8862 H   0  0  0  0  0  0  0  0  0  0  0  0
  1  2  2  0
  2  3  1  0
  3  4  2  0
  4  5  1  0
  5  6  2  0
  4  7  1  0
  7  8  1  0
  8  9  1  0
  6  1  1  0
  9  3  1  0
  1 10  1  0
  2 11  1  0
  5 12  1  0
  8 13  1  0
  8 14  1  0
M  END

>  <ID>
Pocket2Mol_44_num_sample_50

>  <docking_score>
-5.197

$$$$
Pocket2Mol_45_num_sample_50
     RDKit          3D

 13 13  0  0  0  0  0  0  0  0999 V2000
   12.6500    7.9170   -1.8900 C   0  0  0  0  0  0  0  0  0  0  0  0
   12.0090    6.7600   -2.3110 C   0  0  0  0  0  0  0  0  0  0  0  0
   11.6490    6.8500   -3.7520 C   0  0  0  0  0  0  0  0  0  0  0  0
   11.9660    8.0030   -3.9850 O   0  0  0  0  0  0  0  0  0  0  0  0
   12.3300    8.6170   -3.0210 C   0  0  0  0  0  0  0  0  0  0  0  0
   12.2135    8.3465   -0.9762 H   0  0  0  0  0  0  0  0  0  0  0  0
   13.7090    7.8505   -1.5999 H   0  0  0  0  0  0  0  0  0  0  0  0
   12.6792    5.9010   -2.1597 H   0  0  0  0  0  0  0  0  0  0  0  0
   11.0870    6.6343   -1.7244 H   0  0  0  0  0  0  0  0  0  0  0  0
   12.2263    6.1385   -4.3607 H   0  0  0  0  0  0  0  0  0  0  0  0
   10.6010    6.6060   -3.9804 H   0  0  0  0  0  0  0  0  0  0  0  0
   13.2239    9.1863   -3.3157 H   0  0  0  0  0  0  0  0  0  0  0  0
   11.4527    9.2144   -2.7319 H   0  0  0  0  0  0  0  0  0  0  0  0
  1  2  1  0
  2  3  1  0
  3  4  1  0
  4  5  1  0
  5  1  1  0
  1  6  1  0
  1  7  1  0
  2  8  1  0
  2  9  1  0
  3 10  1  0
  3 11  1  0
  5 12  1  0
  5 13  1  0
M  END

>  <ID>
Pocket2Mol_45_num_sample_50

>  <docking_score>
-3.648

$$$$
Pocket2Mol_46_num_sample_50
     RDKit          3D

  8  8  0  0  0  0  0  0  0  0999 V2000
   12.4740    8.7290   -3.0370 C   0  0  0  0  0  0  0  0  0  0  0  0
   12.6170    8.1180   -1.8980 C   0  0  0  0  0  0  0  0  0  0  0  0
   12.3300    6.7150   -2.2610 C   0  0  0  0  0  0  0  0  0  0  0  0
   11.6760    6.8940   -3.6850 C   0  0  0  0  0  0  0  0  0  0  0  0
   11.9630    8.1640   -4.0210 N   0  0  0  0  0  0  0  0  0  0  0  0
   12.8832    8.5378   -0.9167 H   0  0  0  0  0  0  0  0  0  0  0  0
   12.5210    5.7935   -1.6914 H   0  0  0  0  0  0  0  0  0  0  0  0
   11.1140    6.1505   -4.2693 H   0  0  0  0  0  0  0  0  0  0  0  0
  1  2  2  0
  2  3  1  0
  3  4  2  0
  4  5  1  0
  5  1  2  0
  2  6  1  0
  3  7  1  0
  4  8  1  0
M  END

>  <ID>
Pocket2Mol_46_num_sample_50

>  <docking_score>
-3.695

$$$$
Pocket2Mol_47_num_sample_50
     RDKit          3D

 11 11  0  0  0  0  0  0  0  0999 V2000
   12.6030    8.1220   -2.0060 C   0  0  0  0  0  0  0  0  0  0  0  0
   12.3680    8.8960   -3.1480 C   0  0  0  0  0  0  0  0  0  0  0  0
   11.9070    8.1410   -4.1510 O   0  0  0  0  0  0  0  0  0  0  0  0
   11.6760    6.8390   -3.6150 C   0  0  0  0  0  0  0  0  0  0  0  0
   12.3580    6.6800   -2.3070 C   0  0  0  0  0  0  0  0  0  0  0  0
   12.9213    8.5176   -1.0302 H   0  0  0  0  0  0  0  0  0  0  0  0
   12.5396    9.9806   -3.2121 H   0  0  0  0  0  0  0  0  0  0  0  0
   10.5945    6.6918   -3.4782 H   0  0  0  0  0  0  0  0  0  0  0  0
   12.0780    6.0924   -4.3157 H   0  0  0  0  0  0  0  0  0  0  0  0
   11.7090    6.2048   -1.5567 H   0  0  0  0  0  0  0  0  0  0  0  0
   13.2492    6.0352   -2.3091 H   0  0  0  0  0  0  0  0  0  0  0  0
  1  2  2  0
  2  3  1  0
  3  4  1  0
  4  5  1  0
  5  1  1  0
  1  6  1  0
  2  7  1  0
  4  8  1  0
  4  9  1  0
  5 10  1  0
  5 11  1  0
M  END

>  <ID>
Pocket2Mol_47_num_sample_50

>  <docking_score>
-3.758

$$$$
Pocket2Mol_48_num_sample_50
     RDKit          3D

 13 12  0  0  0  0  0  0  0  0999 V2000
   11.4350    6.6730   -4.3370 C   0  0  0  0  0  0  0  0  0  0  0  0
   11.5290    6.6830   -3.0020 O   0  0  0  0  0  0  0  0  0  0  0  0
   12.4540    7.2350   -2.4800 C   0  0  0  0  0  0  0  0  0  0  0  0
   12.6080    8.5080   -2.8350 C   0  0  0  0  0  0  0  0  0  0  0  0
   12.0230    9.5900   -2.1550 O   0  0  0  0  0  0  0  0  0  0  0  0
   10.3806    6.5608   -4.6295 H   0  0  0  0  0  0  0  0  0  0  0  0
   11.8286    7.6181   -4.7394 H   0  0  0  0  0  0  0  0  0  0  0  0
   12.0186    5.8319   -4.7394 H   0  0  0  0  0  0  0  0  0  0  0  0
   12.3064    7.1975   -1.3906 H   0  0  0  0  0  0  0  0  0  0  0  0
   13.3606    6.7062   -2.8094 H   0  0  0  0  0  0  0  0  0  0  0  0
   13.6920    8.6941   -2.8148 H   0  0  0  0  0  0  0  0  0  0  0  0
   12.0494    8.5299   -3.7824 H   0  0  0  0  0  0  0  0  0  0  0  0
   12.2770    9.5540   -1.1990 H   0  0  0  0  0  0  0  0  0  0  0  0
  1  2  1  0
  2  3  1  0
  3  4  1  0
  4  5  1  0
  1  6  1  0
  1  7  1  0
  1  8  1  0
  3  9  1  0
  3 10  1  0
  4 11  1  0
  4 12  1  0
  5 13  1  0
M  END

>  <ID>
Pocket2Mol_48_num_sample_50

>  <docking_score>
-3.006

$$$$
Pocket2Mol_49_num_sample_50
     RDKit          3D

 11 11  0  0  0  0  0  0  0  0999 V2000
    6.7410    5.3690   -0.7660 C   0  0  0  0  0  0  0  0  0  0  0  0
    6.2310    4.3950   -1.5800 C   0  0  0  0  0  0  0  0  0  0  0  0
    6.7230    3.2590   -0.8400 O   0  0  0  0  0  0  0  0  0  0  0  0
    7.2860    3.7280    0.5040 C   0  0  0  0  0  0  0  0  0  0  0  0
    7.1640    5.0460    0.3090 O   0  0  0  0  0  0  0  0  0  0  0  0
    7.5673    5.8493   -1.3106 H   0  0  0  0  0  0  0  0  0  0  0  0
    5.8782    6.0118   -0.5371 H   0  0  0  0  0  0  0  0  0  0  0  0
    5.1323    4.4208   -1.6271 H   0  0  0  0  0  0  0  0  0  0  0  0
    6.5148    4.4470   -2.6415 H   0  0  0  0  0  0  0  0  0  0  0  0
    6.6832    3.3753    1.3538 H   0  0  0  0  0  0  0  0  0  0  0  0
    8.2949    3.3692    0.7556 H   0  0  0  0  0  0  0  0  0  0  0  0
  1  2  1  0
  2  3  1  0
  3  4  1  0
  4  5  1  0
  5  1  1  0
  1  6  1  0
  1  7  1  0
  2  8  1  0
  2  9  1  0
  4 10  1  0
  4 11  1  0
M  END

>  <ID>
Pocket2Mol_49_num_sample_50

>  <docking_score>
-3.419

$$$$
Pocket2Mol_4_num_sample_50
     RDKit          3D

 16 16  0  0  0  0  0  0  0  0999 V2000
   11.9540    6.9070   -2.4050 C   0  0  0  0  0  0  0  0  0  0  0  0
   12.7380    8.2440   -2.1360 C   0  0  0  0  0  0  0  0  0  0  0  0
   12.1320    9.1620   -3.0410 C   0  0  0  0  0  0  0  0  0  0  0  0
   12.3780    9.0050   -4.2020 O   0  0  0  0  0  0  0  0  0  0  0  0
   11.6280    8.1690   -4.9280 C   0  0  0  0  0  0  0  0  0  0  0  0
   11.6380    6.7930   -3.8080 C   0  0  0  0  0  0  0  0  0  0  0  0
   12.5766    6.0525   -2.1014 H   0  0  0  0  0  0  0  0  0  0  0  0
   11.0198    6.9136   -1.8243 H   0  0  0  0  0  0  0  0  0  0  0  0
   12.6102    8.5739   -1.0944 H   0  0  0  0  0  0  0  0  0  0  0  0
   13.8237    8.1454   -2.2827 H   0  0  0  0  0  0  0  0  0  0  0  0
   11.0418    9.0847   -2.9163 H   0  0  0  0  0  0  0  0  0  0  0  0
   12.5510   10.1460   -2.7837 H   0  0  0  0  0  0  0  0  0  0  0  0
   10.6141    8.5601   -5.0986 H   0  0  0  0  0  0  0  0  0  0  0  0
   11.9837    7.9636   -5.9484 H   0  0  0  0  0  0  0  0  0  0  0  0
   10.6271    6.3617   -3.8537 H   0  0  0  0  0  0  0  0  0  0  0  0
   12.5049    6.2248   -4.1762 H   0  0  0  0  0  0  0  0  0  0  0  0
  1  2  1  0
  2  3  1  0
  3  4  1  0
  4  5  1  0
  5  6  1  0
  6  1  1  0
  1  7  1  0
  1  8  1  0
  2  9  1  0
  2 10  1  0
  3 11  1  0
  3 12  1  0
  5 13  1  0
  5 14  1  0
  6 15  1  0
  6 16  1  0
M  END

>  <ID>
Pocket2Mol_4_num_sample_50

>  <docking_score>
-4.385

$$$$
Pocket2Mol_5_num_sample_50
     RDKit          3D

 14 14  0  0  0  0  0  0  0  0999 V2000
    6.3950    4.5330   -1.6250 C   0  0  0  0  0  0  0  0  0  0  0  0
    7.1420    5.4750   -0.9090 C   0  0  0  0  0  0  0  0  0  0  0  0
    6.8820    5.1380    0.5140 O   0  0  0  0  0  0  0  0  0  0  0  0
    7.4080    4.0810    0.9470 C   0  0  0  0  0  0  0  0  0  0  0  0
    7.2230    3.1000   -0.0890 C   0  0  0  0  0  0  0  0  0  0  0  0
    6.3670    3.3580   -0.9860 O   0  0  0  0  0  0  0  0  0  0  0  0
    5.3659    4.9035   -1.7420 H   0  0  0  0  0  0  0  0  0  0  0  0
    6.8657    4.3863   -2.6083 H   0  0  0  0  0  0  0  0  0  0  0  0
    8.2130    5.3833   -1.1426 H   0  0  0  0  0  0  0  0  0  0  0  0
    6.8633    6.5102   -1.1553 H   0  0  0  0  0  0  0  0  0  0  0  0
    8.4796    4.2373    1.1400 H   0  0  0  0  0  0  0  0  0  0  0  0
    6.9522    3.7602    1.8953 H   0  0  0  0  0  0  0  0  0  0  0  0
    8.1930    2.9595   -0.5883 H   0  0  0  0  0  0  0  0  0  0  0  0
    6.8311    2.2122    0.4289 H   0  0  0  0  0  0  0  0  0  0  0  0
  1  2  1  0
  2  3  1  0
  3  4  1  0
  4  5  1  0
  5  6  1  0
  6  1  1  0
  1  7  1  0
  1  8  1  0
  2  9  1  0
  2 10  1  0
  4 11  1  0
  4 12  1  0
  5 13  1  0
  5 14  1  0
M  END

>  <ID>
Pocket2Mol_5_num_sample_50

>  <docking_score>
-3.357

$$$$
Pocket2Mol_6_num_sample_50
     RDKit          3D

 11 11  0  0  0  0  0  0  0  0999 V2000
   11.9950    6.6940   -2.6980 C   0  0  0  0  0  0  0  0  0  0  0  0
   12.4000    7.7920   -2.0320 C   0  0  0  0  0  0  0  0  0  0  0  0
   12.5050    8.8900   -2.7210 C   0  0  0  0  0  0  0  0  0  0  0  0
   12.1200    8.9580   -3.9030 N   0  0  0  0  0  0  0  0  0  0  0  0
   11.6460    7.9840   -4.5960 C   0  0  0  0  0  0  0  0  0  0  0  0
   11.5750    6.7160   -3.9600 C   0  0  0  0  0  0  0  0  0  0  0  0
   12.0124    5.7286   -2.1711 H   0  0  0  0  0  0  0  0  0  0  0  0
   12.6309    7.7617   -0.9569 H   0  0  0  0  0  0  0  0  0  0  0  0
   12.9447    9.7804   -2.2479 H   0  0  0  0  0  0  0  0  0  0  0  0
   11.3108    8.1263   -5.6340 H   0  0  0  0  0  0  0  0  0  0  0  0
   11.2003    5.8182   -4.4733 H   0  0  0  0  0  0  0  0  0  0  0  0
  1  2  2  0
  2  3  1  0
  3  4  2  0
  4  5  1  0
  5  6  2  0
  6  1  1  0
  1  7  1  0
  2  8  1  0
  3  9  1  0
  5 10  1  0
  6 11  1  0
M  END

>  <ID>
Pocket2Mol_6_num_sample_50

>  <docking_score>
-4.346

$$$$
Pocket2Mol_7_num_sample_50
     RDKit          3D

 13 13  0  0  0  0  0  0  0  0999 V2000
   11.2020    6.5610   -5.0000 C   0  0  0  0  0  0  0  0  0  0  0  0
   11.8090    7.4070   -3.9680 C   0  0  0  0  0  0  0  0  0  0  0  0
   12.0120    8.6750   -3.7650 C   0  0  0  0  0  0  0  0  0  0  0  0
   12.3850    9.1070   -2.6580 N   0  0  0  0  0  0  0  0  0  0  0  0
   12.4220    8.0660   -1.8070 C   0  0  0  0  0  0  0  0  0  0  0  0
   11.9690    6.7810   -2.4430 C   0  0  0  0  0  0  0  0  0  0  0  0
   10.6246    5.7562   -4.5215 H   0  0  0  0  0  0  0  0  0  0  0  0
   10.5332    7.1696   -5.6264 H   0  0  0  0  0  0  0  0  0  0  0  0
   11.9927    6.1224   -5.6264 H   0  0  0  0  0  0  0  0  0  0  0  0
   11.8504    9.3834   -4.5909 H   0  0  0  0  0  0  0  0  0  0  0  0
   12.7482    8.1460   -0.7595 H   0  0  0  0  0  0  0  0  0  0  0  0
   12.7266    5.9856   -2.3852 H   0  0  0  0  0  0  0  0  0  0  0  0
   11.0921    6.2810   -2.0060 H   0  0  0  0  0  0  0  0  0  0  0  0
  1  2  1  0
  2  3  2  0
  3  4  1  0
  4  5  2  0
  5  6  1  0
  6  2  1  0
  1  7  1  0
  1  8  1  0
  1  9  1  0
  3 10  1  0
  5 11  1  0
  6 12  1  0
  6 13  1  0
M  END

>  <ID>
Pocket2Mol_7_num_sample_50

>  <docking_score>
-4.352

$$$$
Pocket2Mol_8_num_sample_50
     RDKit          3D

 12 12  0  0  0  0  0  0  0  0999 V2000
   11.1680    6.5940   -5.2580 C   0  0  0  0  0  0  0  0  0  0  0  0
   11.5970    7.1500   -3.9710 C   0  0  0  0  0  0  0  0  0  0  0  0
   11.9570    6.7020   -2.8060 C   0  0  0  0  0  0  0  0  0  0  0  0
   12.4770    7.4450   -1.9520 N   0  0  0  0  0  0  0  0  0  0  0  0
   12.6380    8.6570   -2.5140 C   0  0  0  0  0  0  0  0  0  0  0  0
   12.1210    8.5030   -3.8690 N   0  0  0  0  0  0  0  0  0  0  0  0
   10.5046    5.7342   -5.0831 H   0  0  0  0  0  0  0  0  0  0  0  0
   10.6277    7.3640   -5.8282 H   0  0  0  0  0  0  0  0  0  0  0  0
   12.0499    6.2667   -5.8282 H   0  0  0  0  0  0  0  0  0  0  0  0
   11.7987    5.6399   -2.5676 H   0  0  0  0  0  0  0  0  0  0  0  0
   13.0640    9.5611   -2.0545 H   0  0  0  0  0  0  0  0  0  0  0  0
   12.1250    9.2170   -4.6110 H   0  0  0  0  0  0  0  0  0  0  0  0
  1  2  1  0
  2  3  2  0
  3  4  1  0
  4  5  2  0
  5  6  1  0
  6  2  1  0
  1  7  1  0
  1  8  1  0
  1  9  1  0
  3 10  1  0
  5 11  1  0
  6 12  1  0
M  END

>  <ID>
Pocket2Mol_8_num_sample_50

>  <docking_score>
-3.719

$$$$
Pocket2Mol_9_num_sample_50
     RDKit          3D

 12 12  0  0  0  0  0  0  0  0999 V2000
   11.2960    6.5450   -4.8250 C   0  0  0  0  0  0  0  0  0  0  0  0
   11.7940    7.3130   -3.7720 C   0  0  0  0  0  0  0  0  0  0  0  0
   11.9800    6.8560   -2.4560 C   0  0  0  0  0  0  0  0  0  0  0  0
   12.5450    7.9580   -1.6600 C   0  0  0  0  0  0  0  0  0  0  0  0
   12.4850    9.0040   -2.5230 O   0  0  0  0  0  0  0  0  0  0  0  0
   12.1240    8.7250   -3.6320 C   0  0  0  0  0  0  0  0  0  0  0  0
   10.7393    5.6864   -4.4213 H   0  0  0  0  0  0  0  0  0  0  0  0
   10.6245    7.1602   -5.4419 H   0  0  0  0  0  0  0  0  0  0  0  0
   12.1316    6.1829   -5.4419 H   0  0  0  0  0  0  0  0  0  0  0  0
   11.7439    5.8479   -2.0845 H   0  0  0  0  0  0  0  0  0  0  0  0
   12.9210    7.9386   -0.6264 H   0  0  0  0  0  0  0  0  0  0  0  0
   12.0502    9.4541   -4.4523 H   0  0  0  0  0  0  0  0  0  0  0  0
  1  2  1  0
  2  3  1  0
  3  4  2  0
  4  5  1  0
  5  6  1  0
  6  2  2  0
  1  7  1  0
  1  8  1  0
  1  9  1  0
  3 10  1  0
  4 11  1  0
  6 12  1  0
M  END

>  <ID>
Pocket2Mol_9_num_sample_50

>  <docking_score>
-4.403

$$$$
