
     RDKit          3D

 33 35  0  0  0  0  0  0  0  0999 V2000
   40.7400   30.2140   49.2290 C   0  0  0  0  0  0  0  0  0  0  0  0
   38.8610   27.6100   51.4490 C   0  0  0  0  0  0  0  0  0  0  0  0
   36.3610   36.7480   59.2940 O   0  0  0  0  0  0  0  0  0  0  0  0
   39.9510   30.3950   51.2990 C   0  0  0  0  0  0  0  0  0  0  0  0
   38.7920   31.1820   58.5980 C   0  0  0  0  0  0  0  0  0  0  0  0
   38.5370   33.0760   55.9130 C   0  0  0  0  0  0  0  0  0  0  0  0
   37.5800   36.0420   61.1020 C   0  0  0  0  0  0  0  0  0  0  0  0
   38.2280   34.8530   60.4390 C   0  0  0  0  0  0  0  0  0  0  0  0
   39.9840   35.6550   61.9790 C   0  0  0  0  0  0  0  0  0  0  0  0
   37.8620   34.3610   59.2620 C   0  0  0  0  0  0  0  0  0  0  0  0
   37.5830   33.2150   59.0090 N   0  0  0  0  0  0  0  0  0  0  0  0
   39.2800   30.1490   59.5480 O   0  0  0  0  0  0  0  0  0  0  0  0
   40.1120   28.0000   50.5920 C   0  0  0  0  0  0  0  0  0  0  0  0
   40.1270   33.2600   61.3490 C   0  0  0  0  0  0  0  0  0  0  0  0
   38.7710   30.4730   54.1280 C   0  0  0  0  0  0  0  0  0  0  0  0
   38.1430   32.0280   59.1100 C   0  0  0  0  0  0  0  0  0  0  0  0
   38.9180   28.3420   52.5250 C   0  0  0  0  0  0  0  0  0  0  0  0
   37.9700   29.4080   54.4940 C   0  0  0  0  0  0  0  0  0  0  0  0
   38.3800   30.9250   57.0400 C   0  0  0  0  0  0  0  0  0  0  0  0
   37.1290   37.1050   60.1350 C   0  0  0  0  0  0  0  0  0  0  0  0
   39.4270   34.6480   61.1130 N   0  0  0  0  0  0  0  0  0  0  0  0
   41.3450   33.7430   62.0580 C   0  0  0  0  0  0  0  0  0  0  0  0
   39.8690   30.0720   48.1620 F   0  0  0  0  0  0  0  0  0  0  0  0
   39.3460   29.9340   52.6160 C   0  0  0  0  0  0  0  0  0  0  0  0
   40.2030   29.5580   50.3390 C   0  0  0  0  0  0  0  0  0  0  0  0
   37.1270   30.5280   57.4950 O   0  0  0  0  0  0  0  0  0  0  0  0
   38.0510   31.7780   55.6630 N   0  0  0  0  0  0  0  0  0  0  0  0
   38.3470   27.9990   53.8450 C   0  0  0  0  0  0  0  0  0  0  0  0
   38.7070   31.4380   54.4990 C   0  0  0  0  0  0  0  0  0  0  0  0
   38.5990   29.1770   59.8860 C   0  0  0  0  0  0  0  0  0  0  0  0
   37.6050   38.3070   60.3270 O   0  0  0  0  0  0  0  0  0  0  0  0
   37.0500   27.6490   54.1020 O   0  0  0  0  0  0  0  0  0  0  0  0
   40.9440   34.9580   62.8650 C   0  0  0  0  0  0  0  0  0  0  0  0
  1 25  1  0
  2 17  1  0
  3 20  2  0
  4 24  1  0
  5 16  1  0
  5 12  1  0
  8 10  1  0
  8  7  1  0
  8 21  1  0
  9 33  1  0
 11 16  1  0
 11 10  1  0
 12 30  1  0
 13  2  1  0
 14 22  1  0
 15 18  1  0
 15 29  1  0
 17 24  2  0
 17 28  1  0
 19 26  1  0
 19  5  1  0
 20 31  1  0
 20  7  1  0
 21 14  1  0
 21  9  1  0
 22 33  1  0
 23  1  1  0
 24 15  1  0
 25 13  1  0
 25  4  2  0
 27  6  1  0
 27 19  1  0
 28 32  1  0
 28 18  1  0
 29 27  1  0
M  END
$$$$

     RDKit          3D

 36 39  0  0  0  0  0  0  0  0999 V2000
   38.6460   32.5720   55.8420 C   0  0  0  0  0  0  0  0  0  0  0  0
   36.7910   33.2970   59.6940 N   0  0  0  0  0  0  0  0  0  0  0  0
   38.4860   35.9880   61.5000 C   0  0  0  0  0  0  0  0  0  0  0  0
   37.5180   36.7460   60.7270 C   0  0  0  0  0  0  0  0  0  0  0  0
   39.1130   27.6140   50.7600 C   0  0  0  0  0  0  0  0  0  0  0  0
   37.3800   29.2900   56.3420 C   0  0  0  0  0  0  0  0  0  0  0  0
   38.4720   34.5700   60.9790 C   0  0  0  0  0  0  0  0  0  0  0  0
   37.6990   34.5650   59.7600 C   0  0  0  0  0  0  0  0  0  0  0  0
   40.1080   30.6010   51.5330 C   0  0  0  0  0  0  0  0  0  0  0  0
   38.0610   30.1920   55.8000 N   0  0  0  0  0  0  0  0  0  0  0  0
   38.8930   25.8750   58.3350 O   0  0  0  0  0  0  0  0  0  0  0  0
   37.7780   28.9690   54.9050 C   0  0  0  0  0  0  0  0  0  0  0  0
   39.7710   29.7840   52.6020 C   0  0  0  0  0  0  0  0  0  0  0  0
   39.7090   30.0170   54.0180 O   0  0  0  0  0  0  0  0  0  0  0  0
   40.6410   27.4760   58.3800 C   0  0  0  0  0  0  0  0  0  0  0  0
   40.5600   36.4500   62.7300 C   0  0  0  0  0  0  0  0  0  0  0  0
   39.4170   28.5240   52.6850 C   0  0  0  0  0  0  0  0  0  0  0  0
   37.5960   32.1670   59.1150 C   0  0  0  0  0  0  0  0  0  0  0  0
   39.6670   26.7230   56.2510 C   0  0  0  0  0  0  0  0  0  0  0  0
   38.4630   26.4380   52.7270 O   0  0  0  0  0  0  0  0  0  0  0  0
   35.4310   33.9050   61.3620 O   0  0  0  0  0  0  0  0  0  0  0  0
   39.9870   28.1350   55.8660 C   0  0  0  0  0  0  0  0  0  0  0  0
   39.9390   36.0090   61.5880 O   0  0  0  0  0  0  0  0  0  0  0  0
   40.2920   30.6100   49.1800 O   0  0  0  0  0  0  0  0  0  0  0  0
   39.1850   28.4920   54.4750 P   0  0  0  0  0  0  0  0  0  0  0  0
   40.0460   26.2170   57.7280 C   0  0  0  0  0  0  0  0  0  0  0  0
   38.9990   27.4400   52.0780 C   0  0  0  0  0  0  0  0  0  0  0  0
   35.8850   36.2010   59.1040 C   0  0  0  0  0  0  0  0  0  0  0  0
   38.0640   33.2590   56.9350 O   0  0  0  0  0  0  0  0  0  0  0  0
   35.8740   32.9960   60.6810 C   0  0  0  0  0  0  0  0  0  0  0  0
   35.5240   31.5630   60.9160 C   0  0  0  0  0  0  0  0  0  0  0  0
   39.6110   28.6430   49.9220 C   0  0  0  0  0  0  0  0  0  0  0  0
   40.0220   29.9050   50.1210 C   0  0  0  0  0  0  0  0  0  0  0  0
   38.6010   32.7320   58.1160 C   0  0  0  0  0  0  0  0  0  0  0  0
   37.0450   35.8930   59.8200 C   0  0  0  0  0  0  0  0  0  0  0  0
   38.9340   31.2230   56.4840 C   0  0  0  0  0  0  0  0  0  0  0  0
  1 36  1  0
  1 29  1  0
  2 30  1  0
  3 23  1  0
  4  3  1  0
  5 27  1  0
  7  3  1  0
  8  2  1  0
  8 35  1  0
  8  7  1  0
 10  6  1  0
 10 36  1  0
 12 10  1  0
 12  6  1  0
 13  9  1  0
 13 17  1  0
 13 14  1  0
 14 25  1  0
 17 25  1  0
 18  2  1  0
 19 26  1  0
 22 19  1  0
 23 16  1  0
 24 33  2  0
 25 12  1  0
 25 22  1  0
 26 11  1  0
 26 15  1  0
 27 17  2  0
 27 20  1  0
 29 34  1  0
 30 31  1  0
 30 21  2  0
 32 33  1  0
 32  5  2  0
 33  9  1  0
 34 18  1  0
 35 28  1  0
 35  4  1  0
M  END
$$$$

     RDKit          3D

 35 38  0  0  0  0  0  0  0  0999 V2000
   38.3170   35.5300   60.8280 C   0  0  0  0  0  0  0  0  0  0  0  0
   39.6810   29.7170   52.0660 C   0  0  0  0  0  0  0  0  0  0  0  0
   38.4910   32.6470   55.5480 C   0  0  0  0  0  0  0  0  0  0  0  0
   36.5530   35.6300   59.0970 C   0  0  0  0  0  0  0  0  0  0  0  0
   39.3920   28.5330   52.6560 C   0  0  0  0  0  0  0  0  0  0  0  0
   38.4660   32.6720   58.8560 C   0  0  0  0  0  0  0  0  0  0  0  0
   38.5150   27.6240   54.9350 C   0  0  0  0  0  0  0  0  0  0  0  0
   38.8210   37.5820   61.6660 C   0  0  0  0  0  0  0  0  0  0  0  0
   38.0420   31.3290   59.3870 C   0  0  0  0  0  0  0  0  0  0  0  0
   38.2330   29.6450   55.7890 C   0  0  0  0  0  0  0  0  0  0  0  0
   39.0410   28.5180   53.9720 N   0  0  0  0  0  0  0  0  0  0  0  0
   37.4050   35.0220   61.9630 C   0  0  0  0  0  0  0  0  0  0  0  0
   40.1100   29.4290   49.1010 C   0  0  0  0  0  0  0  0  0  0  0  0
   38.5660   28.2190   56.3890 C   0  0  0  0  0  0  0  0  0  0  0  0
   38.1640   30.4840   56.9310 N   0  0  0  0  0  0  0  0  0  0  0  0
   39.6200   27.3550   50.5700 C   0  0  0  0  0  0  0  0  0  0  0  0
   40.0610   30.6260   51.2610 C   0  0  0  0  0  0  0  0  0  0  0  0
   39.3120   29.7680   54.7610 C   0  0  0  0  0  0  0  0  0  0  0  0
   38.0690   30.2200   58.3590 C   0  0  0  0  0  0  0  0  0  0  0  0
   40.3850   30.6380   49.8550 C   0  0  0  0  0  0  0  0  0  0  0  0
   39.3250   27.2380   51.8940 C   0  0  0  0  0  0  0  0  0  0  0  0
   37.0820   25.5860   54.9310 C   0  0  0  0  0  0  0  0  0  0  0  0
   39.8880   36.6380   61.9600 C   0  0  0  0  0  0  0  0  0  0  0  0
   36.8920   24.2380   55.5240 C   0  0  0  0  0  0  0  0  0  0  0  0
   37.5110   33.5790   59.3760 C   0  0  0  0  0  0  0  0  0  0  0  0
   38.5830   26.1280   54.7890 C   0  0  0  0  0  0  0  0  0  0  0  0
   39.7120   35.6210   61.0550 C   0  0  0  0  0  0  0  0  0  0  0  0
   40.0930   29.6310   47.9150 F   0  0  0  0  0  0  0  0  0  0  0  0
   36.5710   37.2630   59.6510 S   0  0  0  0  0  0  0  0  0  0  0  0
   39.6090   25.4370   55.7920 C   0  0  0  0  0  0  0  0  0  0  0  0
   37.0600   29.1480   58.6830 C   0  0  0  0  0  0  0  0  0  0  0  0
   39.8610   28.2740   49.7470 C   0  0  0  0  0  0  0  0  0  0  0  0
   37.9130   35.0070   59.4710 C   0  0  0  0  0  0  0  0  0  0  0  0
   38.2380   31.4900   56.4150 C   0  0  0  0  0  0  0  0  0  0  0  0
   37.8230   36.9860   60.7210 C   0  0  0  0  0  0  0  0  0  0  0  0
  1 27  1  0
  1 12  1  0
  2  5  2  0
  3 34  1  0
  4 33  1  0
  4 29  1  0
  5 11  1  0
  6 25  1  0
  6  9  1  0
  7 26  1  0
  7 14  1  0
  8 23  1  0
 10 14  1  0
 10 15  1  0
 11 18  1  0
 11  7  1  0
 13 32  2  0
 13 20  1  0
 15 19  1  0
 16 21  1  0
 17  2  2  0
 18 10  1  0
 19 31  1  0
 19  9  1  0
 20 17  1  0
 21  5  1  0
 22 24  1  0
 26 22  1  0
 26 30  1  0
 27 23  1  0
 28 13  1  0
 29 35  1  0
 32 16  2  0
 33 25  1  0
 33  1  1  0
 34 15  1  0
 35  1  1  0
 35  8  1  0
M  END
$$$$

     RDKit          3D

 25 27  0  0  0  0  0  0  0  0999 V2000
   38.0140   30.8430   60.6820 C   0  0  0  0  0  0  0  0  0  0  0  0
   38.3360   35.8200   60.7430 C   0  0  0  0  0  0  0  0  0  0  0  0
   39.9280   26.6850   56.5690 C   0  0  0  0  0  0  0  0  0  0  0  0
   38.9810   33.6160   62.3490 C   0  0  0  0  0  0  0  0  0  0  0  0
   40.0360   34.7520   62.3160 C   0  0  0  0  0  0  0  0  0  0  0  0
   39.4450   28.4380   58.1360 N   0  0  0  0  0  0  0  0  0  0  0  0
   37.6230   37.0810   60.1720 C   0  0  0  0  0  0  0  0  0  0  0  0
   38.3910   30.4930   57.8820 C   0  0  0  0  0  0  0  0  0  0  0  0
   36.9180   33.9940   59.4910 C   0  0  0  0  0  0  0  0  0  0  0  0
   39.5570   35.8530   61.4770 C   0  0  0  0  0  0  0  0  0  0  0  0
   38.0700   30.9220   61.9010 O   0  0  0  0  0  0  0  0  0  0  0  0
   39.6210   28.2270   56.7070 C   0  0  0  0  0  0  0  0  0  0  0  0
   38.8390   29.6280   58.7190 C   0  0  0  0  0  0  0  0  0  0  0  0
   37.7590   31.8200   58.4050 C   0  0  0  0  0  0  0  0  0  0  0  0
   37.9530   34.4480   60.2870 C   0  0  0  0  0  0  0  0  0  0  0  0
   37.3080   31.6460   59.7650 N   0  0  0  0  0  0  0  0  0  0  0  0
   38.7510   29.6150   60.2380 C   0  0  0  0  0  0  0  0  0  0  0  0
   40.0830   37.0220   61.6540 O   0  0  0  0  0  0  0  0  0  0  0  0
   41.2950   34.8890   63.1590 C   0  0  0  0  0  0  0  0  0  0  0  0
   35.8640   34.8130   59.5060 O   0  0  0  0  0  0  0  0  0  0  0  0
   40.0800   26.0360   55.1970 C   0  0  0  0  0  0  0  0  0  0  0  0
   36.3290   32.6600   60.1190 C   0  0  0  0  0  0  0  0  0  0  0  0
   39.8590   27.2950   58.8920 C   0  0  0  0  0  0  0  0  0  0  0  0
   38.7470   33.4470   60.9090 O   0  0  0  0  0  0  0  0  0  0  0  0
   39.6910   26.1530   57.9180 C   0  0  0  0  0  0  0  0  0  0  0  0
  1 11  2  0
  2 10  1  0
  3 21  1  0
  3 12  1  0
  3 25  1  0
  5  4  1  0
  5 19  1  0
  6 13  1  0
  6 23  1  0
  7  2  1  0
  8 14  1  0
  8 13  2  0
  9 20  1  0
  9 22  1  0
  9 15  1  0
 10 18  1  0
 10  5  1  0
 12  6  1  0
 13 17  1  0
 14 16  1  0
 15  2  2  0
 15 24  1  0
 16 22  1  0
 16  1  1  0
 17  1  1  0
 24  4  1  0
 25 23  1  0
M  END
$$$$

     RDKit          3D

 37 39  0  0  0  0  0  0  0  0999 V2000
   37.1160   36.8590   59.6480 C   0  0  0  0  0  0  0  0  0  0  0  0
   38.5830   32.5540   55.8370 O   0  0  0  0  0  0  0  0  0  0  0  0
   40.0990   28.5070   57.1200 C   0  0  0  0  0  0  0  0  0  0  0  0
   39.4760   25.3630   57.5080 C   0  0  0  0  0  0  0  0  0  0  0  0
   37.9700   35.3330   61.3760 C   0  0  0  0  0  0  0  0  0  0  0  0
   37.7250   36.6770   61.1140 C   0  0  0  0  0  0  0  0  0  0  0  0
   39.0010   32.5550   58.4950 O   0  0  0  0  0  0  0  0  0  0  0  0
   37.2120   38.7660   61.3360 O   0  0  0  0  0  0  0  0  0  0  0  0
   38.4760   31.7830   58.6960 C   0  0  0  0  0  0  0  0  0  0  0  0
   39.5710   30.5550   54.0070 C   0  0  0  0  0  0  0  0  0  0  0  0
   39.6570   27.8390   54.7870 C   0  0  0  0  0  0  0  0  0  0  0  0
   38.7440   31.3220   62.0060 C   0  0  0  0  0  0  0  0  0  0  0  0
   37.6810   37.6570   61.8490 C   0  0  0  0  0  0  0  0  0  0  0  0
   38.0470   31.0320   57.5210 N   0  0  0  0  0  0  0  0  0  0  0  0
   38.6380   31.4400   56.3040 C   0  0  0  0  0  0  0  0  0  0  0  0
   39.4160   28.6050   52.3790 C   0  0  0  0  0  0  0  0  0  0  0  0
   39.3210   30.2790   55.4460 C   0  0  0  0  0  0  0  0  0  0  0  0
   39.7920   29.0100   49.9860 C   0  0  0  0  0  0  0  0  0  0  0  0
   37.5610   31.9030   60.3540 C   0  0  0  0  0  0  0  0  0  0  0  0
   39.9990   30.3340   50.2810 C   0  0  0  0  0  0  0  0  0  0  0  0
   39.2750   28.8730   55.8540 C   0  0  0  0  0  0  0  0  0  0  0  0
   39.5390   28.1510   50.9880 C   0  0  0  0  0  0  0  0  0  0  0  0
   37.3740   32.9520   61.3340 C   0  0  0  0  0  0  0  0  0  0  0  0
   39.5650   26.9090   50.7060 F   0  0  0  0  0  0  0  0  0  0  0  0
   39.5280   27.5890   58.2220 C   0  0  0  0  0  0  0  0  0  0  0  0
   37.0130   30.1050   57.7990 C   0  0  0  0  0  0  0  0  0  0  0  0
   36.5170   34.6150   59.6830 C   0  0  0  0  0  0  0  0  0  0  0  0
   38.6910   26.4370   57.9320 C   0  0  0  0  0  0  0  0  0  0  0  0
   37.5240   37.5980   63.1220 N   0  0  0  0  0  0  0  0  0  0  0  0
   36.5260   35.9260   58.9860 C   0  0  0  0  0  0  0  0  0  0  0  0
   39.9840   30.8720   51.5590 C   0  0  0  0  0  0  0  0  0  0  0  0
   40.2680   31.1910   49.1720 C   0  0  0  0  0  0  0  0  0  0  0  0
   38.2670   30.8480   61.1130 C   0  0  0  0  0  0  0  0  0  0  0  0
   37.5750   34.2850   60.6100 C   0  0  0  0  0  0  0  0  0  0  0  0
   38.9190   27.7180   53.5230 C   0  0  0  0  0  0  0  0  0  0  0  0
   39.1270   31.9480   48.8210 N   0  0  0  0  0  0  0  0  0  0  0  0
   39.6480   29.9710   52.6830 C   0  0  0  0  0  0  0  0  0  0  0  0
  1  6  1  0
  2 15  2  0
  3 25  1  0
  4 28  1  0
  6  5  1  0
  6 13  1  0
  7  9  2  0
  8 13  2  0
  9 19  1  0
 10 17  1  0
 11 21  1  0
 13 29  1  0
 14 26  1  0
 14  9  1  0
 15 14  1  0
 16 37  1  0
 16 35  1  0
 17 21  1  0
 17 15  1  0
 18 20  2  0
 18 22  1  0
 19 33  1  0
 19 23  1  0
 20 31  1  0
 21  3  1  0
 22 16  2  0
 24 22  1  0
 27 34  1  0
 28 25  1  0
 30  1  1  0
 30 27  1  0
 31 37  2  0
 32 20  1  0
 33 12  1  0
 34 23  1  0
 34  5  1  0
 35 11  1  0
 36 32  1  0
 37 10  1  0
M  END
$$$$

     RDKit          3D

 27 29  0  0  0  0  0  0  0  0999 V2000
   37.1750   29.4570   54.7440 O   0  0  0  0  0  0  0  0  0  0  0  0
   38.6460   30.9530   55.6760 C   0  0  0  0  0  0  0  0  0  0  0  0
   38.5620   29.5010   54.7860 C   0  0  0  0  0  0  0  0  0  0  0  0
   40.9930   29.9730   49.1970 O   0  0  0  0  0  0  0  0  0  0  0  0
   37.4550   31.9130   59.2840 C   0  0  0  0  0  0  0  0  0  0  0  0
   39.0320   28.2380   58.4510 C   0  0  0  0  0  0  0  0  0  0  0  0
   39.4640   28.1870   50.5000 C   0  0  0  0  0  0  0  0  0  0  0  0
   39.6390   25.4470   53.9320 O   0  0  0  0  0  0  0  0  0  0  0  0
   37.4900   26.4940   54.4610 C   0  0  0  0  0  0  0  0  0  0  0  0
   39.7810   30.1640   52.2760 C   0  0  0  0  0  0  0  0  0  0  0  0
   38.7970   31.7430   59.6960 C   0  0  0  0  0  0  0  0  0  0  0  0
   39.1610   26.0800   56.6570 O   0  0  0  0  0  0  0  0  0  0  0  0
   38.0790   31.0030   58.6160 C   0  0  0  0  0  0  0  0  0  0  0  0
   38.4920   31.5140   57.2890 C   0  0  0  0  0  0  0  0  0  0  0  0
   39.3430   29.6790   50.9180 C   0  0  0  0  0  0  0  0  0  0  0  0
   39.1060   28.7170   55.8820 C   0  0  0  0  0  0  0  0  0  0  0  0
   39.0130   26.7690   54.2210 C   0  0  0  0  0  0  0  0  0  0  0  0
   37.9950   33.0280   57.3920 O   0  0  0  0  0  0  0  0  0  0  0  0
   36.4470   31.8470   60.0070 O   0  0  0  0  0  0  0  0  0  0  0  0
   38.9380   28.9950   57.2780 O   0  0  0  0  0  0  0  0  0  0  0  0
   38.3010   33.3740   56.1360 C   0  0  0  0  0  0  0  0  0  0  0  0
   39.2720   27.6660   53.0210 C   0  0  0  0  0  0  0  0  0  0  0  0
   39.3530   27.3210   51.6290 C   0  0  0  0  0  0  0  0  0  0  0  0
   39.2780   29.1890   53.3410 C   0  0  0  0  0  0  0  0  0  0  0  0
   39.6610   27.2610   55.5590 C   0  0  0  0  0  0  0  0  0  0  0  0
   39.9960   30.5550   49.7450 C   0  0  0  0  0  0  0  0  0  0  0  0
   39.5040   31.5220   49.3410 O   0  0  0  0  0  0  0  0  0  0  0  0
  3  1  1  0
  3  2  1  0
  3 16  1  0
  4 26  2  0
  5 11  1  0
  5 19  1  0
  7 15  1  0
  7 23  1  0
  8 17  1  0
 13 14  1  0
 13  5  1  0
 13 11  1  0
 14  2  1  0
 14 18  1  0
 15 26  1  0
 15 10  1  0
 16 20  1  0
 17  9  1  0
 17 25  1  0
 20  6  1  0
 21 18  1  0
 22 24  1  0
 22 17  1  0
 23 22  2  0
 24 10  1  0
 24  3  1  0
 25 16  1  0
 25 12  1  0
 27 26  1  0
M  END
$$$$

     RDKit          3D

 24 25  0  0  0  0  0  0  0  0999 V2000
   37.2820   28.6970   54.9170 O   0  0  0  0  0  0  0  0  0  0  0  0
   39.3500   27.0250   54.7990 C   0  0  0  0  0  0  0  0  0  0  0  0
   37.7470   29.6710   56.9160 N   0  0  0  0  0  0  0  0  0  0  0  0
   39.3260   27.0990   53.6990 C   0  0  0  0  0  0  0  0  0  0  0  0
   39.7100   28.2180   50.0830 C   0  0  0  0  0  0  0  0  0  0  0  0
   37.9170   28.6430   56.0320 C   0  0  0  0  0  0  0  0  0  0  0  0
   37.5590   35.7660   59.5020 C   0  0  0  0  0  0  0  0  0  0  0  0
   39.6730   29.6470   51.9660 C   0  0  0  0  0  0  0  0  0  0  0  0
   40.0380   29.5540   49.5980 O   0  0  0  0  0  0  0  0  0  0  0  0
   38.4260   32.9780   58.1900 C   0  0  0  0  0  0  0  0  0  0  0  0
   38.8540   33.4360   59.4720 C   0  0  0  0  0  0  0  0  0  0  0  0
   39.2970   35.4070   61.2510 C   0  0  0  0  0  0  0  0  0  0  0  0
   38.6630   36.7300   61.5850 C   0  0  0  0  0  0  0  0  0  0  0  0
   38.4040   31.0140   56.6160 C   0  0  0  0  0  0  0  0  0  0  0  0
   38.6760   34.7520   60.0470 C   0  0  0  0  0  0  0  0  0  0  0  0
   40.3700   26.7640   56.8630 C   0  0  0  0  0  0  0  0  0  0  0  0
   37.5660   37.0060   60.4800 C   0  0  0  0  0  0  0  0  0  0  0  0
   38.9270   28.4920   51.3470 C   0  0  0  0  0  0  0  0  0  0  0  0
   38.1300   33.6240   57.1640 O   0  0  0  0  0  0  0  0  0  0  0  0
   39.0200   27.4620   56.1710 C   0  0  0  0  0  0  0  0  0  0  0  0
   40.5170   34.9870   62.1150 C   0  0  0  0  0  0  0  0  0  0  0  0
   40.3010   30.3540   50.7680 C   0  0  0  0  0  0  0  0  0  0  0  0
   38.3590   31.4470   58.0890 C   0  0  0  0  0  0  0  0  0  0  0  0
   39.0710   27.2770   52.1990 C   0  0  0  0  0  0  0  0  0  0  0  0
  1  6  2  0
  2 20  1  0
  4  2  2  0
  5 18  1  0
  6 20  1  0
  6  3  1  0
  7 15  2  0
  7 17  1  0
  9  5  1  0
  9 22  1  0
 10 11  1  0
 11 15  1  0
 12 13  2  0
 12 21  1  0
 14  3  1  0
 14 23  1  0
 15 12  1  0
 17 13  1  0
 18  8  1  0
 18 24  1  0
 19 10  2  0
 20 16  1  0
 22  8  1  0
 23 10  1  0
 24  4  2  0
M  END
$$$$

     RDKit          3D

 23 23  0  0  0  0  0  0  0  0999 V2000
   40.0440   30.1870   51.9580 C   0  0  0  0  0  0  0  0  0  0  0  0
   38.9860   32.8520   56.7450 O   0  0  0  0  0  0  0  0  0  0  0  0
   40.3240   29.9220   49.3890 C   0  0  0  0  0  0  0  0  0  0  0  0
   38.7040   26.5990   55.9860 C   0  0  0  0  0  0  0  0  0  0  0  0
   40.4820   29.9540   50.9590 C   0  0  0  0  0  0  0  0  0  0  0  0
   39.0420   27.9040   51.3240 C   0  0  0  0  0  0  0  0  0  0  0  0
   38.5290   30.8550   55.5510 C   0  0  0  0  0  0  0  0  0  0  0  0
   40.8320   26.5910   57.1880 C   0  0  0  0  0  0  0  0  0  0  0  0
   39.4120   26.7560   57.4500 C   0  0  0  0  0  0  0  0  0  0  0  0
   40.2530   27.6850   50.5210 C   0  0  0  0  0  0  0  0  0  0  0  0
   38.7400   25.6090   58.3510 C   0  0  0  0  0  0  0  0  0  0  0  0
   38.9790   25.0900   55.4840 C   0  0  0  0  0  0  0  0  0  0  0  0
   38.2630   31.9550   56.8820 C   0  0  0  0  0  0  0  0  0  0  0  0
   38.3610   26.6760   51.2180 O   0  0  0  0  0  0  0  0  0  0  0  0
   38.6340   29.2890   53.6030 C   0  0  0  0  0  0  0  0  0  0  0  0
   39.4170   29.0550   56.7700 C   0  0  0  0  0  0  0  0  0  0  0  0
   38.2670   28.3470   52.6020 C   0  0  0  0  0  0  0  0  0  0  0  0
   40.4700   29.1960   56.2370 O   0  0  0  0  0  0  0  0  0  0  0  0
   39.1900   28.1700   57.8710 C   0  0  0  0  0  0  0  0  0  0  0  0
   38.3630   29.8760   56.5220 N   0  0  0  0  0  0  0  0  0  0  0  0
   38.2330   30.9510   57.6650 C   0  0  0  0  0  0  0  0  0  0  0  0
   37.8550   30.7520   54.5110 C   0  0  0  0  0  0  0  0  0  0  0  0
   39.2430   30.7010   52.7970 C   0  0  0  0  0  0  0  0  0  0  0  0
  1 23  1  0
  3  5  1  0
  4  9  1  0
  5  1  1  0
  6 10  1  0
  6 17  1  0
  7 22  1  0
  7 20  1  0
  7 13  1  0
  8  9  1  0
  9 19  1  0
  9 11  1  0
 12  4  1  0
 13  2  1  0
 13 21  1  0
 14  6  1  0
 15 17  1  0
 15 22  1  0
 16 19  1  0
 18 16  2  0
 20 16  1  0
 20 21  1  0
 23 15  1  0
M  END
$$$$

     RDKit          3D

 24 27  0  0  0  0  0  0  0  0999 V2000
   39.0730   27.6270   51.3860 C   0  0  0  0  0  0  0  0  0  0  0  0
   39.2940   28.1480   50.0990 C   0  0  0  0  0  0  0  0  0  0  0  0
   38.7090   32.2690   55.7890 C   0  0  0  0  0  0  0  0  0  0  0  0
   39.9540   30.1470   51.0160 C   0  0  0  0  0  0  0  0  0  0  0  0
   39.6690   29.6900   52.2590 C   0  0  0  0  0  0  0  0  0  0  0  0
   39.8890   27.8690   57.5160 C   0  0  0  0  0  0  0  0  0  0  0  0
   39.2980   31.1780   55.9010 C   0  0  0  0  0  0  0  0  0  0  0  0
   38.9060   28.9070   55.6620 C   0  0  0  0  0  0  0  0  0  0  0  0
   39.9230   25.8260   56.5770 C   0  0  0  0  0  0  0  0  0  0  0  0
   38.9690   25.1260   55.6080 C   0  0  0  0  0  0  0  0  0  0  0  0
   39.4010   30.1740   54.7570 C   0  0  0  0  0  0  0  0  0  0  0  0
   37.9730   31.3920   56.5050 O   0  0  0  0  0  0  0  0  0  0  0  0
   39.6720   30.6210   53.4050 C   0  0  0  0  0  0  0  0  0  0  0  0
   37.4260   26.5340   54.1580 C   0  0  0  0  0  0  0  0  0  0  0  0
   38.7830   28.6210   57.1610 C   0  0  0  0  0  0  0  0  0  0  0  0
   39.3560   27.6700   55.0860 C   0  0  0  0  0  0  0  0  0  0  0  0
   40.4800   31.3650   50.8680 F   0  0  0  0  0  0  0  0  0  0  0  0
   39.0220   27.7860   53.7140 N   0  0  0  0  0  0  0  0  0  0  0  0
   39.0770   27.3380   49.0360 N   0  0  0  0  0  0  0  0  0  0  0  0
   39.8020   29.3770   49.9690 C   0  0  0  0  0  0  0  0  0  0  0  0
   39.2900   28.3870   52.4510 C   0  0  0  0  0  0  0  0  0  0  0  0
   38.4600   33.1670   56.5260 C   0  0  0  0  0  0  0  0  0  0  0  0
   40.1480   27.2090   56.2690 N   0  0  0  0  0  0  0  0  0  0  0  0
   37.6910   25.8450   55.4700 C   0  0  0  0  0  0  0  0  0  0  0  0
  1 21  1  0
  2  1  2  0
  3  7  1  0
  3 12  1  0
  3 22  1  0
  4  5  1  0
  5 21  2  0
  5 13  1  0
  7 11  1  0
  7 12  1  0
  8 15  1  0
 10  9  1  0
 11  8  2  0
 13 11  1  0
 14 24  1  0
 15  6  1  0
 16  8  1  0
 16 23  1  0
 17  4  1  0
 18 16  2  0
 19  2  1  0
 20  2  1  0
 20  4  2  0
 21 18  1  0
 23  9  1  0
 23  6  1  0
 24 10  1  0
M  END
$$$$

     RDKit          3D

 26 27  0  0  0  0  0  0  0  0999 V2000
   37.3540   34.1360   59.1120 C   0  0  0  0  0  0  0  0  0  0  0  0
   38.3080   33.1040   59.3120 C   0  0  0  0  0  0  0  0  0  0  0  0
   39.6570   30.8150   53.2980 C   0  0  0  0  0  0  0  0  0  0  0  0
   39.2980   36.4520   61.9780 O   0  0  0  0  0  0  0  0  0  0  0  0
   37.0890   37.0830   60.4520 C   0  0  0  0  0  0  0  0  0  0  0  0
   37.6750   31.1540   56.2880 N   0  0  0  0  0  0  0  0  0  0  0  0
   40.2790   29.9120   49.5220 C   0  0  0  0  0  0  0  0  0  0  0  0
   37.4730   35.6860   60.9530 C   0  0  0  0  0  0  0  0  0  0  0  0
   38.1910   28.4140   53.8800 C   0  0  0  0  0  0  0  0  0  0  0  0
   40.6050   36.8050   62.0810 C   0  0  0  0  0  0  0  0  0  0  0  0
   39.1380   31.1390   54.3920 C   0  0  0  0  0  0  0  0  0  0  0  0
   36.5870   37.8830   61.1800 O   0  0  0  0  0  0  0  0  0  0  0  0
   39.6320   28.8320   50.3900 C   0  0  0  0  0  0  0  0  0  0  0  0
   38.4250   32.1060   58.3850 C   0  0  0  0  0  0  0  0  0  0  0  0
   39.2520   33.1630   60.3510 C   0  0  0  0  0  0  0  0  0  0  0  0
   40.1220   27.5360   50.4630 O   0  0  0  0  0  0  0  0  0  0  0  0
   39.4610   29.2610   51.8190 C   0  0  0  0  0  0  0  0  0  0  0  0
   36.6460   34.8170   60.2770 C   0  0  0  0  0  0  0  0  0  0  0  0
   38.4280   32.1970   56.9360 C   0  0  0  0  0  0  0  0  0  0  0  0
   38.7260   28.3880   52.6720 C   0  0  0  0  0  0  0  0  0  0  0  0
   38.8040   35.4260   61.3080 C   0  0  0  0  0  0  0  0  0  0  0  0
   37.4900   29.3210   54.7020 C   0  0  0  0  0  0  0  0  0  0  0  0
   37.3090   37.3880   59.3010 O   0  0  0  0  0  0  0  0  0  0  0  0
   40.0370   30.3530   52.1280 C   0  0  0  0  0  0  0  0  0  0  0  0
   39.5030   34.2570   61.0810 C   0  0  0  0  0  0  0  0  0  0  0  0
   38.3030   30.4200   55.3460 C   0  0  0  0  0  0  0  0  0  0  0  0
  1  2  1  0
  1 18  1  0
  2 14  1  0
  2 15  1  0
  3 11  1  0
  4 10  1  0
  5 12  1  0
  6 19  1  0
  8  5  1  0
  8 21  1  0
  9 22  1  0
 11 26  1  0
 13  7  1  0
 13 16  1  0
 13 17  1  0
 15 25  1  0
 17 24  1  0
 17 20  2  0
 18  8  1  0
 19 14  1  0
 20  9  1  0
 21  4  1  0
 22 26  1  0
 23  5  2  0
 24  3  1  0
 25 21  2  0
 26  6  1  0
M  END
$$$$

     RDKit          3D

 36 38  0  0  0  0  0  0  0  0999 V2000
   39.6890   26.7780   55.2150 C   0  0  0  0  0  0  0  0  0  0  0  0
   38.0580   27.3260   56.8450 C   0  0  0  0  0  0  0  0  0  0  0  0
   38.1630   32.0270   54.3340 C   0  0  0  0  0  0  0  0  0  0  0  0
   40.2220   29.7310   50.6110 C   0  0  0  0  0  0  0  0  0  0  0  0
   38.7120   36.3550   61.2220 C   0  0  0  0  0  0  0  0  0  0  0  0
   39.0790   27.6710   50.9690 C   0  0  0  0  0  0  0  0  0  0  0  0
   38.4320   25.1270   56.2580 C   0  0  0  0  0  0  0  0  0  0  0  0
   36.6470   30.3470   59.1030 O   0  0  0  0  0  0  0  0  0  0  0  0
   40.0980   31.1860   52.3500 F   0  0  0  0  0  0  0  0  0  0  0  0
   37.1170   32.6810   60.8250 S   0  0  0  0  0  0  0  0  0  0  0  0
   37.9130   38.6240   60.8670 C   0  0  0  0  0  0  0  0  0  0  0  0
   37.5050   34.3600   60.8480 C   0  0  0  0  0  0  0  0  0  0  0  0
   37.8150   37.1400   60.6390 C   0  0  0  0  0  0  0  0  0  0  0  0
   39.1420   31.4700   56.5640 C   0  0  0  0  0  0  0  0  0  0  0  0
   39.4010   25.4340   55.3120 C   0  0  0  0  0  0  0  0  0  0  0  0
   37.9680   30.6810   59.1610 S   0  0  0  0  0  0  0  0  0  0  0  0
   38.4930   32.5410   55.6360 C   0  0  0  0  0  0  0  0  0  0  0  0
   35.7610   32.4530   60.3190 O   0  0  0  0  0  0  0  0  0  0  0  0
   39.1290   29.8220   59.4430 O   0  0  0  0  0  0  0  0  0  0  0  0
   39.7820   30.0290   51.8840 C   0  0  0  0  0  0  0  0  0  0  0  0
   38.6040   35.0080   61.3370 C   0  0  0  0  0  0  0  0  0  0  0  0
   39.0710   29.8560   54.1760 N   0  0  0  0  0  0  0  0  0  0  0  0
   38.8890   33.8160   56.4140 C   0  0  0  0  0  0  0  0  0  0  0  0
   37.7160   26.0250   56.9540 C   0  0  0  0  0  0  0  0  0  0  0  0
   36.8770   36.4920   60.0290 C   0  0  0  0  0  0  0  0  0  0  0  0
   39.8490   28.5570   50.1570 C   0  0  0  0  0  0  0  0  0  0  0  0
   36.5860   35.1160   60.2410 C   0  0  0  0  0  0  0  0  0  0  0  0
   38.9690   27.7600   55.8640 C   0  0  0  0  0  0  0  0  0  0  0  0
   38.1460   30.1280   54.6440 C   0  0  0  0  0  0  0  0  0  0  0  0
   39.1560   29.2010   52.8240 C   0  0  0  0  0  0  0  0  0  0  0  0
   39.1150   29.2300   55.4870 C   0  0  0  0  0  0  0  0  0  0  0  0
   38.3210   31.4710   57.6920 N   0  0  0  0  0  0  0  0  0  0  0  0
   39.8340   34.1310   62.1770 Cl  0  0  0  0  0  0  0  0  0  0  0  0
   37.3920   32.0050   62.0450 O   0  0  0  0  0  0  0  0  0  0  0  0
   38.7500   27.9790   52.2440 C   0  0  0  0  0  0  0  0  0  0  0  0
   38.1690   32.1090   59.8230 N   0  0  0  0  0  0  0  0  0  0  0  0
  1 15  2  0
  1 28  1  0
  2 24  1  0
  3 29  1  0
  3 17  1  0
  4 20  1  0
  5 21  1  0
  6 35  2  0
  7 24  2  0
  8 16  2  0
 10 12  1  0
 10 34  2  0
 12 21  2  0
 13 11  1  0
 13  5  2  0
 14 32  1  0
 15  7  1  0
 16 19  2  0
 16 36  1  0
 17 23  1  0
 17 14  1  0
 18 10  2  0
 20  9  1  0
 20 30  2  0
 21 33  1  0
 22 29  1  0
 22 31  1  0
 25 27  2  0
 25 13  1  0
 26  4  2  0
 26  6  1  0
 27 12  1  0
 28  2  2  0
 30 22  1  0
 31 28  1  0
 32 16  1  0
 35 30  1  0
 36 10  1  0
M  END
$$$$

     RDKit          3D

 16 15  0  0  0  0  0  0  0  0999 V2000
   38.7620   31.6650   55.8370 S   0  0  0  0  0  0  0  0  0  0  0  0
   39.4240   27.5660   52.4890 C   0  0  0  0  0  0  0  0  0  0  0  0
   37.1690   36.1370   60.0270 C   0  0  0  0  0  0  0  0  0  0  0  0
   37.6010   32.3890   55.1180 O   0  0  0  0  0  0  0  0  0  0  0  0
   39.9480   30.1960   50.3130 C   0  0  0  0  0  0  0  0  0  0  0  0
   37.8850   33.6770   59.9900 C   0  0  0  0  0  0  0  0  0  0  0  0
   39.7960   30.5810   52.0960 C   0  0  0  0  0  0  0  0  0  0  0  0
   39.6600   30.6310   53.8490 C   0  0  0  0  0  0  0  0  0  0  0  0
   39.9500   28.8060   50.1400 C   0  0  0  0  0  0  0  0  0  0  0  0
   39.1740   27.0720   53.8090 N   0  0  0  0  0  0  0  0  0  0  0  0
   38.4340   32.2640   58.3520 C   0  0  0  0  0  0  0  0  0  0  0  0
   38.3980   34.9940   60.5050 C   0  0  0  0  0  0  0  0  0  0  0  0
   38.9480   30.2500   55.0500 C   0  0  0  0  0  0  0  0  0  0  0  0
   38.2940   31.1560   57.3440 C   0  0  0  0  0  0  0  0  0  0  0  0
   38.2010   33.6770   58.4450 C   0  0  0  0  0  0  0  0  0  0  0  0
   39.8480   27.8220   51.3810 C   0  0  0  0  0  0  0  0  0  0  0  0
  1  4  2  0
  1 14  1  0
  2 10  1  0
  3 12  1  0
  5  7  1  0
  6 12  1  0
  7  8  1  0
  8 13  1  0
  9  5  1  0
  9 16  1  0
 11 15  1  0
 13  1  1  0
 14 11  1  0
 15  6  1  0
 16  2  1  0
M  END
$$$$

     RDKit          3D

 36 38  0  0  0  0  0  0  0  0999 V2000
   40.0030   26.3520   55.2300 C   0  0  0  0  0  0  0  0  0  0  0  0
   38.3270   34.5240   60.8770 C   0  0  0  0  0  0  0  0  0  0  0  0
   39.2120   26.0720   56.5080 C   0  0  0  0  0  0  0  0  0  0  0  0
   36.6040   29.9850   56.6580 O   0  0  0  0  0  0  0  0  0  0  0  0
   38.5410   29.1490   57.3430 N   0  0  0  0  0  0  0  0  0  0  0  0
   38.6550   27.9110   58.1430 C   0  0  0  0  0  0  0  0  0  0  0  0
   37.5050   29.8770   57.5060 C   0  0  0  0  0  0  0  0  0  0  0  0
   37.0480   33.9320   60.2410 C   0  0  0  0  0  0  0  0  0  0  0  0
   37.9950   27.7900   59.2270 C   0  0  0  0  0  0  0  0  0  0  0  0
   39.0920   37.3020   60.8950 F   0  0  0  0  0  0  0  0  0  0  0  0
   39.4990   29.6840   52.5170 C   0  0  0  0  0  0  0  0  0  0  0  0
   38.4660   30.9250   54.3810 C   0  0  0  0  0  0  0  0  0  0  0  0
   39.2630   28.4330   51.8590 C   0  0  0  0  0  0  0  0  0  0  0  0
   37.9660   37.4420   62.6470 F   0  0  0  0  0  0  0  0  0  0  0  0
   35.8860   35.1400   59.4860 S   0  0  0  0  0  0  0  0  0  0  0  0
   40.1670   29.2860   48.1900 C   0  0  0  0  0  0  0  0  0  0  0  0
   40.2210   30.5840   50.3440 C   0  0  0  0  0  0  0  0  0  0  0  0
   38.6140   33.1060   58.3120 C   0  0  0  0  0  0  0  0  0  0  0  0
   39.6380   28.9040   54.8300 C   0  0  0  0  0  0  0  0  0  0  0  0
   37.4180   30.3920   58.9280 C   0  0  0  0  0  0  0  0  0  0  0  0
   36.7230   36.4370   60.1590 C   0  0  0  0  0  0  0  0  0  0  0  0
   39.7210   27.6740   54.6580 N   0  0  0  0  0  0  0  0  0  0  0  0
   37.6200   26.0830   56.5590 C   0  0  0  0  0  0  0  0  0  0  0  0
   36.6960   31.5870   59.3360 C   0  0  0  0  0  0  0  0  0  0  0  0
   39.1810   29.9050   53.9640 C   0  0  0  0  0  0  0  0  0  0  0  0
   38.5310   31.9210   55.5450 O   0  0  0  0  0  0  0  0  0  0  0  0
   37.4020   35.7370   61.2820 C   0  0  0  0  0  0  0  0  0  0  0  0
   39.6990   27.0400   57.5810 C   0  0  0  0  0  0  0  0  0  0  0  0
   39.9540   29.4290   49.6920 C   0  0  0  0  0  0  0  0  0  0  0  0
   36.4330   34.9500   62.1860 C   0  0  0  0  0  0  0  0  0  0  0  0
   39.4320   28.2690   50.4090 C   0  0  0  0  0  0  0  0  0  0  0  0
   39.5700   25.3480   54.1520 C   0  0  0  0  0  0  0  0  0  0  0  0
   40.0420   30.7420   51.7560 C   0  0  0  0  0  0  0  0  0  0  0  0
   37.4150   32.9610   59.1480 C   0  0  0  0  0  0  0  0  0  0  0  0
   38.4810   36.6540   61.8050 C   0  0  0  0  0  0  0  0  0  0  0  0
   36.2860   33.6120   61.5880 C   0  0  0  0  0  0  0  0  0  0  0  0
  1 32  1  0
  1  3  1  0
  2 27  1  0
  3 23  1  0
  3 28  1  0
  4  7  2  0
  5  7  1  0
  5  6  1  0
  6  9  2  0
  7 20  1  0
  8 34  1  0
  8  2  1  0
  8 36  1  0
 10 35  1  0
 11 25  1  0
 12 26  1  0
 13 11  1  0
 15 21  1  0
 15  8  1  0
 16 29  1  0
 17 33  1  0
 20 24  1  0
 21 27  1  0
 22 19  2  3
 22  1  1  0
 25 12  1  0
 25 19  1  0
 27 35  1  0
 27 30  1  0
 28  6  1  0
 29 17  2  0
 29 31  1  0
 31 13  2  0
 33 11  2  0
 34 18  1  0
 34 24  1  0
 35 14  1  0
 36 30  1  0
M  END
$$$$

     RDKit          3D

 35 36  0  0  0  0  0  0  0  0999 V2000
   38.2680   31.7580   57.8850 N   0  0  0  0  0  0  0  0  0  0  0  0
   38.7010   28.8020   56.8130 C   0  0  0  0  0  0  0  0  0  0  0  0
   36.5070   37.3500   60.3080 O   0  0  0  0  0  0  0  0  0  0  0  0
   39.7560   30.5580   49.5830 C   0  0  0  0  0  0  0  0  0  0  0  0
   37.0320   29.8300   55.2210 C   0  0  0  0  0  0  0  0  0  0  0  0
   40.6370   28.8630   61.8960 C   0  0  0  0  0  0  0  0  0  0  0  0
   40.5010   36.6040   61.9440 C   0  0  0  0  0  0  0  0  0  0  0  0
   39.2090   29.1420   59.3700 C   0  0  0  0  0  0  0  0  0  0  0  0
   38.9090   27.4850   53.2220 C   0  0  0  0  0  0  0  0  0  0  0  0
   40.1560   30.1660   61.4660 O   0  0  0  0  0  0  0  0  0  0  0  0
   39.3000   30.4040   60.2880 C   0  0  0  0  0  0  0  0  0  0  0  0
   38.3300   29.3480   58.1710 N   0  0  0  0  0  0  0  0  0  0  0  0
   36.4000   35.2440   59.0190 O   0  0  0  0  0  0  0  0  0  0  0  0
   39.8000   26.9870   52.1190 C   0  0  0  0  0  0  0  0  0  0  0  0
   39.5490   29.4730   51.7900 C   0  0  0  0  0  0  0  0  0  0  0  0
   38.7660   35.2170   61.5350 C   0  0  0  0  0  0  0  0  0  0  0  0
   39.4790   30.6580   51.0630 C   0  0  0  0  0  0  0  0  0  0  0  0
   39.9290   27.9900   57.0530 C   0  0  0  0  0  0  0  0  0  0  0  0
   39.0060   28.9510   53.2090 C   0  0  0  0  0  0  0  0  0  0  0  0
   38.0900   32.5130   61.1200 C   0  0  0  0  0  0  0  0  0  0  0  0
   39.3630   33.0170   60.5360 C   0  0  0  0  0  0  0  0  0  0  0  0
   37.5280   30.5980   58.1810 C   0  0  0  0  0  0  0  0  0  0  0  0
   37.0140   36.0640   60.0260 C   0  0  0  0  0  0  0  0  0  0  0  0
   39.5670   34.4850   60.4070 C   0  0  0  0  0  0  0  0  0  0  0  0
   39.3570   29.3460   54.5640 O   0  0  0  0  0  0  0  0  0  0  0  0
   38.4590   29.6950   55.6200 C   0  0  0  0  0  0  0  0  0  0  0  0
   39.9810   26.5670   56.4720 C   0  0  0  0  0  0  0  0  0  0  0  0
   40.2340   28.2100   49.7460 C   0  0  0  0  0  0  0  0  0  0  0  0
   39.6720   31.6240   48.8090 F   0  0  0  0  0  0  0  0  0  0  0  0
   39.1790   36.5930   61.3600 O   0  0  0  0  0  0  0  0  0  0  0  0
   39.8850   28.1530   51.1220 C   0  0  0  0  0  0  0  0  0  0  0  0
   37.2370   35.2050   61.2900 C   0  0  0  0  0  0  0  0  0  0  0  0
   40.1570   29.3580   49.0280 C   0  0  0  0  0  0  0  0  0  0  0  0
   37.8380   32.1480   56.3850 O   0  0  0  0  0  0  0  0  0  0  0  0
   37.9880   31.0670   60.6970 C   0  0  0  0  0  0  0  0  0  0  0  0
  1 22  1  0
  2 18  1  0
  2 12  1  0
  4 17  1  0
 10  6  1  0
 11  8  1  0
 11 35  1  0
 11 10  1  0
 12 22  1  0
 12  8  1  0
 13 23  1  0
 14  9  1  0
 15 19  1  0
 16 24  1  0
 17 15  2  0
 19  9  1  0
 19 25  1  0
 21 20  1  0
 23  3  1  0
 23 32  1  0
 24 21  1  0
 25 26  1  0
 26  5  1  0
 26  2  1  0
 27 18  1  0
 28 31  2  0
 29  4  1  0
 30 16  1  0
 30  7  1  0
 31 15  1  0
 31 14  1  0
 32 16  1  0
 33  4  2  0
 33 28  1  0
 34  1  1  0
 35 20  1  0
M  END
$$$$

     RDKit          3D

 25 26  0  0  0  0  0  0  0  0999 V2000
   40.4600   36.9100   62.4180 Cl  0  0  0  0  0  0  0  0  0  0  0  0
   39.2160   33.1440   55.9350 C   0  0  0  0  0  0  0  0  0  0  0  0
   36.8910   37.5400   60.8030 N   0  0  0  0  0  0  0  0  0  0  0  0
   36.5880   36.4670   60.0630 C   0  0  0  0  0  0  0  0  0  0  0  0
   38.3350   28.8890   53.1790 C   0  0  0  0  0  0  0  0  0  0  0  0
   40.2020   30.2480   51.5140 C   0  0  0  0  0  0  0  0  0  0  0  0
   39.9420   29.0260   49.5770 C   0  0  0  0  0  0  0  0  0  0  0  0
   38.7970   31.9570   56.8220 C   0  0  0  0  0  0  0  0  0  0  0  0
   39.2770   27.2020   55.3400 C   0  0  0  0  0  0  0  0  0  0  0  0
   39.0380   36.5340   61.4960 C   0  0  0  0  0  0  0  0  0  0  0  0
   40.0250   28.9940   50.8270 C   0  0  0  0  0  0  0  0  0  0  0  0
   38.0720   37.6240   61.5120 C   0  0  0  0  0  0  0  0  0  0  0  0
   38.7570   32.5810   60.1820 O   0  0  0  0  0  0  0  0  0  0  0  0
   37.9060   32.5090   57.9110 N   0  0  0  0  0  0  0  0  0  0  0  0
   39.8580   27.6900   51.5390 C   0  0  0  0  0  0  0  0  0  0  0  0
   37.5410   28.6810   54.4010 C   0  0  0  0  0  0  0  0  0  0  0  0
   38.6810   35.3740   60.7440 C   0  0  0  0  0  0  0  0  0  0  0  0
   38.3130   33.2890   58.9760 C   0  0  0  0  0  0  0  0  0  0  0  0
   37.4460   35.3280   60.1100 C   0  0  0  0  0  0  0  0  0  0  0  0
   37.0480   34.0790   59.3540 C   0  0  0  0  0  0  0  0  0  0  0  0
   38.9150   29.6230   56.4110 C   0  0  0  0  0  0  0  0  0  0  0  0
   38.4380   28.4560   55.6210 C   0  0  0  0  0  0  0  0  0  0  0  0
   39.2300   26.6900   53.9510 C   0  0  0  0  0  0  0  0  0  0  0  0
   39.2180   27.7640   52.8840 N   0  0  0  0  0  0  0  0  0  0  0  0
   38.1090   30.6560   56.3850 C   0  0  0  0  0  0  0  0  0  0  0  0
  3 12  1  0
  4 19  1  0
  4  3  2  0
  5 16  1  0
  7 11  2  0
  8  2  1  0
  8 14  1  0
  9 22  1  0
 10 12  2  0
 10  1  1  0
 11  6  1  0
 11 15  1  0
 14 18  1  0
 15 24  1  0
 16 22  1  0
 17 10  1  0
 18 20  1  0
 18 13  1  0
 19 17  2  0
 20 19  1  0
 22 21  1  0
 23  9  1  0
 24  5  1  0
 24 23  1  0
 25 21  1  0
 25  8  1  0
M  END
$$$$

     RDKit          3D

 18 20  0  0  0  0  0  0  0  0999 V2000
   37.4340   37.6740   61.8620 C   0  0  0  0  0  0  0  0  0  0  0  0
   39.1380   30.6210   59.3840 O   0  0  0  0  0  0  0  0  0  0  0  0
   40.1300   28.1940   59.5030 C   0  0  0  0  0  0  0  0  0  0  0  0
   37.8960   33.1510   61.4310 O   0  0  0  0  0  0  0  0  0  0  0  0
   36.0330   34.5120   60.4310 C   0  0  0  0  0  0  0  0  0  0  0  0
   38.1830   30.6870   57.2390 C   0  0  0  0  0  0  0  0  0  0  0  0
   38.2120   32.8930   58.7980 N   0  0  0  0  0  0  0  0  0  0  0  0
   37.4750   36.5680   59.7970 C   0  0  0  0  0  0  0  0  0  0  0  0
   39.2450   29.3220   58.8940 C   0  0  0  0  0  0  0  0  0  0  0  0
   39.1180   29.2050   57.3260 C   0  0  0  0  0  0  0  0  0  0  0  0
   36.6310   36.4670   62.0720 C   0  0  0  0  0  0  0  0  0  0  0  0
   40.5430   27.3060   58.3590 C   0  0  0  0  0  0  0  0  0  0  0  0
   38.6260   31.5770   58.6260 C   0  0  0  0  0  0  0  0  0  0  0  0
   40.2710   27.9900   57.0240 C   0  0  0  0  0  0  0  0  0  0  0  0
   36.9590   33.0490   60.2090 S   0  0  0  0  0  0  0  0  0  0  0  0
   36.1050   31.8820   60.0560 O   0  0  0  0  0  0  0  0  0  0  0  0
   37.7240   37.8010   60.4600 N   0  0  0  0  0  0  0  0  0  0  0  0
   36.7150   35.7890   60.8370 C   0  0  0  0  0  0  0  0  0  0  0  0
  1 11  1  0
  6 10  1  0
  6 13  1  0
  7 15  1  0
  8 17  1  0
  8 18  1  0
  9  2  1  0
  9  3  1  0
 10 14  1  0
 10  9  1  0
 12  3  1  0
 13  7  1  0
 13  2  1  0
 14 12  1  0
 15  5  1  0
 15  4  2  0
 16 15  2  0
 17  1  1  0
 18  5  1  0
 18 11  1  0
M  END
$$$$

     RDKit          3D

 38 44  0  0  0  0  0  0  0  0999 V2000
   38.8670   27.0000   57.3160 C   0  0  0  0  0  0  0  0  0  0  0  0
   38.5910   31.2380   54.5140 C   0  0  0  0  0  0  0  0  0  0  0  0
   37.6300   33.6000   60.1670 C   0  0  0  0  0  0  0  0  0  0  0  0
   38.7700   26.9390   54.8390 C   0  0  0  0  0  0  0  0  0  0  0  0
   37.9040   31.2130   58.9120 C   0  0  0  0  0  0  0  0  0  0  0  0
   40.9500   30.6930   49.7060 C   0  0  0  0  0  0  0  0  0  0  0  0
   39.2470   36.1400   61.6790 C   0  0  0  0  0  0  0  0  0  0  0  0
   37.8230   36.3500   61.4290 N   0  0  0  0  0  0  0  0  0  0  0  0
   37.0130   34.6430   59.4850 C   0  0  0  0  0  0  0  0  0  0  0  0
   38.5250   24.7500   58.3260 F   0  0  0  0  0  0  0  0  0  0  0  0
   38.7990   24.8700   56.0770 C   0  0  0  0  0  0  0  0  0  0  0  0
   39.6420   29.2420   51.4120 C   0  0  0  0  0  0  0  0  0  0  0  0
   38.7520   25.6220   54.8250 C   0  0  0  0  0  0  0  0  0  0  0  0
   38.1560   32.1970   55.1460 O   0  0  0  0  0  0  0  0  0  0  0  0
   37.4850   38.1680   62.4740 C   0  0  0  0  0  0  0  0  0  0  0  0
   36.8810   36.8020   62.3850 C   0  0  0  0  0  0  0  0  0  0  0  0
   39.7600   37.4270   62.1180 C   0  0  0  0  0  0  0  0  0  0  0  0
   38.6690   27.5610   53.7250 O   0  0  0  0  0  0  0  0  0  0  0  0
   35.7830   34.4180   59.0430 O   0  0  0  0  0  0  0  0  0  0  0  0
   37.0970   35.9390   60.1770 C   0  0  0  0  0  0  0  0  0  0  0  0
   38.8820   25.5720   57.3130 C   0  0  0  0  0  0  0  0  0  0  0  0
   39.8130   27.8920   50.6850 C   0  0  0  0  0  0  0  0  0  0  0  0
   38.8770   28.8910   50.1690 C   0  0  0  0  0  0  0  0  0  0  0  0
   40.9750   29.4150   48.8900 C   0  0  0  0  0  0  0  0  0  0  0  0
   39.2340   33.7680   60.6740 C   0  0  0  0  0  0  0  0  0  0  0  0
   38.7280   28.9210   53.5960 C   0  0  0  0  0  0  0  0  0  0  0  0
   40.4510   30.5090   51.1740 C   0  0  0  0  0  0  0  0  0  0  0  0
   37.8180   32.1170   59.6180 C   0  0  0  0  0  0  0  0  0  0  0  0
   39.1520   29.7970   57.0990 C   0  0  0  0  0  0  0  0  0  0  0  0
   38.8980   27.6470   56.1060 C   0  0  0  0  0  0  0  0  0  0  0  0
   38.9360   29.2820   56.1050 C   0  0  0  0  0  0  0  0  0  0  0  0
   39.9890   28.3460   49.2630 C   0  0  0  0  0  0  0  0  0  0  0  0
   36.2690   36.8160   59.6550 O   0  0  0  0  0  0  0  0  0  0  0  0
   38.9400   38.1380   62.6960 C   0  0  0  0  0  0  0  0  0  0  0  0
   38.7050   29.5100   52.4320 N   0  0  0  0  0  0  0  0  0  0  0  0
   39.6090   34.9660   60.9130 C   0  0  0  0  0  0  0  0  0  0  0  0
   38.2540   30.0180   58.3130 C   0  0  0  0  0  0  0  0  0  0  0  0
   38.8720   29.8540   54.7260 C   0  0  0  0  0  0  0  0  0  0  0  0
  2 38  1  0
  2 14  2  0
  3 28  1  0
  3 25  1  0
  4 13  1  0
  4 30  1  0
  5 28  3  0
  6 27  1  0
  7 36  1  0
  7 17  1  0
  8  7  1  0
  8 16  1  0
  9 19  1  0
  9  3  1  0
  9 20  1  0
 11 21  1  0
 12 35  1  0
 13 11  2  0
 15 34  1  0
 16 15  1  0
 17 34  1  0
 18  4  1  0
 20  8  1  0
 21  1  2  0
 21 10  1  0
 22 12  1  0
 23 22  1  0
 23 12  1  0
 24 32  1  0
 24  6  1  0
 25 36  1  0
 26 18  1  0
 26 38  2  0
 27 12  1  0
 29 37  1  0
 30  1  1  0
 31 30  2  0
 31 29  1  0
 32 23  1  0
 32 22  1  0
 33 20  2  0
 35 26  1  0
 37  5  1  0
 38 31  1  0
M  END
$$$$

     RDKit          3D

 39 43  0  0  0  0  0  0  0  0999 V2000
   35.4600   35.2230   59.0400 C   0  0  0  0  0  0  0  0  0  0  0  0
   38.5860   29.7790   57.1030 C   0  0  0  0  0  0  0  0  0  0  0  0
   37.7490   35.0130   59.7200 C   0  0  0  0  0  0  0  0  0  0  0  0
   35.8180   30.9450   59.7310 O   0  0  0  0  0  0  0  0  0  0  0  0
   36.7960   37.2580   59.2660 C   0  0  0  0  0  0  0  0  0  0  0  0
   39.1570   27.7770   49.2850 C   0  0  0  0  0  0  0  0  0  0  0  0
   38.7870   29.5340   47.5080 C   0  0  0  0  0  0  0  0  0  0  0  0
   38.4760   28.2610   48.2320 C   0  0  0  0  0  0  0  0  0  0  0  0
   39.9310   31.3560   54.4030 C   0  0  0  0  0  0  0  0  0  0  0  0
   38.5780   33.5400   56.1220 C   0  0  0  0  0  0  0  0  0  0  0  0
   39.1560   34.8580   61.6500 N   0  0  0  0  0  0  0  0  0  0  0  0
   38.5540   32.0960   56.7700 C   0  0  0  0  0  0  0  0  0  0  0  0
   38.0760   32.5890   61.1960 C   0  0  0  0  0  0  0  0  0  0  0  0
   38.5650   30.0040   58.3240 C   0  0  0  0  0  0  0  0  0  0  0  0
   40.0720   34.2840   62.3240 N   0  0  0  0  0  0  0  0  0  0  0  0
   39.8030   26.3940   50.8370 C   0  0  0  0  0  0  0  0  0  0  0  0
   39.4710   28.5410   50.4860 C   0  0  0  0  0  0  0  0  0  0  0  0
   40.5550   36.5160   62.4110 C   0  0  0  0  0  0  0  0  0  0  0  0
   38.0160   34.1300   61.0150 C   0  0  0  0  0  0  0  0  0  0  0  0
   39.3880   26.5500   49.5800 O   0  0  0  0  0  0  0  0  0  0  0  0
   40.9580   35.3140   62.9340 C   0  0  0  0  0  0  0  0  0  0  0  0
   36.9650   32.0240   61.6900 O   0  0  0  0  0  0  0  0  0  0  0  0
   38.6560   28.0540   53.5500 N   0  0  0  0  0  0  0  0  0  0  0  0
   39.8930   29.8980   50.5700 C   0  0  0  0  0  0  0  0  0  0  0  0
   38.8640   28.5570   55.7600 C   0  0  0  0  0  0  0  0  0  0  0  0
   39.2600   30.6510   48.2150 C   0  0  0  0  0  0  0  0  0  0  0  0
   38.8100   30.9520   56.6050 N   0  0  0  0  0  0  0  0  0  0  0  0
   36.8930   30.3120   59.4020 C   0  0  0  0  0  0  0  0  0  0  0  0
   40.1450   24.6860   50.6900 S   0  0  0  0  0  0  0  0  0  0  0  0
   37.7890   30.9700   58.9760 C   0  0  0  0  0  0  0  0  0  0  0  0
   39.8320   30.7930   49.6120 C   0  0  0  0  0  0  0  0  0  0  0  0
   38.4990   32.0000   59.8390 N   0  0  0  0  0  0  0  0  0  0  0  0
   38.9300   31.2400   55.5640 C   0  0  0  0  0  0  0  0  0  0  0  0
   38.9420   27.3030   52.5160 C   0  0  0  0  0  0  0  0  0  0  0  0
   39.6770   30.1510   53.3860 C   0  0  0  0  0  0  0  0  0  0  0  0
   39.4380   27.3340   51.5300 C   0  0  0  0  0  0  0  0  0  0  0  0
   39.1560   28.9900   54.4380 C   0  0  0  0  0  0  0  0  0  0  0  0
   39.4850   36.0890   61.5260 N   0  0  0  0  0  0  0  0  0  0  0  0
   36.4800   35.8670   59.8420 C   0  0  0  0  0  0  0  0  0  0  0  0
  1 39  1  0
  2 14  1  0
  3 39  1  0
  5 39  1  0
  6 20  1  0
  6 17  1  0
  7 26  2  0
  7  8  1  0
  8  6  2  0
  9 33  1  0
 11 15  1  0
 12 10  1  0
 13 22  1  0
 14 30  1  0
 15 21  1  0
 16 29  1  0
 16 36  1  0
 17 24  1  0
 17 36  1  0
 18 21  1  0
 19  3  1  0
 19 13  1  0
 19 11  1  0
 20 16  1  0
 23 37  1  0
 25  2  1  0
 26 31  1  0
 27 12  1  0
 27  2  1  0
 28  4  1  0
 30 28  1  0
 30 32  1  0
 31 24  2  0
 32 13  1  0
 33 27  1  0
 33 12  1  0
 34 23  1  0
 35  9  1  0
 35 37  1  0
 36 34  1  0
 37 25  1  0
 38 11  1  0
 38 18  1  0
M  END
$$$$

     RDKit          3D

 34 35  0  0  0  0  0  0  0  0999 V2000
   39.1640   28.5920   51.6900 C   0  0  0  0  0  0  0  0  0  0  0  0
   36.9910   31.6580   61.7760 O   0  0  0  0  0  0  0  0  0  0  0  0
   39.3350   27.7860   49.5210 C   0  0  0  0  0  0  0  0  0  0  0  0
   40.5180   36.1370   61.3580 Cl  0  0  0  0  0  0  0  0  0  0  0  0
   38.7750   29.8490   60.3560 C   0  0  0  0  0  0  0  0  0  0  0  0
   38.5230   32.2960   56.5430 C   0  0  0  0  0  0  0  0  0  0  0  0
   37.8090   37.5940   61.7490 C   0  0  0  0  0  0  0  0  0  0  0  0
   37.7980   36.1890   61.2530 C   0  0  0  0  0  0  0  0  0  0  0  0
   38.2120   30.8860   58.5110 C   0  0  0  0  0  0  0  0  0  0  0  0
   36.5770   35.6300   60.8250 C   0  0  0  0  0  0  0  0  0  0  0  0
   36.9760   27.9920   53.2020 O   0  0  0  0  0  0  0  0  0  0  0  0
   36.5340   34.3150   60.4640 C   0  0  0  0  0  0  0  0  0  0  0  0
   39.3430   26.4740   55.1070 C   0  0  0  0  0  0  0  0  0  0  0  0
   39.4640   27.0370   53.9090 C   0  0  0  0  0  0  0  0  0  0  0  0
   37.7010   33.5020   60.5650 C   0  0  0  0  0  0  0  0  0  0  0  0
   39.1740   25.2470   55.3480 C   0  0  0  0  0  0  0  0  0  0  0  0
   40.4000   29.7830   50.2220 C   0  0  0  0  0  0  0  0  0  0  0  0
   38.1040   33.4610   56.1280 O   0  0  0  0  0  0  0  0  0  0  0  0
   38.9190   34.0100   60.9050 C   0  0  0  0  0  0  0  0  0  0  0  0
   39.2360   31.4390   55.8650 C   0  0  0  0  0  0  0  0  0  0  0  0
   38.0280   30.8100   59.9700 C   0  0  0  0  0  0  0  0  0  0  0  0
   38.5570   28.2780   53.1800 S   0  0  0  0  0  0  0  0  0  0  0  0
   39.3080   31.7550   53.5020 C   0  0  0  0  0  0  0  0  0  0  0  0
   38.3220   29.5950   57.9650 C   0  0  0  0  0  0  0  0  0  0  0  0
   37.5670   32.0560   60.5880 C   0  0  0  0  0  0  0  0  0  0  0  0
   39.9550   28.8870   49.3360 C   0  0  0  0  0  0  0  0  0  0  0  0
   39.0030   35.4210   61.1660 C   0  0  0  0  0  0  0  0  0  0  0  0
   35.2930   33.7670   59.9270 C   0  0  0  0  0  0  0  0  0  0  0  0
   38.8590   27.6270   50.7690 C   0  0  0  0  0  0  0  0  0  0  0  0
   39.1410   30.8820   54.5020 C   0  0  0  0  0  0  0  0  0  0  0  0
   38.8460   29.5640   53.7570 C   0  0  0  0  0  0  0  0  0  0  0  0
   39.9560   29.5830   51.4030 C   0  0  0  0  0  0  0  0  0  0  0  0
   38.2490   31.9590   57.9060 N   0  0  0  0  0  0  0  0  0  0  0  0
   36.3740   30.4980   59.5270 C   0  0  0  0  0  0  0  0  0  0  0  0
  1 22  1  0
  3 29  1  0
  6 33  1  0
  8  7  1  0
  9 21  1  0
 10  8  2  0
 12 15  2  0
 12 10  1  0
 13 16  2  0
 14 13  1  0
 15 25  1  0
 15 19  1  0
 17 32  2  0
 18  6  2  0
 19 27  2  0
 20  6  1  0
 21  5  1  0
 21 25  1  0
 22 11  1  0
 22 31  1  0
 22 14  1  0
 23 30  2  0
 24  9  1  0
 25  2  1  0
 26  3  2  0
 26 17  1  0
 27  8  1  0
 27  4  1  0
 28 12  1  0
 29  1  2  0
 30 20  1  0
 31 30  1  0
 32  1  1  0
 33  9  2  3
 34 21  1  0
M  END
$$$$

     RDKit          3D

 33 35  0  0  0  0  0  0  0  0999 V2000
   40.5360   26.0750   55.8910 O   0  0  0  0  0  0  0  0  0  0  0  0
   39.5220   28.3710   52.6100 C   0  0  0  0  0  0  0  0  0  0  0  0
   36.9300   33.4810   60.7520 C   0  0  0  0  0  0  0  0  0  0  0  0
   39.8180   29.6890   50.6320 C   0  0  0  0  0  0  0  0  0  0  0  0
   39.6870   29.5830   53.2610 C   0  0  0  0  0  0  0  0  0  0  0  0
   39.2160   27.1200   53.1100 C   0  0  0  0  0  0  0  0  0  0  0  0
   37.1930   24.8320   55.7230 C   0  0  0  0  0  0  0  0  0  0  0  0
   37.4780   28.9510   58.4850 C   0  0  0  0  0  0  0  0  0  0  0  0
   37.8100   34.3100   59.8120 C   0  0  0  0  0  0  0  0  0  0  0  0
   37.0710   35.4720   60.1760 N   0  0  0  0  0  0  0  0  0  0  0  0
   39.4830   30.7390   48.5800 F   0  0  0  0  0  0  0  0  0  0  0  0
   39.8990   30.8360   52.4880 C   0  0  0  0  0  0  0  0  0  0  0  0
   40.7060   28.6450   48.6510 F   0  0  0  0  0  0  0  0  0  0  0  0
   37.0920   36.6950   59.9530 C   0  0  0  0  0  0  0  0  0  0  0  0
   37.5690   30.2370   58.1500 C   0  0  0  0  0  0  0  0  0  0  0  0
   38.8960   31.0720   57.0310 C   0  0  0  0  0  0  0  0  0  0  0  0
   38.8710   27.3810   55.3290 C   0  0  0  0  0  0  0  0  0  0  0  0
   38.8300   24.8990   55.2330 O   0  0  0  0  0  0  0  0  0  0  0  0
   36.1920   33.9820   61.6430 O   0  0  0  0  0  0  0  0  0  0  0  0
   39.7110   28.4090   51.1520 C   0  0  0  0  0  0  0  0  0  0  0  0
   39.3680   26.1800   55.0840 C   0  0  0  0  0  0  0  0  0  0  0  0
   39.5770   29.9330   54.6460 C   0  0  0  0  0  0  0  0  0  0  0  0
   37.5720   32.2280   59.1190 N   0  0  0  0  0  0  0  0  0  0  0  0
   40.0190   29.7030   49.3000 C   0  0  0  0  0  0  0  0  0  0  0  0
   39.8600   30.8900   51.2060 C   0  0  0  0  0  0  0  0  0  0  0  0
   37.9580   30.2430   56.3370 C   0  0  0  0  0  0  0  0  0  0  0  0
   36.7160   36.8400   59.1190 O   0  0  0  0  0  0  0  0  0  0  0  0
   37.9880   28.0770   57.4290 C   0  0  0  0  0  0  0  0  0  0  0  0
   37.9250   28.8960   56.1970 C   0  0  0  0  0  0  0  0  0  0  0  0
   37.0150   32.2100   60.1400 N   0  0  0  0  0  0  0  0  0  0  0  0
   39.1140   28.5740   55.1740 N   0  0  0  0  0  0  0  0  0  0  0  0
   38.0460   33.3940   58.5660 C   0  0  0  0  0  0  0  0  0  0  0  0
   37.6790   31.2170   58.9690 N   0  0  0  0  0  0  0  0  0  0  0  0
  2  6  1  0
  2  5  1  0
  3 19  2  0
  4 20  1  0
  4 25  2  0
  5 22  1  0
  9 10  1  0
  9  3  1  0
 11 24  1  0
 12  5  2  0
 13 24  1  0
 14 10  1  0
 15  8  1  0
 15 33  1  0
 18  7  1  0
 20  2  2  0
 21 18  1  0
 21 17  1  0
 21  1  1  0
 22 31  1  0
 23 30  1  0
 24  4  1  0
 25 12  1  0
 26 16  1  0
 26 15  1  0
 27 14  1  0
 28  8  1  0
 29 31  1  0
 29 26  1  0
 29 28  1  0
 30  3  1  0
 31 17  1  0
 32 23  1  0
 32  9  1  0
 33 23  1  0
M  END
$$$$

     RDKit          3D

 11 10  0  0  0  0  0  0  0  0999 V2000
   38.8700   29.2580   53.3180 C   0  0  0  0  0  0  0  0  0  0  0  0
   39.6110   28.7540   50.7800 C   0  0  0  0  0  0  0  0  0  0  0  0
   37.4330   33.7230   57.8460 N   0  0  0  0  0  0  0  0  0  0  0  0
   38.2230   33.0700   55.7480 C   0  0  0  0  0  0  0  0  0  0  0  0
   39.4760   29.6640   54.8210 C   0  0  0  0  0  0  0  0  0  0  0  0
   36.9850   27.4530   54.0280 O   0  0  0  0  0  0  0  0  0  0  0  0
   37.6420   28.5390   53.9840 C   0  0  0  0  0  0  0  0  0  0  0  0
   38.4830   32.8580   57.2150 C   0  0  0  0  0  0  0  0  0  0  0  0
   39.2950   27.8760   52.2440 S   0  0  0  0  0  0  0  0  0  0  0  0
   39.3790   31.1500   55.3510 C   0  0  0  0  0  0  0  0  0  0  0  0
   38.2100   31.8800   54.8120 O   0  0  0  0  0  0  0  0  0  0  0  0
  1  7  1  0
  1  5  1  0
  2  9  1  0
  4  8  1  0
  5 10  1  0
  7  6  2  0
  8  3  1  0
  9  1  1  0
 11 10  1  0
 11  4  1  0
M  END
$$$$

     RDKit          3D

 25 28  0  0  0  0  0  0  0  0999 V2000
   39.7130   29.5510   51.6760 C   0  0  0  0  0  0  0  0  0  0  0  0
   38.5210   32.6500   56.2550 C   0  0  0  0  0  0  0  0  0  0  0  0
   38.1100   32.4390   58.8280 N   0  0  0  0  0  0  0  0  0  0  0  0
   38.7910   33.6740   59.3310 C   0  0  0  0  0  0  0  0  0  0  0  0
   37.2040   31.7260   59.7640 C   0  0  0  0  0  0  0  0  0  0  0  0
   38.2040   30.3170   57.4780 C   0  0  0  0  0  0  0  0  0  0  0  0
   38.0830   27.6150   53.1940 C   0  0  0  0  0  0  0  0  0  0  0  0
   39.3720   33.3920   60.7470 C   0  0  0  0  0  0  0  0  0  0  0  0
   38.0650   30.4080   54.7120 C   0  0  0  0  0  0  0  0  0  0  0  0
   38.2710   31.9240   54.9620 C   0  0  0  0  0  0  0  0  0  0  0  0
   37.8140   31.4920   61.0920 C   0  0  0  0  0  0  0  0  0  0  0  0
   39.0600   29.9870   52.8780 C   0  0  0  0  0  0  0  0  0  0  0  0
   40.3870   30.4170   50.5590 C   0  0  0  0  0  0  0  0  0  0  0  0
   38.8330   27.3290   51.8770 C   0  0  0  0  0  0  0  0  0  0  0  0
   40.1610   29.8960   49.3050 F   0  0  0  0  0  0  0  0  0  0  0  0
   39.6250   28.1970   51.2790 C   0  0  0  0  0  0  0  0  0  0  0  0
   39.2290   32.0720   61.2530 C   0  0  0  0  0  0  0  0  0  0  0  0
   38.6470   31.7730   57.5280 C   0  0  0  0  0  0  0  0  0  0  0  0
   35.9730   32.3590   59.8300 O   0  0  0  0  0  0  0  0  0  0  0  0
   38.7090   35.7760   60.5310 C   0  0  0  0  0  0  0  0  0  0  0  0
   38.2250   29.0410   53.7150 C   0  0  0  0  0  0  0  0  0  0  0  0
   40.2910   35.5900   62.5180 C   0  0  0  0  0  0  0  0  0  0  0  0
   39.7750   34.7430   61.3430 C   0  0  0  0  0  0  0  0  0  0  0  0
   37.8880   29.6280   56.1010 C   0  0  0  0  0  0  0  0  0  0  0  0
   37.9060   34.9600   59.5140 C   0  0  0  0  0  0  0  0  0  0  0  0
  1 12  1  0
  2 18  1  0
  3  4  1  0
  3  5  1  0
  4 25  1  0
  4  8  1  0
  5 19  1  0
  5 11  1  0
  6 18  2  0
  7 21  1  0
  8 17  1  0
  8 23  1  0
  9 10  1  0
  9 24  2  0
 10  2  2  0
 11 17  1  0
 12 21  2  0
 13  1  1  0
 14  7  2  0
 15 13  1  0
 16  1  2  0
 16 14  1  0
 18  3  1  0
 20 23  1  0
 21  9  1  0
 23 22  1  0
 24  6  1  0
 25 20  1  0
M  END
$$$$

     RDKit          3D

 36 39  0  0  0  0  0  0  0  0999 V2000
   38.5540   37.4410   62.5440 N   0  0  0  0  0  0  0  0  0  0  0  0
   36.5850   34.3750   60.9150 C   0  0  0  0  0  0  0  0  0  0  0  0
   38.5440   27.0740   55.9300 C   0  0  0  0  0  0  0  0  0  0  0  0
   36.3650   36.4550   59.1800 O   0  0  0  0  0  0  0  0  0  0  0  0
   38.1700   28.7970   58.1460 C   0  0  0  0  0  0  0  0  0  0  0  0
   38.9520   27.8700   47.4250 N   0  0  0  0  0  0  0  0  0  0  0  0
   37.6810   34.9450   60.5110 C   0  0  0  0  0  0  0  0  0  0  0  0
   38.5110   26.5030   57.3010 C   0  0  0  0  0  0  0  0  0  0  0  0
   40.2420   30.2690   50.0790 C   0  0  0  0  0  0  0  0  0  0  0  0
   37.9670   29.9260   59.3160 C   0  0  0  0  0  0  0  0  0  0  0  0
   39.8190   34.2640   62.3040 S   0  0  0  0  0  0  0  0  0  0  0  0
   39.0220   32.0540   60.2280 C   0  0  0  0  0  0  0  0  0  0  0  0
   38.2190   38.3510   61.4610 C   0  0  0  0  0  0  0  0  0  0  0  0
   38.8790   33.6230   59.7180 C   0  0  0  0  0  0  0  0  0  0  0  0
   39.7080   27.7330   51.3290 C   0  0  0  0  0  0  0  0  0  0  0  0
   37.2160   28.5360   53.0360 C   0  0  0  0  0  0  0  0  0  0  0  0
   37.2600   37.6390   60.6370 N   0  0  0  0  0  0  0  0  0  0  0  0
   38.9100   36.3300   62.2600 C   0  0  0  0  0  0  0  0  0  0  0  0
   38.2690   28.9680   54.1730 C   0  0  0  0  0  0  0  0  0  0  0  0
   36.7130   27.4680   53.2290 O   0  0  0  0  0  0  0  0  0  0  0  0
   38.3540   28.5860   55.7020 C   0  0  0  0  0  0  0  0  0  0  0  0
   40.3240   35.5380   63.5150 C   0  0  0  0  0  0  0  0  0  0  0  0
   38.1480   29.3410   56.8090 C   0  0  0  0  0  0  0  0  0  0  0  0
   39.8680   27.7800   49.9420 C   0  0  0  0  0  0  0  0  0  0  0  0
   39.7230   28.8890   52.0700 C   0  0  0  0  0  0  0  0  0  0  0  0
   37.3970   30.9980   58.4520 O   0  0  0  0  0  0  0  0  0  0  0  0
   39.5920   28.8930   53.4720 O   0  0  0  0  0  0  0  0  0  0  0  0
   39.8000   29.0000   48.0980 C   0  0  0  0  0  0  0  0  0  0  0  0
   37.1120   36.4940   60.1940 C   0  0  0  0  0  0  0  0  0  0  0  0
   40.0110   30.2090   51.4750 C   0  0  0  0  0  0  0  0  0  0  0  0
   38.5860   31.5150   58.9510 C   0  0  0  0  0  0  0  0  0  0  0  0
   40.0250   29.0360   49.3230 C   0  0  0  0  0  0  0  0  0  0  0  0
   40.2550   30.5930   47.5220 O   0  0  0  0  0  0  0  0  0  0  0  0
   41.6710   35.6550   63.5150 C   0  0  0  0  0  0  0  0  0  0  0  0
   38.8040   35.3180   61.5240 C   0  0  0  0  0  0  0  0  0  0  0  0
   38.4370   27.4180   58.4350 C   0  0  0  0  0  0  0  0  0  0  0  0
  3  8  1  0
  4 29  2  0
  5 36  1  0
  6 28  1  0
  7  2  1  0
  7 35  1  0
  8 36  2  0
  9 30  1  0
 10  5  1  0
 11 22  1  0
 13  1  1  0
 14 12  1  0
 14  7  1  0
 15 25  1  0
 16 20  1  0
 17 13  1  0
 18  1  1  0
 19 16  1  0
 19 21  1  0
 21  3  2  0
 21 23  1  0
 22 34  1  0
 23  5  2  0
 24 15  2  0
 25 27  1  0
 26 31  1  0
 26 10  1  0
 27 19  1  0
 28 32  1  0
 29  7  1  0
 29 17  1  0
 30 25  2  0
 31 10  1  0
 31 12  1  0
 32 24  1  0
 32  9  2  0
 33 28  2  0
 35 18  2  0
 35 11  1  0
M  END
$$$$

     RDKit          3D

 10 10  0  0  0  0  0  0  0  0999 V2000
   39.1030   28.6470   51.7140 C   0  0  0  0  0  0  0  0  0  0  0  0
   39.6730   29.9320   51.9040 C   0  0  0  0  0  0  0  0  0  0  0  0
   38.5920   27.8620   52.8050 C   0  0  0  0  0  0  0  0  0  0  0  0
   38.9950   30.6550   55.9390 S   0  0  0  0  0  0  0  0  0  0  0  0
   38.0560   27.7860   55.1980 C   0  0  0  0  0  0  0  0  0  0  0  0
   40.2000   30.5180   50.7070 C   0  0  0  0  0  0  0  0  0  0  0  0
   38.3150   26.6110   52.4210 O   0  0  0  0  0  0  0  0  0  0  0  0
   39.1170   29.8130   54.2180 C   0  0  0  0  0  0  0  0  0  0  0  0
   38.6100   28.5190   54.1800 C   0  0  0  0  0  0  0  0  0  0  0  0
   39.6200   30.5110   53.2250 C   0  0  0  0  0  0  0  0  0  0  0  0
  1  2  2  0
  1  3  1  0
  2 10  1  0
  3  9  2  0
  6  2  1  0
  7  3  1  0
  8  4  1  0
  9  8  1  0
  9  5  1  0
 10  8  2  0
M  END
$$$$

     RDKit          3D

 33 36  0  0  0  0  0  0  0  0999 V2000
   38.8220   30.3310   57.6450 C   0  0  0  0  0  0  0  0  0  0  0  0
   37.8850   35.4470   61.1410 C   0  0  0  0  0  0  0  0  0  0  0  0
   36.0840   31.5590   61.2510 O   0  0  0  0  0  0  0  0  0  0  0  0
   38.9010   29.8490   53.7790 C   0  0  0  0  0  0  0  0  0  0  0  0
   38.3350   36.1830   62.4030 C   0  0  0  0  0  0  0  0  0  0  0  0
   39.9070   28.6960   51.0800 N   0  0  0  0  0  0  0  0  0  0  0  0
   38.7940   33.4650   58.7010 O   0  0  0  0  0  0  0  0  0  0  0  0
   39.7850   36.9790   62.0150 C   0  0  0  0  0  0  0  0  0  0  0  0
   36.9130   34.6540   58.9520 C   0  0  0  0  0  0  0  0  0  0  0  0
   37.5870   27.6870   53.7210 C   0  0  0  0  0  0  0  0  0  0  0  0
   38.2400   29.6530   56.4040 C   0  0  0  0  0  0  0  0  0  0  0  0
   37.6450   33.3230   59.3910 C   0  0  0  0  0  0  0  0  0  0  0  0
   40.0960   28.8890   49.8890 C   0  0  0  0  0  0  0  0  0  0  0  0
   38.2500   30.8850   54.3910 C   0  0  0  0  0  0  0  0  0  0  0  0
   40.2120   27.9120   56.3600 C   0  0  0  0  0  0  0  0  0  0  0  0
   37.4960   30.4770   58.6190 C   0  0  0  0  0  0  0  0  0  0  0  0
   39.1920   27.3450   53.4670 C   0  0  0  0  0  0  0  0  0  0  0  0
   40.7750   30.1900   49.9200 C   0  0  0  0  0  0  0  0  0  0  0  0
   37.1340   32.2310   60.4020 C   0  0  0  0  0  0  0  0  0  0  0  0
   39.6250   28.1270   48.9800 O   0  0  0  0  0  0  0  0  0  0  0  0
   38.6010   28.4430   54.3410 C   0  0  0  0  0  0  0  0  0  0  0  0
   39.3060   28.9830   55.5600 C   0  0  0  0  0  0  0  0  0  0  0  0
   39.7980   31.2200   49.6700 C   0  0  0  0  0  0  0  0  0  0  0  0
   36.9420   35.6930   60.0730 C   0  0  0  0  0  0  0  0  0  0  0  0
   39.6370   26.3300   54.3690 O   0  0  0  0  0  0  0  0  0  0  0  0
   37.2410   33.3480   60.8430 C   0  0  0  0  0  0  0  0  0  0  0  0
   38.0470   31.0530   60.0650 C   0  0  0  0  0  0  0  0  0  0  0  0
   38.8700   26.8500   51.8940 C   0  0  0  0  0  0  0  0  0  0  0  0
   37.4030   37.8890   60.0720 O   0  0  0  0  0  0  0  0  0  0  0  0
   38.4220   28.2260   51.5290 C   0  0  0  0  0  0  0  0  0  0  0  0
   37.1960   34.2350   61.7180 C   0  0  0  0  0  0  0  0  0  0  0  0
   36.6380   37.0520   59.5290 C   0  0  0  0  0  0  0  0  0  0  0  0
   37.2170   30.1720   55.3900 C   0  0  0  0  0  0  0  0  0  0  0  0
  1 16  1  0
  2 31  1  0
  2  5  1  0
  4 21  1  0
  4 14  1  0
  6 30  1  0
  8  5  1  0
  9 12  1  0
  9 24  1  0
 11  1  1  0
 12  7  1  0
 12 19  1  0
 12 26  1  0
 13 18  1  0
 13  6  1  0
 14 33  1  0
 16 27  1  0
 17 10  1  0
 17 21  1  0
 17 25  1  0
 19 26  1  0
 19  3  1  0
 20 13  2  0
 21 10  1  0
 21 22  1  0
 22 15  1  0
 22 11  1  0
 23 18  1  0
 24 32  1  0
 24  2  1  0
 26 31  1  0
 27 19  1  0
 28 17  1  0
 30 28  1  0
 32 29  1  0
 33 11  1  0
M  END
$$$$

     RDKit          3D

 15 15  0  0  0  0  0  0  0  0999 V2000
   38.8790   28.1220   53.7710 C   0  0  0  0  0  0  0  0  0  0  0  0
   38.0970   34.1610   57.5910 O   0  0  0  0  0  0  0  0  0  0  0  0
   38.1130   33.0610   58.1580 C   0  0  0  0  0  0  0  0  0  0  0  0
   38.4870   27.4040   52.4940 C   0  0  0  0  0  0  0  0  0  0  0  0
   37.3630   29.4610   56.7620 C   0  0  0  0  0  0  0  0  0  0  0  0
   37.8570   30.6190   57.8880 C   0  0  0  0  0  0  0  0  0  0  0  0
   37.9390   32.7640   59.6170 C   0  0  0  0  0  0  0  0  0  0  0  0
   39.6540   29.3160   51.1730 C   0  0  0  0  0  0  0  0  0  0  0  0
   38.2480   31.0650   54.8610 C   0  0  0  0  0  0  0  0  0  0  0  0
   38.1300   31.9210   57.1980 N   0  0  0  0  0  0  0  0  0  0  0  0
   37.7470   29.6540   55.3750 C   0  0  0  0  0  0  0  0  0  0  0  0
   40.5110   30.1470   50.0920 C   0  0  0  0  0  0  0  0  0  0  0  0
   39.3190   27.7620   51.3400 C   0  0  0  0  0  0  0  0  0  0  0  0
   38.4410   32.1950   55.8060 C   0  0  0  0  0  0  0  0  0  0  0  0
   37.5310   28.5190   54.4300 C   0  0  0  0  0  0  0  0  0  0  0  0
  1 15  1  0
  2  3  2  0
  3  7  1  0
  4  1  1  0
  5  6  1  0
  8 13  2  3
  9 11  2  0
  9 14  1  0
 10  6  1  0
 10  3  1  0
 11  5  1  0
 12  8  1  0
 13  4  1  0
 14 10  1  0
 15 11  1  0
M  END
$$$$

     RDKit          3D

 37 40  0  0  0  0  0  0  0  0999 V2000
   38.0700   33.8080   60.1290 C   0  0  0  0  0  0  0  0  0  0  0  0
   38.6250   26.6490   54.4890 C   0  0  0  0  0  0  0  0  0  0  0  0
   37.4320   30.2130   55.1200 C   0  0  0  0  0  0  0  0  0  0  0  0
   40.0160   29.4500   50.2170 C   0  0  0  0  0  0  0  0  0  0  0  0
   38.7330   30.1940   54.3520 N   0  0  0  0  0  0  0  0  0  0  0  0
   40.2480   31.5740   49.0050 O   0  0  0  0  0  0  0  0  0  0  0  0
   39.4490   27.9540   52.2370 C   0  0  0  0  0  0  0  0  0  0  0  0
   39.5420   29.1310   52.6530 C   0  0  0  0  0  0  0  0  0  0  0  0
   37.1200   31.6450   59.0470 N   0  0  0  0  0  0  0  0  0  0  0  0
   36.4940   35.2040   60.9210 N   0  0  0  0  0  0  0  0  0  0  0  0
   37.7080   30.3160   56.5590 C   0  0  0  0  0  0  0  0  0  0  0  0
   38.5960   36.4140   61.8260 C   0  0  0  0  0  0  0  0  0  0  0  0
   39.2110   25.5160   55.3550 C   0  0  0  0  0  0  0  0  0  0  0  0
   38.7920   32.9260   58.1090 C   0  0  0  0  0  0  0  0  0  0  0  0
   40.1350   30.2380   49.0160 C   0  0  0  0  0  0  0  0  0  0  0  0
   36.1690   35.9030   59.0970 O   0  0  0  0  0  0  0  0  0  0  0  0
   38.2820   31.8050   57.1880 C   0  0  0  0  0  0  0  0  0  0  0  0
   36.5880   36.0220   59.9760 C   0  0  0  0  0  0  0  0  0  0  0  0
   39.8990   28.4000   47.8170 C   0  0  0  0  0  0  0  0  0  0  0  0
   39.7690   27.6230   49.0050 C   0  0  0  0  0  0  0  0  0  0  0  0
   39.6540   28.0490   50.2540 C   0  0  0  0  0  0  0  0  0  0  0  0
   37.3020   35.3880   61.9720 C   0  0  0  0  0  0  0  0  0  0  0  0
   39.3130   29.0730   53.8280 O   0  0  0  0  0  0  0  0  0  0  0  0
   38.6800   29.9660   59.6990 C   0  0  0  0  0  0  0  0  0  0  0  0
   36.9200   32.3000   61.5630 C   0  0  0  0  0  0  0  0  0  0  0  0
   39.8490   30.1110   51.5680 C   0  0  0  0  0  0  0  0  0  0  0  0
   39.7240   31.0410   55.0350 C   0  0  0  0  0  0  0  0  0  0  0  0
   37.7460   31.1050   60.0610 C   0  0  0  0  0  0  0  0  0  0  0  0
   39.0820   31.9890   55.8670 C   0  0  0  0  0  0  0  0  0  0  0  0
   39.4520   26.7620   53.1820 C   0  0  0  0  0  0  0  0  0  0  0  0
   36.5850   31.3640   60.3030 C   0  0  0  0  0  0  0  0  0  0  0  0
   37.8180   33.2290   58.9920 C   0  0  0  0  0  0  0  0  0  0  0  0
   37.0830   26.3450   54.1980 C   0  0  0  0  0  0  0  0  0  0  0  0
   36.3510   33.7550   61.0230 C   0  0  0  0  0  0  0  0  0  0  0  0
   37.3040   37.6030   62.6660 O   0  0  0  0  0  0  0  0  0  0  0  0
   37.9810   37.6690   61.8420 O   0  0  0  0  0  0  0  0  0  0  0  0
   40.0640   29.6150   47.8560 N   0  0  0  0  0  0  0  0  0  0  0  0
  1 34  1  0
  2 13  1  0
  3 11  1  0
  4 21  1  0
  4 26  1  0
  5 27  1  0
  5  3  1  0
  6 15  2  0
  7  8  1  0
  7 30  1  0
  8 26  1  0
  8 23  1  0
  9 28  1  0
  9 31  1  0
 10 34  1  0
 10 22  1  0
 11 17  1  0
 12 36  1  0
 12 22  1  0
 14 32  1  0
 15  4  1  0
 16 18  2  0
 17 14  1  0
 18 10  1  0
 19 37  2  0
 19 20  1  0
 20 21  2  0
 23  5  1  0
 24 28  1  0
 27 29  1  0
 28 31  1  0
 29 17  1  0
 30  2  1  0
 31 25  1  0
 32  9  1  0
 32  1  1  0
 33  2  1  0
 34 25  1  0
 36 35  1  0
 37 15  1  0
M  END
$$$$

     RDKit          3D

 32 34  0  0  0  0  0  0  0  0999 V2000
   38.4110   31.1280   62.0390 C   0  0  0  0  0  0  0  0  0  0  0  0
   38.8550   24.8100   56.4250 C   0  0  0  0  0  0  0  0  0  0  0  0
   37.5250   38.0780   60.2700 N   0  0  0  0  0  0  0  0  0  0  0  0
   38.3530   32.7230   57.5520 C   0  0  0  0  0  0  0  0  0  0  0  0
   40.0960   29.8640   49.7060 C   0  0  0  0  0  0  0  0  0  0  0  0
   39.2440   28.6020   53.2070 C   0  0  0  0  0  0  0  0  0  0  0  0
   37.9690   31.6670   56.7730 N   0  0  0  0  0  0  0  0  0  0  0  0
   39.0600   29.9750   53.5170 C   0  0  0  0  0  0  0  0  0  0  0  0
   41.0120   29.6030   48.8970 O   0  0  0  0  0  0  0  0  0  0  0  0
   37.7070   36.8740   60.2590 C   0  0  0  0  0  0  0  0  0  0  0  0
   40.1910   25.8220   54.2460 C   0  0  0  0  0  0  0  0  0  0  0  0
   37.8880   35.6020   60.2190 C   0  0  0  0  0  0  0  0  0  0  0  0
   37.8290   32.1930   61.1840 C   0  0  0  0  0  0  0  0  0  0  0  0
   39.7150   28.0560   51.8520 C   0  0  0  0  0  0  0  0  0  0  0  0
   39.6580   28.7830   50.5520 C   0  0  0  0  0  0  0  0  0  0  0  0
   39.7300   31.1050   52.6170 C   0  0  0  0  0  0  0  0  0  0  0  0
   38.0030   28.9290   55.3870 S   0  0  0  0  0  0  0  0  0  0  0  0
   38.4170   30.3040   54.8760 C   0  0  0  0  0  0  0  0  0  0  0  0
   39.9700   31.2120   61.7750 C   0  0  0  0  0  0  0  0  0  0  0  0
   37.2130   35.0850   59.2350 N   0  0  0  0  0  0  0  0  0  0  0  0
   39.5330   30.9790   49.8050 O   0  0  0  0  0  0  0  0  0  0  0  0
   38.8380   27.8600   54.3840 C   0  0  0  0  0  0  0  0  0  0  0  0
   36.8780   33.6840   59.3890 C   0  0  0  0  0  0  0  0  0  0  0  0
   38.2010   26.0830   55.9820 C   0  0  0  0  0  0  0  0  0  0  0  0
   37.6320   32.6980   58.8530 N   0  0  0  0  0  0  0  0  0  0  0  0
   39.5750   35.3320   61.6960 O   0  0  0  0  0  0  0  0  0  0  0  0
   38.6820   34.7190   61.0410 C   0  0  0  0  0  0  0  0  0  0  0  0
   38.7440   33.3150   61.1800 N   0  0  0  0  0  0  0  0  0  0  0  0
   37.7730   31.6070   59.7440 C   0  0  0  0  0  0  0  0  0  0  0  0
   38.1820   31.6630   55.3460 C   0  0  0  0  0  0  0  0  0  0  0  0
   38.9420   26.4770   54.6330 C   0  0  0  0  0  0  0  0  0  0  0  0
   40.1390   32.7450   61.4300 C   0  0  0  0  0  0  0  0  0  0  0  0
  4 25  1  0
  5 21  1  0
  5 15  1  0
  6  8  1  0
  6 22  2  0
  7  4  1  0
  8 18  2  0
  9  5  2  0
 10  3  3  0
 12 10  1  0
 12 27  1  0
 13 29  1  0
 13  1  1  0
 14  6  1  0
 15 14  1  0
 16  8  1  0
 18 30  1  0
 18 17  1  0
 19  1  1  0
 20 23  1  0
 20 12  1  0
 22 31  1  0
 22 17  1  0
 24  2  1  0
 25 23  1  0
 25 29  1  0
 27 28  1  0
 27 26  2  0
 28 13  1  0
 28 32  1  0
 30  7  1  0
 31 11  1  0
 31 24  1  0
 32 19  1  0
M  END
$$$$

     RDKit          3D

 26 29  0  0  0  0  0  0  0  0999 V2000
   37.3500   30.0470   57.3160 O   0  0  0  0  0  0  0  0  0  0  0  0
   39.8700   30.3660   51.7510 C   0  0  0  0  0  0  0  0  0  0  0  0
   38.9220   28.5820   59.5000 C   0  0  0  0  0  0  0  0  0  0  0  0
   39.7670   29.1580   51.1460 C   0  0  0  0  0  0  0  0  0  0  0  0
   37.4010   29.5480   54.7410 C   0  0  0  0  0  0  0  0  0  0  0  0
   40.0470   27.5890   49.3900 F   0  0  0  0  0  0  0  0  0  0  0  0
   37.7170   28.7630   57.1720 C   0  0  0  0  0  0  0  0  0  0  0  0
   40.3240   28.8160   49.7350 C   0  0  0  0  0  0  0  0  0  0  0  0
   38.5100   28.2920   52.9960 C   0  0  0  0  0  0  0  0  0  0  0  0
   39.2300   31.9410   53.8800 C   0  0  0  0  0  0  0  0  0  0  0  0
   39.2180   33.1210   56.1080 O   0  0  0  0  0  0  0  0  0  0  0  0
   37.9920   29.8550   56.0500 P   0  0  0  0  0  0  0  0  0  0  0  0
   41.3030   27.8070   59.8290 C   0  0  0  0  0  0  0  0  0  0  0  0
   38.6480   32.8660   53.1950 F   0  0  0  0  0  0  0  0  0  0  0  0
   39.2320   30.5540   53.0060 C   0  0  0  0  0  0  0  0  0  0  0  0
   38.8140   32.2470   55.5340 C   0  0  0  0  0  0  0  0  0  0  0  0
   37.8540   31.7000   55.9260 N   0  0  0  0  0  0  0  0  0  0  0  0
   38.4640   29.5090   53.6190 C   0  0  0  0  0  0  0  0  0  0  0  0
   40.1740   28.4470   60.2670 C   0  0  0  0  0  0  0  0  0  0  0  0
   38.7980   28.2270   58.1730 C   0  0  0  0  0  0  0  0  0  0  0  0
   39.6200   27.1990   57.4940 C   0  0  0  0  0  0  0  0  0  0  0  0
   39.0870   28.1300   51.8650 C   0  0  0  0  0  0  0  0  0  0  0  0
   41.6010   28.9500   49.8960 F   0  0  0  0  0  0  0  0  0  0  0  0
   39.8480   29.6650   48.9140 F   0  0  0  0  0  0  0  0  0  0  0  0
   41.0940   27.5870   57.3280 C   0  0  0  0  0  0  0  0  0  0  0  0
   41.8150   27.2920   58.6770 C   0  0  0  0  0  0  0  0  0  0  0  0
  2 15  1  0
  3 19  1  0
  4  2  2  0
  4 22  1  0
  6  8  1  0
  7  1  1  0
  7 20  1  0
  8 23  1  0
  8  4  1  0
  9 18  1  0
 10 14  1  0
 10 16  1  0
 12  5  1  0
 12  7  1  0
 12  1  1  0
 13 19  2  0
 15 18  2  0
 15 10  1  0
 16 17  1  0
 16 11  2  0
 17 12  1  0
 18  5  1  0
 20 21  1  0
 20  3  1  0
 22  9  2  0
 24  8  1  0
 25 21  1  0
 25 26  1  0
 26 13  1  0
M  END
$$$$

     RDKit          3D

 35 38  0  0  0  0  0  0  0  0999 V2000
   38.0680   27.5270   55.1140 C   0  0  0  0  0  0  0  0  0  0  0  0
   37.2940   35.4880   59.8800 C   0  0  0  0  0  0  0  0  0  0  0  0
   39.0860   33.9990   61.2090 C   0  0  0  0  0  0  0  0  0  0  0  0
   39.3630   28.2920   51.6570 C   0  0  0  0  0  0  0  0  0  0  0  0
   37.7950   34.4470   60.3360 C   0  0  0  0  0  0  0  0  0  0  0  0
   39.0330   24.8580   56.7330 C   0  0  0  0  0  0  0  0  0  0  0  0
   37.0690   31.1020   60.3790 C   0  0  0  0  0  0  0  0  0  0  0  0
   38.8900   36.5630   61.4850 C   0  0  0  0  0  0  0  0  0  0  0  0
   38.8230   30.8450   56.7990 N   0  0  0  0  0  0  0  0  0  0  0  0
   37.2950   33.2670   60.0610 O   0  0  0  0  0  0  0  0  0  0  0  0
   40.6210   30.0020   49.8110 C   0  0  0  0  0  0  0  0  0  0  0  0
   38.0340   37.4840   60.5930 C   0  0  0  0  0  0  0  0  0  0  0  0
   36.2330   29.5930   58.7540 C   0  0  0  0  0  0  0  0  0  0  0  0
   38.0490   32.6230   55.4410 N   0  0  0  0  0  0  0  0  0  0  0  0
   37.4730   27.8690   53.6900 N   0  0  0  0  0  0  0  0  0  0  0  0
   36.9750   36.8200   59.8650 C   0  0  0  0  0  0  0  0  0  0  0  0
   38.1190   31.1500   58.0720 C   0  0  0  0  0  0  0  0  0  0  0  0
   38.9550   31.6880   55.6810 C   0  0  0  0  0  0  0  0  0  0  0  0
   37.8010   32.3230   60.5950 N   0  0  0  0  0  0  0  0  0  0  0  0
   40.4160   30.5090   51.0970 C   0  0  0  0  0  0  0  0  0  0  0  0
   37.8800   26.0160   54.7990 C   0  0  0  0  0  0  0  0  0  0  0  0
   38.4740   28.4980   55.6810 C   0  0  0  0  0  0  0  0  0  0  0  0
   37.0780   29.2410   53.6930 C   0  0  0  0  0  0  0  0  0  0  0  0
   39.7700   29.6770   52.0980 C   0  0  0  0  0  0  0  0  0  0  0  0
   39.4950   35.2420   61.7310 C   0  0  0  0  0  0  0  0  0  0  0  0
   39.4920   27.8980   50.4610 C   0  0  0  0  0  0  0  0  0  0  0  0
   37.1340   29.7070   55.0870 C   0  0  0  0  0  0  0  0  0  0  0  0
   40.0820   31.5230   54.9420 O   0  0  0  0  0  0  0  0  0  0  0  0
   37.5600   30.2330   59.1560 C   0  0  0  0  0  0  0  0  0  0  0  0
   38.4460   27.4220   52.6740 C   0  0  0  0  0  0  0  0  0  0  0  0
   39.1190   25.4110   55.3070 C   0  0  0  0  0  0  0  0  0  0  0  0
   38.9980   32.7400   61.4640 C   0  0  0  0  0  0  0  0  0  0  0  0
   38.0910   38.7230   60.7250 O   0  0  0  0  0  0  0  0  0  0  0  0
   39.3000   29.2990   56.6150 C   0  0  0  0  0  0  0  0  0  0  0  0
   40.1360   28.7520   49.3830 C   0  0  0  0  0  0  0  0  0  0  0  0
  1 21  1  0
  1 22  1  0
  3 32  2  0
  3 25  1  0
  4 24  1  0
  4 30  1  0
  5  2  1  0
  5  3  1  0
  7 19  1  0
  8 25  1  0
  9 17  1  0
 10  5  1  0
 10 19  1  0
 11 20  1  0
 12 33  2  0
 12  8  1  0
 14 18  1  0
 15 23  1  0
 15  1  1  0
 16  2  1  0
 16 12  1  0
 17 29  1  0
 18  9  1  0
 19 32  1  0
 20 24  2  0
 21 31  1  0
 22 34  1  0
 23 27  1  0
 26  4  2  0
 27 22  1  0
 28 18  2  0
 29 13  1  0
 29  7  1  0
 30 15  1  0
 31  6  1  0
 34  9  1  0
 35 11  2  0
 35 26  1  0
M  END
$$$$

     RDKit          3D

 38 41  0  0  0  0  0  0  0  0999 V2000
   38.4350   37.0770   61.5790 C   0  0  0  0  0  0  0  0  0  0  0  0
   38.2220   33.1400   58.8820 N   0  0  0  0  0  0  0  0  0  0  0  0
   39.7380   30.1480   51.8310 C   0  0  0  0  0  0  0  0  0  0  0  0
   38.0000   39.3390   60.8060 O   0  0  0  0  0  0  0  0  0  0  0  0
   38.6820   36.6470   63.0930 C   0  0  0  0  0  0  0  0  0  0  0  0
   39.5700   28.9930   59.7930 C   0  0  0  0  0  0  0  0  0  0  0  0
   39.2040   29.8580   58.8580 N   0  0  0  0  0  0  0  0  0  0  0  0
   38.1410   31.9970   58.1230 C   0  0  0  0  0  0  0  0  0  0  0  0
   36.4350   36.9940   60.3630 O   0  0  0  0  0  0  0  0  0  0  0  0
   40.8050   27.5420   58.1080 C   0  0  0  0  0  0  0  0  0  0  0  0
   38.2960   32.3010   56.6180 C   0  0  0  0  0  0  0  0  0  0  0  0
   41.0000   28.5580   62.5490 C   0  0  0  0  0  0  0  0  0  0  0  0
   40.9640   29.5950   61.6190 O   0  0  0  0  0  0  0  0  0  0  0  0
   38.0770   30.5580   58.3580 C   0  0  0  0  0  0  0  0  0  0  0  0
   38.0100   35.1800   59.9760 C   0  0  0  0  0  0  0  0  0  0  0  0
   40.1320   27.5710   59.4560 C   0  0  0  0  0  0  0  0  0  0  0  0
   37.3550   34.1870   59.1190 C   0  0  0  0  0  0  0  0  0  0  0  0
   38.7510   38.5330   61.3300 C   0  0  0  0  0  0  0  0  0  0  0  0
   37.6390   31.4840   55.6540 O   0  0  0  0  0  0  0  0  0  0  0  0
   37.4050   30.2960   59.4760 O   0  0  0  0  0  0  0  0  0  0  0  0
   39.4750   33.4480   59.7510 C   0  0  0  0  0  0  0  0  0  0  0  0
   41.3770   28.5540   57.7080 O   0  0  0  0  0  0  0  0  0  0  0  0
   37.4750   30.2020   55.7350 C   0  0  0  0  0  0  0  0  0  0  0  0
   37.2360   29.7430   57.2030 C   0  0  0  0  0  0  0  0  0  0  0  0
   38.6030   29.5340   54.9510 C   0  0  0  0  0  0  0  0  0  0  0  0
   40.1260   29.9480   49.0370 C   0  0  0  0  0  0  0  0  0  0  0  0
   40.0280   28.8900   51.3590 C   0  0  0  0  0  0  0  0  0  0  0  0
   39.5060   31.1780   51.0190 C   0  0  0  0  0  0  0  0  0  0  0  0
   37.5490   36.4310   60.6430 C   0  0  0  0  0  0  0  0  0  0  0  0
   39.8970   38.9130   61.7830 O   0  0  0  0  0  0  0  0  0  0  0  0
   39.6320   30.3200   53.3410 C   0  0  0  0  0  0  0  0  0  0  0  0
   39.0570   34.5700   60.7300 C   0  0  0  0  0  0  0  0  0  0  0  0
   39.6860   31.0870   49.6180 C   0  0  0  0  0  0  0  0  0  0  0  0
   40.0700   28.9500   49.9160 C   0  0  0  0  0  0  0  0  0  0  0  0
   40.8270   26.4530   57.5400 O   0  0  0  0  0  0  0  0  0  0  0  0
   39.6920   29.5960   61.0450 C   0  0  0  0  0  0  0  0  0  0  0  0
   39.7790   30.4800   54.8720 C   0  0  0  0  0  0  0  0  0  0  0  0
   38.3100   29.7460   53.5540 O   0  0  0  0  0  0  0  0  0  0  0  0
  1  5  1  0
  2 17  1  0
  2 21  1  0
  4 18  2  0
  6 16  1  0
  6 36  1  0
  7  6  1  0
  8 11  1  0
  8 14  1  0
  8  2  1  0
  9 29  2  0
 10 16  1  0
 13 12  1  0
 14  7  1  0
 14 20  1  0
 15 29  1  0
 15 32  1  0
 17 15  1  0
 18  1  1  0
 18 30  1  0
 19 23  1  0
 19 11  1  0
 21 32  1  0
 22 10  1  0
 23 24  1  0
 24 14  1  0
 25 37  1  0
 25 23  1  0
 26 33  2  0
 26 34  1  0
 27  3  1  0
 28  3  2  0
 29  1  1  0
 31  3  1  0
 31 38  1  0
 31 37  1  0
 33 28  1  0
 34 27  2  0
 35 10  2  0
 36 13  1  0
 38 25  1  0
M  END
$$$$

     RDKit          3D

 19 20  0  0  0  0  0  0  0  0999 V2000
   38.5990   32.9280   56.6730 C   0  0  0  0  0  0  0  0  0  0  0  0
   39.2910   29.4520   54.8230 C   0  0  0  0  0  0  0  0  0  0  0  0
   36.5640   36.7050   60.1220 C   0  0  0  0  0  0  0  0  0  0  0  0
   38.3930   35.0260   60.8500 C   0  0  0  0  0  0  0  0  0  0  0  0
   39.5040   28.2880   50.5120 C   0  0  0  0  0  0  0  0  0  0  0  0
   37.7950   32.6520   58.0260 N   0  0  0  0  0  0  0  0  0  0  0  0
   37.7390   37.7040   60.3890 C   0  0  0  0  0  0  0  0  0  0  0  0
   37.2480   33.8380   58.4970 N   0  0  0  0  0  0  0  0  0  0  0  0
   37.1550   35.4230   60.1890 N   0  0  0  0  0  0  0  0  0  0  0  0
   38.7960   28.0180   52.9650 C   0  0  0  0  0  0  0  0  0  0  0  0
   37.4790   38.3220   61.5380 O   0  0  0  0  0  0  0  0  0  0  0  0
   37.6170   27.3060   53.7560 C   0  0  0  0  0  0  0  0  0  0  0  0
   38.3630   33.1020   59.2600 C   0  0  0  0  0  0  0  0  0  0  0  0
   36.2530   34.4470   59.4970 C   0  0  0  0  0  0  0  0  0  0  0  0
   38.3360   31.7900   55.5940 C   0  0  0  0  0  0  0  0  0  0  0  0
   39.4620   27.3460   51.7740 C   0  0  0  0  0  0  0  0  0  0  0  0
   39.1570   29.2670   53.3220 C   0  0  0  0  0  0  0  0  0  0  0  0
   39.2400   34.3210   59.7740 C   0  0  0  0  0  0  0  0  0  0  0  0
   39.6090   30.9830   55.1200 C   0  0  0  0  0  0  0  0  0  0  0  0
  1  6  1  0
  2 19  1  0
  3  9  1  0
  3  7  1  0
  5 16  1  0
  6  8  1  0
  6 13  1  0
  7 11  1  0
  8 13  1  0
  8 14  1  0
  9  4  1  0
 10 17  1  0
 10 12  1  0
 13 18  1  0
 14  9  1  0
 15  1  1  0
 16 10  1  0
 17  2  1  0
 18  4  1  0
 19 15  1  0
M  END
$$$$

     RDKit          3D

 37 40  0  0  0  0  0  0  0  0999 V2000
   37.6910   31.4970   57.7230 N   0  0  0  0  0  0  0  0  0  0  0  0
   37.7860   34.9510   60.4410 C   0  0  0  0  0  0  0  0  0  0  0  0
   39.2290   29.6700   54.1040 C   0  0  0  0  0  0  0  0  0  0  0  0
   41.0560   26.9710   48.1560 C   0  0  0  0  0  0  0  0  0  0  0  0
   39.3050   36.2270   61.8440 C   0  0  0  0  0  0  0  0  0  0  0  0
   38.4540   33.7190   60.8420 N   0  0  0  0  0  0  0  0  0  0  0  0
   40.3350   27.7070   49.1570 C   0  0  0  0  0  0  0  0  0  0  0  0
   37.3230   37.3340   60.4910 C   0  0  0  0  0  0  0  0  0  0  0  0
   39.5950   26.2910   55.5530 N   0  0  0  0  0  0  0  0  0  0  0  0
   38.6140   27.6140   52.2480 C   0  0  0  0  0  0  0  0  0  0  0  0
   39.5480   31.1150   54.4140 C   0  0  0  0  0  0  0  0  0  0  0  0
   38.0140   32.6420   58.4690 C   0  0  0  0  0  0  0  0  0  0  0  0
   38.2210   29.5400   56.4990 C   0  0  0  0  0  0  0  0  0  0  0  0
   39.9150   35.0130   62.3840 C   0  0  0  0  0  0  0  0  0  0  0  0
   39.9260   37.7700   62.4250 Cl  0  0  0  0  0  0  0  0  0  0  0  0
   36.4500   36.8100   59.5280 C   0  0  0  0  0  0  0  0  0  0  0  0
   39.2970   27.4370   55.4520 C   0  0  0  0  0  0  0  0  0  0  0  0
   39.1260   29.1620   52.7140 C   0  0  0  0  0  0  0  0  0  0  0  0
   38.6980   30.9080   56.8720 C   0  0  0  0  0  0  0  0  0  0  0  0
   40.2730   29.8120   50.3730 C   0  0  0  0  0  0  0  0  0  0  0  0
   37.2210   28.7770   57.1050 O   0  0  0  0  0  0  0  0  0  0  0  0
   38.9220   27.2600   50.9740 C   0  0  0  0  0  0  0  0  0  0  0  0
   39.7370   29.8000   51.6570 N   0  0  0  0  0  0  0  0  0  0  0  0
   36.4200   35.1470   59.9230 O   0  0  0  0  0  0  0  0  0  0  0  0
   37.2870   27.4010   52.7690 C   0  0  0  0  0  0  0  0  0  0  0  0
   38.2750   33.0840   55.3290 C   0  0  0  0  0  0  0  0  0  0  0  0
   39.1610   33.8040   61.9380 O   0  0  0  0  0  0  0  0  0  0  0  0
   38.1820   36.2000   61.0380 C   0  0  0  0  0  0  0  0  0  0  0  0
   38.9610   33.3880   58.2070 O   0  0  0  0  0  0  0  0  0  0  0  0
   37.2580   32.7530   59.8880 C   0  0  0  0  0  0  0  0  0  0  0  0
   38.9560   28.8180   55.3750 N   0  0  0  0  0  0  0  0  0  0  0  0
   37.8620   30.5640   60.9060 N   0  0  0  0  0  0  0  0  0  0  0  0
   37.1470   31.7220   60.9360 C   0  0  0  0  0  0  0  0  0  0  0  0
   39.1340   31.7980   55.6470 C   0  0  0  0  0  0  0  0  0  0  0  0
   40.6120   29.0840   49.3880 C   0  0  0  0  0  0  0  0  0  0  0  0
   39.4810   27.0860   50.0100 N   0  0  0  0  0  0  0  0  0  0  0  0
   36.7330   32.0570   62.0110 O   0  0  0  0  0  0  0  0  0  0  0  0
  1 12  1  0
  2 24  1  0
  2  6  1  0
  2 28  1  0
  3 11  1  0
  3 31  1  0
  4  7  1  0
  5 14  1  0
  5 15  1  0
  6 27  1  0
  7 35  1  0
  7 36  2  0
 10 18  1  0
 10 25  1  0
 11 34  1  0
 13 19  1  0
 13 21  2  0
 16 24  1  0
 16  8  1  0
 17  9  3  0
 18 23  1  0
 18  3  1  0
 19  1  1  0
 20 23  1  0
 22 10  1  0
 27 14  1  0
 28  8  1  0
 28  5  1  0
 29 12  2  0
 30 12  1  0
 30  6  1  0
 30 33  1  0
 31 17  1  0
 31 13  1  0
 32 33  1  0
 33 37  2  0
 34 26  1  0
 34 19  1  0
 35 20  2  0
 36 22  1  0
M  END
$$$$

     RDKit          3D

 22 24  0  0  0  0  0  0  0  0999 V2000
   39.1680   29.7180   55.7450 C   0  0  0  0  0  0  0  0  0  0  0  0
   39.0790   30.6880   54.5010 C   0  0  0  0  0  0  0  0  0  0  0  0
   38.8770   34.5420   60.8970 C   0  0  0  0  0  0  0  0  0  0  0  0
   38.0350   36.9850   60.8170 C   0  0  0  0  0  0  0  0  0  0  0  0
   37.6470   28.9020   57.6690 C   0  0  0  0  0  0  0  0  0  0  0  0
   36.7970   36.6010   59.9700 C   0  0  0  0  0  0  0  0  0  0  0  0
   38.1440   30.1260   56.8430 C   0  0  0  0  0  0  0  0  0  0  0  0
   39.9770   30.5420   51.9260 C   0  0  0  0  0  0  0  0  0  0  0  0
   38.3200   32.6430   57.8240 C   0  0  0  0  0  0  0  0  0  0  0  0
   37.7800   34.1090   59.9200 C   0  0  0  0  0  0  0  0  0  0  0  0
   37.9510   38.0760   61.6890 C   0  0  0  0  0  0  0  0  0  0  0  0
   39.3390   29.8850   53.1090 C   0  0  0  0  0  0  0  0  0  0  0  0
   40.1320   29.8300   50.5740 C   0  0  0  0  0  0  0  0  0  0  0  0
   38.7420   31.2480   57.8380 C   0  0  0  0  0  0  0  0  0  0  0  0
   36.7160   35.1010   59.5380 C   0  0  0  0  0  0  0  0  0  0  0  0
   38.7340   28.5660   52.9520 C   0  0  0  0  0  0  0  0  0  0  0  0
   38.9200   27.7590   51.7560 C   0  0  0  0  0  0  0  0  0  0  0  0
   39.7600   28.3390   50.6040 C   0  0  0  0  0  0  0  0  0  0  0  0
   38.1080   27.9420   54.2040 C   0  0  0  0  0  0  0  0  0  0  0  0
   38.9020   28.2050   55.4120 C   0  0  0  0  0  0  0  0  0  0  0  0
   37.7280   32.9020   59.2010 N   0  0  0  0  0  0  0  0  0  0  0  0
   39.0590   35.9750   61.3030 C   0  0  0  0  0  0  0  0  0  0  0  0
  1  7  1  0
  2  1  1  0
  3 22  1  0
  4 22  2  0
  4 11  1  0
  6  4  1  0
  7  5  1  0
  7 14  1  0
  8 12  1  0
  9 14  1  0
  9 21  1  0
 10  3  2  0
 12  2  1  0
 13 18  1  0
 13  8  2  0
 15 10  1  0
 15  6  2  0
 16 12  2  0
 16 19  1  0
 17 16  1  0
 18 17  2  0
 19 20  1  0
 20  1  1  0
 21 10  1  0
M  END
$$$$

     RDKit          3D

 39 42  0  0  0  0  0  0  0  0999 V2000
   38.2350   27.4200   56.2210 C   0  0  0  0  0  0  0  0  0  0  0  0
   37.6260   35.0490   60.3640 C   0  0  0  0  0  0  0  0  0  0  0  0
   39.0720   30.9000   54.9470 C   0  0  0  0  0  0  0  0  0  0  0  0
   38.3870   29.8870   53.8570 C   0  0  0  0  0  0  0  0  0  0  0  0
   38.3830   29.8100   59.4550 O   0  0  0  0  0  0  0  0  0  0  0  0
   37.5250   34.2040   59.3580 C   0  0  0  0  0  0  0  0  0  0  0  0
   38.7470   30.2840   57.4270 O   0  0  0  0  0  0  0  0  0  0  0  0
   40.2300   28.8750   58.5080 C   0  0  0  0  0  0  0  0  0  0  0  0
   39.7740   28.7270   52.2450 C   0  0  0  0  0  0  0  0  0  0  0  0
   38.9070   35.2240   61.2150 C   0  0  0  0  0  0  0  0  0  0  0  0
   38.5930   31.6420   57.2390 C   0  0  0  0  0  0  0  0  0  0  0  0
   39.1030   25.3720   57.3140 C   0  0  0  0  0  0  0  0  0  0  0  0
   39.6800   26.0660   54.4280 O   0  0  0  0  0  0  0  0  0  0  0  0
   39.9330   27.3510   58.4780 C   0  0  0  0  0  0  0  0  0  0  0  0
   37.8520   32.9030   55.3970 O   0  0  0  0  0  0  0  0  0  0  0  0
   38.2920   33.3240   48.7640 C   0  0  0  0  0  0  0  0  0  0  0  0
   37.5080   26.6210   53.8430 O   0  0  0  0  0  0  0  0  0  0  0  0
   37.7020   32.0060   58.1360 N   0  0  0  0  0  0  0  0  0  0  0  0
   37.3120   32.5650   59.3240 C   0  0  0  0  0  0  0  0  0  0  0  0
   39.3940   28.5620   50.8340 C   0  0  0  0  0  0  0  0  0  0  0  0
   38.7080   27.1220   54.4430 S   0  0  0  0  0  0  0  0  0  0  0  0
   40.4200   28.8830   50.0820 O   0  0  0  0  0  0  0  0  0  0  0  0
   41.5880   27.7410   58.2510 C   0  0  0  0  0  0  0  0  0  0  0  0
   37.7140   24.7060   56.9880 C   0  0  0  0  0  0  0  0  0  0  0  0
   39.2650   36.4840   61.5910 C   0  0  0  0  0  0  0  0  0  0  0  0
   40.5580   36.4140   62.5190 S   0  0  0  0  0  0  0  0  0  0  0  0
   39.6560   34.2190   61.6420 C   0  0  0  0  0  0  0  0  0  0  0  0
   40.0820   24.6950   57.4270 O   0  0  0  0  0  0  0  0  0  0  0  0
   39.3760   27.5160   51.3610 C   0  0  0  0  0  0  0  0  0  0  0  0
   40.4950   30.1670   49.3780 C   0  0  0  0  0  0  0  0  0  0  0  0
   39.0540   29.7470   58.5690 C   0  0  0  0  0  0  0  0  0  0  0  0
   36.6290   36.2690   60.4050 C   0  0  0  0  0  0  0  0  0  0  0  0
   39.1640   32.2300   48.7450 O   0  0  0  0  0  0  0  0  0  0  0  0
   39.1110   28.6050   53.5740 N   0  0  0  0  0  0  0  0  0  0  0  0
   39.7390   31.2590   49.9830 C   0  0  0  0  0  0  0  0  0  0  0  0
   40.5950   34.6700   62.4490 C   0  0  0  0  0  0  0  0  0  0  0  0
   39.1000   26.8240   57.2580 C   0  0  0  0  0  0  0  0  0  0  0  0
   38.2100   31.5740   55.7670 C   0  0  0  0  0  0  0  0  0  0  0  0
   36.9870   37.0410   59.1620 N   0  0  0  0  0  0  0  0  0  0  0  0
  1 37  1  0
  2  6  1  0
  2 32  1  0
  2 10  1  0
  3 38  1  0
  4  3  1  0
  7 31  1  0
  8 23  1  0
  8 31  1  0
  9 29  1  0
  9 34  1  0
 10 25  2  0
 10 27  1  0
 11  7  1  0
 11 18  1  0
 12 28  2  0
 13 21  2  0
 14 23  1  0
 14  8  1  0
 17 21  2  0
 18 19  1  0
 19  6  1  0
 20 22  1  0
 20 29  1  0
 20  9  1  0
 21  1  1  0
 24 12  1  0
 25 26  1  0
 27 36  2  0
 30 35  1  0
 30 22  1  0
 31  5  2  0
 33 16  1  0
 33 35  1  0
 34  4  1  0
 34 21  1  0
 36 26  1  0
 37 12  1  0
 37 14  1  0
 38 15  1  0
 38 11  1  0
 39 32  1  0
M  END
$$$$

     RDKit          3D

 15 15  0  0  0  0  0  0  0  0999 V2000
   38.0990   30.6980   56.0070 C   0  0  0  0  0  0  0  0  0  0  0  0
   39.3290   27.3190   52.7940 C   0  0  0  0  0  0  0  0  0  0  0  0
   37.4030   36.5180   59.9920 C   0  0  0  0  0  0  0  0  0  0  0  0
   38.9920   27.5490   50.9470 Cl  0  0  0  0  0  0  0  0  0  0  0  0
   37.8830   35.0860   60.0940 C   0  0  0  0  0  0  0  0  0  0  0  0
   37.3990   34.1820   58.9010 C   0  0  0  0  0  0  0  0  0  0  0  0
   38.5360   33.2210   58.5180 C   0  0  0  0  0  0  0  0  0  0  0  0
   38.6950   29.5720   53.7340 C   0  0  0  0  0  0  0  0  0  0  0  0
   36.5060   36.9290   59.3080 O   0  0  0  0  0  0  0  0  0  0  0  0
   39.1730   31.4560   55.1550 N   0  0  0  0  0  0  0  0  0  0  0  0
   38.6680   32.0510   56.3190 C   0  0  0  0  0  0  0  0  0  0  0  0
   38.1030   37.3590   60.7460 O   0  0  0  0  0  0  0  0  0  0  0  0
   38.5180   33.0930   56.9790 C   0  0  0  0  0  0  0  0  0  0  0  0
   38.5820   28.0070   53.8230 C   0  0  0  0  0  0  0  0  0  0  0  0
   39.6530   30.4670   54.1950 C   0  0  0  0  0  0  0  0  0  0  0  0
  1 11  1  0
  2 14  1  0
  3  5  1  0
  3 12  1  0
  4  2  1  0
  6  5  1  0
  7  6  1  0
  8 14  1  0
  8 15  1  0
  9  3  2  0
 10  1  1  0
 10 11  1  0
 11 13  1  0
 13  7  1  0
 15 10  1  0
M  END
$$$$

     RDKit          3D

 35 38  0  0  0  0  0  0  0  0999 V2000
   39.9190   31.2430   53.2100 O   0  0  0  0  0  0  0  0  0  0  0  0
   37.7050   29.6960   54.5040 C   0  0  0  0  0  0  0  0  0  0  0  0
   38.5850   32.7990   56.5980 C   0  0  0  0  0  0  0  0  0  0  0  0
   38.7490   26.5410   57.2970 C   0  0  0  0  0  0  0  0  0  0  0  0
   36.9760   25.0990   57.0550 O   0  0  0  0  0  0  0  0  0  0  0  0
   37.7320   28.4380   54.9230 C   0  0  0  0  0  0  0  0  0  0  0  0
   38.2900   33.1590   57.7480 C   0  0  0  0  0  0  0  0  0  0  0  0
   38.6670   31.4710   56.5390 C   0  0  0  0  0  0  0  0  0  0  0  0
   38.4030   27.6380   52.7260 C   0  0  0  0  0  0  0  0  0  0  0  0
   36.7650   37.8120   60.6510 C   0  0  0  0  0  0  0  0  0  0  0  0
   40.0210   30.7530   50.4000 C   0  0  0  0  0  0  0  0  0  0  0  0
   40.7090   28.4870   48.8620 O   0  0  0  0  0  0  0  0  0  0  0  0
   39.6000   27.8450   59.0990 C   0  0  0  0  0  0  0  0  0  0  0  0
   37.6970   30.9920   55.2230 C   0  0  0  0  0  0  0  0  0  0  0  0
   38.9070   28.0900   51.2340 C   0  0  0  0  0  0  0  0  0  0  0  0
   39.5210   25.1920   56.2800 C   0  0  0  0  0  0  0  0  0  0  0  0
   39.7580   30.5830   51.9380 C   0  0  0  0  0  0  0  0  0  0  0  0
   37.0480   27.5090   55.7270 C   0  0  0  0  0  0  0  0  0  0  0  0
   38.2800   33.9640   59.0470 C   0  0  0  0  0  0  0  0  0  0  0  0
   37.4150   26.3490   56.5350 C   0  0  0  0  0  0  0  0  0  0  0  0
   39.6990   27.8660   50.1450 C   0  0  0  0  0  0  0  0  0  0  0  0
   37.0750   34.6280   58.9470 N   0  0  0  0  0  0  0  0  0  0  0  0
   38.1350   29.1360   53.6160 C   0  0  0  0  0  0  0  0  0  0  0  0
   39.2320   27.7910   57.6840 O   0  0  0  0  0  0  0  0  0  0  0  0
   36.8760   35.6060   61.4440 C   0  0  0  0  0  0  0  0  0  0  0  0
   36.8620   35.6110   59.9070 C   0  0  0  0  0  0  0  0  0  0  0  0
   37.2490   32.3310   54.4630 O   0  0  0  0  0  0  0  0  0  0  0  0
   37.3480   24.1950   55.7840 C   0  0  0  0  0  0  0  0  0  0  0  0
   36.5270   37.3400   63.2040 C   0  0  0  0  0  0  0  0  0  0  0  0
   41.0400   29.9730   49.6570 C   0  0  0  0  0  0  0  0  0  0  0  0
   36.7800   36.9840   61.8130 N   0  0  0  0  0  0  0  0  0  0  0  0
   39.1900   34.1050   59.8210 O   0  0  0  0  0  0  0  0  0  0  0  0
   36.8200   37.0130   59.5390 C   0  0  0  0  0  0  0  0  0  0  0  0
   39.4780   29.7080   52.3500 C   0  0  0  0  0  0  0  0  0  0  0  0
   38.9350   25.2420   57.4930 C   0  0  0  0  0  0  0  0  0  0  0  0
  2  6  1  0
  2 14  1  0
  3  7  1  0
  4 35  1  0
  4 24  1  0
  6 18  1  0
  7 19  1  0
  8  3  1  0
  9 23  1  0
 10 31  1  0
 11 17  1  0
 12 30  1  0
 12 21  1  0
 14 27  1  0
 14  8  1  0
 15  9  1  0
 16  4  1  0
 16 35  1  0
 17 34  1  0
 17  1  1  0
 19 32  2  0
 20 18  1  0
 20  5  1  0
 20  4  1  0
 21 15  1  0
 22 19  1  0
 22 26  1  0
 23 34  1  0
 23  2  1  0
 23  6  1  0
 24 13  1  0
 25 31  1  0
 26 25  2  0
 28  5  1  0
 30 11  1  0
 31 29  1  0
 33 26  1  0
 33 10  2  0
M  END
$$$$

     RDKit          3D

 20 20  0  0  0  0  0  0  0  0999 V2000
   40.3550   29.2240   50.7890 C   0  0  0  0  0  0  0  0  0  0  0  0
   37.6710   36.0060   60.6730 C   0  0  0  0  0  0  0  0  0  0  0  0
   39.2540   29.3950   56.0070 C   0  0  0  0  0  0  0  0  0  0  0  0
   38.0960   29.4590   54.7850 C   0  0  0  0  0  0  0  0  0  0  0  0
   38.8620   29.3450   53.4270 C   0  0  0  0  0  0  0  0  0  0  0  0
   37.1630   36.6710   59.3520 C   0  0  0  0  0  0  0  0  0  0  0  0
   36.1900   34.4040   59.9060 O   0  0  0  0  0  0  0  0  0  0  0  0
   40.1270   30.6810   50.6250 C   0  0  0  0  0  0  0  0  0  0  0  0
   38.5370   30.6310   58.6190 C   0  0  0  0  0  0  0  0  0  0  0  0
   40.3510   29.9130   49.5140 C   0  0  0  0  0  0  0  0  0  0  0  0
   37.3110   34.6280   60.2640 C   0  0  0  0  0  0  0  0  0  0  0  0
   38.6610   28.1030   52.8690 C   0  0  0  0  0  0  0  0  0  0  0  0
   38.6420   27.6750   51.6470 C   0  0  0  0  0  0  0  0  0  0  0  0
   38.8680   32.7570   59.9690 C   0  0  0  0  0  0  0  0  0  0  0  0
   35.8610   36.7900   58.9260 O   0  0  0  0  0  0  0  0  0  0  0  0
   39.4660   28.2070   50.6270 C   0  0  0  0  0  0  0  0  0  0  0  0
   38.0160   30.8980   57.3710 N   0  0  0  0  0  0  0  0  0  0  0  0
   38.5420   33.9900   60.8200 C   0  0  0  0  0  0  0  0  0  0  0  0
   39.0660   30.9530   56.4320 C   0  0  0  0  0  0  0  0  0  0  0  0
   37.9730   31.6220   59.7490 C   0  0  0  0  0  0  0  0  0  0  0  0
  3 19  1  0
  4  3  1  0
  5  4  1  0
  6  2  1  0
  7 11  2  0
  8  1  1  0
  9 20  1  0
 10  8  1  0
 10  1  1  0
 11  2  1  0
 11 18  1  0
 12  5  1  0
 13 12  1  0
 14 18  1  0
 15  6  1  0
 16  1  1  0
 16 13  2  3
 17  9  1  0
 19 17  1  0
 20 14  1  0
M  END
$$$$

     RDKit          3D

 38 39  0  0  0  0  0  0  0  0999 V2000
   38.6920   31.5790   61.2830 C   0  0  0  0  0  0  0  0  0  0  0  0
   39.1160   29.9120   53.6360 C   0  0  0  0  0  0  0  0  0  0  0  0
   40.6680   30.2220   49.4490 C   0  0  0  0  0  0  0  0  0  0  0  0
   37.4750   38.0010   60.5370 F   0  0  0  0  0  0  0  0  0  0  0  0
   40.5130   30.1950   50.6830 C   0  0  0  0  0  0  0  0  0  0  0  0
   40.5000   29.1420   48.7610 C   0  0  0  0  0  0  0  0  0  0  0  0
   39.3340   27.5020   53.1350 C   0  0  0  0  0  0  0  0  0  0  0  0
   39.6760   25.9740   55.0640 C   0  0  0  0  0  0  0  0  0  0  0  0
   38.0040   32.8760   54.6540 F   0  0  0  0  0  0  0  0  0  0  0  0
   38.5010   30.0290   58.7330 C   0  0  0  0  0  0  0  0  0  0  0  0
   39.8900   28.0750   49.4380 C   0  0  0  0  0  0  0  0  0  0  0  0
   37.2910   36.4630   60.8680 C   0  0  0  0  0  0  0  0  0  0  0  0
   36.8290   34.8560   60.8440 C   0  0  0  0  0  0  0  0  0  0  0  0
   38.6350   30.2110   61.1640 C   0  0  0  0  0  0  0  0  0  0  0  0
   37.8770   32.4250   59.2460 N   0  0  0  0  0  0  0  0  0  0  0  0
   39.2460   26.1960   53.5970 O   0  0  0  0  0  0  0  0  0  0  0  0
   38.1230   31.6210   55.3390 C   0  0  0  0  0  0  0  0  0  0  0  0
   38.2560   32.6320   60.3870 C   0  0  0  0  0  0  0  0  0  0  0  0
   38.1760   34.0230   60.9310 C   0  0  0  0  0  0  0  0  0  0  0  0
   39.3180   30.6480   54.9260 C   0  0  0  0  0  0  0  0  0  0  0  0
   39.7450   28.1340   50.8610 C   0  0  0  0  0  0  0  0  0  0  0  0
   35.9690   36.6390   59.7170 F   0  0  0  0  0  0  0  0  0  0  0  0
   38.5070   28.5170   53.6320 C   0  0  0  0  0  0  0  0  0  0  0  0
   38.9070   36.5540   61.6430 C   0  0  0  0  0  0  0  0  0  0  0  0
   37.0030   30.9990   54.9840 F   0  0  0  0  0  0  0  0  0  0  0  0
   40.9640   29.1520   47.2000 F   0  0  0  0  0  0  0  0  0  0  0  0
   38.5290   29.6090   59.8690 C   0  0  0  0  0  0  0  0  0  0  0  0
   40.0730   28.9480   51.4130 N   0  0  0  0  0  0  0  0  0  0  0  0
   36.4670   36.9200   61.9340 F   0  0  0  0  0  0  0  0  0  0  0  0
   38.4150   31.8800   56.9250 C   0  0  0  0  0  0  0  0  0  0  0  0
   37.3360   28.6960   52.7410 C   0  0  0  0  0  0  0  0  0  0  0  0
   39.7330   35.8570   61.2300 C   0  0  0  0  0  0  0  0  0  0  0  0
   35.8790   33.8140   60.4740 C   0  0  0  0  0  0  0  0  0  0  0  0
   39.6680   34.4260   60.8270 N   0  0  0  0  0  0  0  0  0  0  0  0
   37.8550   31.2420   58.1000 C   0  0  0  0  0  0  0  0  0  0  0  0
   39.4200   29.7720   56.0000 O   0  0  0  0  0  0  0  0  0  0  0  0
   38.4680   33.3230   57.0710 F   0  0  0  0  0  0  0  0  0  0  0  0
   39.2360   27.1790   51.7130 N   0  0  0  0  0  0  0  0  0  0  0  0
  2 20  1  0
  3  5  2  0
  4 12  1  0
  5 28  1  0
  6 11  2  0
  6  3  1  0
  7 38  1  0
  7 16  1  0
  7 23  1  0
  9 17  1  0
 10 27  1  0
 11 21  1  0
 12 29  1  0
 13 33  1  0
 13 12  1  0
 13 19  1  0
 14  1  1  0
 15 18  2  0
 16  8  1  0
 17 30  1  0
 18 19  1  0
 18  1  1  0
 19 34  1  0
 20 17  1  0
 20 36  1  0
 21 28  2  0
 21 38  1  0
 22 12  1  0
 23 31  1  0
 23  2  1  0
 25 17  1  0
 26  6  1  0
 27 14  2  0
 30 37  1  0
 32 24  2  0
 34 32  1  0
 35 30  1  0
 35 10  1  0
 35 15  1  0
M  END
$$$$

     RDKit          3D

 33 36  0  0  0  0  0  0  0  0999 V2000
   38.7850   32.3590   57.6620 C   0  0  0  0  0  0  0  0  0  0  0  0
   37.9050   31.4750   58.4380 N   0  0  0  0  0  0  0  0  0  0  0  0
   38.9930   28.6420   53.5250 N   0  0  0  0  0  0  0  0  0  0  0  0
   36.2030   35.7590   59.2860 C   0  0  0  0  0  0  0  0  0  0  0  0
   38.2790   33.8500   61.0630 C   0  0  0  0  0  0  0  0  0  0  0  0
   37.9920   27.4870   51.7360 O   0  0  0  0  0  0  0  0  0  0  0  0
   39.8710   26.5960   52.8700 O   0  0  0  0  0  0  0  0  0  0  0  0
   39.3610   29.8500   53.4530 N   0  0  0  0  0  0  0  0  0  0  0  0
   37.6950   28.9120   55.5540 C   0  0  0  0  0  0  0  0  0  0  0  0
   40.0190   28.3210   49.5190 F   0  0  0  0  0  0  0  0  0  0  0  0
   35.0140   35.0040   58.7220 O   0  0  0  0  0  0  0  0  0  0  0  0
   40.8070   36.9580   62.3850 F   0  0  0  0  0  0  0  0  0  0  0  0
   37.3270   31.7670   59.5930 C   0  0  0  0  0  0  0  0  0  0  0  0
   38.4340   31.2400   55.4650 O   0  0  0  0  0  0  0  0  0  0  0  0
   38.5480   29.9830   56.3350 C   0  0  0  0  0  0  0  0  0  0  0  0
   38.5170   27.9480   54.6600 C   0  0  0  0  0  0  0  0  0  0  0  0
   36.6990   30.8070   60.1160 O   0  0  0  0  0  0  0  0  0  0  0  0
   39.7450   29.5380   50.1450 N   0  0  0  0  0  0  0  0  0  0  0  0
   39.2360   27.8220   52.3830 C   0  0  0  0  0  0  0  0  0  0  0  0
   40.4070   34.3660   62.2540 C   0  0  0  0  0  0  0  0  0  0  0  0
   39.5850   33.4420   61.6730 C   0  0  0  0  0  0  0  0  0  0  0  0
   36.6150   35.4960   60.6600 N   0  0  0  0  0  0  0  0  0  0  0  0
   38.7280   36.1590   61.5890 C   0  0  0  0  0  0  0  0  0  0  0  0
   38.8830   32.3510   56.1290 C   0  0  0  0  0  0  0  0  0  0  0  0
   40.0740   35.8040   62.0790 C   0  0  0  0  0  0  0  0  0  0  0  0
   37.9100   33.3880   56.6870 O   0  0  0  0  0  0  0  0  0  0  0  0
   39.7530   30.2730   52.3170 C   0  0  0  0  0  0  0  0  0  0  0  0
   37.8590   30.1100   57.7110 C   0  0  0  0  0  0  0  0  0  0  0  0
   39.6840   29.2260   51.5000 C   0  0  0  0  0  0  0  0  0  0  0  0
   36.6620   29.5780   55.0140 O   0  0  0  0  0  0  0  0  0  0  0  0
   37.2480   32.9920   60.3230 N   0  0  0  0  0  0  0  0  0  0  0  0
   40.6560   30.4540   49.5740 C   0  0  0  0  0  0  0  0  0  0  0  0
   37.9130   35.2050   61.1250 C   0  0  0  0  0  0  0  0  0  0  0  0
  1 26  1  0
  1  2  1  0
  2 13  1  0
  3 16  1  0
  4 22  1  0
  5 33  2  0
  5 21  1  0
  6 19  1  0
  8  3  1  0
  9 30  1  0
 10 18  1  0
 11  4  1  0
 13 17  2  0
 13 31  1  0
 14 15  1  0
 15  9  1  0
 15 28  1  0
 16  9  1  0
 19  7  1  0
 19  3  1  0
 21 20  2  0
 22 33  1  0
 23 25  2  0
 24 14  1  0
 24 26  1  0
 24  1  1  0
 25 20  1  0
 25 12  1  0
 27  8  2  0
 28  2  1  0
 29 18  1  0
 29 27  1  0
 29 19  1  0
 31  5  1  0
 32 18  1  0
 33 23  1  0
M  END
$$$$

     RDKit          3D

 29 32  0  0  0  0  0  0  0  0999 V2000
   38.0910   29.8190   54.7150 C   0  0  0  0  0  0  0  0  0  0  0  0
   39.6490   27.6240   52.0260 C   0  0  0  0  0  0  0  0  0  0  0  0
   38.6620   29.5380   53.2480 C   0  0  0  0  0  0  0  0  0  0  0  0
   38.3000   32.6360   56.1350 C   0  0  0  0  0  0  0  0  0  0  0  0
   39.1920   31.2970   60.4170 C   0  0  0  0  0  0  0  0  0  0  0  0
   37.8450   27.3110   54.2900 O   0  0  0  0  0  0  0  0  0  0  0  0
   40.4580   26.6510   52.9140 C   0  0  0  0  0  0  0  0  0  0  0  0
   41.0690   29.2880   48.6500 F   0  0  0  0  0  0  0  0  0  0  0  0
   40.8460   31.4170   62.9420 C   0  0  0  0  0  0  0  0  0  0  0  0
   39.3640   30.5350   49.0590 F   0  0  0  0  0  0  0  0  0  0  0  0
   39.7510   27.2070   50.5120 C   0  0  0  0  0  0  0  0  0  0  0  0
   41.0490   30.7920   61.7860 N   0  0  0  0  0  0  0  0  0  0  0  0
   37.9960   29.2580   57.6760 O   0  0  0  0  0  0  0  0  0  0  0  0
   39.5600   29.1720   52.1490 C   0  0  0  0  0  0  0  0  0  0  0  0
   38.1990   32.2600   54.7250 C   0  0  0  0  0  0  0  0  0  0  0  0
   38.9070   28.5480   59.8330 C   0  0  0  0  0  0  0  0  0  0  0  0
   40.4790   30.1650   51.0620 S   0  0  0  0  0  0  0  0  0  0  0  0
   38.2220   27.7990   57.1970 C   0  0  0  0  0  0  0  0  0  0  0  0
   39.7950   31.0720   63.8310 C   0  0  0  0  0  0  0  0  0  0  0  0
   38.8830   28.4460   54.6100 P   0  0  0  0  0  0  0  0  0  0  0  0
   41.7620   32.6040   63.3220 C   0  0  0  0  0  0  0  0  0  0  0  0
   39.8690   29.0080   60.8070 C   0  0  0  0  0  0  0  0  0  0  0  0
   40.0830   29.5610   49.5260 C   0  0  0  0  0  0  0  0  0  0  0  0
   39.2620   28.2150   49.6810 O   0  0  0  0  0  0  0  0  0  0  0  0
   38.3590   31.0770   55.6620 C   0  0  0  0  0  0  0  0  0  0  0  0
   38.3070   29.5690   58.9290 C   0  0  0  0  0  0  0  0  0  0  0  0
   38.2240   30.7950   59.4250 C   0  0  0  0  0  0  0  0  0  0  0  0
   40.0060   30.3920   60.9290 C   0  0  0  0  0  0  0  0  0  0  0  0
   39.1140   27.6400   56.0160 C   0  0  0  0  0  0  0  0  0  0  0  0
  1 25  1  0
  2 14  1  0
  2  7  1  0
  3 14  1  0
  3 20  1  0
  3  1  1  0
  5 28  1  0
  8 23  1  0
  9 21  1  0
  9 19  1  0
 10 23  1  0
 11  2  1  0
 12  9  1  0
 13 26  1  0
 14 17  1  0
 15 25  1  0
 15  4  1  0
 16 22  1  0
 18 13  1  0
 20  6  2  0
 20  1  1  0
 20 29  1  0
 22 28  2  0
 23 24  1  0
 23 17  1  0
 24 11  1  0
 25  4  1  0
 26 27  1  0
 26 16  2  0
 27  5  2  0
 28 12  1  0
 29 18  1  0
M  END
$$$$

     RDKit          3D

 35 39  0  0  0  0  0  0  0  0999 V2000
   40.4240   27.2990   56.9360 C   0  0  0  0  0  0  0  0  0  0  0  0
   37.4230   32.0550   58.1900 O   0  0  0  0  0  0  0  0  0  0  0  0
   38.0420   30.8360   57.9060 C   0  0  0  0  0  0  0  0  0  0  0  0
   39.1740   32.8110   56.1080 C   0  0  0  0  0  0  0  0  0  0  0  0
   40.3590   25.8530   56.6470 C   0  0  0  0  0  0  0  0  0  0  0  0
   37.9620   28.5000   53.9160 C   0  0  0  0  0  0  0  0  0  0  0  0
   40.2890   28.4690   49.2730 C   0  0  0  0  0  0  0  0  0  0  0  0
   39.5240   27.4660   49.8430 C   0  0  0  0  0  0  0  0  0  0  0  0
   38.7640   34.6910   60.7220 C   0  0  0  0  0  0  0  0  0  0  0  0
   39.9670   30.8260   52.1310 C   0  0  0  0  0  0  0  0  0  0  0  0
   37.4830   29.6840   58.6580 C   0  0  0  0  0  0  0  0  0  0  0  0
   37.3060   36.2880   59.9510 C   0  0  0  0  0  0  0  0  0  0  0  0
   38.5390   36.1070   60.7020 N   0  0  0  0  0  0  0  0  0  0  0  0
   37.8220   30.7270   56.3860 C   0  0  0  0  0  0  0  0  0  0  0  0
   38.4200   28.3540   55.3930 C   0  0  0  0  0  0  0  0  0  0  0  0
   37.8210   34.0380   59.8610 C   0  0  0  0  0  0  0  0  0  0  0  0
   38.5940   38.4580   61.4110 O   0  0  0  0  0  0  0  0  0  0  0  0
   39.5690   34.0960   61.4510 O   0  0  0  0  0  0  0  0  0  0  0  0
   38.1090   26.7940   55.7360 C   0  0  0  0  0  0  0  0  0  0  0  0
   39.1870   25.7440   55.5760 C   0  0  0  0  0  0  0  0  0  0  0  0
   38.7680   31.4150   55.5540 N   0  0  0  0  0  0  0  0  0  0  0  0
   37.0240   37.2890   59.2420 O   0  0  0  0  0  0  0  0  0  0  0  0
   37.5570   29.3580   56.0470 O   0  0  0  0  0  0  0  0  0  0  0  0
   38.9880   27.6140   51.1610 C   0  0  0  0  0  0  0  0  0  0  0  0
   39.1330   31.1220   54.3190 C   0  0  0  0  0  0  0  0  0  0  0  0
   38.8640   37.0920   61.7900 C   0  0  0  0  0  0  0  0  0  0  0  0
   39.2470   28.7600   51.8180 C   0  0  0  0  0  0  0  0  0  0  0  0
   38.1160   32.9040   59.1710 C   0  0  0  0  0  0  0  0  0  0  0  0
   40.5150   29.7270   50.0010 C   0  0  0  0  0  0  0  0  0  0  0  0
   35.2080   34.3450   59.7150 C   0  0  0  0  0  0  0  0  0  0  0  0
   38.8170   29.2530   53.0190 N   0  0  0  0  0  0  0  0  0  0  0  0
   36.6840   34.9270   59.7960 C   0  0  0  0  0  0  0  0  0  0  0  0
   39.9210   28.3360   55.9810 C   0  0  0  0  0  0  0  0  0  0  0  0
   39.3020   30.4670   53.2270 C   0  0  0  0  0  0  0  0  0  0  0  0
   39.9350   29.8160   51.2490 C   0  0  0  0  0  0  0  0  0  0  0  0
  2 28  1  0
  3  2  1  0
  3 11  1  0
  5  1  1  0
  6 15  1  0
  7  8  2  0
  7 29  1  0
  8 24  1  0
  9 18  2  0
 10 34  2  0
 12 13  1  0
 13  9  1  0
 13 26  1  0
 14  3  1  0
 15 19  1  0
 15 33  1  0
 15 23  1  0
 16  9  1  0
 17 26  1  0
 20 19  1  0
 20  5  1  0
 21  4  1  0
 21 14  1  0
 22 12  2  0
 23 14  1  0
 24 27  2  0
 25 21  1  0
 27 31  1  0
 28 16  2  3
 29 35  2  0
 31 34  1  0
 31  6  1  0
 32 30  1  0
 32 16  1  0
 32 12  1  0
 33  1  1  0
 34 25  1  0
 35 27  1  0
 35 10  1  0
M  END
$$$$

     RDKit          3D

 36 39  0  0  0  0  0  0  0  0999 V2000
   38.0730   32.4650   58.9730 C   0  0  0  0  0  0  0  0  0  0  0  0
   40.2550   26.8580   58.1220 C   0  0  0  0  0  0  0  0  0  0  0  0
   39.7140   25.2900   56.2680 C   0  0  0  0  0  0  0  0  0  0  0  0
   39.5640   28.5560   57.0740 C   0  0  0  0  0  0  0  0  0  0  0  0
   39.4040   34.4370   59.6880 C   0  0  0  0  0  0  0  0  0  0  0  0
   40.0230   33.6060   61.7250 C   0  0  0  0  0  0  0  0  0  0  0  0
   38.3910   34.2550   49.0740 C   0  0  0  0  0  0  0  0  0  0  0  0
   37.6280   34.3850   51.5110 C   0  0  0  0  0  0  0  0  0  0  0  0
   39.1160   26.0920   57.3800 C   0  0  0  0  0  0  0  0  0  0  0  0
   34.8560   33.4760   60.2040 C   0  0  0  0  0  0  0  0  0  0  0  0
   37.8230   30.1260   56.0460 C   0  0  0  0  0  0  0  0  0  0  0  0
   37.1620   35.1760   53.8070 C   0  0  0  0  0  0  0  0  0  0  0  0
   39.2480   32.2960   61.1580 C   0  0  0  0  0  0  0  0  0  0  0  0
   37.7330   31.6980   61.4330 C   0  0  0  0  0  0  0  0  0  0  0  0
   38.3890   32.9720   48.3020 C   0  0  0  0  0  0  0  0  0  0  0  0
   35.4920   33.2730   61.5930 C   0  0  0  0  0  0  0  0  0  0  0  0
   39.0790   34.6710   61.1620 C   0  0  0  0  0  0  0  0  0  0  0  0
   37.0210   33.0590   61.4770 C   0  0  0  0  0  0  0  0  0  0  0  0
   38.7030   31.6020   54.3550 C   0  0  0  0  0  0  0  0  0  0  0  0
   37.8400   34.0790   54.3300 C   0  0  0  0  0  0  0  0  0  0  0  0
   39.5510   36.0640   61.6920 C   0  0  0  0  0  0  0  0  0  0  0  0
   40.2710   28.4090   57.6920 C   0  0  0  0  0  0  0  0  0  0  0  0
   35.2560   34.7320   62.3240 C   0  0  0  0  0  0  0  0  0  0  0  0
   38.8610   29.4790   56.4060 C   0  0  0  0  0  0  0  0  0  0  0  0
   37.0530   35.3370   52.4030 C   0  0  0  0  0  0  0  0  0  0  0  0
   38.9780   32.2500   55.7200 C   0  0  0  0  0  0  0  0  0  0  0  0
   38.2260   32.6190   57.8800 N   0  0  0  0  0  0  0  0  0  0  0  0
   38.7620   24.9470   55.1960 O   0  0  0  0  0  0  0  0  0  0  0  0
   38.4200   33.0860   53.5270 C   0  0  0  0  0  0  0  0  0  0  0  0
   38.1950   27.0390   56.9850 O   0  0  0  0  0  0  0  0  0  0  0  0
   38.5250   31.4830   56.9320 C   0  0  0  0  0  0  0  0  0  0  0  0
   39.2540   32.8860   59.7280 C   0  0  0  0  0  0  0  0  0  0  0  0
   38.3010   33.3770   52.0450 C   0  0  0  0  0  0  0  0  0  0  0  0
   37.2170   34.4590   50.0550 C   0  0  0  0  0  0  0  0  0  0  0  0
   37.4490   34.5710   61.3510 O   0  0  0  0  0  0  0  0  0  0  0  0
   37.3560   31.3060   59.7130 C   0  0  0  0  0  0  0  0  0  0  0  0
  1 27  1  0
  1 36  1  0
  1 32  1  0
  3  9  1  0
  4 22  1  0
  5 17  1  0
  7 34  1  0
  8 33  2  0
  8 25  1  0
  9 30  1  0
  9  2  1  0
 10 16  1  0
 11 24  1  0
 11 31  1  0
 12 20  1  0
 13 14  1  0
 13  6  1  0
 14 36  1  0
 14 18  1  0
 15  7  1  0
 16 23  1  0
 17 35  1  0
 17 21  1  0
 17  6  1  0
 18 16  1  0
 19 26  1  0
 22  2  1  0
 24  4  1  0
 25 12  2  0
 28  3  1  0
 29 20  2  0
 29 19  1  0
 31 26  1  0
 31 27  1  0
 32  5  1  0
 32 13  1  0
 33 29  1  0
 34  8  1  0
 35 18  1  0
M  END
$$$$

     RDKit          3D

 34 36  0  0  0  0  0  0  0  0999 V2000
   39.0810   37.8300   61.9410 C   0  0  0  0  0  0  0  0  0  0  0  0
   39.3380   29.7950   56.4380 C   0  0  0  0  0  0  0  0  0  0  0  0
   39.3710   29.2290   52.0690 C   0  0  0  0  0  0  0  0  0  0  0  0
   40.0440   28.6010   55.9630 C   0  0  0  0  0  0  0  0  0  0  0  0
   37.7550   33.0300   58.9640 C   0  0  0  0  0  0  0  0  0  0  0  0
   37.6590   28.8890   54.1230 C   0  0  0  0  0  0  0  0  0  0  0  0
   39.6600   27.8620   51.8130 C   0  0  0  0  0  0  0  0  0  0  0  0
   40.2460   29.7400   49.8720 C   0  0  0  0  0  0  0  0  0  0  0  0
   39.8360   30.1920   51.0900 C   0  0  0  0  0  0  0  0  0  0  0  0
   38.6800   32.3150   56.4670 C   0  0  0  0  0  0  0  0  0  0  0  0
   39.6040   27.3900   58.0220 C   0  0  0  0  0  0  0  0  0  0  0  0
   36.9430   36.3420   60.7920 C   0  0  0  0  0  0  0  0  0  0  0  0
   38.5120   32.1760   57.8860 N   0  0  0  0  0  0  0  0  0  0  0  0
   39.3290   30.9490   54.0890 C   0  0  0  0  0  0  0  0  0  0  0  0
   40.5840   30.6000   48.9410 F   0  0  0  0  0  0  0  0  0  0  0  0
   39.9690   26.7680   53.0200 Cl  0  0  0  0  0  0  0  0  0  0  0  0
   38.8350   29.7460   57.7840 C   0  0  0  0  0  0  0  0  0  0  0  0
   36.7340   29.9170   54.9420 C   0  0  0  0  0  0  0  0  0  0  0  0
   40.2360   27.4470   56.8060 C   0  0  0  0  0  0  0  0  0  0  0  0
   38.7740   29.6850   53.3580 C   0  0  0  0  0  0  0  0  0  0  0  0
   37.1980   32.1770   59.8360 C   0  0  0  0  0  0  0  0  0  0  0  0
   36.4130   37.7040   61.3870 C   0  0  0  0  0  0  0  0  0  0  0  0
   39.5500   26.2630   58.7300 O   0  0  0  0  0  0  0  0  0  0  0  0
   39.0840   28.5650   58.5830 C   0  0  0  0  0  0  0  0  0  0  0  0
   35.7690   31.7620   61.6780 O   0  0  0  0  0  0  0  0  0  0  0  0
   37.5960   34.5090   59.1890 C   0  0  0  0  0  0  0  0  0  0  0  0
   38.6050   33.3720   55.9630 O   0  0  0  0  0  0  0  0  0  0  0  0
   36.4490   33.9930   61.2850 C   0  0  0  0  0  0  0  0  0  0  0  0
   40.1400   28.3700   49.4660 C   0  0  0  0  0  0  0  0  0  0  0  0
   39.8730   27.3970   50.5010 C   0  0  0  0  0  0  0  0  0  0  0  0
   36.4330   32.6350   60.9500 C   0  0  0  0  0  0  0  0  0  0  0  0
   37.8230   36.6920   61.6410 C   0  0  0  0  0  0  0  0  0  0  0  0
   39.0640   31.0360   55.6680 C   0  0  0  0  0  0  0  0  0  0  0  0
   36.9780   34.8670   60.4310 C   0  0  0  0  0  0  0  0  0  0  0  0
  2 17  1  0
  3 20  1  0
  4  2  2  0
  4 19  1  0
  5 26  2  0
  5 21  1  0
  6 18  1  0
  7  3  1  0
  7 16  1  0
  8  9  1  0
  9  3  2  0
 10 13  1  0
 11 24  1  0
 11 23  1  0
 12 22  1  0
 12 32  1  0
 13  5  1  0
 15  8  1  0
 17 24  2  0
 19 11  2  0
 20 14  1  0
 20  6  1  0
 21 31  2  0
 26 34  1  0
 27 10  2  0
 29  8  2  0
 29 30  1  0
 30  7  2  0
 31 28  1  0
 31 25  1  0
 32  1  1  0
 33 14  1  0
 33  2  1  0
 33 10  1  0
 34 12  1  0
 34 28  2  0
M  END
$$$$

     RDKit          3D

 25 27  0  0  0  0  0  0  0  0999 V2000
   39.2120   28.9630   54.2030 N   0  0  0  0  0  0  0  0  0  0  0  0
   36.6230   36.9610   59.0730 N   0  0  0  0  0  0  0  0  0  0  0  0
   38.6160   32.0260   58.0160 C   0  0  0  0  0  0  0  0  0  0  0  0
   39.2240   32.6930   60.4260 C   0  0  0  0  0  0  0  0  0  0  0  0
   39.7000   28.2230   50.6570 C   0  0  0  0  0  0  0  0  0  0  0  0
   39.5740   28.9520   51.8080 C   0  0  0  0  0  0  0  0  0  0  0  0
   38.5390   32.9380   59.2200 C   0  0  0  0  0  0  0  0  0  0  0  0
   38.9060   29.9380   55.1300 C   0  0  0  0  0  0  0  0  0  0  0  0
   38.3690   32.4910   55.4850 C   0  0  0  0  0  0  0  0  0  0  0  0
   37.7710   35.1470   60.2370 C   0  0  0  0  0  0  0  0  0  0  0  0
   40.4130   29.0270   49.7840 C   0  0  0  0  0  0  0  0  0  0  0  0
   38.8630   28.3670   53.0790 C   0  0  0  0  0  0  0  0  0  0  0  0
   39.1420   33.6000   61.5740 C   0  0  0  0  0  0  0  0  0  0  0  0
   40.6030   30.3320   50.3740 C   0  0  0  0  0  0  0  0  0  0  0  0
   38.8380   30.4420   57.7320 C   0  0  0  0  0  0  0  0  0  0  0  0
   37.1760   26.8010   53.8740 C   0  0  0  0  0  0  0  0  0  0  0  0
   37.8170   34.2680   59.1380 C   0  0  0  0  0  0  0  0  0  0  0  0
   38.1330   27.1140   53.0170 C   0  0  0  0  0  0  0  0  0  0  0  0
   38.3080   34.7470   61.4820 C   0  0  0  0  0  0  0  0  0  0  0  0
   38.7700   31.3260   54.7850 C   0  0  0  0  0  0  0  0  0  0  0  0
   39.9610   30.3280   51.6030 C   0  0  0  0  0  0  0  0  0  0  0  0
   36.8860   37.2220   61.2750 O   0  0  0  0  0  0  0  0  0  0  0  0
   38.1340   32.6990   56.8120 N   0  0  0  0  0  0  0  0  0  0  0  0
   37.0960   36.5720   60.1570 C   0  0  0  0  0  0  0  0  0  0  0  0
   38.9360   29.6890   56.5730 C   0  0  0  0  0  0  0  0  0  0  0  0
  1  8  1  0
  2 24  1  0
  3  7  1  0
  4 13  1  0
  5  6  1  0
  6 12  1  0
  7  4  2  0
  8 25  2  0
  9 23  1  0
 10 19  1  0
 11 14  1  0
 11  5  1  0
 12 18  1  0
 12  1  1  0
 14 21  1  0
 15  3  1  0
 17  7  1  0
 17 10  2  0
 18 16  2  0
 19 13  2  0
 20  8  1  0
 20  9  2  0
 21  6  1  0
 23  3  2  0
 24 10  1  0
 24 22  2  0
 25 15  1  0
M  END
$$$$

     RDKit          3D

 34 38  0  0  0  0  0  0  0  0999 V2000
   38.6170   28.9410   53.7630 C   0  0  0  0  0  0  0  0  0  0  0  0
   38.9060   32.7010   60.9390 C   0  0  0  0  0  0  0  0  0  0  0  0
   39.0120   28.7960   56.5670 S   0  0  0  0  0  0  0  0  0  0  0  0
   40.3150   30.1660   49.7980 C   0  0  0  0  0  0  0  0  0  0  0  0
   38.6550   33.9880   60.2640 C   0  0  0  0  0  0  0  0  0  0  0  0
   38.2160   31.1280   57.5860 C   0  0  0  0  0  0  0  0  0  0  0  0
   39.5780   25.4080   55.4850 S   0  0  0  0  0  0  0  0  0  0  0  0
   38.6740   31.5450   59.9050 C   0  0  0  0  0  0  0  0  0  0  0  0
   39.1250   36.3970   61.4100 C   0  0  0  0  0  0  0  0  0  0  0  0
   38.4500   35.3320   60.8850 C   0  0  0  0  0  0  0  0  0  0  0  0
   35.5610   33.3390   61.9660 C   0  0  0  0  0  0  0  0  0  0  0  0
   39.4990   26.7900   52.9230 C   0  0  0  0  0  0  0  0  0  0  0  0
   39.3910   26.1610   53.9970 C   0  0  0  0  0  0  0  0  0  0  0  0
   38.7880   27.2360   55.2770 C   0  0  0  0  0  0  0  0  0  0  0  0
   36.7600   33.9150   60.0360 C   0  0  0  0  0  0  0  0  0  0  0  0
   37.0290   30.7940   57.3640 O   0  0  0  0  0  0  0  0  0  0  0  0
   35.4240   33.3110   60.4510 C   0  0  0  0  0  0  0  0  0  0  0  0
   39.1100   28.1500   54.9580 C   0  0  0  0  0  0  0  0  0  0  0  0
   38.6030   33.6320   57.7480 C   0  0  0  0  0  0  0  0  0  0  0  0
   40.6150   28.4620   56.9550 O   0  0  0  0  0  0  0  0  0  0  0  0
   36.7270   36.4540   59.8950 C   0  0  0  0  0  0  0  0  0  0  0  0
   37.7610   33.5820   56.5360 O   0  0  0  0  0  0  0  0  0  0  0  0
   39.1290   29.5490   51.5760 C   0  0  0  0  0  0  0  0  0  0  0  0
   39.9450   29.1070   50.3370 C   0  0  0  0  0  0  0  0  0  0  0  0
   39.0750   30.6990   56.6040 C   0  0  0  0  0  0  0  0  0  0  0  0
   38.6410   32.2740   58.4510 N   0  0  0  0  0  0  0  0  0  0  0  0
   34.7660   32.6470   61.3580 C   0  0  0  0  0  0  0  0  0  0  0  0
   36.7490   35.4880   60.2280 C   0  0  0  0  0  0  0  0  0  0  0  0
   41.2370   30.5410   50.2300 O   0  0  0  0  0  0  0  0  0  0  0  0
   37.2010   37.7840   60.5930 C   0  0  0  0  0  0  0  0  0  0  0  0
   39.6480   30.8810   48.6930 O   0  0  0  0  0  0  0  0  0  0  0  0
   38.7090   27.9720   52.3340 C   0  0  0  0  0  0  0  0  0  0  0  0
   38.4270   37.7580   61.1560 C   0  0  0  0  0  0  0  0  0  0  0  0
   37.9170   27.8070   57.2750 O   0  0  0  0  0  0  0  0  0  0  0  0
  1 18  1  0
  3 25  1  0
  3 20  2  0
  3 34  2  0
  4 29  1  0
  4 24  1  0
  5 10  1  0
  5  2  1  0
  6 26  1  0
  8  2  1  0
 10  9  1  0
 13 12  1  0
 13 14  1  0
 13  7  1  0
 14  7  1  0
 15 28  1  0
 15  5  1  0
 15 17  1  0
 16  6  2  0
 17 27  1  0
 17 11  1  0
 18 14  1  0
 18  3  1  0
 19 26  1  0
 21 30  1  0
 22 19  1  0
 24 23  1  0
 25  6  1  0
 26  8  1  0
 27 11  1  0
 28 21  1  0
 28 10  1  0
 30 33  1  0
 31  4  2  0
 32 23  1  0
 32 12  1  0
 32  1  1  0
 33  9  1  0
M  END
$$$$

     RDKit          3D

 26 28  0  0  0  0  0  0  0  0999 V2000
   38.5740   27.2750   52.5470 C   0  0  0  0  0  0  0  0  0  0  0  0
   38.3250   28.4430   53.0980 C   0  0  0  0  0  0  0  0  0  0  0  0
   38.3860   31.9690   58.4460 C   0  0  0  0  0  0  0  0  0  0  0  0
   39.9340   29.3970   49.9800 C   0  0  0  0  0  0  0  0  0  0  0  0
   39.7830   38.1790   62.5220 C   0  0  0  0  0  0  0  0  0  0  0  0
   39.1630   28.7630   54.4860 C   0  0  0  0  0  0  0  0  0  0  0  0
   40.5630   27.1310   57.4550 C   0  0  0  0  0  0  0  0  0  0  0  0
   38.2260   31.2460   57.2530 C   0  0  0  0  0  0  0  0  0  0  0  0
   39.8170   27.6650   55.1180 O   0  0  0  0  0  0  0  0  0  0  0  0
   38.2970   36.5470   61.4360 C   0  0  0  0  0  0  0  0  0  0  0  0
   36.4210   37.6910   60.4180 O   0  0  0  0  0  0  0  0  0  0  0  0
   39.8840   28.1800   50.7390 C   0  0  0  0  0  0  0  0  0  0  0  0
   39.9350   30.5250   51.9990 C   0  0  0  0  0  0  0  0  0  0  0  0
   37.1710   36.7100   60.4110 C   0  0  0  0  0  0  0  0  0  0  0  0
   40.2770   30.4980   51.0280 C   0  0  0  0  0  0  0  0  0  0  0  0
   39.4080   29.1990   56.7370 N   0  0  0  0  0  0  0  0  0  0  0  0
   39.1440   28.4240   51.9920 N   0  0  0  0  0  0  0  0  0  0  0  0
   38.0660   31.1280   55.6170 S   0  0  0  0  0  0  0  0  0  0  0  0
   39.1160   35.3920   61.4520 C   0  0  0  0  0  0  0  0  0  0  0  0
   37.1070   35.5930   59.3090 C   0  0  0  0  0  0  0  0  0  0  0  0
   38.5170   37.5000   62.5940 O   0  0  0  0  0  0  0  0  0  0  0  0
   40.0030   28.1350   56.4050 C   0  0  0  0  0  0  0  0  0  0  0  0
   38.0800   33.4990   58.1640 C   0  0  0  0  0  0  0  0  0  0  0  0
   38.0230   34.4800   59.3210 C   0  0  0  0  0  0  0  0  0  0  0  0
   38.9030   29.7310   55.5270 C   0  0  0  0  0  0  0  0  0  0  0  0
   39.0440   34.4080   60.4100 C   0  0  0  0  0  0  0  0  0  0  0  0
  2  1  1  0
  2  6  1  0
  4 12  1  0
  4 15  1  0
  5 21  1  0
  6  9  1  0
  6 25  1  0
  8  3  1  0
  9 22  1  0
 10 19  2  0
 10 21  1  0
 12 17  1  0
 14 11  2  0
 14 10  1  0
 15 13  2  0
 17  1  1  0
 17  2  1  0
 18  8  1  0
 20 24  1  0
 20 14  1  0
 22 16  2  0
 22  7  1  0
 23  3  1  0
 23 24  1  0
 24 26  2  0
 25 18  1  0
 25 16  1  0
 26 19  1  0
M  END
$$$$

     RDKit          3D

 23 26  0  0  0  0  0  0  0  0999 V2000
   39.3950   28.5930   51.0990 C   0  0  0  0  0  0  0  0  0  0  0  0
   37.4140   35.0670   59.6140 C   0  0  0  0  0  0  0  0  0  0  0  0
   37.5040   29.8400   56.3970 N   0  0  0  0  0  0  0  0  0  0  0  0
   38.1990   31.9930   57.5940 C   0  0  0  0  0  0  0  0  0  0  0  0
   37.9280   32.8670   58.6300 C   0  0  0  0  0  0  0  0  0  0  0  0
   38.8210   35.2130   61.2420 C   0  0  0  0  0  0  0  0  0  0  0  0
   38.7120   33.2530   59.7960 N   0  0  0  0  0  0  0  0  0  0  0  0
   36.5290   36.0600   59.1740 C   0  0  0  0  0  0  0  0  0  0  0  0
   39.8680   29.8430   51.5530 C   0  0  0  0  0  0  0  0  0  0  0  0
   40.4760   28.9980   49.1710 C   0  0  0  0  0  0  0  0  0  0  0  0
   38.7330   29.7930   55.1780 C   0  0  0  0  0  0  0  0  0  0  0  0
   38.6490   27.7450   51.9970 C   0  0  0  0  0  0  0  0  0  0  0  0
   38.3360   36.4700   61.3900 C   0  0  0  0  0  0  0  0  0  0  0  0
   38.3740   34.5470   60.2130 C   0  0  0  0  0  0  0  0  0  0  0  0
   37.8700   30.9960   55.4830 C   0  0  0  0  0  0  0  0  0  0  0  0
   38.2660   28.1110   53.2900 C   0  0  0  0  0  0  0  0  0  0  0  0
   36.5650   37.2170   59.8050 N   0  0  0  0  0  0  0  0  0  0  0  0
   39.5500   30.1880   52.9060 C   0  0  0  0  0  0  0  0  0  0  0  0
   37.4780   37.1570   60.7160 C   0  0  0  0  0  0  0  0  0  0  0  0
   38.8210   29.3600   53.8190 C   0  0  0  0  0  0  0  0  0  0  0  0
   37.8150   30.3420   58.0070 S   0  0  0  0  0  0  0  0  0  0  0  0
   39.5900   28.2450   49.8920 O   0  0  0  0  0  0  0  0  0  0  0  0
   38.2710   32.2070   56.1720 N   0  0  0  0  0  0  0  0  0  0  0  0
  1  9  2  0
  1 12  1  0
  2 14  2  0
  3 21  1  0
  4 21  1  0
  4  5  1  0
  5  7  1  0
  6 13  1  0
  7 14  1  0
  8  2  2  0
  8 17  1  0
  9 18  1  0
 10 22  1  0
 11 20  1  0
 11 15  1  0
 11  3  1  0
 12 16  2  0
 14  6  1  0
 15 23  1  0
 15  3  1  0
 16 20  1  0
 17 19  1  0
 18 20  2  0
 19 13  2  0
 22  1  1  0
 23  4  1  0
M  END
$$$$

     RDKit          3D

 32 32  0  0  0  0  0  0  0  0999 V2000
   36.7350   36.8190   59.0520 O   0  0  0  0  0  0  0  0  0  0  0  0
   37.7100   31.5440   54.8410 C   0  0  0  0  0  0  0  0  0  0  0  0
   38.3960   32.6310   55.3550 C   0  0  0  0  0  0  0  0  0  0  0  0
   39.5520   28.7170   50.8940 O   0  0  0  0  0  0  0  0  0  0  0  0
   38.3560   27.9430   58.1390 C   0  0  0  0  0  0  0  0  0  0  0  0
   37.2440   37.1220   60.0920 C   0  0  0  0  0  0  0  0  0  0  0  0
   38.1080   27.7920   53.3080 C   0  0  0  0  0  0  0  0  0  0  0  0
   38.5600   36.5610   60.5890 C   0  0  0  0  0  0  0  0  0  0  0  0
   38.1670   28.6590   56.8160 C   0  0  0  0  0  0  0  0  0  0  0  0
   38.0870   33.0010   56.8870 C   0  0  0  0  0  0  0  0  0  0  0  0
   38.0000   30.2120   57.1640 N   0  0  0  0  0  0  0  0  0  0  0  0
   40.6620   35.2440   60.9950 C   0  0  0  0  0  0  0  0  0  0  0  0
   38.6630   26.6320   58.3910 C   0  0  0  0  0  0  0  0  0  0  0  0
   39.5810   29.4790   52.0620 C   0  0  0  0  0  0  0  0  0  0  0  0
   39.8930   29.2120   49.7210 C   0  0  0  0  0  0  0  0  0  0  0  0
   39.1880   35.3300   60.7310 C   0  0  0  0  0  0  0  0  0  0  0  0
   38.4300   33.9830   60.6720 C   0  0  0  0  0  0  0  0  0  0  0  0
   40.2060   30.7700   51.8890 C   0  0  0  0  0  0  0  0  0  0  0  0
   39.9600   26.3540   53.5490 O   0  0  0  0  0  0  0  0  0  0  0  0
   37.9440   32.4020   58.3280 C   0  0  0  0  0  0  0  0  0  0  0  0
   37.1400   34.0200   60.0070 C   0  0  0  0  0  0  0  0  0  0  0  0
   36.7070   37.8370   61.0080 O   0  0  0  0  0  0  0  0  0  0  0  0
   39.5560   25.8580   57.5720 C   0  0  0  0  0  0  0  0  0  0  0  0
   41.0640   36.3930   61.7500 O   0  0  0  0  0  0  0  0  0  0  0  0
   38.8540   26.7540   54.0370 C   0  0  0  0  0  0  0  0  0  0  0  0
   39.7640   26.6490   56.3110 C   0  0  0  0  0  0  0  0  0  0  0  0
   38.0360   30.8530   58.3520 C   0  0  0  0  0  0  0  0  0  0  0  0
   38.0070   30.3470   55.7230 C   0  0  0  0  0  0  0  0  0  0  0  0
   38.9140   29.0300   53.2670 C   0  0  0  0  0  0  0  0  0  0  0  0
   37.1230   33.0700   59.0190 N   0  0  0  0  0  0  0  0  0  0  0  0
   38.6340   26.5590   55.3800 C   0  0  0  0  0  0  0  0  0  0  0  0
   37.5480   25.6710   55.9610 C   0  0  0  0  0  0  0  0  0  0  0  0
  1  6  2  0
  2  3  1  0
  2 28  1  0
  3 10  1  0
  4 14  1  0
  5 13  1  0
  6  8  1  0
  6 22  1  0
  7 25  1  0
  9 11  1  0
  9  5  1  0
 10 20  1  0
 11 27  1  0
 12 24  1  0
 14 29  2  3
 15  4  1  0
 16  8  1  0
 16 12  1  0
 17 16  1  0
 18 14  1  0
 19 25  2  0
 20 27  1  0
 20 30  1  0
 21 17  1  0
 23 13  1  0
 25 31  1  0
 26 23  1  0
 28 11  1  0
 29  7  1  0
 30 21  1  0
 31 32  1  0
 31 26  1  0
M  END
$$$$

     RDKit          3D

 18 17  0  0  0  0  0  0  0  0999 V2000
   38.8660   31.2040   58.5830 C   0  0  0  0  0  0  0  0  0  0  0  0
   40.9860   26.6530   58.0090 C   0  0  0  0  0  0  0  0  0  0  0  0
   35.9050   36.5540   58.8970 O   0  0  0  0  0  0  0  0  0  0  0  0
   37.1230   35.3110   60.5400 C   0  0  0  0  0  0  0  0  0  0  0  0
   37.6090   31.6980   59.2340 C   0  0  0  0  0  0  0  0  0  0  0  0
   36.4470   34.0230   60.0090 C   0  0  0  0  0  0  0  0  0  0  0  0
   37.6310   33.3210   59.3530 C   0  0  0  0  0  0  0  0  0  0  0  0
   36.6720   36.5380   59.7400 C   0  0  0  0  0  0  0  0  0  0  0  0
   35.9290   33.2930   61.2460 C   0  0  0  0  0  0  0  0  0  0  0  0
   38.4310   35.3900   60.3510 O   0  0  0  0  0  0  0  0  0  0  0  0
   38.8490   30.1110   57.6720 C   0  0  0  0  0  0  0  0  0  0  0  0
   39.8430   29.1170   57.5730 C   0  0  0  0  0  0  0  0  0  0  0  0
   40.0420   28.3880   56.4330 C   0  0  0  0  0  0  0  0  0  0  0  0
   37.3470   37.5470   59.9900 O   0  0  0  0  0  0  0  0  0  0  0  0
   39.2120   25.9240   56.2170 C   0  0  0  0  0  0  0  0  0  0  0  0
   36.5820   30.5400   59.1030 C   0  0  0  0  0  0  0  0  0  0  0  0
   34.5670   32.7380   61.1650 C   0  0  0  0  0  0  0  0  0  0  0  0
   40.3900   27.0600   56.5840 C   0  0  0  0  0  0  0  0  0  0  0  0
  1  5  1  0
  3  8  2  0
  4 10  1  0
  5 16  1  0
  5  7  1  0
  6  7  1  0
  6  4  1  0
  6  9  1  0
  8 14  1  0
  8  4  1  0
 11  1  1  0
 12 11  1  0
 13 18  1  0
 13 12  1  0
 15 18  1  0
 17  9  1  0
 18  2  1  0
M  END
$$$$
