Pocket2Mol_0_num_sample_100
     RDKit          3D

 13 15  0  0  0  0  0  0  0  0999 V2000
    9.1846    6.6802   -8.4911 C   0  0  0  0  0  0  0  0  0  0  0  0
    9.4594    7.4203   -9.5710 O   0  0  0  0  0  0  0  0  0  0  0  0
    9.2734    6.8144  -10.7282 C   0  0  0  0  0  0  0  0  0  0  0  0
    8.7495    5.5380  -10.6247 C   0  0  0  0  0  0  0  0  0  0  0  0
    8.3845    4.5563  -11.5282 C   0  0  0  0  0  0  0  0  0  0  0  0
    8.6867    5.3820   -9.0806 C   0  0  0  0  0  0  0  0  0  0  0  0
    9.7412    7.1372  -11.9077 C   0  0  0  0  0  0  0  0  0  0  0  0
    8.8074    5.0387  -12.8099 C   0  0  0  0  0  0  0  0  0  0  0  0
    8.4562    4.1635  -13.9186 N   0  0  0  0  0  0  0  0  0  0  0  0
    8.2290    4.6277  -15.0061 C   0  0  0  0  0  0  0  0  0  0  0  0
    9.3168    6.2991  -13.0784 C   0  0  0  0  0  0  0  0  0  0  0  0
    8.3157    5.9301  -15.3494 C   0  0  0  0  0  0  0  0  0  0  0  0
    9.0455    6.6832  -14.3469 N   0  0  0  0  0  0  0  0  0  0  0  0
  1  2  1  0
  2  3  1  0
  3  4  2  0
  4  5  1  0
  1  6  1  0
  4  6  1  0
  3  7  1  0
  5  8  2  0
  8  9  1  0
  9 10  2  0
  7 11  2  0
  8 11  1  0
 10 12  1  0
 11 13  1  0
 12 13  2  0
M  END
$$$$
Pocket2Mol_1_num_sample_100
     RDKit          3D

  5  5  0  0  0  0  0  0  0  0999 V2000
    9.0380    6.8696   -8.5657 N   0  0  0  0  0  0  0  0  0  0  0  0
    9.6157    7.5091   -9.4648 C   0  0  0  0  0  0  0  0  0  0  0  0
    9.9874    6.9414  -10.5737 C   0  0  0  0  0  0  0  0  0  0  0  0
    8.8339    5.6208   -9.0223 C   0  0  0  0  0  0  0  0  0  0  0  0
    9.2714    5.5005  -10.3913 C   0  0  0  0  0  0  0  0  0  0  0  0
  1  2  1  0
  2  3  2  0
  1  4  2  0
  3  5  1  0
  4  5  1  0
M  END
$$$$
Pocket2Mol_2_num_sample_100
     RDKit          3D

  5  5  0  0  0  0  0  0  0  0999 V2000
    9.0380    6.8696   -8.5657 N   0  0  0  0  0  0  0  0  0  0  0  0
    9.6157    7.5091   -9.4648 C   0  0  0  0  0  0  0  0  0  0  0  0
    9.9874    6.9414  -10.5737 C   0  0  0  0  0  0  0  0  0  0  0  0
    9.2935    5.6377  -10.5027 C   0  0  0  0  0  0  0  0  0  0  0  0
    8.7969    5.6208   -9.2101 C   0  0  0  0  0  0  0  0  0  0  0  0
  1  2  1  0
  2  3  2  0
  3  4  1  0
  1  5  1  0
  4  5  2  0
M  END
$$$$
Pocket2Mol_3_num_sample_100
     RDKit          3D

  5  4  0  0  0  0  0  0  0  0999 V2000
    9.1846    6.6802   -8.4911 C   0  0  0  0  0  0  0  0  0  0  0  0
    9.4594    7.4203   -9.5710 O   0  0  0  0  0  0  0  0  0  0  0  0
   10.0701    6.9349  -10.4785 C   0  0  0  0  0  0  0  0  0  0  0  0
   11.2447    7.5102  -10.7232 C   0  0  0  0  0  0  0  0  0  0  0  0
    9.6138    6.0628  -11.2610 O   0  0  0  0  0  0  0  0  0  0  0  0
  1  2  1  0
  2  3  1  0
  3  4  1  0
  3  5  2  0
M  END
$$$$
Pocket2Mol_4_num_sample_100
     RDKit          3D

  5  5  0  0  0  0  0  0  0  0999 V2000
    9.0380    6.8696   -8.5657 N   0  0  0  0  0  0  0  0  0  0  0  0
    9.6157    7.5091   -9.4648 C   0  0  0  0  0  0  0  0  0  0  0  0
    9.9874    6.9414  -10.5737 C   0  0  0  0  0  0  0  0  0  0  0  0
    9.2935    5.6377  -10.5027 C   0  0  0  0  0  0  0  0  0  0  0  0
    8.7338    5.5636   -9.4198 N   0  0  0  0  0  0  0  0  0  0  0  0
  1  2  2  0
  2  3  1  0
  3  4  2  0
  1  5  1  0
  4  5  1  0
M  END
$$$$
Pocket2Mol_5_num_sample_100
     RDKit          3D

  6  6  0  0  0  0  0  0  0  0999 V2000
    9.1846    6.6802   -8.4911 C   0  0  0  0  0  0  0  0  0  0  0  0
    9.4594    7.4203   -9.5710 O   0  0  0  0  0  0  0  0  0  0  0  0
   10.0701    6.9349  -10.4785 C   0  0  0  0  0  0  0  0  0  0  0  0
    9.3023    6.2494  -11.4633 C   0  0  0  0  0  0  0  0  0  0  0  0
    8.8437    4.9445  -10.7129 C   0  0  0  0  0  0  0  0  0  0  0  0
    8.5701    5.2412   -9.3284 C   0  0  0  0  0  0  0  0  0  0  0  0
  1  2  1  0
  2  3  1  0
  3  4  1  0
  4  5  1  0
  1  6  1  0
  5  6  1  0
M  END
$$$$
Pocket2Mol_6_num_sample_100
     RDKit          3D

  6  6  0  0  0  0  0  0  0  0999 V2000
    9.1846    6.6802   -8.4911 C   0  0  0  0  0  0  0  0  0  0  0  0
    9.4594    7.4203   -9.5710 O   0  0  0  0  0  0  0  0  0  0  0  0
    8.6012    5.4606   -8.8529 C   0  0  0  0  0  0  0  0  0  0  0  0
    7.7846    5.7912  -10.0497 O   0  0  0  0  0  0  0  0  0  0  0  0
    9.5185    6.8799  -10.7155 C   0  0  0  0  0  0  0  0  0  0  0  0
    8.4160    6.0446  -11.1078 C   0  0  0  0  0  0  0  0  0  0  0  0
  1  2  1  0
  1  3  1  0
  3  4  1  0
  2  5  1  0
  4  6  1  0
  5  6  1  0
M  END
$$$$
Pocket2Mol_7_num_sample_100
     RDKit          3D

  6  6  0  0  0  0  0  0  0  0999 V2000
    9.0380    6.8696   -8.5657 N   0  0  0  0  0  0  0  0  0  0  0  0
    9.6157    7.5091   -9.4648 C   0  0  0  0  0  0  0  0  0  0  0  0
    9.9874    6.9414  -10.5737 C   0  0  0  0  0  0  0  0  0  0  0  0
    9.5861    5.6699  -10.7687 C   0  0  0  0  0  0  0  0  0  0  0  0
    8.9659    4.9470   -9.8400 C   0  0  0  0  0  0  0  0  0  0  0  0
    8.6857    5.6352   -8.6299 C   0  0  0  0  0  0  0  0  0  0  0  0
  1  2  2  0
  2  3  1  0
  3  4  2  0
  4  5  1  0
  1  6  1  0
  5  6  2  0
M  END
$$$$
Pocket2Mol_8_num_sample_100
     RDKit          3D

  6  6  0  0  0  0  0  0  0  0999 V2000
    9.0380    6.8696   -8.5657 N   0  0  0  0  0  0  0  0  0  0  0  0
    9.6157    7.5091   -9.4648 C   0  0  0  0  0  0  0  0  0  0  0  0
    9.9874    6.9414  -10.5737 C   0  0  0  0  0  0  0  0  0  0  0  0
    8.8339    5.6208   -9.0223 C   0  0  0  0  0  0  0  0  0  0  0  0
   10.4779    7.3578  -11.8913 C   0  0  0  0  0  0  0  0  0  0  0  0
    9.3106    5.4354  -10.4361 C   0  0  0  0  0  0  0  0  0  0  0  0
  1  2  1  0
  2  3  2  0
  1  4  2  0
  3  5  1  0
  3  6  1  0
  4  6  1  0
M  END
$$$$
Pocket2Mol_9_num_sample_100
     RDKit          3D

  6  6  0  0  0  0  0  0  0  0999 V2000
    9.0380    6.8696   -8.5657 N   0  0  0  0  0  0  0  0  0  0  0  0
    9.6157    7.5091   -9.4648 C   0  0  0  0  0  0  0  0  0  0  0  0
    9.9874    6.9414  -10.5737 C   0  0  0  0  0  0  0  0  0  0  0  0
    8.8339    5.6208   -9.0223 C   0  0  0  0  0  0  0  0  0  0  0  0
   10.4779    7.3578  -11.8913 C   0  0  0  0  0  0  0  0  0  0  0  0
    9.3964    5.6284  -10.3675 N   0  0  0  0  0  0  0  0  0  0  0  0
  1  2  1  0
  2  3  2  0
  1  4  2  0
  3  5  1  0
  3  6  1  0
  4  6  1  0
M  END
$$$$
Pocket2Mol_10_num_sample_100
     RDKit          3D

  6  6  0  0  0  0  0  0  0  0999 V2000
    9.0380    6.8696   -8.5657 O   0  0  0  0  0  0  0  0  0  0  0  0
    9.5960    7.4785   -9.4365 C   0  0  0  0  0  0  0  0  0  0  0  0
    8.7874    5.5673   -8.8491 C   0  0  0  0  0  0  0  0  0  0  0  0
    9.8362    6.6641  -10.6201 C   0  0  0  0  0  0  0  0  0  0  0  0
   10.3922    6.9309  -11.8710 C   0  0  0  0  0  0  0  0  0  0  0  0
    9.2154    5.4580  -10.2531 C   0  0  0  0  0  0  0  0  0  0  0  0
  1  2  1  0
  1  3  1  0
  2  4  2  0
  4  5  1  0
  3  6  2  0
  4  6  1  0
M  END
$$$$
Pocket2Mol_11_num_sample_100
     RDKit          3D

  4  3  0  0  0  0  0  0  0  0999 V2000
    9.0380    6.8696   -8.5657 N   0  0  0  0  0  0  0  0  0  0  0  0
    9.6157    7.5091   -9.4648 C   0  0  0  0  0  0  0  0  0  0  0  0
    8.8131    5.5783   -8.7298 C   0  0  0  0  0  0  0  0  0  0  0  0
    9.6833    7.1495   -7.2410 C   0  0  0  0  0  0  0  0  0  0  0  0
  1  2  1  0
  1  3  1  0
  1  4  1  0
M  END
$$$$
Pocket2Mol_12_num_sample_100
     RDKit          3D

  6  6  0  0  0  0  0  0  0  0999 V2000
    9.0380    6.8696   -8.5657 O   0  0  0  0  0  0  0  0  0  0  0  0
    9.5960    7.4785   -9.4365 C   0  0  0  0  0  0  0  0  0  0  0  0
    8.7874    5.5673   -8.8491 C   0  0  0  0  0  0  0  0  0  0  0  0
    9.8362    6.6641  -10.6201 C   0  0  0  0  0  0  0  0  0  0  0  0
   10.3922    6.9309  -11.8710 C   0  0  0  0  0  0  0  0  0  0  0  0
    9.1933    5.3351  -10.3904 C   0  0  0  0  0  0  0  0  0  0  0  0
  1  2  1  0
  1  3  1  0
  2  4  2  0
  4  5  1  0
  3  6  1  0
  4  6  1  0
M  END
$$$$
Pocket2Mol_13_num_sample_100
     RDKit          3D

  7  7  0  0  0  0  0  0  0  0999 V2000
    9.0380    6.8696   -8.5657 N   0  0  0  0  0  0  0  0  0  0  0  0
    9.6157    7.5091   -9.4648 C   0  0  0  0  0  0  0  0  0  0  0  0
    9.9874    6.9414  -10.5737 C   0  0  0  0  0  0  0  0  0  0  0  0
    8.8339    5.6208   -9.0223 C   0  0  0  0  0  0  0  0  0  0  0  0
   10.4779    7.3578  -11.8913 C   0  0  0  0  0  0  0  0  0  0  0  0
    8.1597    4.5153   -8.4671 N   0  0  0  0  0  0  0  0  0  0  0  0
    9.3447    5.5157  -10.4781 C   0  0  0  0  0  0  0  0  0  0  0  0
  1  2  1  0
  2  3  2  0
  1  4  2  0
  3  5  1  0
  4  6  1  0
  3  7  1  0
  4  7  1  0
M  CHG  1   1   1
M  END
$$$$
Pocket2Mol_14_num_sample_100
     RDKit          3D

  7  7  0  0  0  0  0  0  0  0999 V2000
    9.1846    6.6802   -8.4911 C   0  0  0  0  0  0  0  0  0  0  0  0
    9.4594    7.4203   -9.5710 O   0  0  0  0  0  0  0  0  0  0  0  0
   10.0701    6.9349  -10.4785 C   0  0  0  0  0  0  0  0  0  0  0  0
    9.3023    6.2494  -11.4633 C   0  0  1  0  0  0  0  0  0  0  0  0
    9.8333    5.6974  -12.5151 O   0  0  0  0  0  0  0  0  0  0  0  0
    9.4692    5.3345   -8.7644 C   0  0  0  0  0  0  0  0  0  0  0  0
    9.3985    5.2515  -10.2764 C   0  0  0  0  0  0  0  0  0  0  0  0
  1  2  1  0
  2  3  1  0
  3  4  1  0
  4  5  1  6
  1  6  1  0
  4  7  1  0
  6  7  1  0
M  END
$$$$
Pocket2Mol_15_num_sample_100
     RDKit          3D

  7  7  0  0  0  0  0  0  0  0999 V2000
    9.1846    6.6802   -8.4911 C   0  0  0  0  0  0  0  0  0  0  0  0
    9.4594    7.4203   -9.5710 O   0  0  0  0  0  0  0  0  0  0  0  0
    8.6012    5.4606   -8.8529 C   0  0  0  0  0  0  0  0  0  0  0  0
    7.7846    5.7912  -10.0497 O   0  0  0  0  0  0  0  0  0  0  0  0
   10.3461    7.0448  -10.5214 C   0  0  0  0  0  0  0  0  0  0  0  0
    8.3583    5.3750  -11.2743 C   0  0  0  0  0  0  0  0  0  0  0  0
    9.4897    6.4805  -11.7449 C   0  0  0  0  0  0  0  0  0  0  0  0
  1  2  1  0
  1  3  1  0
  3  4  1  0
  2  5  1  0
  4  6  1  0
  5  7  1  0
  6  7  1  0
M  END
$$$$
Pocket2Mol_16_num_sample_100
     RDKit          3D

  7  7  0  0  0  0  0  0  0  0999 V2000
    9.1846    6.6802   -8.4911 C   0  0  0  0  0  0  0  0  0  0  0  0
    9.4594    7.4203   -9.5710 O   0  0  0  0  0  0  0  0  0  0  0  0
   10.0701    6.9349  -10.4785 C   0  0  0  0  0  0  0  0  0  0  0  0
   11.2447    7.5102  -10.7232 C   0  0  0  0  0  0  0  0  0  0  0  0
    9.2072    6.9215  -11.5793 C   0  0  0  0  0  0  0  0  0  0  0  0
    9.0263    5.4400   -8.8529 C   0  0  0  0  0  0  0  0  0  0  0  0
   10.1246    5.4781   -9.9707 C   0  0  0  0  0  0  0  0  0  0  0  0
  1  2  1  0
  2  3  1  0
  3  4  1  0
  3  5  1  0
  1  6  1  0
  3  7  1  0
  6  7  1  0
M  END
$$$$
Pocket2Mol_17_num_sample_100
     RDKit          3D

  7  7  0  0  0  0  0  0  0  0999 V2000
    9.0380    6.8696   -8.5657 N   0  0  0  0  0  0  0  0  0  0  0  0
    9.6157    7.5091   -9.4648 C   0  0  0  0  0  0  0  0  0  0  0  0
    9.9874    6.9414  -10.5737 C   0  0  0  0  0  0  0  0  0  0  0  0
    9.5861    5.6699  -10.7687 C   0  0  0  0  0  0  0  0  0  0  0  0
    9.7483    5.0042  -12.0487 O   0  0  0  0  0  0  0  0  0  0  0  0
    8.6858    5.5887   -8.7016 C   0  0  0  0  0  0  0  0  0  0  0  0
    8.9419    5.0020   -9.8576 C   0  0  0  0  0  0  0  0  0  0  0  0
  1  2  2  0
  2  3  1  0
  3  4  2  0
  4  5  1  0
  1  6  1  0
  4  7  1  0
  6  7  2  0
M  END
$$$$
Pocket2Mol_18_num_sample_100
     RDKit          3D

  7  7  0  0  0  0  0  0  0  0999 V2000
    9.1846    6.6802   -8.4911 C   0  0  0  0  0  0  0  0  0  0  0  0
    9.4594    7.4203   -9.5710 O   0  0  0  0  0  0  0  0  0  0  0  0
   10.0701    6.9349  -10.4785 C   0  0  0  0  0  0  0  0  0  0  0  0
    9.3023    6.2494  -11.4633 C   0  0  0  0  0  0  0  0  0  0  0  0
    8.8437    4.9445  -10.7129 O   0  0  0  0  0  0  0  0  0  0  0  0
    8.0636    5.2373   -9.5423 C   0  0  0  0  0  0  0  0  0  0  0  0
    8.5848    5.4797   -8.5510 C   0  0  0  0  0  0  0  0  0  0  0  0
  1  2  1  0
  2  3  1  0
  3  4  1  0
  4  5  1  0
  5  6  1  0
  1  7  2  0
  6  7  1  0
M  END
$$$$
Pocket2Mol_19_num_sample_100
     RDKit          3D

  7  7  0  0  0  0  0  0  0  0999 V2000
    9.0380    6.8696   -8.5657 N   0  0  0  0  0  0  0  0  0  0  0  0
    9.6157    7.5091   -9.4648 C   0  0  0  0  0  0  0  0  0  0  0  0
    9.9874    6.9414  -10.5737 C   0  0  0  0  0  0  0  0  0  0  0  0
    9.5861    5.6699  -10.7687 C   0  0  0  0  0  0  0  0  0  0  0  0
    9.7483    5.0042  -12.0487 N   0  0  0  0  0  0  0  0  0  0  0  0
    8.9122    5.1606   -9.6987 C   0  0  0  0  0  0  0  0  0  0  0  0
    8.7944    5.6393   -8.6765 C   0  0  0  0  0  0  0  0  0  0  0  0
  1  2  2  0
  2  3  1  0
  3  4  2  0
  4  5  1  0
  4  6  1  0
  1  7  1  0
  6  7  2  0
M  END
$$$$
Pocket2Mol_20_num_sample_100
     RDKit          3D

  7  7  0  0  0  0  0  0  0  0999 V2000
    9.0380    6.8696   -8.5657 N   0  0  0  0  0  0  0  0  0  0  0  0
    9.6157    7.5091   -9.4648 C   0  0  0  0  0  0  0  0  0  0  0  0
    9.9874    6.9414  -10.5737 C   0  0  0  0  0  0  0  0  0  0  0  0
    8.6673    5.5986   -8.7586 C   0  0  0  0  0  0  0  0  0  0  0  0
   10.6273    7.6981  -11.7578 O   0  0  0  0  0  0  0  0  0  0  0  0
    9.7818    5.6438  -10.9793 C   0  0  0  0  0  0  0  0  0  0  0  0
    9.0285    4.9890  -10.0553 C   0  0  0  0  0  0  0  0  0  0  0  0
  1  2  2  0
  2  3  1  0
  1  4  1  0
  3  5  1  0
  3  6  2  0
  4  7  2  0
  6  7  1  0
M  END
$$$$
Pocket2Mol_21_num_sample_100
     RDKit          3D

  7  7  0  0  0  0  0  0  0  0999 V2000
    9.0380    6.8696   -8.5657 N   0  0  0  0  0  0  0  0  0  0  0  0
    9.6157    7.5091   -9.4648 C   0  0  0  0  0  0  0  0  0  0  0  0
    9.9874    6.9414  -10.5737 C   0  0  0  0  0  0  0  0  0  0  0  0
    9.5861    5.6699  -10.7687 C   0  0  0  0  0  0  0  0  0  0  0  0
    9.7483    5.0042  -12.0487 N   0  0  0  0  0  0  0  0  0  0  0  0
    9.0291    4.8455   -9.9487 N   0  0  0  0  0  0  0  0  0  0  0  0
    8.8134    5.5404   -8.7177 C   0  0  0  0  0  0  0  0  0  0  0  0
  1  2  2  0
  2  3  1  0
  3  4  2  0
  4  5  1  0
  4  6  1  0
  1  7  1  0
  6  7  2  0
M  END
$$$$
Pocket2Mol_22_num_sample_100
     RDKit          3D

  5  5  0  0  0  0  0  0  0  0999 V2000
    9.1846    6.6802   -8.4911 C   0  0  0  0  0  0  0  0  0  0  0  0
    9.4594    7.4203   -9.5710 O   0  0  0  0  0  0  0  0  0  0  0  0
    9.2734    6.8144  -10.7282 C   0  0  0  0  0  0  0  0  0  0  0  0
    8.5846    5.4819   -8.7646 C   0  0  0  0  0  0  0  0  0  0  0  0
    8.5844    5.5532  -10.3551 C   0  0  0  0  0  0  0  0  0  0  0  0
  1  2  1  0
  2  3  1  0
  1  4  2  0
  3  5  2  0
  4  5  1  0
M  END
$$$$
Pocket2Mol_23_num_sample_100
     RDKit          3D

  7  7  0  0  0  0  0  0  0  0999 V2000
    9.0380    6.8696   -8.5657 N   0  0  0  0  0  0  0  0  0  0  0  0
    9.6157    7.5091   -9.4648 C   0  0  0  0  0  0  0  0  0  0  0  0
    9.9874    6.9414  -10.5737 C   0  0  0  0  0  0  0  0  0  0  0  0
    8.6673    5.5986   -8.7586 C   0  0  0  0  0  0  0  0  0  0  0  0
    8.9194    4.9828   -9.8914 C   0  0  0  0  0  0  0  0  0  0  0  0
   10.6829    7.6397  -11.7399 F   0  0  0  0  0  0  0  0  0  0  0  0
    9.5427    5.7176  -10.9296 C   0  0  0  0  0  0  0  0  0  0  0  0
  1  2  2  0
  2  3  1  0
  1  4  1  0
  4  5  2  0
  3  6  1  0
  3  7  2  0
  5  7  1  0
M  END
$$$$
Pocket2Mol_24_num_sample_100
     RDKit          3D

  7  8  0  0  0  0  0  0  0  0999 V2000
    9.1846    6.6802   -8.4911 C   0  0  0  0  0  0  0  0  0  0  0  0
    9.4594    7.4203   -9.5710 O   0  0  0  0  0  0  0  0  0  0  0  0
   10.0701    6.9349  -10.4785 C   0  0  2  0  0  0  0  0  0  0  0  0
    9.3023    6.2494  -11.4633 C   0  0  1  0  0  0  0  0  0  0  0  0
    9.8333    5.6974  -12.5151 O   0  0  0  0  0  0  0  0  0  0  0  0
    9.4692    5.3345   -8.7644 C   0  0  0  0  0  0  0  0  0  0  0  0
    9.3985    5.2515  -10.2764 C   0  0  2  0  0  0  0  0  0  0  0  0
  1  2  1  0
  3  2  1  1
  3  4  1  0
  4  5  1  6
  1  6  1  0
  3  7  1  0
  4  7  1  0
  7  6  1  1
M  END
$$$$
Pocket2Mol_25_num_sample_100
     RDKit          3D

  7  7  0  0  0  0  0  0  0  0999 V2000
    9.0380    6.8696   -8.5657 N   0  0  0  0  0  0  0  0  0  0  0  0
    9.6157    7.5091   -9.4648 C   0  0  0  0  0  0  0  0  0  0  0  0
    9.9874    6.9414  -10.5737 C   0  0  0  0  0  0  0  0  0  0  0  0
    8.8339    5.6208   -9.0223 C   0  0  0  0  0  0  0  0  0  0  0  0
   10.4779    7.3578  -11.8913 C   0  0  0  0  0  0  0  0  0  0  0  0
    8.1597    4.5153   -8.4671 N   0  0  0  0  0  0  0  0  0  0  0  0
    9.3685    5.6112  -10.3514 N   0  0  0  0  0  0  0  0  0  0  0  0
  1  2  1  0
  2  3  2  0
  1  4  2  0
  3  5  1  0
  4  6  1  0
  3  7  1  0
  4  7  1  0
M  CHG  1   1   1
M  END
$$$$
Pocket2Mol_26_num_sample_100
     RDKit          3D

  7  7  0  0  0  0  0  0  0  0999 V2000
    9.1846    6.6802   -8.4911 C   0  0  0  0  0  0  0  0  0  0  0  0
    9.4594    7.4203   -9.5710 O   0  0  0  0  0  0  0  0  0  0  0  0
   10.0701    6.9349  -10.4785 C   0  0  0  0  0  0  0  0  0  0  0  0
    9.3023    6.2494  -11.4633 C   0  0  1  0  0  0  0  0  0  0  0  0
    9.8333    5.6974  -12.5151 O   0  0  0  0  0  0  0  0  0  0  0  0
    8.6444    5.4016   -8.8193 C   0  0  0  0  0  0  0  0  0  0  0  0
    8.6569    5.1540  -10.3471 C   0  0  0  0  0  0  0  0  0  0  0  0
  1  2  1  0
  2  3  1  0
  3  4  1  0
  4  5  1  6
  1  6  1  0
  4  7  1  0
  6  7  2  0
M  END
$$$$
Pocket2Mol_27_num_sample_100
     RDKit          3D

  7  7  0  0  0  0  0  0  0  0999 V2000
    9.1846    6.6802   -8.4911 C   0  0  0  0  0  0  0  0  0  0  0  0
    9.4594    7.4203   -9.5710 O   0  0  0  0  0  0  0  0  0  0  0  0
   10.0701    6.9349  -10.4785 C   0  0  0  0  0  0  0  0  0  0  0  0
   11.2447    7.5102  -10.7232 C   0  0  0  0  0  0  0  0  0  0  0  0
    8.7371    5.4171   -8.7480 C   0  0  0  0  0  0  0  0  0  0  0  0
    9.9239    5.6567  -10.8424 C   0  0  0  0  0  0  0  0  0  0  0  0
    9.0040    4.8503  -10.1148 C   0  0  0  0  0  0  0  0  0  0  0  0
  1  2  1  0
  2  3  1  0
  3  4  1  0
  1  5  1  0
  3  6  2  0
  5  7  2  0
  6  7  1  0
M  END
$$$$
Pocket2Mol_28_num_sample_100
     RDKit          3D

  8  8  0  0  0  0  0  0  0  0999 V2000
    9.0380    6.8696   -8.5657 N   0  0  0  0  0  0  0  0  0  0  0  0
    9.6157    7.5091   -9.4648 C   0  0  0  0  0  0  0  0  0  0  0  0
    9.9874    6.9414  -10.5737 C   0  0  0  0  0  0  0  0  0  0  0  0
    8.6673    5.5986   -8.7586 C   0  0  0  0  0  0  0  0  0  0  0  0
   10.6273    7.6981  -11.7578 O   0  0  0  0  0  0  0  0  0  0  0  0
    9.5414    5.6683  -10.9046 C   0  0  0  0  0  0  0  0  0  0  0  0
    9.8191    5.1252  -12.2124 O   0  0  0  0  0  0  0  0  0  0  0  0
    8.9084    4.9897   -9.9725 C   0  0  0  0  0  0  0  0  0  0  0  0
  1  2  2  0
  2  3  1  0
  1  4  1  0
  3  5  1  0
  3  6  2  0
  6  7  1  0
  4  8  2  0
  6  8  1  0
M  END
$$$$
Pocket2Mol_29_num_sample_100
     RDKit          3D

  8  8  0  0  0  0  0  0  0  0999 V2000
    9.1846    6.6802   -8.4911 C   0  0  0  0  0  0  0  0  0  0  0  0
    9.4594    7.4203   -9.5710 O   0  0  0  0  0  0  0  0  0  0  0  0
   10.0701    6.9349  -10.4785 C   0  0  0  0  0  0  0  0  0  0  0  0
    9.3023    6.2494  -11.4633 C   0  0  0  0  0  0  0  0  0  0  0  0
    9.8333    5.6974  -12.5151 O   0  0  0  0  0  0  0  0  0  0  0  0
    9.4692    5.3345   -8.7644 C   0  0  0  0  0  0  0  0  0  0  0  0
    8.6452    4.9502  -10.5934 C   0  0  0  0  0  0  0  0  0  0  0  0
    8.0571    5.2262   -9.3941 O   0  0  0  0  0  0  0  0  0  0  0  0
  1  2  1  0
  2  3  1  0
  3  4  1  0
  4  5  1  0
  1  6  1  0
  4  7  1  0
  6  8  1  0
  7  8  1  0
M  END
$$$$
Pocket2Mol_30_num_sample_100
     RDKit          3D

  8  8  0  0  0  0  0  0  0  0999 V2000
    9.0380    6.8696   -8.5657 N   0  0  0  0  0  0  0  0  0  0  0  0
    9.6157    7.5091   -9.4648 C   0  0  0  0  0  0  0  0  0  0  0  0
    9.9874    6.9414  -10.5737 C   0  0  0  0  0  0  0  0  0  0  0  0
    9.5861    5.6699  -10.7687 C   0  0  0  0  0  0  0  0  0  0  0  0
    9.7483    5.0042  -12.0487 O   0  0  0  0  0  0  0  0  0  0  0  0
    8.8257    5.4949   -8.9097 C   0  0  0  0  0  0  0  0  0  0  0  0
    9.0439    4.9572   -9.9628 N   0  0  0  0  0  0  0  0  0  0  0  0
    8.6010    4.2703  -12.4752 C   0  0  0  0  0  0  0  0  0  0  0  0
  1  2  2  0
  2  3  1  0
  3  4  2  0
  4  5  1  0
  1  6  1  0
  4  7  1  0
  6  7  2  0
  5  8  1  0
M  END
$$$$
Pocket2Mol_31_num_sample_100
     RDKit          3D

  8  9  0  0  0  0  0  0  0  0999 V2000
    9.1846    6.6802   -8.4911 C   0  0  0  0  0  0  0  0  0  0  0  0
    9.4594    7.4203   -9.5710 O   0  0  0  0  0  0  0  0  0  0  0  0
   10.0701    6.9349  -10.4785 C   0  0  2  0  0  0  0  0  0  0  0  0
   11.2447    7.5102  -10.7232 C   0  0  0  0  0  0  0  0  0  0  0  0
    9.2072    6.9215  -11.5793 C   0  0  0  0  0  0  0  0  0  0  0  0
    8.8192    5.3458   -8.8808 C   0  0  0  0  0  0  0  0  0  0  0  0
    8.5801    5.4991  -11.7957 C   0  0  0  0  0  0  0  0  0  0  0  0
    9.4903    5.2652  -10.3249 C   0  0  1  0  0  0  0  0  0  0  0  0
  1  2  1  0
  2  3  1  0
  3  4  1  6
  3  5  1  0
  1  6  1  0
  5  7  1  0
  3  8  1  0
  8  6  1  1
  7  8  1  0
M  END
$$$$
Pocket2Mol_32_num_sample_100
     RDKit          3D

  9 10  0  0  0  0  0  0  0  0999 V2000
    9.1846    6.6802   -8.4911 C   0  0  0  0  0  0  0  0  0  0  0  0
    9.4594    7.4203   -9.5710 O   0  0  0  0  0  0  0  0  0  0  0  0
    9.2734    6.8144  -10.7282 C   0  0  0  0  0  0  0  0  0  0  0  0
    8.7495    5.5380  -10.6247 C   0  0  0  0  0  0  0  0  0  0  0  0
    8.3845    4.5563  -11.5282 C   0  0  0  0  0  0  0  0  0  0  0  0
    8.6034    5.4140   -9.0605 C   0  0  0  0  0  0  0  0  0  0  0  0
    9.5696    7.1618  -12.0267 C   0  0  0  0  0  0  0  0  0  0  0  0
    9.2702    6.2993  -13.0385 C   0  0  0  0  0  0  0  0  0  0  0  0
    8.6061    4.9499  -12.7524 C   0  0  0  0  0  0  0  0  0  0  0  0
  1  2  1  0
  2  3  1  0
  3  4  2  0
  4  5  1  0
  1  6  1  0
  4  6  1  0
  3  7  1  0
  7  8  2  0
  5  9  2  0
  8  9  1  0
M  END
$$$$
Pocket2Mol_33_num_sample_100
     RDKit          3D

  5  5  0  0  0  0  0  0  0  0999 V2000
    9.0380    6.8696   -8.5657 N   0  0  0  0  0  0  0  0  0  0  0  0
    9.6157    7.5091   -9.4648 C   0  0  0  0  0  0  0  0  0  0  0  0
    9.9874    6.9414  -10.5737 C   0  0  0  0  0  0  0  0  0  0  0  0
    9.2935    5.6377  -10.5027 C   0  0  0  0  0  0  0  0  0  0  0  0
    8.8051    5.6199   -9.1995 C   0  0  0  0  0  0  0  0  0  0  0  0
  1  2  1  0
  2  3  2  0
  3  4  1  0
  1  5  1  0
  4  5  1  0
M  END
$$$$
Pocket2Mol_34_num_sample_100
     RDKit          3D

  9 10  0  0  0  0  0  0  0  0999 V2000
    9.1846    6.6802   -8.4911 C   0  0  0  0  0  0  0  0  0  0  0  0
    9.4594    7.4203   -9.5710 O   0  0  0  0  0  0  0  0  0  0  0  0
   10.0701    6.9349  -10.4785 C   0  0  2  0  0  0  0  0  0  0  0  0
   11.2447    7.5102  -10.7232 C   0  0  0  0  0  0  0  0  0  0  0  0
    9.2072    6.9215  -11.5793 C   0  0  0  0  0  0  0  0  0  0  0  0
    9.0263    5.4400   -8.8529 C   0  0  0  0  0  0  0  0  0  0  0  0
    8.6847    5.4656  -11.8399 C   0  0  0  0  0  0  0  0  0  0  0  0
   10.1116    5.4232  -10.0094 C   0  0  1  0  0  0  0  0  0  0  0  0
    9.3784    4.6839  -11.0309 O   0  0  0  0  0  0  0  0  0  0  0  0
  1  2  1  0
  2  3  1  0
  3  4  1  6
  3  5  1  0
  1  6  1  0
  5  7  1  0
  3  8  1  0
  8  6  1  1
  7  9  1  0
  8  9  1  0
M  END
$$$$
Pocket2Mol_35_num_sample_100
     RDKit          3D

  9 10  0  0  0  0  0  0  0  0999 V2000
    9.1846    6.6802   -8.4911 C   0  0  0  0  0  0  0  0  0  0  0  0
    9.4594    7.4203   -9.5710 O   0  0  0  0  0  0  0  0  0  0  0  0
    9.2734    6.8144  -10.7282 C   0  0  0  0  0  0  0  0  0  0  0  0
    8.7495    5.5380  -10.6247 C   0  0  0  0  0  0  0  0  0  0  0  0
    8.3845    4.5563  -11.5282 C   0  0  0  0  0  0  0  0  0  0  0  0
    8.8698    4.8692  -12.8331 N   0  0  0  0  0  0  0  0  0  0  0  0
    9.4515    6.0849  -12.9781 C   0  0  0  0  0  0  0  0  0  0  0  0
    9.6842    7.0082  -11.9922 C   0  0  0  0  0  0  0  0  0  0  0  0
    8.3712    5.3175   -9.1420 C   0  0  0  0  0  0  0  0  0  0  0  0
  1  2  1  0
  2  3  1  0
  3  4  2  0
  4  5  1  0
  5  6  2  0
  6  7  1  0
  3  8  1  0
  7  8  2  0
  1  9  1  0
  4  9  1  0
M  END
$$$$
Pocket2Mol_36_num_sample_100
     RDKit          3D

  9 10  0  0  0  0  0  0  0  0999 V2000
    9.1846    6.6802   -8.4911 C   0  0  0  0  0  0  0  0  0  0  0  0
    9.4594    7.4203   -9.5710 O   0  0  0  0  0  0  0  0  0  0  0  0
    9.2734    6.8144  -10.7282 C   0  0  0  0  0  0  0  0  0  0  0  0
    8.7495    5.5380  -10.6247 C   0  0  0  0  0  0  0  0  0  0  0  0
    8.3845    4.5563  -11.5282 C   0  0  0  0  0  0  0  0  0  0  0  0
    8.8698    4.8692  -12.8331 C   0  0  0  0  0  0  0  0  0  0  0  0
    9.4990    6.1341  -13.0049 C   0  0  0  0  0  0  0  0  0  0  0  0
    9.7375    7.1173  -11.9530 C   0  0  0  0  0  0  0  0  0  0  0  0
    8.3712    5.5712   -9.0451 O   0  0  0  0  0  0  0  0  0  0  0  0
  1  2  1  0
  2  3  1  0
  3  4  2  0
  4  5  1  0
  5  6  2  0
  6  7  1  0
  3  8  1  0
  7  8  2  0
  1  9  1  0
  4  9  1  0
M  END
$$$$
Pocket2Mol_37_num_sample_100
     RDKit          3D

  9 10  0  0  0  0  0  0  0  0999 V2000
    9.1846    6.6802   -8.4911 C   0  0  0  0  0  0  0  0  0  0  0  0
    9.4594    7.4203   -9.5710 O   0  0  0  0  0  0  0  0  0  0  0  0
    9.2734    6.8144  -10.7282 C   0  0  0  0  0  0  0  0  0  0  0  0
    8.7495    5.5380  -10.6247 C   0  0  0  0  0  0  0  0  0  0  0  0
    8.3845    4.5563  -11.5282 C   0  0  0  0  0  0  0  0  0  0  0  0
    9.5208    7.2969  -12.0420 C   0  0  0  0  0  0  0  0  0  0  0  0
    8.6375    5.3849   -9.0257 C   0  0  0  0  0  0  0  0  0  0  0  0
    8.8794    6.4157  -12.9131 C   0  0  0  0  0  0  0  0  0  0  0  0
    8.1310    5.0739  -12.7158 C   0  0  0  0  0  0  0  0  0  0  0  0
  1  2  1  0
  2  3  1  0
  3  4  2  0
  4  5  1  0
  3  6  1  0
  1  7  2  0
  4  7  1  0
  6  8  1  0
  5  9  1  0
  8  9  2  0
M  END
$$$$
Pocket2Mol_38_num_sample_100
     RDKit          3D

  9 10  0  0  0  0  0  0  0  0999 V2000
    9.1846    6.6802   -8.4911 C   0  0  0  0  0  0  0  0  0  0  0  0
    9.4594    7.4203   -9.5710 O   0  0  0  0  0  0  0  0  0  0  0  0
    9.2734    6.8144  -10.7282 C   0  0  0  0  0  0  0  0  0  0  0  0
    8.7495    5.5380  -10.6247 C   0  0  0  0  0  0  0  0  0  0  0  0
    8.3845    4.5563  -11.5282 C   0  0  0  0  0  0  0  0  0  0  0  0
    9.5208    7.2969  -12.0420 C   0  0  0  0  0  0  0  0  0  0  0  0
    8.7044    5.2996   -9.0821 C   0  0  0  0  0  0  0  0  0  0  0  0
    8.8900    6.4251  -12.9031 C   0  0  0  0  0  0  0  0  0  0  0  0
    8.3983    5.1604  -12.7210 C   0  0  0  0  0  0  0  0  0  0  0  0
  1  2  1  0
  2  3  1  0
  3  4  2  0
  4  5  1  0
  3  6  1  0
  1  7  2  0
  4  7  1  0
  6  8  2  0
  5  9  2  0
  8  9  1  0
M  END
$$$$
Pocket2Mol_39_num_sample_100
     RDKit          3D

  9 10  0  0  0  0  0  0  0  0999 V2000
    9.1846    6.6802   -8.4911 C   0  0  0  0  0  0  0  0  0  0  0  0
    9.4594    7.4203   -9.5710 O   0  0  0  0  0  0  0  0  0  0  0  0
    9.2734    6.8144  -10.7282 C   0  0  0  0  0  0  0  0  0  0  0  0
    8.7495    5.5380  -10.6247 C   0  0  0  0  0  0  0  0  0  0  0  0
    8.3845    4.5563  -11.5282 C   0  0  0  0  0  0  0  0  0  0  0  0
    9.6469    7.1224  -12.0247 C   0  0  0  0  0  0  0  0  0  0  0  0
    8.5734    5.2184   -9.0933 C   0  0  0  0  0  0  0  0  0  0  0  0
    8.8106    4.9938  -12.8290 N   0  0  0  0  0  0  0  0  0  0  0  0
    9.2622    6.2484  -12.9343 C   0  0  0  0  0  0  0  0  0  0  0  0
  1  2  1  0
  2  3  1  0
  3  4  2  0
  4  5  1  0
  3  6  1  0
  1  7  2  0
  4  7  1  0
  5  8  2  0
  6  9  2  0
  8  9  1  0
M  END
$$$$
Pocket2Mol_40_num_sample_100
     RDKit          3D

  9  9  0  0  0  0  0  0  0  0999 V2000
    9.1846    6.6802   -8.4911 C   0  0  0  0  0  0  0  0  0  0  0  0
    9.4594    7.4203   -9.5710 O   0  0  0  0  0  0  0  0  0  0  0  0
   10.0701    6.9349  -10.4785 C   0  0  0  0  0  0  0  0  0  0  0  0
    8.4260    5.5139   -8.8199 C   0  0  0  0  0  0  0  0  0  0  0  0
    8.3737    5.4361  -10.2958 O   0  0  0  0  0  0  0  0  0  0  0  0
    9.4338    5.7143  -10.9192 C   0  0  0  0  0  0  0  0  0  0  0  0
    9.6812    5.1164  -12.1265 C   0  0  0  0  0  0  0  0  0  0  0  0
    8.9727    4.0143  -12.5728 O   0  0  0  0  0  0  0  0  0  0  0  0
   10.3763    5.5317  -12.8982 O   0  0  0  0  0  0  0  0  0  0  0  0
  1  2  1  0
  2  3  1  0
  1  4  1  0
  4  5  1  0
  3  6  2  0
  5  6  1  0
  6  7  1  0
  7  8  2  0
  7  9  1  0
M  CHG  1   9  -1
M  END
$$$$
Pocket2Mol_41_num_sample_100
     RDKit          3D

  9 10  0  0  0  0  0  0  0  0999 V2000
    9.1846    6.6802   -8.4911 C   0  0  0  0  0  0  0  0  0  0  0  0
    9.4594    7.4203   -9.5710 O   0  0  0  0  0  0  0  0  0  0  0  0
    9.2734    6.8144  -10.7282 C   0  0  0  0  0  0  0  0  0  0  0  0
    8.7495    5.5380  -10.6247 C   0  0  0  0  0  0  0  0  0  0  0  0
    8.3845    4.5563  -11.5282 C   0  0  0  0  0  0  0  0  0  0  0  0
    9.5208    7.2969  -12.0420 C   0  0  0  0  0  0  0  0  0  0  0  0
    9.1902    6.3274  -12.9561 C   0  0  0  0  0  0  0  0  0  0  0  0
    8.4213    5.0728   -9.0652 S   0  0  0  0  0  0  0  0  0  0  0  0
    8.7010    5.1060  -12.8559 C   0  0  0  0  0  0  0  0  0  0  0  0
  1  2  1  0
  2  3  1  0
  3  4  2  0
  4  5  1  0
  3  6  1  0
  6  7  2  0
  1  8  1  0
  4  8  1  0
  5  9  2  0
  7  9  1  0
M  END
$$$$
Pocket2Mol_42_num_sample_100
     RDKit          3D

  9 10  0  0  0  0  0  0  0  0999 V2000
    9.1846    6.6802   -8.4911 C   0  0  0  0  0  0  0  0  0  0  0  0
    9.4594    7.4203   -9.5710 O   0  0  0  0  0  0  0  0  0  0  0  0
   10.0701    6.9349  -10.4785 C   0  0  2  0  0  0  0  0  0  0  0  0
   11.2447    7.5102  -10.7232 C   0  0  0  0  0  0  0  0  0  0  0  0
    9.2072    6.9215  -11.5793 C   0  0  0  0  0  0  0  0  0  0  0  0
    9.0263    5.4400   -8.8529 C   0  0  0  0  0  0  0  0  0  0  0  0
    8.6847    5.4656  -11.8399 C   0  0  0  0  0  0  0  0  0  0  0  0
   10.1116    5.4232  -10.0094 C   0  0  1  0  0  0  0  0  0  0  0  0
    9.5428    4.6073  -11.0982 C   0  0  0  0  0  0  0  0  0  0  0  0
  1  2  1  0
  2  3  1  0
  3  4  1  6
  3  5  1  0
  1  6  1  0
  5  7  1  0
  3  8  1  0
  8  6  1  1
  7  9  1  0
  8  9  1  0
M  END
$$$$
Pocket2Mol_43_num_sample_100
     RDKit          3D

  9 10  0  0  0  0  0  0  0  0999 V2000
    9.1846    6.6802   -8.4911 C   0  0  0  0  0  0  0  0  0  0  0  0
    9.4594    7.4203   -9.5710 O   0  0  0  0  0  0  0  0  0  0  0  0
    9.2734    6.8144  -10.7282 C   0  0  0  0  0  0  0  0  0  0  0  0
    8.7495    5.5380  -10.6247 C   0  0  0  0  0  0  0  0  0  0  0  0
    8.3845    4.5563  -11.5282 C   0  0  0  0  0  0  0  0  0  0  0  0
    9.8657    7.0063  -11.9792 C   0  0  0  0  0  0  0  0  0  0  0  0
    9.8048    6.0818  -12.8574 C   0  0  0  0  0  0  0  0  0  0  0  0
    9.0882    4.9438  -12.7814 C   0  0  0  0  0  0  0  0  0  0  0  0
    8.0488    5.3608   -9.1468 N   0  0  0  0  0  0  0  0  0  0  0  0
  1  2  1  0
  2  3  1  0
  3  4  2  0
  4  5  1  0
  3  6  1  0
  6  7  2  0
  5  8  2  0
  7  8  1  0
  1  9  1  0
  4  9  1  0
M  END
$$$$
Pocket2Mol_44_num_sample_100
     RDKit          3D

  5  5  0  0  0  0  0  0  0  0999 V2000
    9.0380    6.8696   -8.5657 N   0  0  0  0  0  0  0  0  0  0  0  0
    9.6157    7.5091   -9.4648 C   0  0  0  0  0  0  0  0  0  0  0  0
    9.9874    6.9414  -10.5737 C   0  0  0  0  0  0  0  0  0  0  0  0
    8.6673    5.5986   -8.7586 C   0  0  0  0  0  0  0  0  0  0  0  0
    9.3329    5.4640  -10.5312 S   0  0  0  0  0  0  0  0  0  0  0  0
  1  2  1  0
  2  3  2  0
  1  4  2  0
  3  5  1  0
  4  5  1  0
M  END
$$$$
Pocket2Mol_45_num_sample_100
     RDKit          3D

  9 10  0  0  0  0  0  0  0  0999 V2000
    9.1846    6.6802   -8.4911 C   0  0  0  0  0  0  0  0  0  0  0  0
    9.4594    7.4203   -9.5710 O   0  0  0  0  0  0  0  0  0  0  0  0
    9.2734    6.8144  -10.7282 C   0  0  0  0  0  0  0  0  0  0  0  0
    8.7495    5.5380  -10.6247 C   0  0  0  0  0  0  0  0  0  0  0  0
    8.3845    4.5563  -11.5282 C   0  0  0  0  0  0  0  0  0  0  0  0
    8.8698    4.8692  -12.8331 N   0  0  0  0  0  0  0  0  0  0  0  0
    9.4515    6.0849  -12.9781 C   0  0  0  0  0  0  0  0  0  0  0  0
    9.6929    7.0146  -12.0036 C   0  0  0  0  0  0  0  0  0  0  0  0
    8.3470    5.5744   -9.0169 O   0  0  0  0  0  0  0  0  0  0  0  0
  1  2  1  0
  2  3  1  0
  3  4  2  0
  4  5  1  0
  5  6  2  0
  6  7  1  0
  3  8  1  0
  7  8  2  0
  1  9  1  0
  4  9  1  0
M  END
$$$$
Pocket2Mol_46_num_sample_100
     RDKit          3D

 10 11  0  0  0  0  0  0  0  0999 V2000
    9.1846    6.6802   -8.4911 C   0  0  0  0  0  0  0  0  0  0  0  0
    9.4594    7.4203   -9.5710 O   0  0  0  0  0  0  0  0  0  0  0  0
   10.0701    6.9349  -10.4785 C   0  0  0  0  0  0  0  0  0  0  0  0
   11.2447    7.5102  -10.7232 C   0  0  0  0  0  0  0  0  0  0  0  0
    8.7371    5.4171   -8.7480 C   0  0  0  0  0  0  0  0  0  0  0  0
    9.9239    5.6567  -10.8424 C   0  0  0  0  0  0  0  0  0  0  0  0
    9.0040    4.8503  -10.1148 O   0  0  0  0  0  0  0  0  0  0  0  0
   11.9786    6.9482  -11.8691 C   0  0  0  0  0  0  0  0  0  0  0  0
   10.4970    5.0802  -11.8939 C   0  0  0  0  0  0  0  0  0  0  0  0
   11.4919    5.8343  -12.4474 C   0  0  0  0  0  0  0  0  0  0  0  0
  1  2  1  0
  2  3  1  0
  3  4  1  0
  1  5  1  0
  3  6  2  0
  5  7  1  0
  6  7  1  0
  4  8  2  0
  6  9  1  0
  8 10  1  0
  9 10  2  0
M  END
$$$$
Pocket2Mol_47_num_sample_100
     RDKit          3D

 10 11  0  0  0  0  0  0  0  0999 V2000
    9.1846    6.6802   -8.4911 C   0  0  0  0  0  0  0  0  0  0  0  0
    9.4594    7.4203   -9.5710 O   0  0  0  0  0  0  0  0  0  0  0  0
    9.2734    6.8144  -10.7282 C   0  0  0  0  0  0  0  0  0  0  0  0
    8.7495    5.5380  -10.6247 C   0  0  0  0  0  0  0  0  0  0  0  0
    8.3845    4.5563  -11.5282 C   0  0  0  0  0  0  0  0  0  0  0  0
    9.6469    7.1224  -12.0247 C   0  0  0  0  0  0  0  0  0  0  0  0
    9.5092    6.1978  -12.9190 C   0  0  0  0  0  0  0  0  0  0  0  0
    8.3208    5.1010   -9.2017 O   0  0  0  0  0  0  0  0  0  0  0  0
    8.8260    5.0363  -12.8176 C   0  0  0  0  0  0  0  0  0  0  0  0
    8.8504    5.8140   -8.3332 C   0  0  0  0  0  0  0  0  0  0  0  0
  1  2  1  0
  2  3  1  0
  3  4  2  0
  4  5  1  0
  3  6  1  0
  6  7  2  0
  4  8  1  0
  5  9  2  0
  7  9  1  0
  1 10  2  0
  8 10  1  0
M  END
$$$$
Pocket2Mol_48_num_sample_100
     RDKit          3D

 10 11  0  0  0  0  0  0  0  0999 V2000
    9.1846    6.6802   -8.4911 C   0  0  0  0  0  0  0  0  0  0  0  0
    9.4594    7.4203   -9.5710 O   0  0  0  0  0  0  0  0  0  0  0  0
    9.2734    6.8144  -10.7282 C   0  0  0  0  0  0  0  0  0  0  0  0
    8.7495    5.5380  -10.6247 C   0  0  0  0  0  0  0  0  0  0  0  0
    8.3845    4.5563  -11.5282 C   0  0  0  0  0  0  0  0  0  0  0  0
    9.6469    7.1224  -12.0247 C   0  0  0  0  0  0  0  0  0  0  0  0
    9.3977    6.2784  -13.0105 C   0  0  0  0  0  0  0  0  0  0  0  0
    8.2951    5.1113   -9.0989 C   0  0  0  0  0  0  0  0  0  0  0  0
    8.7837    5.0384  -12.8159 C   0  0  0  0  0  0  0  0  0  0  0  0
    8.5776    5.9982   -8.2937 N   0  0  0  0  0  0  0  0  0  0  0  0
  1  2  1  0
  2  3  1  0
  3  4  2  0
  4  5  1  0
  3  6  1  0
  6  7  2  0
  4  8  1  0
  5  9  2  0
  7  9  1  0
  1 10  1  0
  8 10  1  0
M  END
$$$$
Pocket2Mol_49_num_sample_100
     RDKit          3D

 10 11  0  0  0  0  0  0  0  0999 V2000
    9.1846    6.6802   -8.4911 C   0  0  0  0  0  0  0  0  0  0  0  0
    9.4594    7.4203   -9.5710 O   0  0  0  0  0  0  0  0  0  0  0  0
    9.2734    6.8144  -10.7282 C   0  0  0  0  0  0  0  0  0  0  0  0
    8.7495    5.5380  -10.6247 C   0  0  0  0  0  0  0  0  0  0  0  0
    8.3845    4.5563  -11.5282 C   0  0  0  0  0  0  0  0  0  0  0  0
    9.6469    7.1224  -12.0247 C   0  0  0  0  0  0  0  0  0  0  0  0
    9.3977    6.2784  -13.0105 C   0  0  0  0  0  0  0  0  0  0  0  0
    8.2951    5.1113   -9.0989 C   0  0  0  0  0  0  0  0  0  0  0  0
    8.7837    5.0384  -12.8159 C   0  0  0  0  0  0  0  0  0  0  0  0
    9.4164    5.3905   -8.2431 C   0  0  0  0  0  0  0  0  0  0  0  0
  1  2  1  0
  2  3  1  0
  3  4  2  0
  4  5  1  0
  3  6  1  0
  6  7  2  0
  4  8  1  0
  5  9  2  0
  7  9  1  0
  1 10  1  0
  8 10  1  0
M  END
$$$$
Pocket2Mol_50_num_sample_100
     RDKit          3D

 10 11  0  0  0  0  0  0  0  0999 V2000
    9.1846    6.6802   -8.4911 C   0  0  0  0  0  0  0  0  0  0  0  0
    9.4594    7.4203   -9.5710 O   0  0  0  0  0  0  0  0  0  0  0  0
    9.2734    6.8144  -10.7282 C   0  0  0  0  0  0  0  0  0  0  0  0
    8.7495    5.5380  -10.6247 C   0  0  0  0  0  0  0  0  0  0  0  0
    8.3845    4.5563  -11.5282 C   0  0  0  0  0  0  0  0  0  0  0  0
    9.8657    7.0063  -11.9792 C   0  0  0  0  0  0  0  0  0  0  0  0
    9.6259    6.1641  -12.9761 C   0  0  0  0  0  0  0  0  0  0  0  0
   10.1357    6.4747  -14.2760 O   0  0  0  0  0  0  0  0  0  0  0  0
    8.9609    4.9266  -12.9056 C   0  0  0  0  0  0  0  0  0  0  0  0
    8.3391    5.5795   -9.0385 O   0  0  0  0  0  0  0  0  0  0  0  0
  1  2  1  0
  2  3  1  0
  3  4  2  0
  4  5  1  0
  3  6  1  0
  6  7  2  0
  7  8  1  0
  5  9  2  0
  7  9  1  0
  1 10  1  0
  4 10  1  0
M  END
$$$$
Pocket2Mol_51_num_sample_100
     RDKit          3D

 10 11  0  0  0  0  0  0  0  0999 V2000
    9.1846    6.6802   -8.4911 C   0  0  0  0  0  0  0  0  0  0  0  0
    9.4594    7.4203   -9.5710 O   0  0  0  0  0  0  0  0  0  0  0  0
    9.2734    6.8144  -10.7282 C   0  0  0  0  0  0  0  0  0  0  0  0
    8.7495    5.5380  -10.6247 C   0  0  0  0  0  0  0  0  0  0  0  0
    8.3845    4.5563  -11.5282 C   0  0  0  0  0  0  0  0  0  0  0  0
    9.5208    7.2969  -12.0420 C   0  0  0  0  0  0  0  0  0  0  0  0
    9.1902    6.3274  -12.9561 C   0  0  0  0  0  0  0  0  0  0  0  0
    8.4213    5.0728   -9.0652 S   0  0  0  0  0  0  0  0  0  0  0  0
    9.4665    6.8041  -14.3661 F   0  0  0  0  0  0  0  0  0  0  0  0
    8.6813    5.1304  -12.8524 C   0  0  0  0  0  0  0  0  0  0  0  0
  1  2  1  0
  2  3  1  0
  3  4  2  0
  4  5  1  0
  3  6  1  0
  6  7  2  0
  1  8  1  0
  4  8  1  0
  7  9  1  0
  5 10  2  0
  7 10  1  0
M  END
$$$$
Pocket2Mol_52_num_sample_100
     RDKit          3D

 10 11  0  0  0  0  0  0  0  0999 V2000
    9.1846    6.6802   -8.4911 C   0  0  0  0  0  0  0  0  0  0  0  0
    9.4594    7.4203   -9.5710 O   0  0  0  0  0  0  0  0  0  0  0  0
    9.2734    6.8144  -10.7282 C   0  0  0  0  0  0  0  0  0  0  0  0
    8.7495    5.5380  -10.6247 C   0  0  0  0  0  0  0  0  0  0  0  0
    8.3845    4.5563  -11.5282 C   0  0  0  0  0  0  0  0  0  0  0  0
    9.6469    7.1224  -12.0247 C   0  0  0  0  0  0  0  0  0  0  0  0
    8.5734    5.2184   -9.0933 C   0  0  0  0  0  0  0  0  0  0  0  0
    8.8106    4.9938  -12.8290 N   0  0  0  0  0  0  0  0  0  0  0  0
    8.4737    4.1990  -13.9040 O   0  0  0  0  0  0  0  0  0  0  0  0
    9.2756    6.2820  -13.0589 C   0  0  0  0  0  0  0  0  0  0  0  0
  1  2  1  0
  2  3  1  0
  3  4  2  0
  4  5  1  0
  3  6  1  0
  1  7  2  0
  4  7  1  0
  5  8  2  0
  8  9  1  0
  6 10  2  0
  8 10  1  0
M  CHG  2   8   1   9  -1
M  END
$$$$
Pocket2Mol_53_num_sample_100
     RDKit          3D

 10 11  0  0  0  0  0  0  0  0999 V2000
    9.1846    6.6802   -8.4911 C   0  0  0  0  0  0  0  0  0  0  0  0
    9.4594    7.4203   -9.5710 O   0  0  0  0  0  0  0  0  0  0  0  0
    9.2734    6.8144  -10.7282 C   0  0  0  0  0  0  0  0  0  0  0  0
    8.7495    5.5380  -10.6247 C   0  0  0  0  0  0  0  0  0  0  0  0
    8.3845    4.5563  -11.5282 C   0  0  0  0  0  0  0  0  0  0  0  0
    9.8657    7.0063  -11.9792 C   0  0  0  0  0  0  0  0  0  0  0  0
    9.6259    6.1641  -12.9761 C   0  0  0  0  0  0  0  0  0  0  0  0
    8.1969    5.1926   -9.2236 N   0  0  0  0  0  0  0  0  0  0  0  0
    8.9310    4.9440  -12.7958 C   0  0  0  0  0  0  0  0  0  0  0  0
    8.6856    5.7999   -8.2771 C   0  0  0  0  0  0  0  0  0  0  0  0
  1  2  1  0
  2  3  1  0
  3  4  2  0
  4  5  1  0
  3  6  1  0
  6  7  2  0
  4  8  1  0
  5  9  2  0
  7  9  1  0
  1 10  1  0
  8 10  2  0
M  END
$$$$
Pocket2Mol_54_num_sample_100
     RDKit          3D

 10 11  0  0  0  0  0  0  0  0999 V2000
    9.1846    6.6802   -8.4911 C   0  0  0  0  0  0  0  0  0  0  0  0
    9.4594    7.4203   -9.5710 O   0  0  0  0  0  0  0  0  0  0  0  0
    9.2734    6.8144  -10.7282 C   0  0  0  0  0  0  0  0  0  0  0  0
    8.7495    5.5380  -10.6247 C   0  0  0  0  0  0  0  0  0  0  0  0
    8.3845    4.5563  -11.5282 C   0  0  0  0  0  0  0  0  0  0  0  0
    9.8657    7.0063  -11.9792 C   0  0  0  0  0  0  0  0  0  0  0  0
    9.6259    6.1641  -12.9761 C   0  0  0  0  0  0  0  0  0  0  0  0
   10.1357    6.4747  -14.2760 O   0  0  0  0  0  0  0  0  0  0  0  0
    8.9609    4.9266  -12.9056 C   0  0  0  0  0  0  0  0  0  0  0  0
    8.2282    5.3114   -9.1542 C   0  0  0  0  0  0  0  0  0  0  0  0
  1  2  1  0
  2  3  1  0
  3  4  2  0
  4  5  1  0
  3  6  1  0
  6  7  2  0
  7  8  1  0
  5  9  2  0
  7  9  1  0
  1 10  1  0
  4 10  1  0
M  END
$$$$
Pocket2Mol_55_num_sample_100
     RDKit          3D

  5  5  0  0  0  0  0  0  0  0999 V2000
    9.0380    6.8696   -8.5657 O   0  0  0  0  0  0  0  0  0  0  0  0
    9.5960    7.4785   -9.4365 C   0  0  0  0  0  0  0  0  0  0  0  0
    9.8881    6.8213  -10.6001 C   0  0  0  0  0  0  0  0  0  0  0  0
    9.0543    5.6612   -8.7119 C   0  0  0  0  0  0  0  0  0  0  0  0
    9.7070    5.5619  -10.0445 C   0  0  0  0  0  0  0  0  0  0  0  0
  1  2  1  0
  2  3  1  0
  1  4  1  0
  3  5  1  0
  4  5  1  0
M  END
$$$$
Pocket2Mol_56_num_sample_100
     RDKit          3D

 10 11  0  0  0  0  0  0  0  0999 V2000
    9.1846    6.6802   -8.4911 C   0  0  0  0  0  0  0  0  0  0  0  0
    9.4594    7.4203   -9.5710 O   0  0  0  0  0  0  0  0  0  0  0  0
    9.2734    6.8144  -10.7282 C   0  0  0  0  0  0  0  0  0  0  0  0
    8.7495    5.5380  -10.6247 C   0  0  0  0  0  0  0  0  0  0  0  0
    8.3845    4.5563  -11.5282 C   0  0  0  0  0  0  0  0  0  0  0  0
    9.8657    7.0063  -11.9792 C   0  0  0  0  0  0  0  0  0  0  0  0
    9.6259    6.1641  -12.9761 C   0  0  0  0  0  0  0  0  0  0  0  0
    8.1969    5.1926   -9.2236 N   0  0  0  0  0  0  0  0  0  0  0  0
    8.9498    5.6384   -8.4196 C   0  0  0  0  0  0  0  0  0  0  0  0
    8.9248    4.9680  -12.7936 C   0  0  0  0  0  0  0  0  0  0  0  0
  1  2  1  0
  2  3  1  0
  3  4  2  0
  4  5  1  0
  3  6  1  0
  6  7  2  0
  4  8  1  0
  1  9  1  0
  8  9  1  0
  5 10  2  0
  7 10  1  0
M  END
$$$$
Pocket2Mol_57_num_sample_100
     RDKit          3D

 10 11  0  0  0  0  0  0  0  0999 V2000
    9.1846    6.6802   -8.4911 C   0  0  0  0  0  0  0  0  0  0  0  0
    9.4594    7.4203   -9.5710 O   0  0  0  0  0  0  0  0  0  0  0  0
    9.2734    6.8144  -10.7282 C   0  0  0  0  0  0  0  0  0  0  0  0
    8.7495    5.5380  -10.6247 C   0  0  0  0  0  0  0  0  0  0  0  0
    8.3845    4.5563  -11.5282 C   0  0  0  0  0  0  0  0  0  0  0  0
    9.6469    7.1224  -12.0247 C   0  0  0  0  0  0  0  0  0  0  0  0
    9.3977    6.2784  -13.0105 C   0  0  0  0  0  0  0  0  0  0  0  0
    8.2951    5.1113   -9.0989 C   0  0  0  0  0  0  0  0  0  0  0  0
    8.7837    5.0384  -12.8159 C   0  0  0  0  0  0  0  0  0  0  0  0
    9.3130    5.5068   -8.4811 O   0  0  0  0  0  0  0  0  0  0  0  0
  1  2  1  0
  2  3  1  0
  3  4  2  0
  4  5  1  0
  3  6  1  0
  6  7  2  0
  4  8  1  0
  5  9  2  0
  7  9  1  0
  1 10  1  0
  8 10  1  0
M  END
$$$$
Pocket2Mol_58_num_sample_100
     RDKit          3D

 10 11  0  0  0  0  0  0  0  0999 V2000
    9.1846    6.6802   -8.4911 C   0  0  0  0  0  0  0  0  0  0  0  0
    9.4594    7.4203   -9.5710 O   0  0  0  0  0  0  0  0  0  0  0  0
    9.2734    6.8144  -10.7282 C   0  0  0  0  0  0  0  0  0  0  0  0
    8.7495    5.5380  -10.6247 C   0  0  0  0  0  0  0  0  0  0  0  0
    8.3845    4.5563  -11.5282 C   0  0  0  0  0  0  0  0  0  0  0  0
    9.6469    7.1224  -12.0247 C   0  0  0  0  0  0  0  0  0  0  0  0
    9.3977    6.2784  -13.0105 C   0  0  0  0  0  0  0  0  0  0  0  0
    8.2951    5.1113   -9.0989 C   0  0  0  0  0  0  0  0  0  0  0  0
    8.7837    5.0384  -12.8159 C   0  0  0  0  0  0  0  0  0  0  0  0
    8.7490    5.7600   -8.3249 C   0  0  0  0  0  0  0  0  0  0  0  0
  1  2  1  0
  2  3  1  0
  3  4  2  0
  4  5  1  0
  3  6  1  0
  6  7  2  0
  4  8  1  0
  5  9  2  0
  7  9  1  0
  1 10  1  0
  8 10  2  0
M  END
$$$$
Pocket2Mol_59_num_sample_100
     RDKit          3D

 10 11  0  0  0  0  0  0  0  0999 V2000
    9.1846    6.6802   -8.4911 C   0  0  0  0  0  0  0  0  0  0  0  0
    9.4594    7.4203   -9.5710 O   0  0  0  0  0  0  0  0  0  0  0  0
    9.2734    6.8144  -10.7282 C   0  0  0  0  0  0  0  0  0  0  0  0
    8.7495    5.5380  -10.6247 C   0  0  0  0  0  0  0  0  0  0  0  0
    8.3845    4.5563  -11.5282 C   0  0  0  0  0  0  0  0  0  0  0  0
    8.8698    4.8692  -12.8331 N   0  0  0  0  0  0  0  0  0  0  0  0
    8.8926    5.3305   -8.9189 C   0  0  0  0  0  0  0  0  0  0  0  0
    8.4267    4.0795  -13.8391 O   0  0  0  0  0  0  0  0  0  0  0  0
    9.1354    6.1657  -13.1055 C   0  0  0  0  0  0  0  0  0  0  0  0
    9.4876    7.1019  -12.0393 C   0  0  0  0  0  0  0  0  0  0  0  0
  1  2  1  0
  2  3  1  0
  3  4  2  0
  4  5  1  0
  5  6  2  0
  1  7  1  0
  4  7  1  0
  6  8  1  0
  6  9  1  0
  3 10  1  0
  9 10  2  0
M  CHG  2   6   1   8  -1
M  END
$$$$
Pocket2Mol_60_num_sample_100
     RDKit          3D

 11 12  0  0  0  0  0  0  0  0999 V2000
    9.1846    6.6802   -8.4911 C   0  0  0  0  0  0  0  0  0  0  0  0
    9.4594    7.4203   -9.5710 O   0  0  0  0  0  0  0  0  0  0  0  0
   10.0701    6.9349  -10.4785 C   0  0  0  0  0  0  0  0  0  0  0  0
    8.4260    5.5139   -8.8199 C   0  0  0  0  0  0  0  0  0  0  0  0
    8.3737    5.4361  -10.2958 O   0  0  0  0  0  0  0  0  0  0  0  0
    9.4338    5.7143  -10.9192 C   0  0  0  0  0  0  0  0  0  0  0  0
   11.2343    7.3047  -11.0876 C   0  0  0  0  0  0  0  0  0  0  0  0
   11.5786    6.6870  -12.2634 C   0  0  0  0  0  0  0  0  0  0  0  0
    9.6749    5.1786  -12.1132 C   0  0  0  0  0  0  0  0  0  0  0  0
   12.7229    7.1725  -12.9689 O   0  0  0  0  0  0  0  0  0  0  0  0
   10.8373    5.6817  -12.7906 C   0  0  0  0  0  0  0  0  0  0  0  0
  1  2  1  0
  2  3  1  0
  1  4  1  0
  4  5  1  0
  3  6  2  0
  5  6  1  0
  3  7  1  0
  7  8  2  0
  6  9  1  0
  8 10  1  0
  8 11  1  0
  9 11  2  0
M  END
$$$$
Pocket2Mol_61_num_sample_100
     RDKit          3D

 11 12  0  0  0  0  0  0  0  0999 V2000
    9.1846    6.6802   -8.4911 C   0  0  0  0  0  0  0  0  0  0  0  0
    9.4594    7.4203   -9.5710 O   0  0  0  0  0  0  0  0  0  0  0  0
    9.2734    6.8144  -10.7282 C   0  0  0  0  0  0  0  0  0  0  0  0
    8.7495    5.5380  -10.6247 C   0  0  0  0  0  0  0  0  0  0  0  0
    8.3845    4.5563  -11.5282 C   0  0  0  0  0  0  0  0  0  0  0  0
    8.8698    4.8692  -12.8331 C   0  0  0  0  0  0  0  0  0  0  0  0
    8.9264    5.3722   -9.0057 C   0  0  0  0  0  0  0  0  0  0  0  0
    8.4848    4.0301  -13.9004 N   0  0  0  0  0  0  0  0  0  0  0  0
    9.1516    6.3302  -13.0546 C   0  0  0  0  0  0  0  0  0  0  0  0
    9.4763    7.0360  -12.0152 C   0  0  0  0  0  0  0  0  0  0  0  0
    8.5122    4.4567  -15.1013 O   0  0  0  0  0  0  0  0  0  0  0  0
  1  2  1  0
  2  3  1  0
  3  4  2  0
  4  5  1  0
  5  6  2  0
  1  7  2  0
  4  7  1  0
  6  8  1  0
  6  9  1  0
  3 10  1  0
  9 10  2  0
  8 11  1  0
M  END
$$$$
Pocket2Mol_62_num_sample_100
     RDKit          3D

 11 12  0  0  0  0  0  0  0  0999 V2000
    9.1846    6.6802   -8.4911 C   0  0  0  0  0  0  0  0  0  0  0  0
    9.4594    7.4203   -9.5710 O   0  0  0  0  0  0  0  0  0  0  0  0
    9.2734    6.8144  -10.7282 C   0  0  0  0  0  0  0  0  0  0  0  0
    8.7495    5.5380  -10.6247 C   0  0  0  0  0  0  0  0  0  0  0  0
    8.3845    4.5563  -11.5282 C   0  0  0  0  0  0  0  0  0  0  0  0
    8.8698    4.8692  -12.8331 C   0  0  0  0  0  0  0  0  0  0  0  0
    8.6293    3.9660  -13.8725 O   0  0  0  0  0  0  0  0  0  0  0  0
    9.0192    5.4005   -8.9605 C   0  0  0  0  0  0  0  0  0  0  0  0
    9.4992    7.1669  -12.0396 C   0  0  0  0  0  0  0  0  0  0  0  0
    9.2788    6.1928  -13.0441 C   0  0  0  0  0  0  0  0  0  0  0  0
    8.0717    4.4649  -15.0464 C   0  0  0  0  0  0  0  0  0  0  0  0
  1  2  1  0
  2  3  1  0
  3  4  2  0
  4  5  1  0
  5  6  2  0
  6  7  1  0
  1  8  1  0
  4  8  1  0
  3  9  1  0
  6 10  1  0
  9 10  2  0
  7 11  1  0
M  END
$$$$
Pocket2Mol_63_num_sample_100
     RDKit          3D

 11 12  0  0  0  0  0  0  0  0999 V2000
    9.1846    6.6802   -8.4911 C   0  0  0  0  0  0  0  0  0  0  0  0
    9.4594    7.4203   -9.5710 O   0  0  0  0  0  0  0  0  0  0  0  0
    9.2734    6.8144  -10.7282 C   0  0  0  0  0  0  0  0  0  0  0  0
    8.7495    5.5380  -10.6247 C   0  0  0  0  0  0  0  0  0  0  0  0
    8.3845    4.5563  -11.5282 C   0  0  0  0  0  0  0  0  0  0  0  0
    8.8698    4.8692  -12.8331 C   0  0  0  0  0  0  0  0  0  0  0  0
    8.6293    3.9660  -13.8725 O   0  0  0  0  0  0  0  0  0  0  0  0
    9.7125    7.0761  -11.9866 C   0  0  0  0  0  0  0  0  0  0  0  0
    8.6069    5.4449   -8.9731 C   0  0  0  0  0  0  0  0  0  0  0  0
    9.4763    6.1383  -13.0531 C   0  0  0  0  0  0  0  0  0  0  0  0
    8.0303    4.4845  -15.0253 C   0  0  0  0  0  0  0  0  0  0  0  0
  1  2  1  0
  2  3  1  0
  3  4  2  0
  4  5  1  0
  5  6  2  0
  6  7  1  0
  3  8  1  0
  1  9  2  0
  4  9  1  0
  6 10  1  0
  8 10  2  0
  7 11  1  0
M  END
$$$$
Pocket2Mol_64_num_sample_100
     RDKit          3D

 11 12  0  0  0  0  0  0  0  0999 V2000
    9.1846    6.6802   -8.4911 C   0  0  0  0  0  0  0  0  0  0  0  0
    9.4594    7.4203   -9.5710 O   0  0  0  0  0  0  0  0  0  0  0  0
    9.2734    6.8144  -10.7282 C   0  0  0  0  0  0  0  0  0  0  0  0
    8.7495    5.5380  -10.6247 C   0  0  0  0  0  0  0  0  0  0  0  0
    8.3845    4.5563  -11.5282 C   0  0  0  0  0  0  0  0  0  0  0  0
    9.6469    7.1224  -12.0247 C   0  0  0  0  0  0  0  0  0  0  0  0
    9.5092    6.1978  -12.9190 C   0  0  0  0  0  0  0  0  0  0  0  0
    8.3208    5.1010   -9.2017 O   0  0  0  0  0  0  0  0  0  0  0  0
    9.0282    5.7109   -8.3083 C   0  0  0  0  0  0  0  0  0  0  0  0
    7.7976    3.3988  -11.4073 F   0  0  0  0  0  0  0  0  0  0  0  0
    8.8143    5.0090  -12.6923 C   0  0  0  0  0  0  0  0  0  0  0  0
  1  2  1  0
  2  3  1  0
  3  4  2  0
  4  5  1  0
  3  6  1  0
  6  7  2  0
  4  8  1  0
  1  9  2  0
  8  9  1  0
  5 10  1  0
  5 11  2  0
  7 11  1  0
M  END
$$$$
Pocket2Mol_65_num_sample_100
     RDKit          3D

 11 12  0  0  0  0  0  0  0  0999 V2000
    9.1846    6.6802   -8.4911 C   0  0  0  0  0  0  0  0  0  0  0  0
    9.4594    7.4203   -9.5710 O   0  0  0  0  0  0  0  0  0  0  0  0
   10.0701    6.9349  -10.4785 C   0  0  0  0  0  0  0  0  0  0  0  0
   11.2447    7.5102  -10.7232 C   0  0  0  0  0  0  0  0  0  0  0  0
    8.7371    5.4171   -8.7480 C   0  0  0  0  0  0  0  0  0  0  0  0
    9.9239    5.6567  -10.8424 C   0  0  0  0  0  0  0  0  0  0  0  0
    9.0040    4.8503  -10.1148 O   0  0  0  0  0  0  0  0  0  0  0  0
   10.4440    5.0118  -11.8338 C   0  0  0  0  0  0  0  0  0  0  0  0
   11.5068    5.7841  -12.4568 C   0  0  0  0  0  0  0  0  0  0  0  0
   12.0939    5.2931  -13.6132 F   0  0  0  0  0  0  0  0  0  0  0  0
   11.8828    7.0321  -11.9803 C   0  0  0  0  0  0  0  0  0  0  0  0
  1  2  1  0
  2  3  1  0
  3  4  1  0
  1  5  1  0
  3  6  2  0
  5  7  1  0
  6  7  1  0
  6  8  1  0
  8  9  2  0
  9 10  1  0
  4 11  2  0
  9 11  1  0
M  END
$$$$
Pocket2Mol_66_num_sample_100
     RDKit          3D

  5  5  0  0  0  0  0  0  0  0999 V2000
    9.0380    6.8696   -8.5657 N   0  0  0  0  0  0  0  0  0  0  0  0
    9.6157    7.5091   -9.4648 C   0  0  0  0  0  0  0  0  0  0  0  0
    9.9874    6.9414  -10.5737 C   0  0  0  0  0  0  0  0  0  0  0  0
    9.2935    5.6377  -10.5027 C   0  0  0  0  0  0  0  0  0  0  0  0
    8.8553    5.6055   -8.9878 C   0  0  0  0  0  0  0  0  0  0  0  0
  1  2  2  0
  2  3  2  0
  3  4  1  0
  1  5  1  0
  4  5  2  0
M  END
$$$$
Pocket2Mol_67_num_sample_100
     RDKit          3D

 11 12  0  0  0  0  0  0  0  0999 V2000
    9.1846    6.6802   -8.4911 C   0  0  0  0  0  0  0  0  0  0  0  0
    9.4594    7.4203   -9.5710 O   0  0  0  0  0  0  0  0  0  0  0  0
   10.0701    6.9349  -10.4785 C   0  0  0  0  0  0  0  0  0  0  0  0
    8.4260    5.5139   -8.8199 C   0  0  0  0  0  0  0  0  0  0  0  0
    8.3737    5.4361  -10.2958 O   0  0  0  0  0  0  0  0  0  0  0  0
    9.4338    5.7143  -10.9192 C   0  0  0  0  0  0  0  0  0  0  0  0
    9.6812    5.1164  -12.1265 C   0  0  0  0  0  0  0  0  0  0  0  0
   11.2129    7.3758  -11.0323 C   0  0  0  0  0  0  0  0  0  0  0  0
   11.5597    6.7614  -12.3124 C   0  0  0  0  0  0  0  0  0  0  0  0
   12.6794    7.1997  -13.0223 C   0  0  0  0  0  0  0  0  0  0  0  0
   10.7899    5.6693  -12.8146 C   0  0  0  0  0  0  0  0  0  0  0  0
  1  2  1  0
  2  3  1  0
  1  4  1  0
  4  5  1  0
  3  6  2  0
  5  6  1  0
  6  7  1  0
  3  8  1  0
  8  9  2  0
  9 10  1  0
  7 11  2  0
  9 11  1  0
M  END
$$$$
Pocket2Mol_68_num_sample_100
     RDKit          3D

 11 12  0  0  0  0  0  0  0  0999 V2000
    9.1846    6.6802   -8.4911 C   0  0  0  0  0  0  0  0  0  0  0  0
    9.4594    7.4203   -9.5710 O   0  0  0  0  0  0  0  0  0  0  0  0
   10.0701    6.9349  -10.4785 C   0  0  0  0  0  0  0  0  0  0  0  0
    8.4260    5.5139   -8.8199 C   0  0  0  0  0  0  0  0  0  0  0  0
    8.3737    5.4361  -10.2958 O   0  0  0  0  0  0  0  0  0  0  0  0
    9.4338    5.7143  -10.9192 C   0  0  0  0  0  0  0  0  0  0  0  0
   11.2343    7.3047  -11.0876 C   0  0  0  0  0  0  0  0  0  0  0  0
   11.5786    6.6870  -12.2634 C   0  0  0  0  0  0  0  0  0  0  0  0
    9.6749    5.1786  -12.1132 C   0  0  0  0  0  0  0  0  0  0  0  0
    8.9339    4.1592  -12.6533 O   0  0  0  0  0  0  0  0  0  0  0  0
   10.8140    5.6808  -12.8096 C   0  0  0  0  0  0  0  0  0  0  0  0
  1  2  1  0
  2  3  1  0
  1  4  1  0
  4  5  1  0
  3  6  2  0
  5  6  1  0
  3  7  1  0
  7  8  2  0
  6  9  1  0
  9 10  1  0
  8 11  1  0
  9 11  2  0
M  END
$$$$
Pocket2Mol_69_num_sample_100
     RDKit          3D

 11 12  0  0  0  0  0  0  0  0999 V2000
    9.1846    6.6802   -8.4911 C   0  0  0  0  0  0  0  0  0  0  0  0
    9.4594    7.4203   -9.5710 O   0  0  0  0  0  0  0  0  0  0  0  0
    9.2734    6.8144  -10.7282 C   0  0  0  0  0  0  0  0  0  0  0  0
    8.7495    5.5380  -10.6247 C   0  0  0  0  0  0  0  0  0  0  0  0
    8.3845    4.5563  -11.5282 C   0  0  0  0  0  0  0  0  0  0  0  0
    9.6469    7.1224  -12.0247 C   0  0  0  0  0  0  0  0  0  0  0  0
    9.3977    6.2784  -13.0105 C   0  0  0  0  0  0  0  0  0  0  0  0
    8.2951    5.1113   -9.0989 C   0  0  0  0  0  0  0  0  0  0  0  0
    9.7699    6.6419  -14.3359 F   0  0  0  0  0  0  0  0  0  0  0  0
    8.8845    5.6193   -8.3903 C   0  0  0  0  0  0  0  0  0  0  0  0
    8.7777    5.0289  -12.9409 C   0  0  0  0  0  0  0  0  0  0  0  0
  1  2  1  0
  2  3  1  0
  3  4  2  0
  4  5  1  0
  3  6  1  0
  6  7  2  0
  4  8  1  0
  7  9  1  0
  1 10  1  0
  8 10  2  0
  5 11  2  0
  7 11  1  0
M  END
$$$$
Pocket2Mol_70_num_sample_100
     RDKit          3D

 11 12  0  0  0  0  0  0  0  0999 V2000
    9.1846    6.6802   -8.4911 C   0  0  0  0  0  0  0  0  0  0  0  0
    9.4594    7.4203   -9.5710 O   0  0  0  0  0  0  0  0  0  0  0  0
    9.2734    6.8144  -10.7282 C   0  0  0  0  0  0  0  0  0  0  0  0
    8.7495    5.5380  -10.6247 C   0  0  0  0  0  0  0  0  0  0  0  0
    8.3845    4.5563  -11.5282 C   0  0  0  0  0  0  0  0  0  0  0  0
    9.6469    7.1224  -12.0247 C   0  0  0  0  0  0  0  0  0  0  0  0
    9.3977    6.2784  -13.0105 C   0  0  0  0  0  0  0  0  0  0  0  0
    8.2951    5.1113   -9.0989 C   0  0  0  0  0  0  0  0  0  0  0  0
    9.7699    6.6419  -14.3359 F   0  0  0  0  0  0  0  0  0  0  0  0
    8.7801    5.0264  -12.8357 C   0  0  0  0  0  0  0  0  0  0  0  0
    9.3849    5.3636   -8.2544 C   0  0  0  0  0  0  0  0  0  0  0  0
  1  2  1  0
  2  3  1  0
  3  4  2  0
  4  5  1  0
  3  6  1  0
  6  7  2  0
  4  8  1  0
  7  9  1  0
  5 10  2  0
  7 10  1  0
  1 11  1  0
  8 11  1  0
M  END
$$$$
Pocket2Mol_71_num_sample_100
     RDKit          3D

 11 12  0  0  0  0  0  0  0  0999 V2000
    9.1846    6.6802   -8.4911 C   0  0  0  0  0  0  0  0  0  0  0  0
    9.4594    7.4203   -9.5710 O   0  0  0  0  0  0  0  0  0  0  0  0
    9.2734    6.8144  -10.7282 C   0  0  0  0  0  0  0  0  0  0  0  0
    8.7495    5.5380  -10.6247 C   0  0  0  0  0  0  0  0  0  0  0  0
    8.3845    4.5563  -11.5282 C   0  0  0  0  0  0  0  0  0  0  0  0
    9.8657    7.0063  -11.9792 C   0  0  0  0  0  0  0  0  0  0  0  0
    9.6259    6.1641  -12.9761 C   0  0  0  0  0  0  0  0  0  0  0  0
    8.1969    5.1926   -9.2236 N   0  0  0  0  0  0  0  0  0  0  0  0
    8.7517    5.7902   -8.2645 C   0  0  0  0  0  0  0  0  0  0  0  0
   10.0866    6.4479  -14.2809 F   0  0  0  0  0  0  0  0  0  0  0  0
    8.9002    4.9540  -12.8282 C   0  0  0  0  0  0  0  0  0  0  0  0
  1  2  1  0
  2  3  1  0
  3  4  2  0
  4  5  1  0
  3  6  1  0
  6  7  2  0
  4  8  1  0
  1  9  1  0
  8  9  2  0
  7 10  1  0
  5 11  2  0
  7 11  1  0
M  END
$$$$
Pocket2Mol_72_num_sample_100
     RDKit          3D

 11 12  0  0  0  0  0  0  0  0999 V2000
    9.1846    6.6802   -8.4911 C   0  0  0  0  0  0  0  0  0  0  0  0
    9.4594    7.4203   -9.5710 O   0  0  0  0  0  0  0  0  0  0  0  0
   10.0701    6.9349  -10.4785 C   0  0  0  0  0  0  0  0  0  0  0  0
   11.2447    7.5102  -10.7232 C   0  0  0  0  0  0  0  0  0  0  0  0
    8.7371    5.4171   -8.7480 C   0  0  0  0  0  0  0  0  0  0  0  0
    9.9239    5.6567  -10.8424 C   0  0  0  0  0  0  0  0  0  0  0  0
    8.8030    5.1097  -10.1296 O   0  0  0  0  0  0  0  0  0  0  0  0
   11.9526    6.9593  -11.8957 C   0  0  0  0  0  0  0  0  0  0  0  0
   10.3647    5.1143  -11.9374 C   0  0  0  0  0  0  0  0  0  0  0  0
    9.8916    4.0177  -12.4946 F   0  0  0  0  0  0  0  0  0  0  0  0
   11.2706    5.8841  -12.4267 C   0  0  0  0  0  0  0  0  0  0  0  0
  1  2  1  0
  2  3  1  0
  3  4  1  0
  1  5  1  0
  3  6  2  0
  5  7  1  0
  6  7  1  0
  4  8  2  0
  6  9  1  0
  9 10  1  0
  8 11  1  0
  9 11  2  0
M  END
$$$$
Pocket2Mol_73_num_sample_100
     RDKit          3D

 11 12  0  0  0  0  0  0  0  0999 V2000
    9.1846    6.6802   -8.4911 C   0  0  0  0  0  0  0  0  0  0  0  0
    9.4594    7.4203   -9.5710 O   0  0  0  0  0  0  0  0  0  0  0  0
    9.2734    6.8144  -10.7282 C   0  0  0  0  0  0  0  0  0  0  0  0
    8.7495    5.5380  -10.6247 C   0  0  0  0  0  0  0  0  0  0  0  0
    8.3845    4.5563  -11.5282 C   0  0  0  0  0  0  0  0  0  0  0  0
    8.6867    5.3820   -9.0806 C   0  0  0  0  0  0  0  0  0  0  0  0
    9.7412    7.1372  -11.9077 C   0  0  0  0  0  0  0  0  0  0  0  0
    8.8074    5.0387  -12.8099 C   0  0  0  0  0  0  0  0  0  0  0  0
    8.4562    4.1635  -13.9186 N   0  0  0  0  0  0  0  0  0  0  0  0
    9.3872    6.2539  -13.0359 C   0  0  0  0  0  0  0  0  0  0  0  0
    8.0286    4.5569  -14.9902 O   0  0  0  0  0  0  0  0  0  0  0  0
  1  2  1  0
  2  3  1  0
  3  4  2  0
  4  5  1  0
  1  6  1  0
  4  6  1  0
  3  7  1  0
  5  8  2  0
  8  9  1  0
  7 10  2  0
  8 10  1  0
  9 11  1  0
M  END
$$$$
Pocket2Mol_74_num_sample_100
     RDKit          3D

 12 13  0  0  0  0  0  0  0  0999 V2000
    9.1846    6.6802   -8.4911 C   0  0  0  0  0  0  0  0  0  0  0  0
    9.4594    7.4203   -9.5710 O   0  0  0  0  0  0  0  0  0  0  0  0
    8.6012    5.4606   -8.8529 C   0  0  0  0  0  0  0  0  0  0  0  0
    7.7846    5.7912  -10.0497 O   0  0  0  0  0  0  0  0  0  0  0  0
   10.3461    7.0448  -10.5214 C   0  0  0  0  0  0  0  0  0  0  0  0
    8.3583    5.3750  -11.2743 C   0  0  0  0  0  0  0  0  0  0  0  0
    7.7775    4.5963  -12.0216 C   0  0  0  0  0  0  0  0  0  0  0  0
   11.3578    7.6468  -10.9385 O   0  0  0  0  0  0  0  0  0  0  0  0
    9.6729    5.9817  -11.5025 C   0  0  0  0  0  0  0  0  0  0  0  0
   10.1165    5.8315  -12.7306 C   0  0  0  0  0  0  0  0  0  0  0  0
    9.5784    5.0090  -13.5976 C   0  0  0  0  0  0  0  0  0  0  0  0
    8.3928    4.3844  -13.2835 C   0  0  0  0  0  0  0  0  0  0  0  0
  1  2  1  0
  1  3  1  0
  3  4  1  0
  2  5  1  0
  4  6  1  0
  6  7  1  0
  5  8  2  0
  5  9  1  0
  6  9  2  0
  9 10  1  0
 10 11  2  0
  7 12  2  0
 11 12  1  0
M  END
$$$$
Pocket2Mol_75_num_sample_100
     RDKit          3D

 12 13  0  0  0  0  0  0  0  0999 V2000
    9.1846    6.6802   -8.4911 C   0  0  0  0  0  0  0  0  0  0  0  0
    9.4594    7.4203   -9.5710 O   0  0  0  0  0  0  0  0  0  0  0  0
    9.2734    6.8144  -10.7282 C   0  0  0  0  0  0  0  0  0  0  0  0
    8.7495    5.5380  -10.6247 C   0  0  0  0  0  0  0  0  0  0  0  0
    8.3845    4.5563  -11.5282 C   0  0  0  0  0  0  0  0  0  0  0  0
    8.8698    4.8692  -12.8331 C   0  0  0  0  0  0  0  0  0  0  0  0
    8.6976    5.4096   -8.9392 C   0  0  0  0  0  0  0  0  0  0  0  0
    8.5293    4.0191  -13.8992 N   0  0  0  0  0  0  0  0  0  0  0  0
    9.4894    6.2055  -13.0127 C   0  0  0  0  0  0  0  0  0  0  0  0
    7.8674    3.0787  -13.7309 O   0  0  0  0  0  0  0  0  0  0  0  0
    9.6681    7.1008  -12.0129 C   0  0  0  0  0  0  0  0  0  0  0  0
    9.0734    4.1392  -15.0132 O   0  0  0  0  0  0  0  0  0  0  0  0
  1  2  1  0
  2  3  1  0
  3  4  2  0
  4  5  1  0
  5  6  2  0
  1  7  2  0
  4  7  1  0
  6  8  1  0
  6  9  1  0
  8 10  2  0
  3 11  1  0
  9 11  2  0
  8 12  1  0
M  CHG  2   8   1  12  -1
M  END
$$$$
Pocket2Mol_76_num_sample_100
     RDKit          3D

 12 13  0  0  0  0  0  0  0  0999 V2000
    9.1846    6.6802   -8.4911 C   0  0  0  0  0  0  0  0  0  0  0  0
    9.4594    7.4203   -9.5710 O   0  0  0  0  0  0  0  0  0  0  0  0
   10.0701    6.9349  -10.4785 C   0  0  0  0  0  0  0  0  0  0  0  0
    8.4260    5.5139   -8.8199 C   0  0  0  0  0  0  0  0  0  0  0  0
    8.3737    5.4361  -10.2958 O   0  0  0  0  0  0  0  0  0  0  0  0
    9.4338    5.7143  -10.9192 C   0  0  0  0  0  0  0  0  0  0  0  0
   11.2343    7.3047  -11.0876 C   0  0  0  0  0  0  0  0  0  0  0  0
   11.5786    6.6870  -12.2634 C   0  0  0  0  0  0  0  0  0  0  0  0
    9.6749    5.1786  -12.1132 C   0  0  0  0  0  0  0  0  0  0  0  0
    8.9339    4.1592  -12.6533 O   0  0  0  0  0  0  0  0  0  0  0  0
   12.7025    7.1575  -12.9775 O   0  0  0  0  0  0  0  0  0  0  0  0
   10.8107    5.8086  -12.7233 C   0  0  0  0  0  0  0  0  0  0  0  0
  1  2  1  0
  2  3  1  0
  1  4  1  0
  4  5  1  0
  3  6  2  0
  5  6  1  0
  3  7  1  0
  7  8  2  0
  6  9  1  0
  9 10  1  0
  8 11  1  0
  8 12  1  0
  9 12  2  0
M  END
$$$$
Pocket2Mol_77_num_sample_100
     RDKit          3D

  5  5  0  0  0  0  0  0  0  0999 V2000
    9.1846    6.6802   -8.4911 C   0  0  0  0  0  0  0  0  0  0  0  0
    9.4594    7.4203   -9.5710 O   0  0  0  0  0  0  0  0  0  0  0  0
    8.6012    5.4606   -8.8529 C   0  0  0  0  0  0  0  0  0  0  0  0
    8.5641    5.3350  -10.3409 C   0  0  0  0  0  0  0  0  0  0  0  0
    8.8948    6.7382  -10.6911 C   0  0  0  0  0  0  0  0  0  0  0  0
  1  2  1  0
  1  3  2  0
  3  4  1  0
  2  5  1  0
  4  5  1  0
M  END
$$$$
Pocket2Mol_78_num_sample_100
     RDKit          3D

 12 13  0  0  0  0  0  0  0  0999 V2000
    9.1846    6.6802   -8.4911 C   0  0  0  0  0  0  0  0  0  0  0  0
    9.4594    7.4203   -9.5710 O   0  0  0  0  0  0  0  0  0  0  0  0
   10.0701    6.9349  -10.4785 C   0  0  0  0  0  0  0  0  0  0  0  0
    8.4260    5.5139   -8.8199 C   0  0  0  0  0  0  0  0  0  0  0  0
    8.3737    5.4361  -10.2958 O   0  0  0  0  0  0  0  0  0  0  0  0
    9.4338    5.7143  -10.9192 C   0  0  0  0  0  0  0  0  0  0  0  0
    9.8900    5.0342  -12.0353 C   0  0  0  0  0  0  0  0  0  0  0  0
    9.1962    3.8789  -12.4607 O   0  0  0  0  0  0  0  0  0  0  0  0
   11.1975    7.4450  -11.0520 C   0  0  0  0  0  0  0  0  0  0  0  0
   11.6325    6.7500  -12.2513 C   0  0  0  0  0  0  0  0  0  0  0  0
   10.9501    5.6465  -12.7818 C   0  0  0  0  0  0  0  0  0  0  0  0
    7.9589    4.1124  -12.9560 C   0  0  0  0  0  0  0  0  0  0  0  0
  1  2  1  0
  2  3  1  0
  1  4  1  0
  4  5  1  0
  3  6  2  0
  5  6  1  0
  6  7  1  0
  7  8  1  0
  3  9  1  0
  9 10  2  0
  7 11  2  0
 10 11  1  0
  8 12  1  0
M  END
$$$$
Pocket2Mol_79_num_sample_100
     RDKit          3D

 12 13  0  0  0  0  0  0  0  0999 V2000
    9.1846    6.6802   -8.4911 C   0  0  0  0  0  0  0  0  0  0  0  0
    9.4594    7.4203   -9.5710 O   0  0  0  0  0  0  0  0  0  0  0  0
    8.6012    5.4606   -8.8529 C   0  0  0  0  0  0  0  0  0  0  0  0
    7.7846    5.7912  -10.0497 O   0  0  0  0  0  0  0  0  0  0  0  0
   10.3461    7.0448  -10.5214 C   0  0  0  0  0  0  0  0  0  0  0  0
    8.3583    5.3750  -11.2743 C   0  0  0  0  0  0  0  0  0  0  0  0
    7.7775    4.5963  -12.0216 C   0  0  0  0  0  0  0  0  0  0  0  0
    9.5308    6.1338  -11.6323 C   0  0  0  0  0  0  0  0  0  0  0  0
    6.5598    3.9081  -11.6642 C   0  0  0  0  0  0  0  0  0  0  0  0
    8.4681    4.1883  -13.2548 C   0  0  0  0  0  0  0  0  0  0  0  0
    9.5462    4.8720  -13.6084 C   0  0  0  0  0  0  0  0  0  0  0  0
   10.1333    5.7872  -12.7917 C   0  0  0  0  0  0  0  0  0  0  0  0
  1  2  1  0
  1  3  1  0
  3  4  1  0
  2  5  1  0
  4  6  1  0
  6  7  1  0
  5  8  1  0
  6  8  2  0
  7  9  1  0
  7 10  2  0
 10 11  1  0
  8 12  1  0
 11 12  2  0
M  END
$$$$
Pocket2Mol_80_num_sample_100
     RDKit          3D

 12 13  0  0  0  0  0  0  0  0999 V2000
    9.1846    6.6802   -8.4911 C   0  0  0  0  0  0  0  0  0  0  0  0
    9.4594    7.4203   -9.5710 O   0  0  0  0  0  0  0  0  0  0  0  0
    9.2734    6.8144  -10.7282 C   0  0  0  0  0  0  0  0  0  0  0  0
    8.7495    5.5380  -10.6247 C   0  0  0  0  0  0  0  0  0  0  0  0
    8.3845    4.5563  -11.5282 C   0  0  0  0  0  0  0  0  0  0  0  0
    8.6034    5.4140   -9.0605 C   0  0  0  0  0  0  0  0  0  0  0  0
    8.7843    4.9571  -12.8111 C   0  0  0  0  0  0  0  0  0  0  0  0
    8.4161    4.0616  -13.9070 N   0  0  0  0  0  0  0  0  0  0  0  0
    7.9658    4.5799  -14.8832 O   0  0  0  0  0  0  0  0  0  0  0  0
    8.5090    2.8380  -13.7080 O   0  0  0  0  0  0  0  0  0  0  0  0
    9.2627    6.2382  -13.0729 C   0  0  0  0  0  0  0  0  0  0  0  0
    9.5966    7.2216  -11.9923 C   0  0  0  0  0  0  0  0  0  0  0  0
  1  2  1  0
  2  3  1  0
  3  4  2  0
  4  5  1  0
  1  6  1  0
  4  6  1  0
  5  7  2  0
  7  8  1  0
  8  9  2  0
  8 10  1  0
  7 11  1  0
  3 12  1  0
 11 12  2  0
M  CHG  2   8   1  10  -1
M  END
$$$$
Pocket2Mol_81_num_sample_100
     RDKit          3D

 12 13  0  0  0  0  0  0  0  0999 V2000
    9.1846    6.6802   -8.4911 C   0  0  0  0  0  0  0  0  0  0  0  0
    9.4594    7.4203   -9.5710 O   0  0  0  0  0  0  0  0  0  0  0  0
   10.0701    6.9349  -10.4785 C   0  0  0  0  0  0  0  0  0  0  0  0
    8.4260    5.5139   -8.8199 C   0  0  0  0  0  0  0  0  0  0  0  0
    8.3737    5.4361  -10.2958 O   0  0  0  0  0  0  0  0  0  0  0  0
    9.4338    5.7143  -10.9192 C   0  0  0  0  0  0  0  0  0  0  0  0
    9.6959    5.2335  -12.2344 C   0  0  0  0  0  0  0  0  0  0  0  0
    9.0096    4.1215  -12.6888 O   0  0  0  0  0  0  0  0  0  0  0  0
   10.9762    7.6525  -11.3215 C   0  0  0  0  0  0  0  0  0  0  0  0
   10.5856    5.8022  -12.9357 C   0  0  0  0  0  0  0  0  0  0  0  0
   10.8995    5.2833  -14.2239 O   0  0  0  0  0  0  0  0  0  0  0  0
   11.3715    6.9324  -12.4765 C   0  0  0  0  0  0  0  0  0  0  0  0
  1  2  1  0
  2  3  1  0
  1  4  1  0
  4  5  1  0
  3  6  2  0
  5  6  1  0
  6  7  1  0
  7  8  1  0
  3  9  1  0
  7 10  2  0
 10 11  1  0
  9 12  2  0
 10 12  1  0
M  END
$$$$
Pocket2Mol_82_num_sample_100
     RDKit          3D

 12 13  0  0  0  0  0  0  0  0999 V2000
    9.1846    6.6802   -8.4911 C   0  0  0  0  0  0  0  0  0  0  0  0
    9.4594    7.4203   -9.5710 O   0  0  0  0  0  0  0  0  0  0  0  0
    9.2734    6.8144  -10.7282 C   0  0  0  0  0  0  0  0  0  0  0  0
    8.7495    5.5380  -10.6247 C   0  0  0  0  0  0  0  0  0  0  0  0
    8.3845    4.5563  -11.5282 C   0  0  0  0  0  0  0  0  0  0  0  0
    8.6867    5.3820   -9.0806 C   0  0  0  0  0  0  0  0  0  0  0  0
    8.7489    4.9745  -12.8185 C   0  0  0  0  0  0  0  0  0  0  0  0
    8.3780    4.0791  -13.9154 O   0  0  0  0  0  0  0  0  0  0  0  0
    9.3440    6.0681  -13.1621 C   0  0  0  0  0  0  0  0  0  0  0  0
    9.5904    6.3513  -14.4623 O   0  0  0  0  0  0  0  0  0  0  0  0
    9.6378    7.0528  -12.1053 C   0  0  0  0  0  0  0  0  0  0  0  0
    7.2672    4.4721  -14.5739 C   0  0  0  0  0  0  0  0  0  0  0  0
  1  2  1  0
  2  3  1  0
  3  4  2  0
  4  5  1  0
  1  6  1  0
  4  6  1  0
  5  7  2  0
  7  8  1  0
  7  9  1  0
  9 10  1  0
  3 11  1  0
  9 11  2  0
  8 12  1  0
M  END
$$$$
Pocket2Mol_83_num_sample_100
     RDKit          3D

 12 13  0  0  0  0  0  0  0  0999 V2000
    9.1846    6.6802   -8.4911 C   0  0  0  0  0  0  0  0  0  0  0  0
    9.4594    7.4203   -9.5710 O   0  0  0  0  0  0  0  0  0  0  0  0
    9.2734    6.8144  -10.7282 C   0  0  0  0  0  0  0  0  0  0  0  0
    8.7495    5.5380  -10.6247 C   0  0  0  0  0  0  0  0  0  0  0  0
    8.3845    4.5563  -11.5282 C   0  0  0  0  0  0  0  0  0  0  0  0
    8.6867    5.3820   -9.0806 C   0  0  0  0  0  0  0  0  0  0  0  0
    9.7412    7.1372  -11.9077 C   0  0  0  0  0  0  0  0  0  0  0  0
    8.8074    5.0387  -12.8099 C   0  0  0  0  0  0  0  0  0  0  0  0
    8.4562    4.1635  -13.9186 N   0  0  0  0  0  0  0  0  0  0  0  0
    9.3840    6.2664  -13.0167 C   0  0  0  0  0  0  0  0  0  0  0  0
    8.5756    4.4675  -15.1495 O   0  0  0  0  0  0  0  0  0  0  0  0
    8.0448    2.8535  -13.6952 O   0  0  0  0  0  0  0  0  0  0  0  0
  1  2  1  0
  2  3  1  0
  3  4  2  0
  4  5  1  0
  1  6  1  0
  4  6  1  0
  3  7  1  0
  5  8  2  0
  8  9  1  0
  7 10  2  0
  8 10  1  0
  9 11  1  0
  9 12  1  0
M  END
$$$$
Pocket2Mol_84_num_sample_100
     RDKit          3D

 12 13  0  0  0  0  0  0  0  0999 V2000
    9.1846    6.6802   -8.4911 C   0  0  0  0  0  0  0  0  0  0  0  0
    9.4594    7.4203   -9.5710 O   0  0  0  0  0  0  0  0  0  0  0  0
    9.2734    6.8144  -10.7282 C   0  0  0  0  0  0  0  0  0  0  0  0
    8.7495    5.5380  -10.6247 C   0  0  0  0  0  0  0  0  0  0  0  0
    8.3845    4.5563  -11.5282 C   0  0  0  0  0  0  0  0  0  0  0  0
    8.6034    5.4140   -9.0605 C   0  0  0  0  0  0  0  0  0  0  0  0
    8.7843    4.9571  -12.8111 C   0  0  0  0  0  0  0  0  0  0  0  0
    8.4161    4.0616  -13.9070 N   0  0  0  0  0  0  0  0  0  0  0  0
    9.6280    7.2544  -11.8363 C   0  0  0  0  0  0  0  0  0  0  0  0
    9.2923    6.2868  -13.0337 C   0  0  0  0  0  0  0  0  0  0  0  0
    8.5991    4.4506  -15.1319 O   0  0  0  0  0  0  0  0  0  0  0  0
    7.7376    2.9401  -13.5522 C   0  0  0  0  0  0  0  0  0  0  0  0
  1  2  1  0
  2  3  1  0
  3  4  2  0
  4  5  1  0
  1  6  1  0
  4  6  1  0
  5  7  2  0
  7  8  1  0
  3  9  1  0
  7 10  1  0
  9 10  2  0
  8 11  1  0
  8 12  1  0
M  END
$$$$
Pocket2Mol_85_num_sample_100
     RDKit          3D

 12 13  0  0  0  0  0  0  0  0999 V2000
    9.1846    6.6802   -8.4911 C   0  0  0  0  0  0  0  0  0  0  0  0
    9.4594    7.4203   -9.5710 O   0  0  0  0  0  0  0  0  0  0  0  0
    8.6012    5.4606   -8.8529 C   0  0  0  0  0  0  0  0  0  0  0  0
    7.7846    5.7912  -10.0497 O   0  0  0  0  0  0  0  0  0  0  0  0
   10.3461    7.0448  -10.5214 C   0  0  0  0  0  0  0  0  0  0  0  0
    8.3583    5.3750  -11.2743 C   0  0  0  0  0  0  0  0  0  0  0  0
    7.7775    4.5963  -12.0216 C   0  0  0  0  0  0  0  0  0  0  0  0
    9.5308    6.1338  -11.6323 C   0  0  0  0  0  0  0  0  0  0  0  0
    6.5598    3.9081  -11.6642 C   0  0  0  0  0  0  0  0  0  0  0  0
    8.4855    4.2563  -13.2408 N   0  0  0  0  0  0  0  0  0  0  0  0
    9.5454    4.9087  -13.5394 N   0  0  0  0  0  0  0  0  0  0  0  0
   10.1121    5.8002  -12.7784 C   0  0  0  0  0  0  0  0  0  0  0  0
  1  2  1  0
  1  3  1  0
  3  4  1  0
  2  5  1  0
  4  6  1  0
  6  7  1  0
  5  8  1  0
  6  8  2  0
  7  9  1  0
  7 10  2  0
 10 11  1  0
  8 12  1  0
 11 12  2  0
M  END
$$$$
Pocket2Mol_86_num_sample_100
     RDKit          3D

 12 13  0  0  0  0  0  0  0  0999 V2000
    9.1846    6.6802   -8.4911 C   0  0  0  0  0  0  0  0  0  0  0  0
    9.4594    7.4203   -9.5710 O   0  0  0  0  0  0  0  0  0  0  0  0
    9.2734    6.8144  -10.7282 C   0  0  0  0  0  0  0  0  0  0  0  0
    8.7495    5.5380  -10.6247 C   0  0  0  0  0  0  0  0  0  0  0  0
    8.3845    4.5563  -11.5282 C   0  0  0  0  0  0  0  0  0  0  0  0
    8.6867    5.3820   -9.0806 C   0  0  0  0  0  0  0  0  0  0  0  0
    9.7412    7.1372  -11.9077 C   0  0  0  0  0  0  0  0  0  0  0  0
    8.8074    5.0387  -12.8099 C   0  0  0  0  0  0  0  0  0  0  0  0
    8.4562    4.1635  -13.9186 N   0  0  0  0  0  0  0  0  0  0  0  0
    9.3872    6.2539  -13.0359 C   0  0  0  0  0  0  0  0  0  0  0  0
    8.5692    4.4722  -15.1524 C   0  0  0  0  0  0  0  0  0  0  0  0
    7.6849    2.9897  -13.4660 C   0  0  0  0  0  0  0  0  0  0  0  0
  1  2  1  0
  2  3  1  0
  3  4  2  0
  4  5  1  0
  1  6  1  0
  4  6  1  0
  3  7  1  0
  5  8  2  0
  8  9  1  0
  7 10  2  0
  8 10  1  0
  9 11  1  0
  9 12  1  0
M  END
$$$$
Pocket2Mol_87_num_sample_100
     RDKit          3D

 13 14  0  0  0  0  0  0  0  0999 V2000
    9.1846    6.6802   -8.4911 C   0  0  0  0  0  0  0  0  0  0  0  0
    9.4594    7.4203   -9.5710 O   0  0  0  0  0  0  0  0  0  0  0  0
    8.6012    5.4606   -8.8529 C   0  0  0  0  0  0  0  0  0  0  0  0
    7.7846    5.7912  -10.0497 O   0  0  0  0  0  0  0  0  0  0  0  0
   10.3461    7.0448  -10.5214 C   0  0  0  0  0  0  0  0  0  0  0  0
    8.3583    5.3750  -11.2743 C   0  0  0  0  0  0  0  0  0  0  0  0
    7.7775    4.5963  -12.0216 C   0  0  0  0  0  0  0  0  0  0  0  0
   11.3578    7.6468  -10.9385 O   0  0  0  0  0  0  0  0  0  0  0  0
    9.6729    5.9817  -11.5025 C   0  0  0  0  0  0  0  0  0  0  0  0
   10.1165    5.8315  -12.7306 C   0  0  0  0  0  0  0  0  0  0  0  0
    8.5078    4.3737  -13.3423 C   0  0  0  0  0  0  0  0  0  0  0  0
   11.4079    6.5079  -13.1019 O   0  0  0  0  0  0  0  0  0  0  0  0
    9.5796    5.0114  -13.6484 C   0  0  0  0  0  0  0  0  0  0  0  0
  1  2  1  0
  1  3  1  0
  3  4  1  0
  2  5  1  0
  4  6  1  0
  6  7  1  0
  5  8  2  0
  5  9  1  0
  6  9  2  0
  9 10  1  0
  7 11  2  0
 10 12  1  0
 10 13  2  0
 11 13  1  0
M  END
$$$$
Pocket2Mol_88_num_sample_100
     RDKit          3D

  5  4  0  0  0  0  0  0  0  0999 V2000
    9.1846    6.6802   -8.4911 C   0  0  0  0  0  0  0  0  0  0  0  0
    9.4594    7.4203   -9.5710 O   0  0  0  0  0  0  0  0  0  0  0  0
   10.0701    6.9349  -10.4785 C   0  0  0  0  0  0  0  0  0  0  0  0
   11.2447    7.5102  -10.7232 C   0  0  0  0  0  0  0  0  0  0  0  0
   12.0198    7.2584  -11.8675 O   0  0  0  0  0  0  0  0  0  0  0  0
  1  2  1  0
  2  3  1  0
  3  4  1  0
  4  5  1  0
M  END
$$$$
Pocket2Mol_89_num_sample_100
     RDKit          3D

 13 14  0  0  0  0  0  0  0  0999 V2000
    9.1846    6.6802   -8.4911 C   0  0  0  0  0  0  0  0  0  0  0  0
    9.4594    7.4203   -9.5710 O   0  0  0  0  0  0  0  0  0  0  0  0
    8.6012    5.4606   -8.8529 C   0  0  0  0  0  0  0  0  0  0  0  0
    7.7846    5.7912  -10.0497 O   0  0  0  0  0  0  0  0  0  0  0  0
   10.3461    7.0448  -10.5214 C   0  0  0  0  0  0  0  0  0  0  0  0
    8.3583    5.3750  -11.2743 C   0  0  0  0  0  0  0  0  0  0  0  0
    7.7775    4.5963  -12.0216 C   0  0  0  0  0  0  0  0  0  0  0  0
   11.3578    7.6468  -10.9385 O   0  0  0  0  0  0  0  0  0  0  0  0
    9.6729    5.9817  -11.5025 C   0  0  0  0  0  0  0  0  0  0  0  0
    6.5141    3.9647  -11.7142 C   0  0  0  0  0  0  0  0  0  0  0  0
   10.2705    5.7520  -12.6722 C   0  0  0  0  0  0  0  0  0  0  0  0
    9.6709    4.9494  -13.5852 C   0  0  0  0  0  0  0  0  0  0  0  0
    8.4810    4.4431  -13.3221 C   0  0  0  0  0  0  0  0  0  0  0  0
  1  2  1  0
  1  3  1  0
  3  4  1  0
  2  5  1  0
  4  6  1  0
  6  7  1  0
  5  8  2  0
  5  9  1  0
  6  9  2  0
  7 10  1  0
  9 11  1  0
 11 12  2  0
  7 13  2  0
 12 13  1  0
M  END
$$$$
Pocket2Mol_90_num_sample_100
     RDKit          3D

 13 14  0  0  0  0  0  0  0  0999 V2000
    9.1846    6.6802   -8.4911 C   0  0  0  0  0  0  0  0  0  0  0  0
    9.4594    7.4203   -9.5710 O   0  0  0  0  0  0  0  0  0  0  0  0
    9.2734    6.8144  -10.7282 C   0  0  0  0  0  0  0  0  0  0  0  0
    8.7495    5.5380  -10.6247 C   0  0  0  0  0  0  0  0  0  0  0  0
    8.3845    4.5563  -11.5282 C   0  0  0  0  0  0  0  0  0  0  0  0
    8.6867    5.3820   -9.0806 C   0  0  0  0  0  0  0  0  0  0  0  0
    9.7412    7.1372  -11.9077 C   0  0  0  0  0  0  0  0  0  0  0  0
    8.8074    5.0387  -12.8099 C   0  0  0  0  0  0  0  0  0  0  0  0
    8.4562    4.1635  -13.9186 N   0  0  0  0  0  0  0  0  0  0  0  0
    9.3872    6.2539  -13.0359 C   0  0  0  0  0  0  0  0  0  0  0  0
    8.5692    4.4722  -15.1524 C   0  0  0  0  0  0  0  0  0  0  0  0
    8.9849    5.5694  -15.5600 O   0  0  0  0  0  0  0  0  0  0  0  0
    8.2412    3.3449  -16.0245 N   0  0  0  0  0  0  0  0  0  0  0  0
  1  2  1  0
  2  3  1  0
  3  4  2  0
  4  5  1  0
  1  6  1  0
  4  6  1  0
  3  7  1  0
  5  8  2  0
  8  9  1  0
  7 10  2  0
  8 10  1  0
  9 11  1  0
 11 12  2  0
 11 13  1  0
M  END
$$$$
Pocket2Mol_91_num_sample_100
     RDKit          3D

 13 14  0  0  0  0  0  0  0  0999 V2000
    9.1846    6.6802   -8.4911 C   0  0  0  0  0  0  0  0  0  0  0  0
    9.4594    7.4203   -9.5710 O   0  0  0  0  0  0  0  0  0  0  0  0
    8.6012    5.4606   -8.8529 C   0  0  0  0  0  0  0  0  0  0  0  0
    7.7846    5.7912  -10.0497 O   0  0  0  0  0  0  0  0  0  0  0  0
   10.3461    7.0448  -10.5214 C   0  0  0  0  0  0  0  0  0  0  0  0
    8.3583    5.3750  -11.2743 C   0  0  0  0  0  0  0  0  0  0  0  0
    7.7775    4.5963  -12.0216 C   0  0  0  0  0  0  0  0  0  0  0  0
   11.3578    7.6468  -10.9385 O   0  0  0  0  0  0  0  0  0  0  0  0
    9.6062    6.0704  -11.5789 C   0  0  0  0  0  0  0  0  0  0  0  0
    8.4124    4.2161  -13.2524 C   0  0  0  0  0  0  0  0  0  0  0  0
   10.1915    5.8266  -12.7392 C   0  0  0  0  0  0  0  0  0  0  0  0
    7.7685    3.3175  -14.1629 N   0  0  0  0  0  0  0  0  0  0  0  0
    9.4939    4.9451  -13.6501 N   0  0  0  0  0  0  0  0  0  0  0  0
  1  2  1  0
  1  3  1  0
  3  4  1  0
  2  5  1  0
  4  6  1  0
  6  7  1  0
  5  8  2  0
  5  9  1  0
  6  9  2  0
  7 10  2  0
  9 11  1  0
 10 12  1  0
 10 13  1  0
 11 13  2  0
M  END
$$$$
Pocket2Mol_92_num_sample_100
     RDKit          3D

 13 14  0  0  0  0  0  0  0  0999 V2000
    9.1846    6.6802   -8.4911 C   0  0  0  0  0  0  0  0  0  0  0  0
    9.4594    7.4203   -9.5710 O   0  0  0  0  0  0  0  0  0  0  0  0
    8.6012    5.4606   -8.8529 C   0  0  0  0  0  0  0  0  0  0  0  0
    7.7846    5.7912  -10.0497 O   0  0  0  0  0  0  0  0  0  0  0  0
   10.3461    7.0448  -10.5214 C   0  0  0  0  0  0  0  0  0  0  0  0
    8.3583    5.3750  -11.2743 C   0  0  0  0  0  0  0  0  0  0  0  0
    7.7775    4.5963  -12.0216 C   0  0  0  0  0  0  0  0  0  0  0  0
    9.5308    6.1338  -11.6323 C   0  0  0  0  0  0  0  0  0  0  0  0
    6.5598    3.9081  -11.6642 C   0  0  0  0  0  0  0  0  0  0  0  0
    8.4855    4.2563  -13.2408 N   0  0  0  0  0  0  0  0  0  0  0  0
    7.8598    3.2923  -14.1585 C   0  0  0  0  0  0  0  0  0  0  0  0
    6.6468    2.6538  -13.7703 C   0  0  0  0  0  0  0  0  0  0  0  0
    6.1037    3.0080  -12.4613 C   0  0  0  0  0  0  0  0  0  0  0  0
  1  2  1  0
  1  3  1  0
  3  4  1  0
  2  5  1  0
  4  6  1  0
  6  7  2  3
  5  8  1  0
  6  8  1  0
  7  9  1  0
  7 10  1  0
 10 11  1  0
 11 12  2  0
  9 13  2  0
 12 13  1  0
M  END
$$$$
Pocket2Mol_93_num_sample_100
     RDKit          3D

 13 15  0  0  0  0  0  0  0  0999 V2000
    9.1846    6.6802   -8.4911 C   0  0  0  0  0  0  0  0  0  0  0  0
    9.4594    7.4203   -9.5710 O   0  0  0  0  0  0  0  0  0  0  0  0
    9.2734    6.8144  -10.7282 C   0  0  0  0  0  0  0  0  0  0  0  0
    8.7495    5.5380  -10.6247 C   0  0  0  0  0  0  0  0  0  0  0  0
    8.3845    4.5563  -11.5282 C   0  0  0  0  0  0  0  0  0  0  0  0
    8.8698    4.8692  -12.8331 C   0  0  0  0  0  0  0  0  0  0  0  0
    8.6293    3.9660  -13.8725 O   0  0  0  0  0  0  0  0  0  0  0  0
    9.0192    5.4005   -8.9605 C   0  0  0  0  0  0  0  0  0  0  0  0
    9.1760    6.2087  -13.0632 C   0  0  0  0  0  0  0  0  0  0  0  0
    9.4368    6.4867  -14.4349 O   0  0  0  0  0  0  0  0  0  0  0  0
    9.4911    7.1287  -12.0710 C   0  0  0  0  0  0  0  0  0  0  0  0
    8.0169    4.5357  -14.9132 C   0  0  0  0  0  0  0  0  0  0  0  0
    9.1775    5.3340  -15.3527 C   0  0  0  0  0  0  0  0  0  0  0  0
  1  2  1  0
  2  3  1  0
  3  4  2  0
  4  5  1  0
  5  6  2  0
  6  7  1  0
  1  8  1  0
  4  8  1  0
  6  9  1  0
  9 10  1  0
  3 11  1  0
  9 11  2  0
  7 12  1  0
 10 13  1  0
 12 13  1  0
M  END
$$$$
Pocket2Mol_94_num_sample_100
     RDKit          3D

 13 14  0  0  0  0  0  0  0  0999 V2000
    9.1846    6.6802   -8.4911 C   0  0  0  0  0  0  0  0  0  0  0  0
    9.4594    7.4203   -9.5710 O   0  0  0  0  0  0  0  0  0  0  0  0
    9.2734    6.8144  -10.7282 C   0  0  0  0  0  0  0  0  0  0  0  0
    8.7495    5.5380  -10.6247 C   0  0  0  0  0  0  0  0  0  0  0  0
    8.3845    4.5563  -11.5282 C   0  0  0  0  0  0  0  0  0  0  0  0
    8.6867    5.3820   -9.0806 C   0  0  0  0  0  0  0  0  0  0  0  0
    9.7412    7.1372  -11.9077 C   0  0  0  0  0  0  0  0  0  0  0  0
    8.8074    5.0387  -12.8099 C   0  0  0  0  0  0  0  0  0  0  0  0
    8.4562    4.1635  -13.9186 N   0  0  0  0  0  0  0  0  0  0  0  0
    9.3872    6.2539  -13.0359 C   0  0  0  0  0  0  0  0  0  0  0  0
    8.0286    4.5569  -14.9902 C   0  0  0  0  0  0  0  0  0  0  0  0
    7.7933    3.5692  -16.0372 C   0  0  0  0  0  0  0  0  0  0  0  0
    7.8705    5.7884  -15.2618 O   0  0  0  0  0  0  0  0  0  0  0  0
  1  2  1  0
  2  3  1  0
  3  4  2  0
  4  5  1  0
  1  6  1  0
  4  6  1  0
  3  7  1  0
  5  8  2  0
  8  9  1  0
  7 10  2  0
  8 10  1  0
  9 11  1  0
 11 12  1  0
 11 13  2  0
M  END
$$$$
Pocket2Mol_95_num_sample_100
     RDKit          3D

 13 14  0  0  0  0  0  0  0  0999 V2000
    9.1846    6.6802   -8.4911 C   0  0  0  0  0  0  0  0  0  0  0  0
    9.4594    7.4203   -9.5710 O   0  0  0  0  0  0  0  0  0  0  0  0
   10.0701    6.9349  -10.4785 C   0  0  0  0  0  0  0  0  0  0  0  0
    8.4260    5.5139   -8.8199 C   0  0  0  0  0  0  0  0  0  0  0  0
    8.3737    5.4361  -10.2958 O   0  0  0  0  0  0  0  0  0  0  0  0
    9.4338    5.7143  -10.9192 C   0  0  0  0  0  0  0  0  0  0  0  0
    9.6959    5.2335  -12.2344 C   0  0  0  0  0  0  0  0  0  0  0  0
    9.0096    4.1215  -12.6888 O   0  0  0  0  0  0  0  0  0  0  0  0
   10.6619    5.7781  -12.9927 C   0  0  0  0  0  0  0  0  0  0  0  0
   10.8920    5.3062  -14.2227 O   0  0  0  0  0  0  0  0  0  0  0  0
   11.0058    7.5438  -11.2932 C   0  0  0  0  0  0  0  0  0  0  0  0
   11.3391    6.9709  -12.5395 C   0  0  0  0  0  0  0  0  0  0  0  0
    7.7047    4.3815  -13.0704 C   0  0  0  0  0  0  0  0  0  0  0  0
  1  2  1  0
  2  3  1  0
  1  4  1  0
  4  5  1  0
  3  6  2  0
  5  6  1  0
  6  7  1  0
  7  8  1  0
  7  9  2  0
  9 10  1  0
  3 11  1  0
  9 12  1  0
 11 12  2  0
  8 13  1  0
M  END
$$$$
Pocket2Mol_96_num_sample_100
     RDKit          3D

 13 14  0  0  0  0  0  0  0  0999 V2000
    9.1846    6.6802   -8.4911 C   0  0  0  0  0  0  0  0  0  0  0  0
    9.4594    7.4203   -9.5710 O   0  0  0  0  0  0  0  0  0  0  0  0
    8.6012    5.4606   -8.8529 C   0  0  0  0  0  0  0  0  0  0  0  0
    7.7846    5.7912  -10.0497 O   0  0  0  0  0  0  0  0  0  0  0  0
   10.3461    7.0448  -10.5214 C   0  0  0  0  0  0  0  0  0  0  0  0
    8.3583    5.3750  -11.2743 C   0  0  0  0  0  0  0  0  0  0  0  0
    7.7775    4.5963  -12.0216 C   0  0  0  0  0  0  0  0  0  0  0  0
   11.3578    7.6468  -10.9385 O   0  0  0  0  0  0  0  0  0  0  0  0
    9.6062    6.0704  -11.5789 C   0  0  0  0  0  0  0  0  0  0  0  0
    8.4124    4.2161  -13.2524 C   0  0  0  0  0  0  0  0  0  0  0  0
    9.5587    4.8982  -13.6177 C   0  0  0  0  0  0  0  0  0  0  0  0
   10.0502    4.6270  -14.9399 F   0  0  0  0  0  0  0  0  0  0  0  0
   10.1418    5.8170  -12.8140 C   0  0  0  0  0  0  0  0  0  0  0  0
  1  2  1  0
  1  3  1  0
  3  4  1  0
  2  5  1  0
  4  6  1  0
  6  7  1  0
  5  8  2  0
  5  9  1  0
  6  9  2  0
  7 10  2  0
 10 11  1  0
 11 12  1  0
  9 13  1  0
 11 13  2  0
M  END
$$$$
Pocket2Mol_97_num_sample_100
     RDKit          3D

 13 14  0  0  0  0  0  0  0  0999 V2000
    9.1846    6.6802   -8.4911 C   0  0  0  0  0  0  0  0  0  0  0  0
    9.4594    7.4203   -9.5710 O   0  0  0  0  0  0  0  0  0  0  0  0
    8.6012    5.4606   -8.8529 C   0  0  0  0  0  0  0  0  0  0  0  0
    7.7846    5.7912  -10.0497 O   0  0  0  0  0  0  0  0  0  0  0  0
   10.3461    7.0448  -10.5214 C   0  0  0  0  0  0  0  0  0  0  0  0
    8.3583    5.3750  -11.2743 C   0  0  0  0  0  0  0  0  0  0  0  0
    7.7775    4.5963  -12.0216 C   0  0  0  0  0  0  0  0  0  0  0  0
    9.5308    6.1338  -11.6323 C   0  0  0  0  0  0  0  0  0  0  0  0
    6.5598    3.9081  -11.6642 C   0  0  0  0  0  0  0  0  0  0  0  0
    8.4681    4.1883  -13.2548 C   0  0  0  0  0  0  0  0  0  0  0  0
    9.5462    4.8720  -13.6084 C   0  0  0  0  0  0  0  0  0  0  0  0
   10.0974    4.5254  -14.8977 F   0  0  0  0  0  0  0  0  0  0  0  0
   10.1279    5.7900  -12.7952 C   0  0  0  0  0  0  0  0  0  0  0  0
  1  2  1  0
  1  3  1  0
  3  4  1  0
  2  5  1  0
  4  6  1  0
  6  7  1  0
  5  8  1  0
  6  8  2  0
  7  9  1  0
  7 10  2  0
 10 11  1  0
 11 12  1  0
  8 13  1  0
 11 13  2  0
M  END
$$$$
Pocket2Mol_98_num_sample_100
     RDKit          3D

 13 14  0  0  0  0  0  0  0  0999 V2000
    9.1846    6.6802   -8.4911 C   0  0  0  0  0  0  0  0  0  0  0  0
    9.4594    7.4203   -9.5710 O   0  0  0  0  0  0  0  0  0  0  0  0
    9.2734    6.8144  -10.7282 C   0  0  0  0  0  0  0  0  0  0  0  0
    8.7495    5.5380  -10.6247 C   0  0  0  0  0  0  0  0  0  0  0  0
    8.3845    4.5563  -11.5282 C   0  0  0  0  0  0  0  0  0  0  0  0
    8.6034    5.4140   -9.0605 C   0  0  0  0  0  0  0  0  0  0  0  0
    8.7843    4.9571  -12.8111 C   0  0  0  0  0  0  0  0  0  0  0  0
    8.4161    4.0616  -13.9070 N   0  0  0  0  0  0  0  0  0  0  0  0
    9.6280    7.2544  -11.8363 C   0  0  0  0  0  0  0  0  0  0  0  0
    9.4178    6.2378  -12.9566 C   0  0  0  0  0  0  0  0  0  0  0  0
    8.0526    4.4586  -14.9656 C   0  0  0  0  0  0  0  0  0  0  0  0
    8.0210    5.8208  -15.3362 O   0  0  0  0  0  0  0  0  0  0  0  0
    7.9308    3.4274  -16.0029 C   0  0  0  0  0  0  0  0  0  0  0  0
  1  2  1  0
  2  3  1  0
  3  4  2  0
  4  5  1  0
  1  6  1  0
  4  6  1  0
  5  7  2  0
  7  8  1  0
  3  9  1  0
  7 10  1  0
  9 10  2  0
  8 11  2  3
 11 12  1  0
 11 13  1  0
M  CHG  1  12  -1
M  END
$$$$
Pocket2Mol_99_num_sample_100
     RDKit          3D

  5  5  0  0  0  0  0  0  0  0999 V2000
    9.0380    6.8696   -8.5657 O   0  0  0  0  0  0  0  0  0  0  0  0
    9.5960    7.4785   -9.4365 C   0  0  0  0  0  0  0  0  0  0  0  0
    9.8881    6.8213  -10.6001 C   0  0  0  0  0  0  0  0  0  0  0  0
    8.9557    5.5481   -8.7528 C   0  0  0  0  0  0  0  0  0  0  0  0
    9.6245    5.4837  -10.1281 O   0  0  0  0  0  0  0  0  0  0  0  0
  1  2  1  0
  2  3  1  0
  1  4  1  0
  3  5  1  0
  4  5  1  0
M  END
$$$$
