
     RDKit          3D

 47 52  0  0  0  0  0  0  0  0999 V2000
   12.8210    7.7370    0.3570 C   0  0  0  0  0  0  0  0  0  0  0  0
    8.6830    7.9980  -11.8630 C   0  0  0  0  0  0  0  0  0  0  0  0
   13.8320    8.2460   -9.8950 O   0  0  0  0  0  0  0  0  0  0  0  0
   13.3060    8.4690   -8.4220 C   0  0  0  0  0  0  0  0  0  0  0  0
    8.5260    5.1870  -11.7880 S   0  0  0  0  0  0  0  0  0  0  0  0
   12.7140    7.7450   -1.7000 C   0  0  0  0  0  0  0  0  0  0  0  0
   12.3030    5.7510   -3.1410 C   0  0  0  0  0  0  0  0  0  0  0  0
   11.9280    8.1550   -6.0980 C   0  0  0  0  0  0  0  0  0  0  0  0
    5.4300    6.7320  -15.5660 C   0  0  0  0  0  0  0  0  0  0  0  0
   12.7690    6.3170   -4.4630 C   0  0  0  0  0  0  0  0  0  0  0  0
   12.4300    8.8240   -2.4320 C   0  0  0  0  0  0  0  0  0  0  0  0
   11.3520    5.6600   -1.7720 C   0  0  0  0  0  0  0  0  0  0  0  0
    8.3780    5.1660   -9.4860 C   0  0  0  0  0  0  0  0  0  0  0  0
    9.8830    5.1550  -11.6320 O   0  0  0  0  0  0  0  0  0  0  0  0
    9.2830    6.1340   -7.8180 C   0  0  0  0  0  0  0  0  0  0  0  0
    5.4410    5.2270  -13.6450 N   0  0  0  0  0  0  0  0  0  0  0  0
   12.1270   10.7890   -1.0590 C   0  0  0  0  0  0  0  0  0  0  0  0
    8.2240    5.0750  -13.1340 O   0  0  0  0  0  0  0  0  0  0  0  0
    7.6670    5.8310   -7.2840 O   0  0  0  0  0  0  0  0  0  0  0  0
    8.8220    6.5600   -9.1150 C   0  0  0  0  0  0  0  0  0  0  0  0
   12.2350    8.8350   -3.7820 C   0  0  0  0  0  0  0  0  0  0  0  0
    5.6340    3.7610  -11.6550 C   0  0  0  0  0  0  0  0  0  0  0  0
    8.3800    5.9020   -6.8010 O   0  0  0  0  0  0  0  0  0  0  0  0
   10.4620    6.5090   -7.2450 O   0  0  0  0  0  0  0  0  0  0  0  0
   12.0000   10.2780   -4.8540 S   0  0  0  0  0  0  0  0  0  0  0  0
   11.5740    9.8130   -1.9340 C   0  0  0  0  0  0  0  0  0  0  0  0
    7.8330    8.0730  -12.7020 C   0  0  0  0  0  0  0  0  0  0  0  0
    9.8770    8.5850   -9.9540 C   0  0  0  0  0  0  0  0  0  0  0  0
    6.6210    7.2360  -14.7380 C   0  0  0  0  0  0  0  0  0  0  0  0
    6.5000    7.6700  -13.2950 C   0  0  0  0  0  0  0  0  0  0  0  0
   12.4970    9.4140   -6.3970 C   0  0  0  0  0  0  0  0  0  0  0  0
    6.4510    3.0510  -14.9450 O   0  0  0  0  0  0  0  0  0  0  0  0
    5.4760    3.9130  -13.0710 C   0  0  0  0  0  0  0  0  0  0  0  0
    8.8500    7.5840  -10.3640 C   0  0  0  0  0  0  0  0  0  0  0  0
    4.8690    5.4830  -14.9270 C   0  0  0  0  0  0  0  0  0  0  0  0
   11.7740    7.9220   -8.4320 C   0  0  0  0  0  0  0  0  0  0  0  0
    6.4620    3.0010  -13.7660 C   0  0  0  0  0  0  0  0  0  0  0  0
   13.8620    8.7510   -7.2370 C   0  0  0  0  0  0  0  0  0  0  0  0
   13.0010    9.8740   -0.2380 N   0  0  0  0  0  0  0  0  0  0  0  0
    7.2410    2.1440  -12.8690 O   0  0  0  0  0  0  0  0  0  0  0  0
    7.4890    5.3090  -10.7660 N   0  0  0  0  0  0  0  0  0  0  0  0
   13.3250    8.5140   -0.3660 C   0  0  0  0  0  0  0  0  0  0  0  0
   11.1590    7.6740   -9.6030 C   0  0  0  0  0  0  0  0  0  0  0  0
   12.2190    7.7900   -4.7630 C   0  0  0  0  0  0  0  0  0  0  0  0
   11.4140    6.9960   -0.9270 C   0  0  0  0  0  0  0  0  0  0  0  0
   11.3090    7.6430   -7.3000 C   0  0  0  0  0  0  0  0  0  0  0  0
    9.1870    4.6250   -8.3320 C   0  0  0  0  0  0  0  0  0  0  0  0
  2 34  1  0
  4  3  1  0
  4 38  1  0
  5 18  1  0
  5 14  2  0
  5 41  1  0
  6 45  1  0
  6 42  1  0
  7 12  1  0
  8 44  1  0
  9 35  1  0
  9 29  1  0
 10  7  1  0
 11 26  1  0
 11  6  1  0
 12 45  1  0
 13 41  1  0
 13 20  1  0
 13 47  1  0
 15 24  1  0
 15 23  1  0
 16 33  1  0
 17 39  1  0
 19 23  1  0
 20 15  1  0
 21 11  1  0
 25 21  1  0
 26 17  1  0
 27  2  1  0
 28 43  1  0
 29 30  1  0
 30 27  1  0
 31  8  1  0
 31 25  1  0
 32 37  2  0
 33 22  1  0
 34 28  1  0
 34 20  1  0
 35 16  1  0
 36  4  1  0
 36 46  1  0
 37 33  1  0
 37 40  1  0
 38 31  1  0
 42 39  1  0
 42  1  1  0
 43 36  1  0
 44 10  1  0
 44 21  2  0
 46 24  1  0
 46  8  1  0
 47 15  1  0
M  END
$$$$

     RDKit          3D

 17 18  0  0  0  0  0  0  0  0999 V2000
    9.2890    4.4530  -10.9640 C   0  0  0  0  0  0  0  0  0  0  0  0
    5.9350    5.5480  -12.7040 C   0  0  0  0  0  0  0  0  0  0  0  0
    5.7890    4.9420  -14.0700 C   0  0  0  0  0  0  0  0  0  0  0  0
    5.3020    6.0490  -15.3100 Cl  0  0  0  0  0  0  0  0  0  0  0  0
   10.4630    6.4350  -12.6440 O   0  0  0  0  0  0  0  0  0  0  0  0
    6.9850    4.0420  -14.4230 C   0  0  0  0  0  0  0  0  0  0  0  0
    7.1100    7.6010  -13.6680 C   0  0  0  0  0  0  0  0  0  0  0  0
    8.2570    4.7260  -13.9680 C   0  0  0  0  0  0  0  0  0  0  0  0
    8.2840    7.6320  -12.6900 C   0  0  0  0  0  0  0  0  0  0  0  0
    8.3600    4.9120  -12.3260 C   0  0  0  0  0  0  0  0  0  0  0  0
    8.0360    5.6970   -8.6460 O   0  0  0  0  0  0  0  0  0  0  0  0
    6.2490    6.9920  -12.6550 O   0  0  0  0  0  0  0  0  0  0  0  0
    9.3180    6.2510   -9.0990 P   0  0  0  0  0  0  0  0  0  0  0  0
    6.8880    4.7460  -11.8750 C   0  0  0  0  0  0  0  0  0  0  0  0
    8.9030    7.6850   -9.2980 O   0  0  0  0  0  0  0  0  0  0  0  0
   10.0630    5.6270  -10.2650 C   0  0  0  0  0  0  0  0  0  0  0  0
    9.0120    6.4340  -12.2720 C   0  0  0  0  0  0  0  0  0  0  0  0
  1 16  1  0
  2 12  1  0
  2 14  1  0
  3  4  1  0
  3  2  1  0
  6  3  1  0
  6  8  1  0
  7  9  1  0
  7 12  1  0
  8 10  1  0
  9 17  1  0
 10 17  1  0
 10 14  1  0
 10  1  1  0
 13 11  1  0
 15 13  1  0
 16 13  1  0
 17  5  1  0
M  END
$$$$

     RDKit          3D

 18 19  0  0  0  0  0  0  0  0999 V2000
   11.7120    7.3210   -4.2480 C   0  0  0  0  0  0  0  0  0  0  0  0
   10.2110    6.9120  -12.1070 C   0  0  0  0  0  0  0  0  0  0  0  0
   11.2410    8.9380   -6.5540 O   0  0  0  0  0  0  0  0  0  0  0  0
    9.6220    6.1450  -11.2320 C   0  0  0  0  0  0  0  0  0  0  0  0
   11.3920    6.8050   -5.5360 C   0  0  0  0  0  0  0  0  0  0  0  0
   11.3190   10.8310   -5.3250 O   0  0  0  0  0  0  0  0  0  0  0  0
    9.7200    6.6340  -10.3010 N   0  0  0  0  0  0  0  0  0  0  0  0
   12.4900    8.5320   -1.9060 C   0  0  0  0  0  0  0  0  0  0  0  0
   11.4190    9.5350   -5.3450 C   0  0  0  0  0  0  0  0  0  0  0  0
   10.9060    7.2120   -8.0030 C   0  0  0  0  0  0  0  0  0  0  0  0
   11.8680    8.7570   -4.1590 C   0  0  0  0  0  0  0  0  0  0  0  0
   11.2300    7.6400   -6.6720 C   0  0  0  0  0  0  0  0  0  0  0  0
   10.3050    6.9370   -9.0440 C   0  0  0  0  0  0  0  0  0  0  0  0
   11.4150    6.5730  -12.5230 O   0  0  0  0  0  0  0  0  0  0  0  0
    9.4410    8.1440  -11.8400 C   0  0  0  0  0  0  0  0  0  0  0  0
   12.2410    9.3150   -2.9870 C   0  0  0  0  0  0  0  0  0  0  0  0
   12.3080    7.1290   -2.0010 C   0  0  0  0  0  0  0  0  0  0  0  0
   11.8150    6.5900   -3.1230 C   0  0  0  0  0  0  0  0  0  0  0  0
  1 11  2  0
  1 18  1  0
  2 15  1  0
  2  4  1  0
  3  9  1  0
  4  7  1  0
  5  1  1  0
  7 13  1  0
  9  6  2  0
  9 11  1  0
 10 12  1  0
 11 16  1  0
 12  3  1  0
 12  5  2  0
 13 10  3  0
 14  2  1  0
 16  8  2  0
 17  8  1  0
 18 17  2  0
M  END
$$$$

     RDKit          3D

 20 21  0  0  0  0  0  0  0  0999 V2000
   11.3380    9.1570   -5.1800 C   0  0  0  0  0  0  0  0  0  0  0  0
   13.2510    8.4100   -0.8810 O   0  0  0  0  0  0  0  0  0  0  0  0
   11.5340    7.0410   -8.0360 C   0  0  0  0  0  0  0  0  0  0  0  0
   12.0260    6.2500   -2.3460 O   0  0  0  0  0  0  0  0  0  0  0  0
   10.3430    7.1150   -7.5980 C   0  0  0  0  0  0  0  0  0  0  0  0
   12.0130    9.4370   -4.0120 C   0  0  0  0  0  0  0  0  0  0  0  0
   11.0300   10.2470   -6.1230 C   0  0  0  0  0  0  0  0  0  0  0  0
   11.7360    8.0270   -8.8710 C   0  0  0  0  0  0  0  0  0  0  0  0
    9.8020    8.0470  -10.4080 C   0  0  0  0  0  0  0  0  0  0  0  0
    9.9140    7.6330   -6.4190 O   0  0  0  0  0  0  0  0  0  0  0  0
    9.3910    5.3580  -10.1090 C   0  0  0  0  0  0  0  0  0  0  0  0
   12.2750    8.5240   -3.0500 C   0  0  0  0  0  0  0  0  0  0  0  0
   11.9220    7.1480   -3.3070 C   0  0  0  0  0  0  0  0  0  0  0  0
    9.1880    6.1840   -7.6210 C   0  0  0  0  0  0  0  0  0  0  0  0
    9.2710    5.0780   -8.5460 C   0  0  0  0  0  0  0  0  0  0  0  0
   10.7160    8.4430   -9.6870 C   0  0  0  0  0  0  0  0  0  0  0  0
   10.9060    7.8360   -5.3890 C   0  0  0  0  0  0  0  0  0  0  0  0
   11.3240    6.7920   -4.5340 C   0  0  0  0  0  0  0  0  0  0  0  0
   12.8230    8.8850   -1.8370 C   0  0  0  0  0  0  0  0  0  0  0  0
    9.0940    6.8060  -10.3350 C   0  0  0  0  0  0  0  0  0  0  0  0
  1  6  1  0
  3  5  1  0
  5 10  1  0
  6 12  2  0
  7  1  1  0
  8  3  1  0
  9 20  1  0
  9 16  1  0
 10 17  1  0
 11 15  1  0
 12 19  1  0
 13 12  1  0
 13  4  1  0
 14  5  1  0
 15 14  1  0
 16  8  1  0
 17  1  2  0
 17 18  1  0
 18 13  2  0
 19  2  2  0
 20 11  1  0
M  END
$$$$

     RDKit          3D

 27 30  0  0  0  0  0  0  0  0999 V2000
    7.7190    6.7810  -12.6750 C   0  0  0  0  0  0  0  0  0  0  0  0
   12.2180   10.0290   -2.9710 C   0  0  0  0  0  0  0  0  0  0  0  0
    8.9680    5.9270  -10.7740 C   0  0  0  0  0  0  0  0  0  0  0  0
   11.3240    7.4870   -1.5040 F   0  0  0  0  0  0  0  0  0  0  0  0
   11.6570    8.7800   -4.6570 C   0  0  0  0  0  0  0  0  0  0  0  0
    8.4430    4.9300   -9.7280 C   0  0  0  0  0  0  0  0  0  0  0  0
   11.8100    9.9370   -4.2010 C   0  0  0  0  0  0  0  0  0  0  0  0
   11.2730    9.0430   -6.0970 C   0  0  0  0  0  0  0  0  0  0  0  0
    8.7380    5.3540   -8.3160 C   0  0  0  0  0  0  0  0  0  0  0  0
   10.3650    6.7670   -6.6940 C   0  0  0  0  0  0  0  0  0  0  0  0
    5.6830    7.2080  -13.8460 O   0  0  0  0  0  0  0  0  0  0  0  0
    9.7090    7.0880  -10.3150 C   0  0  0  0  0  0  0  0  0  0  0  0
   10.5930    6.9960   -9.1790 C   0  0  0  0  0  0  0  0  0  0  0  0
   11.3940    6.3560   -5.6790 C   0  0  0  0  0  0  0  0  0  0  0  0
    8.0680    8.2850  -12.5920 C   0  0  0  0  0  0  0  0  0  0  0  0
   13.0230    7.9450   -0.7550 F   0  0  0  0  0  0  0  0  0  0  0  0
    7.2200    3.9940  -13.3120 C   0  0  0  0  0  0  0  0  0  0  0  0
   11.8200    7.7360   -3.8010 C   0  0  0  0  0  0  0  0  0  0  0  0
    6.2660    4.9600  -13.6280 C   0  0  0  0  0  0  0  0  0  0  0  0
   10.1250    5.9860   -8.2910 C   0  0  0  0  0  0  0  0  0  0  0  0
    8.4510    5.7410  -12.0490 C   0  0  0  0  0  0  0  0  0  0  0  0
   10.7530    8.1740   -7.2860 C   0  0  0  0  0  0  0  0  0  0  0  0
    8.2160    4.3120  -12.3890 C   0  0  0  0  0  0  0  0  0  0  0  0
   11.1260    6.5160   -4.3070 C   0  0  0  0  0  0  0  0  0  0  0  0
   12.3000    7.9330   -2.3540 C   0  0  0  0  0  0  0  0  0  0  0  0
   12.4310    9.1460   -2.1410 C   0  0  0  0  0  0  0  0  0  0  0  0
    6.5840    6.3440  -13.3740 C   0  0  0  0  0  0  0  0  0  0  0  0
  1 15  1  0
  1 21  1  0
  2 26  2  0
  3 21  1  0
  3 12  1  0
  3  6  1  0
  5  7  2  0
  5 18  1  0
  6  9  1  0
  7  2  1  0
  8  5  1  0
  9 20  1  0
 10 22  1  0
 10 14  1  0
 11 27  1  0
 12 13  1  0
 14 24  1  0
 17 23  1  0
 18 24  1  0
 18 25  1  0
 19 27  1  0
 19 17  2  0
 20 13  1  0
 20 10  1  0
 22  8  1  0
 23 21  2  0
 25 26  1  0
 25  4  1  0
 25 16  1  0
 27  1  2  0
M  END
$$$$

     RDKit          3D

 33 37  0  0  0  0  0  0  0  0999 V2000
    7.9710    4.8740  -14.0340 N   0  0  0  0  0  0  0  0  0  0  0  0
    7.0940    4.3950  -14.8120 C   0  0  0  0  0  0  0  0  0  0  0  0
   12.0870    9.7240   -1.5380 C   0  0  0  0  0  0  0  0  0  0  0  0
    5.8410    6.7840  -15.2530 C   0  0  0  0  0  0  0  0  0  0  0  0
   11.3800    7.4000   -1.0870 C   0  0  0  0  0  0  0  0  0  0  0  0
    8.7680    5.4550  -10.3150 C   0  0  0  0  0  0  0  0  0  0  0  0
   10.7230    6.9940   -9.7810 C   0  0  0  0  0  0  0  0  0  0  0  0
   11.3420    6.5030   -5.2730 C   0  0  0  0  0  0  0  0  0  0  0  0
    7.8980    5.1320  -16.1190 C   0  0  0  0  0  0  0  0  0  0  0  0
    8.1120    8.6590  -11.4800 O   0  0  0  0  0  0  0  0  0  0  0  0
    9.0460    7.5610  -11.5410 C   0  0  0  0  0  0  0  0  0  0  0  0
   10.0680    6.6830   -1.4310 C   0  0  0  0  0  0  0  0  0  0  0  0
   12.1190    8.3310   -1.9910 C   0  0  0  0  0  0  0  0  0  0  0  0
   10.9490    7.4890   -8.4590 N   0  0  0  0  0  0  0  0  0  0  0  0
    7.2150    6.1680  -13.0090 C   0  0  0  0  0  0  0  0  0  0  0  0
   11.8350    9.0790   -4.3930 C   0  0  0  0  0  0  0  0  0  0  0  0
   13.4140    6.2980   -1.9870 O   0  0  0  0  0  0  0  0  0  0  0  0
   13.5230    7.7800   -1.7800 C   0  0  0  0  0  0  0  0  0  0  0  0
    8.6950    6.4780  -12.5640 C   0  0  0  0  0  0  0  0  0  0  0  0
   11.4270    8.8430   -5.7360 C   0  0  0  0  0  0  0  0  0  0  0  0
   11.6550    6.7730   -3.9780 C   0  0  0  0  0  0  0  0  0  0  0  0
   11.0210    7.5750   -6.1000 C   0  0  0  0  0  0  0  0  0  0  0  0
    9.2660    6.9170  -10.2490 C   0  0  0  0  0  0  0  0  0  0  0  0
   12.3790    6.3420   -1.1760 C   0  0  0  0  0  0  0  0  0  0  0  0
   10.2390    7.2760   -7.2990 C   0  0  0  0  0  0  0  0  0  0  0  0
   11.8300    8.0930   -3.4740 C   0  0  0  0  0  0  0  0  0  0  0  0
    8.1460    4.1240  -12.5570 C   0  0  0  0  0  0  0  0  0  0  0  0
   13.9690    8.1810   -0.4890 F   0  0  0  0  0  0  0  0  0  0  0  0
    6.8600    6.0480  -16.3800 C   0  0  0  0  0  0  0  0  0  0  0  0
    9.1240    6.8100   -7.2900 O   0  0  0  0  0  0  0  0  0  0  0  0
    8.0370    2.9550  -12.4860 O   0  0  0  0  0  0  0  0  0  0  0  0
    8.9790    4.9200  -11.6400 C   0  0  0  0  0  0  0  0  0  0  0  0
    6.4100    6.7630  -13.8730 C   0  0  0  0  0  0  0  0  0  0  0  0
  1 15  1  0
  1 27  1  0
  2  1  1  0
  4 33  1  0
  5 12  1  0
  6 23  1  0
  7 14  1  0
  8 21  1  0
  9  2  1  0
 11 10  1  0
 11 23  1  0
 13 18  1  0
 13  3  1  0
 13  5  1  0
 14 25  1  0
 15 33  1  0
 15 19  1  0
 16 26  1  0
 17 18  1  0
 17 24  1  0
 18 28  1  0
 19 32  1  0
 19 11  1  0
 20 16  2  0
 21 26  2  0
 22 20  1  0
 22  8  2  0
 23  7  1  0
 24  5  1  0
 25 30  2  0
 25 22  1  0
 26 13  1  0
 27 31  2  0
 27 32  1  0
 29  9  1  0
 29  4  1  0
 32  6  1  0
M  END
$$$$

     RDKit          3D

 33 36  0  0  0  0  0  0  0  0999 V2000
    9.0490    6.5130  -10.1190 N   0  0  0  0  0  0  0  0  0  0  0  0
   11.8470    7.3200   -3.8200 N   0  0  0  0  0  0  0  0  0  0  0  0
   12.1990    8.4220   -3.0630 C   0  0  0  0  0  0  0  0  0  0  0  0
   11.4720   10.1390   -4.6600 C   0  0  0  0  0  0  0  0  0  0  0  0
    6.8520    6.6150  -14.1740 C   0  0  0  0  0  0  0  0  0  0  0  0
   10.9420    7.4980   -6.9310 N   0  0  0  0  0  0  0  0  0  0  0  0
    8.5410    5.3850  -10.8400 C   0  0  0  0  0  0  0  0  0  0  0  0
   13.4740    8.4180   -1.0940 F   0  0  0  0  0  0  0  0  0  0  0  0
   12.5820    8.3740   -8.6330 C   0  0  0  0  0  0  0  0  0  0  0  0
    9.4790    7.7600  -10.7370 C   0  0  0  0  0  0  0  0  0  0  0  0
   11.0130    8.3290   -6.0580 C   0  0  0  0  0  0  0  0  0  0  0  0
    5.7760    7.1490  -13.5600 F   0  0  0  0  0  0  0  0  0  0  0  0
   10.2090    7.6310   -8.1710 C   0  0  0  0  0  0  0  0  0  0  0  0
   11.5500    7.4380   -5.0310 C   0  0  0  0  0  0  0  0  0  0  0  0
   11.3740    6.2750   -6.0940 C   0  0  0  0  0  0  0  0  0  0  0  0
    6.4940    6.1800  -15.3680 F   0  0  0  0  0  0  0  0  0  0  0  0
    5.8910    3.6580  -12.1230 C   0  0  0  0  0  0  0  0  0  0  0  0
    6.4730    3.8670  -10.8830 C   0  0  0  0  0  0  0  0  0  0  0  0
    7.2910    5.4050  -13.2340 C   0  0  0  0  0  0  0  0  0  0  0  0
    9.5690    6.3970   -8.7680 C   0  0  0  0  0  0  0  0  0  0  0  0
   12.7400    6.4370   -2.1540 F   0  0  0  0  0  0  0  0  0  0  0  0
    7.3420    4.7240  -10.3200 C   0  0  0  0  0  0  0  0  0  0  0  0
    6.0730    4.7690  -13.1100 C   0  0  0  0  0  0  0  0  0  0  0  0
   11.0980    9.6590   -5.9640 C   0  0  0  0  0  0  0  0  0  0  0  0
    8.9300    5.3170   -7.9320 C   0  0  0  0  0  0  0  0  0  0  0  0
   11.4350    7.6240   -0.9710 F   0  0  0  0  0  0  0  0  0  0  0  0
   11.9440    9.6750   -3.4590 C   0  0  0  0  0  0  0  0  0  0  0  0
   11.1380    8.4770   -9.0600 C   0  0  0  0  0  0  0  0  0  0  0  0
    8.4200    5.1890  -12.2430 C   0  0  0  0  0  0  0  0  0  0  0  0
   12.5160    7.7560   -1.7600 C   0  0  0  0  0  0  0  0  0  0  0  0
   10.9530    7.9860  -10.4720 C   0  0  0  0  0  0  0  0  0  0  0  0
   11.8300    6.1340   -3.0790 C   0  0  0  0  0  0  0  0  0  0  0  0
    7.7600    7.5260  -14.2430 F   0  0  0  0  0  0  0  0  0  0  0  0
  1 20  1  0
  2 32  1  0
  2  3  1  0
  3 30  1  0
  4 27  1  0
  5 12  1  0
  5 19  1  0
  6 15  1  0
  6 11  1  0
  7 22  1  0
  7  1  1  0
 10 31  1  0
 10  1  1  0
 11 24  1  0
 11 14  1  0
 13  6  1  0
 14 15  1  0
 14  2  1  0
 16  5  1  0
 17 18  2  0
 18 22  1  0
 19 23  2  0
 19 29  1  0
 20 13  1  0
 20 25  1  0
 23 17  1  0
 24  4  1  0
 27  3  2  0
 28  9  1  0
 28 13  1  0
 29  7  2  0
 30  8  1  0
 30 26  1  0
 31 28  1  0
 32 21  1  0
 33  5  1  0
M  END
$$$$

     RDKit          3D

 33 37  0  0  0  0  0  0  0  0999 V2000
   11.7190    7.7500   -9.5570 C   0  0  0  0  0  0  0  0  0  0  0  0
   11.5150    7.1220   -4.0610 C   0  0  0  0  0  0  0  0  0  0  0  0
   12.2320    7.9430   -3.2130 C   0  0  0  0  0  0  0  0  0  0  0  0
   11.9400    9.1070   -9.4420 O   0  0  0  0  0  0  0  0  0  0  0  0
    8.5960    5.5410   -9.1430 C   0  0  0  0  0  0  0  0  0  0  0  0
    8.6320    7.4260  -12.4650 C   0  0  0  0  0  0  0  0  0  0  0  0
   13.3890    7.9610   -1.2380 F   0  0  0  0  0  0  0  0  0  0  0  0
    8.9500    4.9860  -12.2210 C   0  0  0  0  0  0  0  0  0  0  0  0
    6.5860    4.8740  -12.4010 C   0  0  0  0  0  0  0  0  0  0  0  0
   12.3690    7.3900   -1.8130 C   0  0  0  0  0  0  0  0  0  0  0  0
   11.8730    8.6930   -8.2840 C   0  0  0  0  0  0  0  0  0  0  0  0
    7.1490    5.7240  -14.5820 C   0  0  0  0  0  0  0  0  0  0  0  0
   12.7140    6.1390   -1.9290 F   0  0  0  0  0  0  0  0  0  0  0  0
   10.1240    6.5520   -8.0550 C   0  0  0  0  0  0  0  0  0  0  0  0
    8.4680    4.9900   -7.6570 C   0  0  0  0  0  0  0  0  0  0  0  0
   10.6290    6.9410   -9.2460 N   0  0  0  0  0  0  0  0  0  0  0  0
    9.7550    5.5220   -7.0390 C   0  0  0  0  0  0  0  0  0  0  0  0
    6.0370    3.9010  -13.3860 C   0  0  0  0  0  0  0  0  0  0  0  0
    4.7850    4.2700  -13.7150 O   0  0  0  0  0  0  0  0  0  0  0  0
    6.4970    6.0100  -13.2210 C   0  0  0  0  0  0  0  0  0  0  0  0
   11.3320    7.5160   -1.1310 F   0  0  0  0  0  0  0  0  0  0  0  0
    6.3400    2.7190  -13.2900 O   0  0  0  0  0  0  0  0  0  0  0  0
   12.6310    9.2220   -3.5530 C   0  0  0  0  0  0  0  0  0  0  0  0
   12.4060    9.6690   -4.8780 C   0  0  0  0  0  0  0  0  0  0  0  0
   11.5440    9.2600   -7.1420 C   0  0  0  0  0  0  0  0  0  0  0  0
    6.7240    8.2850  -13.4450 O   0  0  0  0  0  0  0  0  0  0  0  0
   11.7180    8.8720   -5.7630 C   0  0  0  0  0  0  0  0  0  0  0  0
    7.7910    4.8670  -11.4930 C   0  0  0  0  0  0  0  0  0  0  0  0
    9.4030    6.3040  -12.3560 C   0  0  0  0  0  0  0  0  0  0  0  0
   11.2460    7.5930   -5.3410 C   0  0  0  0  0  0  0  0  0  0  0  0
    7.9720    4.5480  -10.0050 O   0  0  0  0  0  0  0  0  0  0  0  0
    9.9860    5.8000   -9.4850 C   0  0  0  0  0  0  0  0  0  0  0  0
    7.1890    7.2540  -12.6370 C   0  0  0  0  0  0  0  0  0  0  0  0
  1  4  1  0
  1 11  1  0
  2  3  1  0
  3 10  1  0
  4 11  1  0
  5 31  1  0
  5 15  1  0
  6 29  2  0
  8 28  1  0
  9 18  1  0
  9 28  1  0
 10  7  1  0
 10 21  1  0
 11 25  1  0
 13 10  1  0
 14 17  1  0
 15 17  1  0
 16  1  1  0
 16 14  1  0
 18 22  1  0
 19 18  2  0
 20 12  1  0
 20 33  1  0
 20  9  1  0
 23  3  2  0
 24 23  1  0
 25 27  1  0
 26 33  1  0
 27 30  1  0
 27 24  2  0
 28 31  1  0
 29  8  1  0
 30  2  2  0
 32 16  1  0
 32  5  1  0
 32 14  1  0
 33  6  1  0
M  END
$$$$

     RDKit          3D

 32 35  0  0  0  0  0  0  0  0999 V2000
    7.2690    7.4020  -12.7480 C   0  0  0  0  0  0  0  0  0  0  0  0
    6.6070    1.5180  -15.8220 C   0  0  0  0  0  0  0  0  0  0  0  0
    9.6860    6.9780   -9.6500 C   0  0  0  0  0  0  0  0  0  0  0  0
   12.0520    8.4830   -8.5750 C   0  0  0  0  0  0  0  0  0  0  0  0
    6.5480    7.5910  -14.8240 O   0  0  0  0  0  0  0  0  0  0  0  0
    6.9330    3.9520  -16.1750 N   0  0  0  0  0  0  0  0  0  0  0  0
   11.1460    7.9840   -8.1490 C   0  0  0  0  0  0  0  0  0  0  0  0
    8.2120    5.2540  -13.2460 O   0  0  0  0  0  0  0  0  0  0  0  0
    6.2130    7.0350  -13.7140 C   0  0  0  0  0  0  0  0  0  0  0  0
    8.2110    6.2870  -12.3660 C   0  0  0  0  0  0  0  0  0  0  0  0
   10.6350    7.1010  -11.9510 C   0  0  0  0  0  0  0  0  0  0  0  0
    6.5310    2.9690  -15.2740 C   0  0  0  0  0  0  0  0  0  0  0  0
    7.3830    5.3550  -10.2660 O   0  0  0  0  0  0  0  0  0  0  0  0
   11.8050    6.4000   -7.4150 C   0  0  0  0  0  0  0  0  0  0  0  0
    9.2950    6.6230   -8.2680 C   0  0  0  0  0  0  0  0  0  0  0  0
   10.7280    8.5030   -6.7910 O   0  0  0  0  0  0  0  0  0  0  0  0
   11.1470    7.3780   -9.6360 C   0  0  0  0  0  0  0  0  0  0  0  0
    7.5030    5.4870  -14.4150 O   0  0  0  0  0  0  0  0  0  0  0  0
    8.2310    6.3060  -10.9390 C   0  0  0  0  0  0  0  0  0  0  0  0
    6.0470    5.6580  -13.8120 C   0  0  0  0  0  0  0  0  0  0  0  0
    9.9180    6.0890   -6.0050 O   0  0  0  0  0  0  0  0  0  0  0  0
   11.4490    7.8480  -10.9550 C   0  0  0  0  0  0  0  0  0  0  0  0
   12.3430    7.1260   -6.3300 C   0  0  0  0  0  0  0  0  0  0  0  0
    7.1050    1.4820  -17.3270 C   0  0  0  0  0  0  0  0  0  0  0  0
    6.4290    0.5530  -15.1540 C   0  0  0  0  0  0  0  0  0  0  0  0
   11.8470    8.5050   -6.5570 C   0  0  0  0  0  0  0  0  0  0  0  0
    5.9400    1.9410  -13.1350 C   0  0  0  0  0  0  0  0  0  0  0  0
    5.8980    4.5070  -13.3430 O   0  0  0  0  0  0  0  0  0  0  0  0
    6.0060    0.7070  -13.6870 C   0  0  0  0  0  0  0  0  0  0  0  0
    9.7530    6.1990  -11.0820 C   0  0  0  0  0  0  0  0  0  0  0  0
   10.3920    6.0390   -7.2600 C   0  0  0  0  0  0  0  0  0  0  0  0
    6.0970    3.1130  -13.8550 C   0  0  0  0  0  0  0  0  0  0  0  0
  1 10  1  0
  2 12  2  0
  2 25  1  0
  3 17  1  0
  3 15  1  0
  4  7  2  0
  6 12  1  0
  7 16  1  0
  8 10  1  0
  9  5  1  0
  9  1  1  0
 10 19  1  0
 11 30  1  0
 11 22  1  0
 12 32  1  0
 14 31  1  0
 14 23  1  0
 15 31  1  0
 16 26  1  0
 17 22  1  0
 17  7  1  0
 18 20  1  0
 18  8  1  0
 19 13  1  0
 20  9  1  0
 20 28  1  0
 24  2  1  0
 25 29  2  0
 26 23  1  0
 29 27  1  0
 30 19  1  0
 30  3  1  0
 31 21  1  0
 32 28  1  0
 32 27  2  0
M  END
$$$$

     RDKit          3D

 24 24  0  0  0  0  0  0  0  0999 V2000
   10.5540    8.1600   -9.8150 C   0  0  0  0  0  0  0  0  0  0  0  0
    8.2090    8.4690  -11.7030 O   0  0  0  0  0  0  0  0  0  0  0  0
   10.0960    7.4610  -12.6760 O   0  0  0  0  0  0  0  0  0  0  0  0
   11.9570    7.0820   -2.8150 C   0  0  0  0  0  0  0  0  0  0  0  0
    9.4410    5.6940   -8.4450 C   0  0  0  0  0  0  0  0  0  0  0  0
    4.9100    3.6260  -13.0610 C   0  0  0  0  0  0  0  0  0  0  0  0
    6.7930    5.2740  -12.5510 C   0  0  0  0  0  0  0  0  0  0  0  0
    8.9310    7.2630  -11.8680 S   0  0  0  0  0  0  0  0  0  0  0  0
   12.7790    8.1480   -2.4740 C   0  0  0  0  0  0  0  0  0  0  0  0
    9.0630    5.5180   -9.9490 C   0  0  0  0  0  0  0  0  0  0  0  0
    7.8270    6.1720  -12.5600 C   0  0  0  0  0  0  0  0  0  0  0  0
   11.5160    8.5010   -7.4430 C   0  0  0  0  0  0  0  0  0  0  0  0
   11.3590    6.9150   -4.0330 C   0  0  0  0  0  0  0  0  0  0  0  0
   10.8250    7.9140   -6.2840 C   0  0  0  0  0  0  0  0  0  0  0  0
   11.4290    8.0310   -4.9750 C   0  0  0  0  0  0  0  0  0  0  0  0
   11.6430    8.0200   -8.6840 C   0  0  0  0  0  0  0  0  0  0  0  0
   11.8210    6.2220   -1.8700 F   0  0  0  0  0  0  0  0  0  0  0  0
    5.8350    4.2870  -12.6500 C   0  0  0  0  0  0  0  0  0  0  0  0
   12.8760    9.2120   -3.3630 C   0  0  0  0  0  0  0  0  0  0  0  0
   12.0740   10.1850   -5.3640 F   0  0  0  0  0  0  0  0  0  0  0  0
   12.1060    9.1360   -4.5910 C   0  0  0  0  0  0  0  0  0  0  0  0
   10.5520    5.7420   -8.0170 O   0  0  0  0  0  0  0  0  0  0  0  0
    8.1030    5.6120   -7.6890 O   0  0  0  0  0  0  0  0  0  0  0  0
    9.7310    6.8900  -10.3590 C   0  0  0  0  0  0  0  0  0  0  0  0
  1 16  1  0
  3  8  2  0
  4  9  1  0
  4 17  1  0
  5 22  2  0
  5 23  1  0
  6 18  3  0
  8  2  2  0
  8 24  1  0
 10  5  1  0
 11  7  3  0
 11  8  1  0
 12 14  1  0
 13  4  2  0
 14 15  1  0
 15 21  2  0
 15 13  1  0
 16 12  1  0
 18  7  1  0
 19  9  2  0
 20 21  1  0
 21 19  1  0
 24 10  1  0
 24  1  1  0
M  END
$$$$

     RDKit          3D

 37 40  0  0  0  0  0  0  0  0999 V2000
    6.3650    1.0770  -15.0310 Cl  0  0  0  0  0  0  0  0  0  0  0  0
   11.5500    8.8870   -3.9090 C   0  0  0  0  0  0  0  0  0  0  0  0
   10.2800    6.8400   -8.3030 O   0  0  0  0  0  0  0  0  0  0  0  0
    8.6960    6.0970   -9.7640 C   0  0  0  0  0  0  0  0  0  0  0  0
   12.1080    9.4020   -2.9200 C   0  0  0  0  0  0  0  0  0  0  0  0
   12.5060    6.5970   -1.8670 C   0  0  0  0  0  0  0  0  0  0  0  0
   13.1760    8.1210   -0.6570 C   0  0  0  0  0  0  0  0  0  0  0  0
   10.5310    6.3100   -5.8470 C   0  0  0  0  0  0  0  0  0  0  0  0
    8.1990    4.7530  -10.4030 C   0  0  0  0  0  0  0  0  0  0  0  0
   12.0840    6.5070   -2.8270 C   0  0  0  0  0  0  0  0  0  0  0  0
    7.8190    3.8620  -12.7530 C   0  0  0  0  0  0  0  0  0  0  0  0
   10.2170    7.4680   -6.7550 C   0  0  0  0  0  0  0  0  0  0  0  0
   12.7110    8.9690   -1.6110 C   0  0  0  0  0  0  0  0  0  0  0  0
   12.3020    8.6790   -7.2850 N   0  0  0  0  0  0  0  0  0  0  0  0
    9.0400    8.1200  -11.4170 C   0  0  0  0  0  0  0  0  0  0  0  0
    8.8160    9.0120  -10.3120 N   0  0  0  0  0  0  0  0  0  0  0  0
   10.5950    6.2630  -11.1390 O   0  0  0  0  0  0  0  0  0  0  0  0
   12.5950    9.3520   -9.6110 C   0  0  0  0  0  0  0  0  0  0  0  0
    6.9560    4.7330  -13.0260 C   0  0  0  0  0  0  0  0  0  0  0  0
   12.7190    8.2160   -8.5300 C   0  0  0  0  0  0  0  0  0  0  0  0
    7.9150    8.0680  -12.4120 C   0  0  0  0  0  0  0  0  0  0  0  0
   13.1110    6.7250   -0.6990 N   0  0  0  0  0  0  0  0  0  0  0  0
   11.2420    9.3980   -5.2370 C   0  0  0  0  0  0  0  0  0  0  0  0
   11.9080    7.5080   -4.1360 C   0  0  0  0  0  0  0  0  0  0  0  0
    9.2630    6.1130   -8.2770 C   0  0  0  0  0  0  0  0  0  0  0  0
    9.1280    4.1450  -11.8010 S   0  0  0  0  0  0  0  0  0  0  0  0
    9.1800   10.2360  -10.3060 C   0  0  0  0  0  0  0  0  0  0  0  0
   11.6560    6.7640   -5.1730 C   0  0  0  0  0  0  0  0  0  0  0  0
    5.4400    3.4850  -14.1200 C   0  0  0  0  0  0  0  0  0  0  0  0
    6.4130    2.4460  -14.0320 C   0  0  0  0  0  0  0  0  0  0  0  0
    5.0370    5.8370  -13.1510 F   0  0  0  0  0  0  0  0  0  0  0  0
    9.5250    6.6990  -10.8350 C   0  0  0  0  0  0  0  0  0  0  0  0
   11.1490    8.6490   -6.7490 C   0  0  0  0  0  0  0  0  0  0  0  0
    5.7230    4.6970  -13.4610 C   0  0  0  0  0  0  0  0  0  0  0  0
   10.9280   10.2340   -9.5200 S   0  0  0  0  0  0  0  0  0  0  0  0
    8.0710    5.8040   -7.3330 O   0  0  0  0  0  0  0  0  0  0  0  0
    7.6420    2.6930  -13.3920 N   0  0  0  0  0  0  0  0  0  0  0  0
  1 30  1  0
  2 23  1  0
  2  5  1  0
  3 25  1  0
  3 12  1  0
  4  9  1  0
  4 25  1  0
  5 13  2  0
  6 22  1  0
  8 28  1  0
 10  6  1  0
 11 26  1  0
 12 33  1  0
 12  8  1  0
 13  7  2  0
 14 33  1  0
 15 21  1  0
 15 32  1  0
 15 16  1  0
 16 27  1  0
 17 32  2  0
 18 35  1  0
 18 20  1  0
 19 11  1  0
 20 14  1  0
 22  7  1  0
 24 28  1  0
 24  2  1  0
 24 10  1  0
 25 36  2  0
 26  9  1  0
 27 35  1  0
 29 30  2  0
 29 34  1  0
 30 37  1  0
 32  4  1  0
 33 23  1  0
 34 31  1  0
 34 19  2  0
 37 11  2  0
M  END
$$$$

     RDKit          3D

 33 36  0  0  0  0  0  0  0  0999 V2000
   10.9950    7.4100   -8.7850 C   0  0  0  0  0  0  0  0  0  0  0  0
   12.7230    7.0370   -1.7720 C   0  0  0  0  0  0  0  0  0  0  0  0
    6.4990    5.5790  -13.0680 N   0  0  0  0  0  0  0  0  0  0  0  0
   11.2570    6.4400   -3.5070 C   0  0  0  0  0  0  0  0  0  0  0  0
   12.8400    7.7150   -0.6560 F   0  0  0  0  0  0  0  0  0  0  0  0
   11.5440   10.7350   -5.6850 C   0  0  0  0  0  0  0  0  0  0  0  0
   11.7180    9.0880   -2.5340 O   0  0  0  0  0  0  0  0  0  0  0  0
   11.9420    7.6290   -4.2210 C   0  0  0  0  0  0  0  0  0  0  0  0
   11.6550    7.6230   -7.4710 C   0  0  0  0  0  0  0  0  0  0  0  0
    5.3190    6.6160  -14.8040 F   0  0  0  0  0  0  0  0  0  0  0  0
   10.8830    9.5780   -5.4520 C   0  0  0  0  0  0  0  0  0  0  0  0
    9.7740    6.6250   -8.8250 C   0  0  0  0  0  0  0  0  0  0  0  0
    5.6570    5.5030  -10.7320 C   0  0  0  0  0  0  0  0  0  0  0  0
   12.6240    8.0730   -2.9050 C   0  0  0  0  0  0  0  0  0  0  0  0
    5.4050    5.2940  -12.1350 C   0  0  0  0  0  0  0  0  0  0  0  0
   10.9700    7.3250  -11.1950 C   0  0  0  0  0  0  0  0  0  0  0  0
    7.6970    7.7620  -12.2020 O   0  0  0  0  0  0  0  0  0  0  0  0
    5.5350    4.2290  -11.1960 C   0  0  0  0  0  0  0  0  0  0  0  0
    6.1410    7.0640  -13.7860 C   0  0  0  0  0  0  0  0  0  0  0  0
    9.0600    5.7710  -12.2970 C   0  0  0  0  0  0  0  0  0  0  0  0
    9.8860    6.3860  -11.2270 C   0  0  0  0  0  0  0  0  0  0  0  0
   11.5730    6.5440   -6.5960 C   0  0  0  0  0  0  0  0  0  0  0  0
    9.3690    6.0320   -9.9070 C   0  0  0  0  0  0  0  0  0  0  0  0
   12.0310    8.6650   -5.3580 C   0  0  0  0  0  0  0  0  0  0  0  0
   11.6140   11.7400   -6.1320 O   0  0  0  0  0  0  0  0  0  0  0  0
    7.4160    6.5920  -12.9840 C   0  0  0  0  0  0  0  0  0  0  0  0
   12.1990    8.5800   -6.9370 C   0  0  0  0  0  0  0  0  0  0  0  0
    7.0580    4.4450  -13.9860 C   0  0  0  0  0  0  0  0  0  0  0  0
    5.5550    8.0000  -13.0380 F   0  0  0  0  0  0  0  0  0  0  0  0
   11.5940    5.5810   -6.2070 N   0  0  0  0  0  0  0  0  0  0  0  0
   13.6690    5.8550   -1.7080 F   0  0  0  0  0  0  0  0  0  0  0  0
   11.5840    7.8020  -10.0310 C   0  0  0  0  0  0  0  0  0  0  0  0
   11.3810    6.3860   -2.0160 C   0  0  0  0  0  0  0  0  0  0  0  0
  1  9  1  0
  2 31  1  0
  2  5  1  0
  3 28  1  0
  3 26  1  0
  3 15  1  0
  4 33  1  0
  6 11  1  0
  8 24  1  0
  8  4  1  0
  8 14  1  0
  9 27  1  0
  9 22  1  0
 10 19  1  0
 11 24  1  0
 12  1  1  0
 14  7  1  0
 14  2  1  0
 15 18  1  0
 15 13  1  0
 16 32  1  0
 18 13  1  0
 19  3  1  0
 19 29  1  0
 19 26  1  0
 20 21  1  0
 21 16  2  0
 21 23  1  0
 22 30  3  0
 23 12  2  0
 24 27  1  0
 25  6  2  0
 26 20  1  0
 26 17  1  0
 32  1  2  0
 33  2  1  0
M  END
$$$$

     RDKit          3D

 26 29  0  0  0  0  0  0  0  0999 V2000
   12.8470    8.9370   -2.6050 C   0  0  0  0  0  0  0  0  0  0  0  0
   11.4150    7.5610   -8.5240 C   0  0  0  0  0  0  0  0  0  0  0  0
   11.1880    6.5560   -3.7710 C   0  0  0  0  0  0  0  0  0  0  0  0
   12.4360    6.0120   -2.7690 C   0  0  0  0  0  0  0  0  0  0  0  0
    5.6810    5.7060  -13.8980 C   0  0  0  0  0  0  0  0  0  0  0  0
    7.0910    5.0930  -13.9170 C   0  0  0  0  0  0  0  0  0  0  0  0
   10.9050    8.7770   -7.7370 C   0  0  0  0  0  0  0  0  0  0  0  0
    8.6590    6.1890  -10.8310 N   0  0  0  0  0  0  0  0  0  0  0  0
   10.2630    6.8220   -6.4070 C   0  0  0  0  0  0  0  0  0  0  0  0
    8.7980    4.7940  -10.2340 C   0  0  0  0  0  0  0  0  0  0  0  0
   11.2100    9.7420   -5.5900 C   0  0  0  0  0  0  0  0  0  0  0  0
   11.1470    8.1240   -6.0100 C   0  0  0  0  0  0  0  0  0  0  0  0
   11.7390    7.7090   -4.4520 C   0  0  0  0  0  0  0  0  0  0  0  0
   12.6430    6.8740   -1.5630 C   0  0  0  0  0  0  0  0  0  0  0  0
    9.3760    6.7260   -7.5750 C   0  0  0  0  0  0  0  0  0  0  0  0
   12.1050    9.0280   -3.7350 C   0  0  0  0  0  0  0  0  0  0  0  0
    7.5460    5.0480  -12.5820 O   0  0  0  0  0  0  0  0  0  0  0  0
    5.2680    6.1780  -15.1150 F   0  0  0  0  0  0  0  0  0  0  0  0
    4.8090    4.8180  -13.3900 F   0  0  0  0  0  0  0  0  0  0  0  0
    9.5270    7.2380  -10.1100 C   0  0  0  0  0  0  0  0  0  0  0  0
    8.2520    6.1440  -12.1760 C   0  0  0  0  0  0  0  0  0  0  0  0
   11.6820   10.1710   -4.5460 C   0  0  0  0  0  0  0  0  0  0  0  0
    7.6490    5.5030   -9.7090 O   0  0  0  0  0  0  0  0  0  0  0  0
   12.3030    8.1720   -1.4100 C   0  0  0  0  0  0  0  0  0  0  0  0
   10.2490    6.6790   -8.8090 C   0  0  0  0  0  0  0  0  0  0  0  0
    5.7760    6.9150  -13.0380 F   0  0  0  0  0  0  0  0  0  0  0  0
  1 24  1  0
  2  7  1  0
  3  4  1  0
  4 14  1  0
  5 19  1  0
  5 26  1  0
  6  5  1  0
  6 17  1  0
  8 10  1  0
  8 20  1  0
  8 23  1  0
  9 12  1  0
 10 23  1  0
 11 22  2  0
 12  7  1  0
 12 11  1  0
 12 13  1  0
 13  3  1  0
 13 16  1  0
 14 24  1  0
 15  9  1  0
 16 22  1  0
 16  1  1  0
 17 21  1  0
 18  5  1  0
 21  8  1  0
 25 20  1  0
 25  2  1  0
 25 15  1  0
M  END
$$$$

     RDKit          3D

 28 30  0  0  0  0  0  0  0  0999 V2000
    7.8290    5.1810  -12.9600 C   0  0  0  0  0  0  0  0  0  0  0  0
   11.8320    8.0140   -4.7720 C   0  0  0  0  0  0  0  0  0  0  0  0
    6.5520    6.7230  -13.9010 N   0  0  0  0  0  0  0  0  0  0  0  0
   10.2620    6.6340   -6.9210 C   0  0  0  0  0  0  0  0  0  0  0  0
    6.9950    5.1310  -15.3880 O   0  0  0  0  0  0  0  0  0  0  0  0
    6.5220    4.4960  -12.5520 C   0  0  0  0  0  0  0  0  0  0  0  0
   10.7440    5.8910   -5.5670 S   0  0  0  0  0  0  0  0  0  0  0  0
   12.1780    9.6070   -1.5450 O   0  0  0  0  0  0  0  0  0  0  0  0
   12.0030    8.2090   -6.3210 O   0  0  0  0  0  0  0  0  0  0  0  0
    9.2190    6.0440   -7.5360 C   0  0  0  0  0  0  0  0  0  0  0  0
    9.5840    6.2590  -11.3970 C   0  0  0  0  0  0  0  0  0  0  0  0
   11.9210    6.2700   -3.0990 C   0  0  0  0  0  0  0  0  0  0  0  0
   11.9420    9.0770   -3.8200 C   0  0  0  0  0  0  0  0  0  0  0  0
    8.9580    5.5700   -8.9080 C   0  0  0  0  0  0  0  0  0  0  0  0
    8.2960    4.2640   -9.1050 C   0  0  0  0  0  0  0  0  0  0  0  0
    6.5400    6.5420  -15.0740 C   0  0  0  0  0  0  0  0  0  0  0  0
   11.5400    6.7690   -4.4350 C   0  0  0  0  0  0  0  0  0  0  0  0
    7.5350    6.5690  -12.7770 C   0  0  0  0  0  0  0  0  0  0  0  0
    9.5120    6.5040   -9.8840 C   0  0  0  0  0  0  0  0  0  0  0  0
    5.8840    7.4170  -16.0740 C   0  0  0  0  0  0  0  0  0  0  0  0
   12.9980    6.8200   -0.7880 Cl  0  0  0  0  0  0  0  0  0  0  0  0
   10.6890    8.0920   -6.9450 C   0  0  0  0  0  0  0  0  0  0  0  0
    8.9340    4.9920  -11.9730 C   0  0  0  0  0  0  0  0  0  0  0  0
   12.2690    7.2290   -2.1950 C   0  0  0  0  0  0  0  0  0  0  0  0
   12.1140    8.6480   -2.4770 C   0  0  0  0  0  0  0  0  0  0  0  0
   10.2320    7.1040  -12.0600 O   0  0  0  0  0  0  0  0  0  0  0  0
   10.6660    8.4940   -8.4040 C   0  0  0  0  0  0  0  0  0  0  0  0
   10.1680    7.7880   -9.3640 C   0  0  0  0  0  0  0  0  0  0  0  0
  1 18  1  0
  1  6  1  0
  1 23  1  0
  2 17  1  0
  2 13  1  0
  3 18  1  0
  4 10  1  0
  4  7  1  0
  5 16  2  0
  7 17  1  0
  9  2  1  0
 11 19  1  0
 12 24  1  0
 13 25  1  0
 14 10  1  0
 15 14  1  0
 16  3  1  0
 17 12  2  0
 19 28  1  0
 19 14  2  0
 20 16  1  0
 22 27  1  0
 22  4  1  0
 22  9  1  0
 23 11  1  0
 24 21  1  0
 25 24  1  0
 25  8  1  0
 26 11  2  0
 28 27  2  0
M  END
$$$$

     RDKit          3D

 35 39  0  0  0  0  0  0  0  0999 V2000
   12.0070    9.4920   -3.6750 C   0  0  0  0  0  0  0  0  0  0  0  0
   11.7400    8.3200   -4.5190 C   0  0  0  0  0  0  0  0  0  0  0  0
   13.9510    8.2430   -0.1610 F   0  0  0  0  0  0  0  0  0  0  0  0
    7.4870    5.0660   -8.6690 O   0  0  0  0  0  0  0  0  0  0  0  0
    5.1820    5.1390  -10.7180 C   0  0  0  0  0  0  0  0  0  0  0  0
   11.5640    6.1460   -4.8120 C   0  0  0  0  0  0  0  0  0  0  0  0
   11.8720    7.1070   -3.9400 C   0  0  0  0  0  0  0  0  0  0  0  0
   12.1430    7.6480    0.1630 F   0  0  0  0  0  0  0  0  0  0  0  0
    5.2970    4.9000  -12.9100 C   0  0  0  0  0  0  0  0  0  0  0  0
    9.9370    7.7050   -8.8370 C   0  0  0  0  0  0  0  0  0  0  0  0
   12.9460    7.5690   -0.6060 C   0  0  0  0  0  0  0  0  0  0  0  0
   10.2380    6.5070  -12.3040 C   0  0  0  0  0  0  0  0  0  0  0  0
    5.6640    3.3760  -12.7730 C   0  0  0  0  0  0  0  0  0  0  0  0
    7.2500    3.2060  -12.9080 C   0  0  0  0  0  0  0  0  0  0  0  0
    5.8880    6.0910  -11.4650 C   0  0  0  0  0  0  0  0  0  0  0  0
   12.5750    7.9860   -1.9280 C   0  0  0  0  0  0  0  0  0  0  0  0
   11.3690    8.3120   -5.8500 C   0  0  0  0  0  0  0  0  0  0  0  0
   11.1640    6.2820   -6.0170 C   0  0  0  0  0  0  0  0  0  0  0  0
   11.1960    7.1100  -12.1700 O   0  0  0  0  0  0  0  0  0  0  0  0
    9.7300    5.8090   -7.7420 O   0  0  0  0  0  0  0  0  0  0  0  0
    8.4350    6.7050  -10.5940 C   0  0  0  0  0  0  0  0  0  0  0  0
    6.6490    5.5380  -12.4510 C   0  0  0  0  0  0  0  0  0  0  0  0
   10.1970    7.1240   -7.4290 C   0  0  0  0  0  0  0  0  0  0  0  0
   13.2690    6.2850   -0.4510 F   0  0  0  0  0  0  0  0  0  0  0  0
    8.0830    7.6200  -12.6290 C   0  0  0  0  0  0  0  0  0  0  0  0
    7.4500    4.4640  -12.4580 C   0  0  0  0  0  0  0  0  0  0  0  0
   10.0850    5.5120  -11.4540 C   0  0  0  0  0  0  0  0  0  0  0  0
    8.6210    5.6530   -9.1660 P   0  0  0  0  0  0  0  0  0  0  0  0
    9.1910    7.2420  -11.2670 C   0  0  0  0  0  0  0  0  0  0  0  0
    6.9780    6.8020  -13.3790 C   0  0  0  0  0  0  0  0  0  0  0  0
   10.3880    7.0930   -9.8080 O   0  0  0  0  0  0  0  0  0  0  0  0
   12.5080    9.3630   -2.3790 C   0  0  0  0  0  0  0  0  0  0  0  0
   12.2900    6.8850   -2.6640 C   0  0  0  0  0  0  0  0  0  0  0  0
   11.0100    7.3110   -6.4820 N   0  0  0  0  0  0  0  0  0  0  0  0
    9.1870    5.1080  -10.5510 C   0  0  0  0  0  0  0  0  0  0  0  0
  1 32  2  0
  2  7  1  0
  2  1  1  0
  7  6  1  0
  7 33  1  0
  9 13  1  0
  9 22  1  0
 10 23  1  0
 11 24  1  0
 11  3  1  0
 11  8  1  0
 12 19  1  0
 12 27  1  0
 12 29  1  0
 14 13  1  0
 14 26  1  0
 15  5  1  0
 16 11  1  0
 17  2  2  0
 18  6  2  0
 20 23  1  0
 21 35  1  0
 21 28  1  0
 22 15  1  0
 23 34  1  0
 25 29  1  0
 26 22  1  0
 27 35  1  0
 28  4  2  0
 28 20  1  0
 29 21  1  0
 30 25  1  0
 30 22  1  0
 31 10  2  0
 32 16  1  0
 33 16  2  0
 34 18  1  0
 34 17  1  0
 35 28  1  0
M  END
$$$$

     RDKit          3D

 42 47  0  0  0  0  0  0  0  0999 V2000
   12.6310    9.0080   -2.6280 C   0  0  0  0  0  0  0  0  0  0  0  0
   11.6800   10.7290   -3.9050 C   0  0  0  0  0  0  0  0  0  0  0  0
    7.3030    2.0010  -13.0730 C   0  0  0  0  0  0  0  0  0  0  0  0
   14.5800    9.4310   -1.1170 F   0  0  0  0  0  0  0  0  0  0  0  0
   11.3510    6.8600   -0.9020 O   0  0  0  0  0  0  0  0  0  0  0  0
    7.1620    5.1160  -12.5170 C   0  0  0  0  0  0  0  0  0  0  0  0
   12.8860    8.2840   -3.6150 C   0  0  0  0  0  0  0  0  0  0  0  0
   12.5370    9.3280   -0.4970 F   0  0  0  0  0  0  0  0  0  0  0  0
   12.5090    8.6800   -4.7560 C   0  0  0  0  0  0  0  0  0  0  0  0
    8.2120    4.8350   -9.4640 C   0  0  0  0  0  0  0  0  0  0  0  0
    9.8030    6.6120   -7.3060 C   0  0  0  0  0  0  0  0  0  0  0  0
   10.3770    7.7160   -8.8040 C   0  0  0  0  0  0  0  0  0  0  0  0
    9.5970    6.5700   -8.5340 C   0  0  0  0  0  0  0  0  0  0  0  0
    9.6680    5.2020  -11.4650 O   0  0  0  0  0  0  0  0  0  0  0  0
    6.8640    3.0200  -14.0960 C   0  0  0  0  0  0  0  0  0  0  0  0
   13.3160    8.7100   -1.3220 C   0  0  0  0  0  0  0  0  0  0  0  0
   12.5810    6.5090   -1.2280 C   0  0  0  0  0  0  0  0  0  0  0  0
   12.0290   10.1750   -2.8090 C   0  0  0  0  0  0  0  0  0  0  0  0
    8.5140    5.0570   -7.4360 O   0  0  0  0  0  0  0  0  0  0  0  0
    8.9160    6.2090  -11.0920 C   0  0  0  0  0  0  0  0  0  0  0  0
   13.7070    7.3860   -1.2210 O   0  0  0  0  0  0  0  0  0  0  0  0
    6.4970    5.7070  -14.9700 C   0  0  0  0  0  0  0  0  0  0  0  0
   10.8080    7.0720   -6.3300 C   0  0  0  0  0  0  0  0  0  0  0  0
    7.7090    4.9500  -15.1710 C   0  0  0  0  0  0  0  0  0  0  0  0
   10.1360    8.7900   -8.6230 C   0  0  0  0  0  0  0  0  0  0  0  0
    8.8820    7.4370  -12.0310 C   0  0  0  0  0  0  0  0  0  0  0  0
   12.9900    5.4800   -1.6690 O   0  0  0  0  0  0  0  0  0  0  0  0
   11.2270    8.5960   -6.6120 C   0  0  0  0  0  0  0  0  0  0  0  0
    7.0410    6.1890  -13.6050 C   0  0  0  0  0  0  0  0  0  0  0  0
    5.5820    3.3810  -13.9110 C   0  0  0  0  0  0  0  0  0  0  0  0
    8.1080    8.5650  -12.0950 O   0  0  0  0  0  0  0  0  0  0  0  0
    7.6820    5.5080  -10.7980 C   0  0  0  0  0  0  0  0  0  0  0  0
    7.8830    3.5220  -14.7300 C   0  0  0  0  0  0  0  0  0  0  0  0
   11.4210   10.5990   -5.2190 C   0  0  0  0  0  0  0  0  0  0  0  0
   10.7680    9.2040   -7.4750 C   0  0  0  0  0  0  0  0  0  0  0  0
    8.3400    2.1200  -12.5300 O   0  0  0  0  0  0  0  0  0  0  0  0
   11.8220    9.1750   -5.6240 C   0  0  0  0  0  0  0  0  0  0  0  0
    9.3870    7.0860   -9.7810 C   0  0  0  0  0  0  0  0  0  0  0  0
    8.8290    5.4050   -8.4640 C   0  0  0  0  0  0  0  0  0  0  0  0
    4.9360    4.5130  -13.1440 C   0  0  0  0  0  0  0  0  0  0  0  0
    5.7120    4.9450  -11.9570 C   0  0  0  0  0  0  0  0  0  0  0  0
    8.2770    5.5000  -13.2640 C   0  0  0  0  0  0  0  0  0  0  0  0
  1 16  1  0
  2 18  1  0
  3 36  2  0
  6 42  1  0
  6 41  1  0
  6 32  1  0
  7  1  1  0
  9  7  2  0
 10 39  1  0
 11 23  1  0
 12 25  1  0
 12 13  1  0
 13 39  1  0
 13 11  1  0
 15 30  1  0
 15  3  1  0
 16 21  1  0
 16  4  1  0
 16  8  1  0
 17 21  1  0
 17  5  1  0
 18  1  2  0
 20 14  1  0
 20 32  1  0
 20 38  1  0
 24 22  1  0
 24 33  1  0
 25 35  1  0
 26 20  1  0
 27 17  2  0
 28 23  1  0
 28 37  1  0
 29 22  1  0
 29 42  1  0
 29  6  1  0
 30 40  1  0
 31 26  1  0
 32 10  1  0
 33 15  1  0
 34  2  1  0
 35 28  1  0
 37 34  1  0
 37  9  2  0
 38 12  1  0
 38 13  1  0
 39 19  2  0
 40 41  1  0
M  END
$$$$

     RDKit          3D

 27 31  0  0  0  0  0  0  0  0999 V2000
    8.0230    6.7380  -12.8060 C   0  0  0  0  0  0  0  0  0  0  0  0
   13.4230    8.6000   -0.8450 O   0  0  0  0  0  0  0  0  0  0  0  0
    5.9930    1.9240  -14.2250 C   0  0  0  0  0  0  0  0  0  0  0  0
   10.6020    8.0850   -7.4410 C   0  0  0  0  0  0  0  0  0  0  0  0
   11.9770    8.2870   -4.9440 C   0  0  0  0  0  0  0  0  0  0  0  0
   11.0650    6.7950   -6.5620 C   0  0  0  0  0  0  0  0  0  0  0  0
    6.4260    7.2090  -13.5060 S   0  0  0  0  0  0  0  0  0  0  0  0
   11.8240    6.3270   -3.4290 S   0  0  0  0  0  0  0  0  0  0  0  0
   12.7330    6.7410   -1.3010 O   0  0  0  0  0  0  0  0  0  0  0  0
    9.5110    6.5760  -10.7190 C   0  0  0  0  0  0  0  0  0  0  0  0
   11.4480    9.4910   -5.6020 C   0  0  0  0  0  0  0  0  0  0  0  0
    9.9610    6.6570   -9.2830 C   0  0  0  0  0  0  0  0  0  0  0  0
    7.2920    4.5210  -13.7410 C   0  0  0  0  0  0  0  0  0  0  0  0
    8.7120    5.8540   -8.8520 C   0  0  0  0  0  0  0  0  0  0  0  0
   10.3900    7.9790   -8.9940 C   0  0  0  0  0  0  0  0  0  0  0  0
    9.3380    7.2800  -11.8140 C   0  0  0  0  0  0  0  0  0  0  0  0
   12.2300    8.8300   -3.5400 C   0  0  0  0  0  0  0  0  0  0  0  0
    5.5840    6.4370  -14.7230 C   0  0  0  0  0  0  0  0  0  0  0  0
    6.4110    5.3440  -14.9240 C   0  0  0  0  0  0  0  0  0  0  0  0
    7.8040    5.1550   -9.9030 C   0  0  0  0  0  0  0  0  0  0  0  0
   11.1250    7.1220   -4.9530 C   0  0  0  0  0  0  0  0  0  0  0  0
    8.2950    5.2900  -13.0310 C   0  0  0  0  0  0  0  0  0  0  0  0
   12.8220    7.6390   -1.4180 C   0  0  0  0  0  0  0  0  0  0  0  0
   11.9750    7.6710   -2.5490 C   0  0  0  0  0  0  0  0  0  0  0  0
    8.6440    4.9130  -11.1950 C   0  0  0  0  0  0  0  0  0  0  0  0
   11.3190    9.3430   -6.9840 C   0  0  0  0  0  0  0  0  0  0  0  0
    6.9780    2.8210  -13.1240 S   0  0  0  0  0  0  0  0  0  0  0  0
  1 16  1  0
  3 27  1  0
  4 15  1  0
  4 26  1  0
  4  6  1  0
  5 11  1  0
  5 17  1  0
  7  1  1  0
  8 24  1  0
 10 16  1  0
 10 12  1  0
 12 15  1  0
 12 14  1  0
 13 27  1  0
 13 22  1  0
 17 24  1  0
 18  7  1  0
 19 18  1  0
 19 13  1  0
 20 14  1  0
 21  6  1  0
 21  5  1  0
 21  8  1  0
 22  1  1  0
 22 25  1  0
 23  9  2  0
 23  2  1  0
 24 23  1  0
 25 10  1  0
 25 20  1  0
 26 11  1  0
M  END
$$$$

     RDKit          3D

 25 28  0  0  0  0  0  0  0  0999 V2000
   11.0370    7.2500   -6.1050 C   0  0  0  0  0  0  0  0  0  0  0  0
   12.6860    8.5760   -2.2150 C   0  0  0  0  0  0  0  0  0  0  0  0
   11.5660    6.4970   -3.9310 C   0  0  0  0  0  0  0  0  0  0  0  0
    9.8400    7.1880  -10.9840 C   0  0  0  0  0  0  0  0  0  0  0  0
   11.2990    9.4520   -6.8600 C   0  0  0  0  0  0  0  0  0  0  0  0
   10.9780    8.1770   -7.0770 C   0  0  0  0  0  0  0  0  0  0  0  0
   12.4720    7.3140   -1.8240 C   0  0  0  0  0  0  0  0  0  0  0  0
   10.6190    7.6790   -8.3470 C   0  0  0  0  0  0  0  0  0  0  0  0
    9.0600    7.0470  -12.3350 C   0  0  0  0  0  0  0  0  0  0  0  0
   11.9330    6.3550   -2.6370 C   0  0  0  0  0  0  0  0  0  0  0  0
    6.7590    4.2260  -12.0000 C   0  0  0  0  0  0  0  0  0  0  0  0
   11.7570    9.8210   -5.6230 C   0  0  0  0  0  0  0  0  0  0  0  0
    7.7960    6.4300  -12.1280 C   0  0  0  0  0  0  0  0  0  0  0  0
   11.4950    7.4970   -4.8390 C   0  0  0  0  0  0  0  0  0  0  0  0
   12.4180    9.1440   -3.4090 C   0  0  0  0  0  0  0  0  0  0  0  0
    6.7150    7.8110  -13.6560 F   0  0  0  0  0  0  0  0  0  0  0  0
    7.7450    5.1160  -11.4260 C   0  0  0  0  0  0  0  0  0  0  0  0
    9.0230    6.5790   -9.9470 N   0  0  0  0  0  0  0  0  0  0  0  0
    5.4460    5.0030  -11.7400 C   0  0  0  0  0  0  0  0  0  0  0  0
    9.5730    6.7190   -8.5800 C   0  0  0  0  0  0  0  0  0  0  0  0
    6.2020    5.7100  -14.0990 F   0  0  0  0  0  0  0  0  0  0  0  0
   11.9340    8.7850   -4.6010 C   0  0  0  0  0  0  0  0  0  0  0  0
    5.4420    6.3720  -12.1980 O   0  0  0  0  0  0  0  0  0  0  0  0
    6.5700    6.5680  -13.0680 C   0  0  0  0  0  0  0  0  0  0  0  0
    8.5940    5.1430  -10.1980 C   0  0  0  0  0  0  0  0  0  0  0  0
  1 14  1  0
  2  7  1  0
  3 10  2  0
  4 18  1  0
  5 12  2  0
  6  5  1  0
  6  1  2  0
  8  6  1  0
  9  4  1  0
 10  7  1  0
 11 19  1  0
 12 22  1  0
 13  9  1  0
 13 17  1  0
 14 22  2  0
 14  3  1  0
 15  2  2  0
 16 24  1  0
 17 11  1  0
 17 25  1  0
 18 20  1  0
 20  8  2  3
 21 24  1  0
 22 15  1  0
 23 19  1  0
 24 23  1  0
 24 13  1  0
 25 18  1  0
M  END
$$$$

     RDKit          3D

 23 26  0  0  0  0  0  0  0  0999 V2000
   10.7820    6.2380   -6.6750 C   0  0  0  0  0  0  0  0  0  0  0  0
   12.6920    7.7220   -9.3190 C   0  0  0  0  0  0  0  0  0  0  0  0
   12.3020    9.4360   -2.2590 C   0  0  0  0  0  0  0  0  0  0  0  0
   11.9820    8.1650   -2.3470 C   0  0  0  0  0  0  0  0  0  0  0  0
   12.1070    8.3360   -4.4340 C   0  0  0  0  0  0  0  0  0  0  0  0
    9.0660    6.0960   -8.5980 C   0  0  0  0  0  0  0  0  0  0  0  0
   11.7230    8.1470   -8.1110 C   0  0  0  0  0  0  0  0  0  0  0  0
   13.0880    9.8530   -1.2150 C   0  0  0  0  0  0  0  0  0  0  0  0
   13.0900    7.7840   -0.4230 C   0  0  0  0  0  0  0  0  0  0  0  0
   12.4210    7.3160   -1.9230 C   0  0  0  0  0  0  0  0  0  0  0  0
   11.4800   10.6850   -5.1590 C   0  0  0  0  0  0  0  0  0  0  0  0
   13.5900    8.8480   -0.2400 C   0  0  0  0  0  0  0  0  0  0  0  0
    8.7630    5.0590   -7.3940 C   0  0  0  0  0  0  0  0  0  0  0  0
   11.9030    6.7480   -2.8970 C   0  0  0  0  0  0  0  0  0  0  0  0
   11.5030    7.0680   -4.2170 C   0  0  0  0  0  0  0  0  0  0  0  0
   14.4310    9.3160    0.7970 N   0  0  0  0  0  0  0  0  0  0  0  0
   11.3070    9.5970   -8.1550 C   0  0  0  0  0  0  0  0  0  0  0  0
   11.2720    8.9680   -5.8780 C   0  0  0  0  0  0  0  0  0  0  0  0
    8.4580    5.0060   -8.9500 C   0  0  0  0  0  0  0  0  0  0  0  0
    9.5390    7.2410   -8.3670 O   0  0  0  0  0  0  0  0  0  0  0  0
   10.8040    6.7990   -7.9260 C   0  0  0  0  0  0  0  0  0  0  0  0
    9.4720    5.8080   -6.3550 C   0  0  0  0  0  0  0  0  0  0  0  0
   11.9700    9.0960   -7.0090 N   0  0  0  0  0  0  0  0  0  0  0  0
  1 22  1  0
  3  8  1  0
  4  3  2  0
  4 10  1  0
  5 15  1  0
  6 19  1  0
  6 20  1  0
  6 13  1  0
  7  2  1  0
  7 21  1  0
  7 23  1  0
  8 12  2  0
  9 12  1  0
 10  9  2  0
 12 16  1  0
 13 19  1  0
 13 22  1  0
 14 10  1  0
 15 14  1  0
 17  7  1  0
 17 23  1  0
 18 11  1  0
 18  5  1  0
 20 21  1  0
 21  1  1  0
 23 18  1  0
M  END
$$$$

     RDKit          3D

 26 28  0  0  0  0  0  0  0  0999 V2000
    9.0270    6.6610  -11.5570 N   0  0  0  0  0  0  0  0  0  0  0  0
    8.9610    4.8980   -8.1220 C   0  0  0  0  0  0  0  0  0  0  0  0
   13.0390    8.0240   -0.8220 C   0  0  0  0  0  0  0  0  0  0  0  0
   11.3460    7.7920   -5.2480 C   0  0  0  0  0  0  0  0  0  0  0  0
   11.3740    9.1750   -5.1220 C   0  0  0  0  0  0  0  0  0  0  0  0
    6.8710    4.7200  -13.8540 C   0  0  0  0  0  0  0  0  0  0  0  0
   12.5730    9.3220   -1.5080 N   0  0  0  0  0  0  0  0  0  0  0  0
    6.1540    5.5970  -14.5970 C   0  0  0  0  0  0  0  0  0  0  0  0
   12.0830    7.5440   -2.9430 C   0  0  0  0  0  0  0  0  0  0  0  0
    5.1370    7.5660  -14.7680 F   0  0  0  0  0  0  0  0  0  0  0  0
    9.1320    6.0810   -7.2700 N   0  0  0  0  0  0  0  0  0  0  0  0
    7.1650    7.4570  -12.9640 C   0  0  0  0  0  0  0  0  0  0  0  0
    7.9970    5.0560  -13.1150 C   0  0  0  0  0  0  0  0  0  0  0  0
   12.1220    8.9970   -2.8090 C   0  0  0  0  0  0  0  0  0  0  0  0
   11.0360    6.6780  -11.8720 O   0  0  0  0  0  0  0  0  0  0  0  0
    8.9190    5.2000   -9.6180 C   0  0  0  0  0  0  0  0  0  0  0  0
    8.0540    6.4090  -12.5890 C   0  0  0  0  0  0  0  0  0  0  0  0
    8.8820    6.7020  -10.1190 C   0  0  0  0  0  0  0  0  0  0  0  0
   10.3290    6.4800   -7.2080 C   0  0  0  0  0  0  0  0  0  0  0  0
    7.4810    4.6440   -9.9820 C   0  0  0  0  0  0  0  0  0  0  0  0
   11.6340    6.9350   -4.1140 C   0  0  0  0  0  0  0  0  0  0  0  0
   12.5260    6.8850   -1.7040 C   0  0  0  0  0  0  0  0  0  0  0  0
    9.9980    6.5370  -11.8240 N   0  0  0  0  0  0  0  0  0  0  0  0
   11.8010    9.8040   -3.9300 C   0  0  0  0  0  0  0  0  0  0  0  0
    6.2110    7.0260  -13.9710 C   0  0  0  0  0  0  0  0  0  0  0  0
   11.0780    7.0580   -6.4450 C   0  0  0  0  0  0  0  0  0  0  0  0
  1 18  1  0
  2 11  1  0
  4  5  2  0
  4 21  1  0
  5 24  1  0
  6 13  1  0
  7  3  1  0
  8 25  1  0
  8  6  1  0
  9 14  1  0
  9 22  1  0
 11 19  1  0
 12 17  1  0
 13 17  2  0
 14  7  1  0
 15 23  1  0
 16 20  1  0
 16  2  1  0
 17  1  1  0
 18 16  1  0
 19 26  2  3
 21  9  2  0
 22  3  1  0
 23  1  1  0
 24 14  2  0
 25 10  1  0
 25 12  1  0
 26  4  1  0
M  END
$$$$

     RDKit          3D

 28 31  0  0  0  0  0  0  0  0999 V2000
   10.6800    6.9410   -6.6000 C   0  0  0  0  0  0  0  0  0  0  0  0
   12.5750    9.4040   -0.5610 O   0  0  0  0  0  0  0  0  0  0  0  0
   10.6780    7.2740  -11.8190 O   0  0  0  0  0  0  0  0  0  0  0  0
   11.9160    6.5550   -3.3280 C   0  0  0  0  0  0  0  0  0  0  0  0
    7.6690    4.9960  -10.3870 C   0  0  0  0  0  0  0  0  0  0  0  0
   10.9070    6.3040   -4.2310 O   0  0  0  0  0  0  0  0  0  0  0  0
   11.6010    6.7310  -12.5630 C   0  0  0  0  0  0  0  0  0  0  0  0
    5.8550    6.1840  -13.3840 C   0  0  0  0  0  0  0  0  0  0  0  0
    8.0290    5.2010   -8.8180 S   0  0  0  0  0  0  0  0  0  0  0  0
    9.2700    6.3750   -9.3330 C   0  0  0  0  0  0  0  0  0  0  0  0
    7.2040    3.7050  -12.6090 C   0  0  0  0  0  0  0  0  0  0  0  0
   12.6470    8.5180   -1.3870 C   0  0  0  0  0  0  0  0  0  0  0  0
   10.4610    7.9180   -9.0600 S   0  0  0  0  0  0  0  0  0  0  0  0
    9.1770    5.8200  -10.6100 C   0  0  0  0  0  0  0  0  0  0  0  0
    5.5470    5.3280  -12.1180 C   0  0  0  0  0  0  0  0  0  0  0  0
   12.7460    7.3070   -1.1400 O   0  0  0  0  0  0  0  0  0  0  0  0
   12.1330    9.3680   -5.8130 C   0  0  0  0  0  0  0  0  0  0  0  0
   12.2410    7.9750   -3.5960 N   0  0  0  0  0  0  0  0  0  0  0  0
   11.7890    8.2500   -4.8640 C   0  0  0  0  0  0  0  0  0  0  0  0
   10.9310    8.0310   -7.5620 C   0  0  0  0  0  0  0  0  0  0  0  0
    6.2270    5.3550  -14.5010 O   0  0  0  0  0  0  0  0  0  0  0  0
    8.5610    8.1780  -11.6860 C   0  0  0  0  0  0  0  0  0  0  0  0
   12.9440    8.8670   -2.8140 C   0  0  0  0  0  0  0  0  0  0  0  0
   11.0570    7.1720   -5.3430 C   0  0  0  0  0  0  0  0  0  0  0  0
   11.6190    9.1740   -7.0910 C   0  0  0  0  0  0  0  0  0  0  0  0
    6.6300    4.2080  -13.9290 C   0  0  0  0  0  0  0  0  0  0  0  0
    6.8720    4.8290  -11.6070 N   0  0  0  0  0  0  0  0  0  0  0  0
    9.3050    6.8940  -11.7220 C   0  0  0  0  0  0  0  0  0  0  0  0
  1 24  1  0
  3 28  1  0
  5 27  1  0
  5  9  1  0
  6  4  1  0
  7  3  1  0
  8 15  1  0
 10 13  1  0
 10  9  1  0
 11 27  1  0
 12 16  2  0
 12  2  1  0
 13 20  1  0
 14 28  1  0
 14  5  1  0
 14 10  1  0
 15 27  1  0
 17 19  1  0
 18  4  1  0
 18 23  1  0
 19 18  1  0
 20 25  1  0
 20  1  2  0
 21 26  1  0
 21  8  1  0
 23 12  1  0
 24 19  2  0
 24  6  1  0
 25 17  2  0
 26 11  1  0
 28 22  1  0
M  END
$$$$

     RDKit          3D

 27 30  0  0  0  0  0  0  0  0999 V2000
    8.6880    5.0710   -9.7480 C   0  0  0  0  0  0  0  0  0  0  0  0
   12.0630    8.1520   -9.0330 C   0  0  0  0  0  0  0  0  0  0  0  0
    6.8460    6.3440  -13.4990 C   0  0  0  0  0  0  0  0  0  0  0  0
   11.0240    8.0440   -6.7080 N   0  0  0  0  0  0  0  0  0  0  0  0
    7.1550    4.6970  -11.8610 C   0  0  0  0  0  0  0  0  0  0  0  0
    7.1430    2.5390  -13.3360 C   0  0  0  0  0  0  0  0  0  0  0  0
    7.1350    6.1210  -12.3050 C   0  0  0  0  0  0  0  0  0  0  0  0
   10.8770    6.3520   -5.1020 O   0  0  0  0  0  0  0  0  0  0  0  0
    7.4900    4.0050  -13.2050 C   0  0  0  0  0  0  0  0  0  0  0  0
    8.4470    6.8900  -12.2570 C   0  0  0  0  0  0  0  0  0  0  0  0
    6.3540    4.9050  -14.3840 S   0  0  0  0  0  0  0  0  0  0  0  0
    6.1420    7.6470  -14.1700 C   0  0  0  0  0  0  0  0  0  0  0  0
   11.8900    6.5680   -2.8920 C   0  0  0  0  0  0  0  0  0  0  0  0
   12.4750    7.4050   -1.9150 C   0  0  0  0  0  0  0  0  0  0  0  0
   10.6960    8.0860   -8.1710 C   0  0  0  0  0  0  0  0  0  0  0  0
    9.2530    6.5210   -7.1290 C   0  0  0  0  0  0  0  0  0  0  0  0
   11.3430    8.9920   -5.8000 C   0  0  0  0  0  0  0  0  0  0  0  0
    7.5160    4.8910  -10.3810 N   0  0  0  0  0  0  0  0  0  0  0  0
    9.2280    4.1130   -9.2710 O   0  0  0  0  0  0  0  0  0  0  0  0
   11.5130    7.1220   -4.1670 C   0  0  0  0  0  0  0  0  0  0  0  0
   12.5740    8.8170   -2.1960 C   0  0  0  0  0  0  0  0  0  0  0  0
   12.2240    9.3210   -3.4090 C   0  0  0  0  0  0  0  0  0  0  0  0
   10.0720    6.7190   -8.3860 C   0  0  0  0  0  0  0  0  0  0  0  0
    9.2060    6.3690   -9.4980 N   0  0  0  0  0  0  0  0  0  0  0  0
   10.4570    6.8080   -6.3020 C   0  0  0  0  0  0  0  0  0  0  0  0
   11.6830    8.5200   -4.4590 C   0  0  0  0  0  0  0  0  0  0  0  0
   11.5020   10.1030   -6.1280 O   0  0  0  0  0  0  0  0  0  0  0  0
  1 24  1  0
  1 19  2  0
  3 12  1  0
  3  7  1  0
  4 25  1  0
  4 17  1  0
  5 18  1  0
  7 10  1  0
  7  5  1  0
  8 20  1  0
  9  6  1  0
  9  5  1  0
 11  3  1  0
 11  9  1  0
 13 14  1  0
 15  2  1  0
 15  4  1  0
 17 26  1  0
 18  1  1  0
 20 13  2  0
 21 14  2  0
 22 21  1  0
 23 24  1  0
 23 15  1  0
 23 16  1  0
 25 16  1  0
 25  8  1  0
 26 20  1  0
 26 22  2  0
 27 17  2  0
M  END
$$$$

     RDKit          3D

 22 23  0  0  0  0  0  0  0  0999 V2000
   11.8600    8.8020   -3.8540 C   0  0  0  0  0  0  0  0  0  0  0  0
    6.2600    5.6370  -13.4150 C   0  0  0  0  0  0  0  0  0  0  0  0
   11.2870    6.2740   -5.9860 C   0  0  0  0  0  0  0  0  0  0  0  0
   12.2290    9.5830   -2.8320 C   0  0  0  0  0  0  0  0  0  0  0  0
   11.7630    7.4710   -3.7050 C   0  0  0  0  0  0  0  0  0  0  0  0
    6.7010    3.2660  -14.0390 C   0  0  0  0  0  0  0  0  0  0  0  0
   11.4120    6.6090   -4.7580 C   0  0  0  0  0  0  0  0  0  0  0  0
   10.4290    6.5160   -8.1800 C   0  0  0  0  0  0  0  0  0  0  0  0
   12.6370    9.0540   -1.5960 C   0  0  0  0  0  0  0  0  0  0  0  0
    8.2320    6.5410  -12.0260 C   0  0  0  0  0  0  0  0  0  0  0  0
    9.1540    6.1670  -10.5370 S   0  0  0  0  0  0  0  0  0  0  0  0
   12.0390    6.8500   -2.5020 C   0  0  0  0  0  0  0  0  0  0  0  0
    6.4730    7.0110  -14.2770 C   0  0  0  0  0  0  0  0  0  0  0  0
    7.1540    4.2120  -11.8370 C   0  0  0  0  0  0  0  0  0  0  0  0
    8.1790    7.6190  -12.3730 O   0  0  0  0  0  0  0  0  0  0  0  0
   11.2690    7.0930   -7.2500 C   0  0  0  0  0  0  0  0  0  0  0  0
    7.6120    5.3550  -12.7950 C   0  0  0  0  0  0  0  0  0  0  0  0
   10.2540    7.1030   -9.5980 C   0  0  0  0  0  0  0  0  0  0  0  0
   12.4850    7.6510   -1.4860 C   0  0  0  0  0  0  0  0  0  0  0  0
    9.7790    8.5270   -9.5620 C   0  0  0  0  0  0  0  0  0  0  0  0
    5.9840    4.5870  -14.4970 C   0  0  0  0  0  0  0  0  0  0  0  0
    6.4590    3.1620  -12.6120 C   0  0  0  0  0  0  0  0  0  0  0  0
  1  5  2  0
  1  4  1  0
  2 13  1  0
  2 17  1  0
  3  7  1  0
  4  9  2  0
  5 12  1  0
  6 22  1  0
  7  5  1  0
  8 16  1  0
  9 19  1  0
 10 11  1  0
 11 18  1  0
 12 19  2  0
 15 10  2  0
 16  3  1  0
 17 10  1  0
 17 14  1  0
 18 20  1  0
 18  8  1  0
 21  6  1  0
 21  2  1  0
 22 14  1  0
M  END
$$$$

     RDKit          3D

 36 40  0  0  0  0  0  0  0  0999 V2000
    8.3360    8.6220  -13.0380 C   0  0  0  0  0  0  0  0  0  0  0  0
    9.7550    6.6780   -8.6050 C   0  0  0  0  0  0  0  0  0  0  0  0
   12.2490    9.8450   -1.9310 C   0  0  0  0  0  0  0  0  0  0  0  0
    6.9440    5.2040  -11.9710 C   0  0  0  0  0  0  0  0  0  0  0  0
   12.6060    6.3050   -2.4640 C   0  0  0  0  0  0  0  0  0  0  0  0
   10.9970    7.7650   -6.8380 C   0  0  0  0  0  0  0  0  0  0  0  0
    8.0430    4.3380  -11.2150 C   0  0  0  0  0  0  0  0  0  0  0  0
    8.1260    4.8550   -8.3940 O   0  0  0  0  0  0  0  0  0  0  0  0
   13.1790    8.2610   -0.3860 C   0  0  0  0  0  0  0  0  0  0  0  0
    5.8620    5.6880  -10.8690 C   0  0  0  0  0  0  0  0  0  0  0  0
   10.1950    7.7220   -9.4300 C   0  0  0  0  0  0  0  0  0  0  0  0
   11.5400    7.6390   -5.5490 O   0  0  0  0  0  0  0  0  0  0  0  0
    9.1590    4.6380  -10.3940 C   0  0  0  0  0  0  0  0  0  0  0  0
   11.6110   10.0430   -3.0980 F   0  0  0  0  0  0  0  0  0  0  0  0
   11.0710    6.6430   -4.6560 C   0  0  0  0  0  0  0  0  0  0  0  0
    7.9460    4.0940  -14.2420 C   0  0  0  0  0  0  0  0  0  0  0  0
   11.4690    8.7990   -7.6920 C   0  0  0  0  0  0  0  0  0  0  0  0
   13.5490   10.6890   -0.0730 C   0  0  0  0  0  0  0  0  0  0  0  0
    8.7160    3.7260  -15.4360 F   0  0  0  0  0  0  0  0  0  0  0  0
    5.7030    4.7180  -13.3200 S   0  0  0  0  0  0  0  0  0  0  0  0
    9.2440    7.9340  -10.8050 C   0  0  0  0  0  0  0  0  0  0  0  0
   11.1130    8.7250   -9.0730 C   0  0  0  0  0  0  0  0  0  0  0  0
    9.4840    5.8590   -6.3850 O   0  0  0  0  0  0  0  0  0  0  0  0
    8.9900    5.4900   -9.2400 C   0  0  0  0  0  0  0  0  0  0  0  0
   14.0430   11.6860    0.5880 F   0  0  0  0  0  0  0  0  0  0  0  0
   12.8400   10.9370   -1.3110 C   0  0  0  0  0  0  0  0  0  0  0  0
    6.3480    3.7660  -14.6930 C   0  0  0  0  0  0  0  0  0  0  0  0
    8.1460    2.7460  -13.4350 F   0  0  0  0  0  0  0  0  0  0  0  0
    8.4360    5.6220  -13.9940 C   0  0  0  0  0  0  0  0  0  0  0  0
   13.6690    9.3780    0.3650 C   0  0  0  0  0  0  0  0  0  0  0  0
   11.6080    7.3960   -2.2310 C   0  0  0  0  0  0  0  0  0  0  0  0
    7.9470    6.1000  -12.6320 C   0  0  0  0  0  0  0  0  0  0  0  0
    8.4730    7.4080  -12.1150 C   0  0  0  0  0  0  0  0  0  0  0  0
   12.3360    8.4690   -1.5220 C   0  0  0  0  0  0  0  0  0  0  0  0
   11.8580    6.5990   -3.3730 C   0  0  0  0  0  0  0  0  0  0  0  0
    9.9810    6.8100   -7.2410 C   0  0  0  0  0  0  0  0  0  0  0  0
  2 36  1  0
  3 34  2  0
  3 26  1  0
  4  7  1  0
  4 10  1  0
  5 31  1  0
  6 12  1  0
  7 13  1  0
  9 30  2  0
 11 22  1  0
 11  2  2  0
 12 15  1  0
 13 24  1  0
 14  3  1  0
 16 29  1  0
 16 28  1  0
 17  6  1  0
 18 30  1  0
 18 25  1  0
 19 16  1  0
 20  4  1  0
 21 11  1  0
 22 17  2  0
 24  2  1  0
 24  8  1  0
 26 18  2  0
 27 16  1  0
 27 20  1  0
 31 34  1  0
 32 29  1  0
 32 33  1  0
 32  4  1  0
 33  1  1  0
 33 21  1  0
 34  9  1  0
 35 15  1  0
 35  5  1  0
 35 31  1  0
 36  6  2  0
 36 23  1  0
M  END
$$$$

     RDKit          3D

 26 28  0  0  0  0  0  0  0  0999 V2000
   11.2050    6.4160   -5.8270 C   0  0  0  0  0  0  0  0  0  0  0  0
   12.0750    8.7800   -3.0510 C   0  0  0  0  0  0  0  0  0  0  0  0
   10.3300    7.1150   -7.9050 C   0  0  0  0  0  0  0  0  0  0  0  0
    5.4660    7.7160  -14.6300 C   0  0  0  0  0  0  0  0  0  0  0  0
    7.9440    5.4960   -8.2020 O   0  0  0  0  0  0  0  0  0  0  0  0
   12.4080    6.6670   -1.7170 C   0  0  0  0  0  0  0  0  0  0  0  0
   11.9680    7.7950   -4.0180 N   0  0  0  0  0  0  0  0  0  0  0  0
    8.6510    4.3190  -10.1090 C   0  0  0  0  0  0  0  0  0  0  0  0
   11.2340    8.8430   -6.3120 C   0  0  0  0  0  0  0  0  0  0  0  0
    8.7350    5.4730   -9.1430 C   0  0  0  0  0  0  0  0  0  0  0  0
   12.6600    8.9380   -0.7940 O   0  0  0  0  0  0  0  0  0  0  0  0
    6.3800    5.2340  -12.5450 C   0  0  0  0  0  0  0  0  0  0  0  0
    6.5960    5.9160  -15.6790 O   0  0  0  0  0  0  0  0  0  0  0  0
    8.4290    4.5970  -11.5470 N   0  0  0  0  0  0  0  0  0  0  0  0
    9.6840    6.5110   -9.2760 N   0  0  0  0  0  0  0  0  0  0  0  0
    7.2780    4.0770  -12.4070 C   0  0  0  0  0  0  0  0  0  0  0  0
    8.5280    5.8900  -13.5610 C   0  0  0  0  0  0  0  0  0  0  0  0
    9.2120    5.2870  -12.3650 C   0  0  0  0  0  0  0  0  0  0  0  0
   10.7620    6.1140   -7.0650 C   0  0  0  0  0  0  0  0  0  0  0  0
   11.9330    9.9600   -3.1830 O   0  0  0  0  0  0  0  0  0  0  0  0
    6.3860    6.5340  -14.6380 C   0  0  0  0  0  0  0  0  0  0  0  0
   11.5340    7.8010   -5.3890 C   0  0  0  0  0  0  0  0  0  0  0  0
   12.2680    6.2040   -3.3640 S   0  0  0  0  0  0  0  0  0  0  0  0
    7.1150    6.1960  -13.3690 N   0  0  0  0  0  0  0  0  0  0  0  0
   10.6700    8.4900   -7.5540 C   0  0  0  0  0  0  0  0  0  0  0  0
   12.4230    8.1530   -1.7250 C   0  0  0  0  0  0  0  0  0  0  0  0
  1 22  1  0
  2 26  1  0
  3 25  2  0
  3 19  1  0
  7 23  1  0
  7  2  1  0
  8 10  1  0
  9 22  2  0
 10  5  2  0
 12 16  1  0
 13 21  2  0
 14  8  1  0
 15 10  1  0
 15  3  1  0
 16 14  1  0
 17 24  1  0
 17 18  1  0
 18 14  1  0
 19  1  2  0
 20  2  2  0
 21  4  1  0
 21 24  1  0
 22  7  1  0
 23  6  1  0
 24 12  1  0
 25  9  1  0
 26  6  1  0
 26 11  2  0
M  END
$$$$

     RDKit          3D

 37 39  0  0  0  0  0  0  0  0999 V2000
   12.3970    7.7640   -3.5970 C   0  0  0  0  0  0  0  0  0  0  0  0
    9.9910    6.5150   -6.5040 C   0  0  0  0  0  0  0  0  0  0  0  0
    8.9430    3.6840  -12.7960 O   0  0  0  0  0  0  0  0  0  0  0  0
    8.5130    5.5810  -10.6300 C   0  0  0  0  0  0  0  0  0  0  0  0
    8.3580    5.7610  -12.0450 N   0  0  0  0  0  0  0  0  0  0  0  0
    5.6360    3.7990  -12.8460 O   0  0  0  0  0  0  0  0  0  0  0  0
    9.0370    5.1500   -8.3640 C   0  0  0  0  0  0  0  0  0  0  0  0
    8.4020    4.7490  -12.9810 C   0  0  0  0  0  0  0  0  0  0  0  0
    8.1430    3.9670  -16.1380 C   0  0  0  0  0  0  0  0  0  0  0  0
   11.7550    9.6450   -6.1960 C   0  0  0  0  0  0  0  0  0  0  0  0
    7.7750    5.3950  -14.2200 N   0  0  0  0  0  0  0  0  0  0  0  0
    5.7400    4.7680  -12.0920 C   0  0  0  0  0  0  0  0  0  0  0  0
    7.3950    6.8400  -12.2960 C   0  0  0  0  0  0  0  0  0  0  0  0
    5.2590    4.8130  -10.9420 O   0  0  0  0  0  0  0  0  0  0  0  0
   11.2520    8.2050   -8.5290 C   0  0  0  0  0  0  0  0  0  0  0  0
   12.6680    8.9580   -1.3770 C   0  0  0  0  0  0  0  0  0  0  0  0
   12.4930   10.0770   -0.7030 O   0  0  0  0  0  0  0  0  0  0  0  0
   12.3970    6.4630   -2.7210 C   0  0  0  0  0  0  0  0  0  0  0  0
    7.7880    7.8430  -13.0520 O   0  0  0  0  0  0  0  0  0  0  0  0
    9.1970    5.9290   -5.7450 O   0  0  0  0  0  0  0  0  0  0  0  0
   14.5320    7.9640    1.1240 N   0  0  0  0  0  0  0  0  0  0  0  0
    9.8860    6.3160   -7.8980 N   0  0  0  0  0  0  0  0  0  0  0  0
    8.2110    5.3270  -15.6460 C   0  0  0  0  0  0  0  0  0  0  0  0
   10.7810    8.8490   -6.9720 S   0  0  0  0  0  0  0  0  0  0  0  0
   13.9340    7.8880    0.1850 C   0  0  0  0  0  0  0  0  0  0  0  0
   11.5630    7.5050   -4.7250 C   0  0  0  0  0  0  0  0  0  0  0  0
    6.1630    6.1410  -12.6620 C   0  0  0  0  0  0  0  0  0  0  0  0
    6.4510    6.0750  -14.0980 C   0  0  0  0  0  0  0  0  0  0  0  0
   13.2350    7.7650   -0.8910 C   0  0  0  0  0  0  0  0  0  0  0  0
    9.1840    4.6520   -9.8200 C   0  0  0  0  0  0  0  0  0  0  0  0
    5.4980    7.5970  -15.6320 C   0  0  0  0  0  0  0  0  0  0  0  0
   13.1800    6.5100   -1.5200 C   0  0  0  0  0  0  0  0  0  0  0  0
   12.0040    8.9650   -2.7650 C   0  0  0  0  0  0  0  0  0  0  0  0
   10.9470    7.5280   -6.0420 C   0  0  0  0  0  0  0  0  0  0  0  0
   10.6790    6.9470   -8.8830 C   0  0  0  0  0  0  0  0  0  0  0  0
   11.6630   10.5350   -5.7510 C   0  0  0  0  0  0  0  0  0  0  0  0
    6.2700    7.3630  -14.5850 O   0  0  0  0  0  0  0  0  0  0  0  0
  1 26  1  0
  1 33  1  0
  1 18  1  0
  2 34  1  0
  2 20  2  0
  4 30  1  0
  5  4  1  0
  6 12  2  0
  7 22  1  0
  8  3  2  0
  8  5  1  0
  9 23  1  0
 10 36  2  0
 11 28  1  0
 11  8  1  0
 12 14  1  0
 13 19  1  0
 13  5  1  0
 15 24  1  0
 16 29  1  0
 16 17  1  0
 18 32  1  0
 22  2  1  0
 23 11  1  0
 24 10  1  0
 24 34  1  0
 25 21  3  0
 27 13  1  0
 27 12  1  0
 28 37  1  0
 28 27  1  0
 29 25  1  0
 30  7  1  0
 31 37  1  0
 32 29  2  0
 33 16  1  0
 34 26  1  0
 35 15  2  0
 35 22  1  0
M  END
$$$$

     RDKit          3D

 11 11  0  0  0  0  0  0  0  0999 V2000
    6.8950    4.9310  -11.7280 S   0  0  0  0  0  0  0  0  0  0  0  0
    7.0660    3.6900  -12.4010 O   0  0  0  0  0  0  0  0  0  0  0  0
    6.2570    5.9480  -12.7170 O   0  0  0  0  0  0  0  0  0  0  0  0
    6.0450    4.7920  -10.5290 O   0  0  0  0  0  0  0  0  0  0  0  0
    8.5870    6.4600  -12.4970 C   0  0  0  0  0  0  0  0  0  0  0  0
    9.8360    6.9000   -9.3950 C   0  0  0  0  0  0  0  0  0  0  0  0
    8.2430    5.6270  -11.3480 C   0  0  0  0  0  0  0  0  0  0  0  0
   11.1460    7.3580  -10.0760 C   0  0  0  0  0  0  0  0  0  0  0  0
    7.1950    7.0700  -12.9720 C   0  0  0  0  0  0  0  0  0  0  0  0
    8.9270    5.8040  -10.0980 C   0  0  0  0  0  0  0  0  0  0  0  0
    9.0060    8.1760   -9.4540 O   0  0  0  0  0  0  0  0  0  0  0  0
  1  7  1  0
  1  4  1  0
  2  1  1  0
  3  1  1  0
  5  7  1  0
  6  8  1  0
  7 10  1  0
  9  3  1  0
  9  5  1  0
 10  6  1  0
 11  6  1  0
M  END
$$$$

     RDKit          3D

 32 35  0  0  0  0  0  0  0  0999 V2000
    7.2350    5.6140  -18.7890 C   0  0  0  0  0  0  0  0  0  0  0  0
   10.5090    6.8980   -6.9340 C   0  0  0  0  0  0  0  0  0  0  0  0
   10.4710    7.3960   -9.4100 C   0  0  0  0  0  0  0  0  0  0  0  0
    7.2230    5.6850  -12.5720 C   0  0  0  0  0  0  0  0  0  0  0  0
   11.1990   10.9560   -5.3320 C   0  0  0  0  0  0  0  0  0  0  0  0
   12.1270    8.6620   -5.1980 O   0  0  0  0  0  0  0  0  0  0  0  0
   12.3600    9.1700   -6.5640 C   0  0  0  0  0  0  0  0  0  0  0  0
   11.1670    9.5700   -4.5260 C   0  0  0  0  0  0  0  0  0  0  0  0
    9.3880    6.2320   -6.9120 F   0  0  0  0  0  0  0  0  0  0  0  0
   10.2630    8.7300   -5.0440 C   0  0  0  0  0  0  0  0  0  0  0  0
    7.2670    2.9750  -15.0530 C   0  0  0  0  0  0  0  0  0  0  0  0
   12.1150    8.4280   -8.0480 C   0  0  0  0  0  0  0  0  0  0  0  0
   11.5430    5.9440   -7.1460 F   0  0  0  0  0  0  0  0  0  0  0  0
    8.5650    4.6140  -10.7120 C   0  0  0  0  0  0  0  0  0  0  0  0
    7.6900    2.8700  -16.3020 N   0  0  0  0  0  0  0  0  0  0  0  0
   10.7650    7.9380   -7.9230 C   0  0  0  0  0  0  0  0  0  0  0  0
    9.5950    5.6070  -12.7980 O   0  0  0  0  0  0  0  0  0  0  0  0
    5.0320    4.3660  -12.9400 C   0  0  0  0  0  0  0  0  0  0  0  0
    9.2570    4.9330   -9.4760 C   0  0  0  0  0  0  0  0  0  0  0  0
    7.2750    4.6190  -10.1280 F   0  0  0  0  0  0  0  0  0  0  0  0
    6.4230    4.6380  -13.3310 C   0  0  0  0  0  0  0  0  0  0  0  0
    8.7200    7.0160  -10.8920 C   0  0  0  0  0  0  0  0  0  0  0  0
    7.5000    4.1720  -16.8990 C   0  0  0  0  0  0  0  0  0  0  0  0
    6.7090    6.9310  -13.1590 C   0  0  0  0  0  0  0  0  0  0  0  0
   11.9120   10.3960   -6.5050 C   0  0  0  0  0  0  0  0  0  0  0  0
    6.8040    5.0970  -15.9530 O   0  0  0  0  0  0  0  0  0  0  0  0
    6.8810    8.1330  -12.4840 O   0  0  0  0  0  0  0  0  0  0  0  0
   10.2820    7.3400   -5.4670 C   0  0  0  0  0  0  0  0  0  0  0  0
    9.1460    6.5780   -9.5240 N   0  0  0  0  0  0  0  0  0  0  0  0
    6.8180    4.3060  -14.7320 C   0  0  0  0  0  0  0  0  0  0  0  0
    7.9780    4.4400  -18.2120 O   0  0  0  0  0  0  0  0  0  0  0  0
    8.5780    5.7880  -11.7680 C   0  0  0  0  0  0  0  0  0  0  0  0
  1 31  1  0
  2  9  1  0
  2 28  1  0
  4 24  1  0
  4 32  1  0
  6  8  1  0
  7 12  1  0
  7 25  1  0
  7  6  1  0
  8  5  1  0
 10  8  1  0
 11 30  2  0
 12 16  1  0
 13  2  1  0
 14 20  1  0
 14 19  1  0
 15 11  1  0
 16  3  1  0
 16  2  1  0
 21 18  1  0
 21  4  1  0
 22 29  1  0
 23 15  2  0
 23 26  1  0
 24 27  1  0
 25  5  1  0
 26 30  1  0
 28 10  1  0
 29 19  1  0
 29  3  1  0
 30 21  1  0
 31 23  1  0
 32 17  1  0
 32 22  1  0
 32 14  1  0
M  END
$$$$

     RDKit          3D

 37 42  0  0  0  0  0  0  0  0999 V2000
    7.8040    2.7150  -16.1970 C   0  0  0  0  0  0  0  0  0  0  0  0
   11.9500    8.4040   -2.2610 C   0  0  0  0  0  0  0  0  0  0  0  0
    9.7480    6.1260   -9.5340 C   0  0  0  0  0  0  0  0  0  0  0  0
   11.9030    9.7330   -5.5650 C   0  0  0  0  0  0  0  0  0  0  0  0
   12.0670    7.0740   -8.0550 F   0  0  0  0  0  0  0  0  0  0  0  0
    6.7160    4.6080  -12.0010 C   0  0  0  0  0  0  0  0  0  0  0  0
    8.1130    4.6710   -8.8260 C   0  0  0  0  0  0  0  0  0  0  0  0
   12.8990    6.6060   -1.1000 N   0  0  0  0  0  0  0  0  0  0  0  0
    7.3640    7.6580  -12.8100 C   0  0  0  0  0  0  0  0  0  0  0  0
    6.2990    7.0140  -13.3290 C   0  0  0  0  0  0  0  0  0  0  0  0
    6.3810    7.1100  -14.6930 C   0  0  0  0  0  0  0  0  0  0  0  0
   11.5950    9.0630   -4.3730 C   0  0  0  0  0  0  0  0  0  0  0  0
   12.2290    6.8640   -2.1340 C   0  0  0  0  0  0  0  0  0  0  0  0
   10.9870    7.1570   -5.7420 C   0  0  0  0  0  0  0  0  0  0  0  0
   12.6910   10.1470   -0.8660 N   0  0  0  0  0  0  0  0  0  0  0  0
   12.6340    8.8780   -1.1440 C   0  0  0  0  0  0  0  0  0  0  0  0
   13.3740    7.9190   -0.4850 O   0  0  0  0  0  0  0  0  0  0  0  0
   10.2350    6.8240  -10.4420 C   0  0  0  0  0  0  0  0  0  0  0  0
    6.9720    4.6440  -14.6620 C   0  0  0  0  0  0  0  0  0  0  0  0
   11.7040    5.8700   -2.8130 C   0  0  0  0  0  0  0  0  0  0  0  0
   11.8020    9.5940   -3.1330 N   0  0  0  0  0  0  0  0  0  0  0  0
    7.3920    5.1860  -13.3830 C   0  0  0  0  0  0  0  0  0  0  0  0
    7.5130    3.1880  -14.9860 C   0  0  0  0  0  0  0  0  0  0  0  0
    7.5100    4.4390  -10.9120 C   0  0  0  0  0  0  0  0  0  0  0  0
   11.8880    9.1060   -6.7620 C   0  0  0  0  0  0  0  0  0  0  0  0
    8.6930    4.6600   -7.5170 C   0  0  0  0  0  0  0  0  0  0  0  0
    7.3970    3.4940  -17.3230 C   0  0  0  0  0  0  0  0  0  0  0  0
    6.3950    5.9890  -12.6780 C   0  0  0  0  0  0  0  0  0  0  0  0
   10.3500    5.8700   -5.7650 C   0  0  0  0  0  0  0  0  0  0  0  0
   11.5780    7.7600   -6.9340 C   0  0  0  0  0  0  0  0  0  0  0  0
   11.2800    7.7240   -4.4370 C   0  0  0  0  0  0  0  0  0  0  0  0
    7.0760    4.7940  -16.7040 C   0  0  0  0  0  0  0  0  0  0  0  0
    7.9790    5.7450  -10.7680 O   0  0  0  0  0  0  0  0  0  0  0  0
    8.5330    5.5250   -9.6940 C   0  0  0  0  0  0  0  0  0  0  0  0
    6.2390    5.7320  -15.3470 C   0  0  0  0  0  0  0  0  0  0  0  0
    9.6540    5.5470   -7.1920 C   0  0  0  0  0  0  0  0  0  0  0  0
   10.2550    6.1410   -8.2430 N   0  0  0  0  0  0  0  0  0  0  0  0
  1 23  2  0
  2 21  1  0
  2 13  1  0
  2 16  1  0
  3 37  1  0
  4 12  1  0
  5 30  1  0
  6 24  1  0
  7 26  2  0
  8 17  1  0
 10  9  1  0
 10 28  1  0
 11 10  1  0
 12 21  1  0
 13  8  1  0
 14 31  1  0
 16 15  2  0
 16 17  1  0
 18  3  1  0
 19 23  1  0
 19 22  1  0
 20 13  2  0
 22 28  1  0
 22  6  1  0
 24 33  1  0
 25  4  2  0
 26 36  1  0
 27 32  1  0
 27  1  1  0
 28  6  1  0
 29 14  1  0
 30 25  1  0
 30 14  2  0
 31 12  2  0
 32 35  1  0
 33 34  1  0
 34  3  2  0
 34  7  1  0
 35 11  1  0
 35 19  1  0
 36 29  1  0
 37 36  2  0
M  END
$$$$

     RDKit          3D

 23 23  0  0  0  0  0  0  0  0999 V2000
   12.3080    8.9000   -2.5810 C   0  0  0  0  0  0  0  0  0  0  0  0
    9.5000    6.4940   -7.9010 C   0  0  0  0  0  0  0  0  0  0  0  0
   12.0530   10.2350   -2.4860 N   0  0  0  0  0  0  0  0  0  0  0  0
    7.1220    3.6690  -12.6490 C   0  0  0  0  0  0  0  0  0  0  0  0
   12.5070    6.6350   -2.0350 C   0  0  0  0  0  0  0  0  0  0  0  0
   10.9880    6.5690   -6.0240 C   0  0  0  0  0  0  0  0  0  0  0  0
    8.0960    4.9030   -9.0780 N   0  0  0  0  0  0  0  0  0  0  0  0
    8.8720    6.2550  -11.7510 C   0  0  0  0  0  0  0  0  0  0  0  0
    6.6760    5.1700  -12.4690 C   0  0  0  0  0  0  0  0  0  0  0  0
    6.7430    5.9040  -13.8780 C   0  0  0  0  0  0  0  0  0  0  0  0
    8.7860    6.1310   -9.2120 C   0  0  0  0  0  0  0  0  0  0  0  0
    9.6530    6.4000  -10.4320 C   0  0  0  0  0  0  0  0  0  0  0  0
   11.9280    8.1400   -3.6850 C   0  0  0  0  0  0  0  0  0  0  0  0
   10.9900    8.6320   -7.3330 C   0  0  0  0  0  0  0  0  0  0  0  0
   12.7860    8.0270   -1.5800 C   0  0  0  0  0  0  0  0  0  0  0  0
   13.3770    8.3490   -0.6350 O   0  0  0  0  0  0  0  0  0  0  0  0
   11.6510    8.7700   -4.9790 C   0  0  0  0  0  0  0  0  0  0  0  0
    7.5670    5.8430  -11.4750 N   0  0  0  0  0  0  0  0  0  0  0  0
   11.3170    7.9780   -6.0410 N   0  0  0  0  0  0  0  0  0  0  0  0
   11.9120    6.7570   -3.3760 C   0  0  0  0  0  0  0  0  0  0  0  0
   11.5280   10.1750   -5.1570 C   0  0  0  0  0  0  0  0  0  0  0  0
    5.2590    5.1510  -11.9530 C   0  0  0  0  0  0  0  0  0  0  0  0
   10.7730    6.3570   -7.4460 C   0  0  0  0  0  0  0  0  0  0  0  0
  1  3  1  0
  1 15  1  0
  2 23  2  3
  4  9  1  0
  5 15  1  0
  8 18  1  0
  8 12  1  0
  9 22  1  0
  9 18  1  0
 10  9  1  0
 11  7  1  0
 11  2  1  0
 12 11  1  0
 13 20  1  0
 13  1  1  0
 14 19  1  0
 15 16  2  0
 17 13  2  3
 19  6  1  0
 19 17  1  0
 20  5  2  0
 21 17  1  0
 23  6  1  0
M  END
$$$$

     RDKit          3D

 19 20  0  0  0  0  0  0  0  0999 V2000
   12.0030    6.5130   -2.5520 C   0  0  0  0  0  0  0  0  0  0  0  0
    8.0380    6.2410  -12.3050 C   0  0  0  0  0  0  0  0  0  0  0  0
   11.4710    6.6710   -4.0320 C   0  0  0  0  0  0  0  0  0  0  0  0
   10.5120    6.9830   -6.7890 N   0  0  0  0  0  0  0  0  0  0  0  0
   13.0330    8.7630   -2.8050 C   0  0  0  0  0  0  0  0  0  0  0  0
   10.1460    6.8140   -7.9720 C   0  0  0  0  0  0  0  0  0  0  0  0
   12.3310    9.0970   -4.1190 C   0  0  0  0  0  0  0  0  0  0  0  0
   10.0080    7.9330  -10.1540 O   0  0  0  0  0  0  0  0  0  0  0  0
    8.3460    5.6030   -9.3660 C   0  0  0  0  0  0  0  0  0  0  0  0
    6.7060    4.8360  -10.9460 C   0  0  0  0  0  0  0  0  0  0  0  0
    9.5010    5.6200   -8.5970 C   0  0  0  0  0  0  0  0  0  0  0  0
    7.5240    7.6370  -12.4070 C   0  0  0  0  0  0  0  0  0  0  0  0
   11.2490    9.2460   -6.9280 C   0  0  0  0  0  0  0  0  0  0  0  0
   10.8790    9.0340   -8.3950 N   0  0  0  0  0  0  0  0  0  0  0  0
    7.9330    5.5790  -10.8540 N   0  0  0  0  0  0  0  0  0  0  0  0
   12.1080    7.9290   -1.8820 C   0  0  0  0  0  0  0  0  0  0  0  0
   10.2840    7.9100   -8.9470 C   0  0  0  0  0  0  0  0  0  0  0  0
   11.0670    8.0540   -6.1790 C   0  0  0  0  0  0  0  0  0  0  0  0
   11.5850    8.0130   -4.8380 C   0  0  0  0  0  0  0  0  0  0  0  0
  1 16  1  0
  2 15  1  0
  3  1  1  0
  4 18  1  0
  5 16  1  0
  6  4  2  0
  7  5  1  0
  8 17  2  0
  9 11  1  0
 10 15  1  0
 11  6  1  0
 12  2  1  0
 13 18  2  0
 14 13  1  0
 15  9  1  0
 17 14  1  0
 17  6  1  0
 18 19  1  0
 19  7  2  0
 19  3  1  0
M  END
$$$$

     RDKit          3D

 37 41  0  0  0  0  0  0  0  0999 V2000
   10.9430   11.5110   -3.4200 F   0  0  0  0  0  0  0  0  0  0  0  0
   10.5800    5.8080  -12.0490 O   0  0  0  0  0  0  0  0  0  0  0  0
    7.2010    4.9000   -9.8070 N   0  0  0  0  0  0  0  0  0  0  0  0
    7.7980    6.4920  -14.6360 C   0  0  0  0  0  0  0  0  0  0  0  0
   12.2770    9.6650   -2.3000 N   0  0  0  0  0  0  0  0  0  0  0  0
   13.4330    8.5880   -0.3250 C   0  0  0  0  0  0  0  0  0  0  0  0
    9.6980    6.4010   -9.7370 C   0  0  0  0  0  0  0  0  0  0  0  0
   13.1770    6.1620   -0.3300 C   0  0  0  0  0  0  0  0  0  0  0  0
   12.7810    8.5870   -1.5340 C   0  0  0  0  0  0  0  0  0  0  0  0
    8.4300    5.0430   -8.9920 C   0  0  0  0  0  0  0  0  0  0  0  0
    8.7230    4.6420  -13.4220 C   0  0  0  0  0  0  0  0  0  0  0  0
    9.9410    7.5740   -7.6610 N   0  0  0  0  0  0  0  0  0  0  0  0
    5.4680    6.5520  -15.2590 C   0  0  0  0  0  0  0  0  0  0  0  0
    4.5400    7.0950  -16.1200 O   0  0  0  0  0  0  0  0  0  0  0  0
   12.2790    8.2150   -7.0660 O   0  0  0  0  0  0  0  0  0  0  0  0
    6.0390    5.0040  -12.0120 C   0  0  0  0  0  0  0  0  0  0  0  0
    6.2940    5.2590  -13.4600 C   0  0  0  0  0  0  0  0  0  0  0  0
   11.7000    9.2920   -3.3800 C   0  0  0  0  0  0  0  0  0  0  0  0
   11.5560    6.7080   -4.4500 C   0  0  0  0  0  0  0  0  0  0  0  0
   10.5120    7.8900  -10.0920 C   0  0  0  0  0  0  0  0  0  0  0  0
    8.5490    5.6190   -7.7420 C   0  0  0  0  0  0  0  0  0  0  0  0
    9.3780    5.7590  -11.2550 C   0  0  0  0  0  0  0  0  0  0  0  0
   11.0610    6.9090   -5.4820 N   0  0  0  0  0  0  0  0  0  0  0  0
   12.5280    6.1510   -1.5190 C   0  0  0  0  0  0  0  0  0  0  0  0
   11.8730    7.7860   -3.4590 C   0  0  0  0  0  0  0  0  0  0  0  0
    7.5440    5.4650  -13.9750 C   0  0  0  0  0  0  0  0  0  0  0  0
   13.6530    7.3040    0.2060 C   0  0  0  0  0  0  0  0  0  0  0  0
    6.8500    7.0560  -15.4730 C   0  0  0  0  0  0  0  0  0  0  0  0
   11.9490   10.7890   -5.1480 F   0  0  0  0  0  0  0  0  0  0  0  0
    7.2510    4.3780  -11.3640 C   0  0  0  0  0  0  0  0  0  0  0  0
    5.1750    5.6430  -14.2660 C   0  0  0  0  0  0  0  0  0  0  0  0
    9.8780    6.3160   -8.1890 C   0  0  0  0  0  0  0  0  0  0  0  0
    8.4890    4.6710  -12.0910 C   0  0  0  0  0  0  0  0  0  0  0  0
   11.3960   10.4820   -4.0830 C   0  0  0  0  0  0  0  0  0  0  0  0
   12.3930    7.3920   -2.2150 C   0  0  0  0  0  0  0  0  0  0  0  0
   10.0790    9.1120   -5.9990 O   0  0  0  0  0  0  0  0  0  0  0  0
   10.8110    8.0460   -6.5290 S   0  0  0  0  0  0  0  0  0  0  0  0
  3 10  2  0
  5  9  1  0
  6 27  1  0
  7 20  1  0
  7 32  1  0
  8 27  2  0
  9  6  2  0
 10 21  1  0
 12 37  1  0
 13 14  1  0
 13 31  1  0
 15 37  2  0
 17 31  1  0
 17 16  1  0
 18 34  1  0
 18  5  1  0
 19 25  2  3
 22  2  1  0
 22  7  1  0
 23 19  1  0
 24  8  1  0
 25 18  1  0
 25 35  1  0
 26  4  1  0
 26 17  1  0
 26 11  1  0
 28 13  1  0
 28  4  1  0
 29 34  1  0
 30 16  1  0
 30  3  1  0
 32 21  1  0
 32 12  1  0
 33 11  1  0
 33 30  1  0
 33 22  1  0
 34  1  1  0
 35  9  1  0
 35 24  2  0
 37 36  2  0
 37 23  1  0
M  END
$$$$

     RDKit          3D

 24 26  0  0  0  0  0  0  0  0999 V2000
    8.2090    5.9960  -11.7490 C   0  0  0  0  0  0  0  0  0  0  0  0
    5.7290    4.2640  -11.4610 C   0  0  0  0  0  0  0  0  0  0  0  0
   10.5600    8.4500   -9.4460 S   0  0  0  0  0  0  0  0  0  0  0  0
   10.8050    7.3610   -8.2310 C   0  0  0  0  0  0  0  0  0  0  0  0
   12.9600    8.3420   -1.0750 F   0  0  0  0  0  0  0  0  0  0  0  0
    8.5390    7.3970  -11.3020 C   0  0  0  0  0  0  0  0  0  0  0  0
    9.8690    7.3030  -10.5580 C   0  0  0  0  0  0  0  0  0  0  0  0
    5.2170    4.1990  -12.9090 C   0  0  0  0  0  0  0  0  0  0  0  0
    8.6530    8.3820  -12.3930 C   0  0  0  0  0  0  0  0  0  0  0  0
    7.1650    5.6850  -12.8430 C   0  0  0  0  0  0  0  0  0  0  0  0
   10.9590    7.0380   -5.9640 C   0  0  0  0  0  0  0  0  0  0  0  0
   11.4230    7.4840   -4.6690 C   0  0  0  0  0  0  0  0  0  0  0  0
   12.4080    8.9910   -3.2170 C   0  0  0  0  0  0  0  0  0  0  0  0
   11.6090    7.5900   -7.0540 N   0  0  0  0  0  0  0  0  0  0  0  0
   12.4140    8.0490   -2.2550 C   0  0  0  0  0  0  0  0  0  0  0  0
   11.8050    9.6400   -5.3200 F   0  0  0  0  0  0  0  0  0  0  0  0
    8.8350    4.9960   -9.6840 C   0  0  0  0  0  0  0  0  0  0  0  0
    6.6710    4.2850  -12.6220 C   0  0  0  0  0  0  0  0  0  0  0  0
   11.8430    8.7100   -4.4390 C   0  0  0  0  0  0  0  0  0  0  0  0
   10.1790    6.5200   -8.3500 N   0  0  0  0  0  0  0  0  0  0  0  0
   11.3890    6.5350   -3.7530 C   0  0  0  0  0  0  0  0  0  0  0  0
   11.9290    6.8110   -2.4680 C   0  0  0  0  0  0  0  0  0  0  0  0
    7.7860    9.3860  -12.1210 O   0  0  0  0  0  0  0  0  0  0  0  0
    9.7820    6.2090   -9.5420 C   0  0  0  0  0  0  0  0  0  0  0  0
  1  6  1  0
  3  4  1  0
  4 14  1  0
  6  9  1  0
  7  6  1  0
  7 24  1  0
  7  3  1  0
  8 18  1  0
  8  2  1  0
  9 23  1  0
 10 18  1  0
 10  1  1  0
 11 12  1  0
 12 19  2  0
 12 21  1  0
 13 15  2  0
 14 11  1  0
 15  5  1  0
 16 19  1  0
 18  2  1  0
 19 13  1  0
 20  4  2  0
 21 22  2  0
 22 15  1  0
 24 17  1  0
 24 20  1  0
M  END
$$$$

     RDKit          3D

 27 30  0  0  0  0  0  0  0  0999 V2000
    9.6300    7.1500  -10.4190 C   0  0  0  0  0  0  0  0  0  0  0  0
   10.5300    7.0740   -8.0920 C   0  0  0  0  0  0  0  0  0  0  0  0
   11.4180    7.9700   -6.0650 C   0  0  0  0  0  0  0  0  0  0  0  0
   12.6550    8.8960   -0.7980 O   0  0  0  0  0  0  0  0  0  0  0  0
    7.3490    5.6850  -14.5300 C   0  0  0  0  0  0  0  0  0  0  0  0
    7.4840    6.2030  -13.1690 C   0  0  0  0  0  0  0  0  0  0  0  0
   11.9500    7.1700   -3.8720 C   0  0  0  0  0  0  0  0  0  0  0  0
    9.7630    6.5000   -9.0950 N   0  0  0  0  0  0  0  0  0  0  0  0
   11.7720    8.2630   -4.7270 C   0  0  0  0  0  0  0  0  0  0  0  0
   12.4510    6.3510   -1.7080 O   0  0  0  0  0  0  0  0  0  0  0  0
   10.5790    6.5130   -6.4550 S   0  0  0  0  0  0  0  0  0  0  0  0
   12.2140    7.4310   -2.4750 C   0  0  0  0  0  0  0  0  0  0  0  0
    9.7600    6.1760  -11.4930 C   0  0  0  0  0  0  0  0  0  0  0  0
    7.8390    5.3170  -12.1710 C   0  0  0  0  0  0  0  0  0  0  0  0
    7.0180    3.3620  -13.3340 C   0  0  0  0  0  0  0  0  0  0  0  0
   11.6940    8.6400   -7.0700 N   0  0  0  0  0  0  0  0  0  0  0  0
    6.5840    1.8070  -13.6120 Cl  0  0  0  0  0  0  0  0  0  0  0  0
    8.8860    5.5030   -8.6910 C   0  0  0  0  0  0  0  0  0  0  0  0
    7.7960    3.7950  -12.2940 C   0  0  0  0  0  0  0  0  0  0  0  0
   11.2070    8.0870   -8.3130 N   0  0  0  0  0  0  0  0  0  0  0  0
   12.3400    8.6990   -2.0400 C   0  0  0  0  0  0  0  0  0  0  0  0
   11.8520    9.5050   -4.2500 C   0  0  0  0  0  0  0  0  0  0  0  0
   12.1150    9.7430   -2.9810 C   0  0  0  0  0  0  0  0  0  0  0  0
    8.8210    5.1640  -11.0050 C   0  0  0  0  0  0  0  0  0  0  0  0
    6.4990    4.4390  -14.2950 C   0  0  0  0  0  0  0  0  0  0  0  0
    8.3480    4.7220   -9.8290 C   0  0  0  0  0  0  0  0  0  0  0  0
    7.7910    7.9120  -13.1430 Cl  0  0  0  0  0  0  0  0  0  0  0  0
  1  8  1  0
  2 11  1  0
  3  9  1  0
  5 25  1  0
  5  6  1  0
  6 27  1  0
  6 14  1  0
  7 12  1  0
  8 18  1  0
  8  2  1  0
  9 22  1  0
  9  7  2  0
 11  3  1  0
 12 21  2  0
 12 10  1  0
 13  1  1  0
 14 19  1  0
 14 24  1  0
 15 17  1  0
 15 19  1  0
 16  3  2  0
 20  2  2  0
 20 16  1  0
 21  4  1  0
 22 23  2  0
 23 21  1  0
 24 13  1  0
 24 26  1  0
 25 15  1  0
 26 18  1  0
M  END
$$$$

     RDKit          3D

 55 59  0  0  0  0  0  0  0  0999 V2000
    8.1290    5.8150   -7.1470 O   0  0  0  0  0  0  0  0  0  0  0  0
   10.0790    4.7540   -7.8750 O   0  0  0  0  0  0  0  0  0  0  0  0
    8.6190    4.9930  -10.5090 C   0  0  0  0  0  0  0  0  0  0  0  0
    5.6380    3.1300  -13.8460 O   0  0  0  0  0  0  0  0  0  0  0  0
    5.4960    6.6850  -20.2630 C   0  0  0  0  0  0  0  0  0  0  0  0
   11.8170    9.2440   -3.5020 C   0  0  0  0  0  0  0  0  0  0  0  0
    9.8350    7.2570  -11.9960 O   0  0  0  0  0  0  0  0  0  0  0  0
    8.0540    3.9060   -9.8430 C   0  0  0  0  0  0  0  0  0  0  0  0
    5.7860    6.6220  -14.7950 C   0  0  0  0  0  0  0  0  0  0  0  0
   10.1240    7.1920   -7.1870 O   0  0  0  0  0  0  0  0  0  0  0  0
   11.2040    9.1300   -4.8930 C   0  0  0  0  0  0  0  0  0  0  0  0
    8.0160    2.7850  -13.1910 O   0  0  0  0  0  0  0  0  0  0  0  0
    6.7930    6.8310    1.9280 C   0  0  0  0  0  0  0  0  0  0  0  0
   10.8820    7.0460   -5.8750 C   0  0  0  0  0  0  0  0  0  0  0  0
    6.0060    5.5830  -15.8870 C   0  0  0  0  0  0  0  0  0  0  0  0
   11.4190    9.1220   -8.7840 C   0  0  0  0  0  0  0  0  0  0  0  0
    9.3390    7.1670    1.8940 C   0  0  0  0  0  0  0  0  0  0  0  0
   14.0390    7.6110    0.2410 C   0  0  0  0  0  0  0  0  0  0  0  0
   13.1930    6.1660   -2.3410 F   0  0  0  0  0  0  0  0  0  0  0  0
   11.7600    8.2490   -6.0980 C   0  0  0  0  0  0  0  0  0  0  0  0
    9.0440    6.1040   -9.6160 N   0  0  0  0  0  0  0  0  0  0  0  0
   12.5860    7.3220   -2.1730 C   0  0  0  0  0  0  0  0  0  0  0  0
   12.9940    8.4530   -3.1180 C   0  0  0  0  0  0  0  0  0  0  0  0
   15.9710    6.4270    1.4590 C   0  0  0  0  0  0  0  0  0  0  0  0
    5.9080    5.9840  -17.4380 C   0  0  0  0  0  0  0  0  0  0  0  0
    7.4210    8.0680  -13.5980 F   0  0  0  0  0  0  0  0  0  0  0  0
    9.1720    6.5090   -0.8740 C   0  0  0  0  0  0  0  0  0  0  0  0
    5.8260    6.5160    2.9070 C   0  0  0  0  0  0  0  0  0  0  0  0
   12.8050    7.2760    0.3600 C   0  0  0  0  0  0  0  0  0  0  0  0
    8.4670    5.8570  -13.6100 C   0  0  0  0  0  0  0  0  0  0  0  0
   11.5720    6.3470   -4.5430 C   0  0  0  0  0  0  0  0  0  0  0  0
   10.5540    6.7010   -0.9330 C   0  0  0  0  0  0  0  0  0  0  0  0
    5.6780    7.0750    4.0030 N   0  0  0  0  0  0  0  0  0  0  0  0
   11.2780    7.1910   -1.9800 C   0  0  0  0  0  0  0  0  0  0  0  0
    4.8990    6.8680  -17.8440 C   0  0  0  0  0  0  0  0  0  0  0  0
    7.0530    4.7150  -15.4600 C   0  0  0  0  0  0  0  0  0  0  0  0
   12.5580    8.0960   -7.8010 S   0  0  0  0  0  0  0  0  0  0  0  0
   10.7220    6.6160   -3.3660 C   0  0  0  0  0  0  0  0  0  0  0  0
    7.2730    6.7580  -14.1940 C   0  0  0  0  0  0  0  0  0  0  0  0
    6.6260    5.8080  -19.7630 C   0  0  0  0  0  0  0  0  0  0  0  0
   16.2410    7.9300    1.3130 C   0  0  0  0  0  0  0  0  0  0  0  0
    8.1840    5.7580    0.1260 C   0  0  0  0  0  0  0  0  0  0  0  0
    4.6620    7.1700  -19.1950 C   0  0  0  0  0  0  0  0  0  0  0  0
   10.9060   10.5060   -5.5340 C   0  0  0  0  0  0  0  0  0  0  0  0
    9.3210    6.0360   -7.9500 P   0  0  0  0  0  0  0  0  0  0  0  0
    6.9350    3.7110  -13.1510 S   0  0  0  0  0  0  0  0  0  0  0  0
    7.4980    4.8920  -13.9190 C   0  0  0  0  0  0  0  0  0  0  0  0
    9.5590    4.6830  -11.7620 C   0  0  0  0  0  0  0  0  0  0  0  0
   14.9780    7.4860    1.2410 C   0  0  0  0  0  0  0  0  0  0  0  0
   11.4890    6.7660    0.0960 C   0  0  0  0  0  0  0  0  0  0  0  0
    8.2190    6.2190    1.6200 C   0  0  0  0  0  0  0  0  0  0  0  0
    6.8240    4.5470  -11.8850 O   0  0  0  0  0  0  0  0  0  0  0  0
    9.2540    5.9140  -12.5720 C   0  0  0  0  0  0  0  0  0  0  0  0
   12.2210   11.1970   -5.7890 C   0  0  0  0  0  0  0  0  0  0  0  0
    6.7860    5.3870  -18.3710 C   0  0  0  0  0  0  0  0  0  0  0  0
  3  8  1  0
  3 21  1  0
  4 46  1  0
  5 40  2  0
  5 43  1  0
  6 23  1  0
  9 39  1  0
 11 44  1  0
 11  6  1  0
 12 46  1  0
 13 28  1  0
 14 10  1  0
 14 31  1  0
 15 25  1  0
 15 36  1  0
 15  9  1  0
 16 37  1  0
 18 29  2  0
 18 49  1  0
 20 37  1  0
 20 14  1  0
 20 11  1  0
 21 45  1  0
 22 19  1  0
 22 34  1  0
 23 22  1  0
 27 42  1  0
 28 33  2  0
 30 53  1  0
 31 38  1  0
 32 27  1  0
 32 50  1  0
 34 32  1  0
 35 25  1  0
 36 47  1  0
 38 34  1  0
 39 47  1  0
 39 30  1  0
 39 26  1  0
 40 55  1  0
 41 24  1  0
 42 51  1  0
 43 35  2  0
 45  2  2  0
 45 10  1  0
 45  1  1  0
 46 52  1  0
 47 30  1  0
 47 46  1  0
 48  3  1  0
 49 41  1  0
 49 24  1  0
 50 29  2  0
 51 17  1  0
 51 13  1  0
 53  7  1  0
 53 48  1  0
 54 44  1  0
 55 25  2  0
M  END
$$$$

     RDKit          3D

 45 47  0  0  0  0  0  0  0  0999 V2000
    6.6570    2.6170  -13.2680 C   0  0  0  0  0  0  0  0  0  0  0  0
   11.9810    7.4670   -0.5950 F   0  0  0  0  0  0  0  0  0  0  0  0
   11.2550    7.8910   -9.6910 O   0  0  0  0  0  0  0  0  0  0  0  0
    8.8030    5.7490  -12.3200 N   0  0  0  0  0  0  0  0  0  0  0  0
   12.5510    8.5280   -0.4450 C   0  0  0  0  0  0  0  0  0  0  0  0
   10.1400    7.3100   -7.8170 C   0  0  0  0  0  0  0  0  0  0  0  0
    8.2360    6.6460  -12.6130 C   0  0  0  0  0  0  0  0  0  0  0  0
    7.2170    0.5360  -14.9230 O   0  0  0  0  0  0  0  0  0  0  0  0
   13.5300    8.0890   -2.5230 F   0  0  0  0  0  0  0  0  0  0  0  0
    5.5720   -0.8980  -14.1600 O   0  0  0  0  0  0  0  0  0  0  0  0
   13.2190    5.8450   -3.2220 O   0  0  0  0  0  0  0  0  0  0  0  0
   12.1760    8.7920   -5.9800 N   0  0  0  0  0  0  0  0  0  0  0  0
    5.2540    3.1880  -13.1250 C   0  0  0  0  0  0  0  0  0  0  0  0
   13.8420    8.7820   -0.2250 F   0  0  0  0  0  0  0  0  0  0  0  0
   10.9120    7.5910  -10.9330 N   0  0  0  0  0  0  0  0  0  0  0  0
    6.3220    0.9690  -12.8160 C   0  0  0  0  0  0  0  0  0  0  0  0
   10.0090    8.3750   -8.9060 C   0  0  0  0  0  0  0  0  0  0  0  0
   11.3660    7.6540   -6.6160 N   0  0  0  0  0  0  0  0  0  0  0  0
    9.0640    6.8640   -6.9550 C   0  0  0  0  0  0  0  0  0  0  0  0
    9.5280    8.0330  -11.0270 C   0  0  0  0  0  0  0  0  0  0  0  0
    8.6080    7.9290  -12.1270 C   0  0  0  0  0  0  0  0  0  0  0  0
   13.0520    6.2200   -4.5310 C   0  0  0  0  0  0  0  0  0  0  0  0
    8.6780    4.7650   -8.6600 C   0  0  0  0  0  0  0  0  0  0  0  0
   10.4960    9.6480   -4.3910 C   0  0  0  0  0  0  0  0  0  0  0  0
    7.5080    3.9000  -12.9030 C   0  0  0  0  0  0  0  0  0  0  0  0
   11.6970    6.4310   -4.6100 C   0  0  0  0  0  0  0  0  0  0  0  0
    6.9990    6.3320  -13.2460 C   0  0  0  0  0  0  0  0  0  0  0  0
   11.2690    6.3670   -5.7530 C   0  0  0  0  0  0  0  0  0  0  0  0
    9.0920    8.7780   -9.9630 N   0  0  0  0  0  0  0  0  0  0  0  0
   11.9120    5.2850   -1.5790 F   0  0  0  0  0  0  0  0  0  0  0  0
    5.9480    7.0330  -13.9230 C   0  0  0  0  0  0  0  0  0  0  0  0
    5.4570    7.9890  -13.2020 N   0  0  0  0  0  0  0  0  0  0  0  0
    5.5590    6.8030  -15.0210 O   0  0  0  0  0  0  0  0  0  0  0  0
   11.0690    6.4170   -3.3590 O   0  0  0  0  0  0  0  0  0  0  0  0
    8.2420    5.6560   -7.5120 C   0  0  0  0  0  0  0  0  0  0  0  0
    9.7960    5.0560  -11.6740 C   0  0  0  0  0  0  0  0  0  0  0  0
    6.6480    5.0320  -13.0040 N   0  0  0  0  0  0  0  0  0  0  0  0
   12.4850    7.7560   -1.8440 C   0  0  0  0  0  0  0  0  0  0  0  0
   11.2860    9.7060   -5.6840 C   0  0  0  0  0  0  0  0  0  0  0  0
   11.7110    8.4710   -2.4680 F   0  0  0  0  0  0  0  0  0  0  0  0
   11.5170   10.9650   -6.1740 O   0  0  0  0  0  0  0  0  0  0  0  0
   12.2660    6.3990   -2.5910 C   0  0  0  0  0  0  0  0  0  0  0  0
   11.7440    9.6670   -0.4290 F   0  0  0  0  0  0  0  0  0  0  0  0
    6.3410    0.0400  -14.0670 C   0  0  0  0  0  0  0  0  0  0  0  0
    5.3810    4.5950  -12.8640 C   0  0  0  0  0  0  0  0  0  0  0  0
  1 13  1  0
  1 25  1  0
  1 16  1  0
  2  5  1  0
  3 17  1  0
  4 36  3  0
  5 43  1  0
  5 14  1  0
  6 19  1  0
  6 18  1  0
  7  4  1  0
  7 21  1  0
  8 44  2  0
  9 38  1  0
 10 44  1  0
 11 42  1  0
 12 39  1  0
 13 45  1  0
 15  3  1  0
 17  6  1  0
 18 12  1  0
 18 28  1  0
 20 15  2  0
 20 29  1  0
 21 20  1  0
 22 11  1  0
 23 35  1  0
 26 28  1  0
 26 22  1  0
 26 34  1  0
 27 31  1  0
 27 37  1  0
 27  7  1  0
 29 17  1  0
 31 32  1  0
 33 31  2  0
 34 42  1  0
 35 19  1  0
 37 25  1  0
 37 45  1  0
 38  5  1  0
 39 24  1  0
 40 38  1  0
 41 39  2  0
 42 38  1  0
 42 30  1  0
 44 16  1  0
M  END
$$$$

     RDKit          3D

 34 35  0  0  0  0  0  0  0  0999 V2000
   10.5990    8.5240   -9.1740 C   0  0  0  0  0  0  0  0  0  0  0  0
   12.0400    9.2350   -2.7020 C   0  0  0  0  0  0  0  0  0  0  0  0
   11.6770    7.2520   -5.2000 C   0  0  0  0  0  0  0  0  0  0  0  0
    7.5620    5.6420  -16.1540 C   0  0  0  0  0  0  0  0  0  0  0  0
   10.3550    6.4000   -8.6340 C   0  0  0  0  0  0  0  0  0  0  0  0
   11.4280    6.5500   -6.3210 C   0  0  0  0  0  0  0  0  0  0  0  0
   11.8740    6.4790   -3.6610 C   0  0  0  0  0  0  0  0  0  0  0  0
   10.9500    7.7170   -8.4320 C   0  0  0  0  0  0  0  0  0  0  0  0
    9.5520    8.1760   -9.9850 C   0  0  0  0  0  0  0  0  0  0  0  0
    9.1750    8.4260  -10.8910 C   0  0  0  0  0  0  0  0  0  0  0  0
    9.5800    5.4130   -8.2310 C   0  0  0  0  0  0  0  0  0  0  0  0
    7.6650    7.3220  -12.6210 C   0  0  0  0  0  0  0  0  0  0  0  0
    6.4950    4.0670  -12.4720 C   0  0  0  0  0  0  0  0  0  0  0  0
    8.0560    4.8590   -8.8370 C   0  0  0  0  0  0  0  0  0  0  0  0
    7.0760    4.6330  -16.8680 C   0  0  0  0  0  0  0  0  0  0  0  0
   13.0790    8.8660   -0.3810 C   0  0  0  0  0  0  0  0  0  0  0  0
   12.1630    7.4690   -7.2300 C   0  0  0  0  0  0  0  0  0  0  0  0
    6.4230    3.1420  -13.4240 C   0  0  0  0  0  0  0  0  0  0  0  0
    8.7300    8.3500  -12.1990 C   0  0  0  0  0  0  0  0  0  0  0  0
   11.7330    9.5320   -3.8860 C   0  0  0  0  0  0  0  0  0  0  0  0
    7.0870    5.5580  -14.5340 C   0  0  0  0  0  0  0  0  0  0  0  0
    7.6030    4.9140  -10.3730 C   0  0  0  0  0  0  0  0  0  0  0  0
   13.5630    8.4470    0.9920 C   0  0  0  0  0  0  0  0  0  0  0  0
   12.3480   10.0270   -0.6020 O   0  0  0  0  0  0  0  0  0  0  0  0
   11.5450    8.5810   -5.0010 C   0  0  0  0  0  0  0  0  0  0  0  0
   13.1850    6.2890   -0.9370 N   0  0  0  0  0  0  0  0  0  0  0  0
    6.0060    5.1530  -13.5610 C   0  0  0  0  0  0  0  0  0  0  0  0
   12.3090    7.7240   -2.4880 C   0  0  0  0  0  0  0  0  0  0  0  0
   12.6760    7.7550   -1.1730 C   0  0  0  0  0  0  0  0  0  0  0  0
    8.8280    5.1590  -11.3480 C   0  0  0  0  0  0  0  0  0  0  0  0
    6.8800    2.2340  -14.1850 O   0  0  0  0  0  0  0  0  0  0  0  0
    8.3680    5.0530  -14.0930 O   0  0  0  0  0  0  0  0  0  0  0  0
    8.2620    5.8850  -12.4800 C   0  0  0  0  0  0  0  0  0  0  0  0
    9.2560    5.6880  -13.7000 C   0  0  0  0  0  0  0  0  0  0  0  0
  1  8  2  0
  2 28  1  0
  3 25  2  0
  3  7  1  0
  5  8  1  0
  5 11  1  0
  6  3  1  0
  7 28  2  0
  8 17  1  0
  9  1  1  0
 10  9  2  0
 12 33  1  0
 12 19  1  0
 14 11  1  0
 15  4  1  0
 16 23  1  0
 17  6  1  0
 18 13  1  0
 19 10  2  0
 20  2  2  0
 21  4  1  0
 21 32  1  0
 21 27  1  0
 22 14  1  0
 24 16  1  0
 25 20  1  0
 27 13  1  0
 28 29  1  0
 29 26  1  0
 29 16  1  0
 30 22  1  0
 31 18  1  0
 32 34  1  0
 33 34  1  0
 33 30  1  0
M  END
$$$$

     RDKit          3D

 31 34  0  0  0  0  0  0  0  0999 V2000
    7.8040    2.1340  -12.8720 N   0  0  0  0  0  0  0  0  0  0  0  0
    8.5850    5.7400  -12.4350 C   0  0  0  0  0  0  0  0  0  0  0  0
   11.3420    7.9060   -5.9730 C   0  0  0  0  0  0  0  0  0  0  0  0
   10.9740    6.7270   -5.3640 C   0  0  0  0  0  0  0  0  0  0  0  0
    6.0360    5.3940  -12.7500 C   0  0  0  0  0  0  0  0  0  0  0  0
   15.0350    8.6420    0.3850 C   0  0  0  0  0  0  0  0  0  0  0  0
    7.2070    6.2890  -12.1840 C   0  0  0  0  0  0  0  0  0  0  0  0
    6.3550    3.9140  -12.7970 C   0  0  0  0  0  0  0  0  0  0  0  0
   12.4140    7.4130   -1.8300 C   0  0  0  0  0  0  0  0  0  0  0  0
   13.5450    8.1070   -1.5050 N   0  0  0  0  0  0  0  0  0  0  0  0
   10.4640    6.9420   -8.0410 C   0  0  0  0  0  0  0  0  0  0  0  0
   12.0830    8.8900   -3.9840 C   0  0  0  0  0  0  0  0  0  0  0  0
   11.8230    8.9810   -5.3450 C   0  0  0  0  0  0  0  0  0  0  0  0
   11.9190    7.6760   -3.3350 C   0  0  0  0  0  0  0  0  0  0  0  0
   13.4090    9.4470   -1.6420 O   0  0  0  0  0  0  0  0  0  0  0  0
    9.8680    6.3700  -11.9480 C   0  0  0  0  0  0  0  0  0  0  0  0
   14.1050    7.6330   -0.2160 C   0  0  0  0  0  0  0  0  0  0  0  0
    5.3780    5.4450  -14.1850 C   0  0  0  0  0  0  0  0  0  0  0  0
   11.1650    6.6600   -3.9270 C   0  0  0  0  0  0  0  0  0  0  0  0
    6.5620    1.7580  -13.2500 C   0  0  0  0  0  0  0  0  0  0  0  0
    9.9970    6.0960  -10.4550 C   0  0  0  0  0  0  0  0  0  0  0  0
   11.2030    8.0480   -9.8760 O   0  0  0  0  0  0  0  0  0  0  0  0
    7.6580    3.4600  -12.5040 C   0  0  0  0  0  0  0  0  0  0  0  0
   11.7240    6.8540   -1.1380 O   0  0  0  0  0  0  0  0  0  0  0  0
    8.6120    5.0670   -9.9290 S   0  0  0  0  0  0  0  0  0  0  0  0
   11.1910    7.9690   -7.5270 C   0  0  0  0  0  0  0  0  0  0  0  0
    4.8710    5.5080  -11.6380 C   0  0  0  0  0  0  0  0  0  0  0  0
   10.1160    7.1860   -9.5790 C   0  0  0  0  0  0  0  0  0  0  0  0
    5.6620    2.9050  -13.2880 N   0  0  0  0  0  0  0  0  0  0  0  0
    8.6160    4.3940  -11.6810 C   0  0  0  0  0  0  0  0  0  0  0  0
    9.7510    6.1560   -7.9250 O   0  0  0  0  0  0  0  0  0  0  0  0
  2  7  1  0
  2 16  1  0
  2 30  1  0
  3  4  2  0
  3 13  1  0
  4 19  1  0
  5  7  1  0
  5 27  1  0
  8  5  1  0
  8 23  1  0
  9 10  1  0
  9 24  2  0
 10 17  1  0
 11 31  2  0
 11 26  1  0
 12 14  1  0
 13 12  2  0
 14  9  1  0
 15 10  1  0
 16 21  1  0
 17  6  1  0
 18  5  1  0
 19 14  2  0
 20  1  2  0
 21 25  1  0
 21 28  1  0
 23  1  1  0
 23 30  1  0
 26  3  1  0
 28 22  1  0
 28 11  1  0
 29 20  1  0
 29  8  2  0
 30 25  1  0
M  END
$$$$

     RDKit          3D

 33 39  0  0  0  0  0  0  0  0999 V2000
    5.5660    5.6770  -14.0670 C   0  0  0  0  0  0  0  0  0  0  0  0
   11.9840    9.2790   -8.3760 C   0  0  0  0  0  0  0  0  0  0  0  0
    8.5760    6.1400   -9.7430 N   0  0  0  0  0  0  0  0  0  0  0  0
   11.5340    7.7610   -5.1470 C   0  0  0  0  0  0  0  0  0  0  0  0
   11.8700   10.0870   -4.8550 C   0  0  0  0  0  0  0  0  0  0  0  0
   11.6610    6.4060   -4.3240 S   0  0  0  0  0  0  0  0  0  0  0  0
    6.2200    4.6300  -12.0030 C   0  0  0  0  0  0  0  0  0  0  0  0
   12.7900    8.6460   -0.7760 C   0  0  0  0  0  0  0  0  0  0  0  0
    7.3850    4.1730  -15.5430 C   0  0  0  0  0  0  0  0  0  0  0  0
    6.2090    4.6170  -13.3960 C   0  0  0  0  0  0  0  0  0  0  0  0
   11.7050    9.1020   -7.0240 C   0  0  0  0  0  0  0  0  0  0  0  0
    9.3340    7.3680  -11.5190 C   0  0  0  0  0  0  0  0  0  0  0  0
   10.1840    7.1430   -7.8260 C   0  0  0  0  0  0  0  0  0  0  0  0
   11.9050   10.2270   -6.1600 N   0  0  0  0  0  0  0  0  0  0  0  0
   12.1140    8.4420   -2.9520 C   0  0  0  0  0  0  0  0  0  0  0  0
   12.1690    7.0600   -2.8860 C   0  0  0  0  0  0  0  0  0  0  0  0
   11.1640    7.9010   -6.5830 C   0  0  0  0  0  0  0  0  0  0  0  0
   13.1110    7.3060   -0.6960 N   0  0  0  0  0  0  0  0  0  0  0  0
   12.8000    6.4780   -1.6780 C   0  0  0  0  0  0  0  0  0  0  0  0
   11.8320    8.8810   -4.3310 C   0  0  0  0  0  0  0  0  0  0  0  0
    9.0970    7.3840  -10.0760 C   0  0  0  0  0  0  0  0  0  0  0  0
    6.7700    5.2990  -16.1510 C   0  0  0  0  0  0  0  0  0  0  0  0
    8.2770    3.5400  -11.9730 N   0  0  0  0  0  0  0  0  0  0  0  0
    7.8540    5.0570  -10.1380 C   0  0  0  0  0  0  0  0  0  0  0  0
    8.1710    8.3490  -11.8990 O   0  0  0  0  0  0  0  0  0  0  0  0
   12.2770    9.2080   -1.8150 N   0  0  0  0  0  0  0  0  0  0  0  0
    9.0670    6.0550   -8.3110 C   0  0  0  0  0  0  0  0  0  0  0  0
   11.2670    8.6140   -9.3750 C   0  0  0  0  0  0  0  0  0  0  0  0
    7.3200    4.3370  -11.5010 C   0  0  0  0  0  0  0  0  0  0  0  0
    5.9730    6.0550  -15.3950 C   0  0  0  0  0  0  0  0  0  0  0  0
   10.2480    7.7050   -9.0950 C   0  0  0  0  0  0  0  0  0  0  0  0
    7.1810    3.8180  -14.0620 C   0  0  0  0  0  0  0  0  0  0  0  0
    8.0040    3.0060  -13.3110 C   0  0  0  0  0  0  0  0  0  0  0  0
  1 10  1  0
  2 11  1  0
  3 27  1  0
  4 20  1  0
  4  6  1  0
  5 20  2  0
  6 16  1  0
  7 29  1  0
  8 18  1  0
  9 32  1  0
 10  7  1  0
 11 17  1  0
 11 14  2  0
 13 17  1  0
 14  5  1  0
 15 16  2  0
 15 26  1  0
 16 19  1  0
 17  4  2  0
 19 18  2  0
 20 15  1  0
 21 12  1  0
 21  3  1  0
 21 31  1  0
 22  9  2  0
 22 30  1  0
 23 29  1  0
 24  3  1  0
 25 12  1  0
 26  8  2  0
 27 13  1  0
 28 31  1  0
 28  2  2  0
 29 24  1  0
 30  1  2  0
 31 13  2  0
 32 10  2  0
 32 33  1  0
 33 23  1  0
M  END
$$$$

     RDKit          3D

 32 36  0  0  0  0  0  0  0  0999 V2000
   10.4800    7.9740   -6.3500 C   0  0  0  0  0  0  0  0  0  0  0  0
    9.7550    7.2190  -11.1960 C   0  0  0  0  0  0  0  0  0  0  0  0
    8.5620    5.2640   -8.4190 C   0  0  0  0  0  0  0  0  0  0  0  0
   11.7320    7.2300   -8.0680 C   0  0  0  0  0  0  0  0  0  0  0  0
    8.5890    5.1220  -13.0640 O   0  0  0  0  0  0  0  0  0  0  0  0
    6.4370    3.8910  -12.9810 O   0  0  0  0  0  0  0  0  0  0  0  0
   11.2380    7.2750  -11.4150 C   0  0  0  0  0  0  0  0  0  0  0  0
   11.7390    6.9610   -3.6420 C   0  0  0  0  0  0  0  0  0  0  0  0
    6.4450    6.3180  -13.7770 C   0  0  0  0  0  0  0  0  0  0  0  0
    6.8760    7.6660  -13.9760 C   0  0  0  0  0  0  0  0  0  0  0  0
   12.5760    9.0630   -2.0350 C   0  0  0  0  0  0  0  0  0  0  0  0
   11.8130    7.8160   -7.0900 C   0  0  0  0  0  0  0  0  0  0  0  0
   11.4580    7.2030   -1.0060 F   0  0  0  0  0  0  0  0  0  0  0  0
   12.5450    7.7900   -1.4850 C   0  0  0  0  0  0  0  0  0  0  0  0
   12.0190    8.0410  -10.8490 O   0  0  0  0  0  0  0  0  0  0  0  0
    8.7850    5.3840   -9.9360 C   0  0  0  0  0  0  0  0  0  0  0  0
   12.1270    9.2900   -3.1050 C   0  0  0  0  0  0  0  0  0  0  0  0
   11.6450    8.2160   -4.4250 C   0  0  0  0  0  0  0  0  0  0  0  0
   13.4240    7.7960   -0.3830 F   0  0  0  0  0  0  0  0  0  0  0  0
    9.6420    6.3290   -8.0430 C   0  0  0  0  0  0  0  0  0  0  0  0
   11.5640    6.4590  -12.3060 O   0  0  0  0  0  0  0  0  0  0  0  0
    7.2550    5.0380  -12.6740 S   0  0  0  0  0  0  0  0  0  0  0  0
    6.9180    8.3870  -12.6270 C   0  0  0  0  0  0  0  0  0  0  0  0
   11.3380   10.1830   -5.5840 C   0  0  0  0  0  0  0  0  0  0  0  0
    9.4540    7.3550   -7.1110 C   0  0  0  0  0  0  0  0  0  0  0  0
   12.7930    6.8380   -2.5340 C   0  0  0  0  0  0  0  0  0  0  0  0
   11.3710    8.6360   -5.7390 C   0  0  0  0  0  0  0  0  0  0  0  0
    5.7590    5.8300  -14.8240 N   0  0  0  0  0  0  0  0  0  0  0  0
    5.4630    6.7560  -15.9130 C   0  0  0  0  0  0  0  0  0  0  0  0
   10.6010    6.5050   -8.9770 C   0  0  0  0  0  0  0  0  0  0  0  0
    9.5220    6.6410   -9.8850 N   0  0  0  0  0  0  0  0  0  0  0  0
    7.4580    5.1290  -10.7500 C   0  0  0  0  0  0  0  0  0  0  0  0
  1 25  1  0
  1 27  1  0
  5 22  2  0
  6 22  2  0
  7  2  1  0
  7 15  1  0
  8 26  1  0
  9 22  1  0
 10  9  1  0
 10 23  1  0
 11 14  1  0
 12  4  1  0
 12  1  1  0
 12 27  1  0
 14 13  1  0
 14 19  1  0
 16 32  1  0
 16 31  1  0
 16  3  1  0
 17 11  2  0
 18  8  1  0
 18 17  1  0
 20  3  1  0
 20 25  1  0
 21  7  2  0
 22 32  1  0
 26 14  1  0
 27 24  1  0
 27 18  1  0
 28  9  2  3
 29 28  1  0
 30  4  1  0
 30 20  1  0
 31  2  1  0
 31 30  1  0
 31 20  1  0
M  END
$$$$

     RDKit          3D

 48 53  0  0  0  0  0  0  0  0999 V2000
    7.3050    1.1010  -18.2580 C   0  0  0  0  0  0  0  0  0  0  0  0
    9.2660    6.9730   -9.0270 O   0  0  0  0  0  0  0  0  0  0  0  0
    5.5870    4.5660  -12.7130 C   0  0  0  0  0  0  0  0  0  0  0  0
   15.3430    8.4050    1.5180 C   0  0  0  0  0  0  0  0  0  0  0  0
   12.1370    9.3840   -2.7360 C   0  0  0  0  0  0  0  0  0  0  0  0
   13.9910    9.3880   -1.2730 O   0  0  0  0  0  0  0  0  0  0  0  0
    8.6730    6.0990  -11.9980 C   0  0  0  0  0  0  0  0  0  0  0  0
    6.7540    2.7990  -14.8890 C   0  0  0  0  0  0  0  0  0  0  0  0
    7.7520    3.6430  -13.9860 C   0  0  0  0  0  0  0  0  0  0  0  0
    5.5580    2.4240  -14.0520 C   0  0  0  0  0  0  0  0  0  0  0  0
   10.8250    5.6490   -7.4730 C   0  0  0  0  0  0  0  0  0  0  0  0
    8.4300    5.9900  -14.5440 C   0  0  0  0  0  0  0  0  0  0  0  0
    4.9010    3.6380  -13.5930 C   0  0  0  0  0  0  0  0  0  0  0  0
    6.6700    1.0690  -16.7660 C   0  0  0  0  0  0  0  0  0  0  0  0
   10.9530   11.5480   -1.8370 S   0  0  0  0  0  0  0  0  0  0  0  0
    5.8960    0.2850  -16.1620 C   0  0  0  0  0  0  0  0  0  0  0  0
   11.7720    9.4360   -5.9200 C   0  0  0  0  0  0  0  0  0  0  0  0
    5.1780    0.1910  -14.9800 C   0  0  0  0  0  0  0  0  0  0  0  0
   13.0230   10.1560   -0.4570 C   0  0  0  0  0  0  0  0  0  0  0  0
   10.8370    7.0240   -8.0520 C   0  0  0  0  0  0  0  0  0  0  0  0
   10.5960    8.4870   -0.9350 O   0  0  0  0  0  0  0  0  0  0  0  0
   10.6040    6.1780   -0.5860 C   0  0  0  0  0  0  0  0  0  0  0  0
   12.4390   10.7630   -2.9160 C   0  0  0  0  0  0  0  0  0  0  0  0
   14.4900    8.4540    0.7010 C   0  0  0  0  0  0  0  0  0  0  0  0
    9.1940    8.1010   -1.5180 C   0  0  0  0  0  0  0  0  0  0  0  0
    8.6510    4.5180  -14.8740 C   0  0  0  0  0  0  0  0  0  0  0  0
   12.1010   10.2310   -7.2070 O   0  0  0  0  0  0  0  0  0  0  0  0
   11.3060    6.7170   -2.1200 C   0  0  0  0  0  0  0  0  0  0  0  0
    7.6260    5.9890  -13.2080 C   0  0  0  0  0  0  0  0  0  0  0  0
    6.6530    7.1550  -13.2140 C   0  0  0  0  0  0  0  0  0  0  0  0
   13.7110    7.0460   -0.2270 S   0  0  0  0  0  0  0  0  0  0  0  0
   10.6660    7.9320   -7.2540 O   0  0  0  0  0  0  0  0  0  0  0  0
    9.0790    6.7090   -0.9210 C   0  0  0  0  0  0  0  0  0  0  0  0
   11.0870    7.5460   -4.6810 C   0  0  0  0  0  0  0  0  0  0  0  0
   12.7670   11.7480   -3.8000 C   0  0  0  0  0  0  0  0  0  0  0  0
    7.0060    4.6080  -13.1310 N   0  0  0  0  0  0  0  0  0  0  0  0
    9.4290    5.6790   -9.6450 C   0  0  0  0  0  0  0  0  0  0  0  0
   11.5640    8.9550   -1.2080 C   0  0  0  0  0  0  0  0  0  0  0  0
   13.8780    8.9910   -0.3040 C   0  0  0  0  0  0  0  0  0  0  0  0
   11.6050   10.8860   -5.9570 O   0  0  0  0  0  0  0  0  0  0  0  0
   11.1470    8.1210   -3.5350 C   0  0  0  0  0  0  0  0  0  0  0  0
    7.5650    4.3360  -10.2390 O   0  0  0  0  0  0  0  0  0  0  0  0
   11.8200   10.4230   -0.5380 C   0  0  0  0  0  0  0  0  0  0  0  0
    5.0180    1.1370  -14.0050 C   0  0  0  0  0  0  0  0  0  0  0  0
    6.9760    2.4010  -16.2050 C   0  0  0  0  0  0  0  0  0  0  0  0
   11.1980    8.3560   -5.8120 C   0  0  0  0  0  0  0  0  0  0  0  0
    9.6440    4.6220   -8.4830 C   0  0  0  0  0  0  0  0  0  0  0  0
    8.5210    5.1930  -10.7910 C   0  0  0  0  0  0  0  0  0  0  0  0
  1 14  1  0
  2 20  1  0
  5 41  1  0
  5 38  1  0
  6 39  2  0
  7 48  2  3
  8 10  1  0
  8  9  1  0
  9 26  1  0
  9 36  1  0
 10 44  1  0
 10 13  1  0
 12 29  1  0
 13  3  1  0
 14 45  1  0
 14 16  2  0
 15 43  1  0
 16 18  1  0
 17 46  1  0
 18 44  2  0
 19 39  1  0
 20 11  1  0
 20 32  1  0
 23  5  1  0
 23 15  1  0
 24  4  2  0
 25 21  1  0
 25 33  1  0
 26 12  1  0
 27 40  1  0
 27 17  1  0
 28 22  1  0
 29 30  1  0
 29 36  1  0
 29  7  1  0
 31 24  1  0
 32 46  1  0
 33 22  1  0
 34 41  1  0
 35 23  2  0
 36  3  1  0
 37 48  1  0
 37  2  1  0
 37 47  1  0
 38 21  1  0
 38 43  1  0
 39 24  1  0
 40 17  1  0
 43 19  1  0
 45  8  2  0
 46 34  1  0
 47 11  1  0
 48 42  1  0
M  END
$$$$

     RDKit          3D

 21 23  0  0  0  0  0  0  0  0999 V2000
   11.8440    9.7820   -5.7250 C   0  0  0  0  0  0  0  0  0  0  0  0
   10.0910    5.9450   -7.7200 O   0  0  0  0  0  0  0  0  0  0  0  0
   11.8640    7.4830   -4.4040 C   0  0  0  0  0  0  0  0  0  0  0  0
   11.4330    9.1740   -6.9000 C   0  0  0  0  0  0  0  0  0  0  0  0
    7.5530    4.8070  -12.6110 C   0  0  0  0  0  0  0  0  0  0  0  0
    9.0870    5.1600  -14.0440 O   0  0  0  0  0  0  0  0  0  0  0  0
    9.6650    7.1850   -9.8550 C   0  0  0  0  0  0  0  0  0  0  0  0
    6.6110    4.8860  -13.9620 C   0  0  0  0  0  0  0  0  0  0  0  0
   12.2330    9.5930   -3.2340 O   0  0  0  0  0  0  0  0  0  0  0  0
    8.0680    5.1210   -9.9910 C   0  0  0  0  0  0  0  0  0  0  0  0
   10.9610    7.4030   -9.2970 O   0  0  0  0  0  0  0  0  0  0  0  0
   11.0730    7.8090   -6.7580 C   0  0  0  0  0  0  0  0  0  0  0  0
   12.0380    7.0160   -2.8780 S   0  0  0  0  0  0  0  0  0  0  0  0
    9.5390    6.1570  -12.0000 C   0  0  0  0  0  0  0  0  0  0  0  0
    8.5560    5.8580  -12.8660 C   0  0  0  0  0  0  0  0  0  0  0  0
   11.1620    7.0400   -5.6150 C   0  0  0  0  0  0  0  0  0  0  0  0
    9.2900    5.7920  -10.4540 C   0  0  0  0  0  0  0  0  0  0  0  0
   11.9360    9.1190   -4.5690 C   0  0  0  0  0  0  0  0  0  0  0  0
    7.0950    4.7250  -11.1150 C   0  0  0  0  0  0  0  0  0  0  0  0
   10.5750    6.9820   -7.9540 C   0  0  0  0  0  0  0  0  0  0  0  0
   12.3670    8.6740   -2.2340 C   0  0  0  0  0  0  0  0  0  0  0  0
  1 18  1  0
  3 13  1  0
  4 12  1  0
  4  1  2  0
  5  8  1  0
  5 19  1  0
  7 11  1  0
  9 21  1  0
 11 20  1  0
 12 16  2  0
 13 21  1  0
 14 17  1  0
 15  6  1  0
 15  5  1  0
 15 14  1  0
 16  3  1  0
 17 10  1  0
 17  7  1  0
 18  3  2  0
 18  9  1  0
 19 10  1  0
 20  2  2  0
 20 12  1  0
M  END
$$$$

     RDKit          3D

 23 25  0  0  0  0  0  0  0  0999 V2000
   10.5690    7.1830  -10.5590 C   0  0  0  0  0  0  0  0  0  0  0  0
    9.7250    6.5980   -6.8620 S   0  0  0  0  0  0  0  0  0  0  0  0
   12.6140    9.3320   -4.3830 C   0  0  0  0  0  0  0  0  0  0  0  0
   11.8880    9.6750   -5.0310 C   0  0  0  0  0  0  0  0  0  0  0  0
    7.2680    5.4880  -11.6130 N   0  0  0  0  0  0  0  0  0  0  0  0
   12.3520    6.4930   -2.2120 C   0  0  0  0  0  0  0  0  0  0  0  0
    8.9140    4.4680  -11.1930 C   0  0  0  0  0  0  0  0  0  0  0  0
   11.4970    6.6170   -4.4410 O   0  0  0  0  0  0  0  0  0  0  0  0
   12.6860    7.5400   -1.2620 C   0  0  0  0  0  0  0  0  0  0  0  0
    7.3450    4.5570  -11.2300 C   0  0  0  0  0  0  0  0  0  0  0  0
   10.7740    7.5530   -9.2220 C   0  0  0  0  0  0  0  0  0  0  0  0
   10.8990    8.1360   -6.9780 C   0  0  0  0  0  0  0  0  0  0  0  0
   12.2800    8.3950   -3.2290 N   0  0  0  0  0  0  0  0  0  0  0  0
   11.3700    8.3460   -8.1650 C   0  0  0  0  0  0  0  0  0  0  0  0
    9.6850    6.7100   -8.6260 C   0  0  0  0  0  0  0  0  0  0  0  0
   12.3550    8.7070   -1.7280 C   0  0  0  0  0  0  0  0  0  0  0  0
    8.6950    6.1290   -9.1500 C   0  0  0  0  0  0  0  0  0  0  0  0
   12.0160    9.7820   -1.4520 O   0  0  0  0  0  0  0  0  0  0  0  0
    7.8220    5.1200   -8.8360 O   0  0  0  0  0  0  0  0  0  0  0  0
    9.3100    5.9540  -10.6480 C   0  0  0  0  0  0  0  0  0  0  0  0
   11.7680    7.1420   -3.4240 C   0  0  0  0  0  0  0  0  0  0  0  0
    6.2260    5.1080  -12.3780 C   0  0  0  0  0  0  0  0  0  0  0  0
   10.7050    8.9800   -5.6610 C   0  0  0  0  0  0  0  0  0  0  0  0
  1 11  1  0
  3 13  1  0
  4  3  1  0
  5 10  1  0
  6  9  1  0
  8 21  2  0
 10  7  1  0
 11 14  2  0
 12  2  1  0
 12 23  1  0
 13 16  1  0
 14 12  1  0
 15 11  1  0
 15  2  1  0
 16 18  2  0
 16  9  1  0
 17 19  1  0
 17 15  1  0
 20  7  1  0
 20  1  1  0
 20 17  1  0
 21 13  1  0
 21  6  1  0
 22  5  1  0
 23  4  1  0
M  END
$$$$

     RDKit          3D

 31 35  0  0  0  0  0  0  0  0999 V2000
    8.7630    7.2290  -12.7150 C   0  0  0  0  0  0  0  0  0  0  0  0
   13.0550    8.8710   -2.3450 N   0  0  0  0  0  0  0  0  0  0  0  0
   11.9310    7.0920   -3.5320 C   0  0  0  0  0  0  0  0  0  0  0  0
    9.4520    6.1800   -8.1780 C   0  0  0  0  0  0  0  0  0  0  0  0
    7.3890    3.2290  -13.3920 C   0  0  0  0  0  0  0  0  0  0  0  0
   11.8260    6.3180   -2.3210 C   0  0  0  0  0  0  0  0  0  0  0  0
    6.5110    2.1080  -13.8250 C   0  0  0  0  0  0  0  0  0  0  0  0
    5.9520    4.7910  -11.2610 C   0  0  0  0  0  0  0  0  0  0  0  0
   11.1490    8.3530   -7.0400 C   0  0  0  0  0  0  0  0  0  0  0  0
    9.7590    7.5830  -10.2540 C   0  0  0  0  0  0  0  0  0  0  0  0
   12.2790    9.3040   -4.5810 N   0  0  0  0  0  0  0  0  0  0  0  0
   10.8460    8.2250   -9.2950 C   0  0  0  0  0  0  0  0  0  0  0  0
   11.7070    9.2490   -5.6610 C   0  0  0  0  0  0  0  0  0  0  0  0
    7.9390    2.2060  -14.1710 O   0  0  0  0  0  0  0  0  0  0  0  0
    9.1430    8.1240  -11.5050 C   0  0  0  0  0  0  0  0  0  0  0  0
    7.4180    6.8290  -12.4760 C   0  0  0  0  0  0  0  0  0  0  0  0
   13.0960    8.0470   -1.1740 C   0  0  0  0  0  0  0  0  0  0  0  0
   12.4980    6.7830   -1.1460 C   0  0  0  0  0  0  0  0  0  0  0  0
    7.9450    3.7800  -12.2750 C   0  0  0  0  0  0  0  0  0  0  0  0
    5.7410    4.7600  -13.9970 C   0  0  0  0  0  0  0  0  0  0  0  0
    9.6890    6.2480  -12.9930 O   0  0  0  0  0  0  0  0  0  0  0  0
    8.9320    6.1570   -9.6460 C   0  0  0  0  0  0  0  0  0  0  0  0
    8.3240    5.3630  -10.5790 C   0  0  0  0  0  0  0  0  0  0  0  0
    7.3590    5.2070  -11.9150 C   0  0  0  0  0  0  0  0  0  0  0  0
    7.1200    4.3410  -13.6690 C   0  0  0  0  0  0  0  0  0  0  0  0
   10.7420    6.2660   -5.8340 C   0  0  0  0  0  0  0  0  0  0  0  0
   10.7200    6.8340   -4.5400 C   0  0  0  0  0  0  0  0  0  0  0  0
   13.7930    8.5280   -0.2750 N   0  0  0  0  0  0  0  0  0  0  0  0
   12.3950    8.4850   -3.4900 C   0  0  0  0  0  0  0  0  0  0  0  0
   10.2100    6.9630   -7.1490 C   0  0  0  0  0  0  0  0  0  0  0  0
   11.3720    8.4130   -8.4770 C   0  0  0  0  0  0  0  0  0  0  0  0
  1 21  1  0
  1 16  1  0
  1 15  1  0
  2 17  1  0
  3 27  1  0
  3 29  1  0
  3  6  1  0
  5 25  1  0
  5 19  1  0
  6 18  2  0
  7  5  1  0
  9 31  1  0
  9 13  1  0
 10 22  1  0
 10 12  2  0
 11 29  1  0
 12 31  2  0
 13 11  1  0
 14  7  1  0
 14  5  1  0
 15 10  1  0
 16 24  1  0
 17 18  1  0
 17 28  2  0
 19 24  1  0
 20 25  1  0
 22  4  2  0
 23 22  1  0
 24  8  1  0
 24 23  1  0
 26 27  1  0
 29  2  2  0
 30  4  1  0
 30  9  1  0
 30 26  1  0
M  END
$$$$

     RDKit          3D

 34 38  0  0  0  0  0  0  0  0999 V2000
   14.2980    7.1400   -1.3840 F   0  0  0  0  0  0  0  0  0  0  0  0
   10.0980    6.5550   -8.2170 C   0  0  0  0  0  0  0  0  0  0  0  0
   11.2550    6.8710  -12.6690 O   0  0  0  0  0  0  0  0  0  0  0  0
    6.2650    3.9860  -13.6330 C   0  0  0  0  0  0  0  0  0  0  0  0
    9.1970    5.4180   -7.9420 C   0  0  0  0  0  0  0  0  0  0  0  0
   10.9650    7.2050  -11.5530 C   0  0  0  0  0  0  0  0  0  0  0  0
    9.5270    7.2380   -9.5290 C   0  0  0  0  0  0  0  0  0  0  0  0
   11.4660    7.8920   -5.1110 C   0  0  0  0  0  0  0  0  0  0  0  0
    5.4300    5.9970  -15.5860 C   0  0  0  0  0  0  0  0  0  0  0  0
   12.2810    6.6380   -0.4140 F   0  0  0  0  0  0  0  0  0  0  0  0
    8.3620    6.3800  -11.5020 O   0  0  0  0  0  0  0  0  0  0  0  0
    5.7540    4.1050  -11.3900 C   0  0  0  0  0  0  0  0  0  0  0  0
   13.1440    8.7140   -0.2770 F   0  0  0  0  0  0  0  0  0  0  0  0
    6.5970    6.3540  -17.8180 O   0  0  0  0  0  0  0  0  0  0  0  0
   12.4510    8.9520   -3.0820 C   0  0  0  0  0  0  0  0  0  0  0  0
   11.1080    7.9290   -6.4690 N   0  0  0  0  0  0  0  0  0  0  0  0
    7.2410    4.7450  -14.5040 N   0  0  0  0  0  0  0  0  0  0  0  0
   13.1120    7.6140   -0.9830 C   0  0  0  0  0  0  0  0  0  0  0  0
   11.8300    6.6020   -3.0480 C   0  0  0  0  0  0  0  0  0  0  0  0
   11.1170    7.3240   -9.1800 C   0  0  0  0  0  0  0  0  0  0  0  0
   10.0410    7.6350   -7.0970 C   0  0  0  0  0  0  0  0  0  0  0  0
    9.0030    8.6420  -11.3920 C   0  0  0  0  0  0  0  0  0  0  0  0
    9.5120    7.1810  -11.0020 C   0  0  0  0  0  0  0  0  0  0  0  0
    8.9430    8.0730   -6.9670 O   0  0  0  0  0  0  0  0  0  0  0  0
    6.5760    4.9160  -15.8860 C   0  0  0  0  0  0  0  0  0  0  0  0
    6.6150    3.7530  -12.1400 C   0  0  0  0  0  0  0  0  0  0  0  0
    8.1470    3.8790  -12.0530 C   0  0  0  0  0  0  0  0  0  0  0  0
    6.9030    6.0000  -16.4940 C   0  0  0  0  0  0  0  0  0  0  0  0
   11.3950    6.6370   -4.3780 C   0  0  0  0  0  0  0  0  0  0  0  0
    8.6220    5.2680  -12.3720 C   0  0  0  0  0  0  0  0  0  0  0  0
   11.9670    9.0690   -4.4160 C   0  0  0  0  0  0  0  0  0  0  0  0
    8.3190    5.6030  -13.9620 C   0  0  0  0  0  0  0  0  0  0  0  0
   11.7550    7.5070  -10.4990 N   0  0  0  0  0  0  0  0  0  0  0  0
   12.4100    7.6820   -2.4170 C   0  0  0  0  0  0  0  0  0  0  0  0
  1 18  1  0
  2  5  1  0
  2 21  1  0
  3  6  2  0
  4 26  1  0
  6 23  1  0
  6 33  1  0
  7 20  1  0
  7  2  1  0
  8 31  2  0
  8 29  1  0
 11 23  1  0
 14 28  1  0
 15 34  2  0
 16  8  1  0
 17 32  1  0
 17  4  1  0
 18 10  1  0
 18 13  1  0
 19 34  1  0
 20  2  1  0
 21 24  2  0
 21 16  1  0
 22 23  1  0
 23  7  1  0
 25  9  1  0
 25 17  1  0
 26 27  1  0
 26 12  2  0
 28 25  1  0
 28  9  1  0
 29 19  2  0
 30 27  1  0
 30 11  1  0
 31 15  1  0
 32 30  1  0
 33 20  1  0
 34 18  1  0
M  END
$$$$

     RDKit          3D

 35 38  0  0  0  0  0  0  0  0999 V2000
    8.5030    3.7200   -8.4870 Cl  0  0  0  0  0  0  0  0  0  0  0  0
   13.7960    9.3180   -0.6140 C   0  0  0  0  0  0  0  0  0  0  0  0
   13.2620    6.4500   -0.6610 O   0  0  0  0  0  0  0  0  0  0  0  0
    9.1800    6.0760   -7.7710 N   0  0  0  0  0  0  0  0  0  0  0  0
   10.4520    7.0750  -11.7220 C   0  0  0  0  0  0  0  0  0  0  0  0
    9.5700    6.0430  -11.5360 C   0  0  0  0  0  0  0  0  0  0  0  0
   11.2490    6.0270   -2.9440 C   0  0  0  0  0  0  0  0  0  0  0  0
   10.8320    7.6270  -10.5370 C   0  0  0  0  0  0  0  0  0  0  0  0
   11.9620    8.0020   -7.4220 C   0  0  0  0  0  0  0  0  0  0  0  0
    8.9540    5.1790   -8.7590 C   0  0  0  0  0  0  0  0  0  0  0  0
   12.5810    7.2290   -1.3100 C   0  0  0  0  0  0  0  0  0  0  0  0
   13.0620    8.6090   -1.6150 C   0  0  0  0  0  0  0  0  0  0  0  0
    6.6320    6.7680  -13.2190 S   0  0  0  0  0  0  0  0  0  0  0  0
    9.5660    5.7440  -15.1920 O   0  0  0  0  0  0  0  0  0  0  0  0
    9.4570    5.9220  -10.0070 C   0  0  0  0  0  0  0  0  0  0  0  0
   11.0470    6.7000   -5.4200 C   0  0  0  0  0  0  0  0  0  0  0  0
    7.9870    5.7910  -13.3620 N   0  0  0  0  0  0  0  0  0  0  0  0
    8.2460    5.0830  -14.8420 S   0  0  0  0  0  0  0  0  0  0  0  0
   11.8200    7.0220   -4.0570 C   0  0  0  0  0  0  0  0  0  0  0  0
   11.3660    6.8550   -1.7530 N   0  0  0  0  0  0  0  0  0  0  0  0
    7.2590    5.2630  -15.7860 O   0  0  0  0  0  0  0  0  0  0  0  0
   11.0340    8.0120   -6.2410 C   0  0  0  0  0  0  0  0  0  0  0  0
    9.9980    7.0760   -8.2940 N   0  0  0  0  0  0  0  0  0  0  0  0
   10.1330    6.9730   -9.5660 C   0  0  0  0  0  0  0  0  0  0  0  0
   10.5630    8.2050   -7.6110 C   0  0  0  0  0  0  0  0  0  0  0  0
    5.7300    5.9430  -12.4140 O   0  0  0  0  0  0  0  0  0  0  0  0
    8.5170    3.7170  -14.6300 O   0  0  0  0  0  0  0  0  0  0  0  0
   12.1990    8.5480   -3.9560 C   0  0  0  0  0  0  0  0  0  0  0  0
    6.9610    8.0290  -12.5070 O   0  0  0  0  0  0  0  0  0  0  0  0
    8.9290    5.3900  -12.4980 N   0  0  0  0  0  0  0  0  0  0  0  0
   10.1970    7.2530   -1.0590 C   0  0  0  0  0  0  0  0  0  0  0  0
   12.0670    9.3070   -4.9750 O   0  0  0  0  0  0  0  0  0  0  0  0
   12.8370    9.1280   -2.8500 C   0  0  0  0  0  0  0  0  0  0  0  0
    6.1270    7.0630  -14.5680 O   0  0  0  0  0  0  0  0  0  0  0  0
    9.1870    6.1330   -0.9060 C   0  0  0  0  0  0  0  0  0  0  0  0
  5  6  2  0
  5  8  1  0
  6 15  1  0
  7 20  1  0
  8 24  1  0
  9 22  1  0
 10  1  1  0
 10  4  1  0
 11  3  2  0
 12 11  1  0
 12  2  1  0
 13 29  1  0
 13 26  1  0
 14 18  1  0
 15 24  2  0
 15 10  1  0
 17 13  1  0
 17 30  1  0
 18 27  1  0
 18 17  1  0
 19 16  1  0
 19 28  1  0
 19  7  1  0
 20 11  1  0
 20 31  1  0
 21 18  1  0
 22 16  1  0
 23  4  1  0
 24 23  1  0
 25 23  1  0
 25  9  1  0
 25 22  1  0
 28 33  1  0
 30  6  1  0
 31 35  1  0
 32 28  2  0
 33 12  2  0
 34 13  1  0
M  END
$$$$

     RDKit          3D

 22 23  0  0  0  0  0  0  0  0999 V2000
    7.1360    5.1510  -13.6000 C   0  0  0  0  0  0  0  0  0  0  0  0
    7.7150    4.5270  -15.7340 O   0  0  0  0  0  0  0  0  0  0  0  0
    9.9190    7.6690  -12.0470 N   0  0  0  0  0  0  0  0  0  0  0  0
    8.8880    4.5410   -8.5010 C   0  0  0  0  0  0  0  0  0  0  0  0
   12.1140    7.0330  -14.0180 C   0  0  0  0  0  0  0  0  0  0  0  0
   11.7860    6.3920  -12.7420 O   0  0  0  0  0  0  0  0  0  0  0  0
    8.8150    5.6690   -9.3880 C   0  0  0  0  0  0  0  0  0  0  0  0
    6.8800    2.8790  -14.4230 N   0  0  0  0  0  0  0  0  0  0  0  0
    7.8140    7.0990  -12.6090 C   0  0  0  0  0  0  0  0  0  0  0  0
    5.5090    3.4730  -12.4940 C   0  0  0  0  0  0  0  0  0  0  0  0
    8.6310    5.6370  -10.8230 C   0  0  0  0  0  0  0  0  0  0  0  0
    6.0130    7.8180  -14.0050 C   0  0  0  0  0  0  0  0  0  0  0  0
    8.1810    6.1670  -13.5580 O   0  0  0  0  0  0  0  0  0  0  0  0
    7.1030    4.2370  -14.7460 C   0  0  0  0  0  0  0  0  0  0  0  0
   11.1850    7.1050  -11.7520 C   0  0  0  0  0  0  0  0  0  0  0  0
    8.6960    7.0470  -11.4100 N   0  0  0  0  0  0  0  0  0  0  0  0
    6.0400    1.0290  -13.0940 C   0  0  0  0  0  0  0  0  0  0  0  0
   11.6750    7.2610  -10.6730 O   0  0  0  0  0  0  0  0  0  0  0  0
    5.8460    4.8580  -12.7820 C   0  0  0  0  0  0  0  0  0  0  0  0
    8.0790    5.6320   -8.2080 N   0  0  0  0  0  0  0  0  0  0  0  0
    6.5520    7.7850  -12.6710 O   0  0  0  0  0  0  0  0  0  0  0  0
    6.1850    2.5110  -13.3740 C   0  0  0  0  0  0  0  0  0  0  0  0
  1 13  1  0
  1 19  1  0
  2 14  2  0
  3 15  1  0
  3 16  1  0
  4 20  1  0
  5  6  1  0
  6 15  1  0
  7 11  1  0
  7  4  1  0
  7 20  1  0
  8 22  2  0
  9 13  1  0
  9 16  1  0
 12 21  1  0
 14  8  1  0
 14  1  1  0
 15 18  2  0
 16 11  1  0
 19 10  1  0
 21  9  1  0
 22 17  1  0
 22 10  1  0
M  END
$$$$

     RDKit          3D

 18 20  0  0  0  0  0  0  0  0999 V2000
    9.9510    7.6660   -8.9340 C   0  0  0  0  0  0  0  0  0  0  0  0
   12.8440    7.9630   -1.4330 N   0  0  0  0  0  0  0  0  0  0  0  0
   12.0900    6.8570   -2.9910 C   0  0  0  0  0  0  0  0  0  0  0  0
   11.8670    9.7970   -4.6650 C   0  0  0  0  0  0  0  0  0  0  0  0
   12.7830    8.6420   -2.4490 N   0  0  0  0  0  0  0  0  0  0  0  0
    9.2850    5.5740   -8.5920 C   0  0  0  0  0  0  0  0  0  0  0  0
   13.1360    8.4580   -0.0570 C   0  0  0  0  0  0  0  0  0  0  0  0
   11.2700    8.1460   -6.7700 C   0  0  0  0  0  0  0  0  0  0  0  0
    9.3310    6.5820   -9.5160 C   0  0  0  0  0  0  0  0  0  0  0  0
   12.6000    5.7430   -1.1100 F   0  0  0  0  0  0  0  0  0  0  0  0
   11.6190    7.5350   -5.5880 C   0  0  0  0  0  0  0  0  0  0  0  0
   12.5680    6.8290   -1.7890 C   0  0  0  0  0  0  0  0  0  0  0  0
   10.5100    7.2480   -7.6940 N   0  0  0  0  0  0  0  0  0  0  0  0
   12.2630    7.9870   -3.3240 N   0  0  0  0  0  0  0  0  0  0  0  0
   11.9220    8.4610   -4.4910 C   0  0  0  0  0  0  0  0  0  0  0  0
   11.2150    9.5120   -6.8690 C   0  0  0  0  0  0  0  0  0  0  0  0
   10.1820    5.9300   -7.6400 C   0  0  0  0  0  0  0  0  0  0  0  0
   11.4840   10.3050   -5.8090 C   0  0  0  0  0  0  0  0  0  0  0  0
  1 13  1  0
  2  7  1  0
  3 12  1  0
  4 15  1  0
  5  2  1  0
  6 17  1  0
  8 11  1  0
  9  1  1  0
  9  6  1  0
 11 15  2  0
 12  2  1  0
 12 10  1  0
 13 17  1  0
 13  8  1  0
 14  3  1  0
 14  5  1  0
 15 14  1  0
 16  8  2  0
 16 18  1  0
 18  4  2  0
M  END
$$$$

     RDKit          3D

 27 29  0  0  0  0  0  0  0  0999 V2000
    8.3790    4.8140  -14.7030 C   0  0  0  0  0  0  0  0  0  0  0  0
    7.4770    5.1470  -13.4680 C   0  0  0  0  0  0  0  0  0  0  0  0
   11.8520    6.7120   -3.8650 C   0  0  0  0  0  0  0  0  0  0  0  0
   12.3520    8.9760   -2.4130 C   0  0  0  0  0  0  0  0  0  0  0  0
   11.9850    9.0960   -3.7560 C   0  0  0  0  0  0  0  0  0  0  0  0
    8.8270    5.4700   -8.5990 C   0  0  0  0  0  0  0  0  0  0  0  0
    6.9010    6.5220  -13.6250 C   0  0  0  0  0  0  0  0  0  0  0  0
    6.3020    4.2180  -13.3010 N   0  0  0  0  0  0  0  0  0  0  0  0
   10.1470    6.1040   -8.7970 C   0  0  0  0  0  0  0  0  0  0  0  0
   10.5210    7.0420   -6.3950 C   0  0  0  0  0  0  0  0  0  0  0  0
    9.6310    6.4370   -5.7050 O   0  0  0  0  0  0  0  0  0  0  0  0
   12.4460    7.7120   -1.7920 C   0  0  0  0  0  0  0  0  0  0  0  0
   12.5250   10.1600   -1.7530 N   0  0  0  0  0  0  0  0  0  0  0  0
    5.7590    6.1690  -14.6560 C   0  0  0  0  0  0  0  0  0  0  0  0
   11.3200    7.9740   -5.7940 N   0  0  0  0  0  0  0  0  0  0  0  0
    8.1560    5.2690   -9.9420 C   0  0  0  0  0  0  0  0  0  0  0  0
    8.9660    3.8000  -12.1820 O   0  0  0  0  0  0  0  0  0  0  0  0
   11.3820    8.2930   -8.1150 C   0  0  0  0  0  0  0  0  0  0  0  0
    5.2800    4.8290  -14.1060 C   0  0  0  0  0  0  0  0  0  0  0  0
    8.4600    5.7250  -11.1930 N   0  0  0  0  0  0  0  0  0  0  0  0
    5.8190    4.1010  -11.9080 C   0  0  0  0  0  0  0  0  0  0  0  0
   10.6090    7.0500   -7.7630 C   0  0  0  0  0  0  0  0  0  0  0  0
   11.7680    8.9360   -6.7450 C   0  0  0  0  0  0  0  0  0  0  0  0
   11.7780    7.9370   -4.5150 C   0  0  0  0  0  0  0  0  0  0  0  0
    8.3900    4.8510  -12.2040 C   0  0  0  0  0  0  0  0  0  0  0  0
   12.2500    6.5670   -2.5360 C   0  0  0  0  0  0  0  0  0  0  0  0
    7.5670    7.5380  -13.5800 O   0  0  0  0  0  0  0  0  0  0  0  0
  2  1  1  0
  2  8  1  0
  2 25  1  0
  3 26  1  0
  4 12  1  0
  4 13  1  0
  5  4  2  0
  7 27  2  0
  7  2  1  0
  8 21  1  0
  9  6  1  0
 10 15  1  0
 10 11  2  0
 14 19  1  0
 14  7  1  0
 15 24  1  0
 16  6  1  0
 18 22  1  0
 18 23  1  0
 19  8  1  0
 20 16  1  0
 22  9  1  0
 22 10  1  0
 23 15  1  0
 24  3  2  0
 24  5  1  0
 25 17  2  0
 25 20  1  0
 26 12  2  0
M  END
$$$$

     RDKit          3D

 28 30  0  0  0  0  0  0  0  0999 V2000
    6.5350    5.0730  -14.3250 C   0  0  0  0  0  0  0  0  0  0  0  0
   10.8220    6.5740   -4.7510 C   0  0  0  0  0  0  0  0  0  0  0  0
    5.3730    4.7690  -13.5910 C   0  0  0  0  0  0  0  0  0  0  0  0
   12.5120    8.9920   -2.5760 C   0  0  0  0  0  0  0  0  0  0  0  0
   12.4270    8.1970   -3.8660 C   0  0  0  0  0  0  0  0  0  0  0  0
   13.0400    7.4010   -0.5910 C   0  0  0  0  0  0  0  0  0  0  0  0
    9.4830    6.6190  -11.7430 C   0  0  0  0  0  0  0  0  0  0  0  0
    8.0360    4.6930  -12.3870 C   0  0  0  0  0  0  0  0  0  0  0  0
    9.6580    6.8020  -12.8570 O   0  0  0  0  0  0  0  0  0  0  0  0
   11.7370    6.9440   -3.7690 N   0  0  0  0  0  0  0  0  0  0  0  0
   12.4480    9.0080   -5.2900 Cl  0  0  0  0  0  0  0  0  0  0  0  0
    9.8950    6.3040   -8.5660 C   0  0  0  0  0  0  0  0  0  0  0  0
   11.1390    8.4630   -9.1240 C   0  0  0  0  0  0  0  0  0  0  0  0
    5.5510    4.3750  -12.2390 C   0  0  0  0  0  0  0  0  0  0  0  0
    9.7690    6.4000   -7.0240 C   0  0  0  0  0  0  0  0  0  0  0  0
   13.2230    8.5610   -1.4290 N   0  0  0  0  0  0  0  0  0  0  0  0
    8.7130    5.3840   -9.0240 C   0  0  0  0  0  0  0  0  0  0  0  0
   11.1220    6.5150   -6.3110 C   0  0  0  0  0  0  0  0  0  0  0  0
    6.9270    4.2580  -11.6720 C   0  0  0  0  0  0  0  0  0  0  0  0
   11.5060    6.7000   -2.3600 C   0  0  0  0  0  0  0  0  0  0  0  0
    9.8180    7.6740   -9.3170 C   0  0  0  0  0  0  0  0  0  0  0  0
    9.1120    5.1660  -11.4730 C   0  0  0  0  0  0  0  0  0  0  0  0
   11.9660   10.0380   -2.5900 F   0  0  0  0  0  0  0  0  0  0  0  0
    8.5350    5.1560  -10.4580 O   0  0  0  0  0  0  0  0  0  0  0  0
    7.9340    4.5790  -13.8650 C   0  0  0  0  0  0  0  0  0  0  0  0
   12.7420    6.3740   -1.5200 C   0  0  0  0  0  0  0  0  0  0  0  0
    9.4230    7.6490  -10.7630 N   0  0  0  0  0  0  0  0  0  0  0  0
    8.9020    8.9500  -11.2190 C   0  0  0  0  0  0  0  0  0  0  0  0
  1 25  1  0
  1  3  1  0
  2 10  1  0
  3 14  1  0
  4 23  1  0
  4 16  1  0
  5 11  1  0
  5 10  1  0
  5  4  1  0
  7 27  1  0
  8 25  1  0
  8 19  1  0
  8 22  1  0
  9  7  2  0
 10 20  1  0
 12 15  1  0
 14 19  2  0
 15 18  1  0
 16  6  1  0
 17 12  1  0
 18  2  1  0
 20 26  1  0
 21 13  1  0
 21 12  1  0
 22  7  1  0
 22 24  1  0
 24 17  1  0
 26  6  1  0
 27 21  1  0
 28 27  1  0
M  END
$$$$

     RDKit          3D

 17 16  0  0  0  0  0  0  0  0999 V2000
   12.5660    7.7930   -1.7290 C   0  0  0  0  0  0  0  0  0  0  0  0
   11.8350    7.8200   -4.5640 C   0  0  0  0  0  0  0  0  0  0  0  0
   13.0850    8.8350   -1.6400 N   0  0  0  0  0  0  0  0  0  0  0  0
    9.5910    4.8770   -9.1210 C   0  0  0  0  0  0  0  0  0  0  0  0
   11.1950    6.5790   -6.6590 C   0  0  0  0  0  0  0  0  0  0  0  0
    8.6470    6.8380  -12.5580 C   0  0  0  0  0  0  0  0  0  0  0  0
    8.4250    5.2880  -10.1820 C   0  0  0  0  0  0  0  0  0  0  0  0
   10.9190    7.7210   -5.8230 C   0  0  0  0  0  0  0  0  0  0  0  0
   11.7670    6.5270   -3.7130 C   0  0  0  0  0  0  0  0  0  0  0  0
    6.3290    7.0920  -13.5930 O   0  0  0  0  0  0  0  0  0  0  0  0
   11.7010    6.7660   -2.2720 C   0  0  0  0  0  0  0  0  0  0  0  0
    8.2730    7.8500  -11.8180 O   0  0  0  0  0  0  0  0  0  0  0  0
   10.0530    6.8530   -7.7430 C   0  0  0  0  0  0  0  0  0  0  0  0
    7.4110    6.0580  -13.2250 C   0  0  0  0  0  0  0  0  0  0  0  0
    7.2880    5.0630   -9.8450 O   0  0  0  0  0  0  0  0  0  0  0  0
    8.9350    5.3070  -11.5660 C   0  0  0  0  0  0  0  0  0  0  0  0
    9.2090    5.7310   -7.9100 C   0  0  0  0  0  0  0  0  0  0  0  0
  1  3  3  0
  2  9  1  0
  4 17  1  0
  5  8  1  0
  6 12  1  0
  6 16  1  0
  7 15  2  0
  7  4  1  0
  8  2  1  0
  9 11  1  0
 10 14  1  0
 11  1  1  0
 13  5  1  0
 14  6  1  0
 16  7  1  0
 17 13  1  0
M  END
$$$$

     RDKit          3D

 33 39  0  0  0  0  0  0  0  0999 V2000
   12.8390    7.7870   -1.3530 C   0  0  0  0  0  0  0  0  0  0  0  0
   12.1340    9.0470   -5.3110 N   0  0  0  0  0  0  0  0  0  0  0  0
    5.6230    6.4130  -14.6600 N   0  0  0  0  0  0  0  0  0  0  0  0
    9.5800    8.5810  -10.7130 C   0  0  0  0  0  0  0  0  0  0  0  0
    8.0640    3.9100  -10.4750 C   0  0  0  0  0  0  0  0  0  0  0  0
   11.8090    7.1970   -3.4980 C   0  0  0  0  0  0  0  0  0  0  0  0
   11.9820    6.8570   -2.1120 C   0  0  0  0  0  0  0  0  0  0  0  0
    6.7120    6.3870  -15.5400 C   0  0  0  0  0  0  0  0  0  0  0  0
    7.8200    6.1000  -14.9240 N   0  0  0  0  0  0  0  0  0  0  0  0
    8.3630    5.3670   -8.6360 N   0  0  0  0  0  0  0  0  0  0  0  0
   10.7420    7.4830   -6.3030 N   0  0  0  0  0  0  0  0  0  0  0  0
    7.4390    4.8480  -11.4590 N   0  0  0  0  0  0  0  0  0  0  0  0
   10.6830    6.4570   -5.5290 N   0  0  0  0  0  0  0  0  0  0  0  0
    6.1670    6.1040  -13.4680 C   0  0  0  0  0  0  0  0  0  0  0  0
    7.4970    5.9670  -13.6130 C   0  0  0  0  0  0  0  0  0  0  0  0
   12.7610    9.3850   -3.1540 C   0  0  0  0  0  0  0  0  0  0  0  0
    9.1240    4.6410   -9.6910 C   0  0  0  0  0  0  0  0  0  0  0  0
    5.6170    6.0450  -12.2710 N   0  0  0  0  0  0  0  0  0  0  0  0
   11.4790    8.5640   -6.4190 C   0  0  0  0  0  0  0  0  0  0  0  0
    9.1350    5.9290   -7.5730 C   0  0  0  0  0  0  0  0  0  0  0  0
   11.6640    9.2220   -7.4800 O   0  0  0  0  0  0  0  0  0  0  0  0
    9.2820    8.4080   -8.4610 O   0  0  0  0  0  0  0  0  0  0  0  0
   11.6630    5.7120   -1.7300 F   0  0  0  0  0  0  0  0  0  0  0  0
    8.2280    5.5480  -12.4990 C   0  0  0  0  0  0  0  0  0  0  0  0
    9.6170    5.6770  -12.5980 C   0  0  0  0  0  0  0  0  0  0  0  0
    6.0740    5.3290  -11.1810 C   0  0  0  0  0  0  0  0  0  0  0  0
   11.1750    6.1170   -4.3220 C   0  0  0  0  0  0  0  0  0  0  0  0
   10.0940    7.2080   -7.9080 C   0  0  0  0  0  0  0  0  0  0  0  0
   10.1690    7.8960   -9.4860 C   0  0  0  0  0  0  0  0  0  0  0  0
   12.9560    9.0830   -1.8510 C   0  0  0  0  0  0  0  0  0  0  0  0
   12.1810    8.5080   -4.0510 C   0  0  0  0  0  0  0  0  0  0  0  0
   13.0660    7.8890    0.1080 C   0  0  0  0  0  0  0  0  0  0  0  0
   13.6610    9.0550   -0.6530 C   0  0  0  0  0  0  0  0  0  0  0  0
  1 33  1  0
  1 32  1  0
  2 31  1  0
  3 14  2  0
  5 17  1  0
  6  7  2  0
  7 23  1  0
  7  1  1  0
  8  9  2  0
  8  3  1  0
 10 20  1  0
 11 13  1  0
 12 26  1  0
 12  5  1  0
 13 27  2  0
 14 18  1  0
 15  9  1  0
 15 14  1  0
 15 24  1  0
 17 10  1  0
 18 26  1  0
 19 11  1  0
 19  2  1  0
 21 19  2  0
 22 28  1  0
 24 25  1  0
 24 12  1  0
 27  6  1  0
 28 20  1  0
 28 11  1  0
 29  4  1  0
 29 22  1  0
 29 28  1  0
 30 16  1  0
 30  1  1  0
 30 33  1  0
 31  6  1  0
 31 16  2  0
 33 32  1  0
M  END
$$$$

     RDKit          3D

 23 25  0  0  0  0  0  0  0  0999 V2000
   12.4780    8.0150   -2.1640 O   0  0  0  0  0  0  0  0  0  0  0  0
    8.6780    3.2370  -12.5250 O   0  0  0  0  0  0  0  0  0  0  0  0
   10.5560    6.2700   -6.3710 C   0  0  0  0  0  0  0  0  0  0  0  0
    7.8880    3.6790  -13.6710 C   0  0  0  0  0  0  0  0  0  0  0  0
    6.8410    4.8970  -11.6240 C   0  0  0  0  0  0  0  0  0  0  0  0
   10.7120    6.8330   -7.7510 N   0  0  0  0  0  0  0  0  0  0  0  0
    7.0740    5.0580  -13.4010 C   0  0  0  0  0  0  0  0  0  0  0  0
   10.1000    6.1450   -8.5950 N   0  0  0  0  0  0  0  0  0  0  0  0
   11.9100    9.5100   -5.4860 C   0  0  0  0  0  0  0  0  0  0  0  0
    5.6210    5.0190  -13.9810 C   0  0  0  0  0  0  0  0  0  0  0  0
    8.6400    5.2530  -10.2160 C   0  0  0  0  0  0  0  0  0  0  0  0
   12.4330    6.6740   -1.6240 C   0  0  0  0  0  0  0  0  0  0  0  0
    8.8630    7.4310  -11.5360 C   0  0  0  0  0  0  0  0  0  0  0  0
   12.0680    8.1310   -3.4490 C   0  0  0  0  0  0  0  0  0  0  0  0
   11.4510    8.4220   -6.1410 C   0  0  0  0  0  0  0  0  0  0  0  0
   12.2780    9.3640   -4.1410 C   0  0  0  0  0  0  0  0  0  0  0  0
    9.5620    7.6140  -10.2720 C   0  0  0  0  0  0  0  0  0  0  0  0
    9.0150    6.4430   -9.4290 C   0  0  0  0  0  0  0  0  0  0  0  0
    7.6350    6.2050  -13.9710 O   0  0  0  0  0  0  0  0  0  0  0  0
    7.8710    6.0420  -11.2850 N   0  0  0  0  0  0  0  0  0  0  0  0
   11.2040    7.2110   -5.4520 C   0  0  0  0  0  0  0  0  0  0  0  0
   11.5520    7.1010   -4.1800 C   0  0  0  0  0  0  0  0  0  0  0  0
   11.1600    8.1600   -7.5590 C   0  0  0  0  0  0  0  0  0  0  0  0
  1 12  1  0
  3 21  1  0
  4  7  1  0
  4  2  1  0
  5 20  1  0
  6 23  1  0
  6  3  1  0
  7 10  1  0
  7  5  1  0
  8  6  1  0
  9 16  1  0
 11 18  1  0
 13 20  1  0
 13 17  1  0
 14  1  1  0
 15  9  2  0
 15 21  1  0
 16 14  2  0
 17 18  1  0
 18  8  1  0
 19  7  1  0
 20 11  1  0
 21 22  2  0
 22 14  1  0
 23 15  1  0
M  END
$$$$

     RDKit          3D

 24 27  0  0  0  0  0  0  0  0999 V2000
   10.2790    6.4560   -6.4550 N   0  0  0  0  0  0  0  0  0  0  0  0
   12.5670    8.8540   -3.0060 C   0  0  0  0  0  0  0  0  0  0  0  0
   12.2250    6.5450   -2.5610 C   0  0  0  0  0  0  0  0  0  0  0  0
    9.7620    7.9740  -10.7780 C   0  0  0  0  0  0  0  0  0  0  0  0
    6.0580    5.4040  -12.7170 C   0  0  0  0  0  0  0  0  0  0  0  0
   10.9890    8.9150   -6.9250 S   0  0  0  0  0  0  0  0  0  0  0  0
   12.0270    8.7330   -4.2610 C   0  0  0  0  0  0  0  0  0  0  0  0
    7.5870    4.9760  -10.6650 C   0  0  0  0  0  0  0  0  0  0  0  0
   10.8970    7.3760   -5.9250 C   0  0  0  0  0  0  0  0  0  0  0  0
   10.6730    8.3420   -9.6380 C   0  0  0  0  0  0  0  0  0  0  0  0
    8.0970    4.9660   -9.2770 C   0  0  0  0  0  0  0  0  0  0  0  0
    9.9130    6.7350   -8.0050 C   0  0  0  0  0  0  0  0  0  0  0  0
    7.3170    5.2970  -13.4670 C   0  0  0  0  0  0  0  0  0  0  0  0
    8.4720    5.3580  -15.6210 O   0  0  0  0  0  0  0  0  0  0  0  0
    9.1730    6.1940   -9.1550 C   0  0  0  0  0  0  0  0  0  0  0  0
    7.1310    5.1930  -14.9950 C   0  0  0  0  0  0  0  0  0  0  0  0
   11.4320    7.5290   -4.6510 C   0  0  0  0  0  0  0  0  0  0  0  0
    8.6260    4.2260  -11.4980 C   0  0  0  0  0  0  0  0  0  0  0  0
   12.7030    7.7800   -2.1220 C   0  0  0  0  0  0  0  0  0  0  0  0
   10.9710    7.7480   -8.3930 C   0  0  0  0  0  0  0  0  0  0  0  0
    6.3300    5.0960  -11.1940 C   0  0  0  0  0  0  0  0  0  0  0  0
    9.2420    6.7130  -10.3960 N   0  0  0  0  0  0  0  0  0  0  0  0
    8.0320    4.0860  -12.8750 C   0  0  0  0  0  0  0  0  0  0  0  0
   11.5900    6.4380   -3.7990 C   0  0  0  0  0  0  0  0  0  0  0  0
  1  9  1  0
  2 19  1  0
  3 19  2  0
  4 22  1  0
  4 10  1  0
  5 21  1  0
  6  9  1  0
  7  2  2  0
  8 11  1  0
  9 17  1  0
 11 15  1  0
 12 15  1  0
 12  1  1  0
 13 16  1  0
 13 23  1  0
 13  5  1  0
 14 16  1  0
 17  7  1  0
 17 24  2  0
 18  8  1  0
 20 10  1  0
 20 12  1  0
 20  6  1  0
 21  8  1  0
 22 15  2  0
 23 18  1  0
 24  3  1  0
M  END
$$$$

     RDKit          3D

 39 42  0  0  0  0  0  0  0  0999 V2000
   10.2770    8.1310  -10.9920 C   0  0  0  0  0  0  0  0  0  0  0  0
    7.7480    5.7450  -12.3630 C   0  0  0  0  0  0  0  0  0  0  0  0
   11.9090    7.5910   -8.9660 S   0  0  0  0  0  0  0  0  0  0  0  0
   11.3390    9.3590   -6.0290 C   0  0  0  0  0  0  0  0  0  0  0  0
   10.1760    7.5870   -8.6160 C   0  0  0  0  0  0  0  0  0  0  0  0
    7.8000    3.6170  -11.1910 C   0  0  0  0  0  0  0  0  0  0  0  0
   11.3530    6.3630   -3.6850 F   0  0  0  0  0  0  0  0  0  0  0  0
    5.7900    5.1460  -11.2130 C   0  0  0  0  0  0  0  0  0  0  0  0
    6.8770    3.7660  -13.6640 O   0  0  0  0  0  0  0  0  0  0  0  0
    7.0320    2.8100  -11.6440 O   0  0  0  0  0  0  0  0  0  0  0  0
   11.3780    5.6260   -6.7930 C   0  0  0  0  0  0  0  0  0  0  0  0
   11.6740    7.8090  -10.7430 C   0  0  0  0  0  0  0  0  0  0  0  0
    8.5090    5.5640  -15.1500 C   0  0  0  0  0  0  0  0  0  0  0  0
   11.9660    9.6420   -1.0080 O   0  0  0  0  0  0  0  0  0  0  0  0
   11.5310    8.2010   -5.0160 C   0  0  0  0  0  0  0  0  0  0  0  0
   12.1450    6.0410   -1.8020 F   0  0  0  0  0  0  0  0  0  0  0  0
   11.8290   10.3490   -5.6060 C   0  0  0  0  0  0  0  0  0  0  0  0
   12.7740    8.7800   -1.4780 N   0  0  0  0  0  0  0  0  0  0  0  0
    7.4910    7.1790  -12.1860 O   0  0  0  0  0  0  0  0  0  0  0  0
    8.1360    5.6090   -9.9470 C   0  0  0  0  0  0  0  0  0  0  0  0
   10.4570    7.4710   -5.4950 O   0  0  0  0  0  0  0  0  0  0  0  0
   12.2950    8.1730   -2.7050 C   0  0  0  0  0  0  0  0  0  0  0  0
    9.4910    8.4950   -9.7350 C   0  0  0  0  0  0  0  0  0  0  0  0
    5.4060    5.2870  -12.6860 C   0  0  0  0  0  0  0  0  0  0  0  0
   10.2220    6.4980   -6.6090 C   0  0  0  0  0  0  0  0  0  0  0  0
    8.7010    5.6650   -8.5380 C   0  0  0  0  0  0  0  0  0  0  0  0
    9.5980    5.9090  -14.0880 C   0  0  0  0  0  0  0  0  0  0  0  0
    6.7770    5.1210  -13.3370 C   0  0  0  0  0  0  0  0  0  0  0  0
   11.8790    6.8370   -2.6540 C   0  0  0  0  0  0  0  0  0  0  0  0
   12.4980    7.4340  -11.6590 N   0  0  0  0  0  0  0  0  0  0  0  0
    8.9590    3.4370  -10.8050 O   0  0  0  0  0  0  0  0  0  0  0  0
    7.0810    5.9140  -14.6300 C   0  0  0  0  0  0  0  0  0  0  0  0
    9.2170    5.4290  -12.6570 C   0  0  0  0  0  0  0  0  0  0  0  0
    7.9790    5.2240   -7.5430 O   0  0  0  0  0  0  0  0  0  0  0  0
    9.4640    6.9890   -7.7970 C   0  0  0  0  0  0  0  0  0  0  0  0
   12.0840    8.8550   -4.0030 C   0  0  0  0  0  0  0  0  0  0  0  0
    7.2950    4.9930  -11.1190 C   0  0  0  0  0  0  0  0  0  0  0  0
   13.6610    8.2240   -0.9360 O   0  0  0  0  0  0  0  0  0  0  0  0
   12.3570   10.0820   -4.3210 C   0  0  0  0  0  0  0  0  0  0  0  0
  1 12  1  0
  1 23  1  0
  2 19  1  0
  2 37  1  0
  3  5  1  0
  4 17  2  0
  4 15  1  0
  5 35  1  0
  6 37  1  0
  6 31  1  0
  7 29  1  0
  8 37  1  0
 10  6  2  0
 12  3  1  0
 13 32  1  0
 13 27  1  0
 15 21  1  0
 15 36  1  0
 17 39  1  0
 18 14  2  0
 18 38  2  0
 20 26  1  0
 22 29  1  0
 22 18  1  0
 23  5  1  0
 24  8  1  0
 25 11  1  0
 25 21  1  0
 26 34  1  0
 27 33  1  0
 28  9  1  0
 28 24  1  0
 28  2  1  0
 29 16  1  0
 30 12  2  0
 32 28  1  0
 33  2  1  0
 35 26  1  0
 35 25  1  0
 36 22  1  0
 37 20  1  0
 39 36  2  0
M  END
$$$$

     RDKit          3D

 14 15  0  0  0  0  0  0  0  0999 V2000
   12.4710    9.0050   -4.0150 C   0  0  0  0  0  0  0  0  0  0  0  0
   11.4040    8.2400   -4.8110 C   0  0  0  0  0  0  0  0  0  0  0  0
   11.3400    8.5570   -6.1890 C   0  0  0  0  0  0  0  0  0  0  0  0
   10.2160    8.4290   -8.3240 O   0  0  0  0  0  0  0  0  0  0  0  0
   12.3520    7.3170   -2.1970 C   0  0  0  0  0  0  0  0  0  0  0  0
    8.0410    5.0160   -9.7830 C   0  0  0  0  0  0  0  0  0  0  0  0
    8.5510    6.4110   -9.6520 N   0  0  0  0  0  0  0  0  0  0  0  0
    8.9510    4.5530   -8.6800 C   0  0  0  0  0  0  0  0  0  0  0  0
   12.2190    8.7550   -2.5870 C   0  0  0  0  0  0  0  0  0  0  0  0
    9.3540    6.2050   -8.7200 C   0  0  0  0  0  0  0  0  0  0  0  0
   11.4150    6.7970   -4.8530 C   0  0  0  0  0  0  0  0  0  0  0  0
    9.7900    6.5250   -7.7050 N   0  0  0  0  0  0  0  0  0  0  0  0
   11.6720    6.3760   -3.4090 C   0  0  0  0  0  0  0  0  0  0  0  0
   10.3270    7.7020   -7.1240 C   0  0  0  0  0  0  0  0  0  0  0  0
  1  9  1  0
  2  1  1  0
  3  2  1  0
  4 14  2  0
  6  7  1  0
  6  8  1  0
  7 10  2  0
  9  5  1  0
 10  8  1  0
 10 12  1  0
 11  2  1  0
 11 13  1  0
 12 14  1  0
 13  5  1  0
 14  3  1  0
M  END
$$$$

     RDKit          3D

 29 31  0  0  0  0  0  0  0  0999 V2000
   12.7330    7.6020   -0.8920 C   0  0  0  0  0  0  0  0  0  0  0  0
    8.2390    6.6220  -12.3290 N   0  0  0  0  0  0  0  0  0  0  0  0
   11.9910    9.2650   -4.2070 C   0  0  0  0  0  0  0  0  0  0  0  0
    6.8440    6.6010  -12.2010 C   0  0  0  0  0  0  0  0  0  0  0  0
   12.6740    9.0020   -0.6190 N   0  0  0  0  0  0  0  0  0  0  0  0
   10.7700    7.8870   -7.1840 N   0  0  0  0  0  0  0  0  0  0  0  0
    8.7840    8.6390  -11.6060 O   0  0  0  0  0  0  0  0  0  0  0  0
    6.4920    5.1020  -12.1110 C   0  0  0  0  0  0  0  0  0  0  0  0
    8.1850    3.2880  -12.2980 C   0  0  0  0  0  0  0  0  0  0  0  0
    9.0960    7.4900  -11.6720 C   0  0  0  0  0  0  0  0  0  0  0  0
    9.0500    6.4970   -6.7830 N   0  0  0  0  0  0  0  0  0  0  0  0
   12.2640    9.0720   -2.8610 C   0  0  0  0  0  0  0  0  0  0  0  0
   11.7620    8.0610   -4.8910 C   0  0  0  0  0  0  0  0  0  0  0  0
    5.8600    4.4410  -11.0200 C   0  0  0  0  0  0  0  0  0  0  0  0
    7.5210    4.4060  -13.0530 C   0  0  0  0  0  0  0  0  0  0  0  0
    9.0200    5.4630   -8.6880 N   0  0  0  0  0  0  0  0  0  0  0  0
    8.5920    5.5560  -13.2680 C   0  0  0  0  0  0  0  0  0  0  0  0
   11.9830    6.7110   -2.9440 C   0  0  0  0  0  0  0  0  0  0  0  0
    9.9950    6.3610   -8.7640 C   0  0  0  0  0  0  0  0  0  0  0  0
   10.6290    7.1080   -9.7490 C   0  0  0  0  0  0  0  0  0  0  0  0
   10.3570    6.7460   -7.2370 C   0  0  0  0  0  0  0  0  0  0  0  0
   11.7330    8.1760   -6.2160 O   0  0  0  0  0  0  0  0  0  0  0  0
   12.3200    7.8750   -2.2220 C   0  0  0  0  0  0  0  0  0  0  0  0
    8.3910    5.4860   -7.4670 O   0  0  0  0  0  0  0  0  0  0  0  0
   11.7040    6.8860   -4.2620 C   0  0  0  0  0  0  0  0  0  0  0  0
   11.2740    6.8840  -11.9730 O   0  0  0  0  0  0  0  0  0  0  0  0
   10.2890    7.0960  -11.1370 N   0  0  0  0  0  0  0  0  0  0  0  0
   11.7200    7.7750   -9.4920 O   0  0  0  0  0  0  0  0  0  0  0  0
    6.8430    3.9140  -14.3190 C   0  0  0  0  0  0  0  0  0  0  0  0
  1  5  1  0
  2  4  1  0
  2 10  1  0
  3 12  1  0
  4  8  1  0
  6 22  1  0
  8 14  1  0
 10  7  2  0
 10 27  1  0
 12 23  2  0
 13 25  1  0
 13  3  2  0
 15  9  1  0
 15  8  1  0
 16 24  1  0
 17 15  1  0
 17  2  1  0
 18 23  1  0
 19 16  2  0
 19 21  1  0
 20 28  2  0
 20 19  1  0
 21  6  2  3
 21 11  1  0
 22 13  1  0
 23  1  1  0
 24 11  1  0
 25 18  2  0
 26 27  1  0
 27 20  1  0
 29 15  1  0
M  END
$$$$

     RDKit          3D

 32 35  0  0  0  0  0  0  0  0999 V2000
   12.4240    8.8660   -2.8020 N   0  0  0  0  0  0  0  0  0  0  0  0
    8.4500    3.0740  -12.6500 C   0  0  0  0  0  0  0  0  0  0  0  0
   12.0110    9.2350   -6.4340 C   0  0  0  0  0  0  0  0  0  0  0  0
   12.3310    8.0760   -1.8070 C   0  0  0  0  0  0  0  0  0  0  0  0
    9.3310    7.2500   -7.9320 O   0  0  0  0  0  0  0  0  0  0  0  0
   11.2710    7.6170  -10.8560 C   0  0  0  0  0  0  0  0  0  0  0  0
   11.6130    8.0170   -6.8570 C   0  0  0  0  0  0  0  0  0  0  0  0
    6.1660    6.5710  -15.3580 O   0  0  0  0  0  0  0  0  0  0  0  0
    5.6390    2.5010  -12.9840 C   0  0  0  0  0  0  0  0  0  0  0  0
    7.5570    4.2440  -13.1700 C   0  0  0  0  0  0  0  0  0  0  0  0
    6.4980    3.2460  -14.9040 F   0  0  0  0  0  0  0  0  0  0  0  0
   11.8310    6.7910   -2.0650 C   0  0  0  0  0  0  0  0  0  0  0  0
   10.5470    6.5290   -1.8410 F   0  0  0  0  0  0  0  0  0  0  0  0
    7.8420    5.1920  -14.3390 C   0  0  0  0  0  0  0  0  0  0  0  0
   12.2240    9.5120   -5.0630 C   0  0  0  0  0  0  0  0  0  0  0  0
   12.0370    8.4810   -4.0690 C   0  0  0  0  0  0  0  0  0  0  0  0
   12.7250    5.8700   -2.1250 F   0  0  0  0  0  0  0  0  0  0  0  0
   10.2370    7.4190   -8.7550 C   0  0  0  0  0  0  0  0  0  0  0  0
    8.9700    6.5450  -10.6410 N   0  0  0  0  0  0  0  0  0  0  0  0
    6.4390    5.7550  -14.4440 C   0  0  0  0  0  0  0  0  0  0  0  0
    8.2440    5.6000   -9.7200 C   0  0  0  0  0  0  0  0  0  0  0  0
   11.5890    7.2870   -4.5040 C   0  0  0  0  0  0  0  0  0  0  0  0
   11.5120    7.8540   -8.3530 C   0  0  0  0  0  0  0  0  0  0  0  0
    8.9870    5.9390  -12.0080 C   0  0  0  0  0  0  0  0  0  0  0  0
    5.4380    4.9270  -13.6850 C   0  0  0  0  0  0  0  0  0  0  0  0
   10.0790    7.1510  -10.1400 C   0  0  0  0  0  0  0  0  0  0  0  0
    7.6570    5.2720  -12.0780 C   0  0  0  0  0  0  0  0  0  0  0  0
    7.5650    4.5960  -10.6000 C   0  0  0  0  0  0  0  0  0  0  0  0
   12.4570    8.0900   -9.9090 S   0  0  0  0  0  0  0  0  0  0  0  0
   12.5760    8.4050   -0.6930 O   0  0  0  0  0  0  0  0  0  0  0  0
    6.1970    3.6050  -13.6950 C   0  0  0  0  0  0  0  0  0  0  0  0
   11.3400    7.0580   -5.9420 C   0  0  0  0  0  0  0  0  0  0  0  0
  1  4  1  0
  3 15  1  0
  4 30  2  0
  6 26  2  0
  6 29  1  0
  7  3  2  0
  7 32  1  0
  8 20  2  0
 10  2  1  0
 10 27  1  0
 11 31  1  0
 12 13  1  0
 12  4  1  0
 14 10  1  0
 15 16  2  0
 16  1  1  0
 17 12  1  0
 18 23  1  0
 18  5  2  0
 19 26  1  0
 19 21  1  0
 20 14  1  0
 20 25  1  0
 22 16  1  0
 23  7  1  0
 24 19  1  0
 26 18  1  0
 27 24  1  0
 27 28  1  0
 28 21  1  0
 29 23  1  0
 31 25  1  0
 31 10  1  0
 31  9  1  0
 32 22  2  0
M  END
$$$$

     RDKit          3D

 20 20  0  0  0  0  0  0  0  0999 V2000
   11.0970    6.2700   -5.0960 C   0  0  0  0  0  0  0  0  0  0  0  0
    8.8980    4.3300   -9.1510 C   0  0  0  0  0  0  0  0  0  0  0  0
    9.1470    5.8900   -9.3150 C   0  0  0  0  0  0  0  0  0  0  0  0
   11.0970    5.5530   -6.3660 C   0  0  0  0  0  0  0  0  0  0  0  0
   11.8650    8.8000   -1.4900 O   0  0  0  0  0  0  0  0  0  0  0  0
   10.3590    7.9120   -6.8190 C   0  0  0  0  0  0  0  0  0  0  0  0
   10.8300    6.4930   -1.0190 C   0  0  0  0  0  0  0  0  0  0  0  0
   10.0640    6.0860   -8.3350 C   0  0  0  0  0  0  0  0  0  0  0  0
   11.8570    8.3250   -3.8620 C   0  0  0  0  0  0  0  0  0  0  0  0
   12.0780    9.4810   -2.8440 S   0  0  0  0  0  0  0  0  0  0  0  0
   13.3960   10.0270   -3.1360 O   0  0  0  0  0  0  0  0  0  0  0  0
   11.9090    7.1150   -3.0570 C   0  0  0  0  0  0  0  0  0  0  0  0
   13.1580    6.9690   -0.8610 C   0  0  0  0  0  0  0  0  0  0  0  0
   12.2580    9.4000   -5.8430 O   0  0  0  0  0  0  0  0  0  0  0  0
   11.1600   10.5200   -3.0600 O   0  0  0  0  0  0  0  0  0  0  0  0
   11.1240    7.5280   -5.6320 N   0  0  0  0  0  0  0  0  0  0  0  0
   11.7770    8.4650   -5.1140 C   0  0  0  0  0  0  0  0  0  0  0  0
   10.8710    7.1440   -8.0290 C   0  0  0  0  0  0  0  0  0  0  0  0
   12.0830    5.8280   -3.4180 C   0  0  0  0  0  0  0  0  0  0  0  0
   11.9090    7.3950   -1.6240 C   0  0  0  0  0  0  0  0  0  0  0  0
  3  2  1  0
  3  8  1  0
  4  1  1  0
  6 16  1  0
  8 18  1  0
  9 12  2  0
  9 10  1  0
 10  5  1  0
 11 10  1  0
 12 20  1  0
 14 17  2  0
 15 10  1  0
 16 17  1  0
 16  1  1  0
 17  9  1  0
 18  6  1  0
 19 12  1  0
 20  5  1  0
 20  7  1  0
 20 13  1  0
M  END
$$$$

     RDKit          3D

 23 26  0  0  0  0  0  0  0  0999 V2000
    8.5460    5.3450  -12.7170 O   0  0  0  0  0  0  0  0  0  0  0  0
   12.5960    8.1690   -2.4520 C   0  0  0  0  0  0  0  0  0  0  0  0
   10.6730    7.2450  -10.4080 C   0  0  0  0  0  0  0  0  0  0  0  0
   11.7110    8.7530   -8.7990 C   0  0  0  0  0  0  0  0  0  0  0  0
    8.9050    5.3330   -9.3170 C   0  0  0  0  0  0  0  0  0  0  0  0
    9.3450    5.9880  -10.8910 C   0  0  0  0  0  0  0  0  0  0  0  0
   11.5370    6.5290   -4.0700 S   0  0  0  0  0  0  0  0  0  0  0  0
   12.4170    6.8010   -2.5280 C   0  0  0  0  0  0  0  0  0  0  0  0
   12.0920    8.8980   -3.6030 C   0  0  0  0  0  0  0  0  0  0  0  0
    6.3320    5.3990  -13.0670 C   0  0  0  0  0  0  0  0  0  0  0  0
   10.8240    7.0480   -9.1710 N   0  0  0  0  0  0  0  0  0  0  0  0
    8.2920    5.2650  -11.6790 C   0  0  0  0  0  0  0  0  0  0  0  0
    9.7130    6.8630  -11.1430 C   0  0  0  0  0  0  0  0  0  0  0  0
    6.9730    4.1840  -12.3480 C   0  0  0  0  0  0  0  0  0  0  0  0
    7.6600    6.1310  -13.5280 C   0  0  0  0  0  0  0  0  0  0  0  0
   11.3390    8.5840   -5.8950 C   0  0  0  0  0  0  0  0  0  0  0  0
   10.5020    8.0970   -8.2340 C   0  0  0  0  0  0  0  0  0  0  0  0
   11.6600    8.1700   -4.6030 C   0  0  0  0  0  0  0  0  0  0  0  0
    8.5340    5.9680   -8.1900 C   0  0  0  0  0  0  0  0  0  0  0  0
   12.0570   10.1080   -3.5510 O   0  0  0  0  0  0  0  0  0  0  0  0
    9.6540    7.5770  -12.4030 O   0  0  0  0  0  0  0  0  0  0  0  0
   10.5970    7.9170   -6.7960 C   0  0  0  0  0  0  0  0  0  0  0  0
    9.9490    5.7570   -8.4350 C   0  0  0  0  0  0  0  0  0  0  0  0
  1 12  1  0
  3 11  1  0
  5 23  1  0
  5 19  1  0
  6 12  1  0
  6  5  1  0
  7  8  1  0
  8  2  1  0
  9 20  2  0
  9  2  1  0
 10 14  1  0
 11 23  1  0
 11 17  1  0
 12 14  1  0
 13 21  1  0
 13  6  1  0
 13  3  1  0
 15 10  1  0
 15  1  1  0
 17  4  1  0
 17 22  1  0
 18 16  1  0
 18  7  1  0
 18  9  1  0
 22 16  2  3
 23 19  1  0
M  END
$$$$

     RDKit          3D

 35 41  0  0  0  0  0  0  0  0999 V2000
    5.6550    4.5710  -14.9360 O   0  0  0  0  0  0  0  0  0  0  0  0
   11.5140    9.5630   -3.3960 C   0  0  0  0  0  0  0  0  0  0  0  0
   12.8470    7.4290   -0.8020 C   0  0  0  0  0  0  0  0  0  0  0  0
   11.5230    6.7360   -3.3050 C   0  0  0  0  0  0  0  0  0  0  0  0
    9.0440    6.9520  -11.3480 C   0  0  0  0  0  0  0  0  0  0  0  0
   10.7420    7.1490   -5.7980 C   0  0  0  0  0  0  0  0  0  0  0  0
   12.9900    7.7320   -4.9660 F   0  0  0  0  0  0  0  0  0  0  0  0
    6.5340    6.6590  -14.2250 C   0  0  0  0  0  0  0  0  0  0  0  0
   10.9990    8.6490   -7.8730 C   0  0  0  0  0  0  0  0  0  0  0  0
    6.1800    5.1500  -13.9240 C   0  0  0  0  0  0  0  0  0  0  0  0
   11.5790   10.1570   -4.6080 C   0  0  0  0  0  0  0  0  0  0  0  0
    9.6890    6.7970   -8.9590 C   0  0  0  0  0  0  0  0  0  0  0  0
   11.2550    8.5450   -9.6230 C   0  0  0  0  0  0  0  0  0  0  0  0
    9.1990    6.1960  -10.1670 N   0  0  0  0  0  0  0  0  0  0  0  0
   12.0230    9.7640   -1.0940 C   0  0  0  0  0  0  0  0  0  0  0  0
   11.5550    7.3920   -4.5950 C   0  0  0  0  0  0  0  0  0  0  0  0
    7.3310    5.2890  -11.5330 C   0  0  0  0  0  0  0  0  0  0  0  0
    5.2810    3.1720  -14.5340 C   0  0  0  0  0  0  0  0  0  0  0  0
    6.4610    3.1670  -12.4430 C   0  0  0  0  0  0  0  0  0  0  0  0
   12.0890    8.9600   -2.1090 C   0  0  0  0  0  0  0  0  0  0  0  0
    5.6450    7.6320  -14.9990 C   0  0  0  0  0  0  0  0  0  0  0  0
    8.5040    4.8590  -10.3210 C   0  0  0  0  0  0  0  0  0  0  0  0
    9.5360    5.8140   -7.6180 C   0  0  0  0  0  0  0  0  0  0  0  0
    5.8550    2.4240  -13.4940 C   0  0  0  0  0  0  0  0  0  0  0  0
   10.2690    6.3280   -6.3900 C   0  0  0  0  0  0  0  0  0  0  0  0
    6.7050    4.5840  -12.6570 C   0  0  0  0  0  0  0  0  0  0  0  0
   13.3020    6.5180   -1.7950 C   0  0  0  0  0  0  0  0  0  0  0  0
   11.1200    7.3600   -8.7970 C   0  0  0  0  0  0  0  0  0  0  0  0
   10.8630    8.8180   -0.6240 O   0  0  0  0  0  0  0  0  0  0  0  0
   11.0070    8.5660   -6.5410 C   0  0  0  0  0  0  0  0  0  0  0  0
    7.6500    6.7530  -11.9990 C   0  0  0  0  0  0  0  0  0  0  0  0
    9.9520    6.2230  -12.3600 C   0  0  0  0  0  0  0  0  0  0  0  0
   11.4110    9.9400   -5.9340 C   0  0  0  0  0  0  0  0  0  0  0  0
    7.4970    7.4220  -13.3260 C   0  0  0  0  0  0  0  0  0  0  0  0
   12.5550    7.3060   -2.0340 C   0  0  0  0  0  0  0  0  0  0  0  0
  1 18  1  0
  1 10  1  0
  2 20  2  0
  4 35  1  0
  5 32  1  0
  5 14  1  0
  6 16  1  0
  8 10  2  0
  8 34  1  0
  9 13  1  0
  9 30  1  0
 10 26  1  0
 11  2  2  0
 12 28  1  0
 12 23  1  0
 14 22  1  0
 14 12  1  0
 15 29  1  0
 16  7  1  0
 16  4  1  0
 17 22  1  0
 18 24  1  0
 20 35  1  0
 20 15  1  0
 21  8  1  0
 23 25  1  0
 24 19  2  0
 25  6  2  0
 26 19  1  0
 26 17  2  0
 27  3  1  0
 28 13  1  0
 28  9  1  0
 30 33  2  0
 30  6  1  0
 31 17  1  0
 31  5  1  0
 33 11  1  0
 34 31  2  0
 35 27  1  0
 35  3  1  0
M  END
$$$$

     RDKit          3D

 24 24  0  0  0  0  0  0  0  0999 V2000
    5.4310    4.1310  -12.8530 O   0  0  0  0  0  0  0  0  0  0  0  0
   12.2150    7.9690   -3.8200 C   0  0  0  0  0  0  0  0  0  0  0  0
    7.4990    5.3790   -9.8820 O   0  0  0  0  0  0  0  0  0  0  0  0
    9.2300    8.2640  -11.3380 C   0  0  0  0  0  0  0  0  0  0  0  0
   11.6590    7.0070   -1.7140 C   0  0  0  0  0  0  0  0  0  0  0  0
    6.7990    5.6730  -14.2490 O   0  0  0  0  0  0  0  0  0  0  0  0
    9.0030    5.9080  -11.6690 C   0  0  0  0  0  0  0  0  0  0  0  0
   11.3610    7.1670   -5.2110 C   0  0  0  0  0  0  0  0  0  0  0  0
    9.8100    7.2990  -10.6280 C   0  0  0  0  0  0  0  0  0  0  0  0
    9.6410    6.6920   -9.4510 C   0  0  0  0  0  0  0  0  0  0  0  0
   11.1480    7.4990   -6.1530 C   0  0  0  0  0  0  0  0  0  0  0  0
   11.8900    8.6320   -2.2250 C   0  0  0  0  0  0  0  0  0  0  0  0
    8.2550    5.4910  -10.9400 C   0  0  0  0  0  0  0  0  0  0  0  0
   11.4020    9.1370   -6.2960 C   0  0  0  0  0  0  0  0  0  0  0  0
    6.6810    4.3360  -13.4890 P   0  0  0  0  0  0  0  0  0  0  0  0
    9.9490    5.9240  -12.8770 O   0  0  0  0  0  0  0  0  0  0  0  0
   11.5670    9.6840   -4.8860 C   0  0  0  0  0  0  0  0  0  0  0  0
    7.8870    4.5020  -12.1450 C   0  0  0  0  0  0  0  0  0  0  0  0
    7.1840    3.1110  -14.4930 C   0  0  0  0  0  0  0  0  0  0  0  0
    9.8300    7.5190   -8.3020 C   0  0  0  0  0  0  0  0  0  0  0  0
   10.3760    6.7260   -7.2960 C   0  0  0  0  0  0  0  0  0  0  0  0
   13.1220    8.8870   -1.6060 N   0  0  0  0  0  0  0  0  0  0  0  0
   12.0010    9.5000   -4.5570 C   0  0  0  0  0  0  0  0  0  0  0  0
   12.4990    6.1520   -2.0150 F   0  0  0  0  0  0  0  0  0  0  0  0
  2 12  1  0
  6 15  2  0
  7 16  1  0
  7 13  1  0
  7  9  1  0
  8  2  1  0
  9  4  1  0
  9 10  1  0
 10 20  1  0
 11  8  2  0
 12  5  1  0
 12 22  1  0
 13  3  1  0
 14 11  1  0
 14 17  1  0
 15 19  1  0
 15  1  1  0
 15 18  1  0
 17 23  1  0
 18 13  1  0
 20 21  1  0
 21 11  1  0
 23  2  1  0
 24  5  1  0
M  END
$$$$

     RDKit          3D

 23 25  0  0  0  0  0  0  0  0999 V2000
   10.2480    5.7970   -8.6220 C   0  0  0  0  0  0  0  0  0  0  0  0
   11.8470    8.7310   -4.3250 C   0  0  0  0  0  0  0  0  0  0  0  0
    9.3950    6.0290  -11.2760 C   0  0  0  0  0  0  0  0  0  0  0  0
   10.5480    8.2500   -9.1150 C   0  0  0  0  0  0  0  0  0  0  0  0
   10.2870    7.2740   -7.9660 C   0  0  0  0  0  0  0  0  0  0  0  0
    8.1680    5.5880  -10.5850 C   0  0  0  0  0  0  0  0  0  0  0  0
   12.5430    8.1030   -2.1270 C   0  0  0  0  0  0  0  0  0  0  0  0
    7.4160    4.6380  -11.5650 C   0  0  0  0  0  0  0  0  0  0  0  0
    8.0620    4.8760  -12.9700 C   0  0  0  0  0  0  0  0  0  0  0  0
   13.1430    8.4920   -0.8880 N   0  0  0  0  0  0  0  0  0  0  0  0
   10.8760    7.1130   -5.7180 O   0  0  0  0  0  0  0  0  0  0  0  0
   11.0230    7.9250   -6.7480 C   0  0  0  0  0  0  0  0  0  0  0  0
   12.2470    6.8110   -2.3510 C   0  0  0  0  0  0  0  0  0  0  0  0
   11.5660    9.0570   -6.8350 O   0  0  0  0  0  0  0  0  0  0  0  0
   11.4720    7.4330   -4.5010 C   0  0  0  0  0  0  0  0  0  0  0  0
    6.9970    7.3870  -13.7790 O   0  0  0  0  0  0  0  0  0  0  0  0
   12.4490    9.0740   -3.1160 C   0  0  0  0  0  0  0  0  0  0  0  0
    8.7520    4.7740   -8.9310 S   0  0  0  0  0  0  0  0  0  0  0  0
    7.9770    7.2880  -12.6350 C   0  0  0  0  0  0  0  0  0  0  0  0
    6.1570    6.3060  -13.8090 C   0  0  0  0  0  0  0  0  0  0  0  0
    7.1510    5.2060  -14.1440 C   0  0  0  0  0  0  0  0  0  0  0  0
   11.6470    6.4260   -3.5690 C   0  0  0  0  0  0  0  0  0  0  0  0
    8.8880    6.1190  -12.7300 C   0  0  0  0  0  0  0  0  0  0  0  0
  1  5  1  0
  2 17  1  0
  3  6  1  0
  5  4  1  0
  5 12  1  0
  6 18  1  0
  7 10  1  0
  8  6  1  0
  9 21  1  0
  9 23  1  0
  9  8  1  0
 11 15  1  0
 12 11  1  0
 13  7  1  0
 14 12  2  0
 15  2  2  0
 15 22  1  0
 16 19  1  0
 17  7  2  0
 18  1  1  0
 20 16  1  0
 21 20  1  0
 22 13  2  0
 23 19  1  0
 23  3  1  0
M  END
$$$$

     RDKit          3D

 35 38  0  0  0  0  0  0  0  0999 V2000
    8.6780    5.9520   -7.7040 C   0  0  0  0  0  0  0  0  0  0  0  0
    7.2370    5.2910  -13.6270 N   0  0  0  0  0  0  0  0  0  0  0  0
    7.0360    6.7880  -13.5500 C   0  0  0  0  0  0  0  0  0  0  0  0
    7.9080    4.5160  -12.4870 C   0  0  0  0  0  0  0  0  0  0  0  0
   11.2980    7.0360   -5.9410 C   0  0  0  0  0  0  0  0  0  0  0  0
    9.8610    6.8420   -8.1480 C   0  0  0  0  0  0  0  0  0  0  0  0
   16.0730    7.0510    0.9990 C   0  0  0  0  0  0  0  0  0  0  0  0
   13.5990    8.9210   -0.7660 C   0  0  0  0  0  0  0  0  0  0  0  0
   10.3560    8.9040   -6.7590 C   0  0  0  0  0  0  0  0  0  0  0  0
   13.9350    7.5990   -0.6510 C   0  0  0  0  0  0  0  0  0  0  0  0
    9.8870    8.1910  -11.2290 O   0  0  0  0  0  0  0  0  0  0  0  0
   14.9710    7.5990    1.6400 O   0  0  0  0  0  0  0  0  0  0  0  0
   13.1390    6.6610   -1.4900 C   0  0  0  0  0  0  0  0  0  0  0  0
   10.6490    9.5040   -5.5470 C   0  0  0  0  0  0  0  0  0  0  0  0
    5.6460    7.3710  -14.0470 C   0  0  0  0  0  0  0  0  0  0  0  0
   10.4790    7.6490   -6.9410 C   0  0  0  0  0  0  0  0  0  0  0  0
   12.2010    8.7370   -2.5710 C   0  0  0  0  0  0  0  0  0  0  0  0
   11.8020    7.9100   -4.9480 C   0  0  0  0  0  0  0  0  0  0  0  0
   12.7780    9.5140   -1.6170 N   0  0  0  0  0  0  0  0  0  0  0  0
    7.0420    4.4180  -14.8730 C   0  0  0  0  0  0  0  0  0  0  0  0
    9.3570    5.9640  -10.8650 N   0  0  0  0  0  0  0  0  0  0  0  0
   11.7370    5.6370   -6.1390 C   0  0  0  0  0  0  0  0  0  0  0  0
    6.9490    4.5620  -11.3090 C   0  0  0  0  0  0  0  0  0  0  0  0
    8.5210    3.2740  -12.6270 O   0  0  0  0  0  0  0  0  0  0  0  0
   11.4770    9.4690   -3.3470 N   0  0  0  0  0  0  0  0  0  0  0  0
    9.4430    7.2870  -10.5750 C   0  0  0  0  0  0  0  0  0  0  0  0
   11.3670    9.0960   -4.5810 C   0  0  0  0  0  0  0  0  0  0  0  0
    5.6150    7.1010  -15.5580 C   0  0  0  0  0  0  0  0  0  0  0  0
   12.4020    7.2590   -2.4790 C   0  0  0  0  0  0  0  0  0  0  0  0
    9.2310    7.6750   -9.1420 C   0  0  0  0  0  0  0  0  0  0  0  0
    8.1100    4.2700  -17.2290 C   0  0  0  0  0  0  0  0  0  0  0  0
   14.8810    7.1750    0.2750 C   0  0  0  0  0  0  0  0  0  0  0  0
    7.4980    5.0980  -16.1010 C   0  0  0  0  0  0  0  0  0  0  0  0
    9.1150    5.3780  -12.1560 C   0  0  0  0  0  0  0  0  0  0  0  0
    6.4190    6.1040  -16.5940 C   0  0  0  0  0  0  0  0  0  0  0  0
  2  3  1  0
  2  4  1  0
  4 34  1  0
  4 23  1  0
  5 18  1  0
  6  1  1  0
  6 16  1  0
  7 12  1  0
  8 10  2  0
  9 14  2  0
 11 26  2  0
 13 10  1  0
 14 27  1  0
 15  3  1  0
 16  9  1  0
 16  5  2  0
 17 29  1  0
 17 19  2  0
 18 27  2  0
 19  8  1  0
 20  2  1  0
 21 26  1  0
 22  5  1  0
 24  4  1  0
 25 17  1  0
 26 30  1  0
 27 25  1  0
 28 15  1  0
 29 13  2  0
 30  6  1  0
 32 10  1  0
 32  7  1  0
 32 12  1  0
 33 31  1  0
 33 20  1  0
 34 21  1  0
 35 33  1  0
 35 28  2  0
M  END
$$$$

     RDKit          3D

 16 18  0  0  0  0  0  0  0  0999 V2000
    9.8320    4.6920   -8.9830 C   0  0  0  0  0  0  0  0  0  0  0  0
    9.0850    6.6580  -12.5320 N   0  0  0  0  0  0  0  0  0  0  0  0
    6.4510    3.9930  -11.7300 C   0  0  0  0  0  0  0  0  0  0  0  0
    7.1370    3.7260  -12.6460 C   0  0  0  0  0  0  0  0  0  0  0  0
    9.2500    6.1820   -8.9890 N   0  0  0  0  0  0  0  0  0  0  0  0
    8.5060    8.8940  -11.0030 C   0  0  0  0  0  0  0  0  0  0  0  0
    7.9870    5.1730  -10.8070 C   0  0  0  0  0  0  0  0  0  0  0  0
    6.7320    4.8080  -10.7930 N   0  0  0  0  0  0  0  0  0  0  0  0
    7.5590    8.4320  -13.3620 C   0  0  0  0  0  0  0  0  0  0  0  0
    8.3760    4.5850  -12.8680 C   0  0  0  0  0  0  0  0  0  0  0  0
    9.7100    7.5240   -9.3280 C   0  0  0  0  0  0  0  0  0  0  0  0
    8.7100    8.0950  -12.3490 C   0  0  0  0  0  0  0  0  0  0  0  0
    8.4980    5.4640  -12.0290 C   0  0  0  0  0  0  0  0  0  0  0  0
    8.5990    4.9930   -9.5280 C   0  0  0  0  0  0  0  0  0  0  0  0
    9.7530    8.5530  -10.1920 C   0  0  0  0  0  0  0  0  0  0  0  0
    6.0880    7.8030  -13.2870 C   0  0  0  0  0  0  0  0  0  0  0  0
  2 12  1  0
  2 13  1  0
  3  8  1  0
  4  3  2  0
  5  1  1  0
  6 15  1  0
  7  8  1  0
  7 14  1  0
  9 16  1  0
  9 12  1  0
 10  4  1  0
 10 13  1  0
 11  5  1  0
 12  6  1  0
 13  7  1  0
 14  5  1  0
 14  1  1  0
 15 11  1  0
M  END
$$$$

     RDKit          3D

 25 27  0  0  0  0  0  0  0  0999 V2000
   11.9470    7.7870   -4.3970 N   0  0  0  0  0  0  0  0  0  0  0  0
    8.1460    4.8250  -11.2880 C   0  0  0  0  0  0  0  0  0  0  0  0
    8.6940    5.6970  -12.6110 C   0  0  0  0  0  0  0  0  0  0  0  0
   12.7470    6.7840   -1.2110 O   0  0  0  0  0  0  0  0  0  0  0  0
   12.7740    8.1560   -0.9980 C   0  0  0  0  0  0  0  0  0  0  0  0
    9.0190    5.4020  -14.0850 O   0  0  0  0  0  0  0  0  0  0  0  0
   11.0080    7.4290   -9.3710 C   0  0  0  0  0  0  0  0  0  0  0  0
    5.6360    5.4890  -14.1310 O   0  0  0  0  0  0  0  0  0  0  0  0
   11.8630    8.2440   -8.5030 C   0  0  0  0  0  0  0  0  0  0  0  0
    9.2290    7.6270  -11.1760 C   0  0  0  0  0  0  0  0  0  0  0  0
   12.0170    9.2290   -4.8290 C   0  0  0  0  0  0  0  0  0  0  0  0
    7.4730    6.6890  -12.7940 C   0  0  0  0  0  0  0  0  0  0  0  0
    6.2800    6.8020  -13.8410 C   0  0  0  0  0  0  0  0  0  0  0  0
   12.1600    9.2190   -6.3590 C   0  0  0  0  0  0  0  0  0  0  0  0
    9.8490    6.4930  -11.9810 C   0  0  0  0  0  0  0  0  0  0  0  0
   11.2240    8.3500   -7.1330 C   0  0  0  0  0  0  0  0  0  0  0  0
    9.0010    4.6440  -10.4050 O   0  0  0  0  0  0  0  0  0  0  0  0
   10.8940    6.9240   -4.9730 C   0  0  0  0  0  0  0  0  0  0  0  0
    9.9400    8.2960  -10.1040 C   0  0  0  0  0  0  0  0  0  0  0  0
   11.0320    6.9110   -6.5540 C   0  0  0  0  0  0  0  0  0  0  0  0
   12.3280    6.5160   -2.5020 C   0  0  0  0  0  0  0  0  0  0  0  0
   12.1530    7.6690   -3.0310 C   0  0  0  0  0  0  0  0  0  0  0  0
   12.4290    8.7200   -2.1060 C   0  0  0  0  0  0  0  0  0  0  0  0
    7.8630    8.2380  -12.1470 S   0  0  0  0  0  0  0  0  0  0  0  0
    6.9840    4.4760  -11.2130 O   0  0  0  0  0  0  0  0  0  0  0  0
  1 22  1  0
  2 25  2  0
  2 17  1  0
  3  6  1  0
  3 15  1  0
  3  2  1  0
  4  5  1  0
  7  9  1  0
  8 13  1  0
 10 19  1  0
 11  1  1  0
 12 13  1  0
 12  3  1  0
 12 24  1  0
 14 11  1  0
 15 10  1  0
 16  9  1  0
 16 20  1  0
 16 14  1  0
 18  1  1  0
 19  7  1  0
 20 18  1  0
 21  4  1  0
 22 21  2  0
 22 23  1  0
 23  5  2  0
 24 10  1  0
M  END
$$$$

     RDKit          3D

 44 50  0  0  0  0  0  0  0  0999 V2000
    9.4020    5.9450  -11.7040 C   0  0  0  0  0  0  0  0  0  0  0  0
    9.0020    7.7590  -13.1390 C   0  0  0  0  0  0  0  0  0  0  0  0
    8.1690    4.6480   -9.9910 S   0  0  0  0  0  0  0  0  0  0  0  0
    8.9760    8.1830  -10.5520 C   0  0  0  0  0  0  0  0  0  0  0  0
   11.1870    7.2670   -4.9000 C   0  0  0  0  0  0  0  0  0  0  0  0
    6.6690    5.7340  -13.8010 C   0  0  0  0  0  0  0  0  0  0  0  0
   13.5740    7.6710   -0.3280 C   0  0  0  0  0  0  0  0  0  0  0  0
    6.3280    2.9900  -11.6230 O   0  0  0  0  0  0  0  0  0  0  0  0
   11.2830    8.3100   -9.2390 C   0  0  0  0  0  0  0  0  0  0  0  0
    9.1640    7.5180   -9.2260 O   0  0  0  0  0  0  0  0  0  0  0  0
   14.3610    7.8170    0.6180 F   0  0  0  0  0  0  0  0  0  0  0  0
    9.1690    5.5190   -7.0460 C   0  0  0  0  0  0  0  0  0  0  0  0
   12.3330    6.8130   -2.2730 C   0  0  0  0  0  0  0  0  0  0  0  0
   11.0750    8.6210   -6.7620 N   0  0  0  0  0  0  0  0  0  0  0  0
    7.0630    8.8890  -11.5360 O   0  0  0  0  0  0  0  0  0  0  0  0
    6.3240    3.7150  -12.5060 C   0  0  0  0  0  0  0  0  0  0  0  0
   11.7460    9.3130   -3.1190 C   0  0  0  0  0  0  0  0  0  0  0  0
   10.8770    9.8730   -9.5620 C   0  0  0  0  0  0  0  0  0  0  0  0
    6.6120    6.9380  -15.9350 C   0  0  0  0  0  0  0  0  0  0  0  0
   12.4790    7.9890  -10.0860 O   0  0  0  0  0  0  0  0  0  0  0  0
    7.1110    5.0020  -12.3740 C   0  0  0  0  0  0  0  0  0  0  0  0
   10.8230    7.2390   -6.2510 N   0  0  0  0  0  0  0  0  0  0  0  0
    8.3140    9.4030  -11.0280 C   0  0  0  0  0  0  0  0  0  0  0  0
   12.0850    8.3090   -2.0240 C   0  0  0  0  0  0  0  0  0  0  0  0
   11.8850   10.7090   -5.9130 C   0  0  0  0  0  0  0  0  0  0  0  0
   10.4400    7.0110   -8.9090 C   0  0  0  0  0  0  0  0  0  0  0  0
   10.4740    6.3360   -7.4110 C   0  0  0  0  0  0  0  0  0  0  0  0
    4.7870    5.4840  -15.4510 C   0  0  0  0  0  0  0  0  0  0  0  0
    9.3090    4.5430   -8.5140 S   0  0  0  0  0  0  0  0  0  0  0  0
    8.4310    4.7980  -11.8210 C   0  0  0  0  0  0  0  0  0  0  0  0
    9.0610    3.8240  -12.6610 O   0  0  0  0  0  0  0  0  0  0  0  0
    5.5530    4.9350  -14.3650 C   0  0  0  0  0  0  0  0  0  0  0  0
   11.5020    9.4950   -5.7210 C   0  0  0  0  0  0  0  0  0  0  0  0
   13.1670    8.8270   -1.1700 C   0  0  0  0  0  0  0  0  0  0  0  0
   11.9550    8.5180   -7.8360 C   0  0  0  0  0  0  0  0  0  0  0  0
   11.4950    8.7040   -4.5350 C   0  0  0  0  0  0  0  0  0  0  0  0
    8.6160    7.2710  -11.7820 C   0  0  0  0  0  0  0  0  0  0  0  0
    7.9620    6.1030   -6.4920 C   0  0  0  0  0  0  0  0  0  0  0  0
   10.8780    6.8420   -4.5770 O   0  0  0  0  0  0  0  0  0  0  0  0
    5.3510    6.3960  -16.2450 N   0  0  0  0  0  0  0  0  0  0  0  0
    7.3500    6.4740  -14.9250 C   0  0  0  0  0  0  0  0  0  0  0  0
    5.4860    3.8080  -13.5790 O   0  0  0  0  0  0  0  0  0  0  0  0
    7.1590    7.5450  -11.6980 O   0  0  0  0  0  0  0  0  0  0  0  0
   13.1670    6.3420   -1.0440 C   0  0  0  0  0  0  0  0  0  0  0  0
  3 29  1  0
  4 23  1  0
  4 10  1  0
  5 39  2  0
  5 36  1  0
  7 11  1  0
  9 18  1  0
  9 26  1  0
  9 35  1  0
 12 38  1  0
 13 24  1  0
 13 44  1  0
 14 22  1  0
 14 33  1  0
 15 23  1  0
 16 21  1  0
 16  8  2  0
 19 41  1  0
 20  9  1  0
 21  6  1  0
 21 30  1  0
 22  5  1  0
 24 17  1  0
 24 34  1  0
 25 33  2  0
 26 10  1  0
 26 27  1  0
 27 12  1  0
 27 22  1  0
 28 32  2  0
 29 12  1  0
 30 31  1  0
 30  1  1  0
 30  3  1  0
 32  6  1  0
 32 42  1  0
 33 36  1  0
 34  7  1  0
 35 14  1  0
 36 17  1  0
 37  2  1  0
 37  1  1  0
 37 43  1  0
 37  4  1  0
 40 19  2  0
 40 28  1  0
 41  6  2  0
 42 16  1  0
 43 15  1  0
 44  7  1  0
M  END
$$$$

     RDKit          3D

 23 23  0  0  0  0  0  0  0  0999 V2000
   12.0310    8.5590   -6.4470 C   0  0  0  0  0  0  0  0  0  0  0  0
    6.8100    6.4410  -13.0290 C   0  0  0  0  0  0  0  0  0  0  0  0
    6.9430    2.9220  -13.0850 C   0  0  0  0  0  0  0  0  0  0  0  0
    9.8800    6.8070  -12.1880 C   0  0  0  0  0  0  0  0  0  0  0  0
    8.9450    5.7300   -9.6390 C   0  0  0  0  0  0  0  0  0  0  0  0
    7.8530    5.3840  -12.8180 C   0  0  0  0  0  0  0  0  0  0  0  0
    6.2310    5.8730  -14.0980 C   0  0  0  0  0  0  0  0  0  0  0  0
    9.2870    6.4690   -8.2570 C   0  0  0  0  0  0  0  0  0  0  0  0
    9.8690    7.3520   -8.2970 C   0  0  0  0  0  0  0  0  0  0  0  0
   11.6940    6.0270   -6.2140 C   0  0  0  0  0  0  0  0  0  0  0  0
    6.4710    3.5260  -14.1840 C   0  0  0  0  0  0  0  0  0  0  0  0
   10.2880    8.2280   -9.2150 C   0  0  0  0  0  0  0  0  0  0  0  0
   10.9910    5.8490   -6.8400 C   0  0  0  0  0  0  0  0  0  0  0  0
    8.3520    4.6400   -9.0160 C   0  0  0  0  0  0  0  0  0  0  0  0
    7.9050    3.8250  -12.6050 C   0  0  0  0  0  0  0  0  0  0  0  0
    9.6510    7.2320  -10.8100 N   0  0  0  0  0  0  0  0  0  0  0  0
    5.7760    6.9650  -14.9520 O   0  0  0  0  0  0  0  0  0  0  0  0
   10.1030    7.8660   -7.0020 C   0  0  0  0  0  0  0  0  0  0  0  0
   11.3600    7.5240   -6.5730 C   0  0  0  0  0  0  0  0  0  0  0  0
    6.2460    4.7160  -14.5870 C   0  0  0  0  0  0  0  0  0  0  0  0
   10.0520    8.1590   -9.8410 C   0  0  0  0  0  0  0  0  0  0  0  0
    6.3630    6.7650  -16.5060 C   0  0  0  0  0  0  0  0  0  0  0  0
    8.8760    6.2160  -12.7590 C   0  0  0  0  0  0  0  0  0  0  0  0
  2  6  1  0
  3 15  1  0
  4 16  1  0
  5 14  1  0
  5  8  1  0
  6 23  2  0
  6 15  1  0
  7 17  1  0
  7  2  1  0
  9  8  1  0
  9 18  1  0
 11  3  1  0
 12  9  2  3
 13 10  1  0
 16 21  1  0
 18 19  1  0
 19  1  2  0
 19 10  1  0
 20 11  2  0
 20  7  1  0
 21 12  1  0
 22 17  1  0
 23  4  2  0
M  END
$$$$

     RDKit          3D

 36 40  0  0  0  0  0  0  0  0999 V2000
   12.0340    6.4730   -6.0140 N   0  0  0  0  0  0  0  0  0  0  0  0
   10.8150    7.5310   -4.1980 C   0  0  0  0  0  0  0  0  0  0  0  0
   11.5440    7.8960  -10.5150 C   0  0  0  0  0  0  0  0  0  0  0  0
    6.0220    6.0870  -12.8420 C   0  0  0  0  0  0  0  0  0  0  0  0
   10.7930    6.9250   -2.6850 C   0  0  0  0  0  0  0  0  0  0  0  0
   12.1400    7.2270   -2.2500 C   0  0  0  0  0  0  0  0  0  0  0  0
    8.4140    4.8720  -12.5000 C   0  0  0  0  0  0  0  0  0  0  0  0
    8.0280    5.4560  -11.3150 O   0  0  0  0  0  0  0  0  0  0  0  0
   11.2930   10.2650   -3.6970 O   0  0  0  0  0  0  0  0  0  0  0  0
   10.2110    6.9130  -12.3670 C   0  0  0  0  0  0  0  0  0  0  0  0
    6.8750    6.3450  -13.9870 C   0  0  0  0  0  0  0  0  0  0  0  0
   10.8470    5.6670   -5.9480 C   0  0  0  0  0  0  0  0  0  0  0  0
   12.9340    6.1980   -2.3580 F   0  0  0  0  0  0  0  0  0  0  0  0
    7.5830    3.7120  -12.8520 C   0  0  0  0  0  0  0  0  0  0  0  0
   11.2580    6.5300  -12.9320 O   0  0  0  0  0  0  0  0  0  0  0  0
   11.6920    8.9130   -4.2230 C   0  0  0  0  0  0  0  0  0  0  0  0
    8.8090    8.4780  -10.2160 O   0  0  0  0  0  0  0  0  0  0  0  0
    9.4480    7.6140   -9.5800 C   0  0  0  0  0  0  0  0  0  0  0  0
    9.5500    6.0730   -6.3760 C   0  0  0  0  0  0  0  0  0  0  0  0
    8.5540    5.0880   -8.5990 C   0  0  0  0  0  0  0  0  0  0  0  0
   12.7200    8.3870   -3.0810 C   0  0  0  0  0  0  0  0  0  0  0  0
   10.0730    6.5940   -7.6220 C   0  0  0  0  0  0  0  0  0  0  0  0
   10.2090    7.2900  -10.9270 C   0  0  0  0  0  0  0  0  0  0  0  0
   12.0070    7.8310   -6.6070 C   0  0  0  0  0  0  0  0  0  0  0  0
    9.0900    6.4580   -8.8320 C   0  0  0  0  0  0  0  0  0  0  0  0
   11.8600    7.6430   -9.0210 C   0  0  0  0  0  0  0  0  0  0  0  0
    8.2550    2.4670  -12.8430 O   0  0  0  0  0  0  0  0  0  0  0  0
    5.8950    5.0610  -13.7200 O   0  0  0  0  0  0  0  0  0  0  0  0
    8.3270    5.9040  -13.6440 C   0  0  0  0  0  0  0  0  0  0  0  0
   11.3290    6.3740   -4.7880 O   0  0  0  0  0  0  0  0  0  0  0  0
   12.0830    9.0910   -5.7760 C   0  0  0  0  0  0  0  0  0  0  0  0
    6.7350    3.9400  -14.1150 C   0  0  0  0  0  0  0  0  0  0  0  0
    9.0330    7.1310  -13.1320 N   0  0  0  0  0  0  0  0  0  0  0  0
   11.9920    7.5420   -1.0070 F   0  0  0  0  0  0  0  0  0  0  0  0
    9.5060    8.2670  -13.9900 C   0  0  0  0  0  0  0  0  0  0  0  0
   10.9730    7.7770   -7.7830 C   0  0  0  0  0  0  0  0  0  0  0  0
  1 12  1  0
  1 30  1  0
  2  5  1  0
  3 26  1  0
  5  6  1  0
  6 34  1  0
  7  8  1  0
 11 29  1  0
 11  4  1  0
 13  6  1  0
 14 27  1  0
 14  7  1  0
 15 10  2  0
 16  2  1  0
 16  9  1  0
 16 21  1  0
 18 17  1  0
 18 25  1  0
 19 12  1  0
 21  6  1  0
 22 19  1  0
 23 10  1  0
 23  3  1  0
 23 18  1  0
 24  1  1  0
 24 31  1  0
 25 20  1  0
 25 22  1  0
 28  4  1  0
 29 33  1  0
 29  7  1  0
 30  2  1  0
 31 16  1  0
 32 28  1  0
 32 14  1  0
 33 10  1  0
 35 33  1  0
 36 26  1  0
 36 22  1  0
 36 24  1  0
M  END
$$$$

     RDKit          3D

 17 17  0  0  0  0  0  0  0  0999 V2000
    9.4020    6.1900   -8.8300 C   0  0  0  0  0  0  0  0  0  0  0  0
    6.1090    7.0780  -13.2790 C   0  0  0  0  0  0  0  0  0  0  0  0
   11.8540    8.8390   -4.5820 C   0  0  0  0  0  0  0  0  0  0  0  0
   12.5760    7.9320   -2.0030 C   0  0  0  0  0  0  0  0  0  0  0  0
    5.9420    6.0010  -12.1410 S   0  0  0  0  0  0  0  0  0  0  0  0
   11.3700    9.3950   -5.8800 C   0  0  0  0  0  0  0  0  0  0  0  0
   10.3160    7.1490   -6.5550 C   0  0  0  0  0  0  0  0  0  0  0  0
    8.0240    5.0100  -10.5350 C   0  0  0  0  0  0  0  0  0  0  0  0
   11.6440    7.4520   -4.1950 C   0  0  0  0  0  0  0  0  0  0  0  0
    5.7700    4.4210  -12.7550 C   0  0  0  0  0  0  0  0  0  0  0  0
   12.0450    6.7720   -2.7640 S   0  0  0  0  0  0  0  0  0  0  0  0
   10.8920    6.6170   -5.2860 C   0  0  0  0  0  0  0  0  0  0  0  0
    7.5780    5.9300  -11.6740 N   0  0  0  0  0  0  0  0  0  0  0  0
   12.9550    8.6420   -1.1620 N   0  0  0  0  0  0  0  0  0  0  0  0
   10.6120    8.5970   -6.8350 C   0  0  0  0  0  0  0  0  0  0  0  0
    8.4830    5.1620   -9.2120 C   0  0  0  0  0  0  0  0  0  0  0  0
    9.5470    6.3000   -7.3170 C   0  0  0  0  0  0  0  0  0  0  0  0
  1 17  1  0
  2  5  1  0
  3  9  1  0
  4 14  3  0
  5 13  1  0
  6  3  2  0
  7 12  1  0
  8 16  1  0
  9 11  1  0
 10  5  1  0
 11  4  1  0
 12  9  2  0
 13  8  1  0
 15  7  2  0
 15  6  1  0
 16  1  1  0
 17  7  1  0
M  END
$$$$

     RDKit          3D

 43 46  0  0  0  0  0  0  0  0999 V2000
   11.5040    5.7390  -11.9370 C   0  0  0  0  0  0  0  0  0  0  0  0
   10.4220    7.0400   -1.4620 F   0  0  0  0  0  0  0  0  0  0  0  0
   10.0940    7.7400  -11.2000 C   0  0  0  0  0  0  0  0  0  0  0  0
    8.0330    6.5420  -12.7130 N   0  0  0  0  0  0  0  0  0  0  0  0
    7.0860    4.5200  -13.8790 C   0  0  0  0  0  0  0  0  0  0  0  0
    8.6430    9.6170  -10.6580 F   0  0  0  0  0  0  0  0  0  0  0  0
   13.2940    6.1880   -1.7230 O   0  0  0  0  0  0  0  0  0  0  0  0
    7.1210    5.6180  -16.3870 N   0  0  0  0  0  0  0  0  0  0  0  0
    9.7490    6.3330   -3.1760 O   0  0  0  0  0  0  0  0  0  0  0  0
    7.7900    7.9450  -12.2540 C   0  0  0  0  0  0  0  0  0  0  0  0
    5.7660    6.7200  -14.9060 O   0  0  0  0  0  0  0  0  0  0  0  0
   10.3730    8.0010   -9.6080 C   0  0  0  0  0  0  0  0  0  0  0  0
    5.5890    7.1680  -16.2800 C   0  0  0  0  0  0  0  0  0  0  0  0
   10.5890    7.6700   -7.9890 C   0  0  0  0  0  0  0  0  0  0  0  0
    5.0380    4.9850  -12.6780 O   0  0  0  0  0  0  0  0  0  0  0  0
    8.1880    5.2940  -13.5540 C   0  0  0  0  0  0  0  0  0  0  0  0
    6.8210    8.4720  -12.4580 O   0  0  0  0  0  0  0  0  0  0  0  0
    6.1240    3.9600  -12.8550 C   0  0  0  0  0  0  0  0  0  0  0  0
   10.7590    6.3780   -7.0740 C   0  0  0  0  0  0  0  0  0  0  0  0
   13.1500    7.2600   -1.3260 C   0  0  0  0  0  0  0  0  0  0  0  0
    6.4000    6.4800  -17.0660 C   0  0  0  0  0  0  0  0  0  0  0  0
    8.0030    5.1520   -7.5570 O   0  0  0  0  0  0  0  0  0  0  0  0
   11.5170    7.5330   -4.5520 C   0  0  0  0  0  0  0  0  0  0  0  0
   15.0360    8.6300    1.4850 C   0  0  0  0  0  0  0  0  0  0  0  0
   10.6820    6.9340   -2.4890 C   0  0  0  0  0  0  0  0  0  0  0  0
    9.3580    4.4740  -13.4720 O   0  0  0  0  0  0  0  0  0  0  0  0
   10.1410    6.2350  -11.5490 C   0  0  0  0  0  0  0  0  0  0  0  0
   13.5550    7.8370   -0.2730 N   0  0  0  0  0  0  0  0  0  0  0  0
   12.4890    9.1460   -5.2860 C   0  0  0  0  0  0  0  0  0  0  0  0
    8.5250    5.8950   -9.8420 C   0  0  0  0  0  0  0  0  0  0  0  0
   10.4190    5.3020   -7.8370 C   0  0  0  0  0  0  0  0  0  0  0  0
   12.5070    9.4940   -4.2500 O   0  0  0  0  0  0  0  0  0  0  0  0
   11.4930    4.4010   -7.8260 C   0  0  0  0  0  0  0  0  0  0  0  0
   10.8380    8.6550   -7.2960 C   0  0  0  0  0  0  0  0  0  0  0  0
   11.3720    7.5450   -3.1020 C   0  0  0  0  0  0  0  0  0  0  0  0
    8.5910    5.7310  -11.3100 C   0  0  0  0  0  0  0  0  0  0  0  0
    8.9340    8.6190  -11.4960 C   0  0  0  0  0  0  0  0  0  0  0  0
    6.7260    5.5190  -15.2000 C   0  0  0  0  0  0  0  0  0  0  0  0
   14.8050    8.5500    0.0320 C   0  0  0  0  0  0  0  0  0  0  0  0
   12.5990   10.3730   -5.2060 C   0  0  0  0  0  0  0  0  0  0  0  0
   11.4520    8.5190   -5.6830 C   0  0  0  0  0  0  0  0  0  0  0  0
    9.0730    5.3270   -8.3870 C   0  0  0  0  0  0  0  0  0  0  0  0
   12.4770    8.0490   -2.2790 C   0  0  0  0  0  0  0  0  0  0  0  0
  3 12  1  0
  4 10  1  0
  4 36  1  0
  5 16  1  0
  5 18  1  0
  7 20  2  0
  8 38  2  0
 10 37  1  0
 12 14  1  0
 13 11  1  0
 14 34  2  3
 14 19  1  0
 16 26  2  0
 16  4  1  0
 17 10  2  0
 18 15  1  0
 20 28  1  0
 21  8  1  0
 21 13  1  0
 25  9  1  0
 25  2  1  0
 27  1  1  0
 27 36  1  0
 27  3  1  0
 28 39  1  0
 29 41  1  0
 29 40  1  0
 29 32  1  0
 30 42  1  0
 31 33  1  0
 31 19  1  0
 35 23  1  0
 35 25  1  0
 35 43  1  0
 36 30  1  0
 37  3  1  0
 37  6  1  0
 38 11  1  0
 38  5  1  0
 39 24  1  0
 40 32  1  0
 41 34  1  0
 41 23  1  0
 42 31  1  0
 42 22  1  0
 43 20  1  0
M  END
$$$$

     RDKit          3D

 41 47  0  0  0  0  0  0  0  0999 V2000
    6.7460    4.6160  -12.4220 C   0  0  0  0  0  0  0  0  0  0  0  0
    9.1560    6.5390    1.6940 N   0  0  0  0  0  0  0  0  0  0  0  0
   11.7270    7.6150  -13.3250 O   0  0  0  0  0  0  0  0  0  0  0  0
   11.7690    7.8330   -9.7750 C   0  0  0  0  0  0  0  0  0  0  0  0
   11.8660    8.3810   -5.4500 C   0  0  0  0  0  0  0  0  0  0  0  0
    8.2140    4.6650  -12.6830 C   0  0  0  0  0  0  0  0  0  0  0  0
    8.8470    6.0710  -12.3910 C   0  0  0  0  0  0  0  0  0  0  0  0
   10.1710    6.7110   -0.4050 C   0  0  0  0  0  0  0  0  0  0  0  0
    8.8530    5.8340   -9.6770 C   0  0  0  0  0  0  0  0  0  0  0  0
    8.6460    5.9470   -7.2350 C   0  0  0  0  0  0  0  0  0  0  0  0
    7.6690    5.6990  -14.7930 O   0  0  0  0  0  0  0  0  0  0  0  0
   10.9490    7.8900   -0.0350 C   0  0  0  0  0  0  0  0  0  0  0  0
   11.7560    7.9730   -1.3340 N   0  0  0  0  0  0  0  0  0  0  0  0
   12.1550    7.8530  -11.1250 N   0  0  0  0  0  0  0  0  0  0  0  0
    5.8020    3.9880  -13.3710 C   0  0  0  0  0  0  0  0  0  0  0  0
   12.1630    6.6930   -3.3610 C   0  0  0  0  0  0  0  0  0  0  0  0
   10.5630    6.1040   -1.6690 C   0  0  0  0  0  0  0  0  0  0  0  0
   12.3160    9.2170   -3.2120 C   0  0  0  0  0  0  0  0  0  0  0  0
    8.3230    5.7830   -0.1520 O   0  0  0  0  0  0  0  0  0  0  0  0
   11.3100    7.4880  -12.1160 C   0  0  0  0  0  0  0  0  0  0  0  0
   12.2570    9.6820   -5.7200 N   0  0  0  0  0  0  0  0  0  0  0  0
   12.3120    8.5420   -7.6600 C   0  0  0  0  0  0  0  0  0  0  0  0
    5.3870    4.9570  -14.3870 C   0  0  0  0  0  0  0  0  0  0  0  0
    9.8020    7.1660  -11.7070 C   0  0  0  0  0  0  0  0  0  0  0  0
    9.2650    3.7140   -8.3470 C   0  0  0  0  0  0  0  0  0  0  0  0
   12.5950    9.7530   -7.0930 N   0  0  0  0  0  0  0  0  0  0  0  0
    9.9270    5.6830  -14.5480 O   0  0  0  0  0  0  0  0  0  0  0  0
   10.5720    7.4130   -9.4110 N   0  0  0  0  0  0  0  0  0  0  0  0
    9.4030    5.2680   -8.4020 C   0  0  0  0  0  0  0  0  0  0  0  0
    8.9500    8.5630  -11.7700 C   0  0  0  0  0  0  0  0  0  0  0  0
    8.6990    5.6770  -13.7590 C   0  0  0  0  0  0  0  0  0  0  0  0
    6.3850    6.1560  -14.1190 C   0  0  0  0  0  0  0  0  0  0  0  0
   11.8950    6.6790   -1.8680 C   0  0  0  0  0  0  0  0  0  0  0  0
    5.7110    6.8390  -15.2810 O   0  0  0  0  0  0  0  0  0  0  0  0
    9.5700    6.8810  -10.1420 C   0  0  0  0  0  0  0  0  0  0  0  0
   12.0780    8.1020   -3.9800 C   0  0  0  0  0  0  0  0  0  0  0  0
   11.6490    7.7130   -6.7650 C   0  0  0  0  0  0  0  0  0  0  0  0
    6.3330    6.1400  -12.6280 C   0  0  0  0  0  0  0  0  0  0  0  0
   12.1530    9.1570   -1.7970 C   0  0  0  0  0  0  0  0  0  0  0  0
   12.6680    8.3200   -8.9260 N   0  0  0  0  0  0  0  0  0  0  0  0
    9.1770    6.3550    0.4270 C   0  0  0  0  0  0  0  0  0  0  0  0
  1 15  1  0
  3 20  2  0
  4 28  2  0
  4 40  1  0
  5 36  2  3
  6  1  1  0
  6  7  1  0
  7 24  1  0
  8 12  1  0
  8 41  1  0
  9 29  1  0
 11 32  1  0
 11 31  1  0
 13 12  1  0
 14  4  2  0
 16 33  1  0
 17  8  1  0
 18 39  1  0
 19 41  2  0
 20 24  1  0
 20 14  1  0
 21  5  1  0
 22 26  2  0
 22 37  1  0
 23 32  1  0
 23 15  1  0
 24 35  1  0
 26 21  1  0
 27 31  1  0
 29 25  1  0
 29 10  1  0
 30 24  1  0
 31  6  1  0
 31  7  1  0
 32 38  1  0
 33 17  1  0
 33 13  1  0
 34 32  1  0
 35  9  1  0
 35 28  1  0
 36 16  1  0
 36 18  1  0
 37  5  1  0
 38  1  1  0
 39 13  1  0
 40 22  1  0
 41  2  1  0
M  END
$$$$

     RDKit          3D

 36 40  0  0  0  0  0  0  0  0999 V2000
    8.3810    6.0120  -12.1600 C   0  0  0  0  0  0  0  0  0  0  0  0
    6.4900    6.4980  -13.9210 C   0  0  0  0  0  0  0  0  0  0  0  0
    5.8880    7.0530  -15.1770 C   0  0  0  0  0  0  0  0  0  0  0  0
    5.5580    5.5350  -13.3090 C   0  0  0  0  0  0  0  0  0  0  0  0
   11.2480    7.1870   -8.4720 C   0  0  0  0  0  0  0  0  0  0  0  0
    9.6910    7.1490  -10.4100 C   0  0  0  0  0  0  0  0  0  0  0  0
   13.1160    7.9800   -2.0390 C   0  0  0  0  0  0  0  0  0  0  0  0
   10.9430    6.9650   -2.3010 C   0  0  0  0  0  0  0  0  0  0  0  0
    7.0150    3.9540  -14.4920 C   0  0  0  0  0  0  0  0  0  0  0  0
   11.5280    9.7030   -4.1450 C   0  0  0  0  0  0  0  0  0  0  0  0
   11.4330    8.2190   -7.4140 C   0  0  0  0  0  0  0  0  0  0  0  0
   13.1250    7.5190   -0.7660 C   0  0  0  0  0  0  0  0  0  0  0  0
   11.2590    7.2340   -5.1560 C   0  0  0  0  0  0  0  0  0  0  0  0
   11.8120   10.3760   -3.1240 O   0  0  0  0  0  0  0  0  0  0  0  0
    9.9990    5.7190   -0.4870 F   0  0  0  0  0  0  0  0  0  0  0  0
    8.7730    5.9850   -7.2300 C   0  0  0  0  0  0  0  0  0  0  0  0
   10.9670   10.2510   -5.1220 O   0  0  0  0  0  0  0  0  0  0  0  0
    5.6330    4.4510  -14.3150 C   0  0  0  0  0  0  0  0  0  0  0  0
    7.6690    3.8180  -13.1520 C   0  0  0  0  0  0  0  0  0  0  0  0
   11.9960    7.7050   -2.8480 C   0  0  0  0  0  0  0  0  0  0  0  0
    6.6600    3.7940  -11.9670 C   0  0  0  0  0  0  0  0  0  0  0  0
    8.8480    5.8990   -8.6620 N   0  0  0  0  0  0  0  0  0  0  0  0
    9.1730    7.3630   -6.6750 C   0  0  0  0  0  0  0  0  0  0  0  0
   10.5300    7.7540   -6.2970 N   0  0  0  0  0  0  0  0  0  0  0  0
    5.9190    5.1080  -11.8730 C   0  0  0  0  0  0  0  0  0  0  0  0
    9.8690    6.7740   -9.1650 C   0  0  0  0  0  0  0  0  0  0  0  0
   10.3410    7.3560  -12.7600 C   0  0  0  0  0  0  0  0  0  0  0  0
   11.9660    8.2590   -4.2130 C   0  0  0  0  0  0  0  0  0  0  0  0
    7.9820    4.6060  -15.2980 O   0  0  0  0  0  0  0  0  0  0  0  0
    8.4620    5.0250  -13.0130 C   0  0  0  0  0  0  0  0  0  0  0  0
    7.7570    6.2980  -13.3900 C   0  0  0  0  0  0  0  0  0  0  0  0
   14.1080    7.7930   -0.0030 O   0  0  0  0  0  0  0  0  0  0  0  0
   12.0090    6.7800   -0.2380 C   0  0  0  0  0  0  0  0  0  0  0  0
    8.8400    4.5040   -9.0700 C   0  0  0  0  0  0  0  0  0  0  0  0
   11.0010    6.4880   -0.9770 C   0  0  0  0  0  0  0  0  0  0  0  0
    9.4380    6.9040  -11.7330 C   0  0  0  0  0  0  0  0  0  0  0  0
  1 36  1  0
  2  3  1  0
  2 31  1  0
  2  4  1  0
  4 18  1  0
  4 25  1  0
  5 11  1  0
  7 12  1  0
  8 35  1  0
  9 29  1  0
  9 18  1  0
  9 19  1  0
 10 14  1  0
 11 24  1  0
 12 33  1  0
 12 32  2  0
 16 23  1  0
 17 10  2  0
 19 30  1  0
 19 21  1  0
 20  8  1  0
 20  7  2  0
 21 25  1  0
 22 16  1  0
 23 24  1  0
 24 13  1  0
 26  6  1  0
 26 22  1  0
 26  5  1  0
 27 36  1  0
 28 13  1  0
 28 10  1  0
 28 20  1  0
 30  1  1  0
 31 30  1  0
 31  1  1  0
 34 22  1  0
 35 15  1  0
 35 33  2  0
 36  6  1  0
M  END
$$$$

     RDKit          3D

 43 48  0  0  0  0  0  0  0  0999 V2000
    8.5170    6.0520   -7.6870 C   0  0  0  0  0  0  0  0  0  0  0  0
   11.5240    9.4360   -7.3840 C   0  0  0  0  0  0  0  0  0  0  0  0
    8.1160    5.9280   -0.5210 C   0  0  0  0  0  0  0  0  0  0  0  0
   11.8220    8.9060   -2.3730 C   0  0  0  0  0  0  0  0  0  0  0  0
    7.1440    6.5180  -13.6470 C   0  0  0  0  0  0  0  0  0  0  0  0
    9.6030    7.0890  -11.4480 C   0  0  0  0  0  0  0  0  0  0  0  0
    8.5420    4.7760   -9.7190 O   0  0  0  0  0  0  0  0  0  0  0  0
   12.2110    7.9720   -9.7500 C   0  0  0  0  0  0  0  0  0  0  0  0
    7.0270    7.8030  -13.2970 O   0  0  0  0  0  0  0  0  0  0  0  0
   13.5800    7.8660   -3.5120 C   0  0  0  0  0  0  0  0  0  0  0  0
   10.7620    7.7820  -12.0240 C   0  0  0  0  0  0  0  0  0  0  0  0
    8.5700    6.3060    0.8230 C   0  0  0  0  0  0  0  0  0  0  0  0
   10.3920    6.8020   -1.4330 C   0  0  0  0  0  0  0  0  0  0  0  0
    9.2480    5.9860  -12.4140 C   0  0  0  0  0  0  0  0  0  0  0  0
   10.4220    7.2460   -6.4750 C   0  0  0  0  0  0  0  0  0  0  0  0
   10.9820    6.5630   -0.1170 C   0  0  0  0  0  0  0  0  0  0  0  0
    6.0470    6.6260  -13.6610 O   0  0  0  0  0  0  0  0  0  0  0  0
    9.8860    6.7530    1.0190 C   0  0  0  0  0  0  0  0  0  0  0  0
    4.9760    3.6740  -15.6920 C   0  0  0  0  0  0  0  0  0  0  0  0
   11.2190    7.1430   -8.7480 C   0  0  0  0  0  0  0  0  0  0  0  0
   11.7640    8.4710   -5.0170 C   0  0  0  0  0  0  0  0  0  0  0  0
   11.1890    9.7300   -5.8840 C   0  0  0  0  0  0  0  0  0  0  0  0
   10.1520    5.6530  -13.4290 O   0  0  0  0  0  0  0  0  0  0  0  0
    7.7010    4.4490  -13.5800 O   0  0  0  0  0  0  0  0  0  0  0  0
   11.0650    7.8970   -0.5690 C   0  0  0  0  0  0  0  0  0  0  0  0
    9.1210    5.7330   -9.0940 C   0  0  0  0  0  0  0  0  0  0  0  0
    6.3150    4.3290  -14.0440 C   0  0  0  0  0  0  0  0  0  0  0  0
   11.1250    7.1510   -5.0900 C   0  0  0  0  0  0  0  0  0  0  0  0
   11.4970    8.6310  -10.7860 C   0  0  0  0  0  0  0  0  0  0  0  0
   11.0990    8.1300   -7.4980 C   0  0  0  0  0  0  0  0  0  0  0  0
    5.6400    4.5000  -15.2160 C   0  0  0  0  0  0  0  0  0  0  0  0
    5.4540    3.7220  -13.0020 O   0  0  0  0  0  0  0  0  0  0  0  0
    9.0500    6.1460   -1.5810 C   0  0  0  0  0  0  0  0  0  0  0  0
   10.0010    6.9010   -9.6640 C   0  0  0  0  0  0  0  0  0  0  0  0
    8.6310    8.2360  -11.1220 C   0  0  0  0  0  0  0  0  0  0  0  0
    6.3090    2.9420  -12.3090 O   0  0  0  0  0  0  0  0  0  0  0  0
   12.3170    8.2090   -1.3560 N   0  0  0  0  0  0  0  0  0  0  0  0
    7.4160    6.3650    2.2280 S   0  0  0  0  0  0  0  0  0  0  0  0
   13.0690    7.1570   -2.3410 C   0  0  0  0  0  0  0  0  0  0  0  0
    9.2490    6.3700   -6.5720 O   0  0  0  0  0  0  0  0  0  0  0  0
   12.8750    5.9900   -2.2580 O   0  0  0  0  0  0  0  0  0  0  0  0
   12.3940    8.9720   -3.7950 C   0  0  0  0  0  0  0  0  0  0  0  0
    7.8150    5.4660  -12.7420 C   0  0  0  0  0  0  0  0  0  0  0  0
  1 40  1  0
  2 22  1  0
  3 12  1  0
  4 37  1  0
  5  9  1  0
  6 35  1  0
  6 34  1  0
  7 26  2  0
 10 39  1  0
 11  6  1  0
 11 29  1  0
 12 18  2  0
 12 38  1  0
 13 33  1  0
 13 25  1  0
 13 16  1  0
 14 23  1  0
 14  6  1  0
 15 28  1  0
 16 18  1  0
 17  5  1  0
 19 31  2  0
 20  8  1  0
 20 30  1  0
 21 22  1  0
 21 42  1  0
 24 43  1  0
 25 37  1  0
 25 16  1  0
 26  1  1  0
 27 31  1  0
 27 24  1  0
 27 32  1  0
 28 21  1  0
 29  8  1  0
 30  2  1  0
 30 15  1  0
 32 36  1  0
 33  3  2  0
 34 26  1  0
 34 20  1  0
 39 41  2  0
 39 37  1  0
 40 15  1  0
 42 10  1  0
 42  4  1  0
 43  5  1  0
 43 14  1  0
M  END
$$$$

     RDKit          3D

 32 34  0  0  0  0  0  0  0  0999 V2000
    6.8840    2.4750  -13.1710 C   0  0  0  0  0  0  0  0  0  0  0  0
   11.9790    7.0310   -2.2520 C   0  0  0  0  0  0  0  0  0  0  0  0
    5.2050    5.8500  -13.2410 C   0  0  0  0  0  0  0  0  0  0  0  0
   11.2660    7.9150   -8.4970 C   0  0  0  0  0  0  0  0  0  0  0  0
    8.5430    6.2890  -10.7640 N   0  0  0  0  0  0  0  0  0  0  0  0
    7.0230    4.5930  -11.7470 O   0  0  0  0  0  0  0  0  0  0  0  0
    9.6520    8.9890   -9.8100 O   0  0  0  0  0  0  0  0  0  0  0  0
    9.5710    6.1940   -8.3540 N   0  0  0  0  0  0  0  0  0  0  0  0
    8.5540    5.0980   -8.7630 C   0  0  0  0  0  0  0  0  0  0  0  0
   12.3660    9.2650   -3.0900 C   0  0  0  0  0  0  0  0  0  0  0  0
    5.2690    4.3070  -13.3220 C   0  0  0  0  0  0  0  0  0  0  0  0
   12.3720    8.3380   -2.0440 C   0  0  0  0  0  0  0  0  0  0  0  0
   10.5890    8.3590   -9.6360 C   0  0  0  0  0  0  0  0  0  0  0  0
   12.4910    7.3000   -0.2070 C   0  0  0  0  0  0  0  0  0  0  0  0
   11.9670    6.2900   -1.0970 O   0  0  0  0  0  0  0  0  0  0  0  0
    6.7510    4.0340  -13.0010 C   0  0  0  0  0  0  0  0  0  0  0  0
   12.6490    8.5580   -0.7060 O   0  0  0  0  0  0  0  0  0  0  0  0
   12.1230    8.8440   -4.3160 C   0  0  0  0  0  0  0  0  0  0  0  0
   11.1730    7.5450  -10.6590 F   0  0  0  0  0  0  0  0  0  0  0  0
   11.7530    7.5030   -4.6220 C   0  0  0  0  0  0  0  0  0  0  0  0
   11.6860    6.5710   -3.6140 C   0  0  0  0  0  0  0  0  0  0  0  0
    6.3620    6.5180  -14.0820 C   0  0  0  0  0  0  0  0  0  0  0  0
    9.4540    4.5900  -11.7240 O   0  0  0  0  0  0  0  0  0  0  0  0
    5.8880    6.8730  -15.3560 O   0  0  0  0  0  0  0  0  0  0  0  0
    8.1760    4.4750   -7.7060 O   0  0  0  0  0  0  0  0  0  0  0  0
   10.7660    7.6260   -7.0120 C   0  0  0  0  0  0  0  0  0  0  0  0
    8.5200    5.1290  -11.4400 C   0  0  0  0  0  0  0  0  0  0  0  0
    9.6630    6.5630   -7.1440 O   0  0  0  0  0  0  0  0  0  0  0  0
   12.0950    8.5250   -8.0710 O   0  0  0  0  0  0  0  0  0  0  0  0
    6.9240    7.7670  -13.2680 C   0  0  0  0  0  0  0  0  0  0  0  0
    8.9250    6.3480   -9.2870 C   0  0  0  0  0  0  0  0  0  0  0  0
   11.6160    7.0510   -5.9330 O   0  0  0  0  0  0  0  0  0  0  0  0
  2 12  1  0
  2 15  1  0
  4 29  1  0
  4 26  1  0
  6 27  1  0
  7 13  2  0
  8 28  1  0
  9  8  1  0
  9 25  1  0
 10 12  2  0
 11  3  1  0
 11 16  1  0
 12 17  1  0
 13  4  1  0
 15 14  1  0
 16  1  1  0
 16  6  1  0
 17 14  1  0
 18 10  1  0
 19 13  1  0
 20 18  2  0
 20 21  1  0
 21  2  2  0
 22 30  1  0
 22  3  1  0
 23 27  2  0
 24 22  1  0
 26 28  1  0
 26 32  1  0
 27  5  1  0
 31  5  1  0
 31  9  1  0
 31  8  1  0
 32 20  1  0
M  END
$$$$

     RDKit          3D

 33 35  0  0  0  0  0  0  0  0999 V2000
    7.6610    3.6310  -12.3310 C   0  0  0  0  0  0  0  0  0  0  0  0
    7.1230    5.1080  -14.1290 C   0  0  0  0  0  0  0  0  0  0  0  0
    9.2540    5.0310  -11.1620 C   0  0  0  0  0  0  0  0  0  0  0  0
    9.2650    6.3260   -7.3840 C   0  0  0  0  0  0  0  0  0  0  0  0
   10.3860    7.0410  -12.3660 C   0  0  0  0  0  0  0  0  0  0  0  0
    8.7850    8.1360  -11.5760 Cl  0  0  0  0  0  0  0  0  0  0  0  0
   10.1090    6.2260   -6.2120 C   0  0  0  0  0  0  0  0  0  0  0  0
    5.9380    5.2350  -13.4310 C   0  0  0  0  0  0  0  0  0  0  0  0
   12.0500    8.6250   -3.6270 C   0  0  0  0  0  0  0  0  0  0  0  0
    6.2900    3.9430  -12.2800 C   0  0  0  0  0  0  0  0  0  0  0  0
   11.5130    7.3730   -4.3900 C   0  0  0  0  0  0  0  0  0  0  0  0
    8.9330    5.5530  -12.3880 C   0  0  0  0  0  0  0  0  0  0  0  0
    8.8070    5.9020   -9.8870 C   0  0  0  0  0  0  0  0  0  0  0  0
   12.4620    7.1340   -0.1260 C   0  0  0  0  0  0  0  0  0  0  0  0
    9.8630    7.3430   -8.4340 C   0  0  0  0  0  0  0  0  0  0  0  0
   12.2620    8.4130   -2.1430 C   0  0  0  0  0  0  0  0  0  0  0  0
    6.5300    2.6210  -15.7710 O   0  0  0  0  0  0  0  0  0  0  0  0
   13.6100    7.8850    0.3470 O   0  0  0  0  0  0  0  0  0  0  0  0
   12.4270    7.0000   -1.5840 C   0  0  0  0  0  0  0  0  0  0  0  0
   10.9730    8.2850   -7.8730 C   0  0  0  0  0  0  0  0  0  0  0  0
    7.7320    3.7620  -13.9970 C   0  0  0  0  0  0  0  0  0  0  0  0
   10.8480    7.0420  -10.7960 C   0  0  0  0  0  0  0  0  0  0  0  0
   11.6460    6.0120   -3.7600 C   0  0  0  0  0  0  0  0  0  0  0  0
    8.1660    4.4440  -11.7340 O   0  0  0  0  0  0  0  0  0  0  0  0
   11.3580    6.0450   -2.2650 C   0  0  0  0  0  0  0  0  0  0  0  0
    6.5020    2.8540  -14.7840 C   0  0  0  0  0  0  0  0  0  0  0  0
   10.9750    8.6260   -6.4030 C   0  0  0  0  0  0  0  0  0  0  0  0
   11.8960   10.6220   -2.0210 O   0  0  0  0  0  0  0  0  0  0  0  0
    6.0630    1.5270  -13.9850 O   0  0  0  0  0  0  0  0  0  0  0  0
   13.6620    6.2160   -1.8500 F   0  0  0  0  0  0  0  0  0  0  0  0
   10.8220    7.4320   -5.6340 N   0  0  0  0  0  0  0  0  0  0  0  0
    9.8990    6.7390   -9.7860 N   0  0  0  0  0  0  0  0  0  0  0  0
   12.1590    9.5490   -1.2990 O   0  0  0  0  0  0  0  0  0  0  0  0
  1 10  1  0
  1 24  1  0
  2 21  1  0
  2  8  1  0
  3 12  1  0
  3 13  1  0
  4  7  1  0
  5  6  1  0
  5 22  1  0
  7 31  1  0
  8 10  1  0
  9 16  1  0
 11 23  1  0
 11  9  1  0
 13 32  1  0
 14 18  1  0
 15 32  1  0
 15 20  1  0
 15  4  1  0
 16 19  1  0
 16 33  1  0
 17 26  1  0
 19 30  1  0
 19 14  1  0
 20 27  1  0
 21 26  1  0
 21  1  1  0
 22 32  1  0
 23 25  1  0
 24  3  1  0
 25 19  1  0
 26 29  1  0
 28 33  1  0
 31 27  1  0
 31 11  1  0
M  END
$$$$

     RDKit          3D

 28 30  0  0  0  0  0  0  0  0999 V2000
    8.0160    2.9910  -13.3520 C   0  0  0  0  0  0  0  0  0  0  0  0
   12.7790    6.3990   -1.5900 C   0  0  0  0  0  0  0  0  0  0  0  0
    7.8240    3.0720  -15.0330 C   0  0  0  0  0  0  0  0  0  0  0  0
    7.3130    1.7500  -12.9500 C   0  0  0  0  0  0  0  0  0  0  0  0
    8.8180    6.1620   -8.6790 N   0  0  0  0  0  0  0  0  0  0  0  0
    7.4770    6.8820  -13.5030 O   0  0  0  0  0  0  0  0  0  0  0  0
   10.0170    6.4340   -9.5420 C   0  0  0  0  0  0  0  0  0  0  0  0
   10.8580    8.8470   -6.0940 N   0  0  0  0  0  0  0  0  0  0  0  0
   11.9030    8.3850   -0.6960 F   0  0  0  0  0  0  0  0  0  0  0  0
   11.8200    8.7170   -4.4030 C   0  0  0  0  0  0  0  0  0  0  0  0
    8.0230    5.2220   -9.0980 C   0  0  0  0  0  0  0  0  0  0  0  0
   10.9830    7.6290   -9.5280 C   0  0  0  0  0  0  0  0  0  0  0  0
    6.4430    4.5220  -10.6820 O   0  0  0  0  0  0  0  0  0  0  0  0
   12.6210    8.8490   -1.9430 C   0  0  0  0  0  0  0  0  0  0  0  0
   10.1570    8.2030   -7.2530 C   0  0  0  0  0  0  0  0  0  0  0  0
    7.2660    4.3230  -13.3030 N   0  0  0  0  0  0  0  0  0  0  0  0
   12.3990    8.1010   -3.2790 C   0  0  0  0  0  0  0  0  0  0  0  0
    8.2210    5.6690  -13.2110 S   0  0  0  0  0  0  0  0  0  0  0  0
   12.1810    6.6830   -2.9460 C   0  0  0  0  0  0  0  0  0  0  0  0
   13.1170    7.9000   -1.0350 C   0  0  0  0  0  0  0  0  0  0  0  0
   10.8710   10.0730   -5.7900 C   0  0  0  0  0  0  0  0  0  0  0  0
    9.4850    5.5640  -13.8750 O   0  0  0  0  0  0  0  0  0  0  0  0
   11.0210    8.5810   -8.3810 C   0  0  0  0  0  0  0  0  0  0  0  0
   11.6220   10.1040   -4.5670 N   0  0  0  0  0  0  0  0  0  0  0  0
    7.5420    4.9900  -10.4320 C   0  0  0  0  0  0  0  0  0  0  0  0
   11.4990    7.9670   -5.3150 N   0  0  0  0  0  0  0  0  0  0  0  0
    8.5250    5.7320  -11.4080 C   0  0  0  0  0  0  0  0  0  0  0  0
    9.6000    6.3950  -10.9600 C   0  0  0  0  0  0  0  0  0  0  0  0
  1 16  1  0
  1  4  1  0
  2 20  1  0
  3  1  1  0
  6 18  2  0
  7 12  1  0
  7  5  1  0
  8 21  1  0
  8 26  1  0
 11  5  1  0
 12 23  1  0
 13 25  2  0
 14 20  1  0
 15  8  1  0
 16 18  1  0
 17 10  1  0
 17 19  1  0
 17 14  1  0
 18 27  1  0
 19  2  1  0
 20  9  1  0
 21 24  1  0
 22 18  2  0
 23 15  1  0
 24 10  2  0
 25 11  1  0
 26 10  1  0
 27 28  2  0
 27 25  1  0
 28  7  1  0
M  END
$$$$

     RDKit          3D

 16 18  0  0  0  0  0  0  0  0999 V2000
   12.6340    9.5190   -2.1590 C   0  0  0  0  0  0  0  0  0  0  0  0
   10.4250    6.1650   -6.8150 C   0  0  0  0  0  0  0  0  0  0  0  0
   11.9780    6.8600   -3.0490 C   0  0  0  0  0  0  0  0  0  0  0  0
   12.0230    9.3500   -3.4000 C   0  0  0  0  0  0  0  0  0  0  0  0
   11.2140    7.9170   -5.2640 C   0  0  0  0  0  0  0  0  0  0  0  0
   10.7670    8.9380   -6.1040 C   0  0  0  0  0  0  0  0  0  0  0  0
   11.2190    6.5060   -5.7070 N   0  0  0  0  0  0  0  0  0  0  0  0
   13.0320    8.3240   -1.3970 C   0  0  0  0  0  0  0  0  0  0  0  0
   10.2660    4.8150   -7.5010 C   0  0  0  0  0  0  0  0  0  0  0  0
   11.7520    8.1550   -3.8860 C   0  0  0  0  0  0  0  0  0  0  0  0
   13.9110    8.5130   -0.2190 F   0  0  0  0  0  0  0  0  0  0  0  0
   12.6320    7.0210   -1.8230 C   0  0  0  0  0  0  0  0  0  0  0  0
    9.8970    8.5180   -7.1280 C   0  0  0  0  0  0  0  0  0  0  0  0
    8.7230    4.9500   -7.8820 C   0  0  0  0  0  0  0  0  0  0  0  0
    8.3260    6.4090   -7.8720 C   0  0  0  0  0  0  0  0  0  0  0  0
    9.5400    7.1210   -7.2770 C   0  0  0  0  0  0  0  0  0  0  0  0
  1  8  1  0
  2  7  2  0
  3 12  1  0
  4  1  2  0
  5 10  1  0
  6  5  1  0
  7  5  1  0
  8 11  1  0
  9  2  1  0
 10  4  1  0
 10  3  2  0
 12  8  2  0
 13  6  1  0
 14 15  1  0
 14  9  1  0
 16 15  1  0
 16 13  1  0
 16  2  1  0
M  END
$$$$

     RDKit          3D

 21 23  0  0  0  0  0  0  0  0999 V2000
    9.6420    6.0710   -8.1690 C   0  0  0  0  0  0  0  0  0  0  0  0
   11.6230    9.1490   -4.0740 C   0  0  0  0  0  0  0  0  0  0  0  0
    8.6450    6.0300   -7.1040 O   0  0  0  0  0  0  0  0  0  0  0  0
   12.6030    8.7870   -1.8830 C   0  0  0  0  0  0  0  0  0  0  0  0
   10.0560    7.0250  -10.5240 C   0  0  0  0  0  0  0  0  0  0  0  0
   11.0670    8.2100   -8.5130 C   0  0  0  0  0  0  0  0  0  0  0  0
    9.2090    6.3550   -9.4400 N   0  0  0  0  0  0  0  0  0  0  0  0
   10.7780    7.9260   -6.3830 C   0  0  0  0  0  0  0  0  0  0  0  0
   12.3500    7.4210   -1.9620 C   0  0  0  0  0  0  0  0  0  0  0  0
   11.5440    7.8580   -4.0760 C   0  0  0  0  0  0  0  0  0  0  0  0
   12.1600    9.5910   -2.8240 N   0  0  0  0  0  0  0  0  0  0  0  0
   10.0470    8.2980   -9.7670 C   0  0  0  0  0  0  0  0  0  0  0  0
    9.0180    4.1820   -9.5230 C   0  0  0  0  0  0  0  0  0  0  0  0
   11.2780   10.2310   -5.0430 C   0  0  0  0  0  0  0  0  0  0  0  0
    8.2530    5.3430   -9.8710 C   0  0  0  0  0  0  0  0  0  0  0  0
   12.5330    6.4810   -0.6770 C   0  0  0  0  0  0  0  0  0  0  0  0
   11.8050    6.9170   -3.1020 C   0  0  0  0  0  0  0  0  0  0  0  0
   10.7950    9.6370   -6.3960 C   0  0  0  0  0  0  0  0  0  0  0  0
   10.9920    6.9730   -5.4060 C   0  0  0  0  0  0  0  0  0  0  0  0
   10.8870    7.1100   -7.7250 C   0  0  0  0  0  0  0  0  0  0  0  0
   13.2860    5.5410   -0.6130 N   0  0  0  0  0  0  0  0  0  0  0  0
  1 20  1  0
  1  3  1  0
  2 11  1  0
  5 12  1  0
  5  7  1  0
  6 20  1  0
  7  1  1  0
  8 19  1  0
  9  4  1  0
  9 16  1  0
 10  2  1  0
 10 17  1  0
 11  4  2  0
 12  6  1  0
 14  2  2  0
 15 13  1  0
 15  7  1  0
 16 21  2  0
 17  9  2  0
 18  8  2  0
 18 14  1  0
 19 10  2  0
 20  8  1  0
M  END
$$$$

     RDKit          3D

 27 28  0  0  0  0  0  0  0  0999 V2000
   12.8890    8.1570   -1.1030 C   0  0  0  0  0  0  0  0  0  0  0  0
    9.5830    4.7840   -7.1660 C   0  0  0  0  0  0  0  0  0  0  0  0
   11.5680    5.4070   -5.9030 F   0  0  0  0  0  0  0  0  0  0  0  0
   10.6480    6.3220   -1.0240 C   0  0  0  0  0  0  0  0  0  0  0  0
    9.4880    6.2110   -9.3180 O   0  0  0  0  0  0  0  0  0  0  0  0
    9.5420    6.6820   -5.8940 C   0  0  0  0  0  0  0  0  0  0  0  0
   12.0680    8.8180   -3.2400 C   0  0  0  0  0  0  0  0  0  0  0  0
   11.3650    6.7370   -2.2240 C   0  0  0  0  0  0  0  0  0  0  0  0
    8.8620    5.3040    0.0250 F   0  0  0  0  0  0  0  0  0  0  0  0
   12.8010    6.9550   -0.1920 C   0  0  0  0  0  0  0  0  0  0  0  0
   13.5430    7.1670    0.9500 F   0  0  0  0  0  0  0  0  0  0  0  0
   11.1890    5.8480   -3.2170 F   0  0  0  0  0  0  0  0  0  0  0  0
   11.3090    6.8090    0.2520 C   0  0  0  0  0  0  0  0  0  0  0  0
   10.7440    7.6260   -5.8770 C   0  0  0  0  0  0  0  0  0  0  0  0
    8.9480    6.4280   -7.2570 C   0  0  0  0  0  0  0  0  0  0  0  0
    8.6830    8.3300   -8.5670 O   0  0  0  0  0  0  0  0  0  0  0  0
    9.4300    5.7090   -1.0300 C   0  0  0  0  0  0  0  0  0  0  0  0
    9.5350    7.2670   -8.5030 C   0  0  0  0  0  0  0  0  0  0  0  0
   11.7810   10.0310   -3.0360 O   0  0  0  0  0  0  0  0  0  0  0  0
   11.6670    7.3640   -8.0370 C   0  0  0  0  0  0  0  0  0  0  0  0
   13.3290    5.8590   -0.7470 F   0  0  0  0  0  0  0  0  0  0  0  0
   12.0560    7.8390   -2.2720 N   0  0  0  0  0  0  0  0  0  0  0  0
   11.7460    6.5070   -6.5710 C   0  0  0  0  0  0  0  0  0  0  0  0
   10.8160    7.9930   -8.4000 C   0  0  0  0  0  0  0  0  0  0  0  0
   12.4240    8.4720   -4.4380 O   0  0  0  0  0  0  0  0  0  0  0  0
    8.6130    5.7550   -2.0770 F   0  0  0  0  0  0  0  0  0  0  0  0
   11.5790    8.8090   -5.5410 C   0  0  0  0  0  0  0  0  0  0  0  0
  1 10  1  0
  4 17  1  0
  4 13  1  0
  5 18  1  0
  6 14  1  0
  7 19  2  0
  7 22  1  0
  8 12  1  0
  8  4  1  0
 10 13  1  0
 10 11  1  0
 14 27  1  0
 15  2  1  0
 15  6  1  0
 16 18  1  0
 17  9  1  0
 18 24  1  0
 18 15  1  0
 20 23  1  0
 21 10  1  0
 22  8  1  0
 22  1  1  0
 23  3  1  0
 23 14  1  0
 24 20  1  0
 25  7  1  0
 26 17  1  0
 27 25  1  0
M  END
$$$$

     RDKit          3D

 39 44  0  0  0  0  0  0  0  0999 V2000
   11.3270    7.6940  -10.9470 C   0  0  0  0  0  0  0  0  0  0  0  0
   10.8020    7.8860   -9.6180 C   0  0  0  0  0  0  0  0  0  0  0  0
   11.5790    9.1470   -4.5970 C   0  0  0  0  0  0  0  0  0  0  0  0
   12.8200    5.8210   -1.1870 C   0  0  0  0  0  0  0  0  0  0  0  0
    8.1220    6.1160   -7.0400 F   0  0  0  0  0  0  0  0  0  0  0  0
   10.2400    7.4020  -11.9420 C   0  0  0  0  0  0  0  0  0  0  0  0
    9.2200    6.8660   -9.7270 C   0  0  0  0  0  0  0  0  0  0  0  0
   10.3800    8.2250   -7.6400 N   0  0  0  0  0  0  0  0  0  0  0  0
   11.9470   10.9110   -0.7540 O   0  0  0  0  0  0  0  0  0  0  0  0
    8.8990    7.1160  -11.3400 C   0  0  0  0  0  0  0  0  0  0  0  0
    6.4630    5.9970  -14.6630 C   0  0  0  0  0  0  0  0  0  0  0  0
   12.5880    9.9540   -1.1770 N   0  0  0  0  0  0  0  0  0  0  0  0
   12.2270    5.8070   -3.5400 C   0  0  0  0  0  0  0  0  0  0  0  0
   13.7120    9.7200   -0.4450 O   0  0  0  0  0  0  0  0  0  0  0  0
    9.0960    5.3390   -9.5770 C   0  0  0  0  0  0  0  0  0  0  0  0
   12.2320    9.2540   -2.2880 C   0  0  0  0  0  0  0  0  0  0  0  0
    6.1350    6.8530  -14.0260 C   0  0  0  0  0  0  0  0  0  0  0  0
   13.1830    5.3040   -2.5070 C   0  0  0  0  0  0  0  0  0  0  0  0
    5.7370    5.7440  -13.4420 C   0  0  0  0  0  0  0  0  0  0  0  0
   11.3760    9.0240   -7.1380 C   0  0  0  0  0  0  0  0  0  0  0  0
   12.6740    7.2700   -1.1060 N   0  0  0  0  0  0  0  0  0  0  0  0
    9.6660    4.7610   -8.2060 C   0  0  0  0  0  0  0  0  0  0  0  0
    7.8440    6.4880  -12.3470 N   0  0  0  0  0  0  0  0  0  0  0  0
    7.4090    7.6670  -13.1260 C   0  0  0  0  0  0  0  0  0  0  0  0
    5.9630    7.1600  -15.5870 C   0  0  0  0  0  0  0  0  0  0  0  0
   12.5290    7.9260  -11.1260 O   0  0  0  0  0  0  0  0  0  0  0  0
    9.4120    7.5480   -6.8970 C   0  0  0  0  0  0  0  0  0  0  0  0
    6.5000    4.6280  -15.4360 O   0  0  0  0  0  0  0  0  0  0  0  0
    9.4370    5.9740   -7.1320 C   0  0  0  0  0  0  0  0  0  0  0  0
   12.2660    9.0400   -7.9840 O   0  0  0  0  0  0  0  0  0  0  0  0
   14.8960    4.9580   -0.6580 O   0  0  0  0  0  0  0  0  0  0  0  0
    6.7340    5.6240  -11.9170 C   0  0  0  0  0  0  0  0  0  0  0  0
   11.9600    7.1460   -3.4400 C   0  0  0  0  0  0  0  0  0  0  0  0
   11.7740    9.8670   -3.4110 C   0  0  0  0  0  0  0  0  0  0  0  0
   11.4960    7.7580   -4.5210 N   0  0  0  0  0  0  0  0  0  0  0  0
   11.4000    9.7240   -5.9210 C   0  0  0  0  0  0  0  0  0  0  0  0
   13.8650    5.6560   -0.1650 C   0  0  0  0  0  0  0  0  0  0  0  0
   12.3260    7.9270   -2.3190 C   0  0  0  0  0  0  0  0  0  0  0  0
   10.4350    7.4970   -8.8580 C   0  0  0  0  0  0  0  0  0  0  0  0
  1  2  1  0
  3 35  2  0
  3 34  1  0
  4 21  1  0
  4 37  1  0
  6  1  1  0
  7 15  1  0
  7 39  1  0
  8 20  1  0
  8 27  1  0
 10  6  1  0
 10  7  1  0
 11 25  1  0
 11 17  1  0
 11 19  1  0
 12  9  2  0
 12 14  2  0
 13 33  1  0
 13 18  1  0
 15 22  1  0
 16 12  1  0
 17 19  1  0
 17 24  1  0
 18  4  1  0
 19 32  1  0
 20 36  1  0
 22 29  1  0
 23 24  1  0
 23 32  1  0
 23 10  1  0
 26  1  2  0
 28 11  1  0
 29  5  1  0
 29 27  1  0
 30 20  2  0
 31 37  1  0
 33 38  2  0
 34 16  2  0
 35 33  1  0
 36  3  1  0
 38 16  1  0
 38 21  1  0
 39  2  1  0
 39  8  1  0
M  END
$$$$

     RDKit          3D

 36 39  0  0  0  0  0  0  0  0999 V2000
   10.2470    7.6510   -8.2380 C   0  0  0  0  0  0  0  0  0  0  0  0
   12.0800    8.7530   -3.3260 C   0  0  0  0  0  0  0  0  0  0  0  0
    8.4080    5.4620   -8.7490 C   0  0  0  0  0  0  0  0  0  0  0  0
    9.9860    6.7420   -7.2800 N   0  0  0  0  0  0  0  0  0  0  0  0
   12.5870    8.8830   -1.9890 C   0  0  0  0  0  0  0  0  0  0  0  0
    5.6980    7.7060  -17.2230 C   0  0  0  0  0  0  0  0  0  0  0  0
    6.7160    6.6330  -17.1000 C   0  0  0  0  0  0  0  0  0  0  0  0
    6.6700    6.8130  -13.1020 C   0  0  0  0  0  0  0  0  0  0  0  0
   11.6190    8.5350   -6.2230 C   0  0  0  0  0  0  0  0  0  0  0  0
    7.9160    4.8720  -12.3330 N   0  0  0  0  0  0  0  0  0  0  0  0
    9.1710    5.1170  -13.0440 C   0  0  0  0  0  0  0  0  0  0  0  0
   11.4550    7.3580   -5.3830 C   0  0  0  0  0  0  0  0  0  0  0  0
    6.9910    6.0960  -15.8710 C   0  0  0  0  0  0  0  0  0  0  0  0
   11.8840    6.3540   -2.9570 C   0  0  0  0  0  0  0  0  0  0  0  0
   11.8690    9.5840   -5.5570 C   0  0  0  0  0  0  0  0  0  0  0  0
    5.5150    4.3860  -13.1820 C   0  0  0  0  0  0  0  0  0  0  0  0
   11.3290    8.5880   -7.7150 C   0  0  0  0  0  0  0  0  0  0  0  0
    8.0330    4.3520  -10.9860 C   0  0  0  0  0  0  0  0  0  0  0  0
   11.9030    9.8380   -4.0840 N   0  0  0  0  0  0  0  0  0  0  0  0
    9.9650    5.9580  -12.3130 O   0  0  0  0  0  0  0  0  0  0  0  0
   14.2780    9.2770    0.1220 O   0  0  0  0  0  0  0  0  0  0  0  0
    6.3150    6.8820  -14.6360 C   0  0  0  0  0  0  0  0  0  0  0  0
   12.8420    7.8250   -1.1490 C   0  0  0  0  0  0  0  0  0  0  0  0
    8.9540    5.2030  -10.0490 C   0  0  0  0  0  0  0  0  0  0  0  0
    8.2810    8.4710  -11.6910 N   0  0  0  0  0  0  0  0  0  0  0  0
    6.6810    5.3400  -12.8050 C   0  0  0  0  0  0  0  0  0  0  0  0
   12.7930   10.2020   -1.6430 O   0  0  0  0  0  0  0  0  0  0  0  0
    8.9500    5.9840   -7.5900 C   0  0  0  0  0  0  0  0  0  0  0  0
   11.7800    7.4460   -3.8220 C   0  0  0  0  0  0  0  0  0  0  0  0
   10.7630    6.4550   -6.2410 C   0  0  0  0  0  0  0  0  0  0  0  0
    7.6220    7.8270  -12.8920 C   0  0  0  0  0  0  0  0  0  0  0  0
    4.8940    8.1250  -16.1890 C   0  0  0  0  0  0  0  0  0  0  0  0
    5.1780    7.5720  -14.9490 C   0  0  0  0  0  0  0  0  0  0  0  0
   13.6210    8.1830    0.0930 C   0  0  0  0  0  0  0  0  0  0  0  0
   12.3410    6.5120   -1.6260 C   0  0  0  0  0  0  0  0  0  0  0  0
   13.7830    7.1770    1.2160 C   0  0  0  0  0  0  0  0  0  0  0  0
  1 17  1  0
  1  4  1  0
  2  5  2  0
  3 28  1  0
  4 30  1  0
  5 27  1  0
  5 23  1  0
  6  7  2  0
  6 32  1  0
  7 13  1  0
  8 31  1  0
  8 26  1  0
  9 15  1  0
  9 12  2  0
 10 18  1  0
 11 10  1  0
 11 20  1  0
 12 29  1  0
 13 22  1  0
 14 35  1  0
 15 19  2  0
 17  9  1  0
 18 24  1  0
 19  2  1  0
 22  8  1  0
 23 34  1  0
 24  3  1  0
 26 16  1  0
 26 10  1  0
 28  4  1  0
 29  2  1  0
 29 14  2  0
 30 12  1  0
 31 25  1  0
 32 33  2  0
 33 22  1  0
 34 21  2  0
 34 36  1  0
 35 23  2  0
M  END
$$$$

     RDKit          3D

 25 27  0  0  0  0  0  0  0  0999 V2000
    9.5730    8.0000   -6.4790 C   0  0  0  0  0  0  0  0  0  0  0  0
    9.3130    6.0210   -9.7020 C   0  0  0  0  0  0  0  0  0  0  0  0
    8.6590    6.5960  -10.9050 N   0  0  0  0  0  0  0  0  0  0  0  0
   12.1970    8.5600   -6.4670 S   0  0  0  0  0  0  0  0  0  0  0  0
   10.2470    7.0400   -9.1380 C   0  0  0  0  0  0  0  0  0  0  0  0
    9.9860    7.2810   -7.7400 C   0  0  0  0  0  0  0  0  0  0  0  0
   11.5670    9.8980   -2.0660 O   0  0  0  0  0  0  0  0  0  0  0  0
    9.2280    7.6130  -11.6530 C   0  0  0  0  0  0  0  0  0  0  0  0
   12.6600    9.6260   -3.0710 C   0  0  0  0  0  0  0  0  0  0  0  0
   11.9640    9.4510   -0.7460 C   0  0  0  0  0  0  0  0  0  0  0  0
    9.3320    5.7500   -7.3170 O   0  0  0  0  0  0  0  0  0  0  0  0
    8.4150    5.7940   -8.3330 N   0  0  0  0  0  0  0  0  0  0  0  0
   13.0440    8.4430   -1.1260 C   0  0  0  0  0  0  0  0  0  0  0  0
   11.4790   10.0320   -6.5130 C   0  0  0  0  0  0  0  0  0  0  0  0
   10.8590    7.6360   -5.6880 C   0  0  0  0  0  0  0  0  0  0  0  0
   13.2870    5.9930   -1.4480 F   0  0  0  0  0  0  0  0  0  0  0  0
   13.6210    9.0250   -2.2250 O   0  0  0  0  0  0  0  0  0  0  0  0
    8.7020    8.7700  -11.4510 O   0  0  0  0  0  0  0  0  0  0  0  0
   11.2830    6.3530   -4.5060 S   0  0  0  0  0  0  0  0  0  0  0  0
   11.4190    7.5040   -9.8280 O   0  0  0  0  0  0  0  0  0  0  0  0
   11.8570    7.2460   -2.8900 C   0  0  0  0  0  0  0  0  0  0  0  0
   12.6100    8.2710   -3.5680 C   0  0  0  0  0  0  0  0  0  0  0  0
   12.4330    7.0320   -1.5150 C   0  0  0  0  0  0  0  0  0  0  0  0
   10.0950    7.4460  -12.4990 O   0  0  0  0  0  0  0  0  0  0  0  0
   11.3220    6.7420   -0.6790 F   0  0  0  0  0  0  0  0  0  0  0  0
  1 15  1  0
  2  3  1  0
  2  5  1  0
  2 12  1  0
  4 15  1  0
  5  6  1  0
  6 11  1  0
  6  1  1  0
  7 10  1  0
  8 18  1  0
  8  3  1  0
  9 17  1  0
  9  7  1  0
 12 11  1  0
 13 10  1  0
 14  4  1  0
 15 19  1  0
 17 13  1  0
 19 21  1  0
 20  5  1  0
 21 23  1  0
 22  9  1  0
 22 21  1  0
 23 16  1  0
 23 13  1  0
 23 25  1  0
 24  8  2  0
M  END
$$$$

     RDKit          3D

 35 44  0  0  0  0  0  0  0  0999 V2000
    9.3560    4.5210   -8.5130 C   0  0  0  0  0  0  0  0  0  0  0  0
    8.7300    4.8850  -13.7890 C   0  0  0  0  0  0  0  0  0  0  0  0
    9.1980    6.6300   -7.0930 C   0  0  0  0  0  0  0  0  0  0  0  0
    8.6100    5.7890  -11.5050 C   0  0  0  0  0  0  0  0  0  0  0  0
    7.3390    7.8310  -12.8240 C   0  0  0  0  0  0  0  0  0  0  0  0
    6.3490    4.9900  -14.2610 C   0  0  0  0  0  0  0  0  0  0  0  0
   11.5500    7.8690    0.4740 C   0  0  0  0  0  0  0  0  0  0  0  0
   13.5450    9.0320    0.0410 O   0  0  0  0  0  0  0  0  0  0  0  0
   11.3640    7.2700   -0.8690 C   0  0  0  0  0  0  0  0  0  0  0  0
   11.1290    8.6130   -5.3460 C   0  0  0  0  0  0  0  0  0  0  0  0
   11.6320    7.4940   -4.8270 C   0  0  0  0  0  0  0  0  0  0  0  0
    7.2930    6.5430  -13.4520 C   0  0  0  0  0  0  0  0  0  0  0  0
   12.4140    8.4030   -0.6760 C   0  0  0  0  0  0  0  0  0  0  0  0
    8.5700    5.3140   -7.4200 C   0  0  0  0  0  0  0  0  0  0  0  0
    6.3750    6.4720  -14.9360 C   0  0  0  0  0  0  0  0  0  0  0  0
    9.0430    4.9150  -12.6820 C   0  0  0  0  0  0  0  0  0  0  0  0
   10.3820    7.3050   -9.0070 C   0  0  0  0  0  0  0  0  0  0  0  0
   12.8490    9.0340   -2.2940 C   0  0  0  0  0  0  0  0  0  0  0  0
    8.6050    5.0850   -9.6690 N   0  0  0  0  0  0  0  0  0  0  0  0
   13.4280    9.7770   -2.3270 O   0  0  0  0  0  0  0  0  0  0  0  0
    7.5420    5.6490  -14.5150 C   0  0  0  0  0  0  0  0  0  0  0  0
   11.6910    6.7600   -2.4420 C   0  0  0  0  0  0  0  0  0  0  0  0
    5.6850    5.3920  -11.8790 C   0  0  0  0  0  0  0  0  0  0  0  0
   10.9340    8.9650   -6.7590 C   0  0  0  0  0  0  0  0  0  0  0  0
    6.9540    3.9500  -12.6790 C   0  0  0  0  0  0  0  0  0  0  0  0
   12.1860    7.8760   -3.3180 C   0  0  0  0  0  0  0  0  0  0  0  0
   11.8120    6.1600   -5.0000 C   0  0  0  0  0  0  0  0  0  0  0  0
    9.8980    7.2290   -0.8850 C   0  0  0  0  0  0  0  0  0  0  0  0
    7.8560    4.3030  -13.1650 C   0  0  0  0  0  0  0  0  0  0  0  0
   10.8950    7.8460   -7.9000 C   0  0  0  0  0  0  0  0  0  0  0  0
   12.2440    9.5780   -5.0520 O   0  0  0  0  0  0  0  0  0  0  0  0
   10.3450    6.8160   -7.8470 C   0  0  0  0  0  0  0  0  0  0  0  0
    6.6140    5.3450  -12.9010 C   0  0  0  0  0  0  0  0  0  0  0  0
   12.7820    8.8870   -4.0620 O   0  0  0  0  0  0  0  0  0  0  0  0
    8.6510    4.4710  -10.8400 C   0  0  0  0  0  0  0  0  0  0  0  0
  1 14  1  0
  2 29  1  0
  2 16  1  0
  4 35  1  0
  6 33  1  0
  9 13  1  0
  9  7  1  0
 10 31  1  0
 10 11  1  0
 11 26  1  0
 12 33  1  0
 12  5  1  0
 13  8  1  0
 13  7  1  0
 14  3  1  0
 15 21  1  0
 15  6  1  0
 15 12  1  0
 16  4  1  0
 16 35  1  0
 17 30  1  0
 17 32  1  0
 18 13  1  0
 19  1  1  0
 20 18  2  0
 21  6  1  0
 21  2  1  0
 21 12  1  0
 22  9  1  0
 24 10  1  0
 26 22  1  0
 26 18  1  0
 27 11  2  0
 28  9  1  0
 29 16  1  0
 29 25  1  0
 30 32  1  0
 30 24  1  0
 31 34  1  0
 32  3  1  0
 33 25  1  0
 33 23  1  0
 34 26  1  0
 35 19  1  0
M  END
$$$$

     RDKit          3D

 28 31  0  0  0  0  0  0  0  0999 V2000
    6.1070    6.4930  -15.2440 C   0  0  0  0  0  0  0  0  0  0  0  0
    7.4530    6.3220  -13.1330 C   0  0  0  0  0  0  0  0  0  0  0  0
    4.6460    4.5060  -12.2580 O   0  0  0  0  0  0  0  0  0  0  0  0
   11.7260    9.4400   -4.2790 C   0  0  0  0  0  0  0  0  0  0  0  0
   11.5230    8.3800   -5.0860 C   0  0  0  0  0  0  0  0  0  0  0  0
    5.5710    5.1280  -11.9760 C   0  0  0  0  0  0  0  0  0  0  0  0
    9.4010    6.2930   -8.3860 C   0  0  0  0  0  0  0  0  0  0  0  0
   11.3190    7.3600   -7.4630 C   0  0  0  0  0  0  0  0  0  0  0  0
   12.1560    9.4290   -2.9250 C   0  0  0  0  0  0  0  0  0  0  0  0
   10.0250    6.6950   -7.0030 C   0  0  0  0  0  0  0  0  0  0  0  0
    7.4710    7.3420  -14.5080 S   0  0  0  0  0  0  0  0  0  0  0  0
   12.4270    7.0650   -2.2350 C   0  0  0  0  0  0  0  0  0  0  0  0
   11.4320    6.9750   -4.5800 C   0  0  0  0  0  0  0  0  0  0  0  0
   12.7850    6.1820   -1.3640 F   0  0  0  0  0  0  0  0  0  0  0  0
   11.2880    8.3370   -8.4450 C   0  0  0  0  0  0  0  0  0  0  0  0
   12.4930    8.4190   -2.0300 C   0  0  0  0  0  0  0  0  0  0  0  0
   11.5240    8.7310   -6.8520 C   0  0  0  0  0  0  0  0  0  0  0  0
    9.2120    4.2450  -11.0710 C   0  0  0  0  0  0  0  0  0  0  0  0
    5.8350    5.2540  -10.8510 O   0  0  0  0  0  0  0  0  0  0  0  0
    5.6480    5.4660  -14.3880 C   0  0  0  0  0  0  0  0  0  0  0  0
   11.8460    6.4600   -3.4090 C   0  0  0  0  0  0  0  0  0  0  0  0
    6.2850    5.5310  -13.1540 C   0  0  0  0  0  0  0  0  0  0  0  0
   10.0740    7.7140  -10.3200 C   0  0  0  0  0  0  0  0  0  0  0  0
    8.5280    6.3200  -12.2540 N   0  0  0  0  0  0  0  0  0  0  0  0
   12.9880    8.8090   -0.8520 O   0  0  0  0  0  0  0  0  0  0  0  0
    8.9280    5.7610  -11.0450 C   0  0  0  0  0  0  0  0  0  0  0  0
   11.2360    8.4230   -9.7060 C   0  0  0  0  0  0  0  0  0  0  0  0
    9.5600    6.6380   -9.8900 C   0  0  0  0  0  0  0  0  0  0  0  0
  1 11  1  0
  1 20  1  0
  2 24  2  3
  3  6  2  0
  4  9  1  0
  5 13  1  0
  5  4  2  0
  6 19  1  0
  7 10  1  0
  8 10  1  0
  8 17  1  0
  9 16  1  0
 11  2  1  0
 12 16  2  0
 12 14  1  0
 13 21  2  0
 15 27  1  0
 15  8  1  0
 15 17  1  0
 16 25  1  0
 17  5  1  0
 20 22  1  0
 21 12  1  0
 22  2  1  0
 22  6  1  0
 23 28  1  0
 23 27  1  0
 24 26  1  0
 26 18  1  0
 28 26  1  0
 28  7  1  0
M  END
$$$$

     RDKit          3D

 31 34  0  0  0  0  0  0  0  0999 V2000
    6.2630    6.1300  -13.4290 C   0  0  0  0  0  0  0  0  0  0  0  0
   10.2170    7.5740  -10.9030 C   0  0  0  0  0  0  0  0  0  0  0  0
    7.7260    3.3780  -15.6190 O   0  0  0  0  0  0  0  0  0  0  0  0
    9.8040    6.4450   -6.9140 C   0  0  0  0  0  0  0  0  0  0  0  0
    8.0560    4.4780  -15.7900 C   0  0  0  0  0  0  0  0  0  0  0  0
   11.2560    8.4110   -8.6170 C   0  0  0  0  0  0  0  0  0  0  0  0
    8.2650    5.3160  -14.5460 C   0  0  0  0  0  0  0  0  0  0  0  0
    8.4130    5.0160  -17.0740 C   0  0  0  0  0  0  0  0  0  0  0  0
    8.1120    8.7200  -12.0580 C   0  0  0  0  0  0  0  0  0  0  0  0
    8.3230    6.1310  -12.0310 C   0  0  0  0  0  0  0  0  0  0  0  0
   11.3240    8.4500   -7.1300 C   0  0  0  0  0  0  0  0  0  0  0  0
   12.7290    8.9960   -1.1550 O   0  0  0  0  0  0  0  0  0  0  0  0
   11.2170    7.3680   -4.9450 C   0  0  0  0  0  0  0  0  0  0  0  0
    8.9940    5.2910  -11.2110 C   0  0  0  0  0  0  0  0  0  0  0  0
   10.7190    7.3710   -6.3510 C   0  0  0  0  0  0  0  0  0  0  0  0
   11.6310    7.0220   -2.3040 C   0  0  0  0  0  0  0  0  0  0  0  0
    9.4180    6.6400   -8.4000 C   0  0  0  0  0  0  0  0  0  0  0  0
   12.6210    6.2240   -1.7920 F   0  0  0  0  0  0  0  0  0  0  0  0
   10.2580    7.5210   -9.3590 C   0  0  0  0  0  0  0  0  0  0  0  0
    5.8260    6.6280  -14.6400 C   0  0  0  0  0  0  0  0  0  0  0  0
   11.1180    6.4630   -3.7030 C   0  0  0  0  0  0  0  0  0  0  0  0
   11.8540    8.6770   -4.8340 C   0  0  0  0  0  0  0  0  0  0  0  0
    7.7920    5.8260  -13.3300 C   0  0  0  0  0  0  0  0  0  0  0  0
   11.7700    9.2900   -9.3030 O   0  0  0  0  0  0  0  0  0  0  0  0
   11.9840    9.4950   -6.2610 S   0  0  0  0  0  0  0  0  0  0  0  0
    8.7640    7.5530  -11.4450 N   0  0  0  0  0  0  0  0  0  0  0  0
   10.6540    7.0600   -1.3860 F   0  0  0  0  0  0  0  0  0  0  0  0
    8.4720    5.5850   -8.7380 C   0  0  0  0  0  0  0  0  0  0  0  0
    8.3360    5.0000   -9.8170 C   0  0  0  0  0  0  0  0  0  0  0  0
   12.3040    9.1620   -3.6320 C   0  0  0  0  0  0  0  0  0  0  0  0
   12.1700    8.4970   -2.3770 C   0  0  0  0  0  0  0  0  0  0  0  0
  1 23  1  0
  2 19  1  0
  4 15  2  0
  5  3  2  0
  5  7  1  0
  8  5  1  0
  9 26  1  0
 10 23  1  0
 10 26  1  0
 10 14  1  0
 11  6  1  0
 11 15  1  0
 11 25  1  0
 13 22  1  0
 13 21  2  0
 14 29  1  0
 15 13  1  0
 16 18  1  0
 16 27  1  0
 17  4  1  0
 19  6  1  0
 19 17  2  0
 20  1  1  0
 21 16  1  0
 22 30  2  0
 23  7  1  0
 24  6  2  0
 25 22  1  0
 26  2  1  0
 28 17  1  0
 29 28  2  0
 30 31  1  0
 31 16  1  0
 31 12  1  0
M  END
$$$$

     RDKit          3D

 32 34  0  0  0  0  0  0  0  0999 V2000
    8.2100    5.4450   -9.9480 C   0  0  0  0  0  0  0  0  0  0  0  0
    5.6140    4.8140  -13.2360 C   0  0  0  0  0  0  0  0  0  0  0  0
   12.9600    8.6290   -1.1330 C   0  0  0  0  0  0  0  0  0  0  0  0
    9.9360    6.7540   -6.6500 C   0  0  0  0  0  0  0  0  0  0  0  0
    7.9010    3.0880  -12.4600 O   0  0  0  0  0  0  0  0  0  0  0  0
    9.7140    6.6250  -12.6490 O   0  0  0  0  0  0  0  0  0  0  0  0
   11.0600    8.6930   -5.4850 C   0  0  0  0  0  0  0  0  0  0  0  0
   10.7340    7.2220   -5.4770 N   0  0  0  0  0  0  0  0  0  0  0  0
    6.3850    4.6660  -12.0270 C   0  0  0  0  0  0  0  0  0  0  0  0
    7.6950    4.0630  -12.0590 C   0  0  0  0  0  0  0  0  0  0  0  0
    6.3140    7.2430  -16.3090 C   0  0  0  0  0  0  0  0  0  0  0  0
   12.6180    9.9090   -2.1090 S   0  0  0  0  0  0  0  0  0  0  0  0
    6.6110    6.0270  -15.2830 C   0  0  0  0  0  0  0  0  0  0  0  0
   11.8030    6.2850   -3.5140 C   0  0  0  0  0  0  0  0  0  0  0  0
   10.6710    6.2260   -7.7090 C   0  0  0  0  0  0  0  0  0  0  0  0
   12.0450    8.8650   -3.2480 C   0  0  0  0  0  0  0  0  0  0  0  0
   11.5440    6.1560   -4.9540 C   0  0  0  0  0  0  0  0  0  0  0  0
   10.3740    9.4650   -6.5670 O   0  0  0  0  0  0  0  0  0  0  0  0
    8.8040    7.1410  -12.2110 C   0  0  0  0  0  0  0  0  0  0  0  0
    8.2310    6.4020  -10.8950 N   0  0  0  0  0  0  0  0  0  0  0  0
    8.9330    5.0180  -10.9730 C   0  0  0  0  0  0  0  0  0  0  0  0
    8.4950    6.3600   -6.4150 C   0  0  0  0  0  0  0  0  0  0  0  0
   11.8970    6.9360   -7.7610 O   0  0  0  0  0  0  0  0  0  0  0  0
   11.4660    9.7530   -4.4160 C   0  0  0  0  0  0  0  0  0  0  0  0
    9.5680    7.4830   -9.1910 O   0  0  0  0  0  0  0  0  0  0  0  0
    8.4080    8.2810  -12.0600 O   0  0  0  0  0  0  0  0  0  0  0  0
    9.6870    6.2320   -9.0680 C   0  0  0  0  0  0  0  0  0  0  0  0
   12.5850    7.4250   -1.6040 C   0  0  0  0  0  0  0  0  0  0  0  0
    5.9590    6.2530  -13.9080 C   0  0  0  0  0  0  0  0  0  0  0  0
    5.7940    3.6500  -14.0450 N   0  0  0  0  0  0  0  0  0  0  0  0
   10.9700    7.7610   -9.6830 C   0  0  0  0  0  0  0  0  0  0  0  0
   12.1020    7.5800   -2.9290 C   0  0  0  0  0  0  0  0  0  0  0  0
  1 27  1  0
  2 30  1  0
  2  9  1  0
  4 22  1  0
  4  8  1  0
  5 10  2  0
  6 19  2  0
  7  8  1  0
  7 24  1  0
  8 17  1  0
 10  9  1  0
 11 13  1  0
 12  3  1  0
 13 29  1  0
 14 32  1  0
 15 23  1  0
 15  4  1  0
 16 32  2  0
 16 12  1  0
 17 14  1  0
 18  7  2  0
 19 26  1  0
 19 20  1  0
 20  1  1  0
 21 10  1  0
 21 20  1  0
 21  1  1  0
 24 16  1  0
 27 25  1  0
 27 15  1  0
 28  3  2  0
 29  2  1  0
 31 25  1  0
 32 28  1  0
M  END
$$$$

     RDKit          3D

 35 39  0  0  0  0  0  0  0  0999 V2000
   12.3310    8.3100   -2.1010 C   0  0  0  0  0  0  0  0  0  0  0  0
    7.8880    4.1190  -13.0740 N   0  0  0  0  0  0  0  0  0  0  0  0
   10.8610    6.6070   -6.4080 C   0  0  0  0  0  0  0  0  0  0  0  0
   11.4420   10.0590   -4.3220 C   0  0  0  0  0  0  0  0  0  0  0  0
   11.6520   10.2350   -6.8090 O   0  0  0  0  0  0  0  0  0  0  0  0
   11.9990    9.6140   -2.2490 C   0  0  0  0  0  0  0  0  0  0  0  0
    6.0480    3.5490  -12.2740 O   0  0  0  0  0  0  0  0  0  0  0  0
   10.2180    6.9460   -9.0610 C   0  0  0  0  0  0  0  0  0  0  0  0
    9.1290    4.6520   -8.6080 C   0  0  0  0  0  0  0  0  0  0  0  0
    6.3940    6.6100  -12.8370 C   0  0  0  0  0  0  0  0  0  0  0  0
   13.9580    7.8460   -0.7570 F   0  0  0  0  0  0  0  0  0  0  0  0
    8.7300    5.3280  -10.9920 C   0  0  0  0  0  0  0  0  0  0  0  0
    8.8090    6.8840  -11.3540 C   0  0  0  0  0  0  0  0  0  0  0  0
    8.5190    7.4000  -13.6430 F   0  0  0  0  0  0  0  0  0  0  0  0
    7.7760    7.3860  -12.4920 C   0  0  0  0  0  0  0  0  0  0  0  0
   12.4040    6.0670   -2.6890 F   0  0  0  0  0  0  0  0  0  0  0  0
   11.1880    7.8190   -8.4090 C   0  0  0  0  0  0  0  0  0  0  0  0
   11.6560    8.8300   -4.9030 C   0  0  0  0  0  0  0  0  0  0  0  0
   11.9770    8.6200   -9.4820 C   0  0  0  0  0  0  0  0  0  0  0  0
   11.8990    7.5120   -4.3370 C   0  0  0  0  0  0  0  0  0  0  0  0
   11.5410    9.0280   -6.3040 C   0  0  0  0  0  0  0  0  0  0  0  0
   12.8370    8.0350   -0.8410 O   0  0  0  0  0  0  0  0  0  0  0  0
    6.8980    3.3370  -13.0790 C   0  0  0  0  0  0  0  0  0  0  0  0
    6.3900    5.2610  -12.1800 C   0  0  0  0  0  0  0  0  0  0  0  0
    9.2970    7.7270  -10.0220 C   0  0  0  0  0  0  0  0  0  0  0  0
   11.2890    7.9040   -7.1210 C   0  0  0  0  0  0  0  0  0  0  0  0
    6.5770    2.3060  -13.9660 C   0  0  0  0  0  0  0  0  0  0  0  0
    8.0140    5.1240   -9.6290 C   0  0  0  0  0  0  0  0  0  0  0  0
    7.6890    4.8650  -11.9060 N   0  0  0  0  0  0  0  0  0  0  0  0
    5.5150    7.1400  -13.5910 C   0  0  0  0  0  0  0  0  0  0  0  0
   12.2210    7.2520   -3.0540 C   0  0  0  0  0  0  0  0  0  0  0  0
   10.1960    5.3650   -8.6140 C   0  0  0  0  0  0  0  0  0  0  0  0
    7.5600    8.7240  -12.2900 F   0  0  0  0  0  0  0  0  0  0  0  0
   11.5710    6.3100   -5.2380 C   0  0  0  0  0  0  0  0  0  0  0  0
   11.5600   10.5460   -3.0540 N   0  0  0  0  0  0  0  0  0  0  0  0
  1 22  1  0
  2 29  1  0
  3 34  1  0
  4 35  1  0
  5 21  1  0
  6  1  1  0
  7 24  1  0
  8 32  1  0
  8 17  1  0
 10 15  1  0
 12 28  1  0
 13 12  1  0
 13 25  1  0
 14 15  1  0
 15 33  1  0
 15 13  1  0
 17 19  1  0
 17 26  1  0
 18 20  1  0
 18  4  1  0
 20 31  1  0
 21 18  2  0
 22 11  1  0
 23  2  2  0
 23  7  1  0
 24 10  1  0
 24 29  1  0
 25  8  1  0
 26  3  2  0
 26 21  1  0
 27 23  1  0
 28  9  1  0
 29 12  1  0
 30 10  2  0
 31 16  1  0
 31  1  2  0
 32  9  1  0
 34 20  2  0
 35  6  1  0
M  END
$$$$

     RDKit          3D

 23 27  0  0  0  0  0  0  0  0999 V2000
   10.8420    6.2250   -5.2230 C   0  0  0  0  0  0  0  0  0  0  0  0
    7.1010    5.0420  -14.6880 C   0  0  0  0  0  0  0  0  0  0  0  0
    7.1840    6.3120  -12.4860 C   0  0  0  0  0  0  0  0  0  0  0  0
    9.7310    7.1720  -10.8010 C   0  0  0  0  0  0  0  0  0  0  0  0
    8.7190    5.9830  -12.6700 C   0  0  0  0  0  0  0  0  0  0  0  0
   10.3050    7.7670   -8.4660 N   0  0  0  0  0  0  0  0  0  0  0  0
    6.6710    7.2990  -13.5330 C   0  0  0  0  0  0  0  0  0  0  0  0
   12.0160    7.5270   -3.5300 C   0  0  0  0  0  0  0  0  0  0  0  0
    7.8700    5.0880  -13.3360 C   0  0  0  0  0  0  0  0  0  0  0  0
    9.2390    6.0910  -11.2890 C   0  0  0  0  0  0  0  0  0  0  0  0
   12.5970    7.1710   -2.0680 C   0  0  0  0  0  0  0  0  0  0  0  0
   10.0220    7.0830   -7.3610 C   0  0  0  0  0  0  0  0  0  0  0  0
   11.3160    8.5410   -5.7140 C   0  0  0  0  0  0  0  0  0  0  0  0
    8.8100    5.1500  -10.2400 C   0  0  0  0  0  0  0  0  0  0  0  0
   11.4460    6.3970   -4.0180 C   0  0  0  0  0  0  0  0  0  0  0  0
    5.9810    6.2360  -14.5800 C   0  0  0  0  0  0  0  0  0  0  0  0
    9.1420    6.0100   -7.5380 C   0  0  0  0  0  0  0  0  0  0  0  0
   11.9800    8.6550   -4.3910 C   0  0  0  0  0  0  0  0  0  0  0  0
    9.1830    5.8750   -9.0410 C   0  0  0  0  0  0  0  0  0  0  0  0
   13.0740    8.1990   -1.2900 C   0  0  0  0  0  0  0  0  0  0  0  0
   12.4390    9.4390   -1.2880 O   0  0  0  0  0  0  0  0  0  0  0  0
    9.8130    7.1020   -9.4600 C   0  0  0  0  0  0  0  0  0  0  0  0
   10.7100    7.3250   -6.0490 C   0  0  0  0  0  0  0  0  0  0  0  0
  1 15  1  0
  2 16  1  0
  3  7  1  0
  5  3  1  0
  5 10  1  0
  6 12  1  0
  8 11  1  0
  9  2  1  0
  9  5  1  0
  9  3  1  0
 10  4  2  0
 10 14  1  0
 11 20  1  0
 12 23  1  0
 13 18  2  0
 14 19  2  0
 15  8  2  0
 16  7  1  0
 17 12  1  0
 18  8  1  0
 19 17  1  0
 20 21  1  0
 22  4  1  0
 22 19  1  0
 22  6  1  0
 23 13  1  0
 23  1  2  0
M  END
$$$$

     RDKit          3D

 42 45  0  0  0  0  0  0  0  0999 V2000
    9.0460    8.7450  -10.0940 O   0  0  0  0  0  0  0  0  0  0  0  0
    8.8240    5.0680   -8.3230 C   0  0  0  0  0  0  0  0  0  0  0  0
    4.2340    7.2310  -16.4680 C   0  0  0  0  0  0  0  0  0  0  0  0
    5.8600    1.9220  -13.9380 C   0  0  0  0  0  0  0  0  0  0  0  0
   12.1060   12.0720   -2.9700 O   0  0  0  0  0  0  0  0  0  0  0  0
    6.7660    2.3990  -11.3550 C   0  0  0  0  0  0  0  0  0  0  0  0
   10.4610    7.7540   -7.6440 P   0  0  0  0  0  0  0  0  0  0  0  0
   14.1720    9.2230    0.3990 O   0  0  0  0  0  0  0  0  0  0  0  0
    5.6480    4.2320  -13.0550 C   0  0  0  0  0  0  0  0  0  0  0  0
    9.6660    5.2680  -10.4720 C   0  0  0  0  0  0  0  0  0  0  0  0
   10.2900    7.1130   -9.1450 O   0  0  0  0  0  0  0  0  0  0  0  0
   11.9410    6.7360   -2.5520 C   0  0  0  0  0  0  0  0  0  0  0  0
    9.0710    4.2110  -10.6530 C   0  0  0  0  0  0  0  0  0  0  0  0
    8.0810    6.5390  -11.9640 O   0  0  0  0  0  0  0  0  0  0  0  0
    9.4150    7.6650  -10.0900 C   0  0  0  0  0  0  0  0  0  0  0  0
   12.0340    8.6990   -4.0970 O   0  0  0  0  0  0  0  0  0  0  0  0
   10.4110    8.4650   -6.1330 C   0  0  0  0  0  0  0  0  0  0  0  0
    6.2120    2.8190  -12.8760 C   0  0  0  0  0  0  0  0  0  0  0  0
   12.5230    7.6770   -1.8560 C   0  0  0  0  0  0  0  0  0  0  0  0
    8.6120    6.6770  -10.7700 C   0  0  0  0  0  0  0  0  0  0  0  0
    7.6850    8.4560  -12.9550 O   0  0  0  0  0  0  0  0  0  0  0  0
   13.5250    8.9230   -1.9010 C   0  0  0  0  0  0  0  0  0  0  0  0
   11.7100   10.1570   -3.9900 C   0  0  0  0  0  0  0  0  0  0  0  0
   11.5140    6.3870   -3.7780 C   0  0  0  0  0  0  0  0  0  0  0  0
    5.7830    7.8980  -15.8630 S   0  0  0  0  0  0  0  0  0  0  0  0
   11.9040    7.1300   -7.1810 C   0  0  0  0  0  0  0  0  0  0  0  0
   11.4390    8.1270   -5.0960 C   0  0  0  0  0  0  0  0  0  0  0  0
   13.4040   10.3680   -2.4210 C   0  0  0  0  0  0  0  0  0  0  0  0
   11.6170    6.9850   -5.0050 C   0  0  0  0  0  0  0  0  0  0  0  0
   13.7150    8.6840   -0.5310 C   0  0  0  0  0  0  0  0  0  0  0  0
   11.6730    6.5570   -6.0920 C   0  0  0  0  0  0  0  0  0  0  0  0
   12.4090   10.9910   -3.0230 C   0  0  0  0  0  0  0  0  0  0  0  0
    8.3150    4.4810   -9.7050 O   0  0  0  0  0  0  0  0  0  0  0  0
    5.3820    2.0300  -11.8650 C   0  0  0  0  0  0  0  0  0  0  0  0
    6.4440    6.3810  -15.1650 C   0  0  0  0  0  0  0  0  0  0  0  0
   11.0990    8.8480   -8.4030 O   0  0  0  0  0  0  0  0  0  0  0  0
    6.7130    5.0890  -13.1880 N   0  0  0  0  0  0  0  0  0  0  0  0
    6.4030    6.3830  -13.6480 C   0  0  0  0  0  0  0  0  0  0  0  0
    7.4480    7.2570  -13.0270 C   0  0  0  0  0  0  0  0  0  0  0  0
    9.3110    3.5220  -11.3420 O   0  0  0  0  0  0  0  0  0  0  0  0
   13.3700    6.7620   -0.8460 S   0  0  0  0  0  0  0  0  0  0  0  0
    4.4550    4.3580  -13.5230 O   0  0  0  0  0  0  0  0  0  0  0  0
  1 15  2  0
  3 25  1  0
  4 18  1  0
  7 36  2  0
  7 26  1  0
  7 17  1  0
  9 18  1  0
 11  7  1  0
 13 10  1  0
 13 33  1  0
 14 20  1  0
 15 11  1  0
 16 23  1  0
 18 34  1  0
 18  6  1  0
 19 12  1  0
 19 41  1  0
 20 10  1  0
 20 15  1  0
 22 28  1  0
 22 19  1  0
 22 30  1  0
 23 32  1  0
 24 12  2  0
 25 35  1  0
 26 31  1  0
 27 17  1  0
 27 29  1  0
 27 16  1  0
 29 31  1  0
 29 24  1  0
 30  8  2  0
 32  5  2  0
 32 28  1  0
 33  2  1  0
 34  6  1  0
 37  9  1  0
 38 35  1  0
 38 37  1  0
 38 39  1  0
 39 21  2  0
 39 14  1  0
 40 13  2  0
 41 30  1  0
 42  9  2  0
M  END
$$$$

     RDKit          3D

 36 38  0  0  0  0  0  0  0  0999 V2000
    6.9040    4.4010  -14.9860 O   0  0  0  0  0  0  0  0  0  0  0  0
    6.6140    4.2240  -11.1430 C   0  0  0  0  0  0  0  0  0  0  0  0
   10.6530    8.4440   -4.9450 C   0  0  0  0  0  0  0  0  0  0  0  0
   12.9490    7.3930   -1.5040 C   0  0  0  0  0  0  0  0  0  0  0  0
    8.8920    3.9810  -11.8760 C   0  0  0  0  0  0  0  0  0  0  0  0
    9.5490    6.6480   -9.3770 C   0  0  0  0  0  0  0  0  0  0  0  0
   11.7780    9.1810   -3.3250 C   0  0  0  0  0  0  0  0  0  0  0  0
   12.4990   10.0260   -1.9810 C   0  0  0  0  0  0  0  0  0  0  0  0
   10.0510    7.3510   -8.1880 C   0  0  0  0  0  0  0  0  0  0  0  0
   10.8620    7.4440   -5.1870 C   0  0  0  0  0  0  0  0  0  0  0  0
    8.8400    7.6020  -11.4940 C   0  0  0  0  0  0  0  0  0  0  0  0
    9.7710    6.0930  -13.0360 C   0  0  0  0  0  0  0  0  0  0  0  0
   10.3620    6.9440   -6.1040 C   0  0  0  0  0  0  0  0  0  0  0  0
   11.2570    6.5880   -3.6040 C   0  0  0  0  0  0  0  0  0  0  0  0
    8.3760    8.7800  -12.2480 C   0  0  0  0  0  0  0  0  0  0  0  0
    8.5520    5.5130   -9.1690 C   0  0  0  0  0  0  0  0  0  0  0  0
   12.7080    5.9140   -2.0570 C   0  0  0  0  0  0  0  0  0  0  0  0
   11.3250    7.4690  -11.5200 O   0  0  0  0  0  0  0  0  0  0  0  0
   12.3730    8.7450   -2.2510 C   0  0  0  0  0  0  0  0  0  0  0  0
    8.4570    5.7070  -13.3820 O   0  0  0  0  0  0  0  0  0  0  0  0
   13.6450    7.4570   -0.4540 C   0  0  0  0  0  0  0  0  0  0  0  0
   11.5530    9.5970   -4.1110 C   0  0  0  0  0  0  0  0  0  0  0  0
   12.3990    6.2700   -3.2990 C   0  0  0  0  0  0  0  0  0  0  0  0
   10.7970    6.5560   -7.2380 C   0  0  0  0  0  0  0  0  0  0  0  0
    7.1160    3.3650  -12.9180 C   0  0  0  0  0  0  0  0  0  0  0  0
   14.1570    7.9390    0.2450 C   0  0  0  0  0  0  0  0  0  0  0  0
    6.5830    4.7430  -13.9520 C   0  0  0  0  0  0  0  0  0  0  0  0
    7.7120    4.3890  -12.5510 C   0  0  0  0  0  0  0  0  0  0  0  0
    5.5690    4.8300  -13.2920 C   0  0  0  0  0  0  0  0  0  0  0  0
   13.2430    6.3130   -4.5550 C   0  0  0  0  0  0  0  0  0  0  0  0
    9.0230    7.8640   -7.5020 O   0  0  0  0  0  0  0  0  0  0  0  0
    5.3870    4.6280  -11.6260 C   0  0  0  0  0  0  0  0  0  0  0  0
   10.7140    5.7250  -13.6420 O   0  0  0  0  0  0  0  0  0  0  0  0
    9.0600    7.8810  -10.0730 N   0  0  0  0  0  0  0  0  0  0  0  0
   10.0060    7.0280  -12.0790 C   0  0  0  0  0  0  0  0  0  0  0  0
   13.3600    5.0460   -1.2500 O   0  0  0  0  0  0  0  0  0  0  0  0
  3 22  1  0
  4 21  1  0
  6 16  1  0
  6  9  1  0
  7 22  1  0
  7 19  1  0
  7  8  1  0
  9 31  1  0
  9 24  1  0
 10 13  1  0
 10  3  1  0
 10 14  1  0
 11 15  1  0
 11 34  1  0
 12 35  1  0
 14 23  1  0
 17  4  1  0
 17 36  1  0
 19  8  1  0
 19  4  2  0
 20 12  1  0
 20 28  1  0
 21 26  2  0
 23 30  1  0
 23 17  1  0
 24 13  1  0
 25 28  1  0
 27  1  1  0
 27 29  1  0
 27 25  1  0
 28  5  1  0
 28  2  1  0
 29 32  1  0
 32  2  1  0
 33 12  2  0
 34  6  1  0
 35 18  1  0
 35 11  1  0
M  END
$$$$

     RDKit          3D

 30 32  0  0  0  0  0  0  0  0999 V2000
   10.6250    7.0990   -1.3930 C   0  0  0  0  0  0  0  0  0  0  0  0
   10.6550    7.3390   -7.4160 O   0  0  0  0  0  0  0  0  0  0  0  0
   11.3640    7.3790   -9.9260 O   0  0  0  0  0  0  0  0  0  0  0  0
    7.4740    7.6750  -12.7830 C   0  0  0  0  0  0  0  0  0  0  0  0
    9.5920    6.8590  -11.5460 C   0  0  0  0  0  0  0  0  0  0  0  0
   11.0500    6.5710   -5.2030 C   0  0  0  0  0  0  0  0  0  0  0  0
    9.9980    6.1000   -7.9640 C   0  0  0  0  0  0  0  0  0  0  0  0
    5.7980    5.9960  -13.4290 C   0  0  0  0  0  0  0  0  0  0  0  0
    6.1470    3.7720  -12.7470 F   0  0  0  0  0  0  0  0  0  0  0  0
    6.5500    5.0040  -12.8160 C   0  0  0  0  0  0  0  0  0  0  0  0
   11.8280    8.5510   -3.8300 C   0  0  0  0  0  0  0  0  0  0  0  0
   11.6090    9.3010   -5.0420 O   0  0  0  0  0  0  0  0  0  0  0  0
   11.1860    7.1940   -3.7790 C   0  0  0  0  0  0  0  0  0  0  0  0
   12.4040    6.1430   -5.5620 F   0  0  0  0  0  0  0  0  0  0  0  0
   10.5990    7.1960  -12.3770 O   0  0  0  0  0  0  0  0  0  0  0  0
    9.4210    8.8360   -9.9240 C   0  0  0  0  0  0  0  0  0  0  0  0
    6.1720    7.3360  -13.3900 C   0  0  0  0  0  0  0  0  0  0  0  0
   12.5910    8.4430   -1.4480 C   0  0  0  0  0  0  0  0  0  0  0  0
   12.5250    8.9950   -2.7550 C   0  0  0  0  0  0  0  0  0  0  0  0
    8.2640    6.7060  -12.2500 C   0  0  0  0  0  0  0  0  0  0  0  0
    8.5590    4.2970  -11.9360 F   0  0  0  0  0  0  0  0  0  0  0  0
    9.9190    7.4090  -10.0900 C   0  0  0  0  0  0  0  0  0  0  0  0
    9.5100    6.3810   -0.4150 S   0  0  0  0  0  0  0  0  0  0  0  0
   10.2950    7.4760   -6.0880 C   0  0  0  0  0  0  0  0  0  0  0  0
   10.2740    8.9180   -5.5850 C   0  0  0  0  0  0  0  0  0  0  0  0
    7.8160    5.3090  -12.3070 C   0  0  0  0  0  0  0  0  0  0  0  0
   10.3980    6.6480   -2.8120 N   0  0  0  0  0  0  0  0  0  0  0  0
   12.0060    8.6230   -9.4840 C   0  0  0  0  0  0  0  0  0  0  0  0
   11.6950    7.6110   -0.9840 N   0  0  0  0  0  0  0  0  0  0  0  0
    9.1100    6.5340   -9.0910 C   0  0  0  0  0  0  0  0  0  0  0  0
  1 29  1  0
  1 23  2  0
  3 28  1  0
  4 20  1  0
  5 15  1  0
  5 22  1  0
  6 14  1  0
  6 13  1  0
  7  2  1  0
  8 17  1  0
  8 10  2  0
 10  9  1  0
 10 26  1  0
 11 19  2  0
 12 11  1  0
 13 11  1  0
 13 27  1  0
 17  4  2  0
 18 29  2  0
 19 18  1  0
 20  5  1  0
 22  3  1  0
 22 16  1  0
 22 30  1  0
 24  2  1  0
 24 25  1  0
 24  6  1  0
 25 12  1  0
 26 20  2  0
 26 21  1  0
 27  1  1  0
 30  7  1  0
M  END
$$$$

     RDKit          3D

 29 32  0  0  0  0  0  0  0  0999 V2000
   12.6260    7.4920   -1.9070 C   0  0  0  0  0  0  0  0  0  0  0  0
   12.0860    9.4710   -3.4690 C   0  0  0  0  0  0  0  0  0  0  0  0
   11.6660    6.3610   -3.9110 C   0  0  0  0  0  0  0  0  0  0  0  0
    8.4090    5.0890   -8.3980 C   0  0  0  0  0  0  0  0  0  0  0  0
    6.2180    6.3990  -14.8180 C   0  0  0  0  0  0  0  0  0  0  0  0
    9.4870    7.4230   -7.2310 S   0  0  0  0  0  0  0  0  0  0  0  0
    7.2250    6.9460  -13.9730 C   0  0  0  0  0  0  0  0  0  0  0  0
   10.1550    6.1290   -9.5600 C   0  0  0  0  0  0  0  0  0  0  0  0
   12.4940    8.9170   -2.3190 C   0  0  0  0  0  0  0  0  0  0  0  0
    6.8400    4.8840  -12.6540 C   0  0  0  0  0  0  0  0  0  0  0  0
   11.4820    9.2990   -5.9130 C   0  0  0  0  0  0  0  0  0  0  0  0
    9.3630    4.1620  -10.9420 O   0  0  0  0  0  0  0  0  0  0  0  0
    9.0280    6.5130  -12.0200 S   0  0  0  0  0  0  0  0  0  0  0  0
    5.4820    5.3260  -14.6120 C   0  0  0  0  0  0  0  0  0  0  0  0
    5.8440    4.4920  -13.5360 C   0  0  0  0  0  0  0  0  0  0  0  0
   13.3110    7.5130   -0.7320 O   0  0  0  0  0  0  0  0  0  0  0  0
   13.7530    8.9080   -0.4240 N   0  0  0  0  0  0  0  0  0  0  0  0
   11.8380    6.4260   -2.4480 C   0  0  0  0  0  0  0  0  0  0  0  0
   11.7940    8.6580   -4.7370 C   0  0  0  0  0  0  0  0  0  0  0  0
    7.5270    6.0900  -12.9620 C   0  0  0  0  0  0  0  0  0  0  0  0
    7.9320    5.5510   -9.7050 N   0  0  0  0  0  0  0  0  0  0  0  0
   10.3850    6.1360  -12.3170 O   0  0  0  0  0  0  0  0  0  0  0  0
   13.1050    9.7530   -1.4710 N   0  0  0  0  0  0  0  0  0  0  0  0
    8.8250    7.9890  -12.0630 O   0  0  0  0  0  0  0  0  0  0  0  0
   10.8840    7.4050   -4.5710 C   0  0  0  0  0  0  0  0  0  0  0  0
    5.9900    6.9870  -16.0310 F   0  0  0  0  0  0  0  0  0  0  0  0
    9.6880    5.8560   -8.1900 C   0  0  0  0  0  0  0  0  0  0  0  0
    9.0750    5.4320  -10.5080 C   0  0  0  0  0  0  0  0  0  0  0  0
   10.4460    6.7600   -5.8340 C   0  0  0  0  0  0  0  0  0  0  0  0
  1 16  1  0
  2  9  1  0
  3 18  1  0
  4 27  1  0
  5 14  2  0
  5  7  1  0
  6 29  1  0
  7 20  2  0
  8 27  1  0
  9  1  2  0
  9 23  1  0
 11 19  2  0
 13 28  1  0
 14 15  1  0
 15 10  2  0
 16 17  1  0
 18  1  1  0
 19 25  1  0
 19  2  1  0
 20 10  1  0
 20 13  1  0
 21  4  1  0
 22 13  2  0
 23 17  2  0
 24 13  2  0
 25 29  1  0
 25  3  1  0
 26  5  1  0
 27  6  1  0
 28 12  1  0
 28 21  1  0
 28  8  1  0
M  END
$$$$

     RDKit          3D

 31 35  0  0  0  0  0  0  0  0999 V2000
    5.4800    4.7080  -12.4320 S   0  0  0  0  0  0  0  0  0  0  0  0
   10.8450    6.2410  -12.0820 O   0  0  0  0  0  0  0  0  0  0  0  0
    8.5630    6.9250  -12.3880 C   0  0  0  0  0  0  0  0  0  0  0  0
   13.5020    8.5260   -0.4030 O   0  0  0  0  0  0  0  0  0  0  0  0
   13.3020    6.0060   -1.0240 F   0  0  0  0  0  0  0  0  0  0  0  0
    6.1870    6.1490  -12.7410 C   0  0  0  0  0  0  0  0  0  0  0  0
   11.3680    8.0990   -6.0420 C   0  0  0  0  0  0  0  0  0  0  0  0
   12.2050    8.8940   -3.9950 C   0  0  0  0  0  0  0  0  0  0  0  0
   11.2890    6.4540   -3.9170 C   0  0  0  0  0  0  0  0  0  0  0  0
    7.6980    6.3720  -13.1250 C   0  0  0  0  0  0  0  0  0  0  0  0
    9.6210    5.8700  -11.4770 C   0  0  0  0  0  0  0  0  0  0  0  0
    6.0260    4.1170  -13.6830 C   0  0  0  0  0  0  0  0  0  0  0  0
   11.8410    9.2950   -6.1950 N   0  0  0  0  0  0  0  0  0  0  0  0
    9.4010    7.3310   -9.2880 C   0  0  0  0  0  0  0  0  0  0  0  0
    6.1190    2.8110  -13.6560 O   0  0  0  0  0  0  0  0  0  0  0  0
   10.8980    7.5140   -7.1850 N   0  0  0  0  0  0  0  0  0  0  0  0
   12.6950    6.8800   -1.7000 C   0  0  0  0  0  0  0  0  0  0  0  0
    6.7200    4.9280  -14.6040 C   0  0  0  0  0  0  0  0  0  0  0  0
    9.2890    4.8410   -9.1630 C   0  0  0  0  0  0  0  0  0  0  0  0
   11.5570    7.7080   -4.6500 C   0  0  0  0  0  0  0  0  0  0  0  0
   11.8770    6.3140   -2.6420 C   0  0  0  0  0  0  0  0  0  0  0  0
   12.6220    9.2100   -2.5500 C   0  0  0  0  0  0  0  0  0  0  0  0
    9.7480    6.9730   -7.7850 C   0  0  0  0  0  0  0  0  0  0  0  0
    9.1130    7.8770  -12.2470 O   0  0  0  0  0  0  0  0  0  0  0  0
   10.5260    8.2910   -9.8050 C   0  0  0  0  0  0  0  0  0  0  0  0
   12.9800    8.2530   -1.5130 C   0  0  0  0  0  0  0  0  0  0  0  0
    9.1250    6.1060  -10.0380 C   0  0  0  0  0  0  0  0  0  0  0  0
    8.8580    6.1770   -6.9940 C   0  0  0  0  0  0  0  0  0  0  0  0
    6.7570    6.4160  -14.0680 C   0  0  0  0  0  0  0  0  0  0  0  0
   12.2570    9.7070   -5.0130 N   0  0  0  0  0  0  0  0  0  0  0  0
    8.4240    5.0140   -7.9440 C   0  0  0  0  0  0  0  0  0  0  0  0
  3 24  2  0
  3 11  1  0
  6  1  1  0
  7 20  1  0
  8 22  1  0
  9 21  2  0
 10  6  1  0
 10  3  1  0
 11  2  1  0
 12 15  2  0
 12  1  1  0
 13  7  2  0
 13 30  1  0
 14 25  1  0
 14 23  1  0
 16  7  1  0
 17 26  1  0
 17  5  1  0
 18 12  1  0
 19 31  1  0
 20  8  1  0
 20  9  1  0
 21 17  1  0
 22 26  1  0
 23 16  1  0
 23 28  1  0
 26  4  2  0
 27 11  1  0
 27 14  1  0
 27 19  1  0
 29 18  1  0
 29 10  1  0
 29  6  1  0
 30  8  2  0
 31 28  1  0
M  END
$$$$

     RDKit          3D

 31 36  0  0  0  0  0  0  0  0999 V2000
   10.2540    7.1800   -7.3600 C   0  0  0  0  0  0  0  0  0  0  0  0
    8.8910    5.9650   -8.9140 C   0  0  0  0  0  0  0  0  0  0  0  0
   10.0880    5.7630   -7.9070 C   0  0  0  0  0  0  0  0  0  0  0  0
   11.4280    8.7040   -9.4720 C   0  0  0  0  0  0  0  0  0  0  0  0
    8.9520    6.9780  -11.1910 C   0  0  0  0  0  0  0  0  0  0  0  0
    5.9600    5.6690  -12.9330 C   0  0  0  0  0  0  0  0  0  0  0  0
   12.2850    7.8920   -2.2680 C   0  0  0  0  0  0  0  0  0  0  0  0
    8.4500    6.4170  -12.5180 C   0  0  0  0  0  0  0  0  0  0  0  0
   12.7280    8.6390   -1.0540 C   0  0  0  0  0  0  0  0  0  0  0  0
   11.7830    5.8450   -3.3620 C   0  0  0  0  0  0  0  0  0  0  0  0
    7.6480    7.2980  -13.4460 C   0  0  0  0  0  0  0  0  0  0  0  0
    8.6460    8.5670  -11.1280 C   0  0  0  0  0  0  0  0  0  0  0  0
   11.8910   10.0750   -3.4070 C   0  0  0  0  0  0  0  0  0  0  0  0
    6.4820    5.0350  -14.2000 C   0  0  0  0  0  0  0  0  0  0  0  0
   11.5790    6.5480   -4.5320 C   0  0  0  0  0  0  0  0  0  0  0  0
    7.7850    6.0520  -11.1890 C   0  0  0  0  0  0  0  0  0  0  0  0
    7.5540    2.9500  -13.4420 C   0  0  0  0  0  0  0  0  0  0  0  0
   10.9840    7.2390   -9.8630 C   0  0  0  0  0  0  0  0  0  0  0  0
   11.9890    8.6380   -3.4410 C   0  0  0  0  0  0  0  0  0  0  0  0
    8.8860    5.1420  -13.2000 C   0  0  0  0  0  0  0  0  0  0  0  0
    9.2740    8.3110   -7.4940 C   0  0  0  0  0  0  0  0  0  0  0  0
   12.1790    8.7630   -8.1300 C   0  0  0  0  0  0  0  0  0  0  0  0
   11.6550    7.7950   -7.0440 C   0  0  0  0  0  0  0  0  0  0  0  0
    9.0790    7.3280   -6.4480 C   0  0  0  0  0  0  0  0  0  0  0  0
    7.7900    4.3830  -14.0490 C   0  0  0  0  0  0  0  0  0  0  0  0
    9.5790    6.8360   -9.7980 N   0  0  0  0  0  0  0  0  0  0  0  0
    6.2600    7.1510  -13.0950 C   0  0  0  0  0  0  0  0  0  0  0  0
    6.6750    5.0200  -11.7460 C   0  0  0  0  0  0  0  0  0  0  0  0
   11.5610    8.5250   -5.8130 O   0  0  0  0  0  0  0  0  0  0  0  0
   11.6780    7.9480   -4.5990 C   0  0  0  0  0  0  0  0  0  0  0  0
   12.1790    6.5370   -2.2720 C   0  0  0  0  0  0  0  0  0  0  0  0
  1 23  1  0
  1 24  1  0
  2  3  1  0
  3  1  1  0
  4 22  1  0
  5 16  1  0
  5 12  1  0
  5 26  1  0
  6 14  1  0
  6 28  1  0
  7  9  1  0
  8 11  1  0
  8  5  1  0
  8 16  1  0
 10 31  2  0
 11 27  1  0
 14 25  1  0
 15 10  1  0
 16 28  1  0
 18  4  1  0
 19 13  1  0
 19  7  2  0
 20  8  1  0
 21  1  1  0
 21 24  1  0
 22 23  1  0
 23 29  1  0
 25 17  1  0
 25 20  1  0
 26 18  1  0
 26  2  1  0
 27  6  1  0
 29 30  1  0
 30 15  2  0
 30 19  1  0
 31  7  1  0
M  END
$$$$

     RDKit          3D

 29 33  0  0  0  0  0  0  0  0999 V2000
   12.4620    9.2100   -2.6910 C   0  0  0  0  0  0  0  0  0  0  0  0
   11.6460    9.1490   -5.5890 C   0  0  0  0  0  0  0  0  0  0  0  0
    8.1960    3.5140  -12.7200 C   0  0  0  0  0  0  0  0  0  0  0  0
   12.8400    8.6810   -1.0460 S   0  0  0  0  0  0  0  0  0  0  0  0
   10.3460    7.3710   -7.1120 C   0  0  0  0  0  0  0  0  0  0  0  0
   11.1640    6.8680   -4.7350 C   0  0  0  0  0  0  0  0  0  0  0  0
   10.4500    6.3750   -6.0090 C   0  0  0  0  0  0  0  0  0  0  0  0
    8.4230    5.0010  -13.1840 C   0  0  0  0  0  0  0  0  0  0  0  0
    5.8450    2.9390  -13.2070 C   0  0  0  0  0  0  0  0  0  0  0  0
    7.5090    3.4110  -15.2160 C   0  0  0  0  0  0  0  0  0  0  0  0
    7.4070    5.8330  -12.5800 N   0  0  0  0  0  0  0  0  0  0  0  0
    6.2290    5.1860  -11.9000 C   0  0  0  0  0  0  0  0  0  0  0  0
    8.5500    8.6630  -11.2690 C   0  0  0  0  0  0  0  0  0  0  0  0
   10.9820    8.8690   -9.3080 C   0  0  0  0  0  0  0  0  0  0  0  0
   11.6070    8.1570   -4.4930 C   0  0  0  0  0  0  0  0  0  0  0  0
    7.3840    7.0950  -12.9350 C   0  0  0  0  0  0  0  0  0  0  0  0
   12.5770    7.0510   -1.6870 C   0  0  0  0  0  0  0  0  0  0  0  0
   12.0930    6.0630   -3.5100 C   0  0  0  0  0  0  0  0  0  0  0  0
    9.6470    7.1530   -8.3270 C   0  0  0  0  0  0  0  0  0  0  0  0
    5.3560    4.3890  -12.8730 C   0  0  0  0  0  0  0  0  0  0  0  0
   12.2310    6.9310   -2.7190 N   0  0  0  0  0  0  0  0  0  0  0  0
   12.7600    5.7570   -1.2590 C   0  0  0  0  0  0  0  0  0  0  0  0
    7.2990    2.7760  -13.7320 C   0  0  0  0  0  0  0  0  0  0  0  0
   11.3830    9.2950   -8.1570 C   0  0  0  0  0  0  0  0  0  0  0  0
   11.0730    8.6260   -6.9240 C   0  0  0  0  0  0  0  0  0  0  0  0
    9.0670    7.8060  -10.5660 C   0  0  0  0  0  0  0  0  0  0  0  0
    7.5420    8.3380  -12.3480 C   0  0  0  0  0  0  0  0  0  0  0  0
    9.9340    7.9300   -9.4400 C   0  0  0  0  0  0  0  0  0  0  0  0
   12.0910    8.0330   -3.3030 C   0  0  0  0  0  0  0  0  0  0  0  0
  1  4  1  0
  2 15  1  0
  5 25  1  0
  5  7  2  0
  6 15  2  0
  6 18  1  0
  7  6  1  0
  8  3  1  0
  8 11  1  0
  9 20  1  0
 11 12  1  0
 13 26  2  3
 14 24  2  0
 15 29  1  0
 16 11  1  0
 16 27  1  0
 17 22  2  0
 17  4  1  0
 18 21  1  0
 19  5  1  0
 20 12  1  0
 21 17  1  0
 23 10  1  0
 23  9  1  0
 23  3  1  0
 24 25  1  0
 25  2  2  0
 26 28  1  0
 27 13  1  0
 28 14  1  0
 28 19  2  0
 29 21  1  0
 29  1  2  0
M  END
$$$$

     RDKit          3D

 48 51  0  0  0  0  0  0  0  0999 V2000
    6.0350    8.0470  -14.1120 C   0  0  0  0  0  0  0  0  0  0  0  0
    5.4120    8.0100  -15.3110 C   0  0  0  0  0  0  0  0  0  0  0  0
    9.2590    8.8720  -10.8680 O   0  0  0  0  0  0  0  0  0  0  0  0
   12.3070    7.8130   -3.3450 C   0  0  0  0  0  0  0  0  0  0  0  0
   10.9930    7.5010  -11.3640 O   0  0  0  0  0  0  0  0  0  0  0  0
   12.2950    9.9460   -2.7010 F   0  0  0  0  0  0  0  0  0  0  0  0
    4.6110    5.9760   -4.5980 C   0  0  0  0  0  0  0  0  0  0  0  0
    6.4710    5.6900  -14.3400 C   0  0  0  0  0  0  0  0  0  0  0  0
    9.3660    5.8710   -9.8510 C   0  0  0  0  0  0  0  0  0  0  0  0
   12.6530    8.1420   -1.1260 F   0  0  0  0  0  0  0  0  0  0  0  0
   11.7260    9.4730   -6.0410 C   0  0  0  0  0  0  0  0  0  0  0  0
   11.6890    9.6150   -7.3260 C   0  0  0  0  0  0  0  0  0  0  0  0
    6.6150    6.7860  -13.5890 C   0  0  0  0  0  0  0  0  0  0  0  0
   10.3310    6.0250   -5.1240 O   0  0  0  0  0  0  0  0  0  0  0  0
    7.6840    6.7150   -2.4250 C   0  0  0  0  0  0  0  0  0  0  0  0
   12.0500    7.9640   -5.6480 C   0  0  0  0  0  0  0  0  0  0  0  0
    9.7010    7.7720  -11.4920 C   0  0  0  0  0  0  0  0  0  0  0  0
   11.2430    7.4490   -7.0420 C   0  0  0  0  0  0  0  0  0  0  0  0
    5.2590    6.8960  -15.9730 C   0  0  0  0  0  0  0  0  0  0  0  0
    6.3110    7.2100   -5.4620 C   0  0  0  0  0  0  0  0  0  0  0  0
   10.8680   10.6140   -4.9920 C   0  0  0  0  0  0  0  0  0  0  0  0
    7.1060    6.9140  -12.3440 C   0  0  0  0  0  0  0  0  0  0  0  0
    9.0850    4.7600  -13.0080 O   0  0  0  0  0  0  0  0  0  0  0  0
   11.4240    8.1660   -7.8620 C   0  0  0  0  0  0  0  0  0  0  0  0
   13.2620    6.4480   -2.2230 F   0  0  0  0  0  0  0  0  0  0  0  0
    9.3860    8.4410   -0.2220 S   0  0  0  0  0  0  0  0  0  0  0  0
    6.9500    5.8940   -3.5400 C   0  0  0  0  0  0  0  0  0  0  0  0
   12.3120    7.0890   -2.0480 C   0  0  0  0  0  0  0  0  0  0  0  0
    7.9090    6.0740   -1.0710 N   0  0  0  0  0  0  0  0  0  0  0  0
    5.2540    7.5870   -3.3280 F   0  0  0  0  0  0  0  0  0  0  0  0
   10.3580    5.8740   -1.4780 N   0  0  0  0  0  0  0  0  0  0  0  0
    8.8910    5.4370  -12.3960 C   0  0  0  0  0  0  0  0  0  0  0  0
    4.3610    6.8820  -17.4830 Cl  0  0  0  0  0  0  0  0  0  0  0  0
    5.8530    6.6960   -4.1690 C   0  0  0  0  0  0  0  0  0  0  0  0
   11.3000    9.0370   -3.2600 C   0  0  0  0  0  0  0  0  0  0  0  0
   12.3170    7.2420   -4.4740 O   0  0  0  0  0  0  0  0  0  0  0  0
    9.4470    4.2090   -9.5810 C   0  0  0  0  0  0  0  0  0  0  0  0
    4.7310    7.3190   -5.4650 C   0  0  0  0  0  0  0  0  0  0  0  0
    5.8200    5.6330  -15.6000 C   0  0  0  0  0  0  0  0  0  0  0  0
   10.8100    6.1720   -6.5680 C   0  0  0  0  0  0  0  0  0  0  0  0
    8.4820    6.7530  -11.8890 C   0  0  0  0  0  0  0  0  0  0  0  0
    9.5770    6.2660   -8.3470 C   0  0  0  0  0  0  0  0  0  0  0  0
   10.2180    5.5950   -7.4620 O   0  0  0  0  0  0  0  0  0  0  0  0
   11.3730    6.5400   -1.4270 C   0  0  0  0  0  0  0  0  0  0  0  0
    8.3520    6.5330  -10.2880 N   0  0  0  0  0  0  0  0  0  0  0  0
   10.1890    9.7260   -4.0280 C   0  0  0  0  0  0  0  0  0  0  0  0
   13.5260    8.5050   -3.4430 F   0  0  0  0  0  0  0  0  0  0  0  0
    9.3430    6.9350   -0.8590 C   0  0  0  0  0  0  0  0  0  0  0  0
  1 13  1  0
  2  1  2  0
  4 47  1  0
  4 35  1  0
  4 28  1  0
  7 34  1  0
  8 13  2  0
  9 37  1  0
  9 42  1  0
 11 12  1  0
 11 16  1  0
 11 21  1  0
 13 22  1  0
 15 29  1  0
 16 36  1  0
 17  5  2  0
 17  3  1  0
 18 40  1  0
 18 16  1  0
 19 39  2  0
 19  2  1  0
 20 34  1  0
 21 46  1  0
 22 41  1  0
 23 32  1  0
 24 12  1  0
 24 18  1  0
 25 28  1  0
 27 15  1  0
 28 44  1  0
 28 10  1  0
 29 48  1  0
 31 44  1  0
 31 48  1  0
 33 19  1  0
 34 27  1  0
 34 30  1  0
 35  6  1  0
 36  4  1  0
 38 20  1  0
 38  7  1  0
 39  8  1  0
 40 14  2  0
 41 32  1  0
 41 17  1  0
 41 45  1  0
 42 43  1  0
 43 40  1  0
 45  9  1  0
 46 35  1  0
 48 26  2  0
M  END
$$$$

     RDKit          3D

 32 34  0  0  0  0  0  0  0  0999 V2000
   11.6520   10.7430   -3.4450 F   0  0  0  0  0  0  0  0  0  0  0  0
   11.0630    7.3430   -9.2970 C   0  0  0  0  0  0  0  0  0  0  0  0
    6.2160    4.4180  -13.6270 C   0  0  0  0  0  0  0  0  0  0  0  0
   11.9120    6.8590   -3.4210 C   0  0  0  0  0  0  0  0  0  0  0  0
   11.2350    7.1150  -13.2310 S   0  0  0  0  0  0  0  0  0  0  0  0
    6.6850    7.2130  -13.9670 F   0  0  0  0  0  0  0  0  0  0  0  0
   11.9500    9.5720   -3.3580 C   0  0  0  0  0  0  0  0  0  0  0  0
    9.0550    4.7090  -10.0270 C   0  0  0  0  0  0  0  0  0  0  0  0
   11.3180    8.6610   -5.8190 C   0  0  0  0  0  0  0  0  0  0  0  0
    4.6410    5.6140  -12.3390 C   0  0  0  0  0  0  0  0  0  0  0  0
    9.6690    7.4730   -8.5930 S   0  0  0  0  0  0  0  0  0  0  0  0
    8.0930    5.7710  -10.8340 C   0  0  0  0  0  0  0  0  0  0  0  0
   10.8030    7.3150  -11.5200 C   0  0  0  0  0  0  0  0  0  0  0  0
   11.5380    7.4830  -10.6070 N   0  0  0  0  0  0  0  0  0  0  0  0
    8.5750    8.6360  -11.6820 C   0  0  0  0  0  0  0  0  0  0  0  0
   12.3690    9.4810   -2.1730 C   0  0  0  0  0  0  0  0  0  0  0  0
    8.5940    6.8160  -12.7870 C   0  0  0  0  0  0  0  0  0  0  0  0
    9.4560    7.1800   -6.9460 C   0  0  0  0  0  0  0  0  0  0  0  0
   12.4270    6.8470   -2.2350 C   0  0  0  0  0  0  0  0  0  0  0  0
   12.5650    9.0090   -7.6380 C   0  0  0  0  0  0  0  0  0  0  0  0
   11.7000    8.5340   -4.2980 C   0  0  0  0  0  0  0  0  0  0  0  0
    7.1490    6.7300  -13.0060 C   0  0  0  0  0  0  0  0  0  0  0  0
    8.8900    6.8480  -11.5350 C   0  0  0  0  0  0  0  0  0  0  0  0
   12.8010    8.2830   -1.7700 C   0  0  0  0  0  0  0  0  0  0  0  0
   11.5330    6.3180   -4.5740 O   0  0  0  0  0  0  0  0  0  0  0  0
   13.0030    5.8750   -1.5390 F   0  0  0  0  0  0  0  0  0  0  0  0
   11.1970    7.5890   -6.4400 C   0  0  0  0  0  0  0  0  0  0  0  0
    6.1690    5.4980  -12.5790 C   0  0  0  0  0  0  0  0  0  0  0  0
   11.4110    8.1410   -8.8510 C   0  0  0  0  0  0  0  0  0  0  0  0
   12.0770    9.5110   -6.5660 C   0  0  0  0  0  0  0  0  0  0  0  0
    9.3510    5.7190  -13.0310 O   0  0  0  0  0  0  0  0  0  0  0  0
    6.7090    5.0600  -11.0370 C   0  0  0  0  0  0  0  0  0  0  0  0
  1  7  1  0
  2 14  1  0
  2 29  1  0
  2 11  1  0
  3 28  1  0
  4 19  1  0
  5 13  2  0
  7 16  2  0
  9 21  1  0
 11 18  1  0
 12  8  1  0
 13 14  1  0
 16 24  1  0
 17 31  1  0
 17 23  1  0
 18 27  1  0
 19 24  2  0
 19 26  1  0
 20 30  1  0
 21  4  2  0
 21  7  1  0
 22  6  1  0
 22 17  1  0
 22 28  1  0
 23 15  1  0
 23 13  1  0
 23 12  1  0
 25  4  1  0
 27  9  1  0
 28 10  1  0
 28 32  1  0
 29 20  1  0
 30  9  1  0
 32 12  1  0
M  END
$$$$

     RDKit          3D

 12 12  0  0  0  0  0  0  0  0999 V2000
    7.3630    7.6740  -12.7180 C   0  0  0  0  0  0  0  0  0  0  0  0
   10.4020    7.7460  -11.4480 C   0  0  0  0  0  0  0  0  0  0  0  0
    6.3680    7.2180  -13.8650 C   0  0  0  0  0  0  0  0  0  0  0  0
   10.1110    6.3080   -7.4920 C   0  0  0  0  0  0  0  0  0  0  0  0
   10.0330    4.9370   -7.9600 C   0  0  0  0  0  0  0  0  0  0  0  0
    7.6060    6.5530  -11.7050 C   0  0  0  0  0  0  0  0  0  0  0  0
    9.9580    6.7450  -10.4390 C   0  0  0  0  0  0  0  0  0  0  0  0
    6.5770    5.4320  -11.9520 C   0  0  0  0  0  0  0  0  0  0  0  0
    8.6880    4.7610   -9.9860 C   0  0  0  0  0  0  0  0  0  0  0  0
    8.4920    6.3360  -10.4720 C   0  0  0  0  0  0  0  0  0  0  0  0
   10.3450    7.0140   -9.0650 C   0  0  0  0  0  0  0  0  0  0  0  0
    8.6430    4.3930   -8.5810 C   0  0  0  0  0  0  0  0  0  0  0  0
  1  6  1  0
  3  1  1  0
  5  4  1  0
  6  8  1  0
  7  2  1  0
  7 11  1  0
  9 12  1  0
 10  6  1  0
 10  7  1  0
 10  9  1  0
 11  4  1  0
 12  5  1  0
M  END
$$$$

     RDKit          3D

 25 26  0  0  0  0  0  0  0  0999 V2000
   11.5090    6.3720   -3.9110 C   0  0  0  0  0  0  0  0  0  0  0  0
   13.5800    8.4280   -2.7080 C   0  0  0  0  0  0  0  0  0  0  0  0
   11.7270    7.9170   -1.0910 C   0  0  0  0  0  0  0  0  0  0  0  0
   13.5700    7.4960    0.4360 N   0  0  0  0  0  0  0  0  0  0  0  0
   14.5620    7.7940    1.5060 C   0  0  0  0  0  0  0  0  0  0  0  0
   12.0480    8.8810   -4.6150 S   0  0  0  0  0  0  0  0  0  0  0  0
   11.1530    9.0000   -1.5780 F   0  0  0  0  0  0  0  0  0  0  0  0
    9.8260    6.8780  -11.6290 C   0  0  0  0  0  0  0  0  0  0  0  0
   12.3740    7.4690   -3.5730 C   0  0  0  0  0  0  0  0  0  0  0  0
   10.7970    7.7740   -9.9360 C   0  0  0  0  0  0  0  0  0  0  0  0
   13.1110    5.9330   -1.6650 C   0  0  0  0  0  0  0  0  0  0  0  0
    8.9890    7.9330  -11.7760 C   0  0  0  0  0  0  0  0  0  0  0  0
   10.4070    6.5630   -6.3420 C   0  0  0  0  0  0  0  0  0  0  0  0
    6.6070    7.4340  -12.7320 C   0  0  0  0  0  0  0  0  0  0  0  0
   11.5290    7.8600   -8.8990 C   0  0  0  0  0  0  0  0  0  0  0  0
   11.7480    7.9250   -6.1380 C   0  0  0  0  0  0  0  0  0  0  0  0
   12.2630    7.7360  -10.9110 O   0  0  0  0  0  0  0  0  0  0  0  0
   10.8980    6.6490   -5.7700 C   0  0  0  0  0  0  0  0  0  0  0  0
   13.6800    6.2600   -0.1030 C   0  0  0  0  0  0  0  0  0  0  0  0
   12.6700    7.0850   -2.0550 C   0  0  0  0  0  0  0  0  0  0  0  0
   11.8300    8.0360   -7.3300 C   0  0  0  0  0  0  0  0  0  0  0  0
   13.6850    5.3830    0.7490 O   0  0  0  0  0  0  0  0  0  0  0  0
   12.6760    8.4320    0.0230 C   0  0  0  0  0  0  0  0  0  0  0  0
    7.9350    7.2010  -12.6130 C   0  0  0  0  0  0  0  0  0  0  0  0
   10.0270    6.5300  -10.0640 C   0  0  0  0  0  0  0  0  0  0  0  0
  3  7  1  0
  3 23  1  0
  4  5  1  0
  6  9  1  0
  8 25  1  0
  9  1  1  0
  9  2  1  0
  9 20  1  0
 10 17  1  0
 10 15  1  0
 11 19  1  0
 12  8  1  0
 13 18  1  0
 14 24  2  0
 15 21  3  0
 16 21  1  0
 16 18  1  0
 16  6  1  0
 19  4  1  0
 19 22  2  0
 20  2  1  0
 20 11  1  0
 20  3  1  0
 23  4  1  0
 24 12  1  0
 25 10  1  0
M  END
$$$$
