Pocket2Mol_40_num_sample_50
     RDKit          3D

  0  0  0  0  0  0  0  0  0  0999 V3000
M  V30 BEGIN CTAB
M  V30 COUNTS 15 16 0 0 1
M  V30 BEGIN ATOM
M  V30 1 C 12.505505 8.569302 -1.891431 0
M  V30 2 O 12.234847 9.519366 -2.959222 0
M  V30 3 C 11.850701 8.781796 -4.034934 0
M  V30 4 C 11.834839 7.416904 -3.891660 0
M  V30 5 C 11.430738 6.577826 -4.941555 0
M  V30 6 C 11.466715 9.379278 -5.250107 0
M  V30 7 C 11.054498 8.559088 -6.325399 0
M  V30 8 S 12.286100 6.793949 -2.366028 0
M  V30 9 C 11.034838 7.152133 -6.169502 0
M  V30 10 H 13.526946 8.714972 -1.543693 0
M  V30 11 H 11.848150 8.794309 -1.051730 0
M  V30 12 H 11.414324 5.509010 -4.809166 0
M  V30 13 H 11.480342 10.453789 -5.357526 0
M  V30 14 H 10.752261 9.003245 -7.262547 0
M  V30 15 H 10.717743 6.520788 -6.986454 0
M  V30 END ATOM
M  V30 BEGIN BOND
M  V30 1 1 2 1
M  V30 2 1 3 2
M  V30 3 1 4 3
M  V30 4 2 5 4
M  V30 5 2 6 3
M  V30 6 1 7 6
M  V30 7 1 8 1
M  V30 8 1 8 4
M  V30 9 1 9 5
M  V30 10 2 9 7
M  V30 11 1 10 1
M  V30 12 1 11 1
M  V30 13 1 12 5
M  V30 14 1 13 6
M  V30 15 1 14 7
M  V30 16 1 15 9
M  V30 END BOND
M  V30 END CTAB
M  END
>  <i_epik_Tot_Q>  (1) 
0

>  <i_epik_Tot_abs_Q>  (1) 
0

>  <i_i_glide_confnum>  (1) 
1

>  <i_i_glide_lignum>  (1) 
45

>  <i_i_glide_posenum>  (1) 
76

>  <i_i_glide_rotatable_bonds>  (1) 
0

>  <i_lp_mmshare_version>  (1) 
72125

>  <i_m_source_file_index>  (1) 
41

>  <i_f3d_flags>  (1) 
0

>  <num_sample>  (1) 
50

>  <b_lp_Chiralities_Consistent>  (1) 
1

>  <r_epik_Charging_Adjusted_Penalty>  (1) 
0

>  <r_epik_Ionization_Penalty>  (1) 
0

>  <r_epik_Ionization_Penalty_Charging>  (1) 
0

>  <r_epik_Ionization_Penalty_Neutral>  (1) 
0

>  <r_epik_State_Penalty>  (1) 
-0

>  <r_glide_ring_energy>  (1) 
0

>  <r_i_docking_score>  (1) 
-6.2247530813576892

>  <r_i_glide_ecoul>  (1) 
-0.69681312511909144

>  <r_i_glide_eff_state_penalty>  (1) 
-0

>  <r_i_glide_einternal>  (1) 
0

>  <r_i_glide_emodel>  (1) 
-30.350322958559996

>  <r_i_glide_emodel_strain>  (1) 
0

>  <r_i_glide_energy>  (1) 
-22.171875978236606

>  <r_i_glide_erotb>  (1) 
0

>  <r_i_glide_esite>  (1) 
0

>  <r_i_glide_evdw>  (1) 
-21.475062853117514

>  <r_i_glide_gscore>  (1) 
-6.2247530813576892

>  <r_i_glide_gscore_strain>  (1) 
0

>  <r_i_glide_hbond>  (1) 
0

>  <r_i_glide_ligand_efficiency>  (1) 
-0.69163923126196547

>  <r_i_glide_ligand_efficiency_ln>  (1) 
-1.9469239431857073

>  <r_i_glide_ligand_efficiency_sa>  (1) 
-1.4386675763360695

>  <r_i_glide_lipo>  (1) 
-2.254811303267283

>  <r_i_glide_metal>  (1) 
-0

>  <r_i_glide_rewards>  (1) 
-2.7916666666666665

>  <r_lp_Energy>  (1) 
5.8399909999999995

>  <r_lp_tautomer_probability>  (1) 
1

>  <s_epik_Chemistry_Notes>  (1) 
This compound contains an acetal/aminal-like group ( X-CH(R)-Y where X, Y are N, S, or O) that may be acid/base labile, releasing an aldehyde.

>  <s_epik_cmdline>  (1) 
J2VwaWtfcHl0aG9uJywgJy1waHQnLCAnMS4wJywgJy1waCcsICc3LjQnLCAnLXRuJywgJzgnLCAnLW1hJywgJzUwMCcsICctaW1hZScsICc8aW5maWxlLm1hZT4nLCAnLW9tYWUnLCAnPG91dGZpbGUubWFlPic=

>  <s_epik_input>  (1) 
TzFbQ0gyXVNjKGMxMilbY0hdW2NIXVtjSF1bY0hdMg==

>  <s_glide_docking_method>  (1) 
confgen

>  <s_i_glide_gridfile>  (1) 
gpcr_drd2_6luq_protein_autoprepared_prepared

>  <s_lp_Force_Field>  (1) 
S-OPLS

>  <s_lp_Variant>  (1) 
Pocket2Mol_40_num_sample_50-1

>  <s_m_source_file>  (1) 
generated__ligand_Pocket2Mol_2026-05-06_prepared.sdf

>  <GenAI_Model>  (1) 
Pocket2Mol

>  <Protein>  (1) 
generic_title2

$$$$
Pocket2Mol_36_num_sample_50
     RDKit          3D

  0  0  0  0  0  0  0  0  0  0999 V3000
M  V30 BEGIN CTAB
M  V30 COUNTS 17 18 0 0 1
M  V30 BEGIN ATOM
M  V30 1 C 12.234871 6.758940 -2.319611 0
M  V30 2 O 11.611887 6.169302 -3.377994 0
M  V30 3 C 11.496315 7.147592 -4.317241 0
M  V30 4 C 12.010153 8.316347 -3.891672 0
M  V30 5 C 12.030882 9.564061 -4.691564 0
M  V30 6 C 10.862450 6.800570 -5.598319 0
M  V30 7 C 12.496457 8.072243 -2.581601 0
M  V30 8 C 10.921995 8.066975 -6.483048 0
M  V30 9 C 11.434830 9.274194 -6.086506 0
M  V30 10 H 12.414604 6.111451 -1.476711 0
M  V30 11 H 13.057814 9.913043 -4.791370 0
M  V30 12 H 11.434762 10.330894 -4.197289 0
M  V30 13 H 9.827131 6.493969 -5.451486 0
M  V30 14 H 11.395790 5.983009 -6.083784 0
M  V30 15 H 12.981420 8.770093 -1.913743 0
M  V30 16 H 10.525272 7.966815 -7.483236 0
M  V30 17 H 11.434850 10.099603 -6.780927 0
M  V30 END ATOM
M  V30 BEGIN BOND
M  V30 1 1 2 1
M  V30 2 1 3 2
M  V30 3 2 4 3
M  V30 4 1 5 4
M  V30 5 1 6 3
M  V30 6 2 7 1
M  V30 7 1 7 4
M  V30 8 1 8 6
M  V30 9 1 9 5
M  V30 10 2 9 8
M  V30 11 1 10 1
M  V30 12 1 11 5
M  V30 13 1 12 5
M  V30 14 1 13 6
M  V30 15 1 14 6
M  V30 16 1 15 7
M  V30 17 1 16 8
M  V30 18 1 17 9
M  V30 END BOND
M  V30 END CTAB
M  END
>  <i_epik_Tot_Q>  (1) 
0

>  <i_epik_Tot_abs_Q>  (1) 
0

>  <i_i_glide_confnum>  (1) 
1

>  <i_i_glide_lignum>  (1) 
41

>  <i_i_glide_posenum>  (1) 
114

>  <i_i_glide_rotatable_bonds>  (1) 
0

>  <i_lp_mmshare_version>  (1) 
72125

>  <i_m_source_file_index>  (1) 
37

>  <i_f3d_flags>  (1) 
0

>  <num_sample>  (1) 
50

>  <b_lp_Chiralities_Consistent>  (1) 
1

>  <r_epik_Charging_Adjusted_Penalty>  (1) 
0

>  <r_epik_Ionization_Penalty>  (1) 
0

>  <r_epik_Ionization_Penalty_Charging>  (1) 
0

>  <r_epik_Ionization_Penalty_Neutral>  (1) 
0

>  <r_epik_State_Penalty>  (1) 
-0

>  <r_glide_ring_energy>  (1) 
0

>  <r_i_docking_score>  (1) 
-6.1652955048077036

>  <r_i_glide_ecoul>  (1) 
-0.47732315448930707

>  <r_i_glide_eff_state_penalty>  (1) 
-0

>  <r_i_glide_einternal>  (1) 
0

>  <r_i_glide_emodel>  (1) 
-27.774715597022869

>  <r_i_glide_emodel_strain>  (1) 
0

>  <r_i_glide_energy>  (1) 
-19.662024521641357

>  <r_i_glide_erotb>  (1) 
0

>  <r_i_glide_esite>  (1) 
0

>  <r_i_glide_evdw>  (1) 
-19.184701367152048

>  <r_i_glide_gscore>  (1) 
-6.1652955048077036

>  <r_i_glide_gscore_strain>  (1) 
0

>  <r_i_glide_hbond>  (1) 
0

>  <r_i_glide_ligand_efficiency>  (1) 
-0.68503283386752267

>  <r_i_glide_ligand_efficiency_ln>  (1) 
-1.9283273212995078

>  <r_i_glide_ligand_efficiency_sa>  (1) 
-1.4249257159872366

>  <r_i_glide_lipo>  (1) 
-2.3321151981752553

>  <r_i_glide_metal>  (1) 
-0

>  <r_i_glide_rewards>  (1) 
-2.8023467651014502

>  <r_lp_Energy>  (1) 
4.5932930000000001

>  <r_lp_tautomer_probability>  (1) 
1

>  <s_epik_cmdline>  (1) 
J2VwaWtfcHl0aG9uJywgJy1waHQnLCAnMS4wJywgJy1waCcsICc3LjQnLCAnLXRuJywgJzgnLCAnLW1hJywgJzUwMCcsICctaW1hZScsICc8aW5maWxlLm1hZT4nLCAnLW9tYWUnLCAnPG91dGZpbGUubWFlPic=

>  <s_epik_input>  (1) 
bzFbY0hdW2NIXWMoYzEyKVtDSDJdW0NIXT1bQ0hdW0NIMl0y

>  <s_glide_docking_method>  (1) 
confgen

>  <s_i_glide_gridfile>  (1) 
gpcr_drd2_6luq_protein_autoprepared_prepared

>  <s_lp_Force_Field>  (1) 
S-OPLS

>  <s_lp_Variant>  (1) 
Pocket2Mol_36_num_sample_50-1

>  <s_m_source_file>  (1) 
generated__ligand_Pocket2Mol_2026-05-06_prepared.sdf

>  <GenAI_Model>  (1) 
Pocket2Mol

>  <Protein>  (1) 
generic_title2

$$$$
Pocket2Mol_31_num_sample_50
     RDKit          3D

  0  0  0  0  0  0  0  0  0  0999 V3000
M  V30 BEGIN CTAB
M  V30 COUNTS 17 18 0 0 1
M  V30 BEGIN ATOM
M  V30 1 C 12.490262 8.512573 -1.995860 0
M  V30 2 O 12.234831 9.556754 -3.009764 0
M  V30 3 C 11.841969 8.825163 -4.072562 0
M  V30 4 C 11.834839 7.486968 -3.891666 0
M  V30 5 C 11.434788 6.610585 -4.913144 0
M  V30 6 C 12.251734 7.038163 -2.562174 0
M  V30 7 C 11.451791 9.398218 -5.296094 0
M  V30 8 C 11.042567 8.550150 -6.350928 0
M  V30 9 C 11.034164 7.146228 -6.157782 0
M  V30 10 H 13.510912 8.615173 -1.628538 0
M  V30 11 H 11.834867 8.696252 -1.143830 0
M  V30 12 H 11.429881 5.546077 -4.748906 0
M  V30 13 H 11.456191 6.500685 -2.044556 0
M  V30 14 H 13.160036 6.439312 -2.607471 0
M  V30 15 H 11.460829 10.470335 -5.426801 0
M  V30 16 H 10.736216 8.969301 -7.297950 0
M  V30 17 H 10.720882 6.489265 -6.956557 0
M  V30 END ATOM
M  V30 BEGIN BOND
M  V30 1 1 2 1
M  V30 2 1 3 2
M  V30 3 1 4 3
M  V30 4 2 5 4
M  V30 5 1 6 1
M  V30 6 1 6 4
M  V30 7 2 7 3
M  V30 8 1 8 7
M  V30 9 1 9 5
M  V30 10 2 9 8
M  V30 11 1 10 1
M  V30 12 1 11 1
M  V30 13 1 12 5
M  V30 14 1 13 6
M  V30 15 1 14 6
M  V30 16 1 15 7
M  V30 17 1 16 8
M  V30 18 1 17 9
M  V30 END BOND
M  V30 END CTAB
M  END
>  <i_epik_Tot_Q>  (1) 
0

>  <i_epik_Tot_abs_Q>  (1) 
0

>  <i_i_glide_confnum>  (1) 
1

>  <i_i_glide_lignum>  (1) 
35

>  <i_i_glide_posenum>  (1) 
134

>  <i_i_glide_rotatable_bonds>  (1) 
0

>  <i_lp_mmshare_version>  (1) 
72125

>  <i_m_source_file_index>  (1) 
32

>  <i_f3d_flags>  (1) 
0

>  <num_sample>  (1) 
50

>  <b_lp_Chiralities_Consistent>  (1) 
1

>  <r_epik_Charging_Adjusted_Penalty>  (1) 
0

>  <r_epik_Ionization_Penalty>  (1) 
0

>  <r_epik_Ionization_Penalty_Charging>  (1) 
0

>  <r_epik_Ionization_Penalty_Neutral>  (1) 
0

>  <r_epik_State_Penalty>  (1) 
-0

>  <r_glide_ring_energy>  (1) 
0

>  <r_i_docking_score>  (1) 
-6.1634313435061117

>  <r_i_glide_ecoul>  (1) 
-0.8427495299863601

>  <r_i_glide_eff_state_penalty>  (1) 
-0

>  <r_i_glide_einternal>  (1) 
0

>  <r_i_glide_emodel>  (1) 
-28.803856491606837

>  <r_i_glide_emodel_strain>  (1) 
0

>  <r_i_glide_energy>  (1) 
-20.745632636671292

>  <r_i_glide_erotb>  (1) 
0

>  <r_i_glide_esite>  (1) 
0

>  <r_i_glide_evdw>  (1) 
-19.902883106684932

>  <r_i_glide_gscore>  (1) 
-6.1634313435061117

>  <r_i_glide_gscore_strain>  (1) 
0

>  <r_i_glide_hbond>  (1) 
0

>  <r_i_glide_ligand_efficiency>  (1) 
-0.68482570483401239

>  <r_i_glide_ligand_efficiency_ln>  (1) 
-1.9277442651967849

>  <r_i_glide_ligand_efficiency_sa>  (1) 
-1.4244948702353477

>  <r_i_glide_lipo>  (1) 
-2.258541425340578

>  <r_i_glide_metal>  (1) 
-0

>  <r_i_glide_rewards>  (1) 
-2.7833333333333332

>  <r_lp_Energy>  (1) 
11.954839999999999

>  <r_lp_tautomer_probability>  (1) 
1

>  <s_epik_cmdline>  (1) 
J2VwaWtfcHl0aG9uJywgJy1waHQnLCAnMS4wJywgJy1waCcsICc3LjQnLCAnLXRuJywgJzgnLCAnLW1hJywgJzUwMCcsICctaW1hZScsICc8aW5maWxlLm1hZT4nLCAnLW9tYWUnLCAnPG91dGZpbGUubWFlPic=

>  <s_epik_input>  (1) 
TzFbQ0gyXVtDSDJdYyhjMTIpW2NIXVtjSF1bY0hdW2NIXTI=

>  <s_glide_docking_method>  (1) 
confgen

>  <s_i_glide_gridfile>  (1) 
gpcr_drd2_6luq_protein_autoprepared_prepared

>  <s_lp_Force_Field>  (1) 
S-OPLS

>  <s_lp_Variant>  (1) 
Pocket2Mol_31_num_sample_50-1

>  <s_m_source_file>  (1) 
generated__ligand_Pocket2Mol_2026-05-06_prepared.sdf

>  <GenAI_Model>  (1) 
Pocket2Mol

>  <Protein>  (1) 
generic_title2

$$$$
Pocket2Mol_36_num_sample_50
     RDKit          3D

  0  0  0  0  0  0  0  0  0  0999 V3000
M  V30 BEGIN CTAB
M  V30 COUNTS 17 18 0 0 1
M  V30 BEGIN ATOM
M  V30 1 C 12.634861 8.352703 -2.023348 0
M  V30 2 O 12.516967 9.368991 -2.923343 0
M  V30 3 C 12.022868 8.791976 -4.052562 0
M  V30 4 C 11.834839 7.468780 -3.899987 0
M  V30 5 C 11.291950 6.569312 -4.951626 0
M  V30 6 C 11.770209 9.658985 -5.213519 0
M  V30 7 C 12.234548 7.170373 -2.572946 0
M  V30 8 C 11.182786 8.759179 -6.324606 0
M  V30 9 C 10.974096 7.409749 -6.210925 0
M  V30 10 H 13.015552 8.639364 -1.054711 0
M  V30 11 H 10.376095 6.099975 -4.592374 0
M  V30 12 H 12.007068 5.783315 -5.192583 0
M  V30 13 H 12.693502 10.121802 -5.560644 0
M  V30 14 H 11.062178 10.448850 -4.960922 0
M  V30 15 H 12.224934 6.209978 -2.078265 0
M  V30 16 H 10.926413 9.252875 -7.249241 0
M  V30 17 H 10.556260 6.870319 -7.048770 0
M  V30 END ATOM
M  V30 BEGIN BOND
M  V30 1 1 2 1
M  V30 2 1 3 2
M  V30 3 2 4 3
M  V30 4 1 5 4
M  V30 5 1 6 3
M  V30 6 2 7 1
M  V30 7 1 7 4
M  V30 8 1 8 6
M  V30 9 1 9 5
M  V30 10 2 9 8
M  V30 11 1 10 1
M  V30 12 1 11 5
M  V30 13 1 12 5
M  V30 14 1 13 6
M  V30 15 1 14 6
M  V30 16 1 15 7
M  V30 17 1 16 8
M  V30 18 1 17 9
M  V30 END BOND
M  V30 END CTAB
M  END
>  <i_epik_Tot_Q>  (1) 
0

>  <i_epik_Tot_abs_Q>  (1) 
0

>  <i_i_glide_confnum>  (1) 
1

>  <i_i_glide_lignum>  (1) 
41

>  <i_i_glide_posenum>  (1) 
7

>  <i_i_glide_rotatable_bonds>  (1) 
0

>  <i_lp_mmshare_version>  (1) 
72125

>  <i_m_source_file_index>  (1) 
37

>  <i_f3d_flags>  (1) 
0

>  <num_sample>  (1) 
50

>  <b_lp_Chiralities_Consistent>  (1) 
1

>  <r_epik_Charging_Adjusted_Penalty>  (1) 
0

>  <r_epik_Ionization_Penalty>  (1) 
0

>  <r_epik_Ionization_Penalty_Charging>  (1) 
0

>  <r_epik_Ionization_Penalty_Neutral>  (1) 
0

>  <r_epik_State_Penalty>  (1) 
-0

>  <r_glide_ring_energy>  (1) 
0

>  <r_i_docking_score>  (1) 
-6.1425209896011994

>  <r_i_glide_ecoul>  (1) 
-0.80013677630071212

>  <r_i_glide_eff_state_penalty>  (1) 
-0

>  <r_i_glide_einternal>  (1) 
0

>  <r_i_glide_emodel>  (1) 
-30.046883302488805

>  <r_i_glide_emodel_strain>  (1) 
0

>  <r_i_glide_energy>  (1) 
-21.964160394264546

>  <r_i_glide_erotb>  (1) 
0

>  <r_i_glide_esite>  (1) 
0

>  <r_i_glide_evdw>  (1) 
-21.164023617963835

>  <r_i_glide_gscore>  (1) 
-6.1425209896011994

>  <r_i_glide_gscore_strain>  (1) 
0

>  <r_i_glide_hbond>  (1) 
0

>  <r_i_glide_ligand_efficiency>  (1) 
-0.68250233217791101

>  <r_i_glide_ligand_efficiency_ln>  (1) 
-1.9212041071943922

>  <r_i_glide_ligand_efficiency_sa>  (1) 
-1.41966206035847

>  <r_i_glide_lipo>  (1) 
-2.2976326255912336

>  <r_i_glide_metal>  (1) 
-0

>  <r_i_glide_rewards>  (1) 
-2.6666666666666665

>  <r_lp_Energy>  (1) 
4.5932930000000001

>  <r_lp_tautomer_probability>  (1) 
1

>  <s_epik_cmdline>  (1) 
J2VwaWtfcHl0aG9uJywgJy1waHQnLCAnMS4wJywgJy1waCcsICc3LjQnLCAnLXRuJywgJzgnLCAnLW1hJywgJzUwMCcsICctaW1hZScsICc8aW5maWxlLm1hZT4nLCAnLW9tYWUnLCAnPG91dGZpbGUubWFlPic=

>  <s_epik_input>  (1) 
bzFbY0hdW2NIXWMoYzEyKVtDSDJdW0NIXT1bQ0hdW0NIMl0y

>  <s_glide_docking_method>  (1) 
confgen

>  <s_i_glide_gridfile>  (1) 
gpcr_drd2_6luq_protein_autoprepared_prepared

>  <s_lp_Force_Field>  (1) 
S-OPLS

>  <s_lp_Variant>  (1) 
Pocket2Mol_36_num_sample_50-1

>  <s_m_source_file>  (1) 
generated__ligand_Pocket2Mol_2026-05-06_prepared.sdf

>  <GenAI_Model>  (1) 
Pocket2Mol

>  <Protein>  (1) 
generic_title2

$$$$
Pocket2Mol_40_num_sample_50
     RDKit          3D

  0  0  0  0  0  0  0  0  0  0999 V3000
M  V30 BEGIN CTAB
M  V30 COUNTS 15 16 0 0 1
M  V30 BEGIN ATOM
M  V30 1 C 10.606844 6.945278 -6.830279 0
M  V30 2 O 11.035342 6.169299 -5.677487 0
M  V30 3 C 11.434828 7.065823 -4.737458 0
M  V30 4 C 11.434845 8.388453 -5.091630 0
M  V30 5 C 11.832707 9.383474 -4.190752 0
M  V30 6 C 11.834839 6.669135 -3.447868 0
M  V30 7 C 12.236604 7.650045 -2.516076 0
M  V30 8 S 10.936510 8.761724 -6.681903 0
M  V30 9 C 12.234868 9.013813 -2.889092 0
M  V30 10 H 11.101681 6.563499 -7.723450 0
M  V30 11 H 9.535518 6.796425 -6.970840 0
M  V30 12 H 11.826669 10.419706 -4.489421 0
M  V30 13 H 11.833298 5.627455 -3.173320 0
M  V30 14 H 12.544997 7.359914 -1.522662 0
M  V30 15 H 12.541208 9.769283 -2.181455 0
M  V30 END ATOM
M  V30 BEGIN BOND
M  V30 1 1 2 1
M  V30 2 1 3 2
M  V30 3 1 4 3
M  V30 4 2 5 4
M  V30 5 2 6 3
M  V30 6 1 7 6
M  V30 7 1 8 1
M  V30 8 1 8 4
M  V30 9 1 9 5
M  V30 10 2 9 7
M  V30 11 1 10 1
M  V30 12 1 11 1
M  V30 13 1 12 5
M  V30 14 1 13 6
M  V30 15 1 14 7
M  V30 16 1 15 9
M  V30 END BOND
M  V30 END CTAB
M  END
>  <i_epik_Tot_Q>  (1) 
0

>  <i_epik_Tot_abs_Q>  (1) 
0

>  <i_i_glide_confnum>  (1) 
1

>  <i_i_glide_lignum>  (1) 
45

>  <i_i_glide_posenum>  (1) 
55

>  <i_i_glide_rotatable_bonds>  (1) 
0

>  <i_lp_mmshare_version>  (1) 
72125

>  <i_m_source_file_index>  (1) 
41

>  <i_f3d_flags>  (1) 
0

>  <num_sample>  (1) 
50

>  <b_lp_Chiralities_Consistent>  (1) 
1

>  <r_epik_Charging_Adjusted_Penalty>  (1) 
0

>  <r_epik_Ionization_Penalty>  (1) 
0

>  <r_epik_Ionization_Penalty_Charging>  (1) 
0

>  <r_epik_Ionization_Penalty_Neutral>  (1) 
0

>  <r_epik_State_Penalty>  (1) 
-0

>  <r_glide_ring_energy>  (1) 
0

>  <r_i_docking_score>  (1) 
-6.0535333954754913

>  <r_i_glide_ecoul>  (1) 
-0.54156861694065594

>  <r_i_glide_eff_state_penalty>  (1) 
-0

>  <r_i_glide_einternal>  (1) 
0

>  <r_i_glide_emodel>  (1) 
-28.596256702945613

>  <r_i_glide_emodel_strain>  (1) 
0

>  <r_i_glide_energy>  (1) 
-20.642768223734329

>  <r_i_glide_erotb>  (1) 
0

>  <r_i_glide_esite>  (1) 
0

>  <r_i_glide_evdw>  (1) 
-20.101199606793674

>  <r_i_glide_gscore>  (1) 
-6.0535333954754913

>  <r_i_glide_gscore_strain>  (1) 
0

>  <r_i_glide_hbond>  (1) 
0

>  <r_i_glide_ligand_efficiency>  (1) 
-0.67261482171949905

>  <r_i_glide_ligand_efficiency_ln>  (1) 
-1.8933713441296691

>  <r_i_glide_ligand_efficiency_sa>  (1) 
-1.3990952098036706

>  <r_i_glide_lipo>  (1) 
-2.1778077228055341

>  <r_i_glide_metal>  (1) 
-0

>  <r_i_glide_rewards>  (1) 
-2.789430399789175

>  <r_lp_Energy>  (1) 
5.8399909999999995

>  <r_lp_tautomer_probability>  (1) 
1

>  <s_epik_Chemistry_Notes>  (1) 
This compound contains an acetal/aminal-like group ( X-CH(R)-Y where X, Y are N, S, or O) that may be acid/base labile, releasing an aldehyde.

>  <s_epik_cmdline>  (1) 
J2VwaWtfcHl0aG9uJywgJy1waHQnLCAnMS4wJywgJy1waCcsICc3LjQnLCAnLXRuJywgJzgnLCAnLW1hJywgJzUwMCcsICctaW1hZScsICc8aW5maWxlLm1hZT4nLCAnLW9tYWUnLCAnPG91dGZpbGUubWFlPic=

>  <s_epik_input>  (1) 
TzFbQ0gyXVNjKGMxMilbY0hdW2NIXVtjSF1bY0hdMg==

>  <s_glide_docking_method>  (1) 
confgen

>  <s_i_glide_gridfile>  (1) 
gpcr_drd2_6luq_protein_autoprepared_prepared

>  <s_lp_Force_Field>  (1) 
S-OPLS

>  <s_lp_Variant>  (1) 
Pocket2Mol_40_num_sample_50-1

>  <s_m_source_file>  (1) 
generated__ligand_Pocket2Mol_2026-05-06_prepared.sdf

>  <GenAI_Model>  (1) 
Pocket2Mol

>  <Protein>  (1) 
generic_title2

$$$$
Pocket2Mol_31_num_sample_50
     RDKit          3D

  0  0  0  0  0  0  0  0  0  0999 V3000
M  V30 BEGIN CTAB
M  V30 COUNTS 17 18 0 0 1
M  V30 BEGIN ATOM
M  V30 1 C 9.834841 7.767439 -7.422307 0
M  V30 2 O 10.596485 8.969301 -7.033962 0
M  V30 3 C 11.150368 8.593078 -5.863577 0
M  V30 4 C 10.915144 7.321558 -5.491671 0
M  V30 5 C 11.434851 6.794480 -4.295618 0
M  V30 6 C 10.087887 6.554710 -6.422344 0
M  V30 7 C 11.924586 9.455126 -5.069204 0
M  V30 8 C 12.469128 8.969302 -3.857048 0
M  V30 9 C 12.226254 7.627787 -3.468266 0
M  V30 10 H 8.775687 8.028009 -7.420350 0
M  V30 11 H 10.085464 7.484757 -8.445092 0
M  V30 12 H 11.235364 5.770384 -4.014022 0
M  V30 13 H 10.661433 5.752288 -6.883684 0
M  V30 14 H 9.174974 6.174611 -5.962557 0
M  V30 15 H 12.101849 10.473533 -5.381180 0
M  V30 16 H 13.067417 9.616000 -3.232203 0
M  V30 17 H 12.637632 7.245386 -2.545626 0
M  V30 END ATOM
M  V30 BEGIN BOND
M  V30 1 1 2 1
M  V30 2 1 3 2
M  V30 3 1 4 3
M  V30 4 2 5 4
M  V30 5 1 6 1
M  V30 6 1 6 4
M  V30 7 2 7 3
M  V30 8 1 8 7
M  V30 9 1 9 5
M  V30 10 2 9 8
M  V30 11 1 10 1
M  V30 12 1 11 1
M  V30 13 1 12 5
M  V30 14 1 13 6
M  V30 15 1 14 6
M  V30 16 1 15 7
M  V30 17 1 16 8
M  V30 18 1 17 9
M  V30 END BOND
M  V30 END CTAB
M  END
>  <i_epik_Tot_Q>  (1) 
0

>  <i_epik_Tot_abs_Q>  (1) 
0

>  <i_i_glide_confnum>  (1) 
1

>  <i_i_glide_lignum>  (1) 
35

>  <i_i_glide_posenum>  (1) 
9

>  <i_i_glide_rotatable_bonds>  (1) 
0

>  <i_lp_mmshare_version>  (1) 
72125

>  <i_m_source_file_index>  (1) 
32

>  <i_f3d_flags>  (1) 
0

>  <num_sample>  (1) 
50

>  <b_lp_Chiralities_Consistent>  (1) 
1

>  <r_epik_Charging_Adjusted_Penalty>  (1) 
0

>  <r_epik_Ionization_Penalty>  (1) 
0

>  <r_epik_Ionization_Penalty_Charging>  (1) 
0

>  <r_epik_Ionization_Penalty_Neutral>  (1) 
0

>  <r_epik_State_Penalty>  (1) 
-0

>  <r_glide_ring_energy>  (1) 
0

>  <r_i_docking_score>  (1) 
-5.9956822669374779

>  <r_i_glide_ecoul>  (1) 
-1.732407168846313

>  <r_i_glide_eff_state_penalty>  (1) 
-0

>  <r_i_glide_einternal>  (1) 
0

>  <r_i_glide_emodel>  (1) 
-28.571127703072811

>  <r_i_glide_emodel_strain>  (1) 
0

>  <r_i_glide_energy>  (1) 
-20.732223174517532

>  <r_i_glide_erotb>  (1) 
0

>  <r_i_glide_esite>  (1) 
0

>  <r_i_glide_evdw>  (1) 
-18.999816005671221

>  <r_i_glide_gscore>  (1) 
-5.9956822669374779

>  <r_i_glide_gscore_strain>  (1) 
0

>  <r_i_glide_hbond>  (1) 
0

>  <r_i_glide_ligand_efficiency>  (1) 
-0.66618691854860868

>  <r_i_glide_ligand_efficiency_ln>  (1) 
-1.8752771730326196

>  <r_i_glide_ligand_efficiency_sa>  (1) 
-1.3857246324017576

>  <r_i_glide_lipo>  (1) 
-2.0169720368859059

>  <r_i_glide_metal>  (1) 
-0

>  <r_i_glide_rewards>  (1) 
-2.7688583544410639

>  <r_lp_Energy>  (1) 
11.954839999999999

>  <r_lp_tautomer_probability>  (1) 
1

>  <s_epik_cmdline>  (1) 
J2VwaWtfcHl0aG9uJywgJy1waHQnLCAnMS4wJywgJy1waCcsICc3LjQnLCAnLXRuJywgJzgnLCAnLW1hJywgJzUwMCcsICctaW1hZScsICc8aW5maWxlLm1hZT4nLCAnLW9tYWUnLCAnPG91dGZpbGUubWFlPic=

>  <s_epik_input>  (1) 
TzFbQ0gyXVtDSDJdYyhjMTIpW2NIXVtjSF1bY0hdW2NIXTI=

>  <s_glide_docking_method>  (1) 
confgen

>  <s_i_glide_gridfile>  (1) 
gpcr_drd2_6luq_protein_autoprepared_prepared

>  <s_lp_Force_Field>  (1) 
S-OPLS

>  <s_lp_Variant>  (1) 
Pocket2Mol_31_num_sample_50-1

>  <s_m_source_file>  (1) 
generated__ligand_Pocket2Mol_2026-05-06_prepared.sdf

>  <GenAI_Model>  (1) 
Pocket2Mol

>  <Protein>  (1) 
generic_title2

$$$$
Pocket2Mol_40_num_sample_50
     RDKit          3D

  0  0  0  0  0  0  0  0  0  0999 V3000
M  V30 BEGIN CTAB
M  V30 COUNTS 15 16 0 0 1
M  V30 BEGIN ATOM
M  V30 1 C 11.180242 8.674590 -6.903829 0
M  V30 2 O 11.048089 7.395821 -6.227389 0
M  V30 3 C 11.434836 7.603194 -4.937224 0
M  V30 4 C 11.833983 8.867733 -4.589458 0
M  V30 5 C 12.243143 9.169952 -3.279194 0
M  V30 6 C 11.434795 6.569309 -3.989244 0
M  V30 7 C 11.844237 6.839109 -2.663751 0
M  V30 8 S 11.807178 10.049969 -5.825706 0
M  V30 9 C 12.248629 8.146893 -2.306774 0
M  V30 10 H 11.858614 8.556512 -7.750388 0
M  V30 11 H 10.206587 8.958112 -7.306974 0
M  V30 12 H 12.551982 10.169300 -3.018944 0
M  V30 13 H 11.120791 5.578157 -4.272595 0
M  V30 14 H 11.845512 6.049411 -1.926371 0
M  V30 15 H 12.560388 8.360924 -1.295430 0
M  V30 END ATOM
M  V30 BEGIN BOND
M  V30 1 1 2 1
M  V30 2 1 3 2
M  V30 3 1 4 3
M  V30 4 2 5 4
M  V30 5 2 6 3
M  V30 6 1 7 6
M  V30 7 1 8 1
M  V30 8 1 8 4
M  V30 9 1 9 5
M  V30 10 2 9 7
M  V30 11 1 10 1
M  V30 12 1 11 1
M  V30 13 1 12 5
M  V30 14 1 13 6
M  V30 15 1 14 7
M  V30 16 1 15 9
M  V30 END BOND
M  V30 END CTAB
M  END
>  <i_epik_Tot_Q>  (1) 
0

>  <i_epik_Tot_abs_Q>  (1) 
0

>  <i_i_glide_confnum>  (1) 
1

>  <i_i_glide_lignum>  (1) 
45

>  <i_i_glide_posenum>  (1) 
65

>  <i_i_glide_rotatable_bonds>  (1) 
0

>  <i_lp_mmshare_version>  (1) 
72125

>  <i_m_source_file_index>  (1) 
41

>  <i_f3d_flags>  (1) 
0

>  <num_sample>  (1) 
50

>  <b_lp_Chiralities_Consistent>  (1) 
1

>  <r_epik_Charging_Adjusted_Penalty>  (1) 
0

>  <r_epik_Ionization_Penalty>  (1) 
0

>  <r_epik_Ionization_Penalty_Charging>  (1) 
0

>  <r_epik_Ionization_Penalty_Neutral>  (1) 
0

>  <r_epik_State_Penalty>  (1) 
-0

>  <r_glide_ring_energy>  (1) 
0

>  <r_i_docking_score>  (1) 
-5.9717053532200639

>  <r_i_glide_ecoul>  (1) 
-0.85013249772474242

>  <r_i_glide_eff_state_penalty>  (1) 
-0

>  <r_i_glide_einternal>  (1) 
0

>  <r_i_glide_emodel>  (1) 
-29.199745467821593

>  <r_i_glide_emodel_strain>  (1) 
0

>  <r_i_glide_energy>  (1) 
-21.353767486832947

>  <r_i_glide_erotb>  (1) 
0

>  <r_i_glide_esite>  (1) 
0

>  <r_i_glide_evdw>  (1) 
-20.503634989108203

>  <r_i_glide_gscore>  (1) 
-5.9717053532200639

>  <r_i_glide_gscore_strain>  (1) 
0

>  <r_i_glide_hbond>  (1) 
0

>  <r_i_glide_ligand_efficiency>  (1) 
-0.66352281702445159

>  <r_i_glide_ligand_efficiency_ln>  (1) 
-1.8677778832150147

>  <r_i_glide_ligand_efficiency_sa>  (1) 
-1.3801830779183903

>  <r_i_glide_lipo>  (1) 
-2.2048693807338045

>  <r_i_glide_metal>  (1) 
-0

>  <r_i_glide_rewards>  (1) 
-2.6141343483721382

>  <r_lp_Energy>  (1) 
5.8399909999999995

>  <r_lp_tautomer_probability>  (1) 
1

>  <s_epik_Chemistry_Notes>  (1) 
This compound contains an acetal/aminal-like group ( X-CH(R)-Y where X, Y are N, S, or O) that may be acid/base labile, releasing an aldehyde.

>  <s_epik_cmdline>  (1) 
J2VwaWtfcHl0aG9uJywgJy1waHQnLCAnMS4wJywgJy1waCcsICc3LjQnLCAnLXRuJywgJzgnLCAnLW1hJywgJzUwMCcsICctaW1hZScsICc8aW5maWxlLm1hZT4nLCAnLW9tYWUnLCAnPG91dGZpbGUubWFlPic=

>  <s_epik_input>  (1) 
TzFbQ0gyXVNjKGMxMilbY0hdW2NIXVtjSF1bY0hdMg==

>  <s_glide_docking_method>  (1) 
confgen

>  <s_i_glide_gridfile>  (1) 
gpcr_drd2_6luq_protein_autoprepared_prepared

>  <s_lp_Force_Field>  (1) 
S-OPLS

>  <s_lp_Variant>  (1) 
Pocket2Mol_40_num_sample_50-1

>  <s_m_source_file>  (1) 
generated__ligand_Pocket2Mol_2026-05-06_prepared.sdf

>  <GenAI_Model>  (1) 
Pocket2Mol

>  <Protein>  (1) 
generic_title2

$$$$
Pocket2Mol_36_num_sample_50
     RDKit          3D

  0  0  0  0  0  0  0  0  0  0999 V3000
M  V30 BEGIN CTAB
M  V30 COUNTS 17 18 0 0 1
M  V30 BEGIN ATOM
M  V30 1 C 11.103336 8.941138 -6.647599 0
M  V30 2 O 10.980047 7.675686 -6.158529 0
M  V30 3 C 11.434839 7.745864 -4.874488 0
M  V30 4 C 11.829977 8.986026 -4.544133 0
M  V30 5 C 12.371047 9.369301 -3.214760 0
M  V30 6 C 11.434839 6.517471 -4.082206 0
M  V30 7 C 11.616800 9.779620 -5.700030 0
M  V30 8 C 12.009552 6.867971 -2.691791 0
M  V30 9 C 12.418149 8.117060 -2.311509 0
M  V30 10 H 10.784721 9.069359 -7.671388 0
M  V30 11 H 11.741141 10.133396 -2.757666 0
M  V30 12 H 13.376941 9.769301 -3.333989 0
M  V30 13 H 12.039713 5.757632 -4.569646 0
M  V30 14 H 10.420390 6.132953 -3.976949 0
M  V30 15 H 11.814689 10.834030 -5.825195 0
M  V30 16 H 12.081454 6.052069 -1.987367 0
M  V30 17 H 12.805760 8.264076 -1.314213 0
M  V30 END ATOM
M  V30 BEGIN BOND
M  V30 1 1 2 1
M  V30 2 1 3 2
M  V30 3 2 4 3
M  V30 4 1 5 4
M  V30 5 1 6 3
M  V30 6 2 7 1
M  V30 7 1 7 4
M  V30 8 1 8 6
M  V30 9 1 9 5
M  V30 10 2 9 8
M  V30 11 1 10 1
M  V30 12 1 11 5
M  V30 13 1 12 5
M  V30 14 1 13 6
M  V30 15 1 14 6
M  V30 16 1 15 7
M  V30 17 1 16 8
M  V30 18 1 17 9
M  V30 END BOND
M  V30 END CTAB
M  END
>  <i_epik_Tot_Q>  (1) 
0

>  <i_epik_Tot_abs_Q>  (1) 
0

>  <i_i_glide_confnum>  (1) 
1

>  <i_i_glide_lignum>  (1) 
41

>  <i_i_glide_posenum>  (1) 
13

>  <i_i_glide_rotatable_bonds>  (1) 
0

>  <i_lp_mmshare_version>  (1) 
72125

>  <i_m_source_file_index>  (1) 
37

>  <i_f3d_flags>  (1) 
0

>  <num_sample>  (1) 
50

>  <b_lp_Chiralities_Consistent>  (1) 
1

>  <r_epik_Charging_Adjusted_Penalty>  (1) 
0

>  <r_epik_Ionization_Penalty>  (1) 
0

>  <r_epik_Ionization_Penalty_Charging>  (1) 
0

>  <r_epik_Ionization_Penalty_Neutral>  (1) 
0

>  <r_epik_State_Penalty>  (1) 
-0

>  <r_glide_ring_energy>  (1) 
0

>  <r_i_docking_score>  (1) 
-5.9682812190867569

>  <r_i_glide_ecoul>  (1) 
-0.70900207519165026

>  <r_i_glide_eff_state_penalty>  (1) 
-0

>  <r_i_glide_einternal>  (1) 
0

>  <r_i_glide_emodel>  (1) 
-28.699365562593279

>  <r_i_glide_emodel_strain>  (1) 
0

>  <r_i_glide_energy>  (1) 
-20.845918514727497

>  <r_i_glide_erotb>  (1) 
0

>  <r_i_glide_esite>  (1) 
0

>  <r_i_glide_evdw>  (1) 
-20.136916439535845

>  <r_i_glide_gscore>  (1) 
-5.9682812190867569

>  <r_i_glide_gscore_strain>  (1) 
0

>  <r_i_glide_hbond>  (1) 
0

>  <r_i_glide_ligand_efficiency>  (1) 
-0.66314235767630636

>  <r_i_glide_ligand_efficiency_ln>  (1) 
-1.8667069124244173

>  <r_i_glide_ligand_efficiency_sa>  (1) 
-1.3793916905829846

>  <r_i_glide_lipo>  (1) 
-2.2169903323428182

>  <r_i_glide_metal>  (1) 
-0

>  <r_i_glide_rewards>  (1) 
-2.6380947534883981

>  <r_lp_Energy>  (1) 
4.5932930000000001

>  <r_lp_tautomer_probability>  (1) 
1

>  <s_epik_cmdline>  (1) 
J2VwaWtfcHl0aG9uJywgJy1waHQnLCAnMS4wJywgJy1waCcsICc3LjQnLCAnLXRuJywgJzgnLCAnLW1hJywgJzUwMCcsICctaW1hZScsICc8aW5maWxlLm1hZT4nLCAnLW9tYWUnLCAnPG91dGZpbGUubWFlPic=

>  <s_epik_input>  (1) 
bzFbY0hdW2NIXWMoYzEyKVtDSDJdW0NIXT1bQ0hdW0NIMl0y

>  <s_glide_docking_method>  (1) 
confgen

>  <s_i_glide_gridfile>  (1) 
gpcr_drd2_6luq_protein_autoprepared_prepared

>  <s_lp_Force_Field>  (1) 
S-OPLS

>  <s_lp_Variant>  (1) 
Pocket2Mol_36_num_sample_50-1

>  <s_m_source_file>  (1) 
generated__ligand_Pocket2Mol_2026-05-06_prepared.sdf

>  <GenAI_Model>  (1) 
Pocket2Mol

>  <Protein>  (1) 
generic_title2

$$$$
Pocket2Mol_37_num_sample_50
     RDKit          3D

  0  0  0  0  0  0  0  0  0  0999 V3000
M  V30 BEGIN CTAB
M  V30 COUNTS 15 16 0 0 1
M  V30 BEGIN ATOM
M  V30 1 C 9.822926 7.826119 -7.427814 0
M  V30 2 O 10.456953 8.969299 -6.981876 0
M  V30 3 C 11.086479 8.649218 -5.805691 0
M  V30 4 C 10.855935 7.298942 -5.506695 0
M  V30 5 C 11.438867 6.798731 -4.312513 0
M  V30 6 C 11.844922 9.503664 -5.003238 0
M  V30 7 C 10.041621 6.774368 -6.558506 0
M  V30 8 C 12.422496 8.998568 -3.827631 0
M  V30 9 C 12.223344 7.643995 -3.480192 0
M  V30 10 H 9.268147 7.920164 -8.352617 0
M  V30 11 H 11.287358 5.768852 -4.036114 0
M  V30 12 H 11.984920 10.536078 -5.285768 0
M  V30 13 H 9.672875 5.766072 -6.644222 0
M  V30 14 H 13.015176 9.641420 -3.192061 0
M  V30 15 H 12.664392 7.249825 -2.575677 0
M  V30 END ATOM
M  V30 BEGIN BOND
M  V30 1 1 2 1
M  V30 2 1 3 2
M  V30 3 1 4 3
M  V30 4 2 5 4
M  V30 5 2 6 3
M  V30 6 2 7 1
M  V30 7 1 7 4
M  V30 8 1 8 6
M  V30 9 1 9 5
M  V30 10 2 9 8
M  V30 11 1 10 1
M  V30 12 1 11 5
M  V30 13 1 12 6
M  V30 14 1 13 7
M  V30 15 1 14 8
M  V30 16 1 15 9
M  V30 END BOND
M  V30 END CTAB
M  END
>  <i_epik_Tot_Q>  (1) 
0

>  <i_epik_Tot_abs_Q>  (1) 
0

>  <i_i_glide_confnum>  (1) 
1

>  <i_i_glide_lignum>  (1) 
42

>  <i_i_glide_posenum>  (1) 
88

>  <i_i_glide_rotatable_bonds>  (1) 
0

>  <i_lp_mmshare_version>  (1) 
72125

>  <i_m_source_file_index>  (1) 
38

>  <i_f3d_flags>  (1) 
0

>  <num_sample>  (1) 
50

>  <b_lp_Chiralities_Consistent>  (1) 
1

>  <r_epik_Charging_Adjusted_Penalty>  (1) 
0

>  <r_epik_Ionization_Penalty>  (1) 
0

>  <r_epik_Ionization_Penalty_Charging>  (1) 
0

>  <r_epik_Ionization_Penalty_Neutral>  (1) 
0

>  <r_epik_State_Penalty>  (1) 
-0

>  <r_glide_ring_energy>  (1) 
0

>  <r_i_docking_score>  (1) 
-5.9571401856475354

>  <r_i_glide_ecoul>  (1) 
-1.6243791089136468

>  <r_i_glide_eff_state_penalty>  (1) 
-0

>  <r_i_glide_einternal>  (1) 
0

>  <r_i_glide_emodel>  (1) 
-28.032183968775961

>  <r_i_glide_emodel_strain>  (1) 
0

>  <r_i_glide_energy>  (1) 
-20.417920600108665

>  <r_i_glide_erotb>  (1) 
0

>  <r_i_glide_esite>  (1) 
0

>  <r_i_glide_evdw>  (1) 
-18.793541491195018

>  <r_i_glide_gscore>  (1) 
-5.9571401856475354

>  <r_i_glide_gscore_strain>  (1) 
0

>  <r_i_glide_hbond>  (1) 
0

>  <r_i_glide_ligand_efficiency>  (1) 
-0.66190446507194833

>  <r_i_glide_ligand_efficiency_ln>  (1) 
-1.8632223172170004

>  <r_i_glide_ligand_efficiency_sa>  (1) 
-1.3768167702019842

>  <r_i_glide_lipo>  (1) 
-2.0027394031775869

>  <r_i_glide_metal>  (1) 
-0

>  <r_i_glide_rewards>  (1) 
-2.7710668415731501

>  <r_lp_Energy>  (1) 
12.927653999999999

>  <r_lp_tautomer_probability>  (1) 
1

>  <s_epik_cmdline>  (1) 
J2VwaWtfcHl0aG9uJywgJy1waHQnLCAnMS4wJywgJy1waCcsICc3LjQnLCAnLXRuJywgJzgnLCAnLW1hJywgJzUwMCcsICctaW1hZScsICc8aW5maWxlLm1hZT4nLCAnLW9tYWUnLCAnPG91dGZpbGUubWFlPic=

>  <s_epik_input>  (1) 
bzFbY0hdW2NIXWMoYzEyKVtjSF1bY0hdW2NIXVtjSF0y

>  <s_glide_docking_method>  (1) 
confgen

>  <s_i_glide_gridfile>  (1) 
gpcr_drd2_6luq_protein_autoprepared_prepared

>  <s_lp_Force_Field>  (1) 
S-OPLS

>  <s_lp_Variant>  (1) 
Pocket2Mol_37_num_sample_50-1

>  <s_m_source_file>  (1) 
generated__ligand_Pocket2Mol_2026-05-06_prepared.sdf

>  <GenAI_Model>  (1) 
Pocket2Mol

>  <Protein>  (1) 
generic_title2

$$$$
Pocket2Mol_36_num_sample_50
     RDKit          3D

  0  0  0  0  0  0  0  0  0  0999 V3000
M  V30 BEGIN CTAB
M  V30 COUNTS 17 18 0 0 1
M  V30 BEGIN ATOM
M  V30 1 C 9.828347 7.830523 -7.381514 0
M  V30 2 O 10.409918 8.969301 -6.910391 0
M  V30 3 C 11.034839 8.601850 -5.755697 0
M  V30 4 C 10.874536 7.293011 -5.491667 0
M  V30 5 C 11.434839 6.595752 -4.302878 0
M  V30 6 C 11.754707 9.640212 -5.004952 0
M  V30 7 C 10.085511 6.779010 -6.553159 0
M  V30 8 C 12.371768 8.951736 -3.764607 0
M  V30 9 C 12.234839 7.622038 -3.457821 0
M  V30 10 H 9.272673 7.941556 -8.302877 0
M  V30 11 H 12.077154 5.779824 -4.628887 0
M  V30 12 H 10.627736 6.169302 -3.706877 0
M  V30 13 H 11.074718 10.433742 -4.693285 0
M  V30 14 H 12.541370 10.082612 -5.616281 0
M  V30 15 H 9.742215 5.766383 -6.691668 0
M  V30 16 H 12.949987 9.585469 -3.107680 0
M  V30 17 H 12.707158 7.237014 -2.565998 0
M  V30 END ATOM
M  V30 BEGIN BOND
M  V30 1 1 2 1
M  V30 2 1 3 2
M  V30 3 2 4 3
M  V30 4 1 5 4
M  V30 5 1 6 3
M  V30 6 2 7 1
M  V30 7 1 7 4
M  V30 8 1 8 6
M  V30 9 1 9 5
M  V30 10 2 9 8
M  V30 11 1 10 1
M  V30 12 1 11 5
M  V30 13 1 12 5
M  V30 14 1 13 6
M  V30 15 1 14 6
M  V30 16 1 15 7
M  V30 17 1 16 8
M  V30 18 1 17 9
M  V30 END BOND
M  V30 END CTAB
M  END
>  <i_epik_Tot_Q>  (1) 
0

>  <i_epik_Tot_abs_Q>  (1) 
0

>  <i_i_glide_confnum>  (1) 
1

>  <i_i_glide_lignum>  (1) 
41

>  <i_i_glide_posenum>  (1) 
331

>  <i_i_glide_rotatable_bonds>  (1) 
0

>  <i_lp_mmshare_version>  (1) 
72125

>  <i_m_source_file_index>  (1) 
37

>  <i_f3d_flags>  (1) 
0

>  <num_sample>  (1) 
50

>  <b_lp_Chiralities_Consistent>  (1) 
1

>  <r_epik_Charging_Adjusted_Penalty>  (1) 
0

>  <r_epik_Ionization_Penalty>  (1) 
0

>  <r_epik_Ionization_Penalty_Charging>  (1) 
0

>  <r_epik_Ionization_Penalty_Neutral>  (1) 
0

>  <r_epik_State_Penalty>  (1) 
-0

>  <r_glide_ring_energy>  (1) 
0

>  <r_i_docking_score>  (1) 
-5.9421897537203368

>  <r_i_glide_ecoul>  (1) 
-0.91847594963560986

>  <r_i_glide_eff_state_penalty>  (1) 
-0

>  <r_i_glide_einternal>  (1) 
0

>  <r_i_glide_emodel>  (1) 
-29.207467110352965

>  <r_i_glide_emodel_strain>  (1) 
0

>  <r_i_glide_energy>  (1) 
-21.388352885310795

>  <r_i_glide_erotb>  (1) 
0

>  <r_i_glide_esite>  (1) 
0

>  <r_i_glide_evdw>  (1) 
-20.469876935675185

>  <r_i_glide_gscore>  (1) 
-5.9421897537203368

>  <r_i_glide_gscore_strain>  (1) 
0

>  <r_i_glide_hbond>  (1) 
0

>  <r_i_glide_ligand_efficiency>  (1) 
-0.66024330596892633

>  <r_i_glide_ligand_efficiency_ln>  (1) 
-1.8585462515964692

>  <r_i_glide_ligand_efficiency_sa>  (1) 
-1.3733614200242725

>  <r_i_glide_lipo>  (1) 
-1.9661671369668214

>  <r_i_glide_metal>  (1) 
-0

>  <r_i_glide_rewards>  (1) 
-2.814757377524415

>  <r_lp_Energy>  (1) 
4.5932930000000001

>  <r_lp_tautomer_probability>  (1) 
1

>  <s_epik_cmdline>  (1) 
J2VwaWtfcHl0aG9uJywgJy1waHQnLCAnMS4wJywgJy1waCcsICc3LjQnLCAnLXRuJywgJzgnLCAnLW1hJywgJzUwMCcsICctaW1hZScsICc8aW5maWxlLm1hZT4nLCAnLW9tYWUnLCAnPG91dGZpbGUubWFlPic=

>  <s_epik_input>  (1) 
bzFbY0hdW2NIXWMoYzEyKVtDSDJdW0NIXT1bQ0hdW0NIMl0y

>  <s_glide_docking_method>  (1) 
confgen

>  <s_i_glide_gridfile>  (1) 
gpcr_drd2_6luq_protein_autoprepared_prepared

>  <s_lp_Force_Field>  (1) 
S-OPLS

>  <s_lp_Variant>  (1) 
Pocket2Mol_36_num_sample_50-1

>  <s_m_source_file>  (1) 
generated__ligand_Pocket2Mol_2026-05-06_prepared.sdf

>  <GenAI_Model>  (1) 
Pocket2Mol

>  <Protein>  (1) 
generic_title2

$$$$
Pocket2Mol_31_num_sample_50
     RDKit          3D

  0  0  0  0  0  0  0  0  0  0999 V3000
M  V30 BEGIN CTAB
M  V30 COUNTS 17 18 0 0 1
M  V30 BEGIN ATOM
M  V30 1 C 11.143006 8.964899 -6.523469 0
M  V30 2 O 11.741246 9.771276 -5.434654 0
M  V30 3 C 11.834839 8.858959 -4.442385 0
M  V30 4 C 11.434839 7.608170 -4.756052 0
M  V30 5 C 11.473682 6.569301 -3.816835 0
M  V30 6 C 10.963246 7.431399 -6.130656 0
M  V30 7 C 12.308642 9.168692 -3.155819 0
M  V30 8 C 12.366826 8.149080 -2.180772 0
M  V30 9 C 11.946427 6.838687 -2.513603 0
M  V30 10 H 10.157919 9.369301 -6.750387 0
M  V30 11 H 11.742684 9.064390 -7.428768 0
M  V30 12 H 11.146913 5.578643 -4.086963 0
M  V30 13 H 11.614334 6.764038 -6.696241 0
M  V30 14 H 9.926367 7.094275 -6.170263 0
M  V30 15 H 12.623860 10.169286 -2.914452 0
M  V30 16 H 12.728952 8.368808 -1.187191 0
M  V30 17 H 11.984802 6.049893 -1.776067 0
M  V30 END ATOM
M  V30 BEGIN BOND
M  V30 1 1 2 1
M  V30 2 1 3 2
M  V30 3 1 4 3
M  V30 4 2 5 4
M  V30 5 1 6 1
M  V30 6 1 6 4
M  V30 7 2 7 3
M  V30 8 1 8 7
M  V30 9 1 9 5
M  V30 10 2 9 8
M  V30 11 1 10 1
M  V30 12 1 11 1
M  V30 13 1 12 5
M  V30 14 1 13 6
M  V30 15 1 14 6
M  V30 16 1 15 7
M  V30 17 1 16 8
M  V30 18 1 17 9
M  V30 END BOND
M  V30 END CTAB
M  END
>  <i_epik_Tot_Q>  (1) 
0

>  <i_epik_Tot_abs_Q>  (1) 
0

>  <i_i_glide_confnum>  (1) 
1

>  <i_i_glide_lignum>  (1) 
35

>  <i_i_glide_posenum>  (1) 
33

>  <i_i_glide_rotatable_bonds>  (1) 
0

>  <i_lp_mmshare_version>  (1) 
72125

>  <i_m_source_file_index>  (1) 
32

>  <i_f3d_flags>  (1) 
0

>  <num_sample>  (1) 
50

>  <b_lp_Chiralities_Consistent>  (1) 
1

>  <r_epik_Charging_Adjusted_Penalty>  (1) 
0

>  <r_epik_Ionization_Penalty>  (1) 
0

>  <r_epik_Ionization_Penalty_Charging>  (1) 
0

>  <r_epik_Ionization_Penalty_Neutral>  (1) 
0

>  <r_epik_State_Penalty>  (1) 
-0

>  <r_glide_ring_energy>  (1) 
0

>  <r_i_docking_score>  (1) 
-5.9301379584101728

>  <r_i_glide_ecoul>  (1) 
-1.534870230681481

>  <r_i_glide_eff_state_penalty>  (1) 
-0

>  <r_i_glide_einternal>  (1) 
0

>  <r_i_glide_emodel>  (1) 
-28.129615716916675

>  <r_i_glide_emodel_strain>  (1) 
0

>  <r_i_glide_energy>  (1) 
-20.376405452009916

>  <r_i_glide_erotb>  (1) 
0

>  <r_i_glide_esite>  (1) 
0

>  <r_i_glide_evdw>  (1) 
-18.841535221328435

>  <r_i_glide_gscore>  (1) 
-5.9301379584101728

>  <r_i_glide_gscore_strain>  (1) 
0

>  <r_i_glide_hbond>  (1) 
0

>  <r_i_glide_ligand_efficiency>  (1) 
-0.65890421760113027

>  <r_i_glide_ligand_efficiency_ln>  (1) 
-1.8547767962395969

>  <r_i_glide_ligand_efficiency_sa>  (1) 
-1.370576003972783

>  <r_i_glide_lipo>  (1) 
-2.1059237509179352

>  <r_i_glide_metal>  (1) 
-0

>  <r_i_glide_rewards>  (1) 
-2.6519069118235938

>  <r_lp_Energy>  (1) 
11.954839999999999

>  <r_lp_tautomer_probability>  (1) 
1

>  <s_epik_cmdline>  (1) 
J2VwaWtfcHl0aG9uJywgJy1waHQnLCAnMS4wJywgJy1waCcsICc3LjQnLCAnLXRuJywgJzgnLCAnLW1hJywgJzUwMCcsICctaW1hZScsICc8aW5maWxlLm1hZT4nLCAnLW9tYWUnLCAnPG91dGZpbGUubWFlPic=

>  <s_epik_input>  (1) 
TzFbQ0gyXVtDSDJdYyhjMTIpW2NIXVtjSF1bY0hdW2NIXTI=

>  <s_glide_docking_method>  (1) 
confgen

>  <s_i_glide_gridfile>  (1) 
gpcr_drd2_6luq_protein_autoprepared_prepared

>  <s_lp_Force_Field>  (1) 
S-OPLS

>  <s_lp_Variant>  (1) 
Pocket2Mol_31_num_sample_50-1

>  <s_m_source_file>  (1) 
generated__ligand_Pocket2Mol_2026-05-06_prepared.sdf

>  <GenAI_Model>  (1) 
Pocket2Mol

>  <Protein>  (1) 
generic_title2

$$$$
Pocket2Mol_40_num_sample_50
     RDKit          3D

  0  0  0  0  0  0  0  0  0  0999 V3000
M  V30 BEGIN CTAB
M  V30 COUNTS 15 16 0 0 1
M  V30 BEGIN ATOM
M  V30 1 C 11.925869 6.858345 -2.412504 0
M  V30 2 O 11.449311 6.169302 -3.600804 0
M  V30 3 C 11.434839 7.092110 -4.601398 0
M  V30 4 C 11.834839 8.367279 -4.291667 0
M  V30 5 C 11.849562 9.382575 -5.261134 0
M  V30 6 C 11.024629 6.768957 -5.906234 0
M  V30 7 C 11.031076 7.767343 -6.902196 0
M  V30 8 S 12.310602 8.655057 -2.673500 0
M  V30 9 C 11.446728 9.078596 -6.578972 0
M  V30 10 H 11.169105 6.769126 -1.632689 0
M  V30 11 H 12.819922 6.351926 -2.048115 0
M  V30 12 H 12.166472 10.380835 -5.004238 0
M  V30 13 H 10.707242 5.769301 -6.144338 0
M  V30 14 H 10.718616 7.530033 -7.909006 0
M  V30 15 H 11.455731 9.841980 -7.337246 0
M  V30 END ATOM
M  V30 BEGIN BOND
M  V30 1 1 2 1
M  V30 2 1 3 2
M  V30 3 1 4 3
M  V30 4 2 5 4
M  V30 5 2 6 3
M  V30 6 1 7 6
M  V30 7 1 8 1
M  V30 8 1 8 4
M  V30 9 1 9 5
M  V30 10 2 9 7
M  V30 11 1 10 1
M  V30 12 1 11 1
M  V30 13 1 12 5
M  V30 14 1 13 6
M  V30 15 1 14 7
M  V30 16 1 15 9
M  V30 END BOND
M  V30 END CTAB
M  END
>  <i_epik_Tot_Q>  (1) 
0

>  <i_epik_Tot_abs_Q>  (1) 
0

>  <i_i_glide_confnum>  (1) 
1

>  <i_i_glide_lignum>  (1) 
45

>  <i_i_glide_posenum>  (1) 
37

>  <i_i_glide_rotatable_bonds>  (1) 
0

>  <i_lp_mmshare_version>  (1) 
72125

>  <i_m_source_file_index>  (1) 
41

>  <i_f3d_flags>  (1) 
0

>  <num_sample>  (1) 
50

>  <b_lp_Chiralities_Consistent>  (1) 
1

>  <r_epik_Charging_Adjusted_Penalty>  (1) 
0

>  <r_epik_Ionization_Penalty>  (1) 
0

>  <r_epik_Ionization_Penalty_Charging>  (1) 
0

>  <r_epik_Ionization_Penalty_Neutral>  (1) 
0

>  <r_epik_State_Penalty>  (1) 
-0

>  <r_glide_ring_energy>  (1) 
0

>  <r_i_docking_score>  (1) 
-5.9275059423591774

>  <r_i_glide_ecoul>  (1) 
0.58105986606490889

>  <r_i_glide_eff_state_penalty>  (1) 
-0

>  <r_i_glide_einternal>  (1) 
0

>  <r_i_glide_emodel>  (1) 
-28.548585812008959

>  <r_i_glide_emodel_strain>  (1) 
0

>  <r_i_glide_energy>  (1) 
-20.760679618537459

>  <r_i_glide_erotb>  (1) 
0

>  <r_i_glide_esite>  (1) 
0

>  <r_i_glide_evdw>  (1) 
-21.341739484602368

>  <r_i_glide_gscore>  (1) 
-5.9275059423591774

>  <r_i_glide_gscore_strain>  (1) 
0

>  <r_i_glide_hbond>  (1) 
0

>  <r_i_glide_ligand_efficiency>  (1) 
-0.65861177137324189

>  <r_i_glide_ligand_efficiency_ln>  (1) 
-1.8539535772296929

>  <r_i_glide_ligand_efficiency_sa>  (1) 
-1.3699676913050398

>  <r_i_glide_lipo>  (1) 
-2.1449708397502372

>  <r_i_glide_metal>  (1) 
-0

>  <r_i_glide_rewards>  (1) 
-2.8026071082885582

>  <r_lp_Energy>  (1) 
5.8399909999999995

>  <r_lp_tautomer_probability>  (1) 
1

>  <s_epik_Chemistry_Notes>  (1) 
This compound contains an acetal/aminal-like group ( X-CH(R)-Y where X, Y are N, S, or O) that may be acid/base labile, releasing an aldehyde.

>  <s_epik_cmdline>  (1) 
J2VwaWtfcHl0aG9uJywgJy1waHQnLCAnMS4wJywgJy1waCcsICc3LjQnLCAnLXRuJywgJzgnLCAnLW1hJywgJzUwMCcsICctaW1hZScsICc8aW5maWxlLm1hZT4nLCAnLW9tYWUnLCAnPG91dGZpbGUubWFlPic=

>  <s_epik_input>  (1) 
TzFbQ0gyXVNjKGMxMilbY0hdW2NIXVtjSF1bY0hdMg==

>  <s_glide_docking_method>  (1) 
confgen

>  <s_i_glide_gridfile>  (1) 
gpcr_drd2_6luq_protein_autoprepared_prepared

>  <s_lp_Force_Field>  (1) 
S-OPLS

>  <s_lp_Variant>  (1) 
Pocket2Mol_40_num_sample_50-1

>  <s_m_source_file>  (1) 
generated__ligand_Pocket2Mol_2026-05-06_prepared.sdf

>  <GenAI_Model>  (1) 
Pocket2Mol

>  <Protein>  (1) 
generic_title2

$$$$
Pocket2Mol_37_num_sample_50
     RDKit          3D

  0  0  0  0  0  0  0  0  0  0999 V3000
M  V30 BEGIN CTAB
M  V30 COUNTS 15 16 0 0 1
M  V30 BEGIN ATOM
M  V30 1 C 11.210976 8.930136 -6.630200 0
M  V30 2 O 11.052411 7.644513 -6.152994 0
M  V30 3 C 11.434841 7.653817 -4.833714 0
M  V30 4 C 11.834839 8.950056 -4.472369 0
M  V30 5 C 12.258778 9.137414 -3.129850 0
M  V30 6 C 11.434840 6.569302 -3.956398 0
M  V30 7 C 11.685915 9.769315 -5.636746 0
M  V30 8 C 11.859510 6.764279 -2.634074 0
M  V30 9 C 12.272180 8.050383 -2.218402 0
M  V30 10 H 10.947972 9.082644 -7.667201 0
M  V30 11 H 12.573698 10.114319 -2.797535 0
M  V30 12 H 11.111971 5.596883 -4.291772 0
M  V30 13 H 11.900369 10.823993 -5.714202 0
M  V30 14 H 11.868013 5.937049 -1.938020 0
M  V30 15 H 12.598342 8.208358 -1.200406 0
M  V30 END ATOM
M  V30 BEGIN BOND
M  V30 1 1 2 1
M  V30 2 1 3 2
M  V30 3 1 4 3
M  V30 4 2 5 4
M  V30 5 2 6 3
M  V30 6 2 7 1
M  V30 7 1 7 4
M  V30 8 1 8 6
M  V30 9 1 9 5
M  V30 10 2 9 8
M  V30 11 1 10 1
M  V30 12 1 11 5
M  V30 13 1 12 6
M  V30 14 1 13 7
M  V30 15 1 14 8
M  V30 16 1 15 9
M  V30 END BOND
M  V30 END CTAB
M  END
>  <i_epik_Tot_Q>  (1) 
0

>  <i_epik_Tot_abs_Q>  (1) 
0

>  <i_i_glide_confnum>  (1) 
1

>  <i_i_glide_lignum>  (1) 
42

>  <i_i_glide_posenum>  (1) 
27

>  <i_i_glide_rotatable_bonds>  (1) 
0

>  <i_lp_mmshare_version>  (1) 
72125

>  <i_m_source_file_index>  (1) 
38

>  <i_f3d_flags>  (1) 
0

>  <num_sample>  (1) 
50

>  <b_lp_Chiralities_Consistent>  (1) 
1

>  <r_epik_Charging_Adjusted_Penalty>  (1) 
0

>  <r_epik_Ionization_Penalty>  (1) 
0

>  <r_epik_Ionization_Penalty_Charging>  (1) 
0

>  <r_epik_Ionization_Penalty_Neutral>  (1) 
0

>  <r_epik_State_Penalty>  (1) 
-0

>  <r_glide_ring_energy>  (1) 
0

>  <r_i_docking_score>  (1) 
-5.9251086377690303

>  <r_i_glide_ecoul>  (1) 
-0.883574707445417

>  <r_i_glide_eff_state_penalty>  (1) 
-0

>  <r_i_glide_einternal>  (1) 
0

>  <r_i_glide_emodel>  (1) 
-27.481559203921606

>  <r_i_glide_emodel_strain>  (1) 
1.9912960169676808e-12

>  <r_i_glide_energy>  (1) 
-19.908237735908667

>  <r_i_glide_erotb>  (1) 
0

>  <r_i_glide_esite>  (1) 
0

>  <r_i_glide_evdw>  (1) 
-19.024663028463252

>  <r_i_glide_gscore>  (1) 
-5.9251086377690303

>  <r_i_glide_gscore_strain>  (1) 
0

>  <r_i_glide_hbond>  (1) 
0

>  <r_i_glide_ligand_efficiency>  (1) 
-0.65834540419655896

>  <r_i_glide_ligand_efficiency_ln>  (1) 
-1.8532037692221039

>  <r_i_glide_ligand_efficiency_sa>  (1) 
-1.3694136252498297

>  <r_i_glide_lipo>  (1) 
-2.2222901302474658

>  <r_i_glide_metal>  (1) 
-0

>  <r_i_glide_rewards>  (1) 
-2.6190491499815893

>  <r_lp_Energy>  (1) 
12.927653999999999

>  <r_lp_tautomer_probability>  (1) 
1

>  <s_epik_cmdline>  (1) 
J2VwaWtfcHl0aG9uJywgJy1waHQnLCAnMS4wJywgJy1waCcsICc3LjQnLCAnLXRuJywgJzgnLCAnLW1hJywgJzUwMCcsICctaW1hZScsICc8aW5maWxlLm1hZT4nLCAnLW9tYWUnLCAnPG91dGZpbGUubWFlPic=

>  <s_epik_input>  (1) 
bzFbY0hdW2NIXWMoYzEyKVtjSF1bY0hdW2NIXVtjSF0y

>  <s_glide_docking_method>  (1) 
confgen

>  <s_i_glide_gridfile>  (1) 
gpcr_drd2_6luq_protein_autoprepared_prepared

>  <s_lp_Force_Field>  (1) 
S-OPLS

>  <s_lp_Variant>  (1) 
Pocket2Mol_37_num_sample_50-1

>  <s_m_source_file>  (1) 
generated__ligand_Pocket2Mol_2026-05-06_prepared.sdf

>  <GenAI_Model>  (1) 
Pocket2Mol

>  <Protein>  (1) 
generic_title2

$$$$
Pocket2Mol_37_num_sample_50
     RDKit          3D

  0  0  0  0  0  0  0  0  0  0999 V3000
M  V30 BEGIN CTAB
M  V30 COUNTS 15 16 0 0 1
M  V30 BEGIN ATOM
M  V30 1 C 10.725733 6.989315 -6.818221 0
M  V30 2 O 11.005437 6.191520 -5.740802 0
M  V30 3 C 11.434666 7.029290 -4.732242 0
M  V30 4 C 11.420164 8.370403 -5.194554 0
M  V30 5 C 11.833871 9.369089 -4.282263 0
M  V30 6 C 11.834839 6.668597 -3.434920 0
M  V30 7 C 10.956170 8.317947 -6.551599 0
M  V30 8 C 12.241616 7.683962 -2.548354 0
M  V30 9 C 12.240282 9.029487 -2.973069 0
M  V30 10 H 10.373791 6.469070 -7.697301 0
M  V30 11 H 11.838512 10.403480 -4.591996 0
M  V30 12 H 11.829248 5.633570 -3.127800 0
M  V30 13 H 10.819826 9.156792 -7.217500 0
M  V30 14 H 12.554120 7.433234 -1.544928 0
M  V30 15 H 12.552974 9.806519 -2.290476 0
M  V30 END ATOM
M  V30 BEGIN BOND
M  V30 1 1 2 1
M  V30 2 1 3 2
M  V30 3 1 4 3
M  V30 4 2 5 4
M  V30 5 2 6 3
M  V30 6 2 7 1
M  V30 7 1 7 4
M  V30 8 1 8 6
M  V30 9 1 9 5
M  V30 10 2 9 8
M  V30 11 1 10 1
M  V30 12 1 11 5
M  V30 13 1 12 6
M  V30 14 1 13 7
M  V30 15 1 14 8
M  V30 16 1 15 9
M  V30 END BOND
M  V30 END CTAB
M  END
>  <i_epik_Tot_Q>  (1) 
0

>  <i_epik_Tot_abs_Q>  (1) 
0

>  <i_i_glide_confnum>  (1) 
1

>  <i_i_glide_lignum>  (1) 
42

>  <i_i_glide_posenum>  (1) 
54

>  <i_i_glide_rotatable_bonds>  (1) 
0

>  <i_lp_mmshare_version>  (1) 
72125

>  <i_m_source_file_index>  (1) 
38

>  <i_f3d_flags>  (1) 
0

>  <num_sample>  (1) 
50

>  <b_lp_Chiralities_Consistent>  (1) 
1

>  <r_epik_Charging_Adjusted_Penalty>  (1) 
0

>  <r_epik_Ionization_Penalty>  (1) 
0

>  <r_epik_Ionization_Penalty_Charging>  (1) 
0

>  <r_epik_Ionization_Penalty_Neutral>  (1) 
0

>  <r_epik_State_Penalty>  (1) 
-0

>  <r_glide_ring_energy>  (1) 
0

>  <r_i_docking_score>  (1) 
-5.9198719819388401

>  <r_i_glide_ecoul>  (1) 
-0.47758814843076747

>  <r_i_glide_eff_state_penalty>  (1) 
-0

>  <r_i_glide_einternal>  (1) 
0

>  <r_i_glide_emodel>  (1) 
-26.087445868634273

>  <r_i_glide_emodel_strain>  (1) 
0

>  <r_i_glide_energy>  (1) 
-18.520817759415603

>  <r_i_glide_erotb>  (1) 
0

>  <r_i_glide_esite>  (1) 
0

>  <r_i_glide_evdw>  (1) 
-18.043229610984834

>  <r_i_glide_gscore>  (1) 
-5.9198719819388401

>  <r_i_glide_gscore_strain>  (1) 
0

>  <r_i_glide_hbond>  (1) 
0

>  <r_i_glide_ligand_efficiency>  (1) 
-0.65776355354876004

>  <r_i_glide_ligand_efficiency_ln>  (1) 
-1.8515658937136674

>  <r_i_glide_ligand_efficiency_sa>  (1) 
-1.3682033271299108

>  <r_i_glide_lipo>  (1) 
-2.1901852022531458

>  <r_i_glide_metal>  (1) 
-0

>  <r_i_glide_rewards>  (1) 
-2.7558870768718373

>  <r_lp_Energy>  (1) 
12.927653999999999

>  <r_lp_tautomer_probability>  (1) 
1

>  <s_epik_cmdline>  (1) 
J2VwaWtfcHl0aG9uJywgJy1waHQnLCAnMS4wJywgJy1waCcsICc3LjQnLCAnLXRuJywgJzgnLCAnLW1hJywgJzUwMCcsICctaW1hZScsICc8aW5maWxlLm1hZT4nLCAnLW9tYWUnLCAnPG91dGZpbGUubWFlPic=

>  <s_epik_input>  (1) 
bzFbY0hdW2NIXWMoYzEyKVtjSF1bY0hdW2NIXVtjSF0y

>  <s_glide_docking_method>  (1) 
confgen

>  <s_i_glide_gridfile>  (1) 
gpcr_drd2_6luq_protein_autoprepared_prepared

>  <s_lp_Force_Field>  (1) 
S-OPLS

>  <s_lp_Variant>  (1) 
Pocket2Mol_37_num_sample_50-1

>  <s_m_source_file>  (1) 
generated__ligand_Pocket2Mol_2026-05-06_prepared.sdf

>  <GenAI_Model>  (1) 
Pocket2Mol

>  <Protein>  (1) 
generic_title2

$$$$
Pocket2Mol_37_num_sample_50
     RDKit          3D

  0  0  0  0  0  0  0  0  0  0999 V3000
M  V30 BEGIN CTAB
M  V30 COUNTS 15 16 0 0 1
M  V30 BEGIN ATOM
M  V30 1 C 12.634845 8.328501 -2.451254 0
M  V30 2 O 12.494538 9.369300 -3.348409 0
M  V30 3 C 11.896683 8.858088 -4.473624 0
M  V30 4 C 11.658649 7.487640 -4.291524 0
M  V30 5 C 11.034868 6.799290 -5.361755 0
M  V30 6 C 11.565801 9.554086 -5.637963 0
M  V30 7 C 12.140650 7.151288 -2.984172 0
M  V30 8 C 10.956866 8.857916 -6.692092 0
M  V30 9 C 10.686823 7.480498 -6.554044 0
M  V30 10 H 13.092402 8.580378 -1.504593 0
M  V30 11 H 10.822688 5.750669 -5.267347 0
M  V30 12 H 11.776794 10.609182 -5.725771 0
M  V30 13 H 12.112728 6.176182 -2.518932 0
M  V30 14 H 10.694529 9.369300 -7.602581 0
M  V30 15 H 10.211922 6.941848 -7.362232 0
M  V30 END ATOM
M  V30 BEGIN BOND
M  V30 1 1 2 1
M  V30 2 1 3 2
M  V30 3 1 4 3
M  V30 4 2 5 4
M  V30 5 2 6 3
M  V30 6 2 7 1
M  V30 7 1 7 4
M  V30 8 1 8 6
M  V30 9 1 9 5
M  V30 10 2 9 8
M  V30 11 1 10 1
M  V30 12 1 11 5
M  V30 13 1 12 6
M  V30 14 1 13 7
M  V30 15 1 14 8
M  V30 16 1 15 9
M  V30 END BOND
M  V30 END CTAB
M  END
>  <i_epik_Tot_Q>  (1) 
0

>  <i_epik_Tot_abs_Q>  (1) 
0

>  <i_i_glide_confnum>  (1) 
1

>  <i_i_glide_lignum>  (1) 
42

>  <i_i_glide_posenum>  (1) 
331

>  <i_i_glide_rotatable_bonds>  (1) 
0

>  <i_lp_mmshare_version>  (1) 
72125

>  <i_m_source_file_index>  (1) 
38

>  <i_f3d_flags>  (1) 
0

>  <num_sample>  (1) 
50

>  <b_lp_Chiralities_Consistent>  (1) 
1

>  <r_epik_Charging_Adjusted_Penalty>  (1) 
0

>  <r_epik_Ionization_Penalty>  (1) 
0

>  <r_epik_Ionization_Penalty_Charging>  (1) 
0

>  <r_epik_Ionization_Penalty_Neutral>  (1) 
0

>  <r_epik_State_Penalty>  (1) 
-0

>  <r_glide_ring_energy>  (1) 
0

>  <r_i_docking_score>  (1) 
-5.8893691881253929

>  <r_i_glide_ecoul>  (1) 
-0.95720399553437208

>  <r_i_glide_eff_state_penalty>  (1) 
-0

>  <r_i_glide_einternal>  (1) 
0

>  <r_i_glide_emodel>  (1) 
-26.884470662171712

>  <r_i_glide_emodel_strain>  (1) 
4.2632564145606011e-14

>  <r_i_glide_energy>  (1) 
-19.356830439478788

>  <r_i_glide_erotb>  (1) 
0

>  <r_i_glide_esite>  (1) 
0

>  <r_i_glide_evdw>  (1) 
-18.399626443944417

>  <r_i_glide_gscore>  (1) 
-5.8893691881253929

>  <r_i_glide_gscore_strain>  (1) 
0

>  <r_i_glide_hbond>  (1) 
0

>  <r_i_glide_ligand_efficiency>  (1) 
-0.65437435423615475

>  <r_i_glide_ligand_efficiency_ln>  (1) 
-1.8420254960732676

>  <r_i_glide_ligand_efficiency_sa>  (1) 
-1.3611535084666619

>  <r_i_glide_lipo>  (1) 
-2.1471971318192784

>  <r_i_glide_metal>  (1) 
-0

>  <r_i_glide_rewards>  (1) 
-2.6786101347787388

>  <r_lp_Energy>  (1) 
12.927653999999999

>  <r_lp_tautomer_probability>  (1) 
1

>  <s_epik_cmdline>  (1) 
J2VwaWtfcHl0aG9uJywgJy1waHQnLCAnMS4wJywgJy1waCcsICc3LjQnLCAnLXRuJywgJzgnLCAnLW1hJywgJzUwMCcsICctaW1hZScsICc8aW5maWxlLm1hZT4nLCAnLW9tYWUnLCAnPG91dGZpbGUubWFlPic=

>  <s_epik_input>  (1) 
bzFbY0hdW2NIXWMoYzEyKVtjSF1bY0hdW2NIXVtjSF0y

>  <s_glide_docking_method>  (1) 
confgen

>  <s_i_glide_gridfile>  (1) 
gpcr_drd2_6luq_protein_autoprepared_prepared

>  <s_lp_Force_Field>  (1) 
S-OPLS

>  <s_lp_Variant>  (1) 
Pocket2Mol_37_num_sample_50-1

>  <s_m_source_file>  (1) 
generated__ligand_Pocket2Mol_2026-05-06_prepared.sdf

>  <GenAI_Model>  (1) 
Pocket2Mol

>  <Protein>  (1) 
generic_title2

$$$$
Pocket2Mol_31_num_sample_50
     RDKit          3D

  0  0  0  0  0  0  0  0  0  0999 V3000
M  V30 BEGIN CTAB
M  V30 COUNTS 17 18 0 0 1
M  V30 BEGIN ATOM
M  V30 1 C 10.692741 7.050443 -6.853688 0
M  V30 2 O 11.032935 6.169302 -5.717239 0
M  V30 3 C 11.434838 7.054074 -4.782749 0
M  V30 4 C 11.434837 8.347544 -5.164823 0
M  V30 5 C 11.834837 9.369302 -4.291667 0
M  V30 6 C 10.991342 8.587416 -6.541206 0
M  V30 7 C 11.834839 6.675428 -3.489077 0
M  V30 8 C 12.241456 7.673333 -2.577737 0
M  V30 9 C 12.241202 9.029496 -2.981234 0
M  V30 10 H 11.248263 6.726861 -7.734427 0
M  V30 11 H 9.634792 6.917782 -7.084963 0
M  V30 12 H 11.828357 10.398725 -4.616414 0
M  V30 13 H 10.098617 9.211269 -6.583981 0
M  V30 14 H 11.789878 9.001662 -7.157254 0
M  V30 15 H 11.830688 5.638702 -3.196697 0
M  V30 16 H 12.551708 7.403675 -1.579363 0
M  V30 17 H 12.550759 9.798424 -2.291670 0
M  V30 END ATOM
M  V30 BEGIN BOND
M  V30 1 1 2 1
M  V30 2 1 3 2
M  V30 3 1 4 3
M  V30 4 2 5 4
M  V30 5 1 6 1
M  V30 6 1 6 4
M  V30 7 2 7 3
M  V30 8 1 8 7
M  V30 9 1 9 5
M  V30 10 2 9 8
M  V30 11 1 10 1
M  V30 12 1 11 1
M  V30 13 1 12 5
M  V30 14 1 13 6
M  V30 15 1 14 6
M  V30 16 1 15 7
M  V30 17 1 16 8
M  V30 18 1 17 9
M  V30 END BOND
M  V30 END CTAB
M  END
>  <i_epik_Tot_Q>  (1) 
0

>  <i_epik_Tot_abs_Q>  (1) 
0

>  <i_i_glide_confnum>  (1) 
1

>  <i_i_glide_lignum>  (1) 
35

>  <i_i_glide_posenum>  (1) 
50

>  <i_i_glide_rotatable_bonds>  (1) 
0

>  <i_lp_mmshare_version>  (1) 
72125

>  <i_m_source_file_index>  (1) 
32

>  <i_f3d_flags>  (1) 
0

>  <num_sample>  (1) 
50

>  <b_lp_Chiralities_Consistent>  (1) 
1

>  <r_epik_Charging_Adjusted_Penalty>  (1) 
0

>  <r_epik_Ionization_Penalty>  (1) 
0

>  <r_epik_Ionization_Penalty_Charging>  (1) 
0

>  <r_epik_Ionization_Penalty_Neutral>  (1) 
0

>  <r_epik_State_Penalty>  (1) 
-0

>  <r_glide_ring_energy>  (1) 
0

>  <r_i_docking_score>  (1) 
-5.8852467033589679

>  <r_i_glide_ecoul>  (1) 
-0.26411864724455913

>  <r_i_glide_eff_state_penalty>  (1) 
-0

>  <r_i_glide_einternal>  (1) 
0

>  <r_i_glide_emodel>  (1) 
-26.70736900007882

>  <r_i_glide_emodel_strain>  (1) 
0

>  <r_i_glide_energy>  (1) 
-19.012850681617245

>  <r_i_glide_erotb>  (1) 
0

>  <r_i_glide_esite>  (1) 
0

>  <r_i_glide_evdw>  (1) 
-18.748732034372686

>  <r_i_glide_gscore>  (1) 
-5.8852467033589679

>  <r_i_glide_gscore_strain>  (1) 
0

>  <r_i_glide_hbond>  (1) 
0

>  <r_i_glide_ligand_efficiency>  (1) 
-0.65391630037321868

>  <r_i_glide_ligand_efficiency_ln>  (1) 
-1.8407361012663943

>  <r_i_glide_ligand_efficiency_sa>  (1) 
-1.3602007180362821

>  <r_i_glide_lipo>  (1) 
-2.181180832142867

>  <r_i_glide_metal>  (1) 
-0

>  <r_i_glide_rewards>  (1) 
-2.727011472410783

>  <r_lp_Energy>  (1) 
11.954839999999999

>  <r_lp_tautomer_probability>  (1) 
1

>  <s_epik_cmdline>  (1) 
J2VwaWtfcHl0aG9uJywgJy1waHQnLCAnMS4wJywgJy1waCcsICc3LjQnLCAnLXRuJywgJzgnLCAnLW1hJywgJzUwMCcsICctaW1hZScsICc8aW5maWxlLm1hZT4nLCAnLW9tYWUnLCAnPG91dGZpbGUubWFlPic=

>  <s_epik_input>  (1) 
TzFbQ0gyXVtDSDJdYyhjMTIpW2NIXVtjSF1bY0hdW2NIXTI=

>  <s_glide_docking_method>  (1) 
confgen

>  <s_i_glide_gridfile>  (1) 
gpcr_drd2_6luq_protein_autoprepared_prepared

>  <s_lp_Force_Field>  (1) 
S-OPLS

>  <s_lp_Variant>  (1) 
Pocket2Mol_31_num_sample_50-1

>  <s_m_source_file>  (1) 
generated__ligand_Pocket2Mol_2026-05-06_prepared.sdf

>  <GenAI_Model>  (1) 
Pocket2Mol

>  <Protein>  (1) 
generic_title2

$$$$
Pocket2Mol_42_num_sample_50
     RDKit          3D

  0  0  0  0  0  0  0  0  0  0999 V3000
M  V30 BEGIN CTAB
M  V30 COUNTS 16 17 0 0 1
M  V30 BEGIN ATOM
M  V30 1 C 12.499821 8.558394 -1.952837 0
M  V30 2 O 12.229353 9.596368 -3.004868 0
M  V30 3 C 11.836633 8.853282 -4.102718 0
M  V30 4 C 11.834839 7.545626 -3.884204 0
M  V30 5 C 11.426648 6.613312 -4.842102 0
M  V30 6 C 11.437461 9.391579 -5.335644 0
M  V30 7 C 11.022734 8.499609 -6.359122 0
M  V30 8 C 11.015586 7.095774 -6.108742 0
M  V30 9 N 12.243620 7.287071 -2.650387 0
M  V30 10 H 13.539342 8.595633 -1.626500 0
M  V30 11 H 11.822194 8.661529 -1.105374 0
M  V30 12 H 11.429732 5.558242 -4.624998 0
M  V30 13 H 11.439247 10.458905 -5.499171 0
M  V30 14 H 10.707814 8.881889 -7.319138 0
M  V30 15 H 10.697693 6.406169 -6.877626 0
M  V30 16 H 11.743464 6.572560 -2.139834 0
M  V30 END ATOM
M  V30 BEGIN BOND
M  V30 1 1 2 1
M  V30 2 1 3 2
M  V30 3 1 4 3
M  V30 4 2 5 4
M  V30 5 2 6 3
M  V30 6 1 7 6
M  V30 7 1 8 5
M  V30 8 2 8 7
M  V30 9 1 9 1
M  V30 10 1 9 4
M  V30 11 1 10 1
M  V30 12 1 11 1
M  V30 13 1 12 5
M  V30 14 1 13 6
M  V30 15 1 14 7
M  V30 16 1 15 8
M  V30 17 1 16 9
M  V30 END BOND
M  V30 END CTAB
M  END
>  <i_epik_Tot_Q>  (1) 
0

>  <i_epik_Tot_abs_Q>  (1) 
0

>  <i_i_glide_confnum>  (1) 
1

>  <i_i_glide_lignum>  (1) 
47

>  <i_i_glide_posenum>  (1) 
247

>  <i_i_glide_rotatable_bonds>  (1) 
0

>  <i_lp_mmshare_version>  (1) 
72125

>  <i_m_source_file_index>  (1) 
43

>  <i_f3d_flags>  (1) 
0

>  <num_sample>  (1) 
50

>  <b_lp_Chiralities_Consistent>  (1) 
1

>  <r_epik_Charging_Adjusted_Penalty>  (1) 
0

>  <r_epik_Ionization_Penalty>  (1) 
3.929707007381515e-06

>  <r_epik_Ionization_Penalty_Charging>  (1) 
0

>  <r_epik_Ionization_Penalty_Neutral>  (1) 
3.929707007381515e-06

>  <r_epik_State_Penalty>  (1) 
-0

>  <r_glide_ring_energy>  (1) 
0

>  <r_i_docking_score>  (1) 
-5.8400686466777261

>  <r_i_glide_ecoul>  (1) 
-1.3641599307508272

>  <r_i_glide_eff_state_penalty>  (1) 
-0

>  <r_i_glide_einternal>  (1) 
0

>  <r_i_glide_emodel>  (1) 
-28.534667777144985

>  <r_i_glide_emodel_strain>  (1) 
0

>  <r_i_glide_energy>  (1) 
-21.031434450908012

>  <r_i_glide_erotb>  (1) 
0

>  <r_i_glide_esite>  (1) 
0

>  <r_i_glide_evdw>  (1) 
-19.667274520157186

>  <r_i_glide_gscore>  (1) 
-5.8400686466777261

>  <r_i_glide_gscore_strain>  (1) 
0

>  <r_i_glide_hbond>  (1) 
0

>  <r_i_glide_ligand_efficiency>  (1) 
-0.64889651629752509

>  <r_i_glide_ligand_efficiency_ln>  (1) 
-1.8266057029823668

>  <r_i_glide_ligand_efficiency_sa>  (1) 
-1.3497591463852185

>  <r_i_glide_lipo>  (1) 
-1.602080931057243

>  <r_i_glide_metal>  (1) 
-0

>  <r_i_glide_rewards>  (1) 
-3.0499999999999998

>  <r_lp_Energy>  (1) 
10.457737999999999

>  <r_lp_tautomer_probability>  (1) 
1

>  <s_epik_Chemistry_Notes>  (1) 
This compound contains an acetal/aminal-like group ( X-CH(R)-Y where X, Y are N, S, or O) that may be acid/base labile, releasing an aldehyde.

>  <s_epik_cmdline>  (1) 
J2VwaWtfcHl0aG9uJywgJy1waHQnLCAnMS4wJywgJy1waCcsICc3LjQnLCAnLXRuJywgJzgnLCAnLW1hJywgJzUwMCcsICctaW1hZScsICc8aW5maWxlLm1hZT4nLCAnLW9tYWUnLCAnPG91dGZpbGUubWFlPic=

>  <s_epik_input>  (1) 
TzFbQ0gyXVtOSF1jKGMxMilbY0hdW2NIXVtjSF1bY0hdMg==

>  <s_glide_docking_method>  (1) 
confgen

>  <s_i_glide_gridfile>  (1) 
gpcr_drd2_6luq_protein_autoprepared_prepared

>  <s_lp_Force_Field>  (1) 
S-OPLS

>  <s_lp_Variant>  (1) 
Pocket2Mol_42_num_sample_50-1

>  <s_m_source_file>  (1) 
generated__ligand_Pocket2Mol_2026-05-06_prepared.sdf

>  <GenAI_Model>  (1) 
Pocket2Mol

>  <Protein>  (1) 
generic_title2

$$$$
Pocket2Mol_42_num_sample_50
     RDKit          3D

  0  0  0  0  0  0  0  0  0  0999 V3000
M  V30 BEGIN CTAB
M  V30 COUNTS 16 17 0 0 1
M  V30 BEGIN ATOM
M  V30 1 C 12.572001 8.361022 -1.920823 0
M  V30 2 O 12.271147 7.058538 -2.609652 0
M  V30 3 C 11.834838 7.454101 -3.863449 0
M  V30 4 C 11.834839 8.767887 -4.034360 0
M  V30 5 C 11.465419 9.383303 -5.236210 0
M  V30 6 C 11.434824 6.583158 -4.885586 0
M  V30 7 C 11.034839 7.138312 -6.129370 0
M  V30 8 C 11.053352 8.553309 -6.307410 0
M  V30 9 N 12.234383 9.369379 -2.927393 0
M  V30 10 H 11.924735 8.505561 -1.056240 0
M  V30 11 H 13.620207 8.476917 -1.652151 0
M  V30 12 H 11.484793 10.458226 -5.341349 0
M  V30 13 H 11.436915 5.517254 -4.731863 0
M  V30 14 H 10.723016 6.492260 -6.936874 0
M  V30 15 H 10.754861 8.987145 -7.250083 0
M  V30 16 H 12.859785 10.156549 -3.019251 0
M  V30 END ATOM
M  V30 BEGIN BOND
M  V30 1 1 2 1
M  V30 2 1 3 2
M  V30 3 1 4 3
M  V30 4 2 5 4
M  V30 5 2 6 3
M  V30 6 1 7 6
M  V30 7 1 8 5
M  V30 8 2 8 7
M  V30 9 1 9 1
M  V30 10 1 9 4
M  V30 11 1 10 1
M  V30 12 1 11 1
M  V30 13 1 12 5
M  V30 14 1 13 6
M  V30 15 1 14 7
M  V30 16 1 15 8
M  V30 17 1 16 9
M  V30 END BOND
M  V30 END CTAB
M  END
>  <i_epik_Tot_Q>  (1) 
0

>  <i_epik_Tot_abs_Q>  (1) 
0

>  <i_i_glide_confnum>  (1) 
1

>  <i_i_glide_lignum>  (1) 
47

>  <i_i_glide_posenum>  (1) 
210

>  <i_i_glide_rotatable_bonds>  (1) 
0

>  <i_lp_mmshare_version>  (1) 
72125

>  <i_m_source_file_index>  (1) 
43

>  <i_f3d_flags>  (1) 
0

>  <num_sample>  (1) 
50

>  <b_lp_Chiralities_Consistent>  (1) 
1

>  <r_epik_Charging_Adjusted_Penalty>  (1) 
0

>  <r_epik_Ionization_Penalty>  (1) 
3.929707007381515e-06

>  <r_epik_Ionization_Penalty_Charging>  (1) 
0

>  <r_epik_Ionization_Penalty_Neutral>  (1) 
3.929707007381515e-06

>  <r_epik_State_Penalty>  (1) 
-0

>  <r_glide_ring_energy>  (1) 
0

>  <r_i_docking_score>  (1) 
-5.8281866020257498

>  <r_i_glide_ecoul>  (1) 
-0.44932135882323687

>  <r_i_glide_eff_state_penalty>  (1) 
-0

>  <r_i_glide_einternal>  (1) 
0

>  <r_i_glide_emodel>  (1) 
-27.225064171082231

>  <r_i_glide_emodel_strain>  (1) 
0

>  <r_i_glide_energy>  (1) 
-19.737096719068717

>  <r_i_glide_erotb>  (1) 
0

>  <r_i_glide_esite>  (1) 
0

>  <r_i_glide_evdw>  (1) 
-19.28777536024548

>  <r_i_glide_gscore>  (1) 
-5.8281866020257498

>  <r_i_glide_gscore_strain>  (1) 
0

>  <r_i_glide_hbond>  (1) 
-0.070333570137166443

>  <r_i_glide_ligand_efficiency>  (1) 
-0.64757628911397225

>  <r_i_glide_ligand_efficiency_ln>  (1) 
-1.822889340754889

>  <r_i_glide_ligand_efficiency_sa>  (1) 
-1.3470129631779566

>  <r_i_glide_lipo>  (1) 
-1.5935126398244659

>  <r_i_glide_metal>  (1) 
-0

>  <r_i_glide_rewards>  (1) 
-3.1325534202283571

>  <r_lp_Energy>  (1) 
10.457737999999999

>  <r_lp_tautomer_probability>  (1) 
1

>  <s_epik_Chemistry_Notes>  (1) 
This compound contains an acetal/aminal-like group ( X-CH(R)-Y where X, Y are N, S, or O) that may be acid/base labile, releasing an aldehyde.

>  <s_epik_cmdline>  (1) 
J2VwaWtfcHl0aG9uJywgJy1waHQnLCAnMS4wJywgJy1waCcsICc3LjQnLCAnLXRuJywgJzgnLCAnLW1hJywgJzUwMCcsICctaW1hZScsICc8aW5maWxlLm1hZT4nLCAnLW9tYWUnLCAnPG91dGZpbGUubWFlPic=

>  <s_epik_input>  (1) 
TzFbQ0gyXVtOSF1jKGMxMilbY0hdW2NIXVtjSF1bY0hdMg==

>  <s_glide_docking_method>  (1) 
confgen

>  <s_i_glide_gridfile>  (1) 
gpcr_drd2_6luq_protein_autoprepared_prepared

>  <s_lp_Force_Field>  (1) 
S-OPLS

>  <s_lp_Variant>  (1) 
Pocket2Mol_42_num_sample_50-1

>  <s_m_source_file>  (1) 
generated__ligand_Pocket2Mol_2026-05-06_prepared.sdf

>  <GenAI_Model>  (1) 
Pocket2Mol

>  <Protein>  (1) 
generic_title2

$$$$
Pocket2Mol_36_num_sample_50
     RDKit          3D

  0  0  0  0  0  0  0  0  0  0999 V3000
M  V30 BEGIN CTAB
M  V30 COUNTS 17 18 0 0 1
M  V30 BEGIN ATOM
M  V30 1 C 11.037356 8.569310 -6.560223 0
M  V30 2 O 11.609619 9.441123 -5.676085 0
M  V30 3 C 11.834839 8.701379 -4.548368 0
M  V30 4 C 11.434839 7.427877 -4.691668 0
M  V30 5 C 11.543921 6.390903 -3.638993 0
M  V30 6 C 12.453489 9.369301 -3.398660 0
M  V30 7 C 10.910079 7.329930 -6.005454 0
M  V30 8 C 12.632512 8.305457 -2.294622 0
M  V30 9 C 12.234839 7.000744 -2.399781 0
M  V30 10 H 10.785609 8.986507 -7.523510 0
M  V30 11 H 12.121021 5.548782 -4.011827 0
M  V30 12 H 10.549878 6.036438 -3.369789 0
M  V30 13 H 11.816158 10.169301 -3.025430 0
M  V30 14 H 13.426948 9.774456 -3.670925 0
M  V30 15 H 10.488464 6.459181 -6.486690 0
M  V30 16 H 13.107781 8.640541 -1.384101 0
M  V30 17 H 12.403481 6.328938 -1.570601 0
M  V30 END ATOM
M  V30 BEGIN BOND
M  V30 1 1 2 1
M  V30 2 1 3 2
M  V30 3 2 4 3
M  V30 4 1 5 4
M  V30 5 1 6 3
M  V30 6 2 7 1
M  V30 7 1 7 4
M  V30 8 1 8 6
M  V30 9 1 9 5
M  V30 10 2 9 8
M  V30 11 1 10 1
M  V30 12 1 11 5
M  V30 13 1 12 5
M  V30 14 1 13 6
M  V30 15 1 14 6
M  V30 16 1 15 7
M  V30 17 1 16 8
M  V30 18 1 17 9
M  V30 END BOND
M  V30 END CTAB
M  END
>  <i_epik_Tot_Q>  (1) 
0

>  <i_epik_Tot_abs_Q>  (1) 
0

>  <i_i_glide_confnum>  (1) 
1

>  <i_i_glide_lignum>  (1) 
41

>  <i_i_glide_posenum>  (1) 
217

>  <i_i_glide_rotatable_bonds>  (1) 
0

>  <i_lp_mmshare_version>  (1) 
72125

>  <i_m_source_file_index>  (1) 
37

>  <i_f3d_flags>  (1) 
0

>  <num_sample>  (1) 
50

>  <b_lp_Chiralities_Consistent>  (1) 
1

>  <r_epik_Charging_Adjusted_Penalty>  (1) 
0

>  <r_epik_Ionization_Penalty>  (1) 
0

>  <r_epik_Ionization_Penalty_Charging>  (1) 
0

>  <r_epik_Ionization_Penalty_Neutral>  (1) 
0

>  <r_epik_State_Penalty>  (1) 
-0

>  <r_glide_ring_energy>  (1) 
0

>  <r_i_docking_score>  (1) 
-5.8255477160209619

>  <r_i_glide_ecoul>  (1) 
-1.1050082171107292

>  <r_i_glide_eff_state_penalty>  (1) 
-0

>  <r_i_glide_einternal>  (1) 
0

>  <r_i_glide_emodel>  (1) 
-27.209798316234117

>  <r_i_glide_emodel_strain>  (1) 
0

>  <r_i_glide_energy>  (1) 
-19.544169162186538

>  <r_i_glide_erotb>  (1) 
0

>  <r_i_glide_esite>  (1) 
0

>  <r_i_glide_evdw>  (1) 
-18.439160945075809

>  <r_i_glide_gscore>  (1) 
-5.8255477160209619

>  <r_i_glide_gscore_strain>  (1) 
0

>  <r_i_glide_hbond>  (1) 
0

>  <r_i_glide_ligand_efficiency>  (1) 
-0.64728307955788467

>  <r_i_glide_ligand_efficiency_ln>  (1) 
-1.8220639730207941

>  <r_i_glide_ligand_efficiency_sa>  (1) 
-1.3464030627235748

>  <r_i_glide_lipo>  (1) 
-2.0165595257681184

>  <r_i_glide_metal>  (1) 
-0

>  <r_i_glide_rewards>  (1) 
-2.721278910432444

>  <r_lp_Energy>  (1) 
4.5932930000000001

>  <r_lp_tautomer_probability>  (1) 
1

>  <s_epik_cmdline>  (1) 
J2VwaWtfcHl0aG9uJywgJy1waHQnLCAnMS4wJywgJy1waCcsICc3LjQnLCAnLXRuJywgJzgnLCAnLW1hJywgJzUwMCcsICctaW1hZScsICc8aW5maWxlLm1hZT4nLCAnLW9tYWUnLCAnPG91dGZpbGUubWFlPic=

>  <s_epik_input>  (1) 
bzFbY0hdW2NIXWMoYzEyKVtDSDJdW0NIXT1bQ0hdW0NIMl0y

>  <s_glide_docking_method>  (1) 
confgen

>  <s_i_glide_gridfile>  (1) 
gpcr_drd2_6luq_protein_autoprepared_prepared

>  <s_lp_Force_Field>  (1) 
S-OPLS

>  <s_lp_Variant>  (1) 
Pocket2Mol_36_num_sample_50-1

>  <s_m_source_file>  (1) 
generated__ligand_Pocket2Mol_2026-05-06_prepared.sdf

>  <GenAI_Model>  (1) 
Pocket2Mol

>  <Protein>  (1) 
generic_title2

$$$$
Pocket2Mol_40_num_sample_50
     RDKit          3D

  0  0  0  0  0  0  0  0  0  0999 V3000
M  V30 BEGIN CTAB
M  V30 COUNTS 15 16 0 0 1
M  V30 BEGIN ATOM
M  V30 1 C 11.309470 8.925162 -6.662654 0
M  V30 2 O 11.800361 9.675161 -5.512926 0
M  V30 3 C 11.834856 8.789616 -4.477180 0
M  V30 4 C 11.434836 7.502341 -4.730788 0
M  V30 5 C 11.435917 6.528621 -3.725993 0
M  V30 6 C 12.262536 9.161695 -3.190019 0
M  V30 7 C 12.278625 8.199004 -2.157740 0
M  V30 8 S 10.942483 7.143229 -6.327438 0
M  V30 9 C 11.862506 6.875589 -2.426782 0
M  V30 10 H 10.383926 9.369259 -7.021463 0
M  V30 11 H 12.038767 8.993519 -7.469562 0
M  V30 12 H 11.116475 5.523511 -3.945200 0
M  V30 13 H 12.577875 10.169301 -2.991860 0
M  V30 14 H 12.607198 8.474216 -1.165223 0
M  V30 15 H 11.870788 6.133106 -1.642385 0
M  V30 END ATOM
M  V30 BEGIN BOND
M  V30 1 1 2 1
M  V30 2 1 3 2
M  V30 3 1 4 3
M  V30 4 2 5 4
M  V30 5 2 6 3
M  V30 6 1 7 6
M  V30 7 1 8 1
M  V30 8 1 8 4
M  V30 9 1 9 5
M  V30 10 2 9 7
M  V30 11 1 10 1
M  V30 12 1 11 1
M  V30 13 1 12 5
M  V30 14 1 13 6
M  V30 15 1 14 7
M  V30 16 1 15 9
M  V30 END BOND
M  V30 END CTAB
M  END
>  <i_epik_Tot_Q>  (1) 
0

>  <i_epik_Tot_abs_Q>  (1) 
0

>  <i_i_glide_confnum>  (1) 
1

>  <i_i_glide_lignum>  (1) 
45

>  <i_i_glide_posenum>  (1) 
119

>  <i_i_glide_rotatable_bonds>  (1) 
0

>  <i_lp_mmshare_version>  (1) 
72125

>  <i_m_source_file_index>  (1) 
41

>  <i_f3d_flags>  (1) 
0

>  <num_sample>  (1) 
50

>  <b_lp_Chiralities_Consistent>  (1) 
1

>  <r_epik_Charging_Adjusted_Penalty>  (1) 
0

>  <r_epik_Ionization_Penalty>  (1) 
0

>  <r_epik_Ionization_Penalty_Charging>  (1) 
0

>  <r_epik_Ionization_Penalty_Neutral>  (1) 
0

>  <r_epik_State_Penalty>  (1) 
-0

>  <r_glide_ring_energy>  (1) 
0

>  <r_i_docking_score>  (1) 
-5.7840338625230334

>  <r_i_glide_ecoul>  (1) 
-0.409916111648017

>  <r_i_glide_eff_state_penalty>  (1) 
-0

>  <r_i_glide_einternal>  (1) 
0

>  <r_i_glide_emodel>  (1) 
-27.889152797600328

>  <r_i_glide_emodel_strain>  (1) 
0

>  <r_i_glide_energy>  (1) 
-20.28974866722443

>  <r_i_glide_erotb>  (1) 
0

>  <r_i_glide_esite>  (1) 
0

>  <r_i_glide_evdw>  (1) 
-19.879832555576414

>  <r_i_glide_gscore>  (1) 
-5.7840338625230334

>  <r_i_glide_gscore_strain>  (1) 
0

>  <r_i_glide_hbond>  (1) 
0

>  <r_i_glide_ligand_efficiency>  (1) 
-0.6426704291692259

>  <r_i_glide_ligand_efficiency_ln>  (1) 
-1.8090796322296585

>  <r_i_glide_ligand_efficiency_sa>  (1) 
-1.3368083632687318

>  <r_i_glide_lipo>  (1) 
-2.077603961684086

>  <r_i_glide_metal>  (1) 
-0

>  <r_i_glide_rewards>  (1) 
-2.6509508563129249

>  <r_lp_Energy>  (1) 
5.8399909999999995

>  <r_lp_tautomer_probability>  (1) 
1

>  <s_epik_Chemistry_Notes>  (1) 
This compound contains an acetal/aminal-like group ( X-CH(R)-Y where X, Y are N, S, or O) that may be acid/base labile, releasing an aldehyde.

>  <s_epik_cmdline>  (1) 
J2VwaWtfcHl0aG9uJywgJy1waHQnLCAnMS4wJywgJy1waCcsICc3LjQnLCAnLXRuJywgJzgnLCAnLW1hJywgJzUwMCcsICctaW1hZScsICc8aW5maWxlLm1hZT4nLCAnLW9tYWUnLCAnPG91dGZpbGUubWFlPic=

>  <s_epik_input>  (1) 
TzFbQ0gyXVNjKGMxMilbY0hdW2NIXVtjSF1bY0hdMg==

>  <s_glide_docking_method>  (1) 
confgen

>  <s_i_glide_gridfile>  (1) 
gpcr_drd2_6luq_protein_autoprepared_prepared

>  <s_lp_Force_Field>  (1) 
S-OPLS

>  <s_lp_Variant>  (1) 
Pocket2Mol_40_num_sample_50-1

>  <s_m_source_file>  (1) 
generated__ligand_Pocket2Mol_2026-05-06_prepared.sdf

>  <GenAI_Model>  (1) 
Pocket2Mol

>  <Protein>  (1) 
generic_title2

$$$$
Pocket2Mol_31_num_sample_50
     RDKit          3D

  0  0  0  0  0  0  0  0  0  0999 V3000
M  V30 BEGIN CTAB
M  V30 COUNTS 17 18 0 0 1
M  V30 BEGIN ATOM
M  V30 1 C 11.149900 8.843737 -6.643196 0
M  V30 2 O 11.034895 7.466360 -6.124398 0
M  V30 3 C 11.434838 7.619512 -4.843539 0
M  V30 4 C 11.834839 8.860323 -4.496668 0
M  V30 5 C 12.267762 9.154486 -3.191893 0
M  V30 6 C 11.777739 9.850027 -5.573219 0
M  V30 7 C 11.434839 6.569301 -3.914844 0
M  V30 8 C 11.866334 6.819375 -2.592256 0
M  V30 9 C 12.285345 8.122739 -2.228352 0
M  V30 10 H 11.738571 8.842027 -7.561071 0
M  V30 11 H 10.146601 9.174393 -6.913586 0
M  V30 12 H 12.583087 10.152029 -2.928657 0
M  V30 13 H 11.126953 10.691083 -5.333229 0
M  V30 14 H 12.776608 10.184413 -5.853220 0
M  V30 15 H 11.108514 5.584922 -4.207818 0
M  V30 16 H 11.873635 6.021478 -1.863678 0
M  V30 17 H 12.615448 8.327018 -1.220365 0
M  V30 END ATOM
M  V30 BEGIN BOND
M  V30 1 1 2 1
M  V30 2 1 3 2
M  V30 3 1 4 3
M  V30 4 2 5 4
M  V30 5 1 6 1
M  V30 6 1 6 4
M  V30 7 2 7 3
M  V30 8 1 8 7
M  V30 9 1 9 5
M  V30 10 2 9 8
M  V30 11 1 10 1
M  V30 12 1 11 1
M  V30 13 1 12 5
M  V30 14 1 13 6
M  V30 15 1 14 6
M  V30 16 1 15 7
M  V30 17 1 16 8
M  V30 18 1 17 9
M  V30 END BOND
M  V30 END CTAB
M  END
>  <i_epik_Tot_Q>  (1) 
0

>  <i_epik_Tot_abs_Q>  (1) 
0

>  <i_i_glide_confnum>  (1) 
1

>  <i_i_glide_lignum>  (1) 
35

>  <i_i_glide_posenum>  (1) 
77

>  <i_i_glide_rotatable_bonds>  (1) 
0

>  <i_lp_mmshare_version>  (1) 
72125

>  <i_m_source_file_index>  (1) 
32

>  <i_f3d_flags>  (1) 
0

>  <num_sample>  (1) 
50

>  <b_lp_Chiralities_Consistent>  (1) 
1

>  <r_epik_Charging_Adjusted_Penalty>  (1) 
0

>  <r_epik_Ionization_Penalty>  (1) 
0

>  <r_epik_Ionization_Penalty_Charging>  (1) 
0

>  <r_epik_Ionization_Penalty_Neutral>  (1) 
0

>  <r_epik_State_Penalty>  (1) 
-0

>  <r_glide_ring_energy>  (1) 
0

>  <r_i_docking_score>  (1) 
-5.7588288754816608

>  <r_i_glide_ecoul>  (1) 
-0.42127388351248646

>  <r_i_glide_eff_state_penalty>  (1) 
-0

>  <r_i_glide_einternal>  (1) 
0

>  <r_i_glide_emodel>  (1) 
-27.086016349021783

>  <r_i_glide_emodel_strain>  (1) 
0

>  <r_i_glide_energy>  (1) 
-19.556779851597017

>  <r_i_glide_erotb>  (1) 
0

>  <r_i_glide_esite>  (1) 
0

>  <r_i_glide_evdw>  (1) 
-19.13550596808453

>  <r_i_glide_gscore>  (1) 
-5.7588288754816608

>  <r_i_glide_gscore_strain>  (1) 
0

>  <r_i_glide_hbond>  (1) 
0

>  <r_i_glide_ligand_efficiency>  (1) 
-0.63986987505351789

>  <r_i_glide_ligand_efficiency_ln>  (1) 
-1.801196236355612

>  <r_i_glide_ligand_efficiency_sa>  (1) 
-1.3309829759570659

>  <r_i_glide_lipo>  (1) 
-2.1971958278838937

>  <r_i_glide_metal>  (1) 
-0

>  <r_i_glide_rewards>  (1) 
-2.5416666666666665

>  <r_lp_Energy>  (1) 
11.954839999999999

>  <r_lp_tautomer_probability>  (1) 
1

>  <s_epik_cmdline>  (1) 
J2VwaWtfcHl0aG9uJywgJy1waHQnLCAnMS4wJywgJy1waCcsICc3LjQnLCAnLXRuJywgJzgnLCAnLW1hJywgJzUwMCcsICctaW1hZScsICc8aW5maWxlLm1hZT4nLCAnLW9tYWUnLCAnPG91dGZpbGUubWFlPic=

>  <s_epik_input>  (1) 
TzFbQ0gyXVtDSDJdYyhjMTIpW2NIXVtjSF1bY0hdW2NIXTI=

>  <s_glide_docking_method>  (1) 
confgen

>  <s_i_glide_gridfile>  (1) 
gpcr_drd2_6luq_protein_autoprepared_prepared

>  <s_lp_Force_Field>  (1) 
S-OPLS

>  <s_lp_Variant>  (1) 
Pocket2Mol_31_num_sample_50-1

>  <s_m_source_file>  (1) 
generated__ligand_Pocket2Mol_2026-05-06_prepared.sdf

>  <GenAI_Model>  (1) 
Pocket2Mol

>  <Protein>  (1) 
generic_title2

$$$$
Pocket2Mol_37_num_sample_50
     RDKit          3D

  0  0  0  0  0  0  0  0  0  0999 V3000
M  V30 BEGIN CTAB
M  V30 COUNTS 15 16 0 0 1
M  V30 BEGIN ATOM
M  V30 1 C 11.264293 8.915216 -6.521089 0
M  V30 2 O 11.739994 9.675936 -5.465440 0
M  V30 3 C 11.845017 8.832893 -4.384594 0
M  V30 4 C 11.434733 7.545984 -4.758118 0
M  V30 5 C 11.478759 6.546409 -3.760733 0
M  V30 6 C 12.286271 9.162168 -3.099011 0
M  V30 7 C 11.052368 7.608806 -6.130972 0
M  V30 8 C 12.330257 8.159970 -2.119228 0
M  V30 9 C 11.926241 6.847942 -2.449243 0
M  V30 10 H 11.131502 9.431435 -7.455624 0
M  V30 11 H 11.165767 5.543634 -4.002197 0
M  V30 12 H 12.590926 10.169301 -2.863173 0
M  V30 13 H 10.680624 6.792680 -6.733126 0
M  V30 14 H 12.670636 8.389707 -1.120263 0
M  V30 15 H 11.954530 6.068856 -1.699085 0
M  V30 END ATOM
M  V30 BEGIN BOND
M  V30 1 1 2 1
M  V30 2 1 3 2
M  V30 3 1 4 3
M  V30 4 2 5 4
M  V30 5 2 6 3
M  V30 6 2 7 1
M  V30 7 1 7 4
M  V30 8 1 8 6
M  V30 9 1 9 5
M  V30 10 2 9 8
M  V30 11 1 10 1
M  V30 12 1 11 5
M  V30 13 1 12 6
M  V30 14 1 13 7
M  V30 15 1 14 8
M  V30 16 1 15 9
M  V30 END BOND
M  V30 END CTAB
M  END
>  <i_epik_Tot_Q>  (1) 
0

>  <i_epik_Tot_abs_Q>  (1) 
0

>  <i_i_glide_confnum>  (1) 
1

>  <i_i_glide_lignum>  (1) 
42

>  <i_i_glide_posenum>  (1) 
30

>  <i_i_glide_rotatable_bonds>  (1) 
0

>  <i_lp_mmshare_version>  (1) 
72125

>  <i_m_source_file_index>  (1) 
38

>  <i_f3d_flags>  (1) 
0

>  <num_sample>  (1) 
50

>  <b_lp_Chiralities_Consistent>  (1) 
1

>  <r_epik_Charging_Adjusted_Penalty>  (1) 
0

>  <r_epik_Ionization_Penalty>  (1) 
0

>  <r_epik_Ionization_Penalty_Charging>  (1) 
0

>  <r_epik_Ionization_Penalty_Neutral>  (1) 
0

>  <r_epik_State_Penalty>  (1) 
-0

>  <r_glide_ring_energy>  (1) 
0

>  <r_i_docking_score>  (1) 
-5.6396055412168167

>  <r_i_glide_ecoul>  (1) 
-1.2583134727208558

>  <r_i_glide_eff_state_penalty>  (1) 
-0

>  <r_i_glide_einternal>  (1) 
0

>  <r_i_glide_emodel>  (1) 
-26.297870801489609

>  <r_i_glide_emodel_strain>  (1) 
0

>  <r_i_glide_energy>  (1) 
-19.089472048396875

>  <r_i_glide_erotb>  (1) 
0

>  <r_i_glide_esite>  (1) 
0

>  <r_i_glide_evdw>  (1) 
-17.831158575676017

>  <r_i_glide_gscore>  (1) 
-5.6396055412168167

>  <r_i_glide_gscore_strain>  (1) 
0

>  <r_i_glide_hbond>  (1) 
0

>  <r_i_glide_ligand_efficiency>  (1) 
-0.62662283791297968

>  <r_i_glide_ligand_efficiency_ln>  (1) 
-1.763906602368069

>  <r_i_glide_ligand_efficiency_sa>  (1) 
-1.3034280282976645

>  <r_i_glide_lipo>  (1) 
-2.0972918106594869

>  <r_i_glide_metal>  (1) 
-0

>  <r_i_glide_rewards>  (1) 
-2.4620087808654008

>  <r_lp_Energy>  (1) 
12.927653999999999

>  <r_lp_tautomer_probability>  (1) 
1

>  <s_epik_cmdline>  (1) 
J2VwaWtfcHl0aG9uJywgJy1waHQnLCAnMS4wJywgJy1waCcsICc3LjQnLCAnLXRuJywgJzgnLCAnLW1hJywgJzUwMCcsICctaW1hZScsICc8aW5maWxlLm1hZT4nLCAnLW9tYWUnLCAnPG91dGZpbGUubWFlPic=

>  <s_epik_input>  (1) 
bzFbY0hdW2NIXWMoYzEyKVtjSF1bY0hdW2NIXVtjSF0y

>  <s_glide_docking_method>  (1) 
confgen

>  <s_i_glide_gridfile>  (1) 
gpcr_drd2_6luq_protein_autoprepared_prepared

>  <s_lp_Force_Field>  (1) 
S-OPLS

>  <s_lp_Variant>  (1) 
Pocket2Mol_37_num_sample_50-1

>  <s_m_source_file>  (1) 
generated__ligand_Pocket2Mol_2026-05-06_prepared.sdf

>  <GenAI_Model>  (1) 
Pocket2Mol

>  <Protein>  (1) 
generic_title2

$$$$
Pocket2Mol_38_num_sample_50
     RDKit          3D

  0  0  0  0  0  0  0  0  0  0999 V3000
M  V30 BEGIN CTAB
M  V30 COUNTS 14 15 0 0 1
M  V30 BEGIN ATOM
M  V30 1 C 9.824713 7.803616 -7.398031 0
M  V30 2 O 10.402433 8.969256 -6.932952 0
M  V30 3 C 11.052382 8.656640 -5.766881 0
M  V30 4 C 10.895556 7.295289 -5.491137 0
M  V30 5 C 11.515816 6.803722 -4.294738 0
M  V30 6 C 11.764236 9.512591 -4.947224 0
M  V30 7 C 10.103152 6.747608 -6.550237 0
M  V30 8 N 12.234201 7.659122 -3.491667 0
M  V30 9 C 12.344417 8.969983 -3.806532 0
M  V30 10 H 9.259762 7.887206 -8.318187 0
M  V30 11 H 11.445258 5.769374 -3.997310 0
M  V30 12 H 11.863226 10.560242 -5.184979 0
M  V30 13 H 9.785829 5.722883 -6.653710 0
M  V30 14 H 12.912679 9.588330 -3.126285 0
M  V30 END ATOM
M  V30 BEGIN BOND
M  V30 1 1 2 1
M  V30 2 1 3 2
M  V30 3 2 4 3
M  V30 4 1 5 4
M  V30 5 1 6 3
M  V30 6 2 7 1
M  V30 7 1 7 4
M  V30 8 2 8 5
M  V30 9 2 9 6
M  V30 10 1 9 8
M  V30 11 1 10 1
M  V30 12 1 11 5
M  V30 13 1 12 6
M  V30 14 1 13 7
M  V30 15 1 14 9
M  V30 END BOND
M  V30 END CTAB
M  END
>  <i_epik_Tot_Q>  (1) 
0

>  <i_epik_Tot_abs_Q>  (1) 
0

>  <i_i_glide_confnum>  (1) 
1

>  <i_i_glide_lignum>  (1) 
43

>  <i_i_glide_posenum>  (1) 
36

>  <i_i_glide_rotatable_bonds>  (1) 
0

>  <i_lp_mmshare_version>  (1) 
72125

>  <i_m_source_file_index>  (1) 
39

>  <i_f3d_flags>  (1) 
0

>  <num_sample>  (1) 
50

>  <b_lp_Chiralities_Consistent>  (1) 
1

>  <r_epik_Charging_Adjusted_Penalty>  (1) 
0

>  <r_epik_Ionization_Penalty>  (1) 
0.00075511756769225586

>  <r_epik_Ionization_Penalty_Charging>  (1) 
0

>  <r_epik_Ionization_Penalty_Neutral>  (1) 
0.00075511756769225586

>  <r_epik_State_Penalty>  (1) 
-0

>  <r_glide_ring_energy>  (1) 
0

>  <r_i_docking_score>  (1) 
-5.6322507545838096

>  <r_i_glide_ecoul>  (1) 
-1.5577834518982361

>  <r_i_glide_eff_state_penalty>  (1) 
-0

>  <r_i_glide_einternal>  (1) 
0

>  <r_i_glide_emodel>  (1) 
-28.232388662523885

>  <r_i_glide_emodel_strain>  (1) 
0

>  <r_i_glide_energy>  (1) 
-20.826221884877121

>  <r_i_glide_erotb>  (1) 
0

>  <r_i_glide_esite>  (1) 
0

>  <r_i_glide_evdw>  (1) 
-19.268438432978886

>  <r_i_glide_gscore>  (1) 
-5.6322507545838096

>  <r_i_glide_gscore_strain>  (1) 
0

>  <r_i_glide_hbond>  (1) 
0

>  <r_i_glide_ligand_efficiency>  (1) 
-0.62580563939820111

>  <r_i_glide_ligand_efficiency_ln>  (1) 
-1.7616062363927973

>  <r_i_glide_ligand_efficiency_sa>  (1) 
-1.3017281868868515

>  <r_i_glide_lipo>  (1) 
-1.6724992518610677

>  <r_i_glide_metal>  (1) 
-0

>  <r_i_glide_rewards>  (1) 
-2.7626620632890613

>  <r_lp_Energy>  (1) 
12.667646999999999

>  <r_lp_tautomer_probability>  (1) 
1

>  <s_epik_cmdline>  (1) 
J2VwaWtfcHl0aG9uJywgJy1waHQnLCAnMS4wJywgJy1waCcsICc3LjQnLCAnLXRuJywgJzgnLCAnLW1hJywgJzUwMCcsICctaW1hZScsICc8aW5maWxlLm1hZT4nLCAnLW9tYWUnLCAnPG91dGZpbGUubWFlPic=

>  <s_epik_input>  (1) 
bzFbY0hdW2NIXWMoYzEyKVtjSF1uW2NIXVtjSF0y

>  <s_glide_docking_method>  (1) 
confgen

>  <s_i_glide_gridfile>  (1) 
gpcr_drd2_6luq_protein_autoprepared_prepared

>  <s_lp_Force_Field>  (1) 
S-OPLS

>  <s_lp_Variant>  (1) 
Pocket2Mol_38_num_sample_50-1

>  <s_m_source_file>  (1) 
generated__ligand_Pocket2Mol_2026-05-06_prepared.sdf

>  <GenAI_Model>  (1) 
Pocket2Mol

>  <Protein>  (1) 
generic_title2

$$$$
Pocket2Mol_38_num_sample_50
     RDKit          3D

  0  0  0  0  0  0  0  0  0  0999 V3000
M  V30 BEGIN CTAB
M  V30 COUNTS 14 15 0 0 1
M  V30 BEGIN ATOM
M  V30 1 C 12.243175 7.439465 -2.562147 0
M  V30 2 O 11.687272 6.569301 -3.482028 0
M  V30 3 C 11.434839 7.296962 -4.618876 0
M  V30 4 C 11.834839 8.626360 -4.424498 0
M  V30 5 C 11.640984 9.523164 -5.523382 0
M  V30 6 C 10.875701 6.845902 -5.798613 0
M  V30 7 C 12.354857 8.712986 -3.093388 0
M  V30 8 N 11.091304 9.061902 -6.691667 0
M  V30 9 C 10.715511 7.769699 -6.821469 0
M  V30 10 H 12.499042 7.012284 -1.603899 0
M  V30 11 H 11.915350 10.566460 -5.468665 0
M  V30 12 H 10.572591 5.817060 -5.918569 0
M  V30 13 H 12.750427 9.595755 -2.611465 0
M  V30 14 H 10.281417 7.480351 -7.767698 0
M  V30 END ATOM
M  V30 BEGIN BOND
M  V30 1 1 2 1
M  V30 2 1 3 2
M  V30 3 2 4 3
M  V30 4 1 5 4
M  V30 5 1 6 3
M  V30 6 2 7 1
M  V30 7 1 7 4
M  V30 8 2 8 5
M  V30 9 2 9 6
M  V30 10 1 9 8
M  V30 11 1 10 1
M  V30 12 1 11 5
M  V30 13 1 12 6
M  V30 14 1 13 7
M  V30 15 1 14 9
M  V30 END BOND
M  V30 END CTAB
M  END
>  <i_epik_Tot_Q>  (1) 
0

>  <i_epik_Tot_abs_Q>  (1) 
0

>  <i_i_glide_confnum>  (1) 
1

>  <i_i_glide_lignum>  (1) 
43

>  <i_i_glide_posenum>  (1) 
90

>  <i_i_glide_rotatable_bonds>  (1) 
0

>  <i_lp_mmshare_version>  (1) 
72125

>  <i_m_source_file_index>  (1) 
39

>  <i_f3d_flags>  (1) 
0

>  <num_sample>  (1) 
50

>  <b_lp_Chiralities_Consistent>  (1) 
1

>  <r_epik_Charging_Adjusted_Penalty>  (1) 
0

>  <r_epik_Ionization_Penalty>  (1) 
0.00075511756769225586

>  <r_epik_Ionization_Penalty_Charging>  (1) 
0

>  <r_epik_Ionization_Penalty_Neutral>  (1) 
0.00075511756769225586

>  <r_epik_State_Penalty>  (1) 
-0

>  <r_glide_ring_energy>  (1) 
0

>  <r_i_docking_score>  (1) 
-5.6194661989582704

>  <r_i_glide_ecoul>  (1) 
-0.5819256207137623

>  <r_i_glide_eff_state_penalty>  (1) 
-0

>  <r_i_glide_einternal>  (1) 
0

>  <r_i_glide_emodel>  (1) 
-27.734555882272357

>  <r_i_glide_emodel_strain>  (1) 
0

>  <r_i_glide_energy>  (1) 
-20.345200243771661

>  <r_i_glide_erotb>  (1) 
0

>  <r_i_glide_esite>  (1) 
0

>  <r_i_glide_evdw>  (1) 
-19.7632746230579

>  <r_i_glide_gscore>  (1) 
-5.6194661989582704

>  <r_i_glide_gscore_strain>  (1) 
0

>  <r_i_glide_hbond>  (1) 
0

>  <r_i_glide_ligand_efficiency>  (1) 
-0.6243851332175856

>  <r_i_glide_ligand_efficiency_ln>  (1) 
-1.7576075946595378

>  <r_i_glide_ligand_efficiency_sa>  (1) 
-1.2987734149600081

>  <r_i_glide_lipo>  (1) 
-1.8433669620832027

>  <r_i_glide_metal>  (1) 
-0

>  <r_i_glide_rewards>  (1) 
-2.7006466626151089

>  <r_lp_Energy>  (1) 
12.667646999999999

>  <r_lp_tautomer_probability>  (1) 
1

>  <s_epik_cmdline>  (1) 
J2VwaWtfcHl0aG9uJywgJy1waHQnLCAnMS4wJywgJy1waCcsICc3LjQnLCAnLXRuJywgJzgnLCAnLW1hJywgJzUwMCcsICctaW1hZScsICc8aW5maWxlLm1hZT4nLCAnLW9tYWUnLCAnPG91dGZpbGUubWFlPic=

>  <s_epik_input>  (1) 
bzFbY0hdW2NIXWMoYzEyKVtjSF1uW2NIXVtjSF0y

>  <s_glide_docking_method>  (1) 
confgen

>  <s_i_glide_gridfile>  (1) 
gpcr_drd2_6luq_protein_autoprepared_prepared

>  <s_lp_Force_Field>  (1) 
S-OPLS

>  <s_lp_Variant>  (1) 
Pocket2Mol_38_num_sample_50-1

>  <s_m_source_file>  (1) 
generated__ligand_Pocket2Mol_2026-05-06_prepared.sdf

>  <GenAI_Model>  (1) 
Pocket2Mol

>  <Protein>  (1) 
generic_title2

$$$$
Pocket2Mol_38_num_sample_50
     RDKit          3D

  0  0  0  0  0  0  0  0  0  0999 V3000
M  V30 BEGIN CTAB
M  V30 COUNTS 14 15 0 0 1
M  V30 BEGIN ATOM
M  V30 1 C 12.539689 8.366892 -2.008047 0
M  V30 2 O 12.262870 9.369301 -2.917314 0
M  V30 3 C 11.834839 8.760212 -4.067579 0
M  V30 4 C 11.834842 7.371406 -3.891669 0
M  V30 5 C 11.405980 6.581900 -5.006067 0
M  V30 6 C 11.441454 9.369301 -5.245340 0
M  V30 7 C 12.289431 7.121706 -2.558165 0
M  V30 8 N 11.024680 7.194244 -6.173611 0
M  V30 9 C 11.036268 8.541720 -6.285397 0
M  V30 10 H 12.894436 8.693102 -1.041459 0
M  V30 11 H 11.371760 5.507050 -4.963553 0
M  V30 12 H 11.446299 10.443283 -5.351053 0
M  V30 13 H 12.408782 6.155408 -2.088111 0
M  V30 14 H 10.715405 8.955454 -7.230429 0
M  V30 END ATOM
M  V30 BEGIN BOND
M  V30 1 1 2 1
M  V30 2 1 3 2
M  V30 3 2 4 3
M  V30 4 1 5 4
M  V30 5 1 6 3
M  V30 6 2 7 1
M  V30 7 1 7 4
M  V30 8 2 8 5
M  V30 9 2 9 6
M  V30 10 1 9 8
M  V30 11 1 10 1
M  V30 12 1 11 5
M  V30 13 1 12 6
M  V30 14 1 13 7
M  V30 15 1 14 9
M  V30 END BOND
M  V30 END CTAB
M  END
>  <i_epik_Tot_Q>  (1) 
0

>  <i_epik_Tot_abs_Q>  (1) 
0

>  <i_i_glide_confnum>  (1) 
1

>  <i_i_glide_lignum>  (1) 
43

>  <i_i_glide_posenum>  (1) 
276

>  <i_i_glide_rotatable_bonds>  (1) 
0

>  <i_lp_mmshare_version>  (1) 
72125

>  <i_m_source_file_index>  (1) 
39

>  <i_f3d_flags>  (1) 
0

>  <num_sample>  (1) 
50

>  <b_lp_Chiralities_Consistent>  (1) 
1

>  <r_epik_Charging_Adjusted_Penalty>  (1) 
0

>  <r_epik_Ionization_Penalty>  (1) 
0.00075511756769225586

>  <r_epik_Ionization_Penalty_Charging>  (1) 
0

>  <r_epik_Ionization_Penalty_Neutral>  (1) 
0.00075511756769225586

>  <r_epik_State_Penalty>  (1) 
-0

>  <r_glide_ring_energy>  (1) 
0

>  <r_i_docking_score>  (1) 
-5.5820603913524698

>  <r_i_glide_ecoul>  (1) 
-0.26878244341290686

>  <r_i_glide_eff_state_penalty>  (1) 
-0

>  <r_i_glide_einternal>  (1) 
0

>  <r_i_glide_emodel>  (1) 
-27.675085381983749

>  <r_i_glide_emodel_strain>  (1) 
0

>  <r_i_glide_energy>  (1) 
-20.334916766868979

>  <r_i_glide_erotb>  (1) 
0

>  <r_i_glide_esite>  (1) 
0

>  <r_i_glide_evdw>  (1) 
-20.066134323456073

>  <r_i_glide_gscore>  (1) 
-5.5820603913524698

>  <r_i_glide_gscore_strain>  (1) 
0

>  <r_i_glide_hbond>  (1) 
0

>  <r_i_glide_ligand_efficiency>  (1) 
-0.62022893237249666

>  <r_i_glide_ligand_efficiency_ln>  (1) 
-1.7459081326101857

>  <r_i_glide_ligand_efficiency_sa>  (1) 
-1.2901281688167838

>  <r_i_glide_lipo>  (1) 
-1.9717696420010637

>  <r_i_glide_metal>  (1) 
-0

>  <r_i_glide_rewards>  (1) 
-2.5666666666666664

>  <r_lp_Energy>  (1) 
12.667646999999999

>  <r_lp_tautomer_probability>  (1) 
1

>  <s_epik_cmdline>  (1) 
J2VwaWtfcHl0aG9uJywgJy1waHQnLCAnMS4wJywgJy1waCcsICc3LjQnLCAnLXRuJywgJzgnLCAnLW1hJywgJzUwMCcsICctaW1hZScsICc8aW5maWxlLm1hZT4nLCAnLW9tYWUnLCAnPG91dGZpbGUubWFlPic=

>  <s_epik_input>  (1) 
bzFbY0hdW2NIXWMoYzEyKVtjSF1uW2NIXVtjSF0y

>  <s_glide_docking_method>  (1) 
confgen

>  <s_i_glide_gridfile>  (1) 
gpcr_drd2_6luq_protein_autoprepared_prepared

>  <s_lp_Force_Field>  (1) 
S-OPLS

>  <s_lp_Variant>  (1) 
Pocket2Mol_38_num_sample_50-1

>  <s_m_source_file>  (1) 
generated__ligand_Pocket2Mol_2026-05-06_prepared.sdf

>  <GenAI_Model>  (1) 
Pocket2Mol

>  <Protein>  (1) 
generic_title2

$$$$
Pocket2Mol_38_num_sample_50
     RDKit          3D

  0  0  0  0  0  0  0  0  0  0999 V3000
M  V30 BEGIN CTAB
M  V30 COUNTS 14 15 0 0 1
M  V30 BEGIN ATOM
M  V30 1 C 11.218574 8.949208 -6.601688 0
M  V30 2 O 11.055585 7.655183 -6.147464 0
M  V30 3 C 11.434839 7.645224 -4.828206 0
M  V30 4 C 11.834838 8.928764 -4.441845 0
M  V30 5 C 12.260452 9.087935 -3.082501 0
M  V30 6 C 11.434843 6.569302 -3.966010 0
M  V30 7 C 11.691257 9.769860 -5.591604 0
M  V30 8 N 12.264178 8.009122 -2.234206 0
M  V30 9 C 11.861496 6.792262 -2.664228 0
M  V30 10 H 10.960437 9.120584 -7.636637 0
M  V30 11 H 12.584816 10.039589 -2.691665 0
M  V30 12 H 11.113591 5.593406 -4.291667 0
M  V30 13 H 11.908427 10.825820 -5.649580 0
M  V30 14 H 11.883137 5.987821 -1.942934 0
M  V30 END ATOM
M  V30 BEGIN BOND
M  V30 1 1 2 1
M  V30 2 1 3 2
M  V30 3 2 4 3
M  V30 4 1 5 4
M  V30 5 1 6 3
M  V30 6 2 7 1
M  V30 7 1 7 4
M  V30 8 2 8 5
M  V30 9 2 9 6
M  V30 10 1 9 8
M  V30 11 1 10 1
M  V30 12 1 11 5
M  V30 13 1 12 6
M  V30 14 1 13 7
M  V30 15 1 14 9
M  V30 END BOND
M  V30 END CTAB
M  END
>  <i_epik_Tot_Q>  (1) 
0

>  <i_epik_Tot_abs_Q>  (1) 
0

>  <i_i_glide_confnum>  (1) 
1

>  <i_i_glide_lignum>  (1) 
43

>  <i_i_glide_posenum>  (1) 
62

>  <i_i_glide_rotatable_bonds>  (1) 
0

>  <i_lp_mmshare_version>  (1) 
72125

>  <i_m_source_file_index>  (1) 
39

>  <i_f3d_flags>  (1) 
0

>  <num_sample>  (1) 
50

>  <b_lp_Chiralities_Consistent>  (1) 
1

>  <r_epik_Charging_Adjusted_Penalty>  (1) 
0

>  <r_epik_Ionization_Penalty>  (1) 
0.00075511756769225586

>  <r_epik_Ionization_Penalty_Charging>  (1) 
0

>  <r_epik_Ionization_Penalty_Neutral>  (1) 
0.00075511756769225586

>  <r_epik_State_Penalty>  (1) 
-0

>  <r_glide_ring_energy>  (1) 
0

>  <r_i_docking_score>  (1) 
-5.5723198615459504

>  <r_i_glide_ecoul>  (1) 
-0.9555249050378205

>  <r_i_glide_eff_state_penalty>  (1) 
-0

>  <r_i_glide_einternal>  (1) 
0

>  <r_i_glide_emodel>  (1) 
-27.931250793001375

>  <r_i_glide_emodel_strain>  (1) 
0

>  <r_i_glide_energy>  (1) 
-20.603890554394173

>  <r_i_glide_erotb>  (1) 
0

>  <r_i_glide_esite>  (1) 
0

>  <r_i_glide_evdw>  (1) 
-19.648365649356354

>  <r_i_glide_gscore>  (1) 
-5.5723198615459504

>  <r_i_glide_gscore_strain>  (1) 
0

>  <r_i_glide_hbond>  (1) 
0

>  <r_i_glide_ligand_efficiency>  (1) 
-0.61914665128288338

>  <r_i_glide_ligand_efficiency_ln>  (1) 
-1.7428615747063194

>  <r_i_glide_ligand_efficiency_sa>  (1) 
-1.2878769334302844

>  <r_i_glide_lipo>  (1) 
-1.8965728433224602

>  <r_i_glide_metal>  (1) 
-0

>  <r_i_glide_rewards>  (1) 
-2.5499999999999998

>  <r_lp_Energy>  (1) 
12.667646999999999

>  <r_lp_tautomer_probability>  (1) 
1

>  <s_epik_cmdline>  (1) 
J2VwaWtfcHl0aG9uJywgJy1waHQnLCAnMS4wJywgJy1waCcsICc3LjQnLCAnLXRuJywgJzgnLCAnLW1hJywgJzUwMCcsICctaW1hZScsICc8aW5maWxlLm1hZT4nLCAnLW9tYWUnLCAnPG91dGZpbGUubWFlPic=

>  <s_epik_input>  (1) 
bzFbY0hdW2NIXWMoYzEyKVtjSF1uW2NIXVtjSF0y

>  <s_glide_docking_method>  (1) 
confgen

>  <s_i_glide_gridfile>  (1) 
gpcr_drd2_6luq_protein_autoprepared_prepared

>  <s_lp_Force_Field>  (1) 
S-OPLS

>  <s_lp_Variant>  (1) 
Pocket2Mol_38_num_sample_50-1

>  <s_m_source_file>  (1) 
generated__ligand_Pocket2Mol_2026-05-06_prepared.sdf

>  <GenAI_Model>  (1) 
Pocket2Mol

>  <Protein>  (1) 
generic_title2

$$$$
Pocket2Mol_42_num_sample_50
     RDKit          3D

  0  0  0  0  0  0  0  0  0  0999 V3000
M  V30 BEGIN CTAB
M  V30 COUNTS 16 17 0 0 1
M  V30 BEGIN ATOM
M  V30 1 C 11.241504 8.969442 -6.576113 0
M  V30 2 O 11.759742 9.787759 -5.423269 0
M  V30 3 C 11.834842 8.870919 -4.388404 0
M  V30 4 C 11.434839 7.654542 -4.728573 0
M  V30 5 C 11.463297 6.569301 -3.851362 0
M  V30 6 C 12.302577 9.152582 -3.096350 0
M  V30 7 C 12.349725 8.097393 -2.149665 0
M  V30 8 C 11.928566 6.790300 -2.532264 0
M  V30 9 N 11.034836 7.640003 -5.988942 0
M  V30 10 H 10.285980 9.353058 -6.934607 0
M  V30 11 H 11.973966 8.905828 -7.381729 0
M  V30 12 H 11.134082 5.593235 -4.168230 0
M  V30 13 H 12.625090 10.146586 -2.829241 0
M  V30 14 H 12.706922 8.283052 -1.147346 0
M  V30 15 H 11.961776 5.975762 -1.822860 0
M  V30 16 H 11.284272 6.838436 -6.550866 0
M  V30 END ATOM
M  V30 BEGIN BOND
M  V30 1 1 2 1
M  V30 2 1 3 2
M  V30 3 1 4 3
M  V30 4 2 5 4
M  V30 5 2 6 3
M  V30 6 1 7 6
M  V30 7 1 8 5
M  V30 8 2 8 7
M  V30 9 1 9 1
M  V30 10 1 9 4
M  V30 11 1 10 1
M  V30 12 1 11 1
M  V30 13 1 12 5
M  V30 14 1 13 6
M  V30 15 1 14 7
M  V30 16 1 15 8
M  V30 17 1 16 9
M  V30 END BOND
M  V30 END CTAB
M  END
>  <i_epik_Tot_Q>  (1) 
0

>  <i_epik_Tot_abs_Q>  (1) 
0

>  <i_i_glide_confnum>  (1) 
1

>  <i_i_glide_lignum>  (1) 
47

>  <i_i_glide_posenum>  (1) 
268

>  <i_i_glide_rotatable_bonds>  (1) 
0

>  <i_lp_mmshare_version>  (1) 
72125

>  <i_m_source_file_index>  (1) 
43

>  <i_f3d_flags>  (1) 
0

>  <num_sample>  (1) 
50

>  <b_lp_Chiralities_Consistent>  (1) 
1

>  <r_epik_Charging_Adjusted_Penalty>  (1) 
0

>  <r_epik_Ionization_Penalty>  (1) 
3.929707007381515e-06

>  <r_epik_Ionization_Penalty_Charging>  (1) 
0

>  <r_epik_Ionization_Penalty_Neutral>  (1) 
3.929707007381515e-06

>  <r_epik_State_Penalty>  (1) 
-0

>  <r_glide_ring_energy>  (1) 
0

>  <r_i_docking_score>  (1) 
-5.515680225470712

>  <r_i_glide_ecoul>  (1) 
-1.1853606852617555

>  <r_i_glide_eff_state_penalty>  (1) 
-0

>  <r_i_glide_einternal>  (1) 
0

>  <r_i_glide_emodel>  (1) 
-26.934972385843864

>  <r_i_glide_emodel_strain>  (1) 
0

>  <r_i_glide_energy>  (1) 
-19.84850847789626

>  <r_i_glide_erotb>  (1) 
0

>  <r_i_glide_esite>  (1) 
0

>  <r_i_glide_evdw>  (1) 
-18.663147792634504

>  <r_i_glide_gscore>  (1) 
-5.515680225470712

>  <r_i_glide_gscore_strain>  (1) 
0

>  <r_i_glide_hbond>  (1) 
0

>  <r_i_glide_ligand_efficiency>  (1) 
-0.61285335838563471

>  <r_i_glide_ligand_efficiency_ln>  (1) 
-1.7251463236486575

>  <r_i_glide_ligand_efficiency_sa>  (1) 
-1.2747863566809898

>  <r_i_glide_lipo>  (1) 
-1.5680972956920733

>  <r_i_glide_metal>  (1) 
-0

>  <r_i_glide_rewards>  (1) 
-2.8366214373576497

>  <r_lp_Energy>  (1) 
10.457737999999999

>  <r_lp_tautomer_probability>  (1) 
1

>  <s_epik_Chemistry_Notes>  (1) 
This compound contains an acetal/aminal-like group ( X-CH(R)-Y where X, Y are N, S, or O) that may be acid/base labile, releasing an aldehyde.

>  <s_epik_cmdline>  (1) 
J2VwaWtfcHl0aG9uJywgJy1waHQnLCAnMS4wJywgJy1waCcsICc3LjQnLCAnLXRuJywgJzgnLCAnLW1hJywgJzUwMCcsICctaW1hZScsICc8aW5maWxlLm1hZT4nLCAnLW9tYWUnLCAnPG91dGZpbGUubWFlPic=

>  <s_epik_input>  (1) 
TzFbQ0gyXVtOSF1jKGMxMilbY0hdW2NIXVtjSF1bY0hdMg==

>  <s_glide_docking_method>  (1) 
confgen

>  <s_i_glide_gridfile>  (1) 
gpcr_drd2_6luq_protein_autoprepared_prepared

>  <s_lp_Force_Field>  (1) 
S-OPLS

>  <s_lp_Variant>  (1) 
Pocket2Mol_42_num_sample_50-1

>  <s_m_source_file>  (1) 
generated__ligand_Pocket2Mol_2026-05-06_prepared.sdf

>  <GenAI_Model>  (1) 
Pocket2Mol

>  <Protein>  (1) 
generic_title2

$$$$
Pocket2Mol_25_num_sample_50
     RDKit          3D

  0  0  0  0  0  0  0  0  0  0999 V3000
M  V30 BEGIN CTAB
M  V30 COUNTS 15 15 0 0 1
M  V30 BEGIN ATOM
M  V30 1 C 10.767020 7.291223 -5.556040 0
M  V30 2 O 10.635014 8.713468 -5.491720 0
M  V30 3 C 11.815094 9.430673 -5.124832 0
M  V30 4 C 12.380077 9.002426 -3.743317 0 CFG=1
M  V30 5 O 11.835298 9.769326 -2.694360 0
M  V30 6 C 11.434839 6.760730 -4.307440 0
M  V30 7 C 12.162389 7.531753 -3.491670 0
M  V30 8 H 11.349532 6.999661 -6.429987 0
M  V30 9 H 9.776201 6.848338 -5.657404 0
M  V30 10 H 11.608883 10.501290 -5.146832 0
M  V30 11 H 12.562330 9.251323 -5.898658 0
M  V30 12 H 13.442110 9.208690 -3.746116 0
M  V30 13 H 12.511580 9.941617 -2.052050 0
M  V30 14 H 11.307833 5.713902 -4.090750 0
M  V30 15 H 12.622018 7.107774 -2.611075 0
M  V30 END ATOM
M  V30 BEGIN BOND
M  V30 1 1 2 1
M  V30 2 1 3 2
M  V30 3 1 4 3
M  V30 4 1 5 4
M  V30 5 1 6 1
M  V30 6 1 7 4
M  V30 7 2 7 6
M  V30 8 1 8 1
M  V30 9 1 9 1
M  V30 10 1 10 3
M  V30 11 1 11 3
M  V30 12 1 4 12 CFG=3
M  V30 13 1 13 5
M  V30 14 1 14 6
M  V30 15 1 15 7
M  V30 END BOND
M  V30 END CTAB
M  END
>  <i_epik_Tot_Q>  (1) 
0

>  <i_epik_Tot_abs_Q>  (1) 
0

>  <i_i_glide_confnum>  (1) 
2

>  <i_i_glide_lignum>  (1) 
29

>  <i_i_glide_posenum>  (1) 
28

>  <i_i_glide_rotatable_bonds>  (1) 
1

>  <i_lp_mmshare_version>  (1) 
72125

>  <i_m_source_file_index>  (1) 
26

>  <i_f3d_flags>  (1) 
0

>  <num_sample>  (1) 
50

>  <b_lp_Chiralities_Consistent>  (1) 
1

>  <r_epik_Charging_Adjusted_Penalty>  (1) 
0

>  <r_epik_Ionization_Penalty>  (1) 
7.567869706951744e-07

>  <r_epik_Ionization_Penalty_Charging>  (1) 
0

>  <r_epik_Ionization_Penalty_Neutral>  (1) 
7.567869706951744e-07

>  <r_epik_State_Penalty>  (1) 
-0

>  <r_glide_ring_energy>  (1) 
0.3802776858136746

>  <r_i_docking_score>  (1) 
-5.5115317335765512

>  <r_i_glide_ecoul>  (1) 
-3.0277508447107877

>  <r_i_glide_eff_state_penalty>  (1) 
-0

>  <r_i_glide_einternal>  (1) 
0.51825131652553114

>  <r_i_glide_emodel>  (1) 
-25.088420234789474

>  <r_i_glide_emodel_strain>  (1) 
0.1269910192799788

>  <r_i_glide_energy>  (1) 
-18.353631431971227

>  <r_i_glide_erotb>  (1) 
0

>  <r_i_glide_esite>  (1) 
0

>  <r_i_glide_evdw>  (1) 
-15.325880587260439

>  <r_i_glide_gscore>  (1) 
-5.5115317335765512

>  <r_i_glide_gscore_strain>  (1) 
0

>  <r_i_glide_hbond>  (1) 
-0.2526882243268655

>  <r_i_glide_ligand_efficiency>  (1) 
-0.78736167622522157

>  <r_i_glide_ligand_efficiency_ln>  (1) 
-1.8709096526056554

>  <r_i_glide_ligand_efficiency_sa>  (1) 
-1.5061687025711641

>  <r_i_glide_lipo>  (1) 
-1.5297323944059462

>  <r_i_glide_metal>  (1) 
-0

>  <r_i_glide_rewards>  (1) 
-2.5086544587741

>  <r_lp_Energy>  (1) 
2.4739009999999997

>  <r_lp_tautomer_probability>  (1) 
1

>  <s_epik_cmdline>  (1) 
J2VwaWtfcHl0aG9uJywgJy1waHQnLCAnMS4wJywgJy1waCcsICc3LjQnLCAnLXRuJywgJzgnLCAnLW1hJywgJzUwMCcsICctaW1hZScsICc8aW5maWxlLm1hZT4nLCAnLW9tYWUnLCAnPG91dGZpbGUubWFlPic=

>  <s_epik_input>  (1) 
W0NIXTE9W0NIXVtDSDJdT1tDSDJdW0NASF0xW09IXQ==

>  <s_glide_docking_method>  (1) 
confgen

>  <s_i_glide_gridfile>  (1) 
gpcr_drd2_6luq_protein_autoprepared_prepared

>  <s_lp_Force_Field>  (1) 
S-OPLS

>  <s_lp_Variant>  (1) 
Pocket2Mol_25_num_sample_50-1

>  <s_m_source_file>  (1) 
generated__ligand_Pocket2Mol_2026-05-06_prepared.sdf

>  <GenAI_Model>  (1) 
Pocket2Mol

>  <Protein>  (1) 
generic_title2

$$$$
Pocket2Mol_22_num_sample_50
     RDKit          3D

  0  0  0  0  0  0  0  0  0  0999 V3000
M  V30 BEGIN CTAB
M  V30 COUNTS 11 11 0 0 1
M  V30 BEGIN ATOM
M  V30 1 N 11.834839 9.600731 -4.833339 0
M  V30 2 C 12.311573 8.969302 -3.731728 0
M  V30 3 C 12.137851 7.592416 -3.491667 0
M  V30 4 C 11.161457 8.846620 -5.736653 0
M  V30 5 C 10.938230 7.464024 -5.580930 0
M  V30 6 F 12.634839 7.019833 -2.370055 0
M  V30 7 C 11.434839 6.825174 -4.434074 0
M  V30 8 H 12.846580 9.583219 -3.022463 0
M  V30 9 H 10.788825 9.363893 -6.608464 0
M  V30 10 H 10.392309 6.906816 -6.328818 0
M  V30 11 H 11.280343 5.769301 -4.280601 0
M  V30 END ATOM
M  V30 BEGIN BOND
M  V30 1 2 2 1
M  V30 2 1 3 2
M  V30 3 1 4 1
M  V30 4 2 5 4
M  V30 5 1 6 3
M  V30 6 2 7 3
M  V30 7 1 7 5
M  V30 8 1 8 2
M  V30 9 1 9 4
M  V30 10 1 10 5
M  V30 11 1 11 7
M  V30 END BOND
M  V30 END CTAB
M  END
>  <i_epik_Tot_Q>  (1) 
0

>  <i_epik_Tot_abs_Q>  (1) 
0

>  <i_i_glide_confnum>  (1) 
1

>  <i_i_glide_lignum>  (1) 
26

>  <i_i_glide_posenum>  (1) 
394

>  <i_i_glide_rotatable_bonds>  (1) 
0

>  <i_lp_mmshare_version>  (1) 
72125

>  <i_m_source_file_index>  (1) 
23

>  <i_f3d_flags>  (1) 
0

>  <num_sample>  (1) 
50

>  <b_lp_Chiralities_Consistent>  (1) 
1

>  <r_epik_Charging_Adjusted_Penalty>  (1) 
0

>  <r_epik_Ionization_Penalty>  (1) 
7.3223601380878174e-05

>  <r_epik_Ionization_Penalty_Charging>  (1) 
0

>  <r_epik_Ionization_Penalty_Neutral>  (1) 
7.3223601380878174e-05

>  <r_epik_State_Penalty>  (1) 
-0

>  <r_glide_ring_energy>  (1) 
0

>  <r_i_docking_score>  (1) 
-5.4966192383322054

>  <r_i_glide_ecoul>  (1) 
-1.0568959979630557

>  <r_i_glide_eff_state_penalty>  (1) 
-0

>  <r_i_glide_einternal>  (1) 
0

>  <r_i_glide_emodel>  (1) 
-21.798650474702985

>  <r_i_glide_emodel_strain>  (1) 
0

>  <r_i_glide_energy>  (1) 
-16.136421545698514

>  <r_i_glide_erotb>  (1) 
0

>  <r_i_glide_esite>  (1) 
0

>  <r_i_glide_evdw>  (1) 
-15.079525547735457

>  <r_i_glide_gscore>  (1) 
-5.4966192383322054

>  <r_i_glide_gscore_strain>  (1) 
0

>  <r_i_glide_hbond>  (1) 
0

>  <r_i_glide_ligand_efficiency>  (1) 
-0.78523131976174365

>  <r_i_glide_ligand_efficiency_ln>  (1) 
-1.8658475514247597

>  <r_i_glide_ligand_efficiency_sa>  (1) 
-1.5020934772617565

>  <r_i_glide_lipo>  (1) 
-1.5251651191586373

>  <r_i_glide_metal>  (1) 
-0

>  <r_i_glide_rewards>  (1) 
-3.0589434420923372

>  <r_lp_Energy>  (1) 
10.789624

>  <r_lp_tautomer_probability>  (1) 
1

>  <s_epik_cmdline>  (1) 
J2VwaWtfcHl0aG9uJywgJy1waHQnLCAnMS4wJywgJy1waCcsICc3LjQnLCAnLXRuJywgJzgnLCAnLW1hJywgJzUwMCcsICctaW1hZScsICc8aW5maWxlLm1hZT4nLCAnLW9tYWUnLCAnPG91dGZpbGUubWFlPic=

>  <s_epik_input>  (1) 
W2NIXTFbY0hdW2NIXW5bY0hdYzFG

>  <s_glide_docking_method>  (1) 
confgen

>  <s_i_glide_gridfile>  (1) 
gpcr_drd2_6luq_protein_autoprepared_prepared

>  <s_lp_Force_Field>  (1) 
S-OPLS

>  <s_lp_Variant>  (1) 
Pocket2Mol_22_num_sample_50-1

>  <s_m_source_file>  (1) 
generated__ligand_Pocket2Mol_2026-05-06_prepared.sdf

>  <GenAI_Model>  (1) 
Pocket2Mol

>  <Protein>  (1) 
generic_title2

$$$$
Pocket2Mol_42_num_sample_50
     RDKit          3D

  0  0  0  0  0  0  0  0  0  0999 V3000
M  V30 BEGIN CTAB
M  V30 COUNTS 16 17 0 0 1
M  V30 BEGIN ATOM
M  V30 1 C 9.867310 7.575773 -7.276955 0
M  V30 2 O 10.369697 8.905169 -6.784274 0
M  V30 3 C 11.034911 8.586102 -5.614651 0
M  V30 4 C 11.034778 7.289989 -5.340594 0
M  V30 5 C 11.607135 6.755495 -4.181131 0
M  V30 6 C 11.637954 9.516467 -4.756522 0
M  V30 7 C 12.252193 9.041235 -3.567003 0
M  V30 8 C 12.234839 7.646439 -3.275576 0
M  V30 9 N 10.401026 6.621381 -6.291444 0
M  V30 10 H 8.775779 7.536443 -7.272001 0
M  V30 11 H 10.264379 7.341857 -8.265267 0
M  V30 12 H 11.576147 5.697025 -3.984379 0
M  V30 13 H 11.627858 10.569315 -4.991781 0
M  V30 14 H 12.723485 9.733455 -2.884109 0
M  V30 15 H 12.692874 7.272022 -2.371877 0
M  V30 16 H 9.788663 5.872513 -5.997586 0
M  V30 END ATOM
M  V30 BEGIN BOND
M  V30 1 1 2 1
M  V30 2 1 3 2
M  V30 3 1 4 3
M  V30 4 2 5 4
M  V30 5 2 6 3
M  V30 6 1 7 6
M  V30 7 1 8 5
M  V30 8 2 8 7
M  V30 9 1 9 1
M  V30 10 1 9 4
M  V30 11 1 10 1
M  V30 12 1 11 1
M  V30 13 1 12 5
M  V30 14 1 13 6
M  V30 15 1 14 7
M  V30 16 1 15 8
M  V30 17 1 16 9
M  V30 END BOND
M  V30 END CTAB
M  END
>  <i_epik_Tot_Q>  (1) 
0

>  <i_epik_Tot_abs_Q>  (1) 
0

>  <i_i_glide_confnum>  (1) 
1

>  <i_i_glide_lignum>  (1) 
47

>  <i_i_glide_posenum>  (1) 
54

>  <i_i_glide_rotatable_bonds>  (1) 
0

>  <i_lp_mmshare_version>  (1) 
72125

>  <i_m_source_file_index>  (1) 
43

>  <i_f3d_flags>  (1) 
0

>  <num_sample>  (1) 
50

>  <b_lp_Chiralities_Consistent>  (1) 
1

>  <r_epik_Charging_Adjusted_Penalty>  (1) 
0

>  <r_epik_Ionization_Penalty>  (1) 
3.929707007381515e-06

>  <r_epik_Ionization_Penalty_Charging>  (1) 
0

>  <r_epik_Ionization_Penalty_Neutral>  (1) 
3.929707007381515e-06

>  <r_epik_State_Penalty>  (1) 
-0

>  <r_glide_ring_energy>  (1) 
0

>  <r_i_docking_score>  (1) 
-5.4693527351572273

>  <r_i_glide_ecoul>  (1) 
-1.9369989495149338

>  <r_i_glide_eff_state_penalty>  (1) 
-0

>  <r_i_glide_einternal>  (1) 
0

>  <r_i_glide_emodel>  (1) 
-28.01662872042915

>  <r_i_glide_emodel_strain>  (1) 
3.9581493638252141e-10

>  <r_i_glide_energy>  (1) 
-20.989685683310761

>  <r_i_glide_erotb>  (1) 
0

>  <r_i_glide_esite>  (1) 
-0.04918440187244396

>  <r_i_glide_evdw>  (1) 
-19.052686733795827

>  <r_i_glide_gscore>  (1) 
-5.4693527351572273

>  <r_i_glide_gscore_strain>  (1) 
0

>  <r_i_glide_hbond>  (1) 
0

>  <r_i_glide_ligand_efficiency>  (1) 
-0.60770585946191413

>  <r_i_glide_ligand_efficiency_ln>  (1) 
-1.7106564155446473

>  <r_i_glide_ligand_efficiency_sa>  (1) 
-1.2640791274405818

>  <r_i_glide_lipo>  (1) 
-1.7863728233030924

>  <r_i_glide_metal>  (1) 
-0

>  <r_i_glide_rewards>  (1) 
-2.3906113308646595

>  <r_lp_Energy>  (1) 
10.457737999999999

>  <r_lp_tautomer_probability>  (1) 
1

>  <s_epik_Chemistry_Notes>  (1) 
This compound contains an acetal/aminal-like group ( X-CH(R)-Y where X, Y are N, S, or O) that may be acid/base labile, releasing an aldehyde.

>  <s_epik_cmdline>  (1) 
J2VwaWtfcHl0aG9uJywgJy1waHQnLCAnMS4wJywgJy1waCcsICc3LjQnLCAnLXRuJywgJzgnLCAnLW1hJywgJzUwMCcsICctaW1hZScsICc8aW5maWxlLm1hZT4nLCAnLW9tYWUnLCAnPG91dGZpbGUubWFlPic=

>  <s_epik_input>  (1) 
TzFbQ0gyXVtOSF1jKGMxMilbY0hdW2NIXVtjSF1bY0hdMg==

>  <s_glide_docking_method>  (1) 
confgen

>  <s_i_glide_gridfile>  (1) 
gpcr_drd2_6luq_protein_autoprepared_prepared

>  <s_lp_Force_Field>  (1) 
S-OPLS

>  <s_lp_Variant>  (1) 
Pocket2Mol_42_num_sample_50-1

>  <s_m_source_file>  (1) 
generated__ligand_Pocket2Mol_2026-05-06_prepared.sdf

>  <GenAI_Model>  (1) 
Pocket2Mol

>  <Protein>  (1) 
generic_title2

$$$$
Pocket2Mol_28_num_sample_50
     RDKit          3D

  0  0  0  0  0  0  0  0  0  0999 V3000
M  V30 BEGIN CTAB
M  V30 COUNTS 18 18 0 0 1
M  V30 BEGIN ATOM
M  V30 1 C 10.954721 6.706704 -6.097611 0
M  V30 2 O 9.706436 6.371841 -6.683257 0
M  V30 3 C 9.636555 6.559798 -8.087451 0
M  V30 4 C 9.835051 8.026134 -8.507505 0
M  V30 5 O 9.434871 8.115148 -9.862164 0
M  V30 6 C 11.044614 8.232940 -5.926214 0
M  V30 7 C 11.288742 8.517166 -8.341486 0
M  V30 8 O 11.644862 8.923926 -7.019535 0
M  V30 9 H 10.959543 6.250787 -5.105506 0
M  V30 10 H 11.801108 6.278937 -6.640267 0
M  V30 11 H 8.639446 6.239349 -8.396621 0
M  V30 12 H 10.353788 5.912549 -8.598317 0
M  V30 13 H 9.158285 8.673770 -7.949624 0
M  V30 14 H 8.473338 7.959229 -9.891658 0
M  V30 15 H 10.059872 8.652383 -5.721300 0
M  V30 16 H 11.648747 8.456170 -5.047793 0
M  V30 17 H 11.989544 7.753354 -8.679079 0
M  V30 18 H 11.456210 9.386630 -8.980770 0
M  V30 END ATOM
M  V30 BEGIN BOND
M  V30 1 1 2 1
M  V30 2 1 3 2
M  V30 3 1 4 3
M  V30 4 1 5 4
M  V30 5 1 6 1
M  V30 6 1 7 4
M  V30 7 1 8 6
M  V30 8 1 8 7
M  V30 9 1 9 1
M  V30 10 1 10 1
M  V30 11 1 11 3
M  V30 12 1 12 3
M  V30 13 1 13 4
M  V30 14 1 14 5
M  V30 15 1 15 6
M  V30 16 1 16 6
M  V30 17 1 17 7
M  V30 18 1 18 7
M  V30 END BOND
M  V30 END CTAB
M  END
>  <i_epik_Tot_Q>  (1) 
0

>  <i_epik_Tot_abs_Q>  (1) 
0

>  <i_i_glide_confnum>  (1) 
4

>  <i_i_glide_lignum>  (1) 
32

>  <i_i_glide_posenum>  (1) 
62

>  <i_i_glide_rotatable_bonds>  (1) 
1

>  <i_lp_mmshare_version>  (1) 
72125

>  <i_m_source_file_index>  (1) 
29

>  <i_f3d_flags>  (1) 
0

>  <num_sample>  (1) 
50

>  <b_lp_Chiralities_Consistent>  (1) 
1

>  <r_epik_Charging_Adjusted_Penalty>  (1) 
0

>  <r_epik_Ionization_Penalty>  (1) 
1.4561355789117501e-07

>  <r_epik_Ionization_Penalty_Charging>  (1) 
0

>  <r_epik_Ionization_Penalty_Neutral>  (1) 
1.4561355789117501e-07

>  <r_epik_State_Penalty>  (1) 
-0

>  <r_glide_ring_energy>  (1) 
0.067246547245782246

>  <r_i_docking_score>  (1) 
-5.4281344588461673

>  <r_i_glide_ecoul>  (1) 
-6.9556067529134031

>  <r_i_glide_eff_state_penalty>  (1) 
-0

>  <r_i_glide_einternal>  (1) 
0.33361335579820928

>  <r_i_glide_emodel>  (1) 
-29.791691006774897

>  <r_i_glide_emodel_strain>  (1) 
0

>  <r_i_glide_energy>  (1) 
-22.162340585598024

>  <r_i_glide_erotb>  (1) 
0

>  <r_i_glide_esite>  (1) 
0

>  <r_i_glide_evdw>  (1) 
-15.206733832684622

>  <r_i_glide_gscore>  (1) 
-5.4281344588461673

>  <r_i_glide_gscore_strain>  (1) 
0

>  <r_i_glide_hbond>  (1) 
-0.16

>  <r_i_glide_ligand_efficiency>  (1) 
-0.67851680735577091

>  <r_i_glide_ligand_efficiency_ln>  (1) 
-1.7627009265729134

>  <r_i_glide_ligand_efficiency_sa>  (1) 
-1.357033614711542

>  <r_i_glide_lipo>  (1) 
-0.7778534799397735

>  <r_i_glide_metal>  (1) 
-0

>  <r_i_glide_rewards>  (1) 
-2.6866032743351518

>  <r_lp_Energy>  (1) 
13.809562999999999

>  <r_lp_tautomer_probability>  (1) 
1

>  <s_epik_cmdline>  (1) 
J2VwaWtfcHl0aG9uJywgJy1waHQnLCAnMS4wJywgJy1waCcsICc3LjQnLCAnLXRuJywgJzgnLCAnLW1hJywgJzUwMCcsICctaW1hZScsICc8aW5maWxlLm1hZT4nLCAnLW9tYWUnLCAnPG91dGZpbGUubWFlPic=

>  <s_epik_input>  (1) 
W0NIMl0xT1tDSDJdW0NIMl1PW0NIMl1bQ0hdMVtPSF0=

>  <s_glide_docking_method>  (1) 
confgen

>  <s_i_glide_gridfile>  (1) 
gpcr_drd2_6luq_protein_autoprepared_prepared

>  <s_lp_Force_Field>  (1) 
S-OPLS

>  <s_lp_Variant>  (1) 
Pocket2Mol_28_num_sample_50-1

>  <s_m_source_file>  (1) 
generated__ligand_Pocket2Mol_2026-05-06_prepared.sdf

>  <GenAI_Model>  (1) 
Pocket2Mol

>  <Protein>  (1) 
generic_title2

$$$$
Pocket2Mol_42_num_sample_50
     RDKit          3D

  0  0  0  0  0  0  0  0  0  0999 V3000
M  V30 BEGIN CTAB
M  V30 COUNTS 16 17 0 0 1
M  V30 BEGIN ATOM
M  V30 1 C 11.167041 8.969301 -6.635376 0
M  V30 2 O 11.025628 7.560302 -6.139648 0
M  V30 3 C 11.434840 7.639787 -4.821317 0
M  V30 4 C 11.824279 8.854948 -4.455944 0
M  V30 5 C 12.234839 9.164256 -3.154340 0
M  V30 6 C 11.434841 6.569301 -3.919164 0
M  V30 7 C 11.856443 6.807708 -2.584780 0
M  V30 8 C 12.256471 8.120661 -2.198031 0
M  V30 9 N 11.729005 9.690920 -5.479162 0
M  V30 10 H 11.854986 9.028278 -7.479386 0
M  V30 11 H 10.185146 9.368294 -6.885990 0
M  V30 12 H 12.530733 10.166897 -2.886294 0
M  V30 13 H 11.114817 5.588576 -4.231271 0
M  V30 14 H 11.865121 6.000755 -1.865553 0
M  V30 15 H 12.571501 8.318395 -1.184105 0
M  V30 16 H 11.362464 10.612417 -5.288970 0
M  V30 END ATOM
M  V30 BEGIN BOND
M  V30 1 1 2 1
M  V30 2 1 3 2
M  V30 3 1 4 3
M  V30 4 2 5 4
M  V30 5 2 6 3
M  V30 6 1 7 6
M  V30 7 1 8 5
M  V30 8 2 8 7
M  V30 9 1 9 1
M  V30 10 1 9 4
M  V30 11 1 10 1
M  V30 12 1 11 1
M  V30 13 1 12 5
M  V30 14 1 13 6
M  V30 15 1 14 7
M  V30 16 1 15 8
M  V30 17 1 16 9
M  V30 END BOND
M  V30 END CTAB
M  END
>  <i_epik_Tot_Q>  (1) 
0

>  <i_epik_Tot_abs_Q>  (1) 
0

>  <i_i_glide_confnum>  (1) 
1

>  <i_i_glide_lignum>  (1) 
47

>  <i_i_glide_posenum>  (1) 
1

>  <i_i_glide_rotatable_bonds>  (1) 
0

>  <i_lp_mmshare_version>  (1) 
72125

>  <i_m_source_file_index>  (1) 
43

>  <i_f3d_flags>  (1) 
0

>  <num_sample>  (1) 
50

>  <b_lp_Chiralities_Consistent>  (1) 
1

>  <r_epik_Charging_Adjusted_Penalty>  (1) 
0

>  <r_epik_Ionization_Penalty>  (1) 
3.929707007381515e-06

>  <r_epik_Ionization_Penalty_Charging>  (1) 
0

>  <r_epik_Ionization_Penalty_Neutral>  (1) 
3.929707007381515e-06

>  <r_epik_State_Penalty>  (1) 
-0

>  <r_glide_ring_energy>  (1) 
0

>  <r_i_docking_score>  (1) 
-5.4198130036658405

>  <r_i_glide_ecoul>  (1) 
-0.50402989405224319

>  <r_i_glide_eff_state_penalty>  (1) 
-0

>  <r_i_glide_einternal>  (1) 
0

>  <r_i_glide_emodel>  (1) 
-26.398046614380789

>  <r_i_glide_emodel_strain>  (1) 
0

>  <r_i_glide_energy>  (1) 
-19.43475148698327

>  <r_i_glide_erotb>  (1) 
0

>  <r_i_glide_esite>  (1) 
0

>  <r_i_glide_evdw>  (1) 
-18.930721592931025

>  <r_i_glide_gscore>  (1) 
-5.4198130036658405

>  <r_i_glide_gscore_strain>  (1) 
0

>  <r_i_glide_hbond>  (1) 
0

>  <r_i_glide_ligand_efficiency>  (1) 
-0.60220144485176008

>  <r_i_glide_ligand_efficiency_ln>  (1) 
-1.6951618106793673

>  <r_i_glide_ligand_efficiency_sa>  (1) 
-1.2526294836546297

>  <r_i_glide_lipo>  (1) 
-1.5887949727858592

>  <r_i_glide_metal>  (1) 
-0

>  <r_i_glide_rewards>  (1) 
-2.8088774671255941

>  <r_lp_Energy>  (1) 
10.457737999999999

>  <r_lp_tautomer_probability>  (1) 
1

>  <s_epik_Chemistry_Notes>  (1) 
This compound contains an acetal/aminal-like group ( X-CH(R)-Y where X, Y are N, S, or O) that may be acid/base labile, releasing an aldehyde.

>  <s_epik_cmdline>  (1) 
J2VwaWtfcHl0aG9uJywgJy1waHQnLCAnMS4wJywgJy1waCcsICc3LjQnLCAnLXRuJywgJzgnLCAnLW1hJywgJzUwMCcsICctaW1hZScsICc8aW5maWxlLm1hZT4nLCAnLW9tYWUnLCAnPG91dGZpbGUubWFlPic=

>  <s_epik_input>  (1) 
TzFbQ0gyXVtOSF1jKGMxMilbY0hdW2NIXVtjSF1bY0hdMg==

>  <s_glide_docking_method>  (1) 
confgen

>  <s_i_glide_gridfile>  (1) 
gpcr_drd2_6luq_protein_autoprepared_prepared

>  <s_lp_Force_Field>  (1) 
S-OPLS

>  <s_lp_Variant>  (1) 
Pocket2Mol_42_num_sample_50-1

>  <s_m_source_file>  (1) 
generated__ligand_Pocket2Mol_2026-05-06_prepared.sdf

>  <GenAI_Model>  (1) 
Pocket2Mol

>  <Protein>  (1) 
generic_title2

$$$$
Pocket2Mol_44_num_sample_50
     RDKit          3D

  0  0  0  0  0  0  0  0  0  0999 V3000
M  V30 BEGIN CTAB
M  V30 COUNTS 14 15 0 0 1
M  V30 BEGIN ATOM
M  V30 1 C 12.483017 8.567140 -2.082162 0
M  V30 2 O 12.228398 9.664876 -3.013581 0
M  V30 3 C 11.835002 8.958410 -4.072451 0
M  V30 4 C 11.834843 7.648786 -3.891657 0
M  V30 5 C 11.432999 6.786919 -4.922961 0
M  V30 6 N 11.034838 7.245077 -6.142576 0
M  V30 7 C 11.037289 8.602225 -6.309165 0
M  V30 8 C 11.434845 9.504983 -5.293302 0
M  V30 9 O 12.234354 7.254288 -2.679023 0
M  V30 10 H 13.519717 8.620314 -1.750275 0
M  V30 11 H 11.836908 8.690818 -1.211641 0
M  V30 12 H 11.429256 5.720307 -4.779426 0
M  V30 13 H 10.716259 8.969214 -7.272775 0
M  V30 14 H 11.425711 10.572447 -5.455255 0
M  V30 END ATOM
M  V30 BEGIN BOND
M  V30 1 1 2 1
M  V30 2 1 3 2
M  V30 3 2 4 3
M  V30 4 1 5 4
M  V30 5 2 6 5
M  V30 6 1 7 6
M  V30 7 1 8 3
M  V30 8 2 8 7
M  V30 9 1 9 1
M  V30 10 1 9 4
M  V30 11 1 10 1
M  V30 12 1 11 1
M  V30 13 1 12 5
M  V30 14 1 13 7
M  V30 15 1 14 8
M  V30 END BOND
M  V30 END CTAB
M  END
>  <i_epik_Tot_Q>  (1) 
0

>  <i_epik_Tot_abs_Q>  (1) 
0

>  <i_i_glide_confnum>  (1) 
1

>  <i_i_glide_lignum>  (1) 
49

>  <i_i_glide_posenum>  (1) 
173

>  <i_i_glide_rotatable_bonds>  (1) 
0

>  <i_lp_mmshare_version>  (1) 
72125

>  <i_m_source_file_index>  (1) 
45

>  <i_f3d_flags>  (1) 
0

>  <num_sample>  (1) 
50

>  <b_lp_Chiralities_Consistent>  (1) 
1

>  <r_epik_Charging_Adjusted_Penalty>  (1) 
0.069790075728531922

>  <r_epik_Ionization_Penalty>  (1) 
0.069790075728531936

>  <r_epik_Ionization_Penalty_Charging>  (1) 
0

>  <r_epik_Ionization_Penalty_Neutral>  (1) 
0.069790075728531936

>  <r_epik_State_Penalty>  (1) 
0.069790075728531922

>  <r_glide_ring_energy>  (1) 
0

>  <r_i_docking_score>  (1) 
-5.4050739330353288

>  <r_i_glide_ecoul>  (1) 
0.02344468369054048

>  <r_i_glide_eff_state_penalty>  (1) 
0.069790075728531922

>  <r_i_glide_einternal>  (1) 
0

>  <r_i_glide_emodel>  (1) 
-26.656982140243116

>  <r_i_glide_emodel_strain>  (1) 
0

>  <r_i_glide_energy>  (1) 
-19.518297847578427

>  <r_i_glide_erotb>  (1) 
0

>  <r_i_glide_esite>  (1) 
0

>  <r_i_glide_evdw>  (1) 
-19.541742531268969

>  <r_i_glide_gscore>  (1) 
-5.4748640087638609

>  <r_i_glide_gscore_strain>  (1) 
0

>  <r_i_glide_hbond>  (1) 
0

>  <r_i_glide_ligand_efficiency>  (1) 
-0.60056377033725872

>  <r_i_glide_ligand_efficiency_ln>  (1) 
-1.6905518528005898

>  <r_i_glide_ligand_efficiency_sa>  (1) 
-1.2492229833895911

>  <r_i_glide_lipo>  (1) 
-1.3762935847539941

>  <r_i_glide_metal>  (1) 
-0

>  <r_i_glide_rewards>  (1) 
-3.125

>  <r_lp_Energy>  (1) 
21.238785

>  <r_lp_tautomer_probability>  (1) 
1

>  <s_epik_Chemistry_Notes>  (1) 
This compound contains an acetal/aminal-like group ( X-CH(R)-Y where X, Y are N, S, or O) that may be acid/base labile, releasing an aldehyde.

>  <s_epik_cmdline>  (1) 
J2VwaWtfcHl0aG9uJywgJy1waHQnLCAnMS4wJywgJy1waCcsICc3LjQnLCAnLXRuJywgJzgnLCAnLW1hJywgJzUwMCcsICctaW1hZScsICc8aW5maWxlLm1hZT4nLCAnLW9tYWUnLCAnPG91dGZpbGUubWFlPic=

>  <s_epik_input>  (1) 
TzFbQ0gyXU9jKGMxMilbY0hdbltjSF1bY0hdMg==

>  <s_glide_docking_method>  (1) 
confgen

>  <s_i_glide_gridfile>  (1) 
gpcr_drd2_6luq_protein_autoprepared_prepared

>  <s_lp_Force_Field>  (1) 
S-OPLS

>  <s_lp_Variant>  (1) 
Pocket2Mol_44_num_sample_50-1

>  <s_m_source_file>  (1) 
generated__ligand_Pocket2Mol_2026-05-06_prepared.sdf

>  <GenAI_Model>  (1) 
Pocket2Mol

>  <Protein>  (1) 
generic_title2

$$$$
Pocket2Mol_44_num_sample_50
     RDKit          3D

  0  0  0  0  0  0  0  0  0  0999 V3000
M  V30 BEGIN CTAB
M  V30 COUNTS 14 15 0 0 1
M  V30 BEGIN ATOM
M  V30 1 C 12.482307 8.521386 -2.052768 0
M  V30 2 O 12.234839 7.228124 -2.693542 0
M  V30 3 C 11.834839 7.662977 -3.891667 0
M  V30 4 C 11.834839 8.977782 -4.029590 0
M  V30 5 C 11.434839 9.570184 -5.238132 0
M  V30 6 N 11.033360 8.835358 -6.311345 0
M  V30 7 C 11.032407 7.476521 -6.146865 0
M  V30 8 C 11.431139 6.842770 -4.944751 0
M  V30 9 O 12.228237 9.648469 -2.947168 0
M  V30 10 H 11.834845 8.616350 -1.179711 0
M  V30 11 H 13.518282 8.569307 -1.718163 0
M  V30 12 H 11.430714 10.644016 -5.353698 0
M  V30 13 H 10.709263 6.889520 -6.993935 0
M  V30 14 H 11.420241 5.769301 -4.846676 0
M  V30 END ATOM
M  V30 BEGIN BOND
M  V30 1 1 2 1
M  V30 2 1 3 2
M  V30 3 2 4 3
M  V30 4 1 5 4
M  V30 5 2 6 5
M  V30 6 1 7 6
M  V30 7 1 8 3
M  V30 8 2 8 7
M  V30 9 1 9 1
M  V30 10 1 9 4
M  V30 11 1 10 1
M  V30 12 1 11 1
M  V30 13 1 12 5
M  V30 14 1 13 7
M  V30 15 1 14 8
M  V30 END BOND
M  V30 END CTAB
M  END
>  <i_epik_Tot_Q>  (1) 
0

>  <i_epik_Tot_abs_Q>  (1) 
0

>  <i_i_glide_confnum>  (1) 
1

>  <i_i_glide_lignum>  (1) 
49

>  <i_i_glide_posenum>  (1) 
3

>  <i_i_glide_rotatable_bonds>  (1) 
0

>  <i_lp_mmshare_version>  (1) 
72125

>  <i_m_source_file_index>  (1) 
45

>  <i_f3d_flags>  (1) 
0

>  <num_sample>  (1) 
50

>  <b_lp_Chiralities_Consistent>  (1) 
1

>  <r_epik_Charging_Adjusted_Penalty>  (1) 
0.069790075728531922

>  <r_epik_Ionization_Penalty>  (1) 
0.069790075728531936

>  <r_epik_Ionization_Penalty_Charging>  (1) 
0

>  <r_epik_Ionization_Penalty_Neutral>  (1) 
0.069790075728531936

>  <r_epik_State_Penalty>  (1) 
0.069790075728531922

>  <r_glide_ring_energy>  (1) 
0

>  <r_i_docking_score>  (1) 
-5.3767643201727271

>  <r_i_glide_ecoul>  (1) 
-0.56626228876548856

>  <r_i_glide_eff_state_penalty>  (1) 
0.069790075728531922

>  <r_i_glide_einternal>  (1) 
0

>  <r_i_glide_emodel>  (1) 
-27.298516566630695

>  <r_i_glide_emodel_strain>  (1) 
0

>  <r_i_glide_energy>  (1) 
-20.196745225292315

>  <r_i_glide_erotb>  (1) 
0

>  <r_i_glide_esite>  (1) 
0

>  <r_i_glide_evdw>  (1) 
-19.630482936526825

>  <r_i_glide_gscore>  (1) 
-5.4465543959012592

>  <r_i_glide_gscore_strain>  (1) 
0

>  <r_i_glide_hbond>  (1) 
0

>  <r_i_glide_ligand_efficiency>  (1) 
-0.59741825779696967

>  <r_i_glide_ligand_efficiency_ln>  (1) 
-1.6816974191573366

>  <r_i_glide_ligand_efficiency_sa>  (1) 
-1.242680053639329

>  <r_i_glide_lipo>  (1) 
-1.3384242390934276

>  <r_i_glide_metal>  (1) 
-0

>  <r_i_glide_rewards>  (1) 
-3.041666666666667

>  <r_lp_Energy>  (1) 
21.238785

>  <r_lp_tautomer_probability>  (1) 
1

>  <s_epik_Chemistry_Notes>  (1) 
This compound contains an acetal/aminal-like group ( X-CH(R)-Y where X, Y are N, S, or O) that may be acid/base labile, releasing an aldehyde.

>  <s_epik_cmdline>  (1) 
J2VwaWtfcHl0aG9uJywgJy1waHQnLCAnMS4wJywgJy1waCcsICc3LjQnLCAnLXRuJywgJzgnLCAnLW1hJywgJzUwMCcsICctaW1hZScsICc8aW5maWxlLm1hZT4nLCAnLW9tYWUnLCAnPG91dGZpbGUubWFlPic=

>  <s_epik_input>  (1) 
TzFbQ0gyXU9jKGMxMilbY0hdbltjSF1bY0hdMg==

>  <s_glide_docking_method>  (1) 
confgen

>  <s_i_glide_gridfile>  (1) 
gpcr_drd2_6luq_protein_autoprepared_prepared

>  <s_lp_Force_Field>  (1) 
S-OPLS

>  <s_lp_Variant>  (1) 
Pocket2Mol_44_num_sample_50-1

>  <s_m_source_file>  (1) 
generated__ligand_Pocket2Mol_2026-05-06_prepared.sdf

>  <GenAI_Model>  (1) 
Pocket2Mol

>  <Protein>  (1) 
generic_title2

$$$$
Pocket2Mol_26_num_sample_50
     RDKit          3D

  0  0  0  0  0  0  0  0  0  0999 V3000
M  V30 BEGIN CTAB
M  V30 COUNTS 15 15 0 0 1
M  V30 BEGIN ATOM
M  V30 1 C 11.434888 6.566284 -4.095536 0
M  V30 2 O 11.371718 7.666248 -5.036263 0
M  V30 3 C 11.834866 8.928622 -4.690994 0
M  V30 4 C 11.685240 9.944667 -5.800041 0
M  V30 5 C 12.037059 6.924948 -2.755007 0
M  V30 6 C 12.358149 9.178045 -3.473279 0
M  V30 7 C 12.460810 8.151214 -2.484098 0
M  V30 8 H 10.429814 6.171434 -3.936286 0
M  V30 9 H 12.015379 5.766808 -4.549811 0
M  V30 10 H 12.024090 10.937476 -5.511966 0
M  V30 11 H 12.247459 9.625487 -6.678540 0
M  V30 12 H 10.635489 10.022671 -6.080400 0
M  V30 13 H 12.109652 6.139840 -2.014167 0
M  V30 14 H 12.708133 10.169300 -3.239421 0
M  V30 15 H 12.884182 8.375051 -1.515521 0
M  V30 END ATOM
M  V30 BEGIN BOND
M  V30 1 1 2 1
M  V30 2 1 3 2
M  V30 3 1 4 3
M  V30 4 1 5 1
M  V30 5 2 6 3
M  V30 6 2 7 5
M  V30 7 1 7 6
M  V30 8 1 8 1
M  V30 9 1 9 1
M  V30 10 1 10 4
M  V30 11 1 11 4
M  V30 12 1 12 4
M  V30 13 1 13 5
M  V30 14 1 14 6
M  V30 15 1 15 7
M  V30 END BOND
M  V30 END CTAB
M  END
>  <i_epik_Tot_Q>  (1) 
0

>  <i_epik_Tot_abs_Q>  (1) 
0

>  <i_i_glide_confnum>  (1) 
1

>  <i_i_glide_lignum>  (1) 
30

>  <i_i_glide_posenum>  (1) 
121

>  <i_i_glide_rotatable_bonds>  (1) 
0

>  <i_lp_mmshare_version>  (1) 
72125

>  <i_m_source_file_index>  (1) 
27

>  <i_f3d_flags>  (1) 
0

>  <num_sample>  (1) 
50

>  <b_lp_Chiralities_Consistent>  (1) 
1

>  <r_epik_Charging_Adjusted_Penalty>  (1) 
0

>  <r_epik_Ionization_Penalty>  (1) 
0

>  <r_epik_Ionization_Penalty_Charging>  (1) 
0

>  <r_epik_Ionization_Penalty_Neutral>  (1) 
0

>  <r_epik_State_Penalty>  (1) 
-0

>  <r_glide_ring_energy>  (1) 
0

>  <r_i_docking_score>  (1) 
-5.3628510823254461

>  <r_i_glide_ecoul>  (1) 
-0.69865236446748358

>  <r_i_glide_eff_state_penalty>  (1) 
-0

>  <r_i_glide_einternal>  (1) 
0

>  <r_i_glide_emodel>  (1) 
-23.562357229600881

>  <r_i_glide_emodel_strain>  (1) 
0.011925617970255153

>  <r_i_glide_energy>  (1) 
-17.66044967241632

>  <r_i_glide_erotb>  (1) 
0

>  <r_i_glide_esite>  (1) 
0

>  <r_i_glide_evdw>  (1) 
-16.961797307948835

>  <r_i_glide_gscore>  (1) 
-5.3628510823254461

>  <r_i_glide_gscore_strain>  (1) 
0

>  <r_i_glide_hbond>  (1) 
0

>  <r_i_glide_ligand_efficiency>  (1) 
-0.76612158318934942

>  <r_i_glide_ligand_efficiency_ln>  (1) 
-1.8204394604652796

>  <r_i_glide_ligand_efficiency_sa>  (1) 
-1.4655378662778575

>  <r_i_glide_lipo>  (1) 
-1.7958488099369114

>  <r_i_glide_metal>  (1) 
-0

>  <r_i_glide_rewards>  (1) 
-2.6141145523209706

>  <r_lp_Energy>  (1) 
4.7929789999999999

>  <r_lp_tautomer_probability>  (1) 
1

>  <s_epik_cmdline>  (1) 
J2VwaWtfcHl0aG9uJywgJy1waHQnLCAnMS4wJywgJy1waCcsICc3LjQnLCAnLXRuJywgJzgnLCAnLW1hJywgJzUwMCcsICctaW1hZScsICc8aW5maWxlLm1hZT4nLCAnLW9tYWUnLCAnPG91dGZpbGUubWFlPic=

>  <s_epik_input>  (1) 
TzFbQ0gyXVtDSF09W0NIXVtDSF09QzFbQ0gzXQ==

>  <s_glide_docking_method>  (1) 
confgen

>  <s_i_glide_gridfile>  (1) 
gpcr_drd2_6luq_protein_autoprepared_prepared

>  <s_lp_Force_Field>  (1) 
S-OPLS

>  <s_lp_Variant>  (1) 
Pocket2Mol_26_num_sample_50-1

>  <s_m_source_file>  (1) 
generated__ligand_Pocket2Mol_2026-05-06_prepared.sdf

>  <GenAI_Model>  (1) 
Pocket2Mol

>  <Protein>  (1) 
generic_title2

$$$$
Pocket2Mol_23_num_sample_50
     RDKit          3D

  0  0  0  0  0  0  0  0  0  0999 V3000
M  V30 BEGIN CTAB
M  V30 COUNTS 15 16 0 0 1
M  V30 BEGIN ATOM
M  V30 1 C 11.036847 8.156444 -5.856116 0
M  V30 2 O 11.685763 8.783936 -6.974746 0
M  V30 3 C 11.289051 8.187074 -8.208659 0 CFG=2
M  V30 4 C 9.812568 8.229222 -8.480435 0 CFG=1
M  V30 5 O 9.435141 7.964159 -9.813672 0
M  V30 6 C 10.472963 6.828099 -6.369421 0
M  V30 7 C 10.439845 7.007355 -7.846566 0 CFG=2
M  V30 8 H 11.724703 8.027563 -5.017478 0
M  V30 9 H 10.228151 8.794860 -5.499988 0
M  V30 10 H 12.021189 8.144738 -9.009300 0
M  V30 11 H 9.148049 8.874184 -7.905172 0
M  V30 12 H 8.476453 7.769316 -9.806572 0
M  V30 13 H 11.141443 5.993046 -6.136337 0
M  V30 14 H 9.478700 6.604705 -5.983701 0
M  V30 15 H 10.485503 6.102663 -8.449083 0
M  V30 END ATOM
M  V30 BEGIN BOND
M  V30 1 1 2 1
M  V30 2 1 3 2
M  V30 3 1 4 3
M  V30 4 1 5 4
M  V30 5 1 6 1
M  V30 6 1 7 3
M  V30 7 1 7 4
M  V30 8 1 7 6
M  V30 9 1 8 1
M  V30 10 1 9 1
M  V30 11 1 3 10 CFG=3
M  V30 12 1 4 11 CFG=1
M  V30 13 1 12 5
M  V30 14 1 13 6
M  V30 15 1 14 6
M  V30 16 1 7 15 CFG=3
M  V30 END BOND
M  V30 END CTAB
M  END
>  <i_epik_Tot_Q>  (1) 
0

>  <i_epik_Tot_abs_Q>  (1) 
0

>  <i_i_glide_confnum>  (1) 
1

>  <i_i_glide_lignum>  (1) 
27

>  <i_i_glide_posenum>  (1) 
391

>  <i_i_glide_rotatable_bonds>  (1) 
1

>  <i_lp_mmshare_version>  (1) 
72125

>  <i_m_source_file_index>  (1) 
24

>  <i_f3d_flags>  (1) 
0

>  <num_sample>  (1) 
50

>  <b_lp_Chiralities_Consistent>  (1) 
1

>  <r_epik_Charging_Adjusted_Penalty>  (1) 
0

>  <r_epik_Ionization_Penalty>  (1) 
4.3639151522347116e-08

>  <r_epik_Ionization_Penalty_Charging>  (1) 
0

>  <r_epik_Ionization_Penalty_Neutral>  (1) 
4.3639151522347116e-08

>  <r_epik_State_Penalty>  (1) 
-0

>  <r_glide_ring_energy>  (1) 
0

>  <r_i_docking_score>  (1) 
-5.3178440719613489

>  <r_i_glide_ecoul>  (1) 
-8.1785246931372484

>  <r_i_glide_eff_state_penalty>  (1) 
-0

>  <r_i_glide_einternal>  (1) 
0.30669704553063082

>  <r_i_glide_emodel>  (1) 
-27.618479847823568

>  <r_i_glide_emodel_strain>  (1) 
0.027331080376484351

>  <r_i_glide_energy>  (1) 
-20.561378476846592

>  <r_i_glide_erotb>  (1) 
0

>  <r_i_glide_esite>  (1) 
0

>  <r_i_glide_evdw>  (1) 
-12.382853783709345

>  <r_i_glide_gscore>  (1) 
-5.3178440719613489

>  <r_i_glide_gscore_strain>  (1) 
0

>  <r_i_glide_hbond>  (1) 
-0.16

>  <r_i_glide_ligand_efficiency>  (1) 
-0.75969201028019273

>  <r_i_glide_ligand_efficiency_ln>  (1) 
-1.8051616657984837

>  <r_i_glide_ligand_efficiency_sa>  (1) 
-1.4532385357680231

>  <r_i_glide_lipo>  (1) 
-0.74249932635888172

>  <r_i_glide_metal>  (1) 
-0

>  <r_i_glide_rewards>  (1) 
-2.569423352446413

>  <r_lp_Energy>  (1) 
3.2309049999999999

>  <r_lp_tautomer_probability>  (1) 
1

>  <s_epik_cmdline>  (1) 
J2VwaWtfcHl0aG9uJywgJy1waHQnLCAnMS4wJywgJy1waCcsICc3LjQnLCAnLXRuJywgJzgnLCAnLW1hJywgJzUwMCcsICctaW1hZScsICc8aW5maWxlLm1hZT4nLCAnLW9tYWUnLCAnPG91dGZpbGUubWFlPic=

>  <s_epik_input>  (1) 
TzFbQ0gyXVtDSDJdW0NIXShbQ0BIXTEyKVtDQEBIXTJbT0hd

>  <s_glide_docking_method>  (1) 
confgen

>  <s_i_glide_gridfile>  (1) 
gpcr_drd2_6luq_protein_autoprepared_prepared

>  <s_lp_Force_Field>  (1) 
S-OPLS

>  <s_lp_Variant>  (1) 
Pocket2Mol_23_num_sample_50-1

>  <s_m_source_file>  (1) 
generated__ligand_Pocket2Mol_2026-05-06_prepared.sdf

>  <GenAI_Model>  (1) 
Pocket2Mol

>  <Protein>  (1) 
generic_title2

$$$$
Pocket2Mol_28_num_sample_50
     RDKit          3D

  0  0  0  0  0  0  0  0  0  0999 V3000
M  V30 BEGIN CTAB
M  V30 COUNTS 18 18 0 0 1
M  V30 BEGIN ATOM
M  V30 1 C 9.575805 6.464588 -7.686063 0
M  V30 2 O 10.270290 6.583391 -9.054034 0
M  V30 3 C 10.383437 8.037963 -9.539472 0
M  V30 4 C 11.624910 8.804708 -9.048341 0
M  V30 5 O 12.711448 8.518241 -9.900088 0
M  V30 6 C 10.423517 6.923132 -6.489607 0
M  V30 7 C 12.072136 8.539896 -7.599125 0
M  V30 8 O 10.935682 8.371504 -6.577193 0
M  V30 9 H 8.634474 7.013916 -7.701417 0
M  V30 10 H 9.300287 5.422189 -7.526077 0
M  V30 11 H 9.482210 8.584342 -9.261335 0
M  V30 12 H 10.394300 8.047918 -10.629373 0
M  V30 13 H 11.435186 9.870659 -9.174248 0
M  V30 14 H 13.304895 9.253681 -9.885493 0
M  V30 15 H 9.860411 6.786281 -5.566415 0
M  V30 16 H 11.281549 6.255990 -6.407128 0
M  V30 17 H 12.718842 7.662949 -7.570236 0
M  V30 18 H 12.707596 9.369374 -7.288871 0
M  V30 END ATOM
M  V30 BEGIN BOND
M  V30 1 1 2 1
M  V30 2 1 3 2
M  V30 3 1 4 3
M  V30 4 1 5 4
M  V30 5 1 6 1
M  V30 6 1 7 4
M  V30 7 1 8 6
M  V30 8 1 8 7
M  V30 9 1 9 1
M  V30 10 1 10 1
M  V30 11 1 11 3
M  V30 12 1 12 3
M  V30 13 1 13 4
M  V30 14 1 14 5
M  V30 15 1 15 6
M  V30 16 1 16 6
M  V30 17 1 17 7
M  V30 18 1 18 7
M  V30 END BOND
M  V30 END CTAB
M  END
>  <i_epik_Tot_Q>  (1) 
0

>  <i_epik_Tot_abs_Q>  (1) 
0

>  <i_i_glide_confnum>  (1) 
7

>  <i_i_glide_lignum>  (1) 
32

>  <i_i_glide_posenum>  (1) 
248

>  <i_i_glide_rotatable_bonds>  (1) 
1

>  <i_lp_mmshare_version>  (1) 
72125

>  <i_m_source_file_index>  (1) 
29

>  <i_f3d_flags>  (1) 
0

>  <num_sample>  (1) 
50

>  <b_lp_Chiralities_Consistent>  (1) 
1

>  <r_epik_Charging_Adjusted_Penalty>  (1) 
0

>  <r_epik_Ionization_Penalty>  (1) 
1.4561355789117501e-07

>  <r_epik_Ionization_Penalty_Charging>  (1) 
0

>  <r_epik_Ionization_Penalty_Neutral>  (1) 
1.4561355789117501e-07

>  <r_epik_State_Penalty>  (1) 
-0

>  <r_glide_ring_energy>  (1) 
0.30599859261314222

>  <r_i_docking_score>  (1) 
-5.317676164506695

>  <r_i_glide_ecoul>  (1) 
-3.790140776164602

>  <r_i_glide_eff_state_penalty>  (1) 
-0

>  <r_i_glide_einternal>  (1) 
0.67388870995915062

>  <r_i_glide_emodel>  (1) 
-25.683316612046905

>  <r_i_glide_emodel_strain>  (1) 
2.4009273047246111

>  <r_i_glide_energy>  (1) 
-20.783676877216035

>  <r_i_glide_erotb>  (1) 
0

>  <r_i_glide_esite>  (1) 
0

>  <r_i_glide_evdw>  (1) 
-16.993536101051433

>  <r_i_glide_gscore>  (1) 
-5.317676164506695

>  <r_i_glide_gscore_strain>  (1) 
0

>  <r_i_glide_hbond>  (1) 
-0.32000000000000001

>  <r_i_glide_ligand_efficiency>  (1) 
-0.66470952056333688

>  <r_i_glide_ligand_efficiency_ln>  (1) 
-1.7268313402065434

>  <r_i_glide_ligand_efficiency_sa>  (1) 
-1.329419041126674

>  <r_i_glide_lipo>  (1) 
-0.8378115763627666

>  <r_i_glide_metal>  (1) 
-0

>  <r_i_glide_rewards>  (1) 
-2.7416666666666667

>  <r_lp_Energy>  (1) 
13.809562999999999

>  <r_lp_tautomer_probability>  (1) 
1

>  <s_epik_cmdline>  (1) 
J2VwaWtfcHl0aG9uJywgJy1waHQnLCAnMS4wJywgJy1waCcsICc3LjQnLCAnLXRuJywgJzgnLCAnLW1hJywgJzUwMCcsICctaW1hZScsICc8aW5maWxlLm1hZT4nLCAnLW9tYWUnLCAnPG91dGZpbGUubWFlPic=

>  <s_epik_input>  (1) 
W0NIMl0xT1tDSDJdW0NIMl1PW0NIMl1bQ0hdMVtPSF0=

>  <s_glide_docking_method>  (1) 
confgen

>  <s_i_glide_gridfile>  (1) 
gpcr_drd2_6luq_protein_autoprepared_prepared

>  <s_lp_Force_Field>  (1) 
S-OPLS

>  <s_lp_Variant>  (1) 
Pocket2Mol_28_num_sample_50-1

>  <s_m_source_file>  (1) 
generated__ligand_Pocket2Mol_2026-05-06_prepared.sdf

>  <GenAI_Model>  (1) 
Pocket2Mol

>  <Protein>  (1) 
generic_title2

$$$$
Pocket2Mol_44_num_sample_50
     RDKit          3D

  0  0  0  0  0  0  0  0  0  0999 V3000
M  V30 BEGIN CTAB
M  V30 COUNTS 14 15 0 0 1
M  V30 BEGIN ATOM
M  V30 1 C 9.754369 7.614771 -7.253847 0
M  V30 2 O 10.077765 6.570224 -6.281321 0
M  V30 3 C 10.851889 7.281238 -5.458612 0
M  V30 4 C 11.034842 8.538352 -5.820452 0
M  V30 5 C 11.827464 9.398236 -5.041693 0
M  V30 6 N 12.438206 8.989783 -3.891667 0
M  V30 7 C 12.234832 7.686144 -3.531915 0
M  V30 8 C 11.440418 6.789520 -4.291667 0
M  V30 9 O 10.412326 8.887426 -6.947482 0
M  V30 10 H 10.054095 7.284425 -8.249173 0
M  V30 11 H 8.672674 7.766285 -7.257113 0
M  V30 12 H 11.977420 10.427103 -5.333724 0
M  V30 13 H 12.713668 7.357393 -2.621305 0
M  V30 14 H 11.296067 5.769202 -3.980226 0
M  V30 END ATOM
M  V30 BEGIN BOND
M  V30 1 1 2 1
M  V30 2 1 3 2
M  V30 3 2 4 3
M  V30 4 1 5 4
M  V30 5 2 6 5
M  V30 6 1 7 6
M  V30 7 1 8 3
M  V30 8 2 8 7
M  V30 9 1 9 1
M  V30 10 1 9 4
M  V30 11 1 10 1
M  V30 12 1 11 1
M  V30 13 1 12 5
M  V30 14 1 13 7
M  V30 15 1 14 8
M  V30 END BOND
M  V30 END CTAB
M  END
>  <i_epik_Tot_Q>  (1) 
0

>  <i_epik_Tot_abs_Q>  (1) 
0

>  <i_i_glide_confnum>  (1) 
1

>  <i_i_glide_lignum>  (1) 
49

>  <i_i_glide_posenum>  (1) 
360

>  <i_i_glide_rotatable_bonds>  (1) 
0

>  <i_lp_mmshare_version>  (1) 
72125

>  <i_m_source_file_index>  (1) 
45

>  <i_f3d_flags>  (1) 
0

>  <num_sample>  (1) 
50

>  <b_lp_Chiralities_Consistent>  (1) 
1

>  <r_epik_Charging_Adjusted_Penalty>  (1) 
0.069790075728531922

>  <r_epik_Ionization_Penalty>  (1) 
0.069790075728531936

>  <r_epik_Ionization_Penalty_Charging>  (1) 
0

>  <r_epik_Ionization_Penalty_Neutral>  (1) 
0.069790075728531936

>  <r_epik_State_Penalty>  (1) 
0.069790075728531922

>  <r_glide_ring_energy>  (1) 
0

>  <r_i_docking_score>  (1) 
-5.3169407915420432

>  <r_i_glide_ecoul>  (1) 
-1.0685129231684805

>  <r_i_glide_eff_state_penalty>  (1) 
0.069790075728531922

>  <r_i_glide_einternal>  (1) 
0

>  <r_i_glide_emodel>  (1) 
-27.281539213085765

>  <r_i_glide_emodel_strain>  (1) 
9.3081098384573124e-13

>  <r_i_glide_energy>  (1) 
-20.25777187029221

>  <r_i_glide_erotb>  (1) 
0

>  <r_i_glide_esite>  (1) 
-0.058066946573294913

>  <r_i_glide_evdw>  (1) 
-19.189258947123729

>  <r_i_glide_gscore>  (1) 
-5.3867308672705754

>  <r_i_glide_gscore_strain>  (1) 
0

>  <r_i_glide_hbond>  (1) 
0

>  <r_i_glide_ligand_efficiency>  (1) 
-0.59077119906022701

>  <r_i_glide_ligand_efficiency_ln>  (1) 
-1.6629863379731284

>  <r_i_glide_ligand_efficiency_sa>  (1) 
-1.2288536142901547

>  <r_i_glide_lipo>  (1) 
-1.4899128484754844

>  <r_i_glide_metal>  (1) 
-0

>  <r_i_glide_rewards>  (1) 
-2.7190111863903379

>  <r_lp_Energy>  (1) 
21.238785

>  <r_lp_tautomer_probability>  (1) 
1

>  <s_epik_Chemistry_Notes>  (1) 
This compound contains an acetal/aminal-like group ( X-CH(R)-Y where X, Y are N, S, or O) that may be acid/base labile, releasing an aldehyde.

>  <s_epik_cmdline>  (1) 
J2VwaWtfcHl0aG9uJywgJy1waHQnLCAnMS4wJywgJy1waCcsICc3LjQnLCAnLXRuJywgJzgnLCAnLW1hJywgJzUwMCcsICctaW1hZScsICc8aW5maWxlLm1hZT4nLCAnLW9tYWUnLCAnPG91dGZpbGUubWFlPic=

>  <s_epik_input>  (1) 
TzFbQ0gyXU9jKGMxMilbY0hdbltjSF1bY0hdMg==

>  <s_glide_docking_method>  (1) 
confgen

>  <s_i_glide_gridfile>  (1) 
gpcr_drd2_6luq_protein_autoprepared_prepared

>  <s_lp_Force_Field>  (1) 
S-OPLS

>  <s_lp_Variant>  (1) 
Pocket2Mol_44_num_sample_50-1

>  <s_m_source_file>  (1) 
generated__ligand_Pocket2Mol_2026-05-06_prepared.sdf

>  <GenAI_Model>  (1) 
Pocket2Mol

>  <Protein>  (1) 
generic_title2

$$$$
Pocket2Mol_41_num_sample_50
     RDKit          3D

  0  0  0  0  0  0  0  0  0  0999 V3000
M  V30 BEGIN CTAB
M  V30 COUNTS 23 24 0 0 1
M  V30 BEGIN ATOM
M  V30 1 C 11.434904 8.858404 -5.416611 0
M  V30 2 O 11.098324 9.369304 -6.691411 0
M  V30 3 C 11.231812 8.349016 -7.678062 0 CFG=2
M  V30 4 C 12.502544 8.569303 -8.513282 0
M  V30 5 C 9.978961 8.300166 -8.559118 0
M  V30 6 C 10.968351 7.405213 -5.485602 0
M  V30 7 C 9.834774 6.825474 -8.905294 0
M  V30 8 C 11.249909 7.012564 -6.927704 0 CFG=1
M  V30 9 C 10.197380 6.116003 -7.603759 0
M  V30 10 H 12.511175 8.961510 -5.273476 0
M  V30 11 H 10.942926 9.421706 -4.624109 0
M  V30 12 H 12.686239 7.734074 -9.188084 0
M  V30 13 H 12.407422 9.457421 -9.134065 0
M  V30 14 H 13.383259 8.687143 -7.882354 0
M  V30 15 H 9.104393 8.616351 -7.987101 0
M  V30 16 H 10.038988 8.939887 -9.440092 0
M  V30 17 H 11.467447 6.760766 -4.761515 0
M  V30 18 H 9.897527 7.369103 -5.284218 0
M  V30 19 H 8.835415 6.569301 -9.256763 0
M  V30 20 H 10.542499 6.567307 -9.692501 0
M  V30 21 H 12.234640 6.553685 -6.997403 0
M  V30 22 H 9.304783 6.014771 -6.984647 0
M  V30 23 H 10.575744 5.114036 -7.803259 0
M  V30 END ATOM
M  V30 BEGIN BOND
M  V30 1 1 2 1
M  V30 2 1 3 2
M  V30 3 1 3 4 CFG=3
M  V30 4 1 5 3
M  V30 5 1 6 1
M  V30 6 1 7 5
M  V30 7 1 8 3
M  V30 8 1 8 6
M  V30 9 1 9 7
M  V30 10 1 9 8
M  V30 11 1 10 1
M  V30 12 1 11 1
M  V30 13 1 12 4
M  V30 14 1 13 4
M  V30 15 1 14 4
M  V30 16 1 15 5
M  V30 17 1 16 5
M  V30 18 1 17 6
M  V30 19 1 18 6
M  V30 20 1 19 7
M  V30 21 1 20 7
M  V30 22 1 8 21 CFG=1
M  V30 23 1 22 9
M  V30 24 1 23 9
M  V30 END BOND
M  V30 END CTAB
M  END
>  <i_epik_Tot_Q>  (1) 
0

>  <i_epik_Tot_abs_Q>  (1) 
0

>  <i_i_glide_confnum>  (1) 
4

>  <i_i_glide_lignum>  (1) 
46

>  <i_i_glide_posenum>  (1) 
113

>  <i_i_glide_rotatable_bonds>  (1) 
0

>  <i_lp_mmshare_version>  (1) 
72125

>  <i_m_source_file_index>  (1) 
42

>  <i_f3d_flags>  (1) 
0

>  <num_sample>  (1) 
50

>  <b_lp_Chiralities_Consistent>  (1) 
1

>  <r_epik_Charging_Adjusted_Penalty>  (1) 
0

>  <r_epik_Ionization_Penalty>  (1) 
2.4347883345708157e-11

>  <r_epik_Ionization_Penalty_Charging>  (1) 
0

>  <r_epik_Ionization_Penalty_Neutral>  (1) 
2.4347883345708157e-11

>  <r_epik_State_Penalty>  (1) 
-0

>  <r_glide_ring_energy>  (1) 
1.4300080397860451

>  <r_i_docking_score>  (1) 
-5.3158892516688372

>  <r_i_glide_ecoul>  (1) 
-0.38946738383701179

>  <r_i_glide_eff_state_penalty>  (1) 
-0

>  <r_i_glide_einternal>  (1) 
0

>  <r_i_glide_emodel>  (1) 
-24.420227167145516

>  <r_i_glide_emodel_strain>  (1) 
0

>  <r_i_glide_energy>  (1) 
-18.79314997578502

>  <r_i_glide_erotb>  (1) 
0

>  <r_i_glide_esite>  (1) 
0

>  <r_i_glide_evdw>  (1) 
-18.403682591948009

>  <r_i_glide_gscore>  (1) 
-5.3158892516688372

>  <r_i_glide_gscore_strain>  (1) 
0

>  <r_i_glide_hbond>  (1) 
0

>  <r_i_glide_ligand_efficiency>  (1) 
-0.59065436129653748

>  <r_i_glide_ligand_efficiency_ln>  (1) 
-1.662657446508744

>  <r_i_glide_ligand_efficiency_sa>  (1) 
-1.2286105819479824

>  <r_i_glide_lipo>  (1) 
-1.437816681329106

>  <r_i_glide_metal>  (1) 
-0

>  <r_i_glide_rewards>  (1) 
-2.8994683331667797

>  <r_lp_Energy>  (1) 
5.4699619999999998

>  <r_lp_tautomer_probability>  (1) 
1

>  <s_epik_cmdline>  (1) 
J2VwaWtfcHl0aG9uJywgJy1waHQnLCAnMS4wJywgJy1waCcsICc3LjQnLCAnLXRuJywgJzgnLCAnLW1hJywgJzUwMCcsICctaW1hZScsICc8aW5maWxlLm1hZT4nLCAnLW9tYWUnLCAnPG91dGZpbGUubWFlPic=

>  <s_epik_input>  (1) 
TzFbQ0gyXVtDSDJdW0NASF0oW0NAXTEyW0NIM10pW0NIMl1bQ0gyXVtDSDJdMg==

>  <s_glide_docking_method>  (1) 
confgen

>  <s_i_glide_gridfile>  (1) 
gpcr_drd2_6luq_protein_autoprepared_prepared

>  <s_lp_Force_Field>  (1) 
S-OPLS

>  <s_lp_Variant>  (1) 
Pocket2Mol_41_num_sample_50-1

>  <s_m_source_file>  (1) 
generated__ligand_Pocket2Mol_2026-05-06_prepared.sdf

>  <GenAI_Model>  (1) 
Pocket2Mol

>  <Protein>  (1) 
generic_title2

$$$$
Pocket2Mol_41_num_sample_50
     RDKit          3D

  0  0  0  0  0  0  0  0  0  0999 V3000
M  V30 BEGIN CTAB
M  V30 COUNTS 23 24 0 0 1
M  V30 BEGIN ATOM
M  V30 1 C 9.424834 6.608328 -7.427654 0
M  V30 2 O 9.459836 7.460996 -6.291668 0
M  V30 3 C 10.822032 7.718888 -5.970764 0 CFG=2
M  V30 4 C 11.289121 6.687134 -4.928191 0
M  V30 5 C 11.040813 9.160254 -5.491665 0
M  V30 6 C 10.472442 7.241006 -8.324148 0
M  V30 7 C 12.287011 9.661580 -6.203839 0
M  V30 8 C 11.550961 7.619067 -7.318791 0 CFG=1
M  V30 9 C 12.234840 8.969298 -7.566494 0
M  V30 10 H 9.704693 5.592524 -7.146247 0
M  V30 11 H 8.439686 6.569303 -7.889585 0
M  V30 12 H 12.234841 6.971972 -4.471619 0
M  V30 13 H 10.562328 6.569302 -4.125484 0
M  V30 14 H 11.425980 5.710389 -5.381608 0
M  V30 15 H 10.234839 9.780707 -5.844221 0
M  V30 16 H 11.090670 9.264472 -4.407433 0
M  V30 17 H 10.827540 6.569298 -9.104835 0
M  V30 18 H 10.039473 8.120688 -8.802096 0
M  V30 19 H 12.297374 10.748320 -6.291666 0
M  V30 20 H 13.182600 9.369302 -5.656073 0
M  V30 21 H 12.288256 6.823925 -7.259761 0
M  V30 22 H 11.650708 9.576102 -8.257260 0
M  V30 23 H 13.226979 8.853125 -8.004451 0
M  V30 END ATOM
M  V30 BEGIN BOND
M  V30 1 1 2 1
M  V30 2 1 3 2
M  V30 3 1 3 4 CFG=1
M  V30 4 1 5 3
M  V30 5 1 6 1
M  V30 6 1 7 5
M  V30 7 1 8 3
M  V30 8 1 8 6
M  V30 9 1 9 7
M  V30 10 1 9 8
M  V30 11 1 10 1
M  V30 12 1 11 1
M  V30 13 1 12 4
M  V30 14 1 13 4
M  V30 15 1 14 4
M  V30 16 1 15 5
M  V30 17 1 16 5
M  V30 18 1 17 6
M  V30 19 1 18 6
M  V30 20 1 19 7
M  V30 21 1 20 7
M  V30 22 1 8 21 CFG=1
M  V30 23 1 22 9
M  V30 24 1 23 9
M  V30 END BOND
M  V30 END CTAB
M  END
>  <i_epik_Tot_Q>  (1) 
0

>  <i_epik_Tot_abs_Q>  (1) 
0

>  <i_i_glide_confnum>  (1) 
4

>  <i_i_glide_lignum>  (1) 
46

>  <i_i_glide_posenum>  (1) 
211

>  <i_i_glide_rotatable_bonds>  (1) 
0

>  <i_lp_mmshare_version>  (1) 
72125

>  <i_m_source_file_index>  (1) 
42

>  <i_f3d_flags>  (1) 
0

>  <num_sample>  (1) 
50

>  <b_lp_Chiralities_Consistent>  (1) 
1

>  <r_epik_Charging_Adjusted_Penalty>  (1) 
0

>  <r_epik_Ionization_Penalty>  (1) 
2.4347883345708157e-11

>  <r_epik_Ionization_Penalty_Charging>  (1) 
0

>  <r_epik_Ionization_Penalty_Neutral>  (1) 
2.4347883345708157e-11

>  <r_epik_State_Penalty>  (1) 
-0

>  <r_glide_ring_energy>  (1) 
1.4300080397860451

>  <r_i_docking_score>  (1) 
-5.2895741209622091

>  <r_i_glide_ecoul>  (1) 
0.3291493068270484

>  <r_i_glide_eff_state_penalty>  (1) 
-0

>  <r_i_glide_einternal>  (1) 
0

>  <r_i_glide_emodel>  (1) 
-22.717256614410935

>  <r_i_glide_emodel_strain>  (1) 
0.011337955123664756

>  <r_i_glide_energy>  (1) 
-17.129372975756475

>  <r_i_glide_erotb>  (1) 
0

>  <r_i_glide_esite>  (1) 
0

>  <r_i_glide_evdw>  (1) 
-17.458522282583523

>  <r_i_glide_gscore>  (1) 
-5.2895741209622091

>  <r_i_glide_gscore_strain>  (1) 
0

>  <r_i_glide_hbond>  (1) 
0

>  <r_i_glide_ligand_efficiency>  (1) 
-0.58773045788468992

>  <r_i_glide_ligand_efficiency_ln>  (1) 
-1.6544268295876916

>  <r_i_glide_ligand_efficiency_sa>  (1) 
-1.2225286177608321

>  <r_i_glide_lipo>  (1) 
-1.5993537361904235

>  <r_i_glide_metal>  (1) 
-0

>  <r_i_glide_rewards>  (1) 
-2.8666666666666667

>  <r_lp_Energy>  (1) 
5.4699619999999998

>  <r_lp_tautomer_probability>  (1) 
1

>  <s_epik_cmdline>  (1) 
J2VwaWtfcHl0aG9uJywgJy1waHQnLCAnMS4wJywgJy1waCcsICc3LjQnLCAnLXRuJywgJzgnLCAnLW1hJywgJzUwMCcsICctaW1hZScsICc8aW5maWxlLm1hZT4nLCAnLW9tYWUnLCAnPG91dGZpbGUubWFlPic=

>  <s_epik_input>  (1) 
TzFbQ0gyXVtDSDJdW0NASF0oW0NAXTEyW0NIM10pW0NIMl1bQ0gyXVtDSDJdMg==

>  <s_glide_docking_method>  (1) 
confgen

>  <s_i_glide_gridfile>  (1) 
gpcr_drd2_6luq_protein_autoprepared_prepared

>  <s_lp_Force_Field>  (1) 
S-OPLS

>  <s_lp_Variant>  (1) 
Pocket2Mol_41_num_sample_50-1

>  <s_m_source_file>  (1) 
generated__ligand_Pocket2Mol_2026-05-06_prepared.sdf

>  <GenAI_Model>  (1) 
Pocket2Mol

>  <Protein>  (1) 
generic_title2

$$$$
Pocket2Mol_12_num_sample_50
     RDKit          3D

  0  0  0  0  0  0  0  0  0  0999 V3000
M  V30 BEGIN CTAB
M  V30 COUNTS 15 15 0 0 1
M  V30 BEGIN ATOM
M  V30 1 N 11.834840 6.925314 -3.405633 0
M  V30 2 C 11.343615 6.885385 -4.690181 0
M  V30 3 C 11.434839 8.169185 -5.215033 0
M  V30 4 C 12.234840 8.180524 -3.114392 0
M  V30 5 C 11.012801 8.613330 -6.587648 0
M  V30 6 N 12.774542 8.569298 -1.899277 0
M  V30 7 C 12.018300 8.990827 -4.178809 0
M  V30 8 H 10.971439 5.963499 -5.114071 0
M  V30 9 H 10.617496 7.771665 -7.156750 0
M  V30 10 H 10.233032 9.369095 -6.515214 0
M  V30 11 H 11.857573 9.034539 -7.133785 0
M  V30 12 H 13.072817 9.521678 -1.708427 0
M  V30 13 H 11.886025 6.135352 -2.777355 0
M  V30 14 H 12.241240 10.045263 -4.225362 0
M  V30 15 H 12.909193 7.932717 -1.129079 0
M  V30 END ATOM
M  V30 BEGIN BOND
M  V30 1 1 2 1
M  V30 2 2 3 2
M  V30 3 1 4 1
M  V30 4 1 5 3
M  V30 5 1 6 4
M  V30 6 1 7 3
M  V30 7 2 7 4
M  V30 8 1 8 2
M  V30 9 1 9 5
M  V30 10 1 10 5
M  V30 11 1 11 5
M  V30 12 1 12 6
M  V30 13 1 13 1
M  V30 14 1 14 7
M  V30 15 1 15 6
M  V30 END BOND
M  V30 END CTAB
M  END
>  <i_epik_Tot_Q>  (1) 
0

>  <i_epik_Tot_abs_Q>  (1) 
0

>  <i_i_glide_confnum>  (1) 
1

>  <i_i_glide_lignum>  (1) 
15

>  <i_i_glide_posenum>  (1) 
277

>  <i_i_glide_rotatable_bonds>  (1) 
0

>  <i_lp_mmshare_version>  (1) 
72125

>  <i_m_source_file_index>  (1) 
13

>  <i_f3d_flags>  (1) 
0

>  <num_sample>  (1) 
50

>  <b_lp_Chiralities_Consistent>  (1) 
1

>  <r_epik_Charging_Adjusted_Penalty>  (1) 
0

>  <r_epik_Ionization_Penalty>  (1) 
0.00031849139131666116

>  <r_epik_Ionization_Penalty_Charging>  (1) 
0

>  <r_epik_Ionization_Penalty_Neutral>  (1) 
0.00031849139131666116

>  <r_epik_State_Penalty>  (1) 
-0

>  <r_glide_ring_energy>  (1) 
0

>  <r_i_docking_score>  (1) 
-5.2882296106810713

>  <r_i_glide_ecoul>  (1) 
-2.8223580001916693

>  <r_i_glide_eff_state_penalty>  (1) 
-0

>  <r_i_glide_einternal>  (1) 
0

>  <r_i_glide_emodel>  (1) 
-24.888628871577158

>  <r_i_glide_emodel_strain>  (1) 
0

>  <r_i_glide_energy>  (1) 
-18.174240546190184

>  <r_i_glide_erotb>  (1) 
0

>  <r_i_glide_esite>  (1) 
0

>  <r_i_glide_evdw>  (1) 
-15.351882545998516

>  <r_i_glide_gscore>  (1) 
-5.2882296106810713

>  <r_i_glide_gscore_strain>  (1) 
0

>  <r_i_glide_hbond>  (1) 
-0.32000000000000001

>  <r_i_glide_ligand_efficiency>  (1) 
-0.75546137295443871

>  <r_i_glide_ligand_efficiency_ln>  (1) 
-1.7951089283483024

>  <r_i_glide_ligand_efficiency_sa>  (1) 
-1.4451456177045876

>  <r_i_glide_lipo>  (1) 
-1.4837305557851768

>  <r_i_glide_metal>  (1) 
-0

>  <r_i_glide_rewards>  (1) 
-2.2935512275672192

>  <r_lp_Energy>  (1) 
-3.18065

>  <r_lp_tautomer_probability>  (1) 
1

>  <s_epik_cmdline>  (1) 
J2VwaWtfcHl0aG9uJywgJy1waHQnLCAnMS4wJywgJy1waCcsICc3LjQnLCAnLXRuJywgJzgnLCAnLW1hJywgJzUwMCcsICctaW1hZScsICc8aW5maWxlLm1hZT4nLCAnLW9tYWUnLCAnPG91dGZpbGUubWFlPic=

>  <s_epik_input>  (1) 
W05IMl1DKFtDSDJdMSk9TltDSF09QzFbQ0gzXQ==

>  <s_glide_docking_method>  (1) 
confgen

>  <s_i_glide_gridfile>  (1) 
gpcr_drd2_6luq_protein_autoprepared_prepared

>  <s_lp_Force_Field>  (1) 
S-OPLS

>  <s_lp_Variant>  (1) 
Pocket2Mol_12_num_sample_50-1

>  <s_m_source_file>  (1) 
generated__ligand_Pocket2Mol_2026-05-06_prepared.sdf

>  <GenAI_Model>  (1) 
Pocket2Mol

>  <Protein>  (1) 
generic_title2

$$$$
Pocket2Mol_38_num_sample_50
     RDKit          3D

  0  0  0  0  0  0  0  0  0  0999 V3000
M  V30 BEGIN CTAB
M  V30 COUNTS 14 15 0 0 1
M  V30 BEGIN ATOM
M  V30 1 C 11.273184 9.189235 -5.359147 0
M  V30 2 O 10.234839 8.457779 -5.905119 0
M  V30 3 C 10.573737 8.196137 -7.210383 0
M  V30 4 C 11.825024 8.753640 -7.491669 0
M  V30 5 C 12.329684 8.569304 -8.820676 0
M  V30 6 C 9.834839 7.503589 -8.146894 0
M  V30 7 C 12.271848 9.395204 -6.291672 0
M  V30 8 N 11.589700 7.876764 -9.745200 0
M  V30 9 C 10.379005 7.367639 -9.416824 0
M  V30 10 H 11.154739 9.479052 -4.325114 0
M  V30 11 H 13.284375 8.969243 -9.130726 0
M  V30 12 H 8.863740 7.090170 -7.904747 0
M  V30 13 H 13.201531 9.928370 -6.154397 0
M  V30 14 H 9.844873 6.840325 -10.193826 0
M  V30 END ATOM
M  V30 BEGIN BOND
M  V30 1 1 2 1
M  V30 2 1 3 2
M  V30 3 2 4 3
M  V30 4 1 5 4
M  V30 5 1 6 3
M  V30 6 2 7 1
M  V30 7 1 7 4
M  V30 8 2 8 5
M  V30 9 2 9 6
M  V30 10 1 9 8
M  V30 11 1 10 1
M  V30 12 1 11 5
M  V30 13 1 12 6
M  V30 14 1 13 7
M  V30 15 1 14 9
M  V30 END BOND
M  V30 END CTAB
M  END
>  <i_epik_Tot_Q>  (1) 
0

>  <i_epik_Tot_abs_Q>  (1) 
0

>  <i_i_glide_confnum>  (1) 
1

>  <i_i_glide_lignum>  (1) 
43

>  <i_i_glide_posenum>  (1) 
307

>  <i_i_glide_rotatable_bonds>  (1) 
0

>  <i_lp_mmshare_version>  (1) 
72125

>  <i_m_source_file_index>  (1) 
39

>  <i_f3d_flags>  (1) 
0

>  <num_sample>  (1) 
50

>  <b_lp_Chiralities_Consistent>  (1) 
1

>  <r_epik_Charging_Adjusted_Penalty>  (1) 
0

>  <r_epik_Ionization_Penalty>  (1) 
0.00075511756769225586

>  <r_epik_Ionization_Penalty_Charging>  (1) 
0

>  <r_epik_Ionization_Penalty_Neutral>  (1) 
0.00075511756769225586

>  <r_epik_State_Penalty>  (1) 
-0

>  <r_glide_ring_energy>  (1) 
0

>  <r_i_docking_score>  (1) 
-5.2785611104902417

>  <r_i_glide_ecoul>  (1) 
-1.6894317607058511

>  <r_i_glide_eff_state_penalty>  (1) 
-0

>  <r_i_glide_einternal>  (1) 
0

>  <r_i_glide_emodel>  (1) 
-26.843531281154892

>  <r_i_glide_emodel_strain>  (1) 
0

>  <r_i_glide_energy>  (1) 
-19.902451127989757

>  <r_i_glide_erotb>  (1) 
0

>  <r_i_glide_esite>  (1) 
0

>  <r_i_glide_evdw>  (1) 
-18.213019367283906

>  <r_i_glide_gscore>  (1) 
-5.2785611104902417

>  <r_i_glide_gscore_strain>  (1) 
0

>  <r_i_glide_hbond>  (1) 
0

>  <r_i_glide_ligand_efficiency>  (1) 
-0.58650679005447126

>  <r_i_glide_ligand_efficiency_ln>  (1) 
-1.650982276286671

>  <r_i_glide_ligand_efficiency_sa>  (1) 
-1.2199832861024054

>  <r_i_glide_lipo>  (1) 
-1.3061620446868352

>  <r_i_glide_metal>  (1) 
-0

>  <r_i_glide_rewards>  (1) 
-2.8083333333333336

>  <r_lp_Energy>  (1) 
12.667646999999999

>  <r_lp_tautomer_probability>  (1) 
1

>  <s_epik_cmdline>  (1) 
J2VwaWtfcHl0aG9uJywgJy1waHQnLCAnMS4wJywgJy1waCcsICc3LjQnLCAnLXRuJywgJzgnLCAnLW1hJywgJzUwMCcsICctaW1hZScsICc8aW5maWxlLm1hZT4nLCAnLW9tYWUnLCAnPG91dGZpbGUubWFlPic=

>  <s_epik_input>  (1) 
bzFbY0hdW2NIXWMoYzEyKVtjSF1uW2NIXVtjSF0y

>  <s_glide_docking_method>  (1) 
confgen

>  <s_i_glide_gridfile>  (1) 
gpcr_drd2_6luq_protein_autoprepared_prepared

>  <s_lp_Force_Field>  (1) 
S-OPLS

>  <s_lp_Variant>  (1) 
Pocket2Mol_38_num_sample_50-1

>  <s_m_source_file>  (1) 
generated__ligand_Pocket2Mol_2026-05-06_prepared.sdf

>  <GenAI_Model>  (1) 
Pocket2Mol

>  <Protein>  (1) 
generic_title2

$$$$
Pocket2Mol_26_num_sample_50
     RDKit          3D

  0  0  0  0  0  0  0  0  0  0999 V3000
M  V30 BEGIN CTAB
M  V30 COUNTS 15 15 0 0 1
M  V30 BEGIN ATOM
M  V30 1 C 10.832574 7.141105 -6.024556 0
M  V30 2 O 11.286481 6.731905 -4.707455 0
M  V30 3 C 11.834839 7.652114 -3.820749 0
M  V30 4 C 12.234973 7.044558 -2.493607 0
M  V30 5 C 11.029722 8.612686 -6.317218 0
M  V30 6 C 11.976527 8.954049 -4.150574 0
M  V30 7 C 11.564867 9.441847 -5.430073 0
M  V30 8 H 11.367368 6.559420 -6.775894 0
M  V30 9 H 9.773653 6.899948 -6.122007 0
M  V30 10 H 12.658916 7.797355 -1.828993 0
M  V30 11 H 11.368593 6.601705 -2.000753 0
M  V30 12 H 12.981679 6.263411 -2.642963 0
M  V30 13 H 10.715829 8.973181 -7.285970 0
M  V30 14 H 12.407933 9.640376 -3.433894 0
M  V30 15 H 11.688624 10.486744 -5.674849 0
M  V30 END ATOM
M  V30 BEGIN BOND
M  V30 1 1 2 1
M  V30 2 1 3 2
M  V30 3 1 4 3
M  V30 4 1 5 1
M  V30 5 2 6 3
M  V30 6 2 7 5
M  V30 7 1 7 6
M  V30 8 1 8 1
M  V30 9 1 9 1
M  V30 10 1 10 4
M  V30 11 1 11 4
M  V30 12 1 12 4
M  V30 13 1 13 5
M  V30 14 1 14 6
M  V30 15 1 15 7
M  V30 END BOND
M  V30 END CTAB
M  END
>  <i_epik_Tot_Q>  (1) 
0

>  <i_epik_Tot_abs_Q>  (1) 
0

>  <i_i_glide_confnum>  (1) 
1

>  <i_i_glide_lignum>  (1) 
30

>  <i_i_glide_posenum>  (1) 
10

>  <i_i_glide_rotatable_bonds>  (1) 
0

>  <i_lp_mmshare_version>  (1) 
72125

>  <i_m_source_file_index>  (1) 
27

>  <i_f3d_flags>  (1) 
0

>  <num_sample>  (1) 
50

>  <b_lp_Chiralities_Consistent>  (1) 
1

>  <r_epik_Charging_Adjusted_Penalty>  (1) 
0

>  <r_epik_Ionization_Penalty>  (1) 
0

>  <r_epik_Ionization_Penalty_Charging>  (1) 
0

>  <r_epik_Ionization_Penalty_Neutral>  (1) 
0

>  <r_epik_State_Penalty>  (1) 
-0

>  <r_glide_ring_energy>  (1) 
0

>  <r_i_docking_score>  (1) 
-5.2682250788332636

>  <r_i_glide_ecoul>  (1) 
-0.18273212451049553

>  <r_i_glide_eff_state_penalty>  (1) 
-0

>  <r_i_glide_einternal>  (1) 
0

>  <r_i_glide_emodel>  (1) 
-23.394027915525172

>  <r_i_glide_emodel_strain>  (1) 
0

>  <r_i_glide_energy>  (1) 
-17.584542668383627

>  <r_i_glide_erotb>  (1) 
0

>  <r_i_glide_esite>  (1) 
0

>  <r_i_glide_evdw>  (1) 
-17.401810543873133

>  <r_i_glide_gscore>  (1) 
-5.2682250788332636

>  <r_i_glide_gscore_strain>  (1) 
0

>  <r_i_glide_hbond>  (1) 
0

>  <r_i_glide_ligand_efficiency>  (1) 
-0.75260358269046623

>  <r_i_glide_ligand_efficiency_ln>  (1) 
-1.7883183166746155

>  <r_i_glide_ligand_efficiency_sa>  (1) 
-1.4396788615948113

>  <r_i_glide_lipo>  (1) 
-1.704058066296366

>  <r_i_glide_metal>  (1) 
-0

>  <r_i_glide_rewards>  (1) 
-2.6666666666666665

>  <r_lp_Energy>  (1) 
4.7929789999999999

>  <r_lp_tautomer_probability>  (1) 
1

>  <s_epik_cmdline>  (1) 
J2VwaWtfcHl0aG9uJywgJy1waHQnLCAnMS4wJywgJy1waCcsICc3LjQnLCAnLXRuJywgJzgnLCAnLW1hJywgJzUwMCcsICctaW1hZScsICc8aW5maWxlLm1hZT4nLCAnLW9tYWUnLCAnPG91dGZpbGUubWFlPic=

>  <s_epik_input>  (1) 
TzFbQ0gyXVtDSF09W0NIXVtDSF09QzFbQ0gzXQ==

>  <s_glide_docking_method>  (1) 
confgen

>  <s_i_glide_gridfile>  (1) 
gpcr_drd2_6luq_protein_autoprepared_prepared

>  <s_lp_Force_Field>  (1) 
S-OPLS

>  <s_lp_Variant>  (1) 
Pocket2Mol_26_num_sample_50-1

>  <s_m_source_file>  (1) 
generated__ligand_Pocket2Mol_2026-05-06_prepared.sdf

>  <GenAI_Model>  (1) 
Pocket2Mol

>  <Protein>  (1) 
generic_title2

$$$$
Pocket2Mol_34_num_sample_50
     RDKit          3D

  0  0  0  0  0  0  0  0  0  0999 V3000
M  V30 BEGIN CTAB
M  V30 COUNTS 17 18 0 0 1
M  V30 BEGIN ATOM
M  V30 1 C 12.448007 9.485812 -5.807003 0
M  V30 2 O 12.986817 8.969301 -7.093286 0
M  V30 3 C 11.852470 8.562908 -7.686330 0
M  V30 4 C 10.752112 8.558906 -6.906808 0
M  V30 5 C 9.515236 8.168835 -7.421880 0
M  V30 6 N 9.434844 7.800304 -8.718453 0 CHG=1
M  V30 7 C 10.512853 7.783071 -9.542266 0
M  V30 8 C 11.776728 8.169979 -9.037033 0
M  V30 9 C 10.955900 8.996717 -5.531067 0
M  V30 10 H 12.440075 10.568770 -5.897844 0
M  V30 11 H 13.106822 9.262339 -4.967775 0
M  V30 12 H 8.599762 8.148053 -6.856237 0
M  V30 13 H 10.330658 7.472694 -10.561559 0
M  V30 14 H 12.653533 8.174194 -9.667906 0
M  V30 15 H 10.235907 9.769146 -5.238630 0
M  V30 16 H 10.915912 8.144201 -4.852747 0
M  V30 17 H 8.503635 7.533915 -9.096516 0
M  V30 END ATOM
M  V30 BEGIN BOND
M  V30 1 1 2 1
M  V30 2 1 3 2
M  V30 3 2 4 3
M  V30 4 1 5 4
M  V30 5 2 6 5
M  V30 6 1 7 6
M  V30 7 1 8 3
M  V30 8 2 8 7
M  V30 9 1 9 1
M  V30 10 1 9 4
M  V30 11 1 10 1
M  V30 12 1 11 1
M  V30 13 1 12 5
M  V30 14 1 13 7
M  V30 15 1 14 8
M  V30 16 1 15 9
M  V30 17 1 16 9
M  V30 18 1 17 6
M  V30 END BOND
M  V30 END CTAB
M  END
>  <i_epik_Tot_Q>  (1) 
1

>  <i_epik_Tot_abs_Q>  (1) 
1

>  <i_i_glide_confnum>  (1) 
1

>  <i_i_glide_lignum>  (1) 
38

>  <i_i_glide_posenum>  (1) 
6

>  <i_i_glide_rotatable_bonds>  (1) 
0

>  <i_lp_mmshare_version>  (1) 
72125

>  <i_m_source_file_index>  (1) 
35

>  <i_f3d_flags>  (1) 
0

>  <num_sample>  (1) 
50

>  <b_lp_Chiralities_Consistent>  (1) 
1

>  <r_epik_Charging_Adjusted_Penalty>  (1) 
0.75885481127580179

>  <r_epik_Ionization_Penalty>  (1) 
0.37942740563790117

>  <r_epik_Ionization_Penalty_Charging>  (1) 
0.37942740563790117

>  <r_epik_Ionization_Penalty_Neutral>  (1) 
0

>  <r_epik_State_Penalty>  (1) 
0.37942740563790056

>  <r_glide_ring_energy>  (1) 
0

>  <r_i_docking_score>  (1) 
-5.2670130026348181

>  <r_i_glide_ecoul>  (1) 
-4.2496765114377482

>  <r_i_glide_eff_state_penalty>  (1) 
0.37942740563790056

>  <r_i_glide_einternal>  (1) 
0

>  <r_i_glide_emodel>  (1) 
-27.927726001992507

>  <r_i_glide_emodel_strain>  (1) 
0.072857107209259198

>  <r_i_glide_energy>  (1) 
-17.506894372558897

>  <r_i_glide_erotb>  (1) 
0

>  <r_i_glide_esite>  (1) 
-0.10000000000000001

>  <r_i_glide_evdw>  (1) 
-13.25721786112115

>  <r_i_glide_gscore>  (1) 
-5.6464404082727189

>  <r_i_glide_gscore_strain>  (1) 
0

>  <r_i_glide_hbond>  (1) 
-0.20000000000000001

>  <r_i_glide_ligand_efficiency>  (1) 
-0.58522366695942418

>  <r_i_glide_ligand_efficiency_ln>  (1) 
-1.6473703598960354

>  <r_i_glide_ligand_efficiency_sa>  (1) 
-1.2173142825094136

>  <r_i_glide_lipo>  (1) 
-1.3711280385009994

>  <r_i_glide_metal>  (1) 
-0

>  <r_i_glide_rewards>  (1) 
-2.6749999999999998

>  <r_lp_Energy>  (1) 
18.327531999999998

>  <s_epik_cmdline>  (1) 
J2VwaWtfcHl0aG9uJywgJy1waHQnLCAnMS4wJywgJy1waCcsICc3LjQnLCAnLXRuJywgJzgnLCAnLW1hJywgJzUwMCcsICctaW1hZScsICc8aW5maWxlLm1hZT4nLCAnLW9tYWUnLCAnPG91dGZpbGUubWFlPic=

>  <s_epik_input>  (1) 
TzFbQ0gyXVtDSDJdYyhjMTIpW2NIXW5bY0hdW2NIXTI=

>  <s_glide_docking_method>  (1) 
confgen

>  <s_i_glide_gridfile>  (1) 
gpcr_drd2_6luq_protein_autoprepared_prepared

>  <s_lp_Force_Field>  (1) 
S-OPLS

>  <s_lp_Variant>  (1) 
Pocket2Mol_34_num_sample_50-1

>  <s_m_source_file>  (1) 
generated__ligand_Pocket2Mol_2026-05-06_prepared.sdf

>  <GenAI_Model>  (1) 
Pocket2Mol

>  <Protein>  (1) 
generic_title2

$$$$
Pocket2Mol_33_num_sample_50
     RDKit          3D

  0  0  0  0  0  0  0  0  0  0999 V3000
M  V30 BEGIN CTAB
M  V30 COUNTS 21 22 0 0 1
M  V30 BEGIN ATOM
M  V30 1 C 9.834839 8.319308 -8.851805 0
M  V30 2 O 9.591401 8.569302 -7.472695 0
M  V30 3 C 10.654028 7.992652 -6.725272 0 CFG=2
M  V30 4 C 10.280164 6.569301 -6.291666 0
M  V30 5 C 11.057891 8.882686 -5.559248 0
M  V30 6 C 11.323996 8.569301 -8.993302 0
M  V30 7 C 12.116922 9.788148 -6.156714 0
M  V30 8 C 11.856610 8.056096 -7.668110 0 CFG=1
M  V30 9 O 12.785837 8.969301 -7.098066 0
M  V30 10 H 9.235326 8.969351 -9.488829 0
M  V30 11 H 9.582317 7.285600 -9.092613 0
M  V30 12 H 11.110997 6.083155 -5.779651 0
M  V30 13 H 9.434820 6.578473 -5.606399 0
M  V30 14 H 10.008544 5.945491 -7.143292 0
M  V30 15 H 11.504405 8.287399 -4.761877 0
M  V30 16 H 10.234848 9.451698 -5.136543 0
M  V30 17 H 11.509767 9.639151 -9.094865 0
M  V30 18 H 11.760229 8.065104 -9.855666 0
M  V30 19 H 12.808166 10.169295 -5.406923 0
M  V30 20 H 11.661730 10.635201 -6.669871 0
M  V30 21 H 12.303399 7.072799 -7.781754 0
M  V30 END ATOM
M  V30 BEGIN BOND
M  V30 1 1 2 1
M  V30 2 1 3 2
M  V30 3 1 3 4 CFG=1
M  V30 4 1 5 3
M  V30 5 1 6 1
M  V30 6 1 7 5
M  V30 7 1 8 3
M  V30 8 1 8 6
M  V30 9 1 9 7
M  V30 10 1 9 8
M  V30 11 1 10 1
M  V30 12 1 11 1
M  V30 13 1 12 4
M  V30 14 1 13 4
M  V30 15 1 14 4
M  V30 16 1 15 5
M  V30 17 1 16 5
M  V30 18 1 17 6
M  V30 19 1 18 6
M  V30 20 1 19 7
M  V30 21 1 20 7
M  V30 22 1 8 21 CFG=3
M  V30 END BOND
M  V30 END CTAB
M  END
>  <i_epik_Tot_Q>  (1) 
0

>  <i_epik_Tot_abs_Q>  (1) 
0

>  <i_i_glide_confnum>  (1) 
2

>  <i_i_glide_lignum>  (1) 
37

>  <i_i_glide_posenum>  (1) 
183

>  <i_i_glide_rotatable_bonds>  (1) 
0

>  <i_lp_mmshare_version>  (1) 
72125

>  <i_m_source_file_index>  (1) 
34

>  <i_f3d_flags>  (1) 
0

>  <num_sample>  (1) 
50

>  <b_lp_Chiralities_Consistent>  (1) 
1

>  <r_epik_Charging_Adjusted_Penalty>  (1) 
0

>  <r_epik_Ionization_Penalty>  (1) 
2.529470820146915e-12

>  <r_epik_Ionization_Penalty_Charging>  (1) 
0

>  <r_epik_Ionization_Penalty_Neutral>  (1) 
2.529470820146915e-12

>  <r_epik_State_Penalty>  (1) 
-0

>  <r_glide_ring_energy>  (1) 
0.058801660810398726

>  <r_i_docking_score>  (1) 
-5.2555806481143073

>  <r_i_glide_ecoul>  (1) 
-0.37359336415409661

>  <r_i_glide_eff_state_penalty>  (1) 
-0

>  <r_i_glide_einternal>  (1) 
0

>  <r_i_glide_emodel>  (1) 
-23.777033197274257

>  <r_i_glide_emodel_strain>  (1) 
0

>  <r_i_glide_energy>  (1) 
-17.767072583967568

>  <r_i_glide_erotb>  (1) 
0

>  <r_i_glide_esite>  (1) 
0

>  <r_i_glide_evdw>  (1) 
-17.393479219813472

>  <r_i_glide_gscore>  (1) 
-5.2555806481143073

>  <r_i_glide_gscore_strain>  (1) 
0

>  <r_i_glide_hbond>  (1) 
0

>  <r_i_glide_ligand_efficiency>  (1) 
-0.58395340534603413

>  <r_i_glide_ligand_efficiency_ln>  (1) 
-1.6437946478232741

>  <r_i_glide_ligand_efficiency_sa>  (1) 
-1.2146720318763571

>  <r_i_glide_lipo>  (1) 
-1.4798676825005193

>  <r_i_glide_metal>  (1) 
-0

>  <r_i_glide_rewards>  (1) 
-2.8500000000000001

>  <r_lp_Energy>  (1) 
-0.369228

>  <r_lp_tautomer_probability>  (1) 
1

>  <s_epik_cmdline>  (1) 
J2VwaWtfcHl0aG9uJywgJy1waHQnLCAnMS4wJywgJy1waCcsICc3LjQnLCAnLXRuJywgJzgnLCAnLW1hJywgJzUwMCcsICctaW1hZScsICc8aW5maWxlLm1hZT4nLCAnLW9tYWUnLCAnPG91dGZpbGUubWFlPic=

>  <s_epik_input>  (1) 
TzFbQ0gyXVtDSDJdW0NASF0oW0NAXTEyW0NIM10pT1tDSDJdW0NIMl0y

>  <s_glide_docking_method>  (1) 
confgen

>  <s_i_glide_gridfile>  (1) 
gpcr_drd2_6luq_protein_autoprepared_prepared

>  <s_lp_Force_Field>  (1) 
S-OPLS

>  <s_lp_Variant>  (1) 
Pocket2Mol_33_num_sample_50-1

>  <s_m_source_file>  (1) 
generated__ligand_Pocket2Mol_2026-05-06_prepared.sdf

>  <GenAI_Model>  (1) 
Pocket2Mol

>  <Protein>  (1) 
generic_title2

$$$$
Pocket2Mol_34_num_sample_50
     RDKit          3D

  0  0  0  0  0  0  0  0  0  0999 V3000
M  V30 BEGIN CTAB
M  V30 COUNTS 16 17 0 0 1
M  V30 BEGIN ATOM
M  V30 1 C 12.490640 8.481829 -1.969593 0
M  V30 2 O 12.234150 9.563207 -2.947294 0
M  V30 3 C 11.840290 8.858630 -4.025680 0
M  V30 4 C 11.834837 7.526512 -3.891670 0
M  V30 5 C 11.429606 6.708848 -4.957940 0
M  V30 6 N 11.034821 7.212912 -6.157447 0
M  V30 7 C 11.041709 8.572101 -6.277079 0
M  V30 8 C 11.441190 9.439712 -5.232539 0
M  V30 9 C 12.253422 7.022922 -2.584811 0
M  V30 10 H 13.511617 8.572264 -1.598608 0
M  V30 11 H 11.834839 8.633899 -1.111931 0
M  V30 12 H 11.417127 5.637878 -4.855098 0
M  V30 13 H 10.721728 8.971201 -7.228226 0
M  V30 14 H 11.433480 10.511765 -5.362074 0
M  V30 15 H 11.460807 6.464687 -2.084746 0
M  V30 16 H 13.163660 6.429803 -2.655990 0
M  V30 END ATOM
M  V30 BEGIN BOND
M  V30 1 1 2 1
M  V30 2 1 3 2
M  V30 3 2 4 3
M  V30 4 1 5 4
M  V30 5 2 6 5
M  V30 6 1 7 6
M  V30 7 1 8 3
M  V30 8 2 8 7
M  V30 9 1 9 1
M  V30 10 1 9 4
M  V30 11 1 10 1
M  V30 12 1 11 1
M  V30 13 1 12 5
M  V30 14 1 13 7
M  V30 15 1 14 8
M  V30 16 1 15 9
M  V30 17 1 16 9
M  V30 END BOND
M  V30 END CTAB
M  END
>  <i_epik_Tot_Q>  (1) 
0

>  <i_epik_Tot_abs_Q>  (1) 
0

>  <i_i_glide_confnum>  (1) 
1

>  <i_i_glide_lignum>  (1) 
39

>  <i_i_glide_posenum>  (1) 
162

>  <i_i_glide_rotatable_bonds>  (1) 
0

>  <i_lp_mmshare_version>  (1) 
72125

>  <i_m_source_file_index>  (1) 
35

>  <i_f3d_flags>  (1) 
0

>  <num_sample>  (1) 
50

>  <b_lp_Chiralities_Consistent>  (1) 
1

>  <r_epik_Charging_Adjusted_Penalty>  (1) 
0.44367302241175416

>  <r_epik_Ionization_Penalty>  (1) 
0.4436730224117541

>  <r_epik_Ionization_Penalty_Charging>  (1) 
0

>  <r_epik_Ionization_Penalty_Neutral>  (1) 
0.4436730224117541

>  <r_epik_State_Penalty>  (1) 
0.44367302241175416

>  <r_glide_ring_energy>  (1) 
0

>  <r_i_docking_score>  (1) 
-5.2504029764503706

>  <r_i_glide_ecoul>  (1) 
0.063708798488520846

>  <r_i_glide_eff_state_penalty>  (1) 
0.44367302241175416

>  <r_i_glide_einternal>  (1) 
0

>  <r_i_glide_emodel>  (1) 
-27.991904335161024

>  <r_i_glide_emodel_strain>  (1) 
0

>  <r_i_glide_energy>  (1) 
-20.353874425161443

>  <r_i_glide_erotb>  (1) 
0

>  <r_i_glide_esite>  (1) 
0

>  <r_i_glide_evdw>  (1) 
-20.417583223649963

>  <r_i_glide_gscore>  (1) 
-5.6940759988621243

>  <r_i_glide_gscore_strain>  (1) 
0

>  <r_i_glide_hbond>  (1) 
0

>  <r_i_glide_ligand_efficiency>  (1) 
-0.58337810849448557

>  <r_i_glide_ligand_efficiency_ln>  (1) 
-1.6421752208675828

>  <r_i_glide_ligand_efficiency_sa>  (1) 
-1.2134753662019984

>  <r_i_glide_lipo>  (1) 
-2.016086490786237

>  <r_i_glide_metal>  (1) 
-0

>  <r_i_glide_rewards>  (1) 
-2.666666666666667

>  <r_lp_Energy>  (1) 
12.810587999999999

>  <s_epik_cmdline>  (1) 
J2VwaWtfcHl0aG9uJywgJy1waHQnLCAnMS4wJywgJy1waCcsICc3LjQnLCAnLXRuJywgJzgnLCAnLW1hJywgJzUwMCcsICctaW1hZScsICc8aW5maWxlLm1hZT4nLCAnLW9tYWUnLCAnPG91dGZpbGUubWFlPic=

>  <s_epik_input>  (1) 
TzFbQ0gyXVtDSDJdYyhjMTIpW2NIXW5bY0hdW2NIXTI=

>  <s_glide_docking_method>  (1) 
confgen

>  <s_i_glide_gridfile>  (1) 
gpcr_drd2_6luq_protein_autoprepared_prepared

>  <s_lp_Force_Field>  (1) 
S-OPLS

>  <s_lp_Variant>  (1) 
Pocket2Mol_34_num_sample_50-2

>  <s_m_source_file>  (1) 
generated__ligand_Pocket2Mol_2026-05-06_prepared.sdf

>  <GenAI_Model>  (1) 
Pocket2Mol

>  <Protein>  (1) 
generic_title2

$$$$
Pocket2Mol_25_num_sample_50
     RDKit          3D

  0  0  0  0  0  0  0  0  0  0999 V3000
M  V30 BEGIN CTAB
M  V30 COUNTS 15 15 0 0 1
M  V30 BEGIN ATOM
M  V30 1 C 10.752782 7.572558 -5.816603 0
M  V30 2 O 11.605558 8.720080 -5.786558 0
M  V30 3 C 11.763209 9.334137 -4.504918 0
M  V30 4 C 12.387430 8.370362 -3.470113 0 CFG=1
M  V30 5 O 12.234838 8.835073 -2.143607 0
M  V30 6 C 11.096177 6.620085 -4.690972 0
M  V30 7 C 11.834598 6.980623 -3.635345 0
M  V30 8 H 10.878475 7.064947 -6.773432 0
M  V30 9 H 9.707535 7.873818 -5.740009 0
M  V30 10 H 10.805059 9.730491 -4.165684 0
M  V30 11 H 12.440533 10.169336 -4.634611 0
M  V30 12 H 13.434839 8.279476 -3.681602 0
M  V30 13 H 12.805104 9.579651 -2.000210 0
M  V30 14 H 10.712034 5.618720 -4.762940 0
M  V30 15 H 12.052436 6.265791 -2.854924 0
M  V30 END ATOM
M  V30 BEGIN BOND
M  V30 1 1 2 1
M  V30 2 1 3 2
M  V30 3 1 4 3
M  V30 4 1 5 4
M  V30 5 1 6 1
M  V30 6 1 7 4
M  V30 7 2 7 6
M  V30 8 1 8 1
M  V30 9 1 9 1
M  V30 10 1 10 3
M  V30 11 1 11 3
M  V30 12 1 4 12 CFG=3
M  V30 13 1 13 5
M  V30 14 1 14 6
M  V30 15 1 15 7
M  V30 END BOND
M  V30 END CTAB
M  END
>  <i_epik_Tot_Q>  (1) 
0

>  <i_epik_Tot_abs_Q>  (1) 
0

>  <i_i_glide_confnum>  (1) 
1

>  <i_i_glide_lignum>  (1) 
29

>  <i_i_glide_posenum>  (1) 
215

>  <i_i_glide_rotatable_bonds>  (1) 
1

>  <i_lp_mmshare_version>  (1) 
72125

>  <i_m_source_file_index>  (1) 
26

>  <i_f3d_flags>  (1) 
0

>  <num_sample>  (1) 
50

>  <b_lp_Chiralities_Consistent>  (1) 
1

>  <r_epik_Charging_Adjusted_Penalty>  (1) 
0

>  <r_epik_Ionization_Penalty>  (1) 
7.567869706951744e-07

>  <r_epik_Ionization_Penalty_Charging>  (1) 
0

>  <r_epik_Ionization_Penalty_Neutral>  (1) 
7.567869706951744e-07

>  <r_epik_State_Penalty>  (1) 
-0

>  <r_glide_ring_energy>  (1) 
0

>  <r_i_docking_score>  (1) 
-5.2373137526217395

>  <r_i_glide_ecoul>  (1) 
-2.4695902246964119

>  <r_i_glide_eff_state_penalty>  (1) 
-0

>  <r_i_glide_einternal>  (1) 
0.47027708194954382

>  <r_i_glide_emodel>  (1) 
-24.508653682824061

>  <r_i_glide_emodel_strain>  (1) 
0

>  <r_i_glide_energy>  (1) 
-17.977176697262983

>  <r_i_glide_erotb>  (1) 
0

>  <r_i_glide_esite>  (1) 
0

>  <r_i_glide_evdw>  (1) 
-15.507586472566572

>  <r_i_glide_gscore>  (1) 
-5.2373137526217395

>  <r_i_glide_gscore_strain>  (1) 
0

>  <r_i_glide_hbond>  (1) 
-0.24420211772505071

>  <r_i_glide_ligand_efficiency>  (1) 
-0.74818767894596283

>  <r_i_glide_ligand_efficiency_ln>  (1) 
-1.7778253536691291

>  <r_i_glide_ligand_efficiency_sa>  (1) 
-1.4312315416218291

>  <r_i_glide_lipo>  (1) 
-1.3731085741675235

>  <r_i_glide_metal>  (1) 
-0

>  <r_i_glide_rewards>  (1) 
-2.4741852033963747

>  <r_lp_Energy>  (1) 
2.4739009999999997

>  <r_lp_tautomer_probability>  (1) 
1

>  <s_epik_cmdline>  (1) 
J2VwaWtfcHl0aG9uJywgJy1waHQnLCAnMS4wJywgJy1waCcsICc3LjQnLCAnLXRuJywgJzgnLCAnLW1hJywgJzUwMCcsICctaW1hZScsICc8aW5maWxlLm1hZT4nLCAnLW9tYWUnLCAnPG91dGZpbGUubWFlPic=

>  <s_epik_input>  (1) 
W0NIXTE9W0NIXVtDSDJdT1tDSDJdW0NASF0xW09IXQ==

>  <s_glide_docking_method>  (1) 
confgen

>  <s_i_glide_gridfile>  (1) 
gpcr_drd2_6luq_protein_autoprepared_prepared

>  <s_lp_Force_Field>  (1) 
S-OPLS

>  <s_lp_Variant>  (1) 
Pocket2Mol_25_num_sample_50-1

>  <s_m_source_file>  (1) 
generated__ligand_Pocket2Mol_2026-05-06_prepared.sdf

>  <GenAI_Model>  (1) 
Pocket2Mol

>  <Protein>  (1) 
generic_title2

$$$$
Pocket2Mol_22_num_sample_50
     RDKit          3D

  0  0  0  0  0  0  0  0  0  0999 V3000
M  V30 BEGIN CTAB
M  V30 COUNTS 11 11 0 0 1
M  V30 BEGIN ATOM
M  V30 1 N 11.838884 9.591050 -4.842749 0
M  V30 2 C 11.122077 8.830376 -5.706654 0
M  V30 3 C 10.895900 7.452323 -5.521946 0
M  V30 4 C 12.364869 8.969249 -3.759073 0
M  V30 5 C 12.191933 7.595887 -3.491379 0
M  V30 6 F 10.171262 6.747164 -6.421164 0
M  V30 7 C 11.434839 6.823331 -4.390925 0
M  V30 8 H 10.717561 9.338571 -6.569276 0
M  V30 9 H 12.942372 9.586810 -3.086762 0
M  V30 10 H 12.630261 7.146373 -2.612457 0
M  V30 11 H 11.279463 5.769317 -4.218771 0
M  V30 END ATOM
M  V30 BEGIN BOND
M  V30 1 2 2 1
M  V30 2 1 3 2
M  V30 3 1 4 1
M  V30 4 2 5 4
M  V30 5 1 6 3
M  V30 6 2 7 3
M  V30 7 1 7 5
M  V30 8 1 8 2
M  V30 9 1 9 4
M  V30 10 1 10 5
M  V30 11 1 11 7
M  V30 END BOND
M  V30 END CTAB
M  END
>  <i_epik_Tot_Q>  (1) 
0

>  <i_epik_Tot_abs_Q>  (1) 
0

>  <i_i_glide_confnum>  (1) 
1

>  <i_i_glide_lignum>  (1) 
26

>  <i_i_glide_posenum>  (1) 
211

>  <i_i_glide_rotatable_bonds>  (1) 
0

>  <i_lp_mmshare_version>  (1) 
72125

>  <i_m_source_file_index>  (1) 
23

>  <i_f3d_flags>  (1) 
0

>  <num_sample>  (1) 
50

>  <b_lp_Chiralities_Consistent>  (1) 
1

>  <r_epik_Charging_Adjusted_Penalty>  (1) 
0

>  <r_epik_Ionization_Penalty>  (1) 
7.3223601380878174e-05

>  <r_epik_Ionization_Penalty_Charging>  (1) 
0

>  <r_epik_Ionization_Penalty_Neutral>  (1) 
7.3223601380878174e-05

>  <r_epik_State_Penalty>  (1) 
-0

>  <r_glide_ring_energy>  (1) 
0

>  <r_i_docking_score>  (1) 
-5.2225675331884132

>  <r_i_glide_ecoul>  (1) 
-0.13909520287612298

>  <r_i_glide_eff_state_penalty>  (1) 
-0

>  <r_i_glide_einternal>  (1) 
0

>  <r_i_glide_emodel>  (1) 
-20.504532346216077

>  <r_i_glide_emodel_strain>  (1) 
0

>  <r_i_glide_energy>  (1) 
-15.124612128371126

>  <r_i_glide_erotb>  (1) 
0

>  <r_i_glide_esite>  (1) 
0

>  <r_i_glide_evdw>  (1) 
-14.985516925495004

>  <r_i_glide_gscore>  (1) 
-5.2225675331884132

>  <r_i_glide_gscore_strain>  (1) 
0

>  <r_i_glide_hbond>  (1) 
0

>  <r_i_glide_ligand_efficiency>  (1) 
-0.74608107616977326

>  <r_i_glide_ligand_efficiency_ln>  (1) 
-1.772819695421862

>  <r_i_glide_ligand_efficiency_sa>  (1) 
-1.4272017554815415

>  <r_i_glide_lipo>  (1) 
-1.5079166410874012

>  <r_i_glide_metal>  (1) 
-0

>  <r_i_glide_rewards>  (1) 
-2.9445107653948432

>  <r_lp_Energy>  (1) 
10.789624

>  <r_lp_tautomer_probability>  (1) 
1

>  <s_epik_cmdline>  (1) 
J2VwaWtfcHl0aG9uJywgJy1waHQnLCAnMS4wJywgJy1waCcsICc3LjQnLCAnLXRuJywgJzgnLCAnLW1hJywgJzUwMCcsICctaW1hZScsICc8aW5maWxlLm1hZT4nLCAnLW9tYWUnLCAnPG91dGZpbGUubWFlPic=

>  <s_epik_input>  (1) 
W2NIXTFbY0hdW2NIXW5bY0hdYzFG

>  <s_glide_docking_method>  (1) 
confgen

>  <s_i_glide_gridfile>  (1) 
gpcr_drd2_6luq_protein_autoprepared_prepared

>  <s_lp_Force_Field>  (1) 
S-OPLS

>  <s_lp_Variant>  (1) 
Pocket2Mol_22_num_sample_50-1

>  <s_m_source_file>  (1) 
generated__ligand_Pocket2Mol_2026-05-06_prepared.sdf

>  <GenAI_Model>  (1) 
Pocket2Mol

>  <Protein>  (1) 
generic_title2

$$$$
Pocket2Mol_44_num_sample_50
     RDKit          3D

  0  0  0  0  0  0  0  0  0  0999 V3000
M  V30 BEGIN CTAB
M  V30 COUNTS 14 15 0 0 1
M  V30 BEGIN ATOM
M  V30 1 C 9.762914 7.592208 -7.271139 0
M  V30 2 O 10.361426 8.894276 -6.970375 0
M  V30 3 C 10.997572 8.579358 -5.841472 0
M  V30 4 C 10.873974 7.316930 -5.472854 0
M  V30 5 C 11.486352 6.852334 -4.296362 0
M  V30 6 N 12.234775 7.664804 -3.491667 0
M  V30 7 C 12.345636 8.969311 -3.891256 0
M  V30 8 C 11.740211 9.473435 -5.068229 0
M  V30 9 O 10.133398 6.569194 -6.293124 0
M  V30 10 H 8.675403 7.693931 -7.275678 0
M  V30 11 H 10.078497 7.270969 -8.264540 0
M  V30 12 H 11.385066 5.821802 -3.989412 0
M  V30 13 H 12.930960 9.618014 -3.256477 0
M  V30 14 H 11.846310 10.508744 -5.355791 0
M  V30 END ATOM
M  V30 BEGIN BOND
M  V30 1 1 2 1
M  V30 2 1 3 2
M  V30 3 2 4 3
M  V30 4 1 5 4
M  V30 5 2 6 5
M  V30 6 1 7 6
M  V30 7 1 8 3
M  V30 8 2 8 7
M  V30 9 1 9 1
M  V30 10 1 9 4
M  V30 11 1 10 1
M  V30 12 1 11 1
M  V30 13 1 12 5
M  V30 14 1 13 7
M  V30 15 1 14 8
M  V30 END BOND
M  V30 END CTAB
M  END
>  <i_epik_Tot_Q>  (1) 
0

>  <i_epik_Tot_abs_Q>  (1) 
0

>  <i_i_glide_confnum>  (1) 
1

>  <i_i_glide_lignum>  (1) 
49

>  <i_i_glide_posenum>  (1) 
119

>  <i_i_glide_rotatable_bonds>  (1) 
0

>  <i_lp_mmshare_version>  (1) 
72125

>  <i_m_source_file_index>  (1) 
45

>  <i_f3d_flags>  (1) 
0

>  <num_sample>  (1) 
50

>  <b_lp_Chiralities_Consistent>  (1) 
1

>  <r_epik_Charging_Adjusted_Penalty>  (1) 
0.069790075728531922

>  <r_epik_Ionization_Penalty>  (1) 
0.069790075728531936

>  <r_epik_Ionization_Penalty_Charging>  (1) 
0

>  <r_epik_Ionization_Penalty_Neutral>  (1) 
0.069790075728531936

>  <r_epik_State_Penalty>  (1) 
0.069790075728531922

>  <r_glide_ring_energy>  (1) 
0

>  <r_i_docking_score>  (1) 
-5.2152655868464253

>  <r_i_glide_ecoul>  (1) 
-0.79994529478844667

>  <r_i_glide_eff_state_penalty>  (1) 
0.069790075728531922

>  <r_i_glide_einternal>  (1) 
0

>  <r_i_glide_emodel>  (1) 
-27.050207506150418

>  <r_i_glide_emodel_strain>  (1) 
0

>  <r_i_glide_energy>  (1) 
-20.159014631973275

>  <r_i_glide_erotb>  (1) 
0

>  <r_i_glide_esite>  (1) 
-0.057465827544822157

>  <r_i_glide_evdw>  (1) 
-19.359069337184827

>  <r_i_glide_gscore>  (1) 
-5.2850556625749574

>  <r_i_glide_gscore_strain>  (1) 
0

>  <r_i_glide_hbond>  (1) 
0

>  <r_i_glide_ligand_efficiency>  (1) 
-0.57947395409404723

>  <r_i_glide_ligand_efficiency_ln>  (1) 
-1.6311852548035723

>  <r_i_glide_ligand_efficiency_sa>  (1) 
-1.2053543977909495

>  <r_i_glide_lipo>  (1) 
-1.4508167282252651

>  <r_i_glide_metal>  (1) 
-0

>  <r_i_glide_rewards>  (1) 
-2.6888278457273618

>  <r_lp_Energy>  (1) 
21.238785

>  <r_lp_tautomer_probability>  (1) 
1

>  <s_epik_Chemistry_Notes>  (1) 
This compound contains an acetal/aminal-like group ( X-CH(R)-Y where X, Y are N, S, or O) that may be acid/base labile, releasing an aldehyde.

>  <s_epik_cmdline>  (1) 
J2VwaWtfcHl0aG9uJywgJy1waHQnLCAnMS4wJywgJy1waCcsICc3LjQnLCAnLXRuJywgJzgnLCAnLW1hJywgJzUwMCcsICctaW1hZScsICc8aW5maWxlLm1hZT4nLCAnLW9tYWUnLCAnPG91dGZpbGUubWFlPic=

>  <s_epik_input>  (1) 
TzFbQ0gyXU9jKGMxMilbY0hdbltjSF1bY0hdMg==

>  <s_glide_docking_method>  (1) 
confgen

>  <s_i_glide_gridfile>  (1) 
gpcr_drd2_6luq_protein_autoprepared_prepared

>  <s_lp_Force_Field>  (1) 
S-OPLS

>  <s_lp_Variant>  (1) 
Pocket2Mol_44_num_sample_50-1

>  <s_m_source_file>  (1) 
generated__ligand_Pocket2Mol_2026-05-06_prepared.sdf

>  <GenAI_Model>  (1) 
Pocket2Mol

>  <Protein>  (1) 
generic_title2

$$$$
Pocket2Mol_26_num_sample_50
     RDKit          3D

  0  0  0  0  0  0  0  0  0  0999 V3000
M  V30 BEGIN CTAB
M  V30 COUNTS 15 15 0 0 1
M  V30 BEGIN ATOM
M  V30 1 C 11.439214 9.548448 -5.816407 0
M  V30 2 O 11.838760 9.286930 -4.445199 0
M  V30 3 C 11.834839 7.993361 -3.933642 0
M  V30 4 C 12.312034 7.910552 -2.501003 0
M  V30 5 C 10.994254 8.318047 -6.577335 0
M  V30 6 C 11.434838 6.941311 -4.677091 0
M  V30 7 C 11.000152 7.110845 -6.027393 0
M  V30 8 H 10.634845 10.282997 -5.816551 0
M  V30 9 H 12.282106 9.997905 -6.339994 0
M  V30 10 H 12.292794 6.881814 -2.138498 0
M  V30 11 H 13.333237 8.284165 -2.422992 0
M  V30 12 H 11.675906 8.517575 -1.857189 0
M  V30 13 H 10.667406 8.453699 -7.598506 0
M  V30 14 H 11.442321 5.951200 -4.244068 0
M  V30 15 H 10.676321 6.254412 -6.601084 0
M  V30 END ATOM
M  V30 BEGIN BOND
M  V30 1 1 2 1
M  V30 2 1 3 2
M  V30 3 1 4 3
M  V30 4 1 5 1
M  V30 5 2 6 3
M  V30 6 2 7 5
M  V30 7 1 7 6
M  V30 8 1 8 1
M  V30 9 1 9 1
M  V30 10 1 10 4
M  V30 11 1 11 4
M  V30 12 1 12 4
M  V30 13 1 13 5
M  V30 14 1 14 6
M  V30 15 1 15 7
M  V30 END BOND
M  V30 END CTAB
M  END
>  <i_epik_Tot_Q>  (1) 
0

>  <i_epik_Tot_abs_Q>  (1) 
0

>  <i_i_glide_confnum>  (1) 
1

>  <i_i_glide_lignum>  (1) 
30

>  <i_i_glide_posenum>  (1) 
383

>  <i_i_glide_rotatable_bonds>  (1) 
0

>  <i_lp_mmshare_version>  (1) 
72125

>  <i_m_source_file_index>  (1) 
27

>  <i_f3d_flags>  (1) 
0

>  <num_sample>  (1) 
50

>  <b_lp_Chiralities_Consistent>  (1) 
1

>  <r_epik_Charging_Adjusted_Penalty>  (1) 
0

>  <r_epik_Ionization_Penalty>  (1) 
0

>  <r_epik_Ionization_Penalty_Charging>  (1) 
0

>  <r_epik_Ionization_Penalty_Neutral>  (1) 
0

>  <r_epik_State_Penalty>  (1) 
-0

>  <r_glide_ring_energy>  (1) 
0

>  <r_i_docking_score>  (1) 
-5.1856093961970151

>  <r_i_glide_ecoul>  (1) 
-0.67088815559611725

>  <r_i_glide_eff_state_penalty>  (1) 
-0

>  <r_i_glide_einternal>  (1) 
0

>  <r_i_glide_emodel>  (1) 
-22.848954357271161

>  <r_i_glide_emodel_strain>  (1) 
0.013587839579534133

>  <r_i_glide_energy>  (1) 
-17.144160610292328

>  <r_i_glide_erotb>  (1) 
0

>  <r_i_glide_esite>  (1) 
0

>  <r_i_glide_evdw>  (1) 
-16.473272454696211

>  <r_i_glide_gscore>  (1) 
-5.1856093961970151

>  <r_i_glide_gscore_strain>  (1) 
0

>  <r_i_glide_hbond>  (1) 
0

>  <r_i_glide_ligand_efficiency>  (1) 
-0.7408013423138593

>  <r_i_glide_ligand_efficiency_ln>  (1) 
-1.7602741203291357

>  <r_i_glide_ligand_efficiency_sa>  (1) 
-1.4171019879518245

>  <r_i_glide_lipo>  (1) 
-1.6130493638866656

>  <r_i_glide_metal>  (1) 
-0

>  <r_i_glide_rewards>  (1) 
-2.6482631862361203

>  <r_lp_Energy>  (1) 
4.7929789999999999

>  <r_lp_tautomer_probability>  (1) 
1

>  <s_epik_cmdline>  (1) 
J2VwaWtfcHl0aG9uJywgJy1waHQnLCAnMS4wJywgJy1waCcsICc3LjQnLCAnLXRuJywgJzgnLCAnLW1hJywgJzUwMCcsICctaW1hZScsICc8aW5maWxlLm1hZT4nLCAnLW9tYWUnLCAnPG91dGZpbGUubWFlPic=

>  <s_epik_input>  (1) 
TzFbQ0gyXVtDSF09W0NIXVtDSF09QzFbQ0gzXQ==

>  <s_glide_docking_method>  (1) 
confgen

>  <s_i_glide_gridfile>  (1) 
gpcr_drd2_6luq_protein_autoprepared_prepared

>  <s_lp_Force_Field>  (1) 
S-OPLS

>  <s_lp_Variant>  (1) 
Pocket2Mol_26_num_sample_50-1

>  <s_m_source_file>  (1) 
generated__ligand_Pocket2Mol_2026-05-06_prepared.sdf

>  <GenAI_Model>  (1) 
Pocket2Mol

>  <Protein>  (1) 
generic_title2

$$$$
Pocket2Mol_22_num_sample_50
     RDKit          3D

  0  0  0  0  0  0  0  0  0  0999 V3000
M  V30 BEGIN CTAB
M  V30 COUNTS 11 11 0 0 1
M  V30 BEGIN ATOM
M  V30 1 N 12.246232 7.807401 -2.328045 0
M  V30 2 C 12.234847 8.948146 -3.061996 0
M  V30 3 C 11.834874 8.998048 -4.413133 0
M  V30 4 C 11.845849 6.670780 -2.948930 0
M  V30 5 C 11.434838 6.625964 -4.296199 0
M  V30 6 F 11.837492 10.169301 -5.091667 0
M  V30 7 C 11.430575 7.814136 -5.041986 0
M  V30 8 H 12.549909 9.845313 -2.554165 0
M  V30 9 H 11.856214 5.770363 -2.352108 0
M  V30 10 H 11.124723 5.697264 -4.745159 0
M  V30 11 H 11.117861 7.816536 -6.075906 0
M  V30 END ATOM
M  V30 BEGIN BOND
M  V30 1 2 2 1
M  V30 2 1 3 2
M  V30 3 1 4 1
M  V30 4 2 5 4
M  V30 5 1 6 3
M  V30 6 2 7 3
M  V30 7 1 7 5
M  V30 8 1 8 2
M  V30 9 1 9 4
M  V30 10 1 10 5
M  V30 11 1 11 7
M  V30 END BOND
M  V30 END CTAB
M  END
>  <i_epik_Tot_Q>  (1) 
0

>  <i_epik_Tot_abs_Q>  (1) 
0

>  <i_i_glide_confnum>  (1) 
1

>  <i_i_glide_lignum>  (1) 
26

>  <i_i_glide_posenum>  (1) 
253

>  <i_i_glide_rotatable_bonds>  (1) 
0

>  <i_lp_mmshare_version>  (1) 
72125

>  <i_m_source_file_index>  (1) 
23

>  <i_f3d_flags>  (1) 
0

>  <num_sample>  (1) 
50

>  <b_lp_Chiralities_Consistent>  (1) 
1

>  <r_epik_Charging_Adjusted_Penalty>  (1) 
0

>  <r_epik_Ionization_Penalty>  (1) 
7.3223601380878174e-05

>  <r_epik_Ionization_Penalty_Charging>  (1) 
0

>  <r_epik_Ionization_Penalty_Neutral>  (1) 
7.3223601380878174e-05

>  <r_epik_State_Penalty>  (1) 
-0

>  <r_glide_ring_energy>  (1) 
0

>  <r_i_docking_score>  (1) 
-5.1769273484000244

>  <r_i_glide_ecoul>  (1) 
-1.3296702155171074

>  <r_i_glide_eff_state_penalty>  (1) 
-0

>  <r_i_glide_einternal>  (1) 
0

>  <r_i_glide_emodel>  (1) 
-21.436598291212299

>  <r_i_glide_emodel_strain>  (1) 
0

>  <r_i_glide_energy>  (1) 
-16.103693368302046

>  <r_i_glide_erotb>  (1) 
0

>  <r_i_glide_esite>  (1) 
0

>  <r_i_glide_evdw>  (1) 
-14.774023152784938

>  <r_i_glide_gscore>  (1) 
-5.1769273484000244

>  <r_i_glide_gscore_strain>  (1) 
0

>  <r_i_glide_hbond>  (1) 
0

>  <r_i_glide_ligand_efficiency>  (1) 
-0.73956104977143211

>  <r_i_glide_ligand_efficiency_ln>  (1) 
-1.7573269673754808

>  <r_i_glide_ligand_efficiency_sa>  (1) 
-1.4147293936716554

>  <r_i_glide_lipo>  (1) 
-1.3897454220178032

>  <r_i_glide_metal>  (1) 
-0

>  <r_i_glide_rewards>  (1) 
-2.8490302364154081

>  <r_lp_Energy>  (1) 
10.789624

>  <r_lp_tautomer_probability>  (1) 
1

>  <s_epik_cmdline>  (1) 
J2VwaWtfcHl0aG9uJywgJy1waHQnLCAnMS4wJywgJy1waCcsICc3LjQnLCAnLXRuJywgJzgnLCAnLW1hJywgJzUwMCcsICctaW1hZScsICc8aW5maWxlLm1hZT4nLCAnLW9tYWUnLCAnPG91dGZpbGUubWFlPic=

>  <s_epik_input>  (1) 
W2NIXTFbY0hdW2NIXW5bY0hdYzFG

>  <s_glide_docking_method>  (1) 
confgen

>  <s_i_glide_gridfile>  (1) 
gpcr_drd2_6luq_protein_autoprepared_prepared

>  <s_lp_Force_Field>  (1) 
S-OPLS

>  <s_lp_Variant>  (1) 
Pocket2Mol_22_num_sample_50-1

>  <s_m_source_file>  (1) 
generated__ligand_Pocket2Mol_2026-05-06_prepared.sdf

>  <GenAI_Model>  (1) 
Pocket2Mol

>  <Protein>  (1) 
generic_title2

$$$$
Pocket2Mol_26_num_sample_50
     RDKit          3D

  0  0  0  0  0  0  0  0  0  0999 V3000
M  V30 BEGIN CTAB
M  V30 COUNTS 15 15 0 0 1
M  V30 BEGIN ATOM
M  V30 1 C 11.791816 9.655994 -4.677325 0
M  V30 2 O 11.056383 8.898776 -5.670828 0
M  V30 3 C 10.905554 7.521954 -5.554902 0
M  V30 4 C 10.105508 6.907719 -6.682036 0
M  V30 5 C 12.354316 8.819372 -3.547159 0
M  V30 6 C 11.434840 6.838768 -4.518519 0
M  V30 7 C 12.178737 7.505535 -3.491670 0
M  V30 8 H 12.613193 10.169301 -5.176038 0
M  V30 9 H 11.131368 10.418760 -4.262929 0
M  V30 10 H 10.012030 5.828676 -6.561667 0
M  V30 11 H 9.102160 7.335761 -6.707971 0
M  V30 12 H 10.587917 7.105726 -7.638871 0
M  V30 13 H 12.912172 9.332023 -2.776260 0
M  V30 14 H 11.294769 5.769302 -4.461465 0
M  V30 15 H 12.593809 6.938445 -2.671148 0
M  V30 END ATOM
M  V30 BEGIN BOND
M  V30 1 1 2 1
M  V30 2 1 3 2
M  V30 3 1 4 3
M  V30 4 1 5 1
M  V30 5 2 6 3
M  V30 6 2 7 5
M  V30 7 1 7 6
M  V30 8 1 8 1
M  V30 9 1 9 1
M  V30 10 1 10 4
M  V30 11 1 11 4
M  V30 12 1 12 4
M  V30 13 1 13 5
M  V30 14 1 14 6
M  V30 15 1 15 7
M  V30 END BOND
M  V30 END CTAB
M  END
>  <i_epik_Tot_Q>  (1) 
0

>  <i_epik_Tot_abs_Q>  (1) 
0

>  <i_i_glide_confnum>  (1) 
1

>  <i_i_glide_lignum>  (1) 
30

>  <i_i_glide_posenum>  (1) 
22

>  <i_i_glide_rotatable_bonds>  (1) 
0

>  <i_lp_mmshare_version>  (1) 
72125

>  <i_m_source_file_index>  (1) 
27

>  <i_f3d_flags>  (1) 
0

>  <num_sample>  (1) 
50

>  <b_lp_Chiralities_Consistent>  (1) 
1

>  <r_epik_Charging_Adjusted_Penalty>  (1) 
0

>  <r_epik_Ionization_Penalty>  (1) 
0

>  <r_epik_Ionization_Penalty_Charging>  (1) 
0

>  <r_epik_Ionization_Penalty_Neutral>  (1) 
0

>  <r_epik_State_Penalty>  (1) 
-0

>  <r_glide_ring_energy>  (1) 
0

>  <r_i_docking_score>  (1) 
-5.1695796272469607

>  <r_i_glide_ecoul>  (1) 
-0.72382690484688172

>  <r_i_glide_eff_state_penalty>  (1) 
-0

>  <r_i_glide_einternal>  (1) 
0

>  <r_i_glide_emodel>  (1) 
-22.833745979163087

>  <r_i_glide_emodel_strain>  (1) 
0

>  <r_i_glide_energy>  (1) 
-17.133041068304202

>  <r_i_glide_erotb>  (1) 
0

>  <r_i_glide_esite>  (1) 
0

>  <r_i_glide_evdw>  (1) 
-16.409214163457321

>  <r_i_glide_gscore>  (1) 
-5.1695796272469607

>  <r_i_glide_gscore_strain>  (1) 
0

>  <r_i_glide_hbond>  (1) 
0

>  <r_i_glide_ligand_efficiency>  (1) 
-0.73851137532099442

>  <r_i_glide_ligand_efficiency_ln>  (1) 
-1.7548327564928372

>  <r_i_glide_ligand_efficiency_sa>  (1) 
-1.4127214386836537

>  <r_i_glide_lipo>  (1) 
-1.6726613652588738

>  <r_i_glide_metal>  (1) 
-0

>  <r_i_glide_rewards>  (1) 
-2.5678835180881889

>  <r_lp_Energy>  (1) 
4.7929789999999999

>  <r_lp_tautomer_probability>  (1) 
1

>  <s_epik_cmdline>  (1) 
J2VwaWtfcHl0aG9uJywgJy1waHQnLCAnMS4wJywgJy1waCcsICc3LjQnLCAnLXRuJywgJzgnLCAnLW1hJywgJzUwMCcsICctaW1hZScsICc8aW5maWxlLm1hZT4nLCAnLW9tYWUnLCAnPG91dGZpbGUubWFlPic=

>  <s_epik_input>  (1) 
TzFbQ0gyXVtDSF09W0NIXVtDSF09QzFbQ0gzXQ==

>  <s_glide_docking_method>  (1) 
confgen

>  <s_i_glide_gridfile>  (1) 
gpcr_drd2_6luq_protein_autoprepared_prepared

>  <s_lp_Force_Field>  (1) 
S-OPLS

>  <s_lp_Variant>  (1) 
Pocket2Mol_26_num_sample_50-1

>  <s_m_source_file>  (1) 
generated__ligand_Pocket2Mol_2026-05-06_prepared.sdf

>  <GenAI_Model>  (1) 
Pocket2Mol

>  <Protein>  (1) 
generic_title2

$$$$
Pocket2Mol_19_num_sample_50
     RDKit          3D

  0  0  0  0  0  0  0  0  0  0999 V3000
M  V30 BEGIN CTAB
M  V30 COUNTS 12 12 0 0 1
M  V30 BEGIN ATOM
M  V30 1 N 11.709983 8.862044 -4.900432 0
M  V30 2 C 12.282348 9.151965 -3.709029 0
M  V30 3 C 12.456570 8.207756 -2.678225 0
M  V30 4 C 11.297097 7.584673 -5.091774 0
M  V30 5 O 13.033804 8.569715 -1.495197 0
M  V30 6 C 12.025176 6.889938 -2.889131 0
M  V30 7 C 11.434712 6.570366 -4.122395 0
M  V30 8 H 12.612394 10.169301 -3.574924 0
M  V30 9 H 10.843318 7.366584 -6.046304 0
M  V30 10 H 13.334872 9.474494 -1.477072 0
M  V30 11 H 12.144151 6.137338 -2.121580 0
M  V30 12 H 11.089956 5.569681 -4.324174 0
M  V30 END ATOM
M  V30 BEGIN BOND
M  V30 1 2 2 1
M  V30 2 1 3 2
M  V30 3 1 4 1
M  V30 4 1 5 3
M  V30 5 2 6 3
M  V30 6 2 7 4
M  V30 7 1 7 6
M  V30 8 1 8 2
M  V30 9 1 9 4
M  V30 10 1 10 5
M  V30 11 1 11 6
M  V30 12 1 12 7
M  V30 END BOND
M  V30 END CTAB
M  END
>  <i_epik_Tot_Q>  (1) 
0

>  <i_epik_Tot_abs_Q>  (1) 
0

>  <i_i_glide_confnum>  (1) 
1

>  <i_i_glide_lignum>  (1) 
23

>  <i_i_glide_posenum>  (1) 
301

>  <i_i_glide_rotatable_bonds>  (1) 
1

>  <i_lp_mmshare_version>  (1) 
72125

>  <i_m_source_file_index>  (1) 
20

>  <i_f3d_flags>  (1) 
0

>  <num_sample>  (1) 
50

>  <b_lp_Chiralities_Consistent>  (1) 
1

>  <r_epik_Charging_Adjusted_Penalty>  (1) 
0.49104251329211085

>  <r_epik_Ionization_Penalty>  (1) 
0.049438115990627488

>  <r_epik_Ionization_Penalty_Charging>  (1) 
0

>  <r_epik_Ionization_Penalty_Neutral>  (1) 
0.049438115990627488

>  <r_epik_State_Penalty>  (1) 
0.49104251329211085

>  <r_glide_ring_energy>  (1) 
0

>  <r_i_docking_score>  (1) 
-5.1683606448010835

>  <r_i_glide_ecoul>  (1) 
-4.8603465025750534

>  <r_i_glide_eff_state_penalty>  (1) 
0.49104251329211085

>  <r_i_glide_einternal>  (1) 
0.0019226504254115651

>  <r_i_glide_emodel>  (1) 
-27.551692895884102

>  <r_i_glide_emodel_strain>  (1) 
0

>  <r_i_glide_energy>  (1) 
-19.130006973314352

>  <r_i_glide_erotb>  (1) 
0

>  <r_i_glide_esite>  (1) 
0

>  <r_i_glide_evdw>  (1) 
-14.269660470739298

>  <r_i_glide_gscore>  (1) 
-5.6594031580931947

>  <r_i_glide_gscore_strain>  (1) 
0

>  <r_i_glide_hbond>  (1) 
-0.32000000000000001

>  <r_i_glide_ligand_efficiency>  (1) 
-0.73833723497158332

>  <r_i_glide_ligand_efficiency_ln>  (1) 
-1.7544189684327132

>  <r_i_glide_ligand_efficiency_sa>  (1) 
-1.4123883201790863

>  <r_i_glide_lipo>  (1) 
-1.4468681591699719

>  <r_i_glide_metal>  (1) 
-0

>  <r_i_glide_rewards>  (1) 
-2.4500000000000002

>  <r_lp_Energy>  (1) 
10.560834

>  <r_lp_tautomer_probability>  (1) 
0.43658000000000002

>  <s_epik_cmdline>  (1) 
J2VwaWtfcHl0aG9uJywgJy1waHQnLCAnMS4wJywgJy1waCcsICc3LjQnLCAnLXRuJywgJzgnLCAnLW1hJywgJzUwMCcsICctaW1hZScsICc8aW5maWxlLm1hZT4nLCAnLW9tYWUnLCAnPG91dGZpbGUubWFlPic=

>  <s_epik_input>  (1) 
W2NIXTFbY0hdW2NIXW5bY0hdYzFbT0hd

>  <s_glide_docking_method>  (1) 
confgen

>  <s_i_glide_gridfile>  (1) 
gpcr_drd2_6luq_protein_autoprepared_prepared

>  <s_lp_Force_Field>  (1) 
S-OPLS

>  <s_lp_Variant>  (1) 
Pocket2Mol_19_num_sample_50-2

>  <s_m_source_file>  (1) 
generated__ligand_Pocket2Mol_2026-05-06_prepared.sdf

>  <GenAI_Model>  (1) 
Pocket2Mol

>  <Protein>  (1) 
generic_title2

$$$$
Pocket2Mol_34_num_sample_50
     RDKit          3D

  0  0  0  0  0  0  0  0  0  0999 V3000
M  V30 BEGIN CTAB
M  V30 COUNTS 16 17 0 0 1
M  V30 BEGIN ATOM
M  V30 1 C 12.015562 6.967247 -2.589975 0
M  V30 2 O 11.474587 6.232753 -3.757300 0
M  V30 3 C 11.434839 7.206071 -4.689550 0
M  V30 4 C 11.834839 8.422621 -4.292819 0
M  V30 5 C 11.830838 9.497954 -5.194821 0
M  V30 6 N 11.434320 9.365775 -6.487497 0
M  V30 7 C 11.022872 8.121820 -6.873948 0
M  V30 8 C 11.009116 7.006960 -6.004628 0
M  V30 9 C 12.257928 8.521876 -2.893750 0
M  V30 10 H 11.325722 6.849449 -1.753903 0
M  V30 11 H 12.951662 6.494270 -2.290295 0
M  V30 12 H 12.149184 10.480088 -4.884745 0
M  V30 13 H 10.702282 8.019113 -7.900167 0
M  V30 14 H 10.679909 6.036376 -6.344864 0
M  V30 15 H 13.300550 8.824688 -2.794295 0
M  V30 16 H 11.605241 9.178813 -2.317600 0
M  V30 END ATOM
M  V30 BEGIN BOND
M  V30 1 1 2 1
M  V30 2 1 3 2
M  V30 3 2 4 3
M  V30 4 1 5 4
M  V30 5 2 6 5
M  V30 6 1 7 6
M  V30 7 1 8 3
M  V30 8 2 8 7
M  V30 9 1 9 1
M  V30 10 1 9 4
M  V30 11 1 10 1
M  V30 12 1 11 1
M  V30 13 1 12 5
M  V30 14 1 13 7
M  V30 15 1 14 8
M  V30 16 1 15 9
M  V30 17 1 16 9
M  V30 END BOND
M  V30 END CTAB
M  END
>  <i_epik_Tot_Q>  (1) 
0

>  <i_epik_Tot_abs_Q>  (1) 
0

>  <i_i_glide_confnum>  (1) 
1

>  <i_i_glide_lignum>  (1) 
39

>  <i_i_glide_posenum>  (1) 
256

>  <i_i_glide_rotatable_bonds>  (1) 
0

>  <i_lp_mmshare_version>  (1) 
72125

>  <i_m_source_file_index>  (1) 
35

>  <i_f3d_flags>  (1) 
0

>  <num_sample>  (1) 
50

>  <b_lp_Chiralities_Consistent>  (1) 
1

>  <r_epik_Charging_Adjusted_Penalty>  (1) 
0.44367302241175416

>  <r_epik_Ionization_Penalty>  (1) 
0.4436730224117541

>  <r_epik_Ionization_Penalty_Charging>  (1) 
0

>  <r_epik_Ionization_Penalty_Neutral>  (1) 
0.4436730224117541

>  <r_epik_State_Penalty>  (1) 
0.44367302241175416

>  <r_glide_ring_energy>  (1) 
0

>  <r_i_docking_score>  (1) 
-5.1575953128078735

>  <r_i_glide_ecoul>  (1) 
-0.15864868726765224

>  <r_i_glide_eff_state_penalty>  (1) 
0.44367302241175416

>  <r_i_glide_einternal>  (1) 
0

>  <r_i_glide_emodel>  (1) 
-27.793590319884377

>  <r_i_glide_emodel_strain>  (1) 
0

>  <r_i_glide_energy>  (1) 
-20.28005255065008

>  <r_i_glide_erotb>  (1) 
0

>  <r_i_glide_esite>  (1) 
0

>  <r_i_glide_evdw>  (1) 
-20.121403863382426

>  <r_i_glide_gscore>  (1) 
-5.6012683352196273

>  <r_i_glide_gscore_strain>  (1) 
0

>  <r_i_glide_hbond>  (1) 
0

>  <r_i_glide_ligand_efficiency>  (1) 
-0.57306614586754145

>  <r_i_glide_ligand_efficiency_ln>  (1) 
-1.6131476497984838

>  <r_i_glide_ligand_efficiency_sa>  (1) 
-1.1920256195577761

>  <r_i_glide_lipo>  (1) 
-1.8910080740732438

>  <r_i_glide_metal>  (1) 
-0

>  <r_i_glide_rewards>  (1) 
-2.680392764887114

>  <r_lp_Energy>  (1) 
12.810587999999999

>  <s_epik_cmdline>  (1) 
J2VwaWtfcHl0aG9uJywgJy1waHQnLCAnMS4wJywgJy1waCcsICc3LjQnLCAnLXRuJywgJzgnLCAnLW1hJywgJzUwMCcsICctaW1hZScsICc8aW5maWxlLm1hZT4nLCAnLW9tYWUnLCAnPG91dGZpbGUubWFlPic=

>  <s_epik_input>  (1) 
TzFbQ0gyXVtDSDJdYyhjMTIpW2NIXW5bY0hdW2NIXTI=

>  <s_glide_docking_method>  (1) 
confgen

>  <s_i_glide_gridfile>  (1) 
gpcr_drd2_6luq_protein_autoprepared_prepared

>  <s_lp_Force_Field>  (1) 
S-OPLS

>  <s_lp_Variant>  (1) 
Pocket2Mol_34_num_sample_50-2

>  <s_m_source_file>  (1) 
generated__ligand_Pocket2Mol_2026-05-06_prepared.sdf

>  <GenAI_Model>  (1) 
Pocket2Mol

>  <Protein>  (1) 
generic_title2

$$$$
Pocket2Mol_24_num_sample_50
     RDKit          3D

  0  0  0  0  0  0  0  0  0  0999 V3000
M  V30 BEGIN CTAB
M  V30 COUNTS 15 15 0 0 1
M  V30 BEGIN ATOM
M  V30 1 N 9.426071 7.759545 -8.911435 0 CHG=1
M  V30 2 C 10.416100 8.167613 -9.764316 0
M  V30 3 C 11.612465 7.993591 -9.104846 0
M  V30 4 C 9.967584 7.347470 -7.767760 0
M  V30 5 C 13.018881 8.259266 -9.521525 0
M  V30 6 N 9.307153 6.881723 -6.707960 0
M  V30 7 N 11.290430 7.483335 -7.870523 0
M  V30 8 H 10.206564 8.543586 -10.755458 0
M  V30 9 H 13.045974 8.661138 -10.534942 0
M  V30 10 H 13.483081 8.982746 -8.850784 0
M  V30 11 H 13.601588 7.338167 -9.499733 0
M  V30 12 H 8.299677 6.800261 -6.685379 0
M  V30 13 H 9.773028 6.581799 -5.862876 0
M  V30 14 H 11.956492 7.245363 -7.145944 0
M  V30 15 H 8.430952 7.769322 -9.117589 0
M  V30 END ATOM
M  V30 BEGIN BOND
M  V30 1 1 2 1
M  V30 2 2 3 2
M  V30 3 2 4 1
M  V30 4 1 5 3
M  V30 5 1 6 4
M  V30 6 1 7 3
M  V30 7 1 7 4
M  V30 8 1 8 2
M  V30 9 1 9 5
M  V30 10 1 10 5
M  V30 11 1 11 5
M  V30 12 1 12 6
M  V30 13 1 13 6
M  V30 14 1 14 7
M  V30 15 1 15 1
M  V30 END BOND
M  V30 END CTAB
M  END
>  <i_epik_Tot_Q>  (1) 
1

>  <i_epik_Tot_abs_Q>  (1) 
1

>  <i_i_glide_confnum>  (1) 
1

>  <i_i_glide_lignum>  (1) 
28

>  <i_i_glide_posenum>  (1) 
65

>  <i_i_glide_rotatable_bonds>  (1) 
0

>  <i_lp_mmshare_version>  (1) 
72125

>  <i_m_source_file_index>  (1) 
25

>  <i_f3d_flags>  (1) 
0

>  <num_sample>  (1) 
50

>  <b_lp_Chiralities_Consistent>  (1) 
1

>  <r_epik_Charging_Adjusted_Penalty>  (1) 
0.028937443406262361

>  <r_epik_Ionization_Penalty>  (1) 
0.025358402846536118

>  <r_epik_Ionization_Penalty_Charging>  (1) 
0

>  <r_epik_Ionization_Penalty_Neutral>  (1) 
0.025358402846536118

>  <r_epik_State_Penalty>  (1) 
0.028937443406262361

>  <r_glide_ring_energy>  (1) 
0

>  <r_i_docking_score>  (1) 
-5.1294661048787047

>  <r_i_glide_ecoul>  (1) 
-8.1963512571058406

>  <r_i_glide_eff_state_penalty>  (1) 
0.028937443406262361

>  <r_i_glide_einternal>  (1) 
0

>  <r_i_glide_emodel>  (1) 
-25.717938734343115

>  <r_i_glide_emodel_strain>  (1) 
0

>  <r_i_glide_energy>  (1) 
-15.585383064505503

>  <r_i_glide_erotb>  (1) 
0

>  <r_i_glide_esite>  (1) 
-0.21103593319553304

>  <r_i_glide_evdw>  (1) 
-7.3890318073996619

>  <r_i_glide_gscore>  (1) 
-5.1584035482849666

>  <r_i_glide_gscore_strain>  (1) 
0

>  <r_i_glide_hbond>  (1) 
-0.29356532246528333

>  <r_i_glide_ligand_efficiency>  (1) 
-0.73278087212552923

>  <r_i_glide_ligand_efficiency_ln>  (1) 
-1.7412160742660832

>  <r_i_glide_ligand_efficiency_sa>  (1) 
-1.4017593804280715

>  <r_i_glide_lipo>  (1) 
-0.27489801368829109

>  <r_i_glide_metal>  (1) 
-0

>  <r_i_glide_rewards>  (1) 
-2.7800000000000002

>  <r_lp_Energy>  (1) 
-0.73901799999999995

>  <r_lp_tautomer_probability>  (1) 
0.99999998112300037

>  <s_epik_cmdline>  (1) 
J2VwaWtfcHl0aG9uJywgJy1waHQnLCAnMS4wJywgJy1waCcsICc3LjQnLCAnLXRuJywgJzgnLCAnLW1hJywgJzUwMCcsICctaW1hZScsICc8aW5maWxlLm1hZT4nLCAnLW9tYWUnLCAnPG91dGZpbGUubWFlPic=

>  <s_epik_input>  (1) 
W05IMl1jKFtuSF0xKW5bY0hdYzFbQ0gzXQ==

>  <s_glide_docking_method>  (1) 
confgen

>  <s_i_glide_gridfile>  (1) 
gpcr_drd2_6luq_protein_autoprepared_prepared

>  <s_lp_Force_Field>  (1) 
S-OPLS

>  <s_lp_Variant>  (1) 
Pocket2Mol_24_num_sample_50-1

>  <s_m_source_file>  (1) 
generated__ligand_Pocket2Mol_2026-05-06_prepared.sdf

>  <GenAI_Model>  (1) 
Pocket2Mol

>  <Protein>  (1) 
generic_title2

$$$$
Pocket2Mol_34_num_sample_50
     RDKit          3D

  0  0  0  0  0  0  0  0  0  0999 V3000
M  V30 BEGIN CTAB
M  V30 COUNTS 17 18 0 0 1
M  V30 BEGIN ATOM
M  V30 1 C 12.502421 8.725604 -2.075012 0
M  V30 2 O 12.234696 9.769299 -3.092427 0
M  V30 3 C 11.838216 9.025570 -4.142441 0
M  V30 4 C 11.834840 7.692040 -3.949672 0
M  V30 5 C 11.423193 6.825426 -4.969429 0
M  V30 6 N 11.034839 7.341139 -6.155558 0 CHG=1
M  V30 7 C 11.026917 8.672629 -6.399632 0
M  V30 8 C 11.435022 9.570454 -5.380265 0
M  V30 9 C 12.262236 7.246079 -2.626033 0
M  V30 10 H 11.862065 8.913466 -1.211980 0
M  V30 11 H 13.528899 8.832928 -1.725321 0
M  V30 12 H 11.388572 5.767719 -4.879984 0
M  V30 13 H 10.697676 8.969656 -7.383345 0
M  V30 14 H 11.434825 10.636876 -5.544052 0
M  V30 15 H 11.471621 6.711226 -2.097780 0
M  V30 16 H 13.172287 6.649552 -2.685192 0
M  V30 17 H 10.734182 6.702828 -6.895179 0
M  V30 END ATOM
M  V30 BEGIN BOND
M  V30 1 1 2 1
M  V30 2 1 3 2
M  V30 3 2 4 3
M  V30 4 1 5 4
M  V30 5 2 6 5
M  V30 6 1 7 6
M  V30 7 1 8 3
M  V30 8 2 8 7
M  V30 9 1 9 1
M  V30 10 1 9 4
M  V30 11 1 10 1
M  V30 12 1 11 1
M  V30 13 1 12 5
M  V30 14 1 13 7
M  V30 15 1 14 8
M  V30 16 1 15 9
M  V30 17 1 16 9
M  V30 18 1 17 6
M  V30 END BOND
M  V30 END CTAB
M  END
>  <i_epik_Tot_Q>  (1) 
1

>  <i_epik_Tot_abs_Q>  (1) 
1

>  <i_i_glide_confnum>  (1) 
1

>  <i_i_glide_lignum>  (1) 
38

>  <i_i_glide_posenum>  (1) 
355

>  <i_i_glide_rotatable_bonds>  (1) 
0

>  <i_lp_mmshare_version>  (1) 
72125

>  <i_m_source_file_index>  (1) 
35

>  <i_f3d_flags>  (1) 
0

>  <num_sample>  (1) 
50

>  <b_lp_Chiralities_Consistent>  (1) 
1

>  <r_epik_Charging_Adjusted_Penalty>  (1) 
0.75885481127580179

>  <r_epik_Ionization_Penalty>  (1) 
0.37942740563790117

>  <r_epik_Ionization_Penalty_Charging>  (1) 
0.37942740563790117

>  <r_epik_Ionization_Penalty_Neutral>  (1) 
0

>  <r_epik_State_Penalty>  (1) 
0.37942740563790056

>  <r_glide_ring_energy>  (1) 
0

>  <r_i_docking_score>  (1) 
-5.1279243361106852

>  <r_i_glide_ecoul>  (1) 
-0.78362647247206907

>  <r_i_glide_eff_state_penalty>  (1) 
0.37942740563790056

>  <r_i_glide_einternal>  (1) 
0

>  <r_i_glide_emodel>  (1) 
-28.669227271581107

>  <r_i_glide_emodel_strain>  (1) 
0

>  <r_i_glide_energy>  (1) 
-18.434029383643651

>  <r_i_glide_erotb>  (1) 
0

>  <r_i_glide_esite>  (1) 
0

>  <r_i_glide_evdw>  (1) 
-17.650402911171582

>  <r_i_glide_gscore>  (1) 
-5.507351741748586

>  <r_i_glide_gscore_strain>  (1) 
0

>  <r_i_glide_hbond>  (1) 
0

>  <r_i_glide_ligand_efficiency>  (1) 
-0.56976937067896505

>  <r_i_glide_ligand_efficiency_ln>  (1) 
-1.6038674206561478

>  <r_i_glide_ligand_efficiency_sa>  (1) 
-1.1851680508197793

>  <r_i_glide_lipo>  (1) 
-2.0156209586525304

>  <r_i_glide_metal>  (1) 
-0

>  <r_i_glide_rewards>  (1) 
-2.4916666666666667

>  <r_lp_Energy>  (1) 
18.327531999999998

>  <s_epik_cmdline>  (1) 
J2VwaWtfcHl0aG9uJywgJy1waHQnLCAnMS4wJywgJy1waCcsICc3LjQnLCAnLXRuJywgJzgnLCAnLW1hJywgJzUwMCcsICctaW1hZScsICc8aW5maWxlLm1hZT4nLCAnLW9tYWUnLCAnPG91dGZpbGUubWFlPic=

>  <s_epik_input>  (1) 
TzFbQ0gyXVtDSDJdYyhjMTIpW2NIXW5bY0hdW2NIXTI=

>  <s_glide_docking_method>  (1) 
confgen

>  <s_i_glide_gridfile>  (1) 
gpcr_drd2_6luq_protein_autoprepared_prepared

>  <s_lp_Force_Field>  (1) 
S-OPLS

>  <s_lp_Variant>  (1) 
Pocket2Mol_34_num_sample_50-1

>  <s_m_source_file>  (1) 
generated__ligand_Pocket2Mol_2026-05-06_prepared.sdf

>  <GenAI_Model>  (1) 
Pocket2Mol

>  <Protein>  (1) 
generic_title2

$$$$
Pocket2Mol_34_num_sample_50
     RDKit          3D

  0  0  0  0  0  0  0  0  0  0999 V3000
M  V30 BEGIN CTAB
M  V30 COUNTS 17 18 0 0 1
M  V30 BEGIN ATOM
M  V30 1 C 9.917596 7.708540 -7.567087 0
M  V30 2 O 10.524846 8.969301 -7.091669 0
M  V30 3 C 11.055985 8.596416 -5.912550 0
M  V30 4 C 10.916133 7.297004 -5.591143 0
M  V30 5 C 11.434839 6.794956 -4.383741 0
M  V30 6 N 12.079692 7.644011 -3.546267 0 CHG=1
M  V30 7 C 12.239234 8.963575 -3.830608 0
M  V30 8 C 11.722777 9.482516 -5.044330 0
M  V30 9 C 10.198891 6.488722 -6.577018 0
M  V30 10 H 10.287622 7.482503 -8.567674 0
M  V30 11 H 8.842804 7.865471 -7.659464 0
M  V30 12 H 11.358031 5.769309 -4.063196 0
M  V30 13 H 12.765696 9.550343 -3.091689 0
M  V30 14 H 11.834771 10.526039 -5.298440 0
M  V30 15 H 10.837829 5.724024 -7.018605 0
M  V30 16 H 9.281884 6.060196 -6.172764 0
M  V30 17 H 12.455177 7.279689 -2.669276 0
M  V30 END ATOM
M  V30 BEGIN BOND
M  V30 1 1 2 1
M  V30 2 1 3 2
M  V30 3 2 4 3
M  V30 4 1 5 4
M  V30 5 2 6 5
M  V30 6 1 7 6
M  V30 7 1 8 3
M  V30 8 2 8 7
M  V30 9 1 9 1
M  V30 10 1 9 4
M  V30 11 1 10 1
M  V30 12 1 11 1
M  V30 13 1 12 5
M  V30 14 1 13 7
M  V30 15 1 14 8
M  V30 16 1 15 9
M  V30 17 1 16 9
M  V30 18 1 17 6
M  V30 END BOND
M  V30 END CTAB
M  END
>  <i_epik_Tot_Q>  (1) 
1

>  <i_epik_Tot_abs_Q>  (1) 
1

>  <i_i_glide_confnum>  (1) 
1

>  <i_i_glide_lignum>  (1) 
38

>  <i_i_glide_posenum>  (1) 
17

>  <i_i_glide_rotatable_bonds>  (1) 
0

>  <i_lp_mmshare_version>  (1) 
72125

>  <i_m_source_file_index>  (1) 
35

>  <i_f3d_flags>  (1) 
0

>  <num_sample>  (1) 
50

>  <b_lp_Chiralities_Consistent>  (1) 
1

>  <r_epik_Charging_Adjusted_Penalty>  (1) 
0.75885481127580179

>  <r_epik_Ionization_Penalty>  (1) 
0.37942740563790117

>  <r_epik_Ionization_Penalty_Charging>  (1) 
0.37942740563790117

>  <r_epik_Ionization_Penalty_Neutral>  (1) 
0

>  <r_epik_State_Penalty>  (1) 
0.37942740563790056

>  <r_glide_ring_energy>  (1) 
0

>  <r_i_docking_score>  (1) 
-5.1166537904767067

>  <r_i_glide_ecoul>  (1) 
-1.9256310411400248

>  <r_i_glide_eff_state_penalty>  (1) 
0.37942740563790056

>  <r_i_glide_einternal>  (1) 
0

>  <r_i_glide_emodel>  (1) 
-29.328552332208254

>  <r_i_glide_emodel_strain>  (1) 
0

>  <r_i_glide_energy>  (1) 
-19.114300312680534

>  <r_i_glide_erotb>  (1) 
0

>  <r_i_glide_esite>  (1) 
0

>  <r_i_glide_evdw>  (1) 
-17.188669271540508

>  <r_i_glide_gscore>  (1) 
-5.4960811961146074

>  <r_i_glide_gscore_strain>  (1) 
0

>  <r_i_glide_hbond>  (1) 
0

>  <r_i_glide_ligand_efficiency>  (1) 
-0.56851708783074517

>  <r_i_glide_ligand_efficiency_ln>  (1) 
-1.6003423177547531

>  <r_i_glide_ligand_efficiency_sa>  (1) 
-1.1825631975253117

>  <r_i_glide_lipo>  (1) 
-1.6984045982695746

>  <r_i_glide_metal>  (1) 
-0

>  <r_i_glide_rewards>  (1) 
-2.6493984780970039

>  <r_lp_Energy>  (1) 
18.327531999999998

>  <s_epik_cmdline>  (1) 
J2VwaWtfcHl0aG9uJywgJy1waHQnLCAnMS4wJywgJy1waCcsICc3LjQnLCAnLXRuJywgJzgnLCAnLW1hJywgJzUwMCcsICctaW1hZScsICc8aW5maWxlLm1hZT4nLCAnLW9tYWUnLCAnPG91dGZpbGUubWFlPic=

>  <s_epik_input>  (1) 
TzFbQ0gyXVtDSDJdYyhjMTIpW2NIXW5bY0hdW2NIXTI=

>  <s_glide_docking_method>  (1) 
confgen

>  <s_i_glide_gridfile>  (1) 
gpcr_drd2_6luq_protein_autoprepared_prepared

>  <s_lp_Force_Field>  (1) 
S-OPLS

>  <s_lp_Variant>  (1) 
Pocket2Mol_34_num_sample_50-1

>  <s_m_source_file>  (1) 
generated__ligand_Pocket2Mol_2026-05-06_prepared.sdf

>  <GenAI_Model>  (1) 
Pocket2Mol

>  <Protein>  (1) 
generic_title2

$$$$
Pocket2Mol_34_num_sample_50
     RDKit          3D

  0  0  0  0  0  0  0  0  0  0999 V3000
M  V30 BEGIN CTAB
M  V30 COUNTS 16 17 0 0 1
M  V30 BEGIN ATOM
M  V30 1 C 9.833971 7.734750 -7.447991 0
M  V30 2 O 10.550865 8.969301 -7.068653 0
M  V30 3 C 11.102146 8.616556 -5.891796 0
M  V30 4 C 10.897574 7.357818 -5.502176 0
M  V30 5 C 11.434854 6.890114 -4.291695 0
M  V30 6 N 12.185568 7.679436 -3.470955 0
M  V30 7 C 12.374196 8.969266 -3.881307 0
M  V30 8 C 11.850403 9.482155 -5.091677 0
M  V30 9 C 10.094584 6.547905 -6.414351 0
M  V30 10 H 8.767911 7.962151 -7.483483 0
M  V30 11 H 10.123433 7.437635 -8.456381 0
M  V30 12 H 11.271751 5.871639 -3.971125 0
M  V30 13 H 12.960553 9.599601 -3.229014 0
M  V30 14 H 12.023555 10.505712 -5.387688 0
M  V30 15 H 10.684587 5.742068 -6.848287 0
M  V30 16 H 9.182724 6.169446 -5.951031 0
M  V30 END ATOM
M  V30 BEGIN BOND
M  V30 1 1 2 1
M  V30 2 1 3 2
M  V30 3 2 4 3
M  V30 4 1 5 4
M  V30 5 2 6 5
M  V30 6 1 7 6
M  V30 7 1 8 3
M  V30 8 2 8 7
M  V30 9 1 9 1
M  V30 10 1 9 4
M  V30 11 1 10 1
M  V30 12 1 11 1
M  V30 13 1 12 5
M  V30 14 1 13 7
M  V30 15 1 14 8
M  V30 16 1 15 9
M  V30 17 1 16 9
M  V30 END BOND
M  V30 END CTAB
M  END
>  <i_epik_Tot_Q>  (1) 
0

>  <i_epik_Tot_abs_Q>  (1) 
0

>  <i_i_glide_confnum>  (1) 
1

>  <i_i_glide_lignum>  (1) 
39

>  <i_i_glide_posenum>  (1) 
156

>  <i_i_glide_rotatable_bonds>  (1) 
0

>  <i_lp_mmshare_version>  (1) 
72125

>  <i_m_source_file_index>  (1) 
35

>  <i_f3d_flags>  (1) 
0

>  <num_sample>  (1) 
50

>  <b_lp_Chiralities_Consistent>  (1) 
1

>  <r_epik_Charging_Adjusted_Penalty>  (1) 
0.44367302241175416

>  <r_epik_Ionization_Penalty>  (1) 
0.4436730224117541

>  <r_epik_Ionization_Penalty_Charging>  (1) 
0

>  <r_epik_Ionization_Penalty_Neutral>  (1) 
0.4436730224117541

>  <r_epik_State_Penalty>  (1) 
0.44367302241175416

>  <r_glide_ring_energy>  (1) 
0

>  <r_i_docking_score>  (1) 
-5.1152812139547672

>  <r_i_glide_ecoul>  (1) 
-1.5572474306609561

>  <r_i_glide_eff_state_penalty>  (1) 
0.44367302241175416

>  <r_i_glide_einternal>  (1) 
0

>  <r_i_glide_emodel>  (1) 
-28.329962355813628

>  <r_i_glide_emodel_strain>  (1) 
0

>  <r_i_glide_energy>  (1) 
-20.873184691769232

>  <r_i_glide_erotb>  (1) 
0

>  <r_i_glide_esite>  (1) 
0

>  <r_i_glide_evdw>  (1) 
-19.315937261108274

>  <r_i_glide_gscore>  (1) 
-5.558954236366521

>  <r_i_glide_gscore_strain>  (1) 
0

>  <r_i_glide_hbond>  (1) 
0

>  <r_i_glide_ligand_efficiency>  (1) 
-0.56836457932830742

>  <r_i_glide_ligand_efficiency_ln>  (1) 
-1.5999130152491772

>  <r_i_glide_ligand_efficiency_sa>  (1) 
-1.1822459670565133

>  <r_i_glide_lipo>  (1) 
-1.6445498490191752

>  <r_i_glide_metal>  (1) 
-0

>  <r_i_glide_rewards>  (1) 
-2.715020409692789

>  <r_lp_Energy>  (1) 
12.810587999999999

>  <s_epik_cmdline>  (1) 
J2VwaWtfcHl0aG9uJywgJy1waHQnLCAnMS4wJywgJy1waCcsICc3LjQnLCAnLXRuJywgJzgnLCAnLW1hJywgJzUwMCcsICctaW1hZScsICc8aW5maWxlLm1hZT4nLCAnLW9tYWUnLCAnPG91dGZpbGUubWFlPic=

>  <s_epik_input>  (1) 
TzFbQ0gyXVtDSDJdYyhjMTIpW2NIXW5bY0hdW2NIXTI=

>  <s_glide_docking_method>  (1) 
confgen

>  <s_i_glide_gridfile>  (1) 
gpcr_drd2_6luq_protein_autoprepared_prepared

>  <s_lp_Force_Field>  (1) 
S-OPLS

>  <s_lp_Variant>  (1) 
Pocket2Mol_34_num_sample_50-2

>  <s_m_source_file>  (1) 
generated__ligand_Pocket2Mol_2026-05-06_prepared.sdf

>  <GenAI_Model>  (1) 
Pocket2Mol

>  <Protein>  (1) 
generic_title2

$$$$
Pocket2Mol_13_num_sample_50
     RDKit          3D

  0  0  0  0  0  0  0  0  0  0999 V3000
M  V30 BEGIN CTAB
M  V30 COUNTS 17 17 0 0 1
M  V30 BEGIN ATOM
M  V30 1 C 11.267507 8.340595 -6.521805 0
M  V30 2 O 10.278892 7.325164 -6.655456 0
M  V30 3 C 9.438891 7.520010 -7.787104 0
M  V30 4 C 10.264976 7.454151 -9.081410 0 CFG=1
M  V30 5 O 9.436492 7.704960 -10.195258 0
M  V30 6 C 12.202007 8.325848 -7.742740 0
M  V30 7 C 11.401408 8.486103 -9.039412 0
M  V30 8 H 10.794585 9.317163 -6.407824 0
M  V30 9 H 11.835541 8.160958 -5.609924 0
M  V30 10 H 8.942447 8.488647 -7.705853 0
M  V30 11 H 8.644569 6.766258 -7.800113 0
M  V30 12 H 10.676118 6.454265 -9.209378 0
M  V30 13 H 8.514600 7.775493 -9.891667 0
M  V30 14 H 12.947500 9.113462 -7.655477 0
M  V30 15 H 12.751654 7.383675 -7.766187 0
M  V30 16 H 12.055750 8.350697 -9.897305 0
M  V30 17 H 10.998598 9.498651 -9.110109 0
M  V30 END ATOM
M  V30 BEGIN BOND
M  V30 1 1 2 1
M  V30 2 1 3 2
M  V30 3 1 4 3
M  V30 4 1 5 4
M  V30 5 1 6 1
M  V30 6 1 7 4
M  V30 7 1 7 6
M  V30 8 1 8 1
M  V30 9 1 9 1
M  V30 10 1 10 3
M  V30 11 1 11 3
M  V30 12 1 4 12 CFG=3
M  V30 13 1 13 5
M  V30 14 1 14 6
M  V30 15 1 15 6
M  V30 16 1 16 7
M  V30 17 1 17 7
M  V30 END BOND
M  V30 END CTAB
M  END
>  <i_epik_Tot_Q>  (1) 
0

>  <i_epik_Tot_abs_Q>  (1) 
0

>  <i_i_glide_confnum>  (1) 
1

>  <i_i_glide_lignum>  (1) 
16

>  <i_i_glide_posenum>  (1) 
344

>  <i_i_glide_rotatable_bonds>  (1) 
1

>  <i_lp_mmshare_version>  (1) 
72125

>  <i_m_source_file_index>  (1) 
14

>  <i_f3d_flags>  (1) 
0

>  <num_sample>  (1) 
50

>  <b_lp_Chiralities_Consistent>  (1) 
1

>  <r_epik_Charging_Adjusted_Penalty>  (1) 
0

>  <r_epik_Ionization_Penalty>  (1) 
4.2263924331700322e-08

>  <r_epik_Ionization_Penalty_Charging>  (1) 
0

>  <r_epik_Ionization_Penalty_Neutral>  (1) 
4.2263924331700322e-08

>  <r_epik_State_Penalty>  (1) 
-0

>  <r_glide_ring_energy>  (1) 
0

>  <r_i_docking_score>  (1) 
-5.1039489083109046

>  <r_i_glide_ecoul>  (1) 
-6.381059558890481

>  <r_i_glide_eff_state_penalty>  (1) 
-0

>  <r_i_glide_einternal>  (1) 
1.4439748859600376

>  <r_i_glide_emodel>  (1) 
-23.806237316180901

>  <r_i_glide_emodel_strain>  (1) 
0.86481211689933968

>  <r_i_glide_energy>  (1) 
-18.630194731682117

>  <r_i_glide_erotb>  (1) 
0

>  <r_i_glide_esite>  (1) 
0

>  <r_i_glide_evdw>  (1) 
-12.249135172791634

>  <r_i_glide_gscore>  (1) 
-5.1039489083109046

>  <r_i_glide_gscore_strain>  (1) 
0

>  <r_i_glide_hbond>  (1) 
-0.16

>  <r_i_glide_ligand_efficiency>  (1) 
-0.72913555833012922

>  <r_i_glide_ligand_efficiency_ln>  (1) 
-1.732554168343398

>  <r_i_glide_ligand_efficiency_sa>  (1) 
-1.3947861459978605

>  <r_i_glide_lipo>  (1) 
-0.74933321583775081

>  <r_i_glide_metal>  (1) 
-0

>  <r_i_glide_rewards>  (1) 
-2.625

>  <r_lp_Energy>  (1) 
6.7642049999999996

>  <r_lp_tautomer_probability>  (1) 
1

>  <s_epik_cmdline>  (1) 
J2VwaWtfcHl0aG9uJywgJy1waHQnLCAnMS4wJywgJy1waCcsICc3LjQnLCAnLXRuJywgJzgnLCAnLW1hJywgJzUwMCcsICctaW1hZScsICc8aW5maWxlLm1hZT4nLCAnLW9tYWUnLCAnPG91dGZpbGUubWFlPic=

>  <s_epik_input>  (1) 
W0NIMl0xW0NIMl1bQ0gyXU9bQ0gyXVtDQEhdMVtPSF0=

>  <s_glide_docking_method>  (1) 
confgen

>  <s_i_glide_gridfile>  (1) 
gpcr_drd2_6luq_protein_autoprepared_prepared

>  <s_lp_Force_Field>  (1) 
S-OPLS

>  <s_lp_Variant>  (1) 
Pocket2Mol_13_num_sample_50-1

>  <s_m_source_file>  (1) 
generated__ligand_Pocket2Mol_2026-05-06_prepared.sdf

>  <GenAI_Model>  (1) 
Pocket2Mol

>  <Protein>  (1) 
generic_title2

$$$$
Pocket2Mol_33_num_sample_50
     RDKit          3D

  0  0  0  0  0  0  0  0  0  0999 V3000
M  V30 BEGIN CTAB
M  V30 COUNTS 21 22 0 0 1
M  V30 BEGIN ATOM
M  V30 1 C 11.179140 8.590881 -5.512288 0
M  V30 2 O 10.682298 8.969302 -6.784862 0
M  V30 3 C 11.114756 8.012380 -7.750098 0 CFG=2
M  V30 4 C 12.375676 8.519342 -8.465776 0
M  V30 5 C 9.983951 7.683488 -8.712660 0
M  V30 6 C 11.004859 7.077482 -5.514042 0
M  V30 7 C 9.304340 6.491338 -8.052990 0
M  V30 8 C 11.307985 6.711104 -6.960374 0 CFG=1
M  V30 9 O 10.384023 5.769588 -7.491335 0
M  V30 10 H 10.635042 9.083122 -4.707629 0
M  V30 11 H 12.230763 8.869528 -5.430596 0
M  V30 12 H 12.768430 7.769406 -9.152461 0
M  V30 13 H 12.157702 9.413095 -9.049382 0
M  V30 14 H 13.166915 8.764473 -7.757527 0
M  V30 15 H 10.380559 7.372781 -9.679775 0
M  V30 16 H 9.305045 8.520144 -8.881720 0
M  V30 17 H 9.973922 6.825725 -5.263387 0
M  V30 18 H 11.655140 6.569933 -4.801297 0
M  V30 19 H 8.730306 5.887628 -8.756065 0
M  V30 20 H 8.634769 6.822914 -7.259224 0
M  V30 21 H 12.317141 6.322999 -7.052519 0
M  V30 END ATOM
M  V30 BEGIN BOND
M  V30 1 1 2 1
M  V30 2 1 3 2
M  V30 3 1 3 4 CFG=3
M  V30 4 1 5 3
M  V30 5 1 6 1
M  V30 6 1 7 5
M  V30 7 1 8 3
M  V30 8 1 8 6
M  V30 9 1 9 7
M  V30 10 1 9 8
M  V30 11 1 10 1
M  V30 12 1 11 1
M  V30 13 1 12 4
M  V30 14 1 13 4
M  V30 15 1 14 4
M  V30 16 1 15 5
M  V30 17 1 16 5
M  V30 18 1 17 6
M  V30 19 1 18 6
M  V30 20 1 19 7
M  V30 21 1 20 7
M  V30 22 1 8 21 CFG=1
M  V30 END BOND
M  V30 END CTAB
M  END
>  <i_epik_Tot_Q>  (1) 
0

>  <i_epik_Tot_abs_Q>  (1) 
0

>  <i_i_glide_confnum>  (1) 
2

>  <i_i_glide_lignum>  (1) 
37

>  <i_i_glide_posenum>  (1) 
258

>  <i_i_glide_rotatable_bonds>  (1) 
0

>  <i_lp_mmshare_version>  (1) 
72125

>  <i_m_source_file_index>  (1) 
34

>  <i_f3d_flags>  (1) 
0

>  <num_sample>  (1) 
50

>  <b_lp_Chiralities_Consistent>  (1) 
1

>  <r_epik_Charging_Adjusted_Penalty>  (1) 
0

>  <r_epik_Ionization_Penalty>  (1) 
2.529470820146915e-12

>  <r_epik_Ionization_Penalty_Charging>  (1) 
0

>  <r_epik_Ionization_Penalty_Neutral>  (1) 
2.529470820146915e-12

>  <r_epik_State_Penalty>  (1) 
-0

>  <r_glide_ring_energy>  (1) 
0.058801660810398726

>  <r_i_docking_score>  (1) 
-5.0814501366249676

>  <r_i_glide_ecoul>  (1) 
-0.12019028395202747

>  <r_i_glide_eff_state_penalty>  (1) 
-0

>  <r_i_glide_einternal>  (1) 
0

>  <r_i_glide_emodel>  (1) 
-23.52543554914314

>  <r_i_glide_emodel_strain>  (1) 
0

>  <r_i_glide_energy>  (1) 
-17.714599939464996

>  <r_i_glide_erotb>  (1) 
0

>  <r_i_glide_esite>  (1) 
0

>  <r_i_glide_evdw>  (1) 
-17.594409655512969

>  <r_i_glide_gscore>  (1) 
-5.0814501366249676

>  <r_i_glide_gscore_strain>  (1) 
0

>  <r_i_glide_hbond>  (1) 
0

>  <r_i_glide_ligand_efficiency>  (1) 
-0.56460557073610751

>  <r_i_glide_ligand_efficiency_ln>  (1) 
-1.5893316261376291

>  <r_i_glide_ligand_efficiency_sa>  (1) 
-1.1744269140931649

>  <r_i_glide_lipo>  (1) 
-1.3332232398376644

>  <r_i_glide_metal>  (1) 
-0

>  <r_i_glide_rewards>  (1) 
-2.8504778714188506

>  <r_lp_Energy>  (1) 
-0.369228

>  <r_lp_tautomer_probability>  (1) 
1

>  <s_epik_cmdline>  (1) 
J2VwaWtfcHl0aG9uJywgJy1waHQnLCAnMS4wJywgJy1waCcsICc3LjQnLCAnLXRuJywgJzgnLCAnLW1hJywgJzUwMCcsICctaW1hZScsICc8aW5maWxlLm1hZT4nLCAnLW9tYWUnLCAnPG91dGZpbGUubWFlPic=

>  <s_epik_input>  (1) 
TzFbQ0gyXVtDSDJdW0NASF0oW0NAXTEyW0NIM10pT1tDSDJdW0NIMl0y

>  <s_glide_docking_method>  (1) 
confgen

>  <s_i_glide_gridfile>  (1) 
gpcr_drd2_6luq_protein_autoprepared_prepared

>  <s_lp_Force_Field>  (1) 
S-OPLS

>  <s_lp_Variant>  (1) 
Pocket2Mol_33_num_sample_50-1

>  <s_m_source_file>  (1) 
generated__ligand_Pocket2Mol_2026-05-06_prepared.sdf

>  <GenAI_Model>  (1) 
Pocket2Mol

>  <Protein>  (1) 
generic_title2

$$$$
Pocket2Mol_25_num_sample_50
     RDKit          3D

  0  0  0  0  0  0  0  0  0  0999 V3000
M  V30 BEGIN CTAB
M  V30 COUNTS 15 15 0 0 1
M  V30 BEGIN ATOM
M  V30 1 C 11.782213 9.363072 -4.940143 0
M  V30 2 O 12.755544 9.369300 -3.891656 0
M  V30 3 C 12.355509 8.675570 -2.704617 0
M  V30 4 C 12.163569 7.161382 -2.979338 0 CFG=1
M  V30 5 O 11.434839 6.569302 -1.925112 0
M  V30 6 C 11.261925 7.960451 -5.173748 0
M  V30 7 C 11.434839 6.969301 -4.291823 0
M  V30 8 H 12.244300 9.741102 -5.852298 0
M  V30 9 H 10.951708 10.024683 -4.690607 0
M  V30 10 H 11.434840 9.126137 -2.331395 0
M  V30 11 H 13.108863 8.824431 -1.930609 0
M  V30 12 H 13.132662 6.674538 -3.047590 0
M  V30 13 H 11.383439 5.633490 -2.068382 0
M  V30 14 H 10.729647 7.779133 -6.096495 0
M  V30 15 H 11.045979 5.982860 -4.501712 0
M  V30 END ATOM
M  V30 BEGIN BOND
M  V30 1 1 2 1
M  V30 2 1 3 2
M  V30 3 1 4 3
M  V30 4 1 5 4
M  V30 5 1 6 1
M  V30 6 1 7 4
M  V30 7 2 7 6
M  V30 8 1 8 1
M  V30 9 1 9 1
M  V30 10 1 10 3
M  V30 11 1 11 3
M  V30 12 1 4 12 CFG=3
M  V30 13 1 13 5
M  V30 14 1 14 6
M  V30 15 1 15 7
M  V30 END BOND
M  V30 END CTAB
M  END
>  <i_epik_Tot_Q>  (1) 
0

>  <i_epik_Tot_abs_Q>  (1) 
0

>  <i_i_glide_confnum>  (1) 
1

>  <i_i_glide_lignum>  (1) 
29

>  <i_i_glide_posenum>  (1) 
162

>  <i_i_glide_rotatable_bonds>  (1) 
1

>  <i_lp_mmshare_version>  (1) 
72125

>  <i_m_source_file_index>  (1) 
26

>  <i_f3d_flags>  (1) 
0

>  <num_sample>  (1) 
50

>  <b_lp_Chiralities_Consistent>  (1) 
1

>  <r_epik_Charging_Adjusted_Penalty>  (1) 
0

>  <r_epik_Ionization_Penalty>  (1) 
7.567869706951744e-07

>  <r_epik_Ionization_Penalty_Charging>  (1) 
0

>  <r_epik_Ionization_Penalty_Neutral>  (1) 
7.567869706951744e-07

>  <r_epik_State_Penalty>  (1) 
-0

>  <r_glide_ring_energy>  (1) 
0

>  <r_i_docking_score>  (1) 
-5.0767682395865288

>  <r_i_glide_ecoul>  (1) 
-2.5502116092683713

>  <r_i_glide_eff_state_penalty>  (1) 
-0

>  <r_i_glide_einternal>  (1) 
0.34464561337039601

>  <r_i_glide_emodel>  (1) 
-25.090832344038187

>  <r_i_glide_emodel_strain>  (1) 
0

>  <r_i_glide_energy>  (1) 
-18.703964615801969

>  <r_i_glide_erotb>  (1) 
0

>  <r_i_glide_esite>  (1) 
0

>  <r_i_glide_evdw>  (1) 
-16.153753006533599

>  <r_i_glide_gscore>  (1) 
-5.0767682395865288

>  <r_i_glide_gscore_strain>  (1) 
0

>  <r_i_glide_hbond>  (1) 
0

>  <r_i_glide_ligand_efficiency>  (1) 
-0.72525260565521843

>  <r_i_glide_ligand_efficiency_ln>  (1) 
-1.7233275906987635

>  <r_i_glide_ligand_efficiency_sa>  (1) 
-1.387358324744794

>  <r_i_glide_lipo>  (1) 
-1.5080172561867518

>  <r_i_glide_metal>  (1) 
-0

>  <r_i_glide_rewards>  (1) 
-2.3785315916828407

>  <r_lp_Energy>  (1) 
2.4739009999999997

>  <r_lp_tautomer_probability>  (1) 
1

>  <s_epik_cmdline>  (1) 
J2VwaWtfcHl0aG9uJywgJy1waHQnLCAnMS4wJywgJy1waCcsICc3LjQnLCAnLXRuJywgJzgnLCAnLW1hJywgJzUwMCcsICctaW1hZScsICc8aW5maWxlLm1hZT4nLCAnLW9tYWUnLCAnPG91dGZpbGUubWFlPic=

>  <s_epik_input>  (1) 
W0NIXTE9W0NIXVtDSDJdT1tDSDJdW0NASF0xW09IXQ==

>  <s_glide_docking_method>  (1) 
confgen

>  <s_i_glide_gridfile>  (1) 
gpcr_drd2_6luq_protein_autoprepared_prepared

>  <s_lp_Force_Field>  (1) 
S-OPLS

>  <s_lp_Variant>  (1) 
Pocket2Mol_25_num_sample_50-1

>  <s_m_source_file>  (1) 
generated__ligand_Pocket2Mol_2026-05-06_prepared.sdf

>  <GenAI_Model>  (1) 
Pocket2Mol

>  <Protein>  (1) 
generic_title2

$$$$
Pocket2Mol_25_num_sample_50
     RDKit          3D

  0  0  0  0  0  0  0  0  0  0999 V3000
M  V30 BEGIN CTAB
M  V30 COUNTS 15 15 0 0 1
M  V30 BEGIN ATOM
M  V30 1 C 9.942730 7.435918 -7.364739 0
M  V30 2 O 10.785864 8.536660 -7.001114 0
M  V30 3 C 12.041933 8.569302 -7.685168 0
M  V30 4 C 11.835068 8.799492 -9.203236 0 CFG=1
M  V30 5 O 13.034799 8.569301 -9.917934 0
M  V30 6 C 9.880940 7.278034 -8.868989 0
M  V30 7 C 10.732883 7.892882 -9.695953 0
M  V30 8 H 8.940244 7.611670 -6.973049 0
M  V30 9 H 10.314200 6.512034 -6.919788 0
M  V30 10 H 12.566004 7.629252 -7.505020 0
M  V30 11 H 12.657510 9.359898 -7.256704 0
M  V30 12 H 11.517574 9.825191 -9.390321 0
M  V30 13 H 13.570457 9.357247 -9.891623 0
M  V30 14 H 9.105450 6.637449 -9.265293 0
M  V30 15 H 10.648264 7.753491 -10.763605 0
M  V30 END ATOM
M  V30 BEGIN BOND
M  V30 1 1 2 1
M  V30 2 1 3 2
M  V30 3 1 4 3
M  V30 4 1 5 4
M  V30 5 1 6 1
M  V30 6 1 7 4
M  V30 7 2 7 6
M  V30 8 1 8 1
M  V30 9 1 9 1
M  V30 10 1 10 3
M  V30 11 1 11 3
M  V30 12 1 4 12 CFG=1
M  V30 13 1 13 5
M  V30 14 1 14 6
M  V30 15 1 15 7
M  V30 END BOND
M  V30 END CTAB
M  END
>  <i_epik_Tot_Q>  (1) 
0

>  <i_epik_Tot_abs_Q>  (1) 
0

>  <i_i_glide_confnum>  (1) 
1

>  <i_i_glide_lignum>  (1) 
29

>  <i_i_glide_posenum>  (1) 
13

>  <i_i_glide_rotatable_bonds>  (1) 
1

>  <i_lp_mmshare_version>  (1) 
72125

>  <i_m_source_file_index>  (1) 
26

>  <i_f3d_flags>  (1) 
0

>  <num_sample>  (1) 
50

>  <b_lp_Chiralities_Consistent>  (1) 
1

>  <r_epik_Charging_Adjusted_Penalty>  (1) 
0

>  <r_epik_Ionization_Penalty>  (1) 
7.567869706951744e-07

>  <r_epik_Ionization_Penalty_Charging>  (1) 
0

>  <r_epik_Ionization_Penalty_Neutral>  (1) 
7.567869706951744e-07

>  <r_epik_State_Penalty>  (1) 
-0

>  <r_glide_ring_energy>  (1) 
0

>  <r_i_docking_score>  (1) 
-5.0639944515403243

>  <r_i_glide_ecoul>  (1) 
-5.4052007345478703

>  <r_i_glide_eff_state_penalty>  (1) 
-0

>  <r_i_glide_einternal>  (1) 
0.66621620436312967

>  <r_i_glide_emodel>  (1) 
-25.491833548181276

>  <r_i_glide_emodel_strain>  (1) 
0.018508885278397447

>  <r_i_glide_energy>  (1) 
-19.300763749895218

>  <r_i_glide_erotb>  (1) 
0

>  <r_i_glide_esite>  (1) 
0

>  <r_i_glide_evdw>  (1) 
-13.895563015347346

>  <r_i_glide_gscore>  (1) 
-5.0639944515403243

>  <r_i_glide_gscore_strain>  (1) 
0

>  <r_i_glide_hbond>  (1) 
-0.32000000000000001

>  <r_i_glide_ligand_efficiency>  (1) 
-0.72342777879147491

>  <r_i_glide_ligand_efficiency_ln>  (1) 
-1.7189914815169201

>  <r_i_glide_ligand_efficiency_sa>  (1) 
-1.3838675565339784

>  <r_i_glide_lipo>  (1) 
-0.60510285725744373

>  <r_i_glide_metal>  (1) 
-0

>  <r_i_glide_rewards>  (1) 
-2.6333333333333333

>  <r_lp_Energy>  (1) 
2.4739009999999997

>  <r_lp_tautomer_probability>  (1) 
1

>  <s_epik_cmdline>  (1) 
J2VwaWtfcHl0aG9uJywgJy1waHQnLCAnMS4wJywgJy1waCcsICc3LjQnLCAnLXRuJywgJzgnLCAnLW1hJywgJzUwMCcsICctaW1hZScsICc8aW5maWxlLm1hZT4nLCAnLW9tYWUnLCAnPG91dGZpbGUubWFlPic=

>  <s_epik_input>  (1) 
W0NIXTE9W0NIXVtDSDJdT1tDSDJdW0NASF0xW09IXQ==

>  <s_glide_docking_method>  (1) 
confgen

>  <s_i_glide_gridfile>  (1) 
gpcr_drd2_6luq_protein_autoprepared_prepared

>  <s_lp_Force_Field>  (1) 
S-OPLS

>  <s_lp_Variant>  (1) 
Pocket2Mol_25_num_sample_50-1

>  <s_m_source_file>  (1) 
generated__ligand_Pocket2Mol_2026-05-06_prepared.sdf

>  <GenAI_Model>  (1) 
Pocket2Mol

>  <Protein>  (1) 
generic_title2

$$$$
Pocket2Mol_28_num_sample_50
     RDKit          3D

  0  0  0  0  0  0  0  0  0  0999 V3000
M  V30 BEGIN CTAB
M  V30 COUNTS 18 18 0 0 1
M  V30 BEGIN ATOM
M  V30 1 C 11.243189 8.388533 -5.563384 0
M  V30 2 O 11.281093 9.089080 -6.797603 0
M  V30 3 C 11.655456 8.376316 -7.968266 0
M  V30 4 C 10.449999 7.647294 -8.601458 0
M  V30 5 O 9.435451 8.569579 -8.964085 0
M  V30 6 C 10.711215 6.940630 -5.615028 0
M  V30 7 C 9.888134 6.463813 -7.805977 0
M  V30 8 O 9.580494 6.794890 -6.458866 0
M  V30 9 H 12.231733 8.406302 -5.107532 0
M  V30 10 H 10.629006 8.990355 -4.900014 0
M  V30 11 H 12.465401 7.683119 -7.738865 0
M  V30 12 H 12.069542 9.096987 -8.674920 0
M  V30 13 H 10.807323 7.230403 -9.546380 0
M  V30 14 H 8.575755 8.153183 -9.091667 0
M  V30 15 H 11.501348 6.234795 -5.874046 0
M  V30 16 H 10.393229 6.650597 -4.612354 0
M  V30 17 H 8.997649 6.065196 -8.288046 0
M  V30 18 H 10.610929 5.647677 -7.818929 0
M  V30 END ATOM
M  V30 BEGIN BOND
M  V30 1 1 2 1
M  V30 2 1 3 2
M  V30 3 1 4 3
M  V30 4 1 5 4
M  V30 5 1 6 1
M  V30 6 1 7 4
M  V30 7 1 8 6
M  V30 8 1 8 7
M  V30 9 1 9 1
M  V30 10 1 10 1
M  V30 11 1 11 3
M  V30 12 1 12 3
M  V30 13 1 13 4
M  V30 14 1 14 5
M  V30 15 1 15 6
M  V30 16 1 16 6
M  V30 17 1 17 7
M  V30 18 1 18 7
M  V30 END BOND
M  V30 END CTAB
M  END
>  <i_epik_Tot_Q>  (1) 
0

>  <i_epik_Tot_abs_Q>  (1) 
0

>  <i_i_glide_confnum>  (1) 
11

>  <i_i_glide_lignum>  (1) 
32

>  <i_i_glide_posenum>  (1) 
159

>  <i_i_glide_rotatable_bonds>  (1) 
1

>  <i_lp_mmshare_version>  (1) 
72125

>  <i_m_source_file_index>  (1) 
29

>  <i_f3d_flags>  (1) 
0

>  <num_sample>  (1) 
50

>  <b_lp_Chiralities_Consistent>  (1) 
1

>  <r_epik_Charging_Adjusted_Penalty>  (1) 
0

>  <r_epik_Ionization_Penalty>  (1) 
1.4561355789117501e-07

>  <r_epik_Ionization_Penalty_Charging>  (1) 
0

>  <r_epik_Ionization_Penalty_Neutral>  (1) 
1.4561355789117501e-07

>  <r_epik_State_Penalty>  (1) 
-0

>  <r_glide_ring_energy>  (1) 
0.7060708747243859

>  <r_i_docking_score>  (1) 
-5.0470062240128764

>  <r_i_glide_ecoul>  (1) 
-4.1442600670885081

>  <r_i_glide_eff_state_penalty>  (1) 
-0

>  <r_i_glide_einternal>  (1) 
0.5273549805045068

>  <r_i_glide_emodel>  (1) 
-26.454417647351889

>  <r_i_glide_emodel_strain>  (1) 
0.092052139485627293

>  <r_i_glide_energy>  (1) 
-19.561385533854967

>  <r_i_glide_erotb>  (1) 
0

>  <r_i_glide_esite>  (1) 
0

>  <r_i_glide_evdw>  (1) 
-15.417125466766457

>  <r_i_glide_gscore>  (1) 
-5.0470062240128764

>  <r_i_glide_gscore_strain>  (1) 
0

>  <r_i_glide_hbond>  (1) 
-0.16

>  <r_i_glide_ligand_efficiency>  (1) 
-0.63087577800160954

>  <r_i_glide_ligand_efficiency_ln>  (1) 
-1.638935552340355

>  <r_i_glide_ligand_efficiency_sa>  (1) 
-1.2617515560032193

>  <r_i_glide_lipo>  (1) 
-0.83808600755204876

>  <r_i_glide_metal>  (1) 
-0

>  <r_i_glide_rewards>  (1) 
-2.6564249330592289

>  <r_lp_Energy>  (1) 
13.809562999999999

>  <r_lp_tautomer_probability>  (1) 
1

>  <s_epik_cmdline>  (1) 
J2VwaWtfcHl0aG9uJywgJy1waHQnLCAnMS4wJywgJy1waCcsICc3LjQnLCAnLXRuJywgJzgnLCAnLW1hJywgJzUwMCcsICctaW1hZScsICc8aW5maWxlLm1hZT4nLCAnLW9tYWUnLCAnPG91dGZpbGUubWFlPic=

>  <s_epik_input>  (1) 
W0NIMl0xT1tDSDJdW0NIMl1PW0NIMl1bQ0hdMVtPSF0=

>  <s_glide_docking_method>  (1) 
confgen

>  <s_i_glide_gridfile>  (1) 
gpcr_drd2_6luq_protein_autoprepared_prepared

>  <s_lp_Force_Field>  (1) 
S-OPLS

>  <s_lp_Variant>  (1) 
Pocket2Mol_28_num_sample_50-1

>  <s_m_source_file>  (1) 
generated__ligand_Pocket2Mol_2026-05-06_prepared.sdf

>  <GenAI_Model>  (1) 
Pocket2Mol

>  <Protein>  (1) 
generic_title2

$$$$
Pocket2Mol_23_num_sample_50
     RDKit          3D

  0  0  0  0  0  0  0  0  0  0999 V3000
M  V30 BEGIN CTAB
M  V30 COUNTS 15 16 0 0 1
M  V30 BEGIN ATOM
M  V30 1 C 11.434809 8.695980 -5.134000 0
M  V30 2 O 10.955887 9.369302 -6.291665 0
M  V30 3 C 10.917182 8.462346 -7.389156 0 CFG=2
M  V30 4 C 9.631454 7.691036 -7.511933 0 CFG=1
M  V30 5 O 9.434839 7.197680 -8.822434 0
M  V30 6 C 11.051149 7.221810 -5.323825 0
M  V30 7 C 10.823423 7.084023 -6.795554 0 CFG=2
M  V30 8 H 12.515766 8.822905 -5.091665 0
M  V30 9 H 11.034838 9.132476 -4.220678 0
M  V30 10 H 11.591768 8.648347 -8.223002 0
M  V30 11 H 8.737304 7.986501 -6.964682 0
M  V30 12 H 8.519910 7.369301 -9.075332 0
M  V30 13 H 11.834838 6.545225 -4.982436 0
M  V30 14 H 10.131454 6.969269 -4.798818 0
M  V30 15 H 11.352476 6.272925 -7.293072 0
M  V30 END ATOM
M  V30 BEGIN BOND
M  V30 1 1 2 1
M  V30 2 1 3 2
M  V30 3 1 4 3
M  V30 4 1 5 4
M  V30 5 1 6 1
M  V30 6 1 7 3
M  V30 7 1 7 4
M  V30 8 1 7 6
M  V30 9 1 8 1
M  V30 10 1 9 1
M  V30 11 1 3 10 CFG=3
M  V30 12 1 4 11 CFG=1
M  V30 13 1 12 5
M  V30 14 1 13 6
M  V30 15 1 14 6
M  V30 16 1 7 15 CFG=3
M  V30 END BOND
M  V30 END CTAB
M  END
>  <i_epik_Tot_Q>  (1) 
0

>  <i_epik_Tot_abs_Q>  (1) 
0

>  <i_i_glide_confnum>  (1) 
2

>  <i_i_glide_lignum>  (1) 
27

>  <i_i_glide_posenum>  (1) 
312

>  <i_i_glide_rotatable_bonds>  (1) 
1

>  <i_lp_mmshare_version>  (1) 
72125

>  <i_m_source_file_index>  (1) 
24

>  <i_f3d_flags>  (1) 
0

>  <num_sample>  (1) 
50

>  <b_lp_Chiralities_Consistent>  (1) 
1

>  <r_epik_Charging_Adjusted_Penalty>  (1) 
0

>  <r_epik_Ionization_Penalty>  (1) 
4.3639151522347116e-08

>  <r_epik_Ionization_Penalty_Charging>  (1) 
0

>  <r_epik_Ionization_Penalty_Neutral>  (1) 
4.3639151522347116e-08

>  <r_epik_State_Penalty>  (1) 
-0

>  <r_glide_ring_energy>  (1) 
1.4390763670009823

>  <r_i_docking_score>  (1) 
-5.035525847089688

>  <r_i_glide_ecoul>  (1) 
-4.8830318895771834

>  <r_i_glide_eff_state_penalty>  (1) 
-0

>  <r_i_glide_einternal>  (1) 
0.86530524050559809

>  <r_i_glide_emodel>  (1) 
-23.915370401512238

>  <r_i_glide_emodel_strain>  (1) 
0.49908425493499209

>  <r_i_glide_energy>  (1) 
-17.993571769159868

>  <r_i_glide_erotb>  (1) 
0

>  <r_i_glide_esite>  (1) 
0

>  <r_i_glide_evdw>  (1) 
-13.110539879582685

>  <r_i_glide_gscore>  (1) 
-5.035525847089688

>  <r_i_glide_gscore_strain>  (1) 
0

>  <r_i_glide_hbond>  (1) 
-0.16

>  <r_i_glide_ligand_efficiency>  (1) 
-0.7193608352985269

>  <r_i_glide_ligand_efficiency_ln>  (1) 
-1.7093277093683481

>  <r_i_glide_ligand_efficiency_sa>  (1) 
-1.3760877735077448

>  <r_i_glide_lipo>  (1) 
-0.95134943010551498

>  <r_i_glide_metal>  (1) 
-0

>  <r_i_glide_rewards>  (1) 
-2.5361946395684614

>  <r_lp_Energy>  (1) 
3.2309049999999999

>  <r_lp_tautomer_probability>  (1) 
1

>  <s_epik_cmdline>  (1) 
J2VwaWtfcHl0aG9uJywgJy1waHQnLCAnMS4wJywgJy1waCcsICc3LjQnLCAnLXRuJywgJzgnLCAnLW1hJywgJzUwMCcsICctaW1hZScsICc8aW5maWxlLm1hZT4nLCAnLW9tYWUnLCAnPG91dGZpbGUubWFlPic=

>  <s_epik_input>  (1) 
TzFbQ0gyXVtDSDJdW0NIXShbQ0BIXTEyKVtDQEBIXTJbT0hd

>  <s_glide_docking_method>  (1) 
confgen

>  <s_i_glide_gridfile>  (1) 
gpcr_drd2_6luq_protein_autoprepared_prepared

>  <s_lp_Force_Field>  (1) 
S-OPLS

>  <s_lp_Variant>  (1) 
Pocket2Mol_23_num_sample_50-1

>  <s_m_source_file>  (1) 
generated__ligand_Pocket2Mol_2026-05-06_prepared.sdf

>  <GenAI_Model>  (1) 
Pocket2Mol

>  <Protein>  (1) 
generic_title2

$$$$
Pocket2Mol_28_num_sample_50
     RDKit          3D

  0  0  0  0  0  0  0  0  0  0999 V3000
M  V30 BEGIN CTAB
M  V30 COUNTS 18 18 0 0 1
M  V30 BEGIN ATOM
M  V30 1 C 9.854034 7.895553 -6.931957 0
M  V30 2 O 9.556355 8.571297 -8.143813 0
M  V30 3 C 10.417817 8.215580 -9.223964 0
M  V30 4 C 11.787079 8.908864 -9.103608 0
M  V30 5 O 12.634134 8.569302 -10.186740 0
M  V30 6 C 10.834800 8.706868 -6.061950 0
M  V30 7 C 12.513979 8.569334 -7.800297 0
M  V30 8 O 11.927795 9.311720 -6.743933 0
M  V30 9 H 8.924602 7.765765 -6.375453 0
M  V30 10 H 10.228650 6.887259 -7.113334 0
M  V30 11 H 9.930884 8.541001 -10.143525 0
M  V30 12 H 10.531581 7.132348 -9.299567 0
M  V30 13 H 11.652187 9.989549 -9.153792 0
M  V30 14 H 13.362072 9.179385 -10.192586 0
M  V30 15 H 10.293529 9.512209 -5.570077 0
M  V30 16 H 11.223756 8.074812 -5.264211 0
M  V30 17 H 12.550420 7.499409 -7.597207 0
M  V30 18 H 13.546297 8.910831 -7.869606 0
M  V30 END ATOM
M  V30 BEGIN BOND
M  V30 1 1 2 1
M  V30 2 1 3 2
M  V30 3 1 4 3
M  V30 4 1 5 4
M  V30 5 1 6 1
M  V30 6 1 7 4
M  V30 7 1 8 6
M  V30 8 1 8 7
M  V30 9 1 9 1
M  V30 10 1 10 1
M  V30 11 1 11 3
M  V30 12 1 12 3
M  V30 13 1 13 4
M  V30 14 1 14 5
M  V30 15 1 15 6
M  V30 16 1 16 6
M  V30 17 1 17 7
M  V30 18 1 18 7
M  V30 END BOND
M  V30 END CTAB
M  END
>  <i_epik_Tot_Q>  (1) 
0

>  <i_epik_Tot_abs_Q>  (1) 
0

>  <i_i_glide_confnum>  (1) 
2

>  <i_i_glide_lignum>  (1) 
32

>  <i_i_glide_posenum>  (1) 
396

>  <i_i_glide_rotatable_bonds>  (1) 
1

>  <i_lp_mmshare_version>  (1) 
72125

>  <i_m_source_file_index>  (1) 
29

>  <i_f3d_flags>  (1) 
0

>  <num_sample>  (1) 
50

>  <b_lp_Chiralities_Consistent>  (1) 
1

>  <r_epik_Charging_Adjusted_Penalty>  (1) 
0

>  <r_epik_Ionization_Penalty>  (1) 
1.4561355789117501e-07

>  <r_epik_Ionization_Penalty_Charging>  (1) 
0

>  <r_epik_Ionization_Penalty_Neutral>  (1) 
1.4561355789117501e-07

>  <r_epik_State_Penalty>  (1) 
-0

>  <r_glide_ring_energy>  (1) 
0.00017037653096552691

>  <r_i_docking_score>  (1) 
-5.0054710784527181

>  <r_i_glide_ecoul>  (1) 
-2.9301290152594577

>  <r_i_glide_eff_state_penalty>  (1) 
-0

>  <r_i_glide_einternal>  (1) 
0.38579612627532467

>  <r_i_glide_emodel>  (1) 
-26.55300146094347

>  <r_i_glide_emodel_strain>  (1) 
0

>  <r_i_glide_energy>  (1) 
-19.556792625871818

>  <r_i_glide_erotb>  (1) 
0

>  <r_i_glide_esite>  (1) 
0

>  <r_i_glide_evdw>  (1) 
-16.626663610612361

>  <r_i_glide_gscore>  (1) 
-5.0054710784527181

>  <r_i_glide_gscore_strain>  (1) 
0

>  <r_i_glide_hbond>  (1) 
-0.30229061896476611

>  <r_i_glide_ligand_efficiency>  (1) 
-0.62568388480658976

>  <r_i_glide_ligand_efficiency_ln>  (1) 
-1.6254476698792057

>  <r_i_glide_ligand_efficiency_sa>  (1) 
-1.2513677696131797

>  <r_i_glide_lipo>  (1) 
-0.81055599621239627

>  <r_i_glide_metal>  (1) 
-0

>  <r_i_glide_rewards>  (1) 
-2.6217719304560192

>  <r_lp_Energy>  (1) 
13.809562999999999

>  <r_lp_tautomer_probability>  (1) 
1

>  <s_epik_cmdline>  (1) 
J2VwaWtfcHl0aG9uJywgJy1waHQnLCAnMS4wJywgJy1waCcsICc3LjQnLCAnLXRuJywgJzgnLCAnLW1hJywgJzUwMCcsICctaW1hZScsICc8aW5maWxlLm1hZT4nLCAnLW9tYWUnLCAnPG91dGZpbGUubWFlPic=

>  <s_epik_input>  (1) 
W0NIMl0xT1tDSDJdW0NIMl1PW0NIMl1bQ0hdMVtPSF0=

>  <s_glide_docking_method>  (1) 
confgen

>  <s_i_glide_gridfile>  (1) 
gpcr_drd2_6luq_protein_autoprepared_prepared

>  <s_lp_Force_Field>  (1) 
S-OPLS

>  <s_lp_Variant>  (1) 
Pocket2Mol_28_num_sample_50-1

>  <s_m_source_file>  (1) 
generated__ligand_Pocket2Mol_2026-05-06_prepared.sdf

>  <GenAI_Model>  (1) 
Pocket2Mol

>  <Protein>  (1) 
generic_title2

$$$$
Pocket2Mol_44_num_sample_50
     RDKit          3D

  0  0  0  0  0  0  0  0  0  0999 V3000
M  V30 BEGIN CTAB
M  V30 COUNTS 14 15 0 0 1
M  V30 BEGIN ATOM
M  V30 1 C 11.434839 9.250032 -5.463702 0
M  V30 2 O 10.252732 8.501969 -5.891667 0
M  V30 3 C 10.611038 8.244358 -7.150825 0
M  V30 4 C 11.797055 8.715184 -7.494112 0
M  V30 5 C 12.294531 8.518961 -8.793090 0
M  V30 6 N 11.594815 7.845099 -9.748539 0
M  V30 7 C 10.367183 7.369311 -9.371962 0
M  V30 8 C 9.834839 7.545115 -8.073142 0
M  V30 9 O 12.437813 9.369302 -6.521872 0
M  V30 10 H 11.126295 10.250137 -5.155144 0
M  V30 11 H 11.881926 8.744930 -4.606467 0
M  V30 12 H 13.262503 8.902567 -9.078436 0
M  V30 13 H 9.805519 6.837715 -10.125896 0
M  V30 14 H 8.860159 7.157187 -7.809150 0
M  V30 END ATOM
M  V30 BEGIN BOND
M  V30 1 1 2 1
M  V30 2 1 3 2
M  V30 3 2 4 3
M  V30 4 1 5 4
M  V30 5 2 6 5
M  V30 6 1 7 6
M  V30 7 1 8 3
M  V30 8 2 8 7
M  V30 9 1 9 1
M  V30 10 1 9 4
M  V30 11 1 10 1
M  V30 12 1 11 1
M  V30 13 1 12 5
M  V30 14 1 13 7
M  V30 15 1 14 8
M  V30 END BOND
M  V30 END CTAB
M  END
>  <i_epik_Tot_Q>  (1) 
0

>  <i_epik_Tot_abs_Q>  (1) 
0

>  <i_i_glide_confnum>  (1) 
1

>  <i_i_glide_lignum>  (1) 
49

>  <i_i_glide_posenum>  (1) 
113

>  <i_i_glide_rotatable_bonds>  (1) 
0

>  <i_lp_mmshare_version>  (1) 
72125

>  <i_m_source_file_index>  (1) 
45

>  <i_f3d_flags>  (1) 
0

>  <num_sample>  (1) 
50

>  <b_lp_Chiralities_Consistent>  (1) 
1

>  <r_epik_Charging_Adjusted_Penalty>  (1) 
0.069790075728531922

>  <r_epik_Ionization_Penalty>  (1) 
0.069790075728531936

>  <r_epik_Ionization_Penalty_Charging>  (1) 
0

>  <r_epik_Ionization_Penalty_Neutral>  (1) 
0.069790075728531936

>  <r_epik_State_Penalty>  (1) 
0.069790075728531922

>  <r_glide_ring_energy>  (1) 
0

>  <r_i_docking_score>  (1) 
-5.0021384162026017

>  <r_i_glide_ecoul>  (1) 
-1.3745834675724282

>  <r_i_glide_eff_state_penalty>  (1) 
0.069790075728531922

>  <r_i_glide_einternal>  (1) 
0

>  <r_i_glide_emodel>  (1) 
-26.457197681080373

>  <r_i_glide_emodel_strain>  (1) 
0

>  <r_i_glide_energy>  (1) 
-19.843901679406308

>  <r_i_glide_erotb>  (1) 
0

>  <r_i_glide_esite>  (1) 
0

>  <r_i_glide_evdw>  (1) 
-18.46931821183388

>  <r_i_glide_gscore>  (1) 
-5.0719284919311338

>  <r_i_glide_gscore_strain>  (1) 
0

>  <r_i_glide_hbond>  (1) 
0

>  <r_i_glide_ligand_efficiency>  (1) 
-0.55579315735584467

>  <r_i_glide_ligand_efficiency_ln>  (1) 
-1.5645251984050972

>  <r_i_glide_ligand_efficiency_sa>  (1) 
-1.1560963555788339

>  <r_i_glide_lipo>  (1) 
-0.71727506120357509

>  <r_i_glide_metal>  (1) 
-0

>  <r_i_glide_rewards>  (1) 
-3.2250000000000001

>  <r_lp_Energy>  (1) 
21.238785

>  <r_lp_tautomer_probability>  (1) 
1

>  <s_epik_Chemistry_Notes>  (1) 
This compound contains an acetal/aminal-like group ( X-CH(R)-Y where X, Y are N, S, or O) that may be acid/base labile, releasing an aldehyde.

>  <s_epik_cmdline>  (1) 
J2VwaWtfcHl0aG9uJywgJy1waHQnLCAnMS4wJywgJy1waCcsICc3LjQnLCAnLXRuJywgJzgnLCAnLW1hJywgJzUwMCcsICctaW1hZScsICc8aW5maWxlLm1hZT4nLCAnLW9tYWUnLCAnPG91dGZpbGUubWFlPic=

>  <s_epik_input>  (1) 
TzFbQ0gyXU9jKGMxMilbY0hdbltjSF1bY0hdMg==

>  <s_glide_docking_method>  (1) 
confgen

>  <s_i_glide_gridfile>  (1) 
gpcr_drd2_6luq_protein_autoprepared_prepared

>  <s_lp_Force_Field>  (1) 
S-OPLS

>  <s_lp_Variant>  (1) 
Pocket2Mol_44_num_sample_50-1

>  <s_m_source_file>  (1) 
generated__ligand_Pocket2Mol_2026-05-06_prepared.sdf

>  <GenAI_Model>  (1) 
Pocket2Mol

>  <Protein>  (1) 
generic_title2

$$$$
Pocket2Mol_13_num_sample_50
     RDKit          3D

  0  0  0  0  0  0  0  0  0  0999 V3000
M  V30 BEGIN CTAB
M  V30 COUNTS 17 17 0 0 1
M  V30 BEGIN ATOM
M  V30 1 C 10.295159 7.689063 -6.688556 0
M  V30 2 O 11.287640 8.704867 -6.589899 0
M  V30 3 C 12.304073 8.569302 -7.576903 0
M  V30 4 C 11.717601 8.739100 -8.985726 0 CFG=1
M  V30 5 O 12.734176 8.569305 -9.952311 0
M  V30 6 C 9.598051 7.775268 -8.052298 0
M  V30 7 C 10.608666 7.703614 -9.203767 0
M  V30 8 H 10.746428 6.706133 -6.542589 0
M  V30 9 H 9.564582 7.825350 -5.891666 0
M  V30 10 H 12.773225 7.589133 -7.491665 0
M  V30 11 H 13.080767 9.307159 -7.379577 0
M  V30 12 H 11.312416 9.745129 -9.091943 0
M  V30 13 H 13.339266 9.300801 -9.891668 0
M  V30 14 H 8.868655 6.969394 -8.146749 0
M  V30 15 H 9.034952 8.707651 -8.114957 0
M  V30 16 H 10.107217 7.867980 -10.158234 0
M  V30 17 H 11.034888 6.700680 -9.239462 0
M  V30 END ATOM
M  V30 BEGIN BOND
M  V30 1 1 2 1
M  V30 2 1 3 2
M  V30 3 1 4 3
M  V30 4 1 5 4
M  V30 5 1 6 1
M  V30 6 1 7 4
M  V30 7 1 7 6
M  V30 8 1 8 1
M  V30 9 1 9 1
M  V30 10 1 10 3
M  V30 11 1 11 3
M  V30 12 1 4 12 CFG=1
M  V30 13 1 13 5
M  V30 14 1 14 6
M  V30 15 1 15 6
M  V30 16 1 16 7
M  V30 17 1 17 7
M  V30 END BOND
M  V30 END CTAB
M  END
>  <i_epik_Tot_Q>  (1) 
0

>  <i_epik_Tot_abs_Q>  (1) 
0

>  <i_i_glide_confnum>  (1) 
1

>  <i_i_glide_lignum>  (1) 
16

>  <i_i_glide_posenum>  (1) 
365

>  <i_i_glide_rotatable_bonds>  (1) 
1

>  <i_lp_mmshare_version>  (1) 
72125

>  <i_m_source_file_index>  (1) 
14

>  <i_f3d_flags>  (1) 
0

>  <num_sample>  (1) 
50

>  <b_lp_Chiralities_Consistent>  (1) 
1

>  <r_epik_Charging_Adjusted_Penalty>  (1) 
0

>  <r_epik_Ionization_Penalty>  (1) 
4.2263924331700322e-08

>  <r_epik_Ionization_Penalty_Charging>  (1) 
0

>  <r_epik_Ionization_Penalty_Neutral>  (1) 
4.2263924331700322e-08

>  <r_epik_State_Penalty>  (1) 
-0

>  <r_glide_ring_energy>  (1) 
0

>  <r_i_docking_score>  (1) 
-5.0017157551171296

>  <r_i_glide_ecoul>  (1) 
-4.1585107057608885

>  <r_i_glide_eff_state_penalty>  (1) 
-0

>  <r_i_glide_einternal>  (1) 
0.35851588547921898

>  <r_i_glide_emodel>  (1) 
-24.258709019918868

>  <r_i_glide_emodel_strain>  (1) 
0

>  <r_i_glide_energy>  (1) 
-17.810585946397374

>  <r_i_glide_erotb>  (1) 
0

>  <r_i_glide_esite>  (1) 
0

>  <r_i_glide_evdw>  (1) 
-13.652075240636485

>  <r_i_glide_gscore>  (1) 
-5.0017157551171296

>  <r_i_glide_gscore_strain>  (1) 
0

>  <r_i_glide_hbond>  (1) 
-0.32000000000000001

>  <r_i_glide_ligand_efficiency>  (1) 
-0.71453082215958996

>  <r_i_glide_ligand_efficiency_ln>  (1) 
-1.69785074969821

>  <r_i_glide_ligand_efficiency_sa>  (1) 
-1.3668482907610722

>  <r_i_glide_lipo>  (1) 
-0.70033538722117228

>  <r_i_glide_metal>  (1) 
-0

>  <r_i_glide_rewards>  (1) 
-2.6749999999999998

>  <r_lp_Energy>  (1) 
6.7642049999999996

>  <r_lp_tautomer_probability>  (1) 
1

>  <s_epik_cmdline>  (1) 
J2VwaWtfcHl0aG9uJywgJy1waHQnLCAnMS4wJywgJy1waCcsICc3LjQnLCAnLXRuJywgJzgnLCAnLW1hJywgJzUwMCcsICctaW1hZScsICc8aW5maWxlLm1hZT4nLCAnLW9tYWUnLCAnPG91dGZpbGUubWFlPic=

>  <s_epik_input>  (1) 
W0NIMl0xW0NIMl1bQ0gyXU9bQ0gyXVtDQEhdMVtPSF0=

>  <s_glide_docking_method>  (1) 
confgen

>  <s_i_glide_gridfile>  (1) 
gpcr_drd2_6luq_protein_autoprepared_prepared

>  <s_lp_Force_Field>  (1) 
S-OPLS

>  <s_lp_Variant>  (1) 
Pocket2Mol_13_num_sample_50-1

>  <s_m_source_file>  (1) 
generated__ligand_Pocket2Mol_2026-05-06_prepared.sdf

>  <GenAI_Model>  (1) 
Pocket2Mol

>  <Protein>  (1) 
generic_title2

$$$$
Pocket2Mol_23_num_sample_50
     RDKit          3D

  0  0  0  0  0  0  0  0  0  0999 V3000
M  V30 BEGIN CTAB
M  V30 COUNTS 15 16 0 0 1
M  V30 BEGIN ATOM
M  V30 1 C 10.811154 7.137836 -5.958609 0
M  V30 2 O 10.616403 6.298437 -7.093005 0
M  V30 3 C 9.642155 6.890355 -7.947188 0 CFG=2
M  V30 4 C 10.239531 7.841535 -8.945136 0 CFG=1
M  V30 5 O 9.435080 8.022578 -10.093330 0
M  V30 6 C 10.541060 8.567472 -6.442827 0
M  V30 7 C 9.674931 8.367883 -7.644213 0 CFG=2
M  V30 8 H 10.074307 6.858107 -5.208986 0
M  V30 9 H 11.803166 7.015033 -5.529449 0
M  V30 10 H 8.678389 6.393009 -8.062829 0
M  V30 11 H 11.312005 7.845808 -9.124740 0
M  V30 12 H 8.492129 7.872951 -9.891581 0
M  V30 13 H 10.056796 9.191878 -5.694751 0
M  V30 14 H 11.460579 9.063558 -6.747377 0
M  V30 15 H 8.733396 8.915909 -7.668262 0
M  V30 END ATOM
M  V30 BEGIN BOND
M  V30 1 1 2 1
M  V30 2 1 3 2
M  V30 3 1 4 3
M  V30 4 1 5 4
M  V30 5 1 6 1
M  V30 6 1 7 3
M  V30 7 1 7 4
M  V30 8 1 7 6
M  V30 9 1 8 1
M  V30 10 1 9 1
M  V30 11 1 3 10 CFG=3
M  V30 12 1 4 11 CFG=3
M  V30 13 1 12 5
M  V30 14 1 13 6
M  V30 15 1 14 6
M  V30 16 1 7 15 CFG=3
M  V30 END BOND
M  V30 END CTAB
M  END
>  <i_epik_Tot_Q>  (1) 
0

>  <i_epik_Tot_abs_Q>  (1) 
0

>  <i_i_glide_confnum>  (1) 
2

>  <i_i_glide_lignum>  (1) 
27

>  <i_i_glide_posenum>  (1) 
181

>  <i_i_glide_rotatable_bonds>  (1) 
1

>  <i_lp_mmshare_version>  (1) 
72125

>  <i_m_source_file_index>  (1) 
24

>  <i_f3d_flags>  (1) 
0

>  <num_sample>  (1) 
50

>  <b_lp_Chiralities_Consistent>  (1) 
1

>  <r_epik_Charging_Adjusted_Penalty>  (1) 
0

>  <r_epik_Ionization_Penalty>  (1) 
4.3639151522347116e-08

>  <r_epik_Ionization_Penalty_Charging>  (1) 
0

>  <r_epik_Ionization_Penalty_Neutral>  (1) 
4.3639151522347116e-08

>  <r_epik_State_Penalty>  (1) 
-0

>  <r_glide_ring_energy>  (1) 
1.4390763670009823

>  <r_i_docking_score>  (1) 
-4.9929497786490025

>  <r_i_glide_ecoul>  (1) 
-6.8500111967389881

>  <r_i_glide_eff_state_penalty>  (1) 
-0

>  <r_i_glide_einternal>  (1) 
0.00086000608865283157

>  <r_i_glide_emodel>  (1) 
-26.498132685702945

>  <r_i_glide_emodel_strain>  (1) 
0

>  <r_i_glide_energy>  (1) 
-19.70297477311518

>  <r_i_glide_erotb>  (1) 
0

>  <r_i_glide_esite>  (1) 
0

>  <r_i_glide_evdw>  (1) 
-12.852963576376192

>  <r_i_glide_gscore>  (1) 
-4.9929497786490025

>  <r_i_glide_gscore_strain>  (1) 
0

>  <r_i_glide_hbond>  (1) 
-0.16

>  <r_i_glide_ligand_efficiency>  (1) 
-0.7132785398070004

>  <r_i_glide_ligand_efficiency_ln>  (1) 
-1.6948751068494496

>  <r_i_glide_ligand_efficiency_sa>  (1) 
-1.3644527607991679

>  <r_i_glide_lipo>  (1) 
-0.54499973712349181

>  <r_i_glide_metal>  (1) 
-0

>  <r_i_glide_rewards>  (1) 
-2.6178001831958522

>  <r_lp_Energy>  (1) 
3.2309049999999999

>  <r_lp_tautomer_probability>  (1) 
1

>  <s_epik_cmdline>  (1) 
J2VwaWtfcHl0aG9uJywgJy1waHQnLCAnMS4wJywgJy1waCcsICc3LjQnLCAnLXRuJywgJzgnLCAnLW1hJywgJzUwMCcsICctaW1hZScsICc8aW5maWxlLm1hZT4nLCAnLW9tYWUnLCAnPG91dGZpbGUubWFlPic=

>  <s_epik_input>  (1) 
TzFbQ0gyXVtDSDJdW0NIXShbQ0BIXTEyKVtDQEBIXTJbT0hd

>  <s_glide_docking_method>  (1) 
confgen

>  <s_i_glide_gridfile>  (1) 
gpcr_drd2_6luq_protein_autoprepared_prepared

>  <s_lp_Force_Field>  (1) 
S-OPLS

>  <s_lp_Variant>  (1) 
Pocket2Mol_23_num_sample_50-1

>  <s_m_source_file>  (1) 
generated__ligand_Pocket2Mol_2026-05-06_prepared.sdf

>  <GenAI_Model>  (1) 
Pocket2Mol

>  <Protein>  (1) 
generic_title2

$$$$
Pocket2Mol_27_num_sample_50
     RDKit          3D

  0  0  0  0  0  0  0  0  0  0999 V3000
M  V30 BEGIN CTAB
M  V30 COUNTS 13 13 0 0 1
M  V30 BEGIN ATOM
M  V30 1 N 11.854630 6.599932 -2.983461 0
M  V30 2 C 11.431916 6.569302 -4.298706 0
M  V30 3 C 11.396996 7.659068 -5.091615 0
M  V30 4 C 12.274421 7.803318 -2.441418 0
M  V30 5 O 10.980028 7.618231 -6.364514 0
M  V30 6 C 11.834841 8.974241 -4.544750 0
M  V30 7 O 11.820535 10.002763 -5.219696 0
M  V30 8 C 12.289770 8.966525 -3.128024 0
M  V30 9 H 11.124447 5.594640 -4.639586 0
M  V30 10 H 12.593045 7.735575 -1.413270 0
M  V30 11 H 10.697874 6.735346 -6.547969 0
M  V30 12 H 12.623172 9.887529 -2.676330 0
M  V30 13 H 11.853051 5.755003 -2.424409 0
M  V30 END ATOM
M  V30 BEGIN BOND
M  V30 1 1 2 1
M  V30 2 2 3 2
M  V30 3 1 4 1
M  V30 4 1 5 3
M  V30 5 1 6 3
M  V30 6 2 7 6
M  V30 7 2 8 4
M  V30 8 1 8 6
M  V30 9 1 9 2
M  V30 10 1 10 4
M  V30 11 1 11 5
M  V30 12 1 12 8
M  V30 13 1 13 1
M  V30 END BOND
M  V30 END CTAB
M  END
>  <i_epik_Tot_Q>  (1) 
0

>  <i_epik_Tot_abs_Q>  (1) 
0

>  <i_i_glide_confnum>  (1) 
1

>  <i_i_glide_lignum>  (1) 
31

>  <i_i_glide_posenum>  (1) 
300

>  <i_i_glide_rotatable_bonds>  (1) 
1

>  <i_lp_mmshare_version>  (1) 
72125

>  <i_m_source_file_index>  (1) 
28

>  <i_f3d_flags>  (1) 
0

>  <num_sample>  (1) 
50

>  <b_lp_Chiralities_Consistent>  (1) 
1

>  <r_epik_Charging_Adjusted_Penalty>  (1) 
0.000203171374695584

>  <r_epik_Ionization_Penalty>  (1) 
0.014901896624084464

>  <r_epik_Ionization_Penalty_Charging>  (1) 
0.000203171374695584

>  <r_epik_Ionization_Penalty_Neutral>  (1) 
0.01469872524938888

>  <r_epik_State_Penalty>  (1) 
-0

>  <r_glide_ring_energy>  (1) 
0

>  <r_i_docking_score>  (1) 
-4.9796108896623927

>  <r_i_glide_ecoul>  (1) 
-2.5367049506896104

>  <r_i_glide_eff_state_penalty>  (1) 
-0

>  <r_i_glide_einternal>  (1) 
0.017438576111296067

>  <r_i_glide_emodel>  (1) 
-28.62321583175817

>  <r_i_glide_emodel_strain>  (1) 
0

>  <r_i_glide_energy>  (1) 
-21.180622302849393

>  <r_i_glide_erotb>  (1) 
0

>  <r_i_glide_esite>  (1) 
0

>  <r_i_glide_evdw>  (1) 
-18.643917352159782

>  <r_i_glide_gscore>  (1) 
-4.9796108896623927

>  <r_i_glide_gscore_strain>  (1) 
0

>  <r_i_glide_hbond>  (1) 
0

>  <r_i_glide_ligand_efficiency>  (1) 
-0.62245136120779909

>  <r_i_glide_ligand_efficiency_ln>  (1) 
-1.617049982038631

>  <r_i_glide_ligand_efficiency_sa>  (1) 
-1.2449027224155984

>  <r_i_glide_lipo>  (1) 
-1.4169092794509621

>  <r_i_glide_metal>  (1) 
-0

>  <r_i_glide_rewards>  (1) 
-2.25

>  <r_lp_Energy>  (1) 
11.500328

>  <r_lp_tautomer_probability>  (1) 
1

>  <s_epik_cmdline>  (1) 
J2VwaWtfcHl0aG9uJywgJy1waHQnLCAnMS4wJywgJy1waCcsICc3LjQnLCAnLXRuJywgJzgnLCAnLW1hJywgJzUwMCcsICctaW1hZScsICc8aW5maWxlLm1hZT4nLCAnLW9tYWUnLCAnPG91dGZpbGUubWFlPic=

>  <s_epik_input>  (1) 
W09IXWMxW2NIXW5bY0hdW2NIXWMxW09IXQ==

>  <s_glide_docking_method>  (1) 
confgen

>  <s_i_glide_gridfile>  (1) 
gpcr_drd2_6luq_protein_autoprepared_prepared

>  <s_lp_Force_Field>  (1) 
S-OPLS

>  <s_lp_Variant>  (1) 
Pocket2Mol_27_num_sample_50-1

>  <s_m_source_file>  (1) 
generated__ligand_Pocket2Mol_2026-05-06_prepared.sdf

>  <GenAI_Model>  (1) 
Pocket2Mol

>  <Protein>  (1) 
generic_title2

$$$$
Pocket2Mol_34_num_sample_50
     RDKit          3D

  0  0  0  0  0  0  0  0  0  0999 V3000
M  V30 BEGIN CTAB
M  V30 COUNTS 16 17 0 0 1
M  V30 BEGIN ATOM
M  V30 1 C 11.075820 8.870786 -6.564107 0
M  V30 2 O 10.988344 7.477602 -6.075340 0
M  V30 3 C 11.434839 7.614364 -4.810177 0
M  V30 4 C 11.834839 8.838403 -4.450997 0
M  V30 5 C 12.311713 9.075414 -3.150635 0
M  V30 6 N 12.393138 8.095637 -2.211155 0
M  V30 7 C 11.978196 6.853992 -2.596794 0
M  V30 8 C 11.488416 6.569301 -3.891670 0
M  V30 9 C 11.732710 9.860798 -5.491666 0
M  V30 10 H 11.633960 8.894814 -7.500585 0
M  V30 11 H 10.062595 9.201335 -6.794700 0
M  V30 12 H 12.634796 10.060061 -2.851800 0
M  V30 13 H 12.038434 6.074373 -1.851817 0
M  V30 14 H 11.166197 5.577206 -4.161328 0
M  V30 15 H 11.081853 10.687417 -5.204772 0
M  V30 16 H 12.716950 10.212919 -5.799673 0
M  V30 END ATOM
M  V30 BEGIN BOND
M  V30 1 1 2 1
M  V30 2 1 3 2
M  V30 3 2 4 3
M  V30 4 1 5 4
M  V30 5 2 6 5
M  V30 6 1 7 6
M  V30 7 1 8 3
M  V30 8 2 8 7
M  V30 9 1 9 1
M  V30 10 1 9 4
M  V30 11 1 10 1
M  V30 12 1 11 1
M  V30 13 1 12 5
M  V30 14 1 13 7
M  V30 15 1 14 8
M  V30 16 1 15 9
M  V30 17 1 16 9
M  V30 END BOND
M  V30 END CTAB
M  END
>  <i_epik_Tot_Q>  (1) 
0

>  <i_epik_Tot_abs_Q>  (1) 
0

>  <i_i_glide_confnum>  (1) 
1

>  <i_i_glide_lignum>  (1) 
39

>  <i_i_glide_posenum>  (1) 
76

>  <i_i_glide_rotatable_bonds>  (1) 
0

>  <i_lp_mmshare_version>  (1) 
72125

>  <i_m_source_file_index>  (1) 
35

>  <i_f3d_flags>  (1) 
0

>  <num_sample>  (1) 
50

>  <b_lp_Chiralities_Consistent>  (1) 
1

>  <r_epik_Charging_Adjusted_Penalty>  (1) 
0.44367302241175416

>  <r_epik_Ionization_Penalty>  (1) 
0.4436730224117541

>  <r_epik_Ionization_Penalty_Charging>  (1) 
0

>  <r_epik_Ionization_Penalty_Neutral>  (1) 
0.4436730224117541

>  <r_epik_State_Penalty>  (1) 
0.44367302241175416

>  <r_glide_ring_energy>  (1) 
0

>  <r_i_docking_score>  (1) 
-4.9787752646136738

>  <r_i_glide_ecoul>  (1) 
-0.21394321033648234

>  <r_i_glide_eff_state_penalty>  (1) 
0.44367302241175416

>  <r_i_glide_einternal>  (1) 
0

>  <r_i_glide_emodel>  (1) 
-27.260580372873918

>  <r_i_glide_emodel_strain>  (1) 
0

>  <r_i_glide_energy>  (1) 
-19.98691170213564

>  <r_i_glide_erotb>  (1) 
0

>  <r_i_glide_esite>  (1) 
0

>  <r_i_glide_evdw>  (1) 
-19.772968491799158

>  <r_i_glide_gscore>  (1) 
-5.4224482870254276

>  <r_i_glide_gscore_strain>  (1) 
0

>  <r_i_glide_hbond>  (1) 
0

>  <r_i_glide_ligand_efficiency>  (1) 
-0.55319725162374156

>  <r_i_glide_ligand_efficiency_ln>  (1) 
-1.5572178757495228

>  <r_i_glide_ligand_efficiency_sa>  (1) 
-1.1506966540593186

>  <r_i_glide_lipo>  (1) 
-1.8600417142183305

>  <r_i_glide_metal>  (1) 
-0

>  <r_i_glide_rewards>  (1) 
-2.5416666666666665

>  <r_lp_Energy>  (1) 
12.810587999999999

>  <s_epik_cmdline>  (1) 
J2VwaWtfcHl0aG9uJywgJy1waHQnLCAnMS4wJywgJy1waCcsICc3LjQnLCAnLXRuJywgJzgnLCAnLW1hJywgJzUwMCcsICctaW1hZScsICc8aW5maWxlLm1hZT4nLCAnLW9tYWUnLCAnPG91dGZpbGUubWFlPic=

>  <s_epik_input>  (1) 
TzFbQ0gyXVtDSDJdYyhjMTIpW2NIXW5bY0hdW2NIXTI=

>  <s_glide_docking_method>  (1) 
confgen

>  <s_i_glide_gridfile>  (1) 
gpcr_drd2_6luq_protein_autoprepared_prepared

>  <s_lp_Force_Field>  (1) 
S-OPLS

>  <s_lp_Variant>  (1) 
Pocket2Mol_34_num_sample_50-2

>  <s_m_source_file>  (1) 
generated__ligand_Pocket2Mol_2026-05-06_prepared.sdf

>  <GenAI_Model>  (1) 
Pocket2Mol

>  <Protein>  (1) 
generic_title2

$$$$
Pocket2Mol_17_num_sample_50
     RDKit          3D

  0  0  0  0  0  0  0  0  0  0999 V3000
M  V30 BEGIN CTAB
M  V30 COUNTS 15 15 0 0 1
M  V30 BEGIN ATOM
M  V30 1 C 11.834839 6.699525 -3.559642 0
M  V30 2 O 11.688577 6.598010 -4.921259 0
M  V30 3 C 10.815428 7.522158 -5.560885 0
M  V30 4 C 11.374313 8.945494 -5.702152 0
M  V30 5 O 11.434858 9.605199 -4.451483 0
M  V30 6 C 12.496201 9.145085 -3.633988 0
M  V30 7 C 12.198900 7.836760 -2.936244 0
M  V30 8 H 11.627447 5.769625 -3.054822 0
M  V30 9 H 9.834873 7.524186 -5.091703 0
M  V30 10 H 10.644957 7.128598 -6.563123 0
M  V30 11 H 10.689807 9.520686 -6.325374 0
M  V30 12 H 12.337542 8.969288 -6.213041 0
M  V30 13 H 12.634853 9.884999 -2.847771 0
M  V30 14 H 13.434849 9.089258 -4.183562 0
M  V30 15 H 12.296480 7.838346 -1.860731 0
M  V30 END ATOM
M  V30 BEGIN BOND
M  V30 1 1 2 1
M  V30 2 1 3 2
M  V30 3 1 4 3
M  V30 4 1 5 4
M  V30 5 1 6 5
M  V30 6 2 7 1
M  V30 7 1 7 6
M  V30 8 1 8 1
M  V30 9 1 9 3
M  V30 10 1 10 3
M  V30 11 1 11 4
M  V30 12 1 12 4
M  V30 13 1 13 6
M  V30 14 1 14 6
M  V30 15 1 15 7
M  V30 END BOND
M  V30 END CTAB
M  END
>  <i_epik_Tot_Q>  (1) 
0

>  <i_epik_Tot_abs_Q>  (1) 
0

>  <i_i_glide_confnum>  (1) 
2

>  <i_i_glide_lignum>  (1) 
20

>  <i_i_glide_posenum>  (1) 
135

>  <i_i_glide_rotatable_bonds>  (1) 
0

>  <i_lp_mmshare_version>  (1) 
72125

>  <i_m_source_file_index>  (1) 
18

>  <i_f3d_flags>  (1) 
0

>  <num_sample>  (1) 
50

>  <b_lp_Chiralities_Consistent>  (1) 
1

>  <r_epik_Charging_Adjusted_Penalty>  (1) 
0

>  <r_epik_Ionization_Penalty>  (1) 
5.6701613537443791e-14

>  <r_epik_Ionization_Penalty_Charging>  (1) 
0

>  <r_epik_Ionization_Penalty_Neutral>  (1) 
5.6701613537443791e-14

>  <r_epik_State_Penalty>  (1) 
-0

>  <r_glide_ring_energy>  (1) 
0.00079047383587571227

>  <r_i_docking_score>  (1) 
-4.9746387659777351

>  <r_i_glide_ecoul>  (1) 
-0.84394823044080458

>  <r_i_glide_eff_state_penalty>  (1) 
-0

>  <r_i_glide_einternal>  (1) 
0

>  <r_i_glide_emodel>  (1) 
-21.353293575874588

>  <r_i_glide_emodel_strain>  (1) 
0

>  <r_i_glide_energy>  (1) 
-16.166063946665865

>  <r_i_glide_erotb>  (1) 
0

>  <r_i_glide_esite>  (1) 
0

>  <r_i_glide_evdw>  (1) 
-15.322115716225062

>  <r_i_glide_gscore>  (1) 
-4.9746387659777351

>  <r_i_glide_gscore_strain>  (1) 
0

>  <r_i_glide_hbond>  (1) 
0

>  <r_i_glide_ligand_efficiency>  (1) 
-0.71066268085396211

>  <r_i_glide_ligand_efficiency_ln>  (1) 
-1.6886593664687937

>  <r_i_glide_ligand_efficiency_sa>  (1) 
-1.3594488026381668

>  <r_i_glide_lipo>  (1) 
-1.4029994486538944

>  <r_i_glide_metal>  (1) 
-0

>  <r_i_glide_rewards>  (1) 
-2.6789412969464674

>  <r_lp_Energy>  (1) 
7.3473319999999998

>  <r_lp_tautomer_probability>  (1) 
1

>  <s_epik_cmdline>  (1) 
J2VwaWtfcHl0aG9uJywgJy1waHQnLCAnMS4wJywgJy1waCcsICc3LjQnLCAnLXRuJywgJzgnLCAnLW1hJywgJzUwMCcsICctaW1hZScsICc8aW5maWxlLm1hZT4nLCAnLW9tYWUnLCAnPG91dGZpbGUubWFlPic=

>  <s_epik_input>  (1) 
W0NIXTE9W0NIXVtDSDJdT1tDSDJdW0NIMl1PMQ==

>  <s_glide_docking_method>  (1) 
confgen

>  <s_i_glide_gridfile>  (1) 
gpcr_drd2_6luq_protein_autoprepared_prepared

>  <s_lp_Force_Field>  (1) 
S-OPLS

>  <s_lp_Variant>  (1) 
Pocket2Mol_17_num_sample_50-1

>  <s_m_source_file>  (1) 
generated__ligand_Pocket2Mol_2026-05-06_prepared.sdf

>  <GenAI_Model>  (1) 
Pocket2Mol

>  <Protein>  (1) 
generic_title2

$$$$
Pocket2Mol_30_num_sample_50
     RDKit          3D

  0  0  0  0  0  0  0  0  0  0999 V3000
M  V30 BEGIN CTAB
M  V30 COUNTS 20 21 0 0 1
M  V30 BEGIN ATOM
M  V30 1 C 12.134574 9.522662 -6.201540 0
M  V30 2 O 10.752782 9.350827 -5.899620 0
M  V30 3 C 10.289313 8.082277 -6.369085 0 CFG=2
M  V30 4 C 8.818212 8.169006 -6.712549 0
M  V30 5 C 10.807278 6.904879 -5.523513 0
M  V30 6 C 12.363290 8.729347 -7.491658 0
M  V30 7 C 11.434833 6.329177 -6.793233 0
M  V30 8 C 11.271128 7.696782 -7.472783 0 CFG=1
M  V30 9 H 12.388672 10.578346 -6.291667 0
M  V30 10 H 12.719414 9.117137 -5.377201 0
M  V30 11 H 8.424075 7.181775 -6.951379 0
M  V30 12 H 8.646453 8.813966 -7.574346 0
M  V30 13 H 8.234839 8.569303 -5.891669 0
M  V30 14 H 11.541761 7.186644 -4.768986 0
M  V30 15 H 10.024465 6.276684 -5.096783 0
M  V30 16 H 12.234573 9.369303 -8.363492 0
M  V30 17 H 13.362396 8.301818 -7.549968 0
M  V30 18 H 12.459489 5.978483 -6.691637 0
M  V30 19 H 10.806647 5.565995 -7.254943 0
M  V30 20 H 10.784509 7.582464 -8.442900 0
M  V30 END ATOM
M  V30 BEGIN BOND
M  V30 1 1 2 1
M  V30 2 1 3 2
M  V30 3 1 3 4 CFG=3
M  V30 4 1 5 3
M  V30 5 1 6 1
M  V30 6 1 7 5
M  V30 7 1 8 3
M  V30 8 1 8 6
M  V30 9 1 8 7
M  V30 10 1 9 1
M  V30 11 1 10 1
M  V30 12 1 11 4
M  V30 13 1 12 4
M  V30 14 1 13 4
M  V30 15 1 14 5
M  V30 16 1 15 5
M  V30 17 1 16 6
M  V30 18 1 17 6
M  V30 19 1 18 7
M  V30 20 1 19 7
M  V30 21 1 8 20 CFG=3
M  V30 END BOND
M  V30 END CTAB
M  END
>  <i_epik_Tot_Q>  (1) 
0

>  <i_epik_Tot_abs_Q>  (1) 
0

>  <i_i_glide_confnum>  (1) 
1

>  <i_i_glide_lignum>  (1) 
34

>  <i_i_glide_posenum>  (1) 
382

>  <i_i_glide_rotatable_bonds>  (1) 
0

>  <i_lp_mmshare_version>  (1) 
72125

>  <i_m_source_file_index>  (1) 
31

>  <i_f3d_flags>  (1) 
0

>  <num_sample>  (1) 
50

>  <b_lp_Chiralities_Consistent>  (1) 
1

>  <r_epik_Charging_Adjusted_Penalty>  (1) 
0

>  <r_epik_Ionization_Penalty>  (1) 
2.3587344998035955e-11

>  <r_epik_Ionization_Penalty_Charging>  (1) 
0

>  <r_epik_Ionization_Penalty_Neutral>  (1) 
2.3587344998035955e-11

>  <r_epik_State_Penalty>  (1) 
-0

>  <r_glide_ring_energy>  (1) 
0

>  <r_i_docking_score>  (1) 
-4.9745628549197525

>  <r_i_glide_ecoul>  (1) 
-0.86504293416965761

>  <r_i_glide_eff_state_penalty>  (1) 
-0

>  <r_i_glide_einternal>  (1) 
0

>  <r_i_glide_emodel>  (1) 
-19.03971984889721

>  <r_i_glide_emodel_strain>  (1) 
0

>  <r_i_glide_energy>  (1) 
-14.358676717693466

>  <r_i_glide_erotb>  (1) 
0

>  <r_i_glide_esite>  (1) 
0

>  <r_i_glide_evdw>  (1) 
-13.493633783523808

>  <r_i_glide_gscore>  (1) 
-4.9745628549197525

>  <r_i_glide_gscore_strain>  (1) 
0

>  <r_i_glide_hbond>  (1) 
0

>  <r_i_glide_ligand_efficiency>  (1) 
-0.62182035686496906

>  <r_i_glide_ligand_efficiency_ln>  (1) 
-1.6154107124911121

>  <r_i_glide_ligand_efficiency_sa>  (1) 
-1.2436407137299383

>  <r_i_glide_lipo>  (1) 
-1.4698156845223103

>  <r_i_glide_metal>  (1) 
-0

>  <r_i_glide_rewards>  (1) 
-2.7003090410958035

>  <r_lp_Energy>  (1) 
15.613807

>  <r_lp_tautomer_probability>  (1) 
1

>  <s_epik_cmdline>  (1) 
J2VwaWtfcHl0aG9uJywgJy1waHQnLCAnMS4wJywgJy1waCcsICc3LjQnLCAnLXRuJywgJzgnLCAnLW1hJywgJzUwMCcsICctaW1hZScsICc8aW5maWxlLm1hZT4nLCAnLW9tYWUnLCAnPG91dGZpbGUubWFlPic=

>  <s_epik_input>  (1) 
TzFbQ0gyXVtDSDJdW0NASF0oW0NAXTEyW0NIM10pW0NIMl1bQ0gyXTI=

>  <s_glide_docking_method>  (1) 
confgen

>  <s_i_glide_gridfile>  (1) 
gpcr_drd2_6luq_protein_autoprepared_prepared

>  <s_lp_Force_Field>  (1) 
S-OPLS

>  <s_lp_Variant>  (1) 
Pocket2Mol_30_num_sample_50-1

>  <s_m_source_file>  (1) 
generated__ligand_Pocket2Mol_2026-05-06_prepared.sdf

>  <GenAI_Model>  (1) 
Pocket2Mol

>  <Protein>  (1) 
generic_title2

$$$$
Pocket2Mol_39_num_sample_50
     RDKit          3D

  0  0  0  0  0  0  0  0  0  0999 V3000
M  V30 BEGIN CTAB
M  V30 COUNTS 14 14 0 0 1
M  V30 BEGIN ATOM
M  V30 1 C 10.205993 6.619314 -7.929292 0
M  V30 2 O 11.310237 7.354355 -8.426207 0
M  V30 3 C 11.625346 8.487794 -7.720298 0
M  V30 4 C 10.309638 6.526152 -6.411668 0
M  V30 5 O 10.347629 7.821213 -5.846316 0
M  V30 6 C 11.159722 8.737933 -6.470208 0
M  V30 7 C 11.513279 10.025422 -5.689696 0
M  V30 8 O 11.034839 10.122052 -4.538824 0 CHG=-1
M  V30 9 O 12.234858 10.841452 -6.291680 0
M  V30 10 H 10.213580 5.627915 -8.377965 0
M  V30 11 H 9.272062 7.097004 -8.223873 0
M  V30 12 H 12.266653 9.152267 -8.277413 0
M  V30 13 H 11.206123 5.976988 -6.121747 0
M  V30 14 H 9.455517 5.985263 -6.009221 0
M  V30 END ATOM
M  V30 BEGIN BOND
M  V30 1 1 2 1
M  V30 2 1 3 2
M  V30 3 1 4 1
M  V30 4 1 5 4
M  V30 5 2 6 3
M  V30 6 1 6 5
M  V30 7 1 7 6
M  V30 8 1 8 7
M  V30 9 2 9 7
M  V30 10 1 10 1
M  V30 11 1 11 1
M  V30 12 1 12 3
M  V30 13 1 13 4
M  V30 14 1 14 4
M  V30 END BOND
M  V30 END CTAB
M  END
>  <i_epik_Tot_Q>  (1) 
-1

>  <i_epik_Tot_abs_Q>  (1) 
1

>  <i_i_glide_confnum>  (1) 
1

>  <i_i_glide_lignum>  (1) 
44

>  <i_i_glide_posenum>  (1) 
11

>  <i_i_glide_rotatable_bonds>  (1) 
1

>  <i_lp_mmshare_version>  (1) 
72125

>  <i_m_source_file_index>  (1) 
40

>  <i_f3d_flags>  (1) 
0

>  <num_sample>  (1) 
50

>  <b_lp_Chiralities_Consistent>  (1) 
1

>  <r_epik_Charging_Adjusted_Penalty>  (1) 
1.9393830553820406e-05

>  <r_epik_Ionization_Penalty>  (1) 
1.9393830553820406e-05

>  <r_epik_Ionization_Penalty_Charging>  (1) 
1.9393830553820406e-05

>  <r_epik_Ionization_Penalty_Neutral>  (1) 
0

>  <r_epik_State_Penalty>  (1) 
-0

>  <r_glide_ring_energy>  (1) 
0

>  <r_i_docking_score>  (1) 
-4.9724634537282419

>  <r_i_glide_ecoul>  (1) 
-2.3054425865051851

>  <r_i_glide_eff_state_penalty>  (1) 
-0

>  <r_i_glide_einternal>  (1) 
0.26726900200005921

>  <r_i_glide_emodel>  (1) 
-23.930881374682986

>  <r_i_glide_emodel_strain>  (1) 
7.5264727783519447e-10

>  <r_i_glide_energy>  (1) 
-16.8024249249832

>  <r_i_glide_erotb>  (1) 
0

>  <r_i_glide_esite>  (1) 
0

>  <r_i_glide_evdw>  (1) 
-14.496982338478013

>  <r_i_glide_gscore>  (1) 
-4.9724634537282419

>  <r_i_glide_gscore_strain>  (1) 
0

>  <r_i_glide_hbond>  (1) 
0

>  <r_i_glide_ligand_efficiency>  (1) 
-0.55249593930313801

>  <r_i_glide_ligand_efficiency_ln>  (1) 
-1.5552437226261628

>  <r_i_glide_ligand_efficiency_sa>  (1) 
-1.1492378656463242

>  <r_i_glide_lipo>  (1) 
-0.74346461549523035

>  <r_i_glide_metal>  (1) 
-0

>  <r_i_glide_rewards>  (1) 
-3.1583333333333332

>  <r_lp_Energy>  (1) 
18.695968999999998

>  <r_lp_tautomer_probability>  (1) 
1

>  <s_epik_cmdline>  (1) 
J2VwaWtfcHl0aG9uJywgJy1waHQnLCAnMS4wJywgJy1waCcsICc3LjQnLCAnLXRuJywgJzgnLCAnLW1hJywgJzUwMCcsICctaW1hZScsICc8aW5maWxlLm1hZT4nLCAnLW9tYWUnLCAnPG91dGZpbGUubWFlPic=

>  <s_epik_input>  (1) 
TzFbQ0gyXVtDSDJdT1tDSF09QzFDKD1PKVtPSF0=

>  <s_glide_docking_method>  (1) 
confgen

>  <s_i_glide_gridfile>  (1) 
gpcr_drd2_6luq_protein_autoprepared_prepared

>  <s_lp_Force_Field>  (1) 
S-OPLS

>  <s_lp_Variant>  (1) 
Pocket2Mol_39_num_sample_50-1

>  <s_m_source_file>  (1) 
generated__ligand_Pocket2Mol_2026-05-06_prepared.sdf

>  <GenAI_Model>  (1) 
Pocket2Mol

>  <Protein>  (1) 
generic_title2

$$$$
Pocket2Mol_14_num_sample_50
     RDKit          3D

  0  0  0  0  0  0  0  0  0  0999 V3000
M  V30 BEGIN CTAB
M  V30 COUNTS 17 17 0 0 1
M  V30 BEGIN ATOM
M  V30 1 C 11.938502 7.078158 -3.463741 0
M  V30 2 O 11.834839 6.569300 -4.787919 0
M  V30 3 C 12.353948 8.558792 -3.423141 0
M  V30 4 O 11.434839 9.414383 -4.090457 0
M  V30 5 C 10.672947 6.969293 -5.491495 0
M  V30 6 C 11.597760 9.419340 -5.501957 0
M  V30 7 C 10.799211 8.318022 -6.219638 0
M  V30 8 H 11.034839 6.889168 -2.890231 0
M  V30 9 H 12.710417 6.501050 -2.956601 0
M  V30 10 H 12.393488 8.877083 -2.381127 0
M  V30 11 H 13.365039 8.690300 -3.809892 0
M  V30 12 H 10.444730 6.196845 -6.226474 0
M  V30 13 H 9.834839 6.969302 -4.805653 0
M  V30 14 H 12.652614 9.369304 -5.776179 0
M  V30 15 H 11.253771 10.386704 -5.869393 0
M  V30 16 H 11.254048 8.154959 -7.197111 0
M  V30 17 H 9.790662 8.679657 -6.425140 0
M  V30 END ATOM
M  V30 BEGIN BOND
M  V30 1 1 2 1
M  V30 2 1 3 1
M  V30 3 1 4 3
M  V30 4 1 5 2
M  V30 5 1 6 4
M  V30 6 1 7 5
M  V30 7 1 7 6
M  V30 8 1 8 1
M  V30 9 1 9 1
M  V30 10 1 10 3
M  V30 11 1 11 3
M  V30 12 1 12 5
M  V30 13 1 13 5
M  V30 14 1 14 6
M  V30 15 1 15 6
M  V30 16 1 16 7
M  V30 17 1 17 7
M  V30 END BOND
M  V30 END CTAB
M  END
>  <i_epik_Tot_Q>  (1) 
0

>  <i_epik_Tot_abs_Q>  (1) 
0

>  <i_i_glide_confnum>  (1) 
8

>  <i_i_glide_lignum>  (1) 
17

>  <i_i_glide_posenum>  (1) 
295

>  <i_i_glide_rotatable_bonds>  (1) 
0

>  <i_lp_mmshare_version>  (1) 
72125

>  <i_m_source_file_index>  (1) 
15

>  <i_f3d_flags>  (1) 
0

>  <num_sample>  (1) 
50

>  <b_lp_Chiralities_Consistent>  (1) 
1

>  <r_epik_Charging_Adjusted_Penalty>  (1) 
0

>  <r_epik_Ionization_Penalty>  (1) 
3.933197540425548e-12

>  <r_epik_Ionization_Penalty_Charging>  (1) 
0

>  <r_epik_Ionization_Penalty_Neutral>  (1) 
3.933197540425548e-12

>  <r_epik_State_Penalty>  (1) 
-0

>  <r_glide_ring_energy>  (1) 
0.00055159938950669681

>  <r_i_docking_score>  (1) 
-4.9712332722627846

>  <r_i_glide_ecoul>  (1) 
-0.74521818201675816

>  <r_i_glide_eff_state_penalty>  (1) 
-0

>  <r_i_glide_einternal>  (1) 
0

>  <r_i_glide_emodel>  (1) 
-21.37623973273255

>  <r_i_glide_emodel_strain>  (1) 
0

>  <r_i_glide_energy>  (1) 
-15.980792529604059

>  <r_i_glide_erotb>  (1) 
0

>  <r_i_glide_esite>  (1) 
0

>  <r_i_glide_evdw>  (1) 
-15.235574347587301

>  <r_i_glide_gscore>  (1) 
-4.9712332722627846

>  <r_i_glide_gscore_strain>  (1) 
0

>  <r_i_glide_hbond>  (1) 
0

>  <r_i_glide_ligand_efficiency>  (1) 
-0.7101761817518264

>  <r_i_glide_ligand_efficiency_ln>  (1) 
-1.6875033591424864

>  <r_i_glide_ligand_efficiency_sa>  (1) 
-1.3585181633353005

>  <r_i_glide_lipo>  (1) 
-1.4783592553159

>  <r_i_glide_metal>  (1) 
-0

>  <r_i_glide_rewards>  (1) 
-2.6193125722650059

>  <r_lp_Energy>  (1) 
9.641

>  <r_lp_tautomer_probability>  (1) 
1

>  <s_epik_cmdline>  (1) 
J2VwaWtfcHl0aG9uJywgJy1waHQnLCAnMS4wJywgJy1waCcsICc3LjQnLCAnLXRuJywgJzgnLCAnLW1hJywgJzUwMCcsICctaW1hZScsICc8aW5maWxlLm1hZT4nLCAnLW9tYWUnLCAnPG91dGZpbGUubWFlPic=

>  <s_epik_input>  (1) 
W0NIMl0xT1tDSDJdW0NIMl1bQ0gyXU9bQ0gyXTE=

>  <s_glide_docking_method>  (1) 
confgen

>  <s_i_glide_gridfile>  (1) 
gpcr_drd2_6luq_protein_autoprepared_prepared

>  <s_lp_Force_Field>  (1) 
S-OPLS

>  <s_lp_Variant>  (1) 
Pocket2Mol_14_num_sample_50-1

>  <s_m_source_file>  (1) 
generated__ligand_Pocket2Mol_2026-05-06_prepared.sdf

>  <GenAI_Model>  (1) 
Pocket2Mol

>  <Protein>  (1) 
generic_title2

$$$$
Pocket2Mol_12_num_sample_50
     RDKit          3D

  0  0  0  0  0  0  0  0  0  0999 V3000
M  V30 BEGIN CTAB
M  V30 COUNTS 15 15 0 0 1
M  V30 BEGIN ATOM
M  V30 1 N 11.797480 8.148844 -9.745857 0
M  V30 2 C 12.582042 8.547390 -8.687283 0
M  V30 3 C 11.737078 8.800673 -7.613366 0
M  V30 4 C 10.497770 8.144652 -9.371540 0
M  V30 5 C 12.137740 9.267682 -6.242547 0
M  V30 6 N 9.434836 7.794210 -10.204267 0
M  V30 7 C 10.394396 8.530263 -8.079089 0
M  V30 8 H 13.658628 8.619917 -8.786065 0
M  V30 9 H 13.218442 9.388501 -6.178148 0
M  V30 10 H 11.663651 10.224592 -6.019777 0
M  V30 11 H 11.820062 8.538234 -5.497000 0
M  V30 12 H 8.437684 7.778198 -9.891622 0
M  V30 13 H 12.140729 7.900386 -10.660486 0
M  V30 14 H 9.475083 8.618443 -7.522050 0
M  V30 15 H 9.562975 7.503077 -11.159898 0
M  V30 END ATOM
M  V30 BEGIN BOND
M  V30 1 1 2 1
M  V30 2 2 3 2
M  V30 3 1 4 1
M  V30 4 1 5 3
M  V30 5 1 6 4
M  V30 6 1 7 3
M  V30 7 2 7 4
M  V30 8 1 8 2
M  V30 9 1 9 5
M  V30 10 1 10 5
M  V30 11 1 11 5
M  V30 12 1 12 6
M  V30 13 1 13 1
M  V30 14 1 14 7
M  V30 15 1 15 6
M  V30 END BOND
M  V30 END CTAB
M  END
>  <i_epik_Tot_Q>  (1) 
0

>  <i_epik_Tot_abs_Q>  (1) 
0

>  <i_i_glide_confnum>  (1) 
1

>  <i_i_glide_lignum>  (1) 
15

>  <i_i_glide_posenum>  (1) 
389

>  <i_i_glide_rotatable_bonds>  (1) 
0

>  <i_lp_mmshare_version>  (1) 
72125

>  <i_m_source_file_index>  (1) 
13

>  <i_f3d_flags>  (1) 
0

>  <num_sample>  (1) 
50

>  <b_lp_Chiralities_Consistent>  (1) 
1

>  <r_epik_Charging_Adjusted_Penalty>  (1) 
0

>  <r_epik_Ionization_Penalty>  (1) 
0.00031849139131666116

>  <r_epik_Ionization_Penalty_Charging>  (1) 
0

>  <r_epik_Ionization_Penalty_Neutral>  (1) 
0.00031849139131666116

>  <r_epik_State_Penalty>  (1) 
-0

>  <r_glide_ring_energy>  (1) 
0

>  <r_i_docking_score>  (1) 
-4.9706005262338735

>  <r_i_glide_ecoul>  (1) 
-6.1500964906639171

>  <r_i_glide_eff_state_penalty>  (1) 
-0

>  <r_i_glide_einternal>  (1) 
0

>  <r_i_glide_emodel>  (1) 
-23.829959824862208

>  <r_i_glide_emodel_strain>  (1) 
0

>  <r_i_glide_energy>  (1) 
-17.518860534449821

>  <r_i_glide_erotb>  (1) 
0

>  <r_i_glide_esite>  (1) 
-0.10000000000000001

>  <r_i_glide_evdw>  (1) 
-11.368764043785903

>  <r_i_glide_gscore>  (1) 
-4.9706005262338735

>  <r_i_glide_gscore_strain>  (1) 
0

>  <r_i_glide_hbond>  (1) 
-0.16

>  <r_i_glide_ligand_efficiency>  (1) 
-0.71008578946198198

>  <r_i_glide_ligand_efficiency_ln>  (1) 
-1.6872885711832835

>  <r_i_glide_ligand_efficiency_sa>  (1) 
-1.3583452491053749

>  <r_i_glide_lipo>  (1) 
-0.75298118377832346

>  <r_i_glide_metal>  (1) 
-0

>  <r_i_glide_rewards>  (1) 
-2.4666666666666668

>  <r_lp_Energy>  (1) 
-3.18065

>  <r_lp_tautomer_probability>  (1) 
1

>  <s_epik_cmdline>  (1) 
J2VwaWtfcHl0aG9uJywgJy1waHQnLCAnMS4wJywgJy1waCcsICc3LjQnLCAnLXRuJywgJzgnLCAnLW1hJywgJzUwMCcsICctaW1hZScsICc8aW5maWxlLm1hZT4nLCAnLW9tYWUnLCAnPG91dGZpbGUubWFlPic=

>  <s_epik_input>  (1) 
W05IMl1DKFtDSDJdMSk9TltDSF09QzFbQ0gzXQ==

>  <s_glide_docking_method>  (1) 
confgen

>  <s_i_glide_gridfile>  (1) 
gpcr_drd2_6luq_protein_autoprepared_prepared

>  <s_lp_Force_Field>  (1) 
S-OPLS

>  <s_lp_Variant>  (1) 
Pocket2Mol_12_num_sample_50-1

>  <s_m_source_file>  (1) 
generated__ligand_Pocket2Mol_2026-05-06_prepared.sdf

>  <GenAI_Model>  (1) 
Pocket2Mol

>  <Protein>  (1) 
generic_title2

$$$$
Pocket2Mol_41_num_sample_50
     RDKit          3D

  0  0  0  0  0  0  0  0  0  0999 V3000
M  V30 BEGIN CTAB
M  V30 COUNTS 23 24 0 0 1
M  V30 BEGIN ATOM
M  V30 1 C 10.315274 8.508531 -5.998761 0
M  V30 2 O 11.069710 9.007958 -7.086422 0
M  V30 3 C 11.186851 8.003419 -8.082485 0 CFG=2
M  V30 4 C 12.570703 8.169299 -8.722532 0
M  V30 5 C 10.064584 8.097616 -9.129621 0
M  V30 6 C 10.757902 7.059093 -5.889055 0
M  V30 7 C 9.636285 6.651348 -9.371769 0
M  V30 8 C 10.968559 6.668113 -7.342244 0 CFG=1
M  V30 9 C 9.742644 6.008201 -7.995278 0
M  V30 10 H 10.517189 9.080965 -5.093375 0
M  V30 11 H 9.249164 8.572119 -6.227379 0
M  V30 12 H 12.737999 7.417310 -9.492536 0
M  V30 13 H 12.660648 9.148443 -9.192382 0
M  V30 14 H 13.365709 8.082309 -7.982700 0
M  V30 15 H 9.219281 8.659292 -8.728779 0
M  V30 16 H 10.373178 8.594248 -10.048142 0
M  V30 17 H 11.700628 7.002051 -5.345914 0
M  V30 18 H 10.034702 6.433755 -5.364401 0
M  V30 19 H 8.634856 6.569244 -9.790639 0
M  V30 20 H 10.307840 6.169299 -10.075666 0
M  V30 21 H 11.834838 6.017540 -7.428005 0
M  V30 22 H 8.834214 6.233553 -7.433833 0
M  V30 23 H 9.831140 4.925554 -8.053428 0
M  V30 END ATOM
M  V30 BEGIN BOND
M  V30 1 1 2 1
M  V30 2 1 3 2
M  V30 3 1 3 4 CFG=3
M  V30 4 1 5 3
M  V30 5 1 6 1
M  V30 6 1 7 5
M  V30 7 1 8 3
M  V30 8 1 8 6
M  V30 9 1 9 7
M  V30 10 1 9 8
M  V30 11 1 10 1
M  V30 12 1 11 1
M  V30 13 1 12 4
M  V30 14 1 13 4
M  V30 15 1 14 4
M  V30 16 1 15 5
M  V30 17 1 16 5
M  V30 18 1 17 6
M  V30 19 1 18 6
M  V30 20 1 19 7
M  V30 21 1 20 7
M  V30 22 1 8 21 CFG=1
M  V30 23 1 22 9
M  V30 24 1 23 9
M  V30 END BOND
M  V30 END CTAB
M  END
>  <i_epik_Tot_Q>  (1) 
0

>  <i_epik_Tot_abs_Q>  (1) 
0

>  <i_i_glide_confnum>  (1) 
3

>  <i_i_glide_lignum>  (1) 
46

>  <i_i_glide_posenum>  (1) 
330

>  <i_i_glide_rotatable_bonds>  (1) 
0

>  <i_lp_mmshare_version>  (1) 
72125

>  <i_m_source_file_index>  (1) 
42

>  <i_f3d_flags>  (1) 
0

>  <num_sample>  (1) 
50

>  <b_lp_Chiralities_Consistent>  (1) 
1

>  <r_epik_Charging_Adjusted_Penalty>  (1) 
0

>  <r_epik_Ionization_Penalty>  (1) 
2.4347883345708157e-11

>  <r_epik_Ionization_Penalty_Charging>  (1) 
0

>  <r_epik_Ionization_Penalty_Neutral>  (1) 
2.4347883345708157e-11

>  <r_epik_State_Penalty>  (1) 
-0

>  <r_glide_ring_energy>  (1) 
1.1035134730129632

>  <r_i_docking_score>  (1) 
-4.9693219123583265

>  <r_i_glide_ecoul>  (1) 
-0.43217766898218385

>  <r_i_glide_eff_state_penalty>  (1) 
-0

>  <r_i_glide_einternal>  (1) 
0

>  <r_i_glide_emodel>  (1) 
-22.795803213042454

>  <r_i_glide_emodel_strain>  (1) 
0

>  <r_i_glide_energy>  (1) 
-17.535581138103439

>  <r_i_glide_erotb>  (1) 
0

>  <r_i_glide_esite>  (1) 
0

>  <r_i_glide_evdw>  (1) 
-17.103403469121254

>  <r_i_glide_gscore>  (1) 
-4.9693219123583265

>  <r_i_glide_gscore_strain>  (1) 
0

>  <r_i_glide_hbond>  (1) 
0

>  <r_i_glide_ligand_efficiency>  (1) 
-0.5521468791509252

>  <r_i_glide_ligand_efficiency_ln>  (1) 
-1.554261138733813

>  <r_i_glide_ligand_efficiency_sa>  (1) 
-1.1485117912704343

>  <r_i_glide_lipo>  (1) 
-1.087192798410008

>  <r_i_glide_metal>  (1) 
-0

>  <r_i_glide_rewards>  (1) 
-2.9621322901449285

>  <r_lp_Energy>  (1) 
5.4699619999999998

>  <r_lp_tautomer_probability>  (1) 
1

>  <s_epik_cmdline>  (1) 
J2VwaWtfcHl0aG9uJywgJy1waHQnLCAnMS4wJywgJy1waCcsICc3LjQnLCAnLXRuJywgJzgnLCAnLW1hJywgJzUwMCcsICctaW1hZScsICc8aW5maWxlLm1hZT4nLCAnLW9tYWUnLCAnPG91dGZpbGUubWFlPic=

>  <s_epik_input>  (1) 
TzFbQ0gyXVtDSDJdW0NASF0oW0NAXTEyW0NIM10pW0NIMl1bQ0gyXVtDSDJdMg==

>  <s_glide_docking_method>  (1) 
confgen

>  <s_i_glide_gridfile>  (1) 
gpcr_drd2_6luq_protein_autoprepared_prepared

>  <s_lp_Force_Field>  (1) 
S-OPLS

>  <s_lp_Variant>  (1) 
Pocket2Mol_41_num_sample_50-1

>  <s_m_source_file>  (1) 
generated__ligand_Pocket2Mol_2026-05-06_prepared.sdf

>  <GenAI_Model>  (1) 
Pocket2Mol

>  <Protein>  (1) 
generic_title2

$$$$
Pocket2Mol_17_num_sample_50
     RDKit          3D

  0  0  0  0  0  0  0  0  0  0999 V3000
M  V30 BEGIN CTAB
M  V30 COUNTS 15 15 0 0 1
M  V30 BEGIN ATOM
M  V30 1 C 12.234822 8.871190 -3.391333 0
M  V30 2 O 11.434847 9.671244 -4.166043 0
M  V30 3 C 11.551340 9.498098 -5.568581 0
M  V30 4 C 10.728739 8.308589 -6.061895 0
M  V30 5 O 11.434804 7.113286 -5.805408 0
M  V30 6 C 11.410651 6.697030 -4.450436 0
M  V30 7 C 12.259674 7.524839 -3.491667 0
M  V30 8 H 12.836557 9.441551 -2.698427 0
M  V30 9 H 12.595221 9.417720 -5.877494 0
M  V30 10 H 11.165736 10.408652 -6.027488 0
M  V30 11 H 10.606069 8.385175 -7.142491 0
M  V30 12 H 9.727086 8.288622 -5.633722 0
M  V30 13 H 11.834843 5.697559 -4.443023 0
M  V30 14 H 10.392376 6.569288 -4.084198 0
M  V30 15 H 12.916107 6.966182 -2.841007 0
M  V30 END ATOM
M  V30 BEGIN BOND
M  V30 1 1 2 1
M  V30 2 1 3 2
M  V30 3 1 4 3
M  V30 4 1 5 4
M  V30 5 1 6 5
M  V30 6 2 7 1
M  V30 7 1 7 6
M  V30 8 1 8 1
M  V30 9 1 9 3
M  V30 10 1 10 3
M  V30 11 1 11 4
M  V30 12 1 12 4
M  V30 13 1 13 6
M  V30 14 1 14 6
M  V30 15 1 15 7
M  V30 END BOND
M  V30 END CTAB
M  END
>  <i_epik_Tot_Q>  (1) 
0

>  <i_epik_Tot_abs_Q>  (1) 
0

>  <i_i_glide_confnum>  (1) 
2

>  <i_i_glide_lignum>  (1) 
20

>  <i_i_glide_posenum>  (1) 
229

>  <i_i_glide_rotatable_bonds>  (1) 
0

>  <i_lp_mmshare_version>  (1) 
72125

>  <i_m_source_file_index>  (1) 
18

>  <i_f3d_flags>  (1) 
0

>  <num_sample>  (1) 
50

>  <b_lp_Chiralities_Consistent>  (1) 
1

>  <r_epik_Charging_Adjusted_Penalty>  (1) 
0

>  <r_epik_Ionization_Penalty>  (1) 
5.6701613537443791e-14

>  <r_epik_Ionization_Penalty_Charging>  (1) 
0

>  <r_epik_Ionization_Penalty_Neutral>  (1) 
5.6701613537443791e-14

>  <r_epik_State_Penalty>  (1) 
-0

>  <r_glide_ring_energy>  (1) 
0.00079047383587571227

>  <r_i_docking_score>  (1) 
-4.9645161063731278

>  <r_i_glide_ecoul>  (1) 
-0.82947895039336506

>  <r_i_glide_eff_state_penalty>  (1) 
-0

>  <r_i_glide_einternal>  (1) 
0

>  <r_i_glide_emodel>  (1) 
-22.353176613820384

>  <r_i_glide_emodel_strain>  (1) 
5.0220698710745637e-09

>  <r_i_glide_energy>  (1) 
-17.176502240436367

>  <r_i_glide_erotb>  (1) 
0

>  <r_i_glide_esite>  (1) 
0

>  <r_i_glide_evdw>  (1) 
-16.347023290043001

>  <r_i_glide_gscore>  (1) 
-4.9645161063731278

>  <r_i_glide_gscore_strain>  (1) 
0

>  <r_i_glide_hbond>  (1) 
0

>  <r_i_glide_ligand_efficiency>  (1) 
-0.70921658662473253

>  <r_i_glide_ligand_efficiency_ln>  (1) 
-1.6852231925556642

>  <r_i_glide_ligand_efficiency_sa>  (1) 
-1.3566825238938462

>  <r_i_glide_lipo>  (1) 
-1.5291725759975974

>  <r_i_glide_metal>  (1) 
-0

>  <r_i_glide_rewards>  (1) 
-2.4935705233143763

>  <r_lp_Energy>  (1) 
7.3473319999999998

>  <r_lp_tautomer_probability>  (1) 
1

>  <s_epik_cmdline>  (1) 
J2VwaWtfcHl0aG9uJywgJy1waHQnLCAnMS4wJywgJy1waCcsICc3LjQnLCAnLXRuJywgJzgnLCAnLW1hJywgJzUwMCcsICctaW1hZScsICc8aW5maWxlLm1hZT4nLCAnLW9tYWUnLCAnPG91dGZpbGUubWFlPic=

>  <s_epik_input>  (1) 
W0NIXTE9W0NIXVtDSDJdT1tDSDJdW0NIMl1PMQ==

>  <s_glide_docking_method>  (1) 
confgen

>  <s_i_glide_gridfile>  (1) 
gpcr_drd2_6luq_protein_autoprepared_prepared

>  <s_lp_Force_Field>  (1) 
S-OPLS

>  <s_lp_Variant>  (1) 
Pocket2Mol_17_num_sample_50-1

>  <s_m_source_file>  (1) 
generated__ligand_Pocket2Mol_2026-05-06_prepared.sdf

>  <GenAI_Model>  (1) 
Pocket2Mol

>  <Protein>  (1) 
generic_title2

$$$$
Pocket2Mol_33_num_sample_50
     RDKit          3D

  0  0  0  0  0  0  0  0  0  0999 V3000
M  V30 BEGIN CTAB
M  V30 COUNTS 21 22 0 0 1
M  V30 BEGIN ATOM
M  V30 1 C 12.636229 8.368380 -8.931673 0
M  V30 2 O 12.447323 8.373700 -7.523272 0
M  V30 3 C 11.091951 8.052179 -7.216981 0 CFG=2
M  V30 4 C 10.634838 8.969332 -6.075709 0
M  V30 5 C 10.921763 6.574000 -6.869401 0
M  V30 6 C 11.314522 8.850654 -9.491686 0
M  V30 7 C 9.795474 6.126734 -7.794729 0
M  V30 8 C 10.319940 8.219162 -8.536778 0 CFG=1
M  V30 9 O 10.029380 6.893952 -8.958697 0
M  V30 10 H 12.832250 7.369307 -9.289964 0
M  V30 11 H 13.488399 8.969262 -9.229013 0
M  V30 12 H 9.567719 8.843567 -5.892459 0
M  V30 13 H 11.163822 8.736365 -5.151327 0
M  V30 14 H 10.816691 10.021196 -6.291894 0
M  V30 15 H 10.682397 6.393492 -5.820709 0
M  V30 16 H 11.834653 6.022429 -7.091611 0
M  V30 17 H 11.153727 8.556267 -10.528530 0
M  V30 18 H 11.275873 9.936938 -9.438279 0
M  V30 19 H 8.817550 6.376981 -7.378287 0
M  V30 20 H 9.819518 5.057517 -8.005299 0
M  V30 21 H 9.396127 8.790789 -8.432971 0
M  V30 END ATOM
M  V30 BEGIN BOND
M  V30 1 1 2 1
M  V30 2 1 3 2
M  V30 3 1 3 4 CFG=1
M  V30 4 1 5 3
M  V30 5 1 6 1
M  V30 6 1 7 5
M  V30 7 1 8 3
M  V30 8 1 8 6
M  V30 9 1 9 7
M  V30 10 1 9 8
M  V30 11 1 10 1
M  V30 12 1 11 1
M  V30 13 1 12 4
M  V30 14 1 13 4
M  V30 15 1 14 4
M  V30 16 1 15 5
M  V30 17 1 16 5
M  V30 18 1 17 6
M  V30 19 1 18 6
M  V30 20 1 19 7
M  V30 21 1 20 7
M  V30 22 1 8 21 CFG=1
M  V30 END BOND
M  V30 END CTAB
M  END
>  <i_epik_Tot_Q>  (1) 
0

>  <i_epik_Tot_abs_Q>  (1) 
0

>  <i_i_glide_confnum>  (1) 
1

>  <i_i_glide_lignum>  (1) 
37

>  <i_i_glide_posenum>  (1) 
272

>  <i_i_glide_rotatable_bonds>  (1) 
0

>  <i_lp_mmshare_version>  (1) 
72125

>  <i_m_source_file_index>  (1) 
34

>  <i_f3d_flags>  (1) 
0

>  <num_sample>  (1) 
50

>  <b_lp_Chiralities_Consistent>  (1) 
1

>  <r_epik_Charging_Adjusted_Penalty>  (1) 
0

>  <r_epik_Ionization_Penalty>  (1) 
2.529470820146915e-12

>  <r_epik_Ionization_Penalty_Charging>  (1) 
0

>  <r_epik_Ionization_Penalty_Neutral>  (1) 
2.529470820146915e-12

>  <r_epik_State_Penalty>  (1) 
-0

>  <r_glide_ring_energy>  (1) 
0

>  <r_i_docking_score>  (1) 
-4.9622978631393471

>  <r_i_glide_ecoul>  (1) 
-0.10192190360275055

>  <r_i_glide_eff_state_penalty>  (1) 
-0

>  <r_i_glide_einternal>  (1) 
0

>  <r_i_glide_emodel>  (1) 
-23.583885583459303

>  <r_i_glide_emodel_strain>  (1) 
0

>  <r_i_glide_energy>  (1) 
-17.909305226736219

>  <r_i_glide_erotb>  (1) 
0

>  <r_i_glide_esite>  (1) 
0

>  <r_i_glide_evdw>  (1) 
-17.807383323133468

>  <r_i_glide_gscore>  (1) 
-4.9622978631393471

>  <r_i_glide_gscore_strain>  (1) 
0

>  <r_i_glide_hbond>  (1) 
0

>  <r_i_glide_ligand_efficiency>  (1) 
-0.55136642923770518

>  <r_i_glide_ligand_efficiency_ln>  (1) 
-1.5520642179204394

>  <r_i_glide_ligand_efficiency_sa>  (1) 
-1.1468883900312432

>  <r_i_glide_lipo>  (1) 
-1.0797065921527786

>  <r_i_glide_metal>  (1) 
-0

>  <r_i_glide_rewards>  (1) 
-2.9769338192894823

>  <r_lp_Energy>  (1) 
-0.369228

>  <r_lp_tautomer_probability>  (1) 
1

>  <s_epik_cmdline>  (1) 
J2VwaWtfcHl0aG9uJywgJy1waHQnLCAnMS4wJywgJy1waCcsICc3LjQnLCAnLXRuJywgJzgnLCAnLW1hJywgJzUwMCcsICctaW1hZScsICc8aW5maWxlLm1hZT4nLCAnLW9tYWUnLCAnPG91dGZpbGUubWFlPic=

>  <s_epik_input>  (1) 
TzFbQ0gyXVtDSDJdW0NASF0oW0NAXTEyW0NIM10pT1tDSDJdW0NIMl0y

>  <s_glide_docking_method>  (1) 
confgen

>  <s_i_glide_gridfile>  (1) 
gpcr_drd2_6luq_protein_autoprepared_prepared

>  <s_lp_Force_Field>  (1) 
S-OPLS

>  <s_lp_Variant>  (1) 
Pocket2Mol_33_num_sample_50-1

>  <s_m_source_file>  (1) 
generated__ligand_Pocket2Mol_2026-05-06_prepared.sdf

>  <GenAI_Model>  (1) 
Pocket2Mol

>  <Protein>  (1) 
generic_title2

$$$$
Pocket2Mol_17_num_sample_50
     RDKit          3D

  0  0  0  0  0  0  0  0  0  0999 V3000
M  V30 BEGIN CTAB
M  V30 COUNTS 15 15 0 0 1
M  V30 BEGIN ATOM
M  V30 1 C 11.434839 6.842293 -4.420058 0
M  V30 2 O 10.625401 7.491464 -5.317463 0
M  V30 3 C 11.236681 8.436601 -6.183608 0
M  V30 4 C 11.514294 9.769296 -5.489389 0
M  V30 5 O 12.628369 9.651320 -4.625196 0
M  V30 6 C 12.332995 8.990574 -3.405891 0
M  V30 7 C 12.233984 7.484535 -3.540515 0
M  V30 8 H 11.359917 5.769297 -4.504030 0
M  V30 9 H 10.525263 8.614234 -6.990583 0
M  V30 10 H 12.129505 8.036271 -6.665327 0
M  V30 11 H 10.634836 10.149909 -4.968774 0
M  V30 12 H 11.771733 10.512283 -6.244666 0
M  V30 13 H 11.434840 9.391442 -2.933700 0
M  V30 14 H 13.153585 9.201017 -2.720168 0
M  V30 15 H 12.843852 6.904688 -2.863533 0
M  V30 END ATOM
M  V30 BEGIN BOND
M  V30 1 1 2 1
M  V30 2 1 3 2
M  V30 3 1 4 3
M  V30 4 1 5 4
M  V30 5 1 6 5
M  V30 6 2 7 1
M  V30 7 1 7 6
M  V30 8 1 8 1
M  V30 9 1 9 3
M  V30 10 1 10 3
M  V30 11 1 11 4
M  V30 12 1 12 4
M  V30 13 1 13 6
M  V30 14 1 14 6
M  V30 15 1 15 7
M  V30 END BOND
M  V30 END CTAB
M  END
>  <i_epik_Tot_Q>  (1) 
0

>  <i_epik_Tot_abs_Q>  (1) 
0

>  <i_i_glide_confnum>  (1) 
1

>  <i_i_glide_lignum>  (1) 
20

>  <i_i_glide_posenum>  (1) 
344

>  <i_i_glide_rotatable_bonds>  (1) 
0

>  <i_lp_mmshare_version>  (1) 
72125

>  <i_m_source_file_index>  (1) 
18

>  <i_f3d_flags>  (1) 
0

>  <num_sample>  (1) 
50

>  <b_lp_Chiralities_Consistent>  (1) 
1

>  <r_epik_Charging_Adjusted_Penalty>  (1) 
0

>  <r_epik_Ionization_Penalty>  (1) 
5.6701613537443791e-14

>  <r_epik_Ionization_Penalty_Charging>  (1) 
0

>  <r_epik_Ionization_Penalty_Neutral>  (1) 
5.6701613537443791e-14

>  <r_epik_State_Penalty>  (1) 
-0

>  <r_glide_ring_energy>  (1) 
0

>  <r_i_docking_score>  (1) 
-4.9614359310924279

>  <r_i_glide_ecoul>  (1) 
-0.43984228079686993

>  <r_i_glide_eff_state_penalty>  (1) 
-0

>  <r_i_glide_einternal>  (1) 
0

>  <r_i_glide_emodel>  (1) 
-21.399808386885987

>  <r_i_glide_emodel_strain>  (1) 
0

>  <r_i_glide_energy>  (1) 
-16.226345814850337

>  <r_i_glide_erotb>  (1) 
0

>  <r_i_glide_esite>  (1) 
0

>  <r_i_glide_evdw>  (1) 
-15.786503534053468

>  <r_i_glide_gscore>  (1) 
-4.9614359310924279

>  <r_i_glide_gscore_strain>  (1) 
0

>  <r_i_glide_hbond>  (1) 
0

>  <r_i_glide_ligand_efficiency>  (1) 
-0.70877656158463254

>  <r_i_glide_ligand_efficiency_ln>  (1) 
-1.6841776157645025

>  <r_i_glide_ligand_efficiency_sa>  (1) 
-1.3558407862734383

>  <r_i_glide_lipo>  (1) 
-1.560052840881647

>  <r_i_glide_metal>  (1) 
-0

>  <r_i_glide_rewards>  (1) 
-2.5460815713885769

>  <r_lp_Energy>  (1) 
7.3473319999999998

>  <r_lp_tautomer_probability>  (1) 
1

>  <s_epik_cmdline>  (1) 
J2VwaWtfcHl0aG9uJywgJy1waHQnLCAnMS4wJywgJy1waCcsICc3LjQnLCAnLXRuJywgJzgnLCAnLW1hJywgJzUwMCcsICctaW1hZScsICc8aW5maWxlLm1hZT4nLCAnLW9tYWUnLCAnPG91dGZpbGUubWFlPic=

>  <s_epik_input>  (1) 
W0NIXTE9W0NIXVtDSDJdT1tDSDJdW0NIMl1PMQ==

>  <s_glide_docking_method>  (1) 
confgen

>  <s_i_glide_gridfile>  (1) 
gpcr_drd2_6luq_protein_autoprepared_prepared

>  <s_lp_Force_Field>  (1) 
S-OPLS

>  <s_lp_Variant>  (1) 
Pocket2Mol_17_num_sample_50-1

>  <s_m_source_file>  (1) 
generated__ligand_Pocket2Mol_2026-05-06_prepared.sdf

>  <GenAI_Model>  (1) 
Pocket2Mol

>  <Protein>  (1) 
generic_title2

$$$$
Pocket2Mol_34_num_sample_50
     RDKit          3D

  0  0  0  0  0  0  0  0  0  0999 V3000
M  V30 BEGIN CTAB
M  V30 COUNTS 17 18 0 0 1
M  V30 BEGIN ATOM
M  V30 1 C 6.909666 5.762114 -15.983045 0
M  V30 2 O 8.038452 5.116402 -15.271885 0
M  V30 3 C 7.852219 5.560733 -14.008982 0
M  V30 4 C 6.805517 6.391834 -13.823585 0
M  V30 5 C 6.517562 6.913655 -12.545365 0
M  V30 6 N 7.311551 6.570308 -11.502964 0 CHG=1
M  V30 7 C 8.376924 5.737937 -11.647367 0
M  V30 8 C 8.678947 5.201454 -12.925916 0
M  V30 9 C 6.026947 6.689314 -15.026110 0
M  V30 10 H 6.276510 4.972879 -16.393604 0
M  V30 11 H 7.287927 6.339871 -16.828411 0
M  V30 12 H 5.701332 7.582836 -12.324168 0
M  V30 13 H 8.945133 5.535380 -10.753690 0
M  V30 14 H 9.518752 4.538734 -13.066509 0
M  V30 15 H 5.013259 6.318572 -14.930690 0
M  V30 16 H 6.044527 7.750320 -15.280734 0
M  V30 17 H 7.099331 6.969347 -10.551604 0
M  V30 END ATOM
M  V30 BEGIN BOND
M  V30 1 1 2 1
M  V30 2 1 3 2
M  V30 3 2 4 3
M  V30 4 1 5 4
M  V30 5 2 6 5
M  V30 6 1 7 6
M  V30 7 1 8 3
M  V30 8 2 8 7
M  V30 9 1 9 1
M  V30 10 1 9 4
M  V30 11 1 10 1
M  V30 12 1 11 1
M  V30 13 1 12 5
M  V30 14 1 13 7
M  V30 15 1 14 8
M  V30 16 1 15 9
M  V30 17 1 16 9
M  V30 18 1 17 6
M  V30 END BOND
M  V30 END CTAB
M  END
>  <i_epik_Tot_Q>  (1) 
1

>  <i_epik_Tot_abs_Q>  (1) 
1

>  <i_i_glide_confnum>  (1) 
1

>  <i_i_glide_lignum>  (1) 
38

>  <i_i_glide_posenum>  (1) 
83

>  <i_i_glide_rotatable_bonds>  (1) 
0

>  <i_lp_mmshare_version>  (1) 
72125

>  <i_m_source_file_index>  (1) 
35

>  <i_f3d_flags>  (1) 
0

>  <num_sample>  (1) 
50

>  <b_lp_Chiralities_Consistent>  (1) 
1

>  <r_epik_Charging_Adjusted_Penalty>  (1) 
0.75885481127580179

>  <r_epik_Ionization_Penalty>  (1) 
0.37942740563790117

>  <r_epik_Ionization_Penalty_Charging>  (1) 
0.37942740563790117

>  <r_epik_Ionization_Penalty_Neutral>  (1) 
0

>  <r_epik_State_Penalty>  (1) 
0.37942740563790056

>  <r_glide_ring_energy>  (1) 
0

>  <r_i_docking_score>  (1) 
-4.9455821894996976

>  <r_i_glide_ecoul>  (1) 
-8.5658017280272531

>  <r_i_glide_eff_state_penalty>  (1) 
0.37942740563790056

>  <r_i_glide_einternal>  (1) 
0

>  <r_i_glide_emodel>  (1) 
-28.926418844420702

>  <r_i_glide_emodel_strain>  (1) 
0

>  <r_i_glide_energy>  (1) 
-19.030096706823866

>  <r_i_glide_erotb>  (1) 
0

>  <r_i_glide_esite>  (1) 
-0.10000000000000001

>  <r_i_glide_evdw>  (1) 
-10.464294978796612

>  <r_i_glide_gscore>  (1) 
-5.3250095951375984

>  <r_i_glide_gscore_strain>  (1) 
0

>  <r_i_glide_hbond>  (1) 
-0.15139164521093101

>  <r_i_glide_ligand_efficiency>  (1) 
-0.54950913216663311

>  <r_i_glide_ligand_efficiency_ln>  (1) 
-1.5468360354029711

>  <r_i_glide_ligand_efficiency_sa>  (1) 
-1.1430250564391045

>  <r_i_glide_lipo>  (1) 
-0.70719960844941476

>  <r_i_glide_metal>  (1) 
-0

>  <r_i_glide_rewards>  (1) 
-2.5583333333333336

>  <r_lp_Energy>  (1) 
18.327531999999998

>  <s_epik_cmdline>  (1) 
J2VwaWtfcHl0aG9uJywgJy1waHQnLCAnMS4wJywgJy1waCcsICc3LjQnLCAnLXRuJywgJzgnLCAnLW1hJywgJzUwMCcsICctaW1hZScsICc8aW5maWxlLm1hZT4nLCAnLW9tYWUnLCAnPG91dGZpbGUubWFlPic=

>  <s_epik_input>  (1) 
TzFbQ0gyXVtDSDJdYyhjMTIpW2NIXW5bY0hdW2NIXTI=

>  <s_glide_docking_method>  (1) 
confgen

>  <s_i_glide_gridfile>  (1) 
gpcr_drd2_6luq_protein_autoprepared_prepared

>  <s_lp_Force_Field>  (1) 
S-OPLS

>  <s_lp_Variant>  (1) 
Pocket2Mol_34_num_sample_50-1

>  <s_m_source_file>  (1) 
generated__ligand_Pocket2Mol_2026-05-06_prepared.sdf

>  <GenAI_Model>  (1) 
Pocket2Mol

>  <Protein>  (1) 
generic_title2

$$$$
Pocket2Mol_30_num_sample_50
     RDKit          3D

  0  0  0  0  0  0  0  0  0  0999 V3000
M  V30 BEGIN CTAB
M  V30 COUNTS 20 21 0 0 1
M  V30 BEGIN ATOM
M  V30 1 C 11.012724 8.468876 -5.540407 0
M  V30 2 O 11.629120 8.906099 -6.750183 0
M  V30 3 C 11.266686 8.047022 -7.836520 0 CFG=2
M  V30 4 C 12.378490 8.065381 -8.876475 0
M  V30 5 C 9.810026 8.242938 -8.290467 0
M  V30 6 C 10.934467 6.950029 -5.663757 0
M  V30 7 C 9.509747 6.802970 -7.877958 0
M  V30 8 C 10.860294 6.738602 -7.150431 0 CFG=1
M  V30 9 H 11.566450 8.794355 -4.659603 0
M  V30 10 H 10.012917 8.897642 -5.491673 0
M  V30 11 H 12.162584 7.384812 -9.699896 0
M  V30 12 H 13.332983 7.769302 -8.441007 0
M  V30 13 H 12.504558 9.062453 -9.298731 0
M  V30 14 H 9.247793 8.969354 -7.704659 0
M  V30 15 H 9.685807 8.418184 -9.359990 0
M  V30 16 H 11.834453 6.487484 -5.257977 0
M  V30 17 H 10.077560 6.536478 -5.131207 0
M  V30 18 H 8.634868 6.700000 -7.234046 0
M  V30 19 H 9.454334 6.128971 -8.733276 0
M  V30 20 H 11.434393 5.877743 -7.491432 0
M  V30 END ATOM
M  V30 BEGIN BOND
M  V30 1 1 2 1
M  V30 2 1 3 2
M  V30 3 1 3 4 CFG=3
M  V30 4 1 5 3
M  V30 5 1 6 1
M  V30 6 1 7 5
M  V30 7 1 8 3
M  V30 8 1 8 6
M  V30 9 1 8 7
M  V30 10 1 9 1
M  V30 11 1 10 1
M  V30 12 1 11 4
M  V30 13 1 12 4
M  V30 14 1 13 4
M  V30 15 1 14 5
M  V30 16 1 15 5
M  V30 17 1 16 6
M  V30 18 1 17 6
M  V30 19 1 18 7
M  V30 20 1 19 7
M  V30 21 1 8 20 CFG=3
M  V30 END BOND
M  V30 END CTAB
M  END
>  <i_epik_Tot_Q>  (1) 
0

>  <i_epik_Tot_abs_Q>  (1) 
0

>  <i_i_glide_confnum>  (1) 
1

>  <i_i_glide_lignum>  (1) 
34

>  <i_i_glide_posenum>  (1) 
76

>  <i_i_glide_rotatable_bonds>  (1) 
0

>  <i_lp_mmshare_version>  (1) 
72125

>  <i_m_source_file_index>  (1) 
31

>  <i_f3d_flags>  (1) 
0

>  <num_sample>  (1) 
50

>  <b_lp_Chiralities_Consistent>  (1) 
1

>  <r_epik_Charging_Adjusted_Penalty>  (1) 
0

>  <r_epik_Ionization_Penalty>  (1) 
2.3587344998035955e-11

>  <r_epik_Ionization_Penalty_Charging>  (1) 
0

>  <r_epik_Ionization_Penalty_Neutral>  (1) 
2.3587344998035955e-11

>  <r_epik_State_Penalty>  (1) 
-0

>  <r_glide_ring_energy>  (1) 
0

>  <r_i_docking_score>  (1) 
-4.9439324030929459

>  <r_i_glide_ecoul>  (1) 
-0.49582633520246422

>  <r_i_glide_eff_state_penalty>  (1) 
-0

>  <r_i_glide_einternal>  (1) 
0

>  <r_i_glide_emodel>  (1) 
-19.792221048351408

>  <r_i_glide_emodel_strain>  (1) 
0

>  <r_i_glide_energy>  (1) 
-15.140001045995605

>  <r_i_glide_erotb>  (1) 
0

>  <r_i_glide_esite>  (1) 
0

>  <r_i_glide_evdw>  (1) 
-14.644174710793141

>  <r_i_glide_gscore>  (1) 
-4.9439324030929459

>  <r_i_glide_gscore_strain>  (1) 
0

>  <r_i_glide_hbond>  (1) 
0

>  <r_i_glide_ligand_efficiency>  (1) 
-0.61799155038661824

>  <r_i_glide_ligand_efficiency_ln>  (1) 
-1.6054639570771103

>  <r_i_glide_ligand_efficiency_sa>  (1) 
-1.2359831007732367

>  <r_i_glide_lipo>  (1) 
-1.2750526021560546

>  <r_i_glide_metal>  (1) 
-0

>  <r_i_glide_rewards>  (1) 
-2.8622971151168644

>  <r_lp_Energy>  (1) 
15.613807

>  <r_lp_tautomer_probability>  (1) 
1

>  <s_epik_cmdline>  (1) 
J2VwaWtfcHl0aG9uJywgJy1waHQnLCAnMS4wJywgJy1waCcsICc3LjQnLCAnLXRuJywgJzgnLCAnLW1hJywgJzUwMCcsICctaW1hZScsICc8aW5maWxlLm1hZT4nLCAnLW9tYWUnLCAnPG91dGZpbGUubWFlPic=

>  <s_epik_input>  (1) 
TzFbQ0gyXVtDSDJdW0NASF0oW0NAXTEyW0NIM10pW0NIMl1bQ0gyXTI=

>  <s_glide_docking_method>  (1) 
confgen

>  <s_i_glide_gridfile>  (1) 
gpcr_drd2_6luq_protein_autoprepared_prepared

>  <s_lp_Force_Field>  (1) 
S-OPLS

>  <s_lp_Variant>  (1) 
Pocket2Mol_30_num_sample_50-1

>  <s_m_source_file>  (1) 
generated__ligand_Pocket2Mol_2026-05-06_prepared.sdf

>  <GenAI_Model>  (1) 
Pocket2Mol

>  <Protein>  (1) 
generic_title2

$$$$
Pocket2Mol_16_num_sample_50
     RDKit          3D

  0  0  0  0  0  0  0  0  0  0999 V3000
M  V30 BEGIN CTAB
M  V30 COUNTS 12 12 0 0 1
M  V30 BEGIN ATOM
M  V30 1 N 11.688447 6.569305 -3.586322 0
M  V30 2 C 11.103398 6.691792 -4.834459 0
M  V30 3 C 11.034837 7.855532 -5.514168 0
M  V30 4 C 11.615354 9.082072 -4.903510 0
M  V30 5 O 11.583912 10.169290 -5.473846 0
M  V30 6 C 12.234840 7.689570 -2.987734 0
M  V30 7 C 12.234840 8.912913 -3.558314 0
M  V30 8 H 10.700084 5.769301 -5.223841 0
M  V30 9 H 10.569690 7.919350 -6.487200 0
M  V30 10 H 11.706075 5.673100 -3.114601 0
M  V30 11 H 12.665972 7.503162 -2.014891 0
M  V30 12 H 12.669010 9.769311 -3.065128 0
M  V30 END ATOM
M  V30 BEGIN BOND
M  V30 1 1 2 1
M  V30 2 2 3 2
M  V30 3 1 4 3
M  V30 4 2 5 4
M  V30 5 1 6 1
M  V30 6 1 7 4
M  V30 7 2 7 6
M  V30 8 1 8 2
M  V30 9 1 9 3
M  V30 10 1 10 1
M  V30 11 1 11 6
M  V30 12 1 12 7
M  V30 END BOND
M  V30 END CTAB
M  END
>  <i_epik_Tot_Q>  (1) 
0

>  <i_epik_Tot_abs_Q>  (1) 
0

>  <i_i_glide_confnum>  (1) 
1

>  <i_i_glide_lignum>  (1) 
19

>  <i_i_glide_posenum>  (1) 
171

>  <i_i_glide_rotatable_bonds>  (1) 
0

>  <i_lp_mmshare_version>  (1) 
72125

>  <i_m_source_file_index>  (1) 
17

>  <i_f3d_flags>  (1) 
0

>  <num_sample>  (1) 
50

>  <b_lp_Chiralities_Consistent>  (1) 
1

>  <r_epik_Charging_Adjusted_Penalty>  (1) 
0.00011828912318149299

>  <r_epik_Ionization_Penalty>  (1) 
0.00011828912318149299

>  <r_epik_Ionization_Penalty_Charging>  (1) 
0.00011828912318149299

>  <r_epik_Ionization_Penalty_Neutral>  (1) 
0

>  <r_epik_State_Penalty>  (1) 
-0

>  <r_glide_ring_energy>  (1) 
0

>  <r_i_docking_score>  (1) 
-4.9323997562334636

>  <r_i_glide_ecoul>  (1) 
-1.9070097371204158

>  <r_i_glide_eff_state_penalty>  (1) 
-0

>  <r_i_glide_einternal>  (1) 
0

>  <r_i_glide_emodel>  (1) 
-25.614014144777016

>  <r_i_glide_emodel_strain>  (1) 
0

>  <r_i_glide_energy>  (1) 
-19.410481696936753

>  <r_i_glide_erotb>  (1) 
0

>  <r_i_glide_esite>  (1) 
0

>  <r_i_glide_evdw>  (1) 
-17.503471959816338

>  <r_i_glide_gscore>  (1) 
-4.9323997562334636

>  <r_i_glide_gscore_strain>  (1) 
0

>  <r_i_glide_hbond>  (1) 
0

>  <r_i_glide_ligand_efficiency>  (1) 
-0.70462853660478053

>  <r_i_glide_ligand_efficiency_ln>  (1) 
-1.6743211797600726

>  <r_i_glide_ligand_efficiency_sa>  (1) 
-1.3479058999425606

>  <r_i_glide_lipo>  (1) 
-1.5211746976745848

>  <r_i_glide_metal>  (1) 
-0

>  <r_i_glide_rewards>  (1) 
-2.25

>  <r_lp_Energy>  (1) 
8.1847359999999991

>  <r_lp_tautomer_probability>  (1) 
1

>  <s_epik_cmdline>  (1) 
J2VwaWtfcHl0aG9uJywgJy1waHQnLCAnMS4wJywgJy1waCcsICc3LjQnLCAnLXRuJywgJzgnLCAnLW1hJywgJzUwMCcsICctaW1hZScsICc8aW5maWxlLm1hZT4nLCAnLW9tYWUnLCAnPG91dGZpbGUubWFlPic=

>  <s_epik_input>  (1) 
W2NIXTFbY0hdbltjSF1bY0hdYzFbT0hd

>  <s_glide_docking_method>  (1) 
confgen

>  <s_i_glide_gridfile>  (1) 
gpcr_drd2_6luq_protein_autoprepared_prepared

>  <s_lp_Force_Field>  (1) 
S-OPLS

>  <s_lp_Variant>  (1) 
Pocket2Mol_16_num_sample_50-1

>  <s_m_source_file>  (1) 
generated__ligand_Pocket2Mol_2026-05-06_prepared.sdf

>  <GenAI_Model>  (1) 
Pocket2Mol

>  <Protein>  (1) 
generic_title2

$$$$
Pocket2Mol_25_num_sample_50
     RDKit          3D

  0  0  0  0  0  0  0  0  0  0999 V3000
M  V30 BEGIN CTAB
M  V30 COUNTS 15 15 0 0 1
M  V30 BEGIN ATOM
M  V30 1 C 12.234839 8.826717 -3.159196 0
M  V30 2 O 11.453524 9.674634 -4.009863 0
M  V30 3 C 11.562859 9.369301 -5.403718 0
M  V30 4 C 10.990247 7.960888 -5.715662 0 CFG=1
M  V30 5 O 11.434807 7.539609 -6.988105 0
M  V30 6 C 11.998534 7.369369 -3.501024 0
M  V30 7 C 11.434839 6.980541 -4.651476 0
M  V30 8 H 11.951628 9.012942 -2.122825 0
M  V30 9 H 13.294055 9.063712 -3.259168 0
M  V30 10 H 12.614090 9.432486 -5.691187 0
M  V30 11 H 11.034843 10.128556 -5.980946 0
M  V30 12 H 9.899892 7.993469 -5.715225 0
M  V30 13 H 10.821835 6.901808 -7.324046 0
M  V30 14 H 12.305802 6.634706 -2.771059 0
M  V30 15 H 11.281906 5.929806 -4.852824 0
M  V30 END ATOM
M  V30 BEGIN BOND
M  V30 1 1 2 1
M  V30 2 1 3 2
M  V30 3 1 4 3
M  V30 4 1 5 4
M  V30 5 1 6 1
M  V30 6 1 7 4
M  V30 7 2 7 6
M  V30 8 1 8 1
M  V30 9 1 9 1
M  V30 10 1 10 3
M  V30 11 1 11 3
M  V30 12 1 4 12 CFG=3
M  V30 13 1 13 5
M  V30 14 1 14 6
M  V30 15 1 15 7
M  V30 END BOND
M  V30 END CTAB
M  END
>  <i_epik_Tot_Q>  (1) 
0

>  <i_epik_Tot_abs_Q>  (1) 
0

>  <i_i_glide_confnum>  (1) 
1

>  <i_i_glide_lignum>  (1) 
29

>  <i_i_glide_posenum>  (1) 
194

>  <i_i_glide_rotatable_bonds>  (1) 
1

>  <i_lp_mmshare_version>  (1) 
72125

>  <i_m_source_file_index>  (1) 
26

>  <i_f3d_flags>  (1) 
0

>  <num_sample>  (1) 
50

>  <b_lp_Chiralities_Consistent>  (1) 
1

>  <r_epik_Charging_Adjusted_Penalty>  (1) 
0

>  <r_epik_Ionization_Penalty>  (1) 
7.567869706951744e-07

>  <r_epik_Ionization_Penalty_Charging>  (1) 
0

>  <r_epik_Ionization_Penalty_Neutral>  (1) 
7.567869706951744e-07

>  <r_epik_State_Penalty>  (1) 
-0

>  <r_glide_ring_energy>  (1) 
0

>  <r_i_docking_score>  (1) 
-4.9212785487477033

>  <r_i_glide_ecoul>  (1) 
-1.7294935490775152

>  <r_i_glide_eff_state_penalty>  (1) 
-0

>  <r_i_glide_einternal>  (1) 
0.43379487646861947

>  <r_i_glide_emodel>  (1) 
-24.166104559092688

>  <r_i_glide_emodel_strain>  (1) 
0.008732187392914259

>  <r_i_glide_energy>  (1) 
-18.033436513190452

>  <r_i_glide_erotb>  (1) 
0

>  <r_i_glide_esite>  (1) 
0

>  <r_i_glide_evdw>  (1) 
-16.303942964112938

>  <r_i_glide_gscore>  (1) 
-4.9212785487477033

>  <r_i_glide_gscore_strain>  (1) 
0

>  <r_i_glide_hbond>  (1) 
0

>  <r_i_glide_ligand_efficiency>  (1) 
-0.70303979267824335

>  <r_i_glide_ligand_efficiency_ln>  (1) 
-1.6705460451079426

>  <r_i_glide_ligand_efficiency_sa>  (1) 
-1.3448667421440472

>  <r_i_glide_lipo>  (1) 
-1.4517390634136915

>  <r_i_glide_metal>  (1) 
-0

>  <r_i_glide_rewards>  (1) 
-2.3949183047667377

>  <r_lp_Energy>  (1) 
2.4739009999999997

>  <r_lp_tautomer_probability>  (1) 
1

>  <s_epik_cmdline>  (1) 
J2VwaWtfcHl0aG9uJywgJy1waHQnLCAnMS4wJywgJy1waCcsICc3LjQnLCAnLXRuJywgJzgnLCAnLW1hJywgJzUwMCcsICctaW1hZScsICc8aW5maWxlLm1hZT4nLCAnLW9tYWUnLCAnPG91dGZpbGUubWFlPic=

>  <s_epik_input>  (1) 
W0NIXTE9W0NIXVtDSDJdT1tDSDJdW0NASF0xW09IXQ==

>  <s_glide_docking_method>  (1) 
confgen

>  <s_i_glide_gridfile>  (1) 
gpcr_drd2_6luq_protein_autoprepared_prepared

>  <s_lp_Force_Field>  (1) 
S-OPLS

>  <s_lp_Variant>  (1) 
Pocket2Mol_25_num_sample_50-1

>  <s_m_source_file>  (1) 
generated__ligand_Pocket2Mol_2026-05-06_prepared.sdf

>  <GenAI_Model>  (1) 
Pocket2Mol

>  <Protein>  (1) 
generic_title2

$$$$
Pocket2Mol_17_num_sample_50
     RDKit          3D

  0  0  0  0  0  0  0  0  0  0999 V3000
M  V30 BEGIN CTAB
M  V30 COUNTS 15 15 0 0 1
M  V30 BEGIN ATOM
M  V30 1 C 11.034839 7.026334 -5.091667 0
M  V30 2 O 11.834839 7.907297 -4.396671 0
M  V30 3 C 11.682993 9.299385 -4.634431 0
M  V30 4 C 12.422201 9.769301 -5.891667 0
M  V30 5 O 12.152622 8.969301 -7.030868 0
M  V30 6 C 10.813471 8.517802 -7.149637 0
M  V30 7 C 10.543515 7.268014 -6.328595 0
M  V30 8 H 10.833850 6.127366 -4.526686 0
M  V30 9 H 12.088590 9.818119 -3.766801 0
M  V30 10 H 10.634839 9.578745 -4.671483 0
M  V30 11 H 13.499709 9.769298 -5.724016 0
M  V30 12 H 12.140340 10.799498 -6.111856 0
M  V30 13 H 10.666270 8.248286 -8.195632 0
M  V30 14 H 10.082387 9.296545 -6.929459 0
M  V30 15 H 9.910010 6.525756 -6.792997 0
M  V30 END ATOM
M  V30 BEGIN BOND
M  V30 1 1 2 1
M  V30 2 1 3 2
M  V30 3 1 4 3
M  V30 4 1 5 4
M  V30 5 1 6 5
M  V30 6 2 7 1
M  V30 7 1 7 6
M  V30 8 1 8 1
M  V30 9 1 9 3
M  V30 10 1 10 3
M  V30 11 1 11 4
M  V30 12 1 12 4
M  V30 13 1 13 6
M  V30 14 1 14 6
M  V30 15 1 15 7
M  V30 END BOND
M  V30 END CTAB
M  END
>  <i_epik_Tot_Q>  (1) 
0

>  <i_epik_Tot_abs_Q>  (1) 
0

>  <i_i_glide_confnum>  (1) 
3

>  <i_i_glide_lignum>  (1) 
20

>  <i_i_glide_posenum>  (1) 
175

>  <i_i_glide_rotatable_bonds>  (1) 
0

>  <i_lp_mmshare_version>  (1) 
72125

>  <i_m_source_file_index>  (1) 
18

>  <i_f3d_flags>  (1) 
0

>  <num_sample>  (1) 
50

>  <b_lp_Chiralities_Consistent>  (1) 
1

>  <r_epik_Charging_Adjusted_Penalty>  (1) 
0

>  <r_epik_Ionization_Penalty>  (1) 
5.6701613537443791e-14

>  <r_epik_Ionization_Penalty_Charging>  (1) 
0

>  <r_epik_Ionization_Penalty_Neutral>  (1) 
5.6701613537443791e-14

>  <r_epik_State_Penalty>  (1) 
-0

>  <r_glide_ring_energy>  (1) 
0.9851884203704826

>  <r_i_docking_score>  (1) 
-4.9012543519386762

>  <r_i_glide_ecoul>  (1) 
-0.66666961951306902

>  <r_i_glide_eff_state_penalty>  (1) 
-0

>  <r_i_glide_einternal>  (1) 
0

>  <r_i_glide_emodel>  (1) 
-21.503642799384636

>  <r_i_glide_emodel_strain>  (1) 
0

>  <r_i_glide_energy>  (1) 
-16.392933662362989

>  <r_i_glide_erotb>  (1) 
0

>  <r_i_glide_esite>  (1) 
0

>  <r_i_glide_evdw>  (1) 
-15.72626404284992

>  <r_i_glide_gscore>  (1) 
-4.9012543519386762

>  <r_i_glide_gscore_strain>  (1) 
0

>  <r_i_glide_hbond>  (1) 
0

>  <r_i_glide_ligand_efficiency>  (1) 
-0.7001791931340966

>  <r_i_glide_ligand_efficiency_ln>  (1) 
-1.6637487580910766

>  <r_i_glide_ligand_efficiency_sa>  (1) 
-1.3393946120746245

>  <r_i_glide_lipo>  (1) 
-1.4066153065837415

>  <r_i_glide_metal>  (1) 
-0

>  <r_i_glide_rewards>  (1) 
-2.6083254002854788

>  <r_lp_Energy>  (1) 
7.3473319999999998

>  <r_lp_tautomer_probability>  (1) 
1

>  <s_epik_cmdline>  (1) 
J2VwaWtfcHl0aG9uJywgJy1waHQnLCAnMS4wJywgJy1waCcsICc3LjQnLCAnLXRuJywgJzgnLCAnLW1hJywgJzUwMCcsICctaW1hZScsICc8aW5maWxlLm1hZT4nLCAnLW9tYWUnLCAnPG91dGZpbGUubWFlPic=

>  <s_epik_input>  (1) 
W0NIXTE9W0NIXVtDSDJdT1tDSDJdW0NIMl1PMQ==

>  <s_glide_docking_method>  (1) 
confgen

>  <s_i_glide_gridfile>  (1) 
gpcr_drd2_6luq_protein_autoprepared_prepared

>  <s_lp_Force_Field>  (1) 
S-OPLS

>  <s_lp_Variant>  (1) 
Pocket2Mol_17_num_sample_50-1

>  <s_m_source_file>  (1) 
generated__ligand_Pocket2Mol_2026-05-06_prepared.sdf

>  <GenAI_Model>  (1) 
Pocket2Mol

>  <Protein>  (1) 
generic_title2

$$$$
Pocket2Mol_22_num_sample_50
     RDKit          3D

  0  0  0  0  0  0  0  0  0  0999 V3000
M  V30 BEGIN CTAB
M  V30 COUNTS 11 11 0 0 1
M  V30 BEGIN ATOM
M  V30 1 N 12.248234 9.369277 -3.904040 0
M  V30 2 C 11.594722 9.420457 -5.091004 0
M  V30 3 C 11.034829 8.290177 -5.717325 0
M  V30 4 C 12.359969 8.155695 -3.310480 0
M  V30 5 C 11.834824 6.969301 -3.862861 0
M  V30 6 F 10.391293 8.408577 -6.902017 0
M  V30 7 C 11.154599 7.039961 -5.091670 0
M  V30 8 H 11.515731 10.394148 -5.552019 0
M  V30 9 H 12.884465 8.131560 -2.366725 0
M  V30 10 H 11.948198 6.025151 -3.350086 0
M  V30 11 H 10.735641 6.153634 -5.544068 0
M  V30 END ATOM
M  V30 BEGIN BOND
M  V30 1 2 2 1
M  V30 2 1 3 2
M  V30 3 1 4 1
M  V30 4 2 5 4
M  V30 5 1 6 3
M  V30 6 2 7 3
M  V30 7 1 7 5
M  V30 8 1 8 2
M  V30 9 1 9 4
M  V30 10 1 10 5
M  V30 11 1 11 7
M  V30 END BOND
M  V30 END CTAB
M  END
>  <i_epik_Tot_Q>  (1) 
0

>  <i_epik_Tot_abs_Q>  (1) 
0

>  <i_i_glide_confnum>  (1) 
1

>  <i_i_glide_lignum>  (1) 
26

>  <i_i_glide_posenum>  (1) 
364

>  <i_i_glide_rotatable_bonds>  (1) 
0

>  <i_lp_mmshare_version>  (1) 
72125

>  <i_m_source_file_index>  (1) 
23

>  <i_f3d_flags>  (1) 
0

>  <num_sample>  (1) 
50

>  <b_lp_Chiralities_Consistent>  (1) 
1

>  <r_epik_Charging_Adjusted_Penalty>  (1) 
0

>  <r_epik_Ionization_Penalty>  (1) 
7.3223601380878174e-05

>  <r_epik_Ionization_Penalty_Charging>  (1) 
0

>  <r_epik_Ionization_Penalty_Neutral>  (1) 
7.3223601380878174e-05

>  <r_epik_State_Penalty>  (1) 
-0

>  <r_glide_ring_energy>  (1) 
0

>  <r_i_docking_score>  (1) 
-4.8850697103773584

>  <r_i_glide_ecoul>  (1) 
-0.30805585070902836

>  <r_i_glide_eff_state_penalty>  (1) 
-0

>  <r_i_glide_einternal>  (1) 
0

>  <r_i_glide_emodel>  (1) 
-20.580210537144936

>  <r_i_glide_emodel_strain>  (1) 
0

>  <r_i_glide_energy>  (1) 
-15.54795673986446

>  <r_i_glide_erotb>  (1) 
0

>  <r_i_glide_esite>  (1) 
0

>  <r_i_glide_evdw>  (1) 
-15.239900889155432

>  <r_i_glide_gscore>  (1) 
-4.8850697103773584

>  <r_i_glide_gscore_strain>  (1) 
0

>  <r_i_glide_hbond>  (1) 
0

>  <r_i_glide_ligand_efficiency>  (1) 
-0.69786710148247977

>  <r_i_glide_ligand_efficiency_ln>  (1) 
-1.6582548221791114

>  <r_i_glide_ligand_efficiency_sa>  (1) 
-1.3349717398568191

>  <r_i_glide_lipo>  (1) 
-1.4316755038619227

>  <r_i_glide_metal>  (1) 
-0

>  <r_i_glide_rewards>  (1) 
-2.6451907844513087

>  <r_lp_Energy>  (1) 
10.789624

>  <r_lp_tautomer_probability>  (1) 
1

>  <s_epik_cmdline>  (1) 
J2VwaWtfcHl0aG9uJywgJy1waHQnLCAnMS4wJywgJy1waCcsICc3LjQnLCAnLXRuJywgJzgnLCAnLW1hJywgJzUwMCcsICctaW1hZScsICc8aW5maWxlLm1hZT4nLCAnLW9tYWUnLCAnPG91dGZpbGUubWFlPic=

>  <s_epik_input>  (1) 
W2NIXTFbY0hdW2NIXW5bY0hdYzFG

>  <s_glide_docking_method>  (1) 
confgen

>  <s_i_glide_gridfile>  (1) 
gpcr_drd2_6luq_protein_autoprepared_prepared

>  <s_lp_Force_Field>  (1) 
S-OPLS

>  <s_lp_Variant>  (1) 
Pocket2Mol_22_num_sample_50-1

>  <s_m_source_file>  (1) 
generated__ligand_Pocket2Mol_2026-05-06_prepared.sdf

>  <GenAI_Model>  (1) 
Pocket2Mol

>  <Protein>  (1) 
generic_title2

$$$$
Pocket2Mol_7_num_sample_50
     RDKit          3D

  0  0  0  0  0  0  0  0  0  0999 V3000
M  V30 BEGIN CTAB
M  V30 COUNTS 13 13 0 0 1
M  V30 BEGIN ATOM
M  V30 1 N 12.555860 7.811510 -2.233802 0
M  V30 2 C 12.408831 8.766320 -3.197178 0
M  V30 3 C 11.834841 8.362119 -4.291672 0
M  V30 4 C 12.010485 6.804035 -2.852499 0
M  V30 5 C 11.550334 9.231636 -5.499952 0
M  V30 6 C 11.434839 6.941548 -4.318096 0
M  V30 7 H 12.760956 9.769377 -3.004380 0
M  V30 8 H 11.920953 5.813708 -2.397495 0
M  V30 9 H 12.069284 8.846787 -6.377888 0
M  V30 10 H 10.480957 9.244081 -5.712461 0
M  V30 11 H 11.876199 10.258797 -5.333094 0
M  V30 12 H 11.983567 6.336907 -5.039459 0
M  V30 13 H 10.361131 6.765397 -4.368924 0
M  V30 END ATOM
M  V30 BEGIN BOND
M  V30 1 1 2 1
M  V30 2 2 3 2
M  V30 3 2 4 1
M  V30 4 1 5 3
M  V30 5 1 6 3
M  V30 6 1 6 4
M  V30 7 1 7 2
M  V30 8 1 8 4
M  V30 9 1 9 5
M  V30 10 1 10 5
M  V30 11 1 11 5
M  V30 12 1 12 6
M  V30 13 1 13 6
M  V30 END BOND
M  V30 END CTAB
M  END
>  <i_epik_Tot_Q>  (1) 
0

>  <i_epik_Tot_abs_Q>  (1) 
0

>  <i_i_glide_confnum>  (1) 
1

>  <i_i_glide_lignum>  (1) 
8

>  <i_i_glide_posenum>  (1) 
383

>  <i_i_glide_rotatable_bonds>  (1) 
0

>  <i_lp_mmshare_version>  (1) 
72125

>  <i_m_source_file_index>  (1) 
8

>  <i_f3d_flags>  (1) 
0

>  <num_sample>  (1) 
50

>  <b_lp_Chiralities_Consistent>  (1) 
1

>  <r_epik_Charging_Adjusted_Penalty>  (1) 
0

>  <r_epik_Ionization_Penalty>  (1) 
0

>  <r_epik_Ionization_Penalty_Charging>  (1) 
0

>  <r_epik_Ionization_Penalty_Neutral>  (1) 
0

>  <r_epik_State_Penalty>  (1) 
-0

>  <r_glide_ring_energy>  (1) 
0

>  <r_i_docking_score>  (1) 
-4.8818662069998613

>  <r_i_glide_ecoul>  (1) 
-0.75783919417085865

>  <r_i_glide_eff_state_penalty>  (1) 
-0

>  <r_i_glide_einternal>  (1) 
0

>  <r_i_glide_emodel>  (1) 
-21.457843930542829

>  <r_i_glide_emodel_strain>  (1) 
0

>  <r_i_glide_energy>  (1) 
-16.087419180888865

>  <r_i_glide_erotb>  (1) 
0

>  <r_i_glide_esite>  (1) 
0

>  <r_i_glide_evdw>  (1) 
-15.329579986718008

>  <r_i_glide_gscore>  (1) 
-4.8818662069998613

>  <r_i_glide_gscore_strain>  (1) 
0

>  <r_i_glide_hbond>  (1) 
0

>  <r_i_glide_ligand_efficiency>  (1) 
-0.81364436783331018

>  <r_i_glide_ligand_efficiency_ln>  (1) 
-1.7486700630229217

>  <r_i_glide_ligand_efficiency_sa>  (1) 
-1.4784899360317962

>  <r_i_glide_lipo>  (1) 
-1.0894276220432768

>  <r_i_glide_metal>  (1) 
-0

>  <r_i_glide_rewards>  (1) 
-2.9122837064950549

>  <r_lp_Energy>  (1) 
-3.9959819999999997

>  <r_lp_tautomer_probability>  (1) 
1

>  <s_epik_Chemistry_Notes>  (1) 
This compound has an imine and may undergo hydrolysis.

>  <s_epik_cmdline>  (1) 
J2VwaWtfcHl0aG9uJywgJy1waHQnLCAnMS4wJywgJy1waCcsICc3LjQnLCAnLXRuJywgJzgnLCAnLW1hJywgJzUwMCcsICctaW1hZScsICc8aW5maWxlLm1hZT4nLCAnLW9tYWUnLCAnPG91dGZpbGUubWFlPic=

>  <s_epik_input>  (1) 
W0NIMl0xW0NIXT1OW0NIXT1DMVtDSDNd

>  <s_glide_docking_method>  (1) 
confgen

>  <s_i_glide_gridfile>  (1) 
gpcr_drd2_6luq_protein_autoprepared_prepared

>  <s_lp_Force_Field>  (1) 
S-OPLS

>  <s_lp_Variant>  (1) 
Pocket2Mol_7_num_sample_50-1

>  <s_m_source_file>  (1) 
generated__ligand_Pocket2Mol_2026-05-06_prepared.sdf

>  <GenAI_Model>  (1) 
Pocket2Mol

>  <Protein>  (1) 
generic_title2

$$$$
Pocket2Mol_6_num_sample_50
     RDKit          3D

  0  0  0  0  0  0  0  0  0  0999 V3000
M  V30 BEGIN CTAB
M  V30 COUNTS 11 11 0 0 1
M  V30 BEGIN ATOM
M  V30 1 N 11.834870 7.716998 -3.929102 0
M  V30 2 C 11.240879 6.776777 -4.703113 0
M  V30 3 C 10.634838 7.061037 -5.942127 0
M  V30 4 C 10.640346 8.383838 -6.407886 0
M  V30 5 C 11.253974 9.369371 -5.618935 0
M  V30 6 C 11.835867 8.989796 -4.393883 0
M  V30 7 H 11.247871 5.769283 -4.318991 0
M  V30 8 H 10.171427 6.275276 -6.521321 0
M  V30 9 H 10.182200 8.638169 -7.352787 0
M  V30 10 H 11.278426 10.398686 -5.944129 0
M  V30 11 H 12.315238 9.727529 -3.766985 0
M  V30 END ATOM
M  V30 BEGIN BOND
M  V30 1 2 2 1
M  V30 2 1 3 2
M  V30 3 2 4 3
M  V30 4 1 5 4
M  V30 5 1 6 1
M  V30 6 2 6 5
M  V30 7 1 7 2
M  V30 8 1 8 3
M  V30 9 1 9 4
M  V30 10 1 10 5
M  V30 11 1 11 6
M  V30 END BOND
M  V30 END CTAB
M  END
>  <i_epik_Tot_Q>  (1) 
0

>  <i_epik_Tot_abs_Q>  (1) 
0

>  <i_i_glide_confnum>  (1) 
1

>  <i_i_glide_lignum>  (1) 
7

>  <i_i_glide_posenum>  (1) 
212

>  <i_i_glide_rotatable_bonds>  (1) 
0

>  <i_lp_mmshare_version>  (1) 
72125

>  <i_m_source_file_index>  (1) 
7

>  <i_f3d_flags>  (1) 
0

>  <num_sample>  (1) 
50

>  <b_lp_Chiralities_Consistent>  (1) 
1

>  <r_epik_Charging_Adjusted_Penalty>  (1) 
0

>  <r_epik_Ionization_Penalty>  (1) 
0.0028947865417402485

>  <r_epik_Ionization_Penalty_Charging>  (1) 
0

>  <r_epik_Ionization_Penalty_Neutral>  (1) 
0.0028947865417402485

>  <r_epik_State_Penalty>  (1) 
-0

>  <r_glide_ring_energy>  (1) 
0

>  <r_i_docking_score>  (1) 
-4.8702879432212915

>  <r_i_glide_ecoul>  (1) 
-0.68886383839159304

>  <r_i_glide_eff_state_penalty>  (1) 
-0

>  <r_i_glide_einternal>  (1) 
0

>  <r_i_glide_emodel>  (1) 
-18.834343028676201

>  <r_i_glide_emodel_strain>  (1) 
0

>  <r_i_glide_energy>  (1) 
-14.153661297425586

>  <r_i_glide_erotb>  (1) 
0

>  <r_i_glide_esite>  (1) 
0

>  <r_i_glide_evdw>  (1) 
-13.464797459033994

>  <r_i_glide_gscore>  (1) 
-4.8702879432212915

>  <r_i_glide_gscore_strain>  (1) 
0

>  <r_i_glide_hbond>  (1) 
0

>  <r_i_glide_ligand_efficiency>  (1) 
-0.81171465720354863

>  <r_i_glide_ligand_efficiency_ln>  (1) 
-1.7445227631189757

>  <r_i_glide_ligand_efficiency_sa>  (1) 
-1.4749834191082494

>  <r_i_glide_lipo>  (1) 
-1.5103851611775196

>  <r_i_glide_metal>  (1) 
-0

>  <r_i_glide_rewards>  (1) 
-2.5833333333333335

>  <r_lp_Energy>  (1) 
11.088944

>  <r_lp_tautomer_probability>  (1) 
1

>  <s_epik_cmdline>  (1) 
J2VwaWtfcHl0aG9uJywgJy1waHQnLCAnMS4wJywgJy1waCcsICc3LjQnLCAnLXRuJywgJzgnLCAnLW1hJywgJzUwMCcsICctaW1hZScsICc8aW5maWxlLm1hZT4nLCAnLW9tYWUnLCAnPG91dGZpbGUubWFlPic=

>  <s_epik_input>  (1) 
bjFbY0hdW2NIXVtjSF1bY0hdW2NIXTE=

>  <s_glide_docking_method>  (1) 
confgen

>  <s_i_glide_gridfile>  (1) 
gpcr_drd2_6luq_protein_autoprepared_prepared

>  <s_lp_Force_Field>  (1) 
S-OPLS

>  <s_lp_Variant>  (1) 
Pocket2Mol_6_num_sample_50-1

>  <s_m_source_file>  (1) 
generated__ligand_Pocket2Mol_2026-05-06_prepared.sdf

>  <GenAI_Model>  (1) 
Pocket2Mol

>  <Protein>  (1) 
generic_title2

$$$$
Pocket2Mol_27_num_sample_50
     RDKit          3D

  0  0  0  0  0  0  0  0  0  0999 V3000
M  V30 BEGIN CTAB
M  V30 COUNTS 13 13 0 0 1
M  V30 BEGIN ATOM
M  V30 1 N 11.173215 6.455411 -4.788174 0
M  V30 2 C 11.834969 7.266322 -3.888672 0
M  V30 3 C 11.993920 8.592386 -4.066295 0
M  V30 4 C 10.652580 7.012511 -5.942263 0
M  V30 5 O 12.634838 9.368520 -3.186258 0
M  V30 6 C 11.432833 9.238128 -5.287321 0
M  V30 7 O 11.519781 10.447173 -5.490171 0
M  V30 8 C 10.741338 8.326882 -6.241246 0
M  V30 9 H 12.218382 6.743491 -3.023075 0
M  V30 10 H 10.160306 6.301570 -6.591204 0
M  V30 11 H 12.920149 8.822405 -2.470640 0
M  V30 12 H 10.319802 8.733155 -7.148772 0
M  V30 13 H 11.068828 5.464179 -4.606054 0
M  V30 END ATOM
M  V30 BEGIN BOND
M  V30 1 1 2 1
M  V30 2 2 3 2
M  V30 3 1 4 1
M  V30 4 1 5 3
M  V30 5 1 6 3
M  V30 6 2 7 6
M  V30 7 2 8 4
M  V30 8 1 8 6
M  V30 9 1 9 2
M  V30 10 1 10 4
M  V30 11 1 11 5
M  V30 12 1 12 8
M  V30 13 1 13 1
M  V30 END BOND
M  V30 END CTAB
M  END
>  <i_epik_Tot_Q>  (1) 
0

>  <i_epik_Tot_abs_Q>  (1) 
0

>  <i_i_glide_confnum>  (1) 
1

>  <i_i_glide_lignum>  (1) 
31

>  <i_i_glide_posenum>  (1) 
102

>  <i_i_glide_rotatable_bonds>  (1) 
1

>  <i_lp_mmshare_version>  (1) 
72125

>  <i_m_source_file_index>  (1) 
28

>  <i_f3d_flags>  (1) 
0

>  <num_sample>  (1) 
50

>  <b_lp_Chiralities_Consistent>  (1) 
1

>  <r_epik_Charging_Adjusted_Penalty>  (1) 
0.000203171374695584

>  <r_epik_Ionization_Penalty>  (1) 
0.014901896624084464

>  <r_epik_Ionization_Penalty_Charging>  (1) 
0.000203171374695584

>  <r_epik_Ionization_Penalty_Neutral>  (1) 
0.01469872524938888

>  <r_epik_State_Penalty>  (1) 
-0

>  <r_glide_ring_energy>  (1) 
0

>  <r_i_docking_score>  (1) 
-4.8585168052790602

>  <r_i_glide_ecoul>  (1) 
-2.3572987157824605

>  <r_i_glide_eff_state_penalty>  (1) 
-0

>  <r_i_glide_einternal>  (1) 
0.0004016587228474755

>  <r_i_glide_emodel>  (1) 
-27.644376394978291

>  <r_i_glide_emodel_strain>  (1) 
3.765698863844591e-10

>  <r_i_glide_energy>  (1) 
-20.374465293326534

>  <r_i_glide_erotb>  (1) 
0

>  <r_i_glide_esite>  (1) 
0

>  <r_i_glide_evdw>  (1) 
-18.017166577544074

>  <r_i_glide_gscore>  (1) 
-4.8585168052790602

>  <r_i_glide_gscore_strain>  (1) 
0

>  <r_i_glide_hbond>  (1) 
0

>  <r_i_glide_ligand_efficiency>  (1) 
-0.60731460065988252

>  <r_i_glide_ligand_efficiency_ln>  (1) 
-1.5777265908508653

>  <r_i_glide_ligand_efficiency_sa>  (1) 
-1.2146292013197653

>  <r_i_glide_lipo>  (1) 
-1.3540636690344872

>  <r_i_glide_metal>  (1) 
-0

>  <r_i_glide_rewards>  (1) 
-2.25

>  <r_lp_Energy>  (1) 
11.500328

>  <r_lp_tautomer_probability>  (1) 
1

>  <s_epik_cmdline>  (1) 
J2VwaWtfcHl0aG9uJywgJy1waHQnLCAnMS4wJywgJy1waCcsICc3LjQnLCAnLXRuJywgJzgnLCAnLW1hJywgJzUwMCcsICctaW1hZScsICc8aW5maWxlLm1hZT4nLCAnLW9tYWUnLCAnPG91dGZpbGUubWFlPic=

>  <s_epik_input>  (1) 
W09IXWMxW2NIXW5bY0hdW2NIXWMxW09IXQ==

>  <s_glide_docking_method>  (1) 
confgen

>  <s_i_glide_gridfile>  (1) 
gpcr_drd2_6luq_protein_autoprepared_prepared

>  <s_lp_Force_Field>  (1) 
S-OPLS

>  <s_lp_Variant>  (1) 
Pocket2Mol_27_num_sample_50-1

>  <s_m_source_file>  (1) 
generated__ligand_Pocket2Mol_2026-05-06_prepared.sdf

>  <GenAI_Model>  (1) 
Pocket2Mol

>  <Protein>  (1) 
generic_title2

$$$$
Pocket2Mol_13_num_sample_50
     RDKit          3D

  0  0  0  0  0  0  0  0  0  0999 V3000
M  V30 BEGIN CTAB
M  V30 COUNTS 17 17 0 0 1
M  V30 BEGIN ATOM
M  V30 1 C 11.010403 7.400606 -5.894672 0
M  V30 2 O 9.802438 6.905090 -6.465020 0
M  V30 3 C 9.927017 6.459417 -7.813114 0
M  V30 4 C 10.431180 7.583582 -8.737602 0 CFG=1
M  V30 5 O 9.434951 8.566559 -8.952600 0
M  V30 6 C 11.503254 8.615286 -6.696281 0
M  V30 7 C 11.703766 8.236932 -8.167727 0
M  V30 8 H 10.806489 7.694254 -4.864422 0
M  V30 9 H 11.762453 6.610488 -5.854121 0
M  V30 10 H 8.968461 6.064266 -8.158776 0
M  V30 11 H 10.630066 5.626938 -7.840338 0
M  V30 12 H 10.661903 7.156805 -9.713737 0
M  V30 13 H 8.566714 8.168019 -9.091653 0
M  V30 14 H 10.781681 9.426809 -6.613398 0
M  V30 15 H 12.438640 8.986895 -6.275203 0
M  V30 16 H 12.530991 7.531390 -8.233386 0
M  V30 17 H 11.996928 9.107769 -8.755800 0
M  V30 END ATOM
M  V30 BEGIN BOND
M  V30 1 1 2 1
M  V30 2 1 3 2
M  V30 3 1 4 3
M  V30 4 1 5 4
M  V30 5 1 6 1
M  V30 6 1 7 4
M  V30 7 1 7 6
M  V30 8 1 8 1
M  V30 9 1 9 1
M  V30 10 1 10 3
M  V30 11 1 11 3
M  V30 12 1 4 12 CFG=3
M  V30 13 1 13 5
M  V30 14 1 14 6
M  V30 15 1 15 6
M  V30 16 1 16 7
M  V30 17 1 17 7
M  V30 END BOND
M  V30 END CTAB
M  END
>  <i_epik_Tot_Q>  (1) 
0

>  <i_epik_Tot_abs_Q>  (1) 
0

>  <i_i_glide_confnum>  (1) 
2

>  <i_i_glide_lignum>  (1) 
16

>  <i_i_glide_posenum>  (1) 
100

>  <i_i_glide_rotatable_bonds>  (1) 
1

>  <i_lp_mmshare_version>  (1) 
72125

>  <i_m_source_file_index>  (1) 
14

>  <i_f3d_flags>  (1) 
0

>  <num_sample>  (1) 
50

>  <b_lp_Chiralities_Consistent>  (1) 
1

>  <r_epik_Charging_Adjusted_Penalty>  (1) 
0

>  <r_epik_Ionization_Penalty>  (1) 
4.2263924331700322e-08

>  <r_epik_Ionization_Penalty_Charging>  (1) 
0

>  <r_epik_Ionization_Penalty_Neutral>  (1) 
4.2263924331700322e-08

>  <r_epik_State_Penalty>  (1) 
-0

>  <r_glide_ring_energy>  (1) 
0.68055942654544588

>  <r_i_docking_score>  (1) 
-4.8468651723817411

>  <r_i_glide_ecoul>  (1) 
-3.9147689146651761

>  <r_i_glide_eff_state_penalty>  (1) 
-0

>  <r_i_glide_einternal>  (1) 
0.35263797801621211

>  <r_i_glide_emodel>  (1) 
-24.169573512892242

>  <r_i_glide_emodel_strain>  (1) 
0.0067832016025199948

>  <r_i_glide_energy>  (1) 
-17.930475041868586

>  <r_i_glide_erotb>  (1) 
0

>  <r_i_glide_esite>  (1) 
0

>  <r_i_glide_evdw>  (1) 
-14.01570612720341

>  <r_i_glide_gscore>  (1) 
-4.8468651723817411

>  <r_i_glide_gscore_strain>  (1) 
0

>  <r_i_glide_hbond>  (1) 
-0.16

>  <r_i_glide_ligand_efficiency>  (1) 
-0.69240931034024877

>  <r_i_glide_ligand_efficiency_ln>  (1) 
-1.6452861516961137

>  <r_i_glide_ligand_efficiency_sa>  (1) 
-1.3245313609917864

>  <r_i_glide_lipo>  (1) 
-0.72386452882179464

>  <r_i_glide_metal>  (1) 
-0

>  <r_i_glide_rewards>  (1) 
-2.6749999999999998

>  <r_lp_Energy>  (1) 
6.7642049999999996

>  <r_lp_tautomer_probability>  (1) 
1

>  <s_epik_cmdline>  (1) 
J2VwaWtfcHl0aG9uJywgJy1waHQnLCAnMS4wJywgJy1waCcsICc3LjQnLCAnLXRuJywgJzgnLCAnLW1hJywgJzUwMCcsICctaW1hZScsICc8aW5maWxlLm1hZT4nLCAnLW9tYWUnLCAnPG91dGZpbGUubWFlPic=

>  <s_epik_input>  (1) 
W0NIMl0xW0NIMl1bQ0gyXU9bQ0gyXVtDQEhdMVtPSF0=

>  <s_glide_docking_method>  (1) 
confgen

>  <s_i_glide_gridfile>  (1) 
gpcr_drd2_6luq_protein_autoprepared_prepared

>  <s_lp_Force_Field>  (1) 
S-OPLS

>  <s_lp_Variant>  (1) 
Pocket2Mol_13_num_sample_50-1

>  <s_m_source_file>  (1) 
generated__ligand_Pocket2Mol_2026-05-06_prepared.sdf

>  <GenAI_Model>  (1) 
Pocket2Mol

>  <Protein>  (1) 
generic_title2

$$$$
Pocket2Mol_33_num_sample_50
     RDKit          3D

  0  0  0  0  0  0  0  0  0  0999 V3000
M  V30 BEGIN CTAB
M  V30 COUNTS 21 22 0 0 1
M  V30 BEGIN ATOM
M  V30 1 C 10.856893 7.993603 -9.988193 0
M  V30 2 O 9.834839 7.997463 -9.009629 0
M  V30 3 C 10.413913 7.673408 -7.754269 0 CFG=2
M  V30 4 C 10.254272 6.169301 -7.490246 0
M  V30 5 C 9.813005 8.525464 -6.652202 0
M  V30 6 C 12.013766 8.669088 -9.268401 0
M  V30 7 C 11.034838 9.013942 -5.882711 0
M  V30 8 C 11.865523 8.163451 -7.843072 0 CFG=1
M  V30 9 O 11.997515 9.221934 -6.900474 0
M  V30 10 H 10.544892 8.524408 -10.886206 0
M  V30 11 H 11.105781 6.969301 -10.263296 0
M  V30 12 H 10.739020 5.877200 -6.558496 0
M  V30 13 H 9.199681 5.900777 -7.415864 0
M  V30 14 H 10.682985 5.570582 -8.291661 0
M  V30 15 H 9.100406 7.989363 -6.024940 0
M  V30 16 H 9.286023 9.369300 -7.091830 0
M  V30 17 H 11.867893 9.749721 -9.301168 0
M  V30 18 H 12.985907 8.444386 -9.707442 0
M  V30 19 H 11.391160 8.247981 -5.192058 0
M  V30 20 H 10.840866 9.926388 -5.318217 0
M  V30 21 H 12.574599 7.369301 -7.614837 0
M  V30 END ATOM
M  V30 BEGIN BOND
M  V30 1 1 2 1
M  V30 2 1 3 2
M  V30 3 1 3 4 CFG=1
M  V30 4 1 5 3
M  V30 5 1 6 1
M  V30 6 1 7 5
M  V30 7 1 8 3
M  V30 8 1 8 6
M  V30 9 1 9 7
M  V30 10 1 9 8
M  V30 11 1 10 1
M  V30 12 1 11 1
M  V30 13 1 12 4
M  V30 14 1 13 4
M  V30 15 1 14 4
M  V30 16 1 15 5
M  V30 17 1 16 5
M  V30 18 1 17 6
M  V30 19 1 18 6
M  V30 20 1 19 7
M  V30 21 1 20 7
M  V30 22 1 8 21 CFG=1
M  V30 END BOND
M  V30 END CTAB
M  END
>  <i_epik_Tot_Q>  (1) 
0

>  <i_epik_Tot_abs_Q>  (1) 
0

>  <i_i_glide_confnum>  (1) 
4

>  <i_i_glide_lignum>  (1) 
37

>  <i_i_glide_posenum>  (1) 
72

>  <i_i_glide_rotatable_bonds>  (1) 
0

>  <i_lp_mmshare_version>  (1) 
72125

>  <i_m_source_file_index>  (1) 
34

>  <i_f3d_flags>  (1) 
0

>  <num_sample>  (1) 
50

>  <b_lp_Chiralities_Consistent>  (1) 
1

>  <r_epik_Charging_Adjusted_Penalty>  (1) 
0

>  <r_epik_Ionization_Penalty>  (1) 
2.529470820146915e-12

>  <r_epik_Ionization_Penalty_Charging>  (1) 
0

>  <r_epik_Ionization_Penalty_Neutral>  (1) 
2.529470820146915e-12

>  <r_epik_State_Penalty>  (1) 
-0

>  <r_glide_ring_energy>  (1) 
0.71124509259843272

>  <r_i_docking_score>  (1) 
-4.8412720013385977

>  <r_i_glide_ecoul>  (1) 
0.62202575806488114

>  <r_i_glide_eff_state_penalty>  (1) 
-0

>  <r_i_glide_einternal>  (1) 
0

>  <r_i_glide_emodel>  (1) 
-24.268834406620673

>  <r_i_glide_emodel_strain>  (1) 
0

>  <r_i_glide_energy>  (1) 
-18.732651823866671

>  <r_i_glide_erotb>  (1) 
0

>  <r_i_glide_esite>  (1) 
0

>  <r_i_glide_evdw>  (1) 
-19.354677581931554

>  <r_i_glide_gscore>  (1) 
-4.8412720013385977

>  <r_i_glide_gscore_strain>  (1) 
0

>  <r_i_glide_hbond>  (1) 
0

>  <r_i_glide_ligand_efficiency>  (1) 
-0.53791911125984415

>  <r_i_glide_ligand_efficiency_ln>  (1) 
-1.5142108051015055

>  <r_i_glide_ligand_efficiency_sa>  (1) 
-1.1189168414420594

>  <r_i_glide_lipo>  (1) 
-1.075175319285085

>  <r_i_glide_metal>  (1) 
-0

>  <r_i_glide_rewards>  (1) 
-2.8916666666666666

>  <r_lp_Energy>  (1) 
-0.369228

>  <r_lp_tautomer_probability>  (1) 
1

>  <s_epik_cmdline>  (1) 
J2VwaWtfcHl0aG9uJywgJy1waHQnLCAnMS4wJywgJy1waCcsICc3LjQnLCAnLXRuJywgJzgnLCAnLW1hJywgJzUwMCcsICctaW1hZScsICc8aW5maWxlLm1hZT4nLCAnLW9tYWUnLCAnPG91dGZpbGUubWFlPic=

>  <s_epik_input>  (1) 
TzFbQ0gyXVtDSDJdW0NASF0oW0NAXTEyW0NIM10pT1tDSDJdW0NIMl0y

>  <s_glide_docking_method>  (1) 
confgen

>  <s_i_glide_gridfile>  (1) 
gpcr_drd2_6luq_protein_autoprepared_prepared

>  <s_lp_Force_Field>  (1) 
S-OPLS

>  <s_lp_Variant>  (1) 
Pocket2Mol_33_num_sample_50-1

>  <s_m_source_file>  (1) 
generated__ligand_Pocket2Mol_2026-05-06_prepared.sdf

>  <GenAI_Model>  (1) 
Pocket2Mol

>  <Protein>  (1) 
generic_title2

$$$$
Pocket2Mol_35_num_sample_50
     RDKit          3D

  0  0  0  0  0  0  0  0  0  0999 V3000
M  V30 BEGIN CTAB
M  V30 COUNTS 15 16 0 0 1
M  V30 BEGIN ATOM
M  V30 1 C 12.491293 8.569284 -2.109191 0
M  V30 2 O 12.234837 9.637346 -3.069358 0
M  V30 3 C 11.834841 8.909207 -4.112671 0
M  V30 4 C 11.834839 7.593568 -3.891668 0
M  V30 5 C 11.433848 6.679645 -4.877364 0
M  V30 6 C 11.020205 7.174015 -6.136816 0
M  V30 7 C 11.021090 8.573775 -6.372757 0
M  V30 8 C 11.434921 9.453019 -5.344513 0
M  V30 9 O 12.239303 7.243413 -2.666395 0
M  V30 10 H 11.848296 8.718035 -1.240354 0
M  V30 11 H 13.529641 8.630705 -1.784405 0
M  V30 12 H 11.438770 5.621480 -4.677545 0
M  V30 13 H 10.704602 6.491147 -6.912423 0
M  V30 14 H 10.706092 8.964483 -7.329569 0
M  V30 15 H 11.440339 10.521500 -5.502394 0
M  V30 END ATOM
M  V30 BEGIN BOND
M  V30 1 1 2 1
M  V30 2 1 3 2
M  V30 3 1 4 3
M  V30 4 2 5 4
M  V30 5 1 6 5
M  V30 6 2 7 6
M  V30 7 2 8 3
M  V30 8 1 8 7
M  V30 9 1 9 1
M  V30 10 1 9 4
M  V30 11 1 10 1
M  V30 12 1 11 1
M  V30 13 1 12 5
M  V30 14 1 13 6
M  V30 15 1 14 7
M  V30 16 1 15 8
M  V30 END BOND
M  V30 END CTAB
M  END
>  <i_epik_Tot_Q>  (1) 
0

>  <i_epik_Tot_abs_Q>  (1) 
0

>  <i_i_glide_confnum>  (1) 
1

>  <i_i_glide_lignum>  (1) 
40

>  <i_i_glide_posenum>  (1) 
240

>  <i_i_glide_rotatable_bonds>  (1) 
0

>  <i_lp_mmshare_version>  (1) 
72125

>  <i_m_source_file_index>  (1) 
36

>  <i_f3d_flags>  (1) 
0

>  <num_sample>  (1) 
50

>  <b_lp_Chiralities_Consistent>  (1) 
1

>  <r_epik_Charging_Adjusted_Penalty>  (1) 
0

>  <r_epik_Ionization_Penalty>  (1) 
0

>  <r_epik_Ionization_Penalty_Charging>  (1) 
0

>  <r_epik_Ionization_Penalty_Neutral>  (1) 
0

>  <r_epik_State_Penalty>  (1) 
-0

>  <r_glide_ring_energy>  (1) 
0

>  <r_i_docking_score>  (1) 
-4.8164177495887337

>  <r_i_glide_ecoul>  (1) 
-0.94766449008460718

>  <r_i_glide_eff_state_penalty>  (1) 
-0

>  <r_i_glide_einternal>  (1) 
0

>  <r_i_glide_emodel>  (1) 
-26.174806093745012

>  <r_i_glide_emodel_strain>  (1) 
0

>  <r_i_glide_energy>  (1) 
-20.01835373814324

>  <r_i_glide_erotb>  (1) 
0

>  <r_i_glide_esite>  (1) 
0

>  <r_i_glide_evdw>  (1) 
-19.070689248058631

>  <r_i_glide_gscore>  (1) 
-4.8164177495887337

>  <r_i_glide_gscore_strain>  (1) 
0

>  <r_i_glide_hbond>  (1) 
0

>  <r_i_glide_ligand_efficiency>  (1) 
-0.53515752773208147

>  <r_i_glide_ligand_efficiency_ln>  (1) 
-1.5064371091509472

>  <r_i_glide_ligand_efficiency_sa>  (1) 
-1.1131725162199537

>  <r_i_glide_lipo>  (1) 
-1.6207336136731105

>  <r_i_glide_metal>  (1) 
-0

>  <r_i_glide_rewards>  (1) 
-2.1000000000000001

>  <r_lp_Energy>  (1) 
19.342482

>  <r_lp_tautomer_probability>  (1) 
1

>  <s_epik_Chemistry_Notes>  (1) 
This compound contains an acetal/aminal-like group ( X-CH(R)-Y where X, Y are N, S, or O) that may be acid/base labile, releasing an aldehyde.

>  <s_epik_cmdline>  (1) 
J2VwaWtfcHl0aG9uJywgJy1waHQnLCAnMS4wJywgJy1waCcsICc3LjQnLCAnLXRuJywgJzgnLCAnLW1hJywgJzUwMCcsICctaW1hZScsICc8aW5maWxlLm1hZT4nLCAnLW9tYWUnLCAnPG91dGZpbGUubWFlPic=

>  <s_epik_input>  (1) 
TzFbQ0gyXU9jKGMxMilbY0hdW2NIXVtjSF1bY0hdMg==

>  <s_glide_docking_method>  (1) 
confgen

>  <s_i_glide_gridfile>  (1) 
gpcr_drd2_6luq_protein_autoprepared_prepared

>  <s_lp_Force_Field>  (1) 
S-OPLS

>  <s_lp_Variant>  (1) 
Pocket2Mol_35_num_sample_50-1

>  <s_m_source_file>  (1) 
generated__ligand_Pocket2Mol_2026-05-06_prepared.sdf

>  <GenAI_Model>  (1) 
Pocket2Mol

>  <Protein>  (1) 
generic_title2

$$$$
Pocket2Mol_41_num_sample_50
     RDKit          3D

  0  0  0  0  0  0  0  0  0  0999 V3000
M  V30 BEGIN CTAB
M  V30 COUNTS 23 24 0 0 1
M  V30 BEGIN ATOM
M  V30 1 C 10.922076 7.981543 -10.015124 0
M  V30 2 O 9.834838 7.944137 -9.112453 0
M  V30 3 C 10.332988 7.671694 -7.810947 0 CFG=2
M  V30 4 C 10.206658 6.169302 -7.525755 0
M  V30 5 C 9.584635 8.509218 -6.773669 0
M  V30 6 C 12.003263 8.702510 -9.223450 0
M  V30 7 C 10.670818 8.969301 -5.802619 0
M  V30 8 C 11.784508 8.187483 -7.805977 0 CFG=1
M  V30 9 C 11.876848 9.244621 -6.691660 0
M  V30 10 H 11.231205 6.969303 -10.267926 0
M  V30 11 H 10.640204 8.495199 -10.933117 0
M  V30 12 H 10.609435 5.915372 -6.545127 0
M  V30 13 H 9.161347 5.858947 -7.545072 0
M  V30 14 H 10.733149 5.574006 -8.269899 0
M  V30 15 H 9.134708 9.369300 -7.267839 0
M  V30 16 H 8.771631 7.965651 -6.291669 0
M  V30 17 H 13.007783 8.506333 -9.599258 0
M  V30 18 H 11.827278 9.775822 -9.286447 0
M  V30 19 H 10.379797 9.841490 -5.218481 0
M  V30 20 H 10.902499 8.164222 -5.103974 0
M  V30 21 H 12.471483 7.369298 -7.594762 0
M  V30 22 H 11.809481 10.253844 -7.091648 0
M  V30 23 H 12.814633 9.198201 -6.141141 0
M  V30 END ATOM
M  V30 BEGIN BOND
M  V30 1 1 2 1
M  V30 2 1 3 2
M  V30 3 1 3 4 CFG=1
M  V30 4 1 5 3
M  V30 5 1 6 1
M  V30 6 1 7 5
M  V30 7 1 8 3
M  V30 8 1 8 6
M  V30 9 1 9 7
M  V30 10 1 9 8
M  V30 11 1 10 1
M  V30 12 1 11 1
M  V30 13 1 12 4
M  V30 14 1 13 4
M  V30 15 1 14 4
M  V30 16 1 15 5
M  V30 17 1 16 5
M  V30 18 1 17 6
M  V30 19 1 18 6
M  V30 20 1 19 7
M  V30 21 1 20 7
M  V30 22 1 8 21 CFG=1
M  V30 23 1 22 9
M  V30 24 1 23 9
M  V30 END BOND
M  V30 END CTAB
M  END
>  <i_epik_Tot_Q>  (1) 
0

>  <i_epik_Tot_abs_Q>  (1) 
0

>  <i_i_glide_confnum>  (1) 
4

>  <i_i_glide_lignum>  (1) 
46

>  <i_i_glide_posenum>  (1) 
11

>  <i_i_glide_rotatable_bonds>  (1) 
0

>  <i_lp_mmshare_version>  (1) 
72125

>  <i_m_source_file_index>  (1) 
42

>  <i_f3d_flags>  (1) 
0

>  <num_sample>  (1) 
50

>  <b_lp_Chiralities_Consistent>  (1) 
1

>  <r_epik_Charging_Adjusted_Penalty>  (1) 
0

>  <r_epik_Ionization_Penalty>  (1) 
2.4347883345708157e-11

>  <r_epik_Ionization_Penalty_Charging>  (1) 
0

>  <r_epik_Ionization_Penalty_Neutral>  (1) 
2.4347883345708157e-11

>  <r_epik_State_Penalty>  (1) 
-0

>  <r_glide_ring_energy>  (1) 
1.4300080397860451

>  <r_i_docking_score>  (1) 
-4.8161218263735286

>  <r_i_glide_ecoul>  (1) 
1.2718454105564154

>  <r_i_glide_eff_state_penalty>  (1) 
-0

>  <r_i_glide_einternal>  (1) 
0

>  <r_i_glide_emodel>  (1) 
-22.296578500606977

>  <r_i_glide_emodel_strain>  (1) 
0

>  <r_i_glide_energy>  (1) 
-17.198524723152506

>  <r_i_glide_erotb>  (1) 
0

>  <r_i_glide_esite>  (1) 
0

>  <r_i_glide_evdw>  (1) 
-18.470370133708922

>  <r_i_glide_gscore>  (1) 
-4.8161218263735286

>  <r_i_glide_gscore_strain>  (1) 
0

>  <r_i_glide_hbond>  (1) 
0

>  <r_i_glide_ligand_efficiency>  (1) 
-0.53512464737483656

>  <r_i_glide_ligand_efficiency_ln>  (1) 
-1.506344552870321

>  <r_i_glide_ligand_efficiency_sa>  (1) 
-1.1131041223207523

>  <r_i_glide_lipo>  (1) 
-1.1833801312715448

>  <r_i_glide_metal>  (1) 
-0

>  <r_i_glide_rewards>  (1) 
-2.8999999999999999

>  <r_lp_Energy>  (1) 
5.4699619999999998

>  <r_lp_tautomer_probability>  (1) 
1

>  <s_epik_cmdline>  (1) 
J2VwaWtfcHl0aG9uJywgJy1waHQnLCAnMS4wJywgJy1waCcsICc3LjQnLCAnLXRuJywgJzgnLCAnLW1hJywgJzUwMCcsICctaW1hZScsICc8aW5maWxlLm1hZT4nLCAnLW9tYWUnLCAnPG91dGZpbGUubWFlPic=

>  <s_epik_input>  (1) 
TzFbQ0gyXVtDSDJdW0NASF0oW0NAXTEyW0NIM10pW0NIMl1bQ0gyXVtDSDJdMg==

>  <s_glide_docking_method>  (1) 
confgen

>  <s_i_glide_gridfile>  (1) 
gpcr_drd2_6luq_protein_autoprepared_prepared

>  <s_lp_Force_Field>  (1) 
S-OPLS

>  <s_lp_Variant>  (1) 
Pocket2Mol_41_num_sample_50-1

>  <s_m_source_file>  (1) 
generated__ligand_Pocket2Mol_2026-05-06_prepared.sdf

>  <GenAI_Model>  (1) 
Pocket2Mol

>  <Protein>  (1) 
generic_title2

$$$$
Pocket2Mol_41_num_sample_50
     RDKit          3D

  0  0  0  0  0  0  0  0  0  0999 V3000
M  V30 BEGIN CTAB
M  V30 COUNTS 23 24 0 0 1
M  V30 BEGIN ATOM
M  V30 1 C 12.629847 8.263119 -8.797671 0
M  V30 2 O 12.189293 7.917685 -7.491667 0
M  V30 3 C 10.771620 7.745401 -7.466551 0 CFG=2
M  V30 4 C 10.234111 8.569299 -6.291670 0
M  V30 5 C 10.407965 6.253359 -7.365497 0
M  V30 6 C 11.440421 8.965298 -9.425495 0
M  V30 7 C 9.434839 5.971730 -8.511071 0
M  V30 8 C 10.255280 8.229407 -8.828698 0 CFG=1
M  V30 9 C 9.834827 6.969278 -9.595360 0
M  V30 10 H 13.519880 8.890924 -8.760180 0
M  V30 11 H 12.872172 7.369307 -9.367621 0
M  V30 12 H 9.144279 8.534434 -6.255009 0
M  V30 13 H 10.615118 8.189801 -5.343378 0
M  V30 14 H 10.536987 9.613195 -6.371169 0
M  V30 15 H 11.304024 5.646711 -7.491638 0
M  V30 16 H 9.977958 5.988451 -6.399114 0
M  V30 17 H 11.434931 10.009232 -9.115824 0
M  V30 18 H 11.462757 8.933977 -10.512223 0
M  V30 19 H 9.479046 4.937619 -8.854420 0
M  V30 20 H 8.411980 6.169327 -8.186309 0
M  V30 21 H 9.388218 8.884056 -8.721287 0
M  V30 22 H 10.665448 6.569302 -10.170104 0
M  V30 23 H 9.031130 7.167288 -10.301983 0
M  V30 END ATOM
M  V30 BEGIN BOND
M  V30 1 1 2 1
M  V30 2 1 3 2
M  V30 3 1 3 4 CFG=1
M  V30 4 1 5 3
M  V30 5 1 6 1
M  V30 6 1 7 5
M  V30 7 1 8 3
M  V30 8 1 8 6
M  V30 9 1 9 7
M  V30 10 1 9 8
M  V30 11 1 10 1
M  V30 12 1 11 1
M  V30 13 1 12 4
M  V30 14 1 13 4
M  V30 15 1 14 4
M  V30 16 1 15 5
M  V30 17 1 16 5
M  V30 18 1 17 6
M  V30 19 1 18 6
M  V30 20 1 19 7
M  V30 21 1 20 7
M  V30 22 1 8 21 CFG=1
M  V30 23 1 22 9
M  V30 24 1 23 9
M  V30 END BOND
M  V30 END CTAB
M  END
>  <i_epik_Tot_Q>  (1) 
0

>  <i_epik_Tot_abs_Q>  (1) 
0

>  <i_i_glide_confnum>  (1) 
3

>  <i_i_glide_lignum>  (1) 
46

>  <i_i_glide_posenum>  (1) 
345

>  <i_i_glide_rotatable_bonds>  (1) 
0

>  <i_lp_mmshare_version>  (1) 
72125

>  <i_m_source_file_index>  (1) 
42

>  <i_f3d_flags>  (1) 
0

>  <num_sample>  (1) 
50

>  <b_lp_Chiralities_Consistent>  (1) 
1

>  <r_epik_Charging_Adjusted_Penalty>  (1) 
0

>  <r_epik_Ionization_Penalty>  (1) 
2.4347883345708157e-11

>  <r_epik_Ionization_Penalty_Charging>  (1) 
0

>  <r_epik_Ionization_Penalty_Neutral>  (1) 
2.4347883345708157e-11

>  <r_epik_State_Penalty>  (1) 
-0

>  <r_glide_ring_energy>  (1) 
1.1035134730129632

>  <r_i_docking_score>  (1) 
-4.8155295569643801

>  <r_i_glide_ecoul>  (1) 
-0.69460569662176586

>  <r_i_glide_eff_state_penalty>  (1) 
-0

>  <r_i_glide_einternal>  (1) 
0

>  <r_i_glide_emodel>  (1) 
-23.47648808216038

>  <r_i_glide_emodel_strain>  (1) 
0

>  <r_i_glide_energy>  (1) 
-18.37906124509642

>  <r_i_glide_erotb>  (1) 
0

>  <r_i_glide_esite>  (1) 
0

>  <r_i_glide_evdw>  (1) 
-17.684455548474652

>  <r_i_glide_gscore>  (1) 
-4.8155295569643801

>  <r_i_glide_gscore_strain>  (1) 
0

>  <r_i_glide_hbond>  (1) 
0

>  <r_i_glide_ligand_efficiency>  (1) 
-0.53505883966270895

>  <r_i_glide_ligand_efficiency_ln>  (1) 
-1.5061593080134701

>  <r_i_glide_ligand_efficiency_sa>  (1) 
-1.1129672367633234

>  <r_i_glide_lipo>  (1) 
-0.93213192941933054

>  <r_i_glide_metal>  (1) 
-0

>  <r_i_glide_rewards>  (1) 
-2.8949839956280514

>  <r_lp_Energy>  (1) 
5.4699619999999998

>  <r_lp_tautomer_probability>  (1) 
1

>  <s_epik_cmdline>  (1) 
J2VwaWtfcHl0aG9uJywgJy1waHQnLCAnMS4wJywgJy1waCcsICc3LjQnLCAnLXRuJywgJzgnLCAnLW1hJywgJzUwMCcsICctaW1hZScsICc8aW5maWxlLm1hZT4nLCAnLW9tYWUnLCAnPG91dGZpbGUubWFlPic=

>  <s_epik_input>  (1) 
TzFbQ0gyXVtDSDJdW0NASF0oW0NAXTEyW0NIM10pW0NIMl1bQ0gyXVtDSDJdMg==

>  <s_glide_docking_method>  (1) 
confgen

>  <s_i_glide_gridfile>  (1) 
gpcr_drd2_6luq_protein_autoprepared_prepared

>  <s_lp_Force_Field>  (1) 
S-OPLS

>  <s_lp_Variant>  (1) 
Pocket2Mol_41_num_sample_50-1

>  <s_m_source_file>  (1) 
generated__ligand_Pocket2Mol_2026-05-06_prepared.sdf

>  <GenAI_Model>  (1) 
Pocket2Mol

>  <Protein>  (1) 
generic_title2

$$$$
Pocket2Mol_7_num_sample_50
     RDKit          3D

  0  0  0  0  0  0  0  0  0  0999 V3000
M  V30 BEGIN CTAB
M  V30 COUNTS 13 13 0 0 1
M  V30 BEGIN ATOM
M  V30 1 N 10.349212 8.569300 -6.955135 0
M  V30 2 C 11.063119 9.140724 -5.942945 0
M  V30 3 C 11.434837 8.324866 -5.002459 0
M  V30 4 C 10.326526 7.340427 -6.526598 0
M  V30 5 C 12.233923 8.714480 -3.774637 0
M  V30 6 C 11.028954 6.920469 -5.177565 0
M  V30 7 H 11.272181 10.200648 -5.976500 0
M  V30 8 H 9.823585 6.537047 -7.071301 0
M  V30 9 H 13.150314 8.127782 -3.721032 0
M  V30 10 H 12.505961 9.769388 -3.798777 0
M  V30 11 H 11.661382 8.530524 -2.866130 0
M  V30 12 H 10.315970 6.566212 -4.433283 0
M  V30 13 H 11.852069 6.226075 -5.336826 0
M  V30 END ATOM
M  V30 BEGIN BOND
M  V30 1 1 2 1
M  V30 2 2 3 2
M  V30 3 2 4 1
M  V30 4 1 5 3
M  V30 5 1 6 3
M  V30 6 1 6 4
M  V30 7 1 7 2
M  V30 8 1 8 4
M  V30 9 1 9 5
M  V30 10 1 10 5
M  V30 11 1 11 5
M  V30 12 1 12 6
M  V30 13 1 13 6
M  V30 END BOND
M  V30 END CTAB
M  END
>  <i_epik_Tot_Q>  (1) 
0

>  <i_epik_Tot_abs_Q>  (1) 
0

>  <i_i_glide_confnum>  (1) 
1

>  <i_i_glide_lignum>  (1) 
8

>  <i_i_glide_posenum>  (1) 
71

>  <i_i_glide_rotatable_bonds>  (1) 
0

>  <i_lp_mmshare_version>  (1) 
72125

>  <i_m_source_file_index>  (1) 
8

>  <i_f3d_flags>  (1) 
0

>  <num_sample>  (1) 
50

>  <b_lp_Chiralities_Consistent>  (1) 
1

>  <r_epik_Charging_Adjusted_Penalty>  (1) 
0

>  <r_epik_Ionization_Penalty>  (1) 
0

>  <r_epik_Ionization_Penalty_Charging>  (1) 
0

>  <r_epik_Ionization_Penalty_Neutral>  (1) 
0

>  <r_epik_State_Penalty>  (1) 
-0

>  <r_glide_ring_energy>  (1) 
0

>  <r_i_docking_score>  (1) 
-4.8081266832656926

>  <r_i_glide_ecoul>  (1) 
-0.40619616425478999

>  <r_i_glide_eff_state_penalty>  (1) 
-0

>  <r_i_glide_einternal>  (1) 
0

>  <r_i_glide_emodel>  (1) 
-21.30467517937192

>  <r_i_glide_emodel_strain>  (1) 
9.2582581601163838e-09

>  <r_i_glide_energy>  (1) 
-16.015369532883753

>  <r_i_glide_erotb>  (1) 
0

>  <r_i_glide_esite>  (1) 
0

>  <r_i_glide_evdw>  (1) 
-15.609173368628964

>  <r_i_glide_gscore>  (1) 
-4.8081266832656926

>  <r_i_glide_gscore_strain>  (1) 
0

>  <r_i_glide_hbond>  (1) 
0

>  <r_i_glide_ligand_efficiency>  (1) 
-0.80135444721094873

>  <r_i_glide_ligand_efficiency_ln>  (1) 
-1.722256783316358

>  <r_i_glide_ligand_efficiency_sa>  (1) 
-1.4561576681846309

>  <r_i_glide_lipo>  (1) 
-1.1882920634003848

>  <r_i_glide_metal>  (1) 
-0

>  <r_i_glide_rewards>  (1) 
-2.7784465267956406

>  <r_lp_Energy>  (1) 
-3.9959819999999997

>  <r_lp_tautomer_probability>  (1) 
1

>  <s_epik_Chemistry_Notes>  (1) 
This compound has an imine and may undergo hydrolysis.

>  <s_epik_cmdline>  (1) 
J2VwaWtfcHl0aG9uJywgJy1waHQnLCAnMS4wJywgJy1waCcsICc3LjQnLCAnLXRuJywgJzgnLCAnLW1hJywgJzUwMCcsICctaW1hZScsICc8aW5maWxlLm1hZT4nLCAnLW9tYWUnLCAnPG91dGZpbGUubWFlPic=

>  <s_epik_input>  (1) 
W0NIMl0xW0NIXT1OW0NIXT1DMVtDSDNd

>  <s_glide_docking_method>  (1) 
confgen

>  <s_i_glide_gridfile>  (1) 
gpcr_drd2_6luq_protein_autoprepared_prepared

>  <s_lp_Force_Field>  (1) 
S-OPLS

>  <s_lp_Variant>  (1) 
Pocket2Mol_7_num_sample_50-1

>  <s_m_source_file>  (1) 
generated__ligand_Pocket2Mol_2026-05-06_prepared.sdf

>  <GenAI_Model>  (1) 
Pocket2Mol

>  <Protein>  (1) 
generic_title2

$$$$
Pocket2Mol_16_num_sample_50
     RDKit          3D

  0  0  0  0  0  0  0  0  0  0999 V3000
M  V30 BEGIN CTAB
M  V30 COUNTS 12 12 0 0 1
M  V30 BEGIN ATOM
M  V30 1 N 11.137635 8.612406 -5.880817 0
M  V30 2 C 11.835045 9.467499 -5.037664 0
M  V30 3 C 12.354097 9.081055 -3.853130 0
M  V30 4 C 12.182543 7.678123 -3.411088 0
M  V30 5 O 12.634839 7.273710 -2.342047 0
M  V30 6 C 10.961673 7.291070 -5.491482 0
M  V30 7 C 11.434857 6.790326 -4.330781 0
M  V30 8 H 11.929335 10.476971 -5.410440 0
M  V30 9 H 12.892201 9.769263 -3.218063 0
M  V30 10 H 10.765635 8.945023 -6.760074 0
M  V30 11 H 10.409923 6.690626 -6.199951 0
M  V30 12 H 11.282290 5.757396 -4.054596 0
M  V30 END ATOM
M  V30 BEGIN BOND
M  V30 1 1 2 1
M  V30 2 2 3 2
M  V30 3 1 4 3
M  V30 4 2 5 4
M  V30 5 1 6 1
M  V30 6 1 7 4
M  V30 7 2 7 6
M  V30 8 1 8 2
M  V30 9 1 9 3
M  V30 10 1 10 1
M  V30 11 1 11 6
M  V30 12 1 12 7
M  V30 END BOND
M  V30 END CTAB
M  END
>  <i_epik_Tot_Q>  (1) 
0

>  <i_epik_Tot_abs_Q>  (1) 
0

>  <i_i_glide_confnum>  (1) 
1

>  <i_i_glide_lignum>  (1) 
19

>  <i_i_glide_posenum>  (1) 
331

>  <i_i_glide_rotatable_bonds>  (1) 
0

>  <i_lp_mmshare_version>  (1) 
72125

>  <i_m_source_file_index>  (1) 
17

>  <i_f3d_flags>  (1) 
0

>  <num_sample>  (1) 
50

>  <b_lp_Chiralities_Consistent>  (1) 
1

>  <r_epik_Charging_Adjusted_Penalty>  (1) 
0.00011828912318149299

>  <r_epik_Ionization_Penalty>  (1) 
0.00011828912318149299

>  <r_epik_Ionization_Penalty_Charging>  (1) 
0.00011828912318149299

>  <r_epik_Ionization_Penalty_Neutral>  (1) 
0

>  <r_epik_State_Penalty>  (1) 
-0

>  <r_glide_ring_energy>  (1) 
0

>  <r_i_docking_score>  (1) 
-4.8010018566927055

>  <r_i_glide_ecoul>  (1) 
-0.88609513977352417

>  <r_i_glide_eff_state_penalty>  (1) 
-0

>  <r_i_glide_einternal>  (1) 
0

>  <r_i_glide_emodel>  (1) 
-24.051991256679621

>  <r_i_glide_emodel_strain>  (1) 
0

>  <r_i_glide_energy>  (1) 
-18.013719366309175

>  <r_i_glide_erotb>  (1) 
0

>  <r_i_glide_esite>  (1) 
0

>  <r_i_glide_evdw>  (1) 
-17.127624226535652

>  <r_i_glide_gscore>  (1) 
-4.8010018566927055

>  <r_i_glide_gscore_strain>  (1) 
0

>  <r_i_glide_hbond>  (1) 
0

>  <r_i_glide_ligand_efficiency>  (1) 
-0.6858574080989579

>  <r_i_glide_ligand_efficiency_ln>  (1) 
-1.6297176810474949

>  <r_i_glide_ligand_efficiency_sa>  (1) 
-1.3119980228879449

>  <r_i_glide_lipo>  (1) 
-1.561706374399894

>  <r_i_glide_metal>  (1) 
-0

>  <r_i_glide_rewards>  (1) 
-2.25

>  <r_lp_Energy>  (1) 
8.1847359999999991

>  <r_lp_tautomer_probability>  (1) 
1

>  <s_epik_cmdline>  (1) 
J2VwaWtfcHl0aG9uJywgJy1waHQnLCAnMS4wJywgJy1waCcsICc3LjQnLCAnLXRuJywgJzgnLCAnLW1hJywgJzUwMCcsICctaW1hZScsICc8aW5maWxlLm1hZT4nLCAnLW9tYWUnLCAnPG91dGZpbGUubWFlPic=

>  <s_epik_input>  (1) 
W2NIXTFbY0hdbltjSF1bY0hdYzFbT0hd

>  <s_glide_docking_method>  (1) 
confgen

>  <s_i_glide_gridfile>  (1) 
gpcr_drd2_6luq_protein_autoprepared_prepared

>  <s_lp_Force_Field>  (1) 
S-OPLS

>  <s_lp_Variant>  (1) 
Pocket2Mol_16_num_sample_50-1

>  <s_m_source_file>  (1) 
generated__ligand_Pocket2Mol_2026-05-06_prepared.sdf

>  <GenAI_Model>  (1) 
Pocket2Mol

>  <Protein>  (1) 
generic_title2

$$$$
Pocket2Mol_23_num_sample_50
     RDKit          3D

  0  0  0  0  0  0  0  0  0  0999 V3000
M  V30 BEGIN CTAB
M  V30 COUNTS 15 16 0 0 1
M  V30 BEGIN ATOM
M  V30 1 C 9.488141 8.481646 -6.716479 0
M  V30 2 O 10.634841 9.281417 -6.411989 0
M  V30 3 C 11.806768 8.767967 -7.044774 0 CFG=2
M  V30 4 C 11.752570 8.452523 -8.523041 0 CFG=1
M  V30 5 O 13.034839 8.308254 -9.101900 0
M  V30 6 C 10.027602 7.102936 -7.082073 0
M  V30 7 C 11.434838 7.384980 -7.491664 0 CFG=2
M  V30 8 H 8.778222 8.453568 -5.891686 0
M  V30 9 H 8.977022 8.923140 -7.573367 0
M  V30 10 H 12.749849 8.969307 -6.543172 0
M  V30 11 H 10.978672 8.875916 -9.161268 0
M  V30 12 H 13.357256 9.163338 -9.362385 0
M  V30 13 H 10.032792 6.446149 -6.211460 0
M  V30 14 H 9.461217 6.624965 -7.882298 0
M  V30 15 H 12.154421 6.589630 -7.317186 0
M  V30 END ATOM
M  V30 BEGIN BOND
M  V30 1 1 2 1
M  V30 2 1 3 2
M  V30 3 1 4 3
M  V30 4 1 5 4
M  V30 5 1 6 1
M  V30 6 1 7 3
M  V30 7 1 7 4
M  V30 8 1 7 6
M  V30 9 1 8 1
M  V30 10 1 9 1
M  V30 11 1 3 10 CFG=1
M  V30 12 1 4 11 CFG=3
M  V30 13 1 12 5
M  V30 14 1 13 6
M  V30 15 1 14 6
M  V30 16 1 7 15 CFG=1
M  V30 END BOND
M  V30 END CTAB
M  END
>  <i_epik_Tot_Q>  (1) 
0

>  <i_epik_Tot_abs_Q>  (1) 
0

>  <i_i_glide_confnum>  (1) 
1

>  <i_i_glide_lignum>  (1) 
27

>  <i_i_glide_posenum>  (1) 
9

>  <i_i_glide_rotatable_bonds>  (1) 
1

>  <i_lp_mmshare_version>  (1) 
72125

>  <i_m_source_file_index>  (1) 
24

>  <i_f3d_flags>  (1) 
0

>  <num_sample>  (1) 
50

>  <b_lp_Chiralities_Consistent>  (1) 
1

>  <r_epik_Charging_Adjusted_Penalty>  (1) 
0

>  <r_epik_Ionization_Penalty>  (1) 
4.3639151522347116e-08

>  <r_epik_Ionization_Penalty_Charging>  (1) 
0

>  <r_epik_Ionization_Penalty_Neutral>  (1) 
4.3639151522347116e-08

>  <r_epik_State_Penalty>  (1) 
-0

>  <r_glide_ring_energy>  (1) 
0

>  <r_i_docking_score>  (1) 
-4.7982728163657447

>  <r_i_glide_ecoul>  (1) 
-3.5996631211477785

>  <r_i_glide_eff_state_penalty>  (1) 
-0

>  <r_i_glide_einternal>  (1) 
0.16920342446816389

>  <r_i_glide_emodel>  (1) 
-24.180645893878363

>  <r_i_glide_emodel_strain>  (1) 
0

>  <r_i_glide_energy>  (1) 
-17.73462218179186

>  <r_i_glide_erotb>  (1) 
0

>  <r_i_glide_esite>  (1) 
0

>  <r_i_glide_evdw>  (1) 
-14.13495906064408

>  <r_i_glide_gscore>  (1) 
-4.7982728163657447

>  <r_i_glide_gscore_strain>  (1) 
0

>  <r_i_glide_hbond>  (1) 
-0.26939454366973059

>  <r_i_glide_ligand_efficiency>  (1) 
-0.68546754519510633

>  <r_i_glide_ligand_efficiency_ln>  (1) 
-1.6287912983036641

>  <r_i_glide_ligand_efficiency_sa>  (1) 
-1.3112522419821611

>  <r_i_glide_lipo>  (1) 
-0.71551418482497708

>  <r_i_glide_metal>  (1) 
-0

>  <r_i_glide_rewards>  (1) 
-2.5666666666666664

>  <r_lp_Energy>  (1) 
3.2309049999999999

>  <r_lp_tautomer_probability>  (1) 
1

>  <s_epik_cmdline>  (1) 
J2VwaWtfcHl0aG9uJywgJy1waHQnLCAnMS4wJywgJy1waCcsICc3LjQnLCAnLXRuJywgJzgnLCAnLW1hJywgJzUwMCcsICctaW1hZScsICc8aW5maWxlLm1hZT4nLCAnLW9tYWUnLCAnPG91dGZpbGUubWFlPic=

>  <s_epik_input>  (1) 
TzFbQ0gyXVtDSDJdW0NIXShbQ0BIXTEyKVtDQEBIXTJbT0hd

>  <s_glide_docking_method>  (1) 
confgen

>  <s_i_glide_gridfile>  (1) 
gpcr_drd2_6luq_protein_autoprepared_prepared

>  <s_lp_Force_Field>  (1) 
S-OPLS

>  <s_lp_Variant>  (1) 
Pocket2Mol_23_num_sample_50-1

>  <s_m_source_file>  (1) 
generated__ligand_Pocket2Mol_2026-05-06_prepared.sdf

>  <GenAI_Model>  (1) 
Pocket2Mol

>  <Protein>  (1) 
generic_title2

$$$$
Pocket2Mol_34_num_sample_50
     RDKit          3D

  0  0  0  0  0  0  0  0  0  0999 V3000
M  V30 BEGIN CTAB
M  V30 COUNTS 16 17 0 0 1
M  V30 BEGIN ATOM
M  V30 1 C 9.870780 6.868153 -7.307560 0
M  V30 2 O 10.452322 6.202920 -6.170129 0
M  V30 3 C 11.034791 7.154666 -5.382384 0
M  V30 4 C 10.901614 8.430868 -5.891897 0
M  V30 5 C 11.443014 9.531347 -5.207302 0
M  V30 6 N 12.104891 9.369306 -4.037949 0
M  V30 7 C 12.234853 8.113623 -3.538615 0
M  V30 8 C 11.717294 6.959714 -4.170675 0
M  V30 9 C 10.147877 8.386978 -7.173995 0
M  V30 10 H 10.306783 6.470449 -8.224486 0
M  V30 11 H 8.799296 6.667936 -7.336959 0
M  V30 12 H 11.348738 10.536612 -5.590629 0
M  V30 13 H 12.769288 8.026729 -2.604191 0
M  V30 14 H 11.840609 5.976120 -3.742701 0
M  V30 15 H 9.228687 8.969251 -7.103434 0
M  V30 16 H 10.756790 8.768522 -7.994108 0
M  V30 END ATOM
M  V30 BEGIN BOND
M  V30 1 1 2 1
M  V30 2 1 3 2
M  V30 3 2 4 3
M  V30 4 1 5 4
M  V30 5 2 6 5
M  V30 6 1 7 6
M  V30 7 1 8 3
M  V30 8 2 8 7
M  V30 9 1 9 1
M  V30 10 1 9 4
M  V30 11 1 10 1
M  V30 12 1 11 1
M  V30 13 1 12 5
M  V30 14 1 13 7
M  V30 15 1 14 8
M  V30 16 1 15 9
M  V30 17 1 16 9
M  V30 END BOND
M  V30 END CTAB
M  END
>  <i_epik_Tot_Q>  (1) 
0

>  <i_epik_Tot_abs_Q>  (1) 
0

>  <i_i_glide_confnum>  (1) 
1

>  <i_i_glide_lignum>  (1) 
39

>  <i_i_glide_posenum>  (1) 
58

>  <i_i_glide_rotatable_bonds>  (1) 
0

>  <i_lp_mmshare_version>  (1) 
72125

>  <i_m_source_file_index>  (1) 
35

>  <i_f3d_flags>  (1) 
0

>  <num_sample>  (1) 
50

>  <b_lp_Chiralities_Consistent>  (1) 
1

>  <r_epik_Charging_Adjusted_Penalty>  (1) 
0.44367302241175416

>  <r_epik_Ionization_Penalty>  (1) 
0.4436730224117541

>  <r_epik_Ionization_Penalty_Charging>  (1) 
0

>  <r_epik_Ionization_Penalty_Neutral>  (1) 
0.4436730224117541

>  <r_epik_State_Penalty>  (1) 
0.44367302241175416

>  <r_glide_ring_energy>  (1) 
0

>  <r_i_docking_score>  (1) 
-4.79683030967694

>  <r_i_glide_ecoul>  (1) 
-0.5277733925040955

>  <r_i_glide_eff_state_penalty>  (1) 
0.44367302241175416

>  <r_i_glide_einternal>  (1) 
0

>  <r_i_glide_emodel>  (1) 
-27.021500462876659

>  <r_i_glide_emodel_strain>  (1) 
0

>  <r_i_glide_energy>  (1) 
-19.991892638544012

>  <r_i_glide_erotb>  (1) 
0

>  <r_i_glide_esite>  (1) 
0

>  <r_i_glide_evdw>  (1) 
-19.464119246039917

>  <r_i_glide_gscore>  (1) 
-5.2405033320886938

>  <r_i_glide_gscore_strain>  (1) 
0

>  <r_i_glide_hbond>  (1) 
0

>  <r_i_glide_ligand_efficiency>  (1) 
-0.53298114551966003

>  <r_i_glide_ligand_efficiency_ln>  (1) 
-1.5003107206417881

>  <r_i_glide_ligand_efficiency_sa>  (1) 
-1.1086454587871177

>  <r_i_glide_lipo>  (1) 
-1.4226531635791102

>  <r_i_glide_metal>  (1) 
-0

>  <r_i_glide_rewards>  (1) 
-2.7654781973319742

>  <r_lp_Energy>  (1) 
12.810587999999999

>  <s_epik_cmdline>  (1) 
J2VwaWtfcHl0aG9uJywgJy1waHQnLCAnMS4wJywgJy1waCcsICc3LjQnLCAnLXRuJywgJzgnLCAnLW1hJywgJzUwMCcsICctaW1hZScsICc8aW5maWxlLm1hZT4nLCAnLW9tYWUnLCAnPG91dGZpbGUubWFlPic=

>  <s_epik_input>  (1) 
TzFbQ0gyXVtDSDJdYyhjMTIpW2NIXW5bY0hdW2NIXTI=

>  <s_glide_docking_method>  (1) 
confgen

>  <s_i_glide_gridfile>  (1) 
gpcr_drd2_6luq_protein_autoprepared_prepared

>  <s_lp_Force_Field>  (1) 
S-OPLS

>  <s_lp_Variant>  (1) 
Pocket2Mol_34_num_sample_50-2

>  <s_m_source_file>  (1) 
generated__ligand_Pocket2Mol_2026-05-06_prepared.sdf

>  <GenAI_Model>  (1) 
Pocket2Mol

>  <Protein>  (1) 
generic_title2

$$$$
Pocket2Mol_27_num_sample_50
     RDKit          3D

  0  0  0  0  0  0  0  0  0  0999 V3000
M  V30 BEGIN CTAB
M  V30 COUNTS 13 13 0 0 1
M  V30 BEGIN ATOM
M  V30 1 N 9.994119 6.999932 -6.518040 0
M  V30 2 C 9.434109 7.118156 -7.782518 0
M  V30 3 C 9.991509 7.847150 -8.771587 0
M  V30 4 C 11.185713 7.661473 -6.251699 0
M  V30 5 O 9.443887 7.955642 -9.988307 0
M  V30 6 C 11.264793 8.566497 -8.520303 0
M  V30 7 O 11.815718 9.245033 -9.386376 0
M  V30 8 C 11.834917 8.419200 -7.161362 0
M  V30 9 H 8.508666 6.574503 -7.909623 0
M  V30 10 H 11.555635 7.519276 -5.246645 0
M  V30 11 H 8.520559 7.769330 -9.889006 0
M  V30 12 H 12.760741 8.921585 -6.923828 0
M  V30 13 H 9.542210 6.442643 -5.805592 0
M  V30 END ATOM
M  V30 BEGIN BOND
M  V30 1 1 2 1
M  V30 2 2 3 2
M  V30 3 1 4 1
M  V30 4 1 5 3
M  V30 5 1 6 3
M  V30 6 2 7 6
M  V30 7 2 8 4
M  V30 8 1 8 6
M  V30 9 1 9 2
M  V30 10 1 10 4
M  V30 11 1 11 5
M  V30 12 1 12 8
M  V30 13 1 13 1
M  V30 END BOND
M  V30 END CTAB
M  END
>  <i_epik_Tot_Q>  (1) 
0

>  <i_epik_Tot_abs_Q>  (1) 
0

>  <i_i_glide_confnum>  (1) 
1

>  <i_i_glide_lignum>  (1) 
31

>  <i_i_glide_posenum>  (1) 
328

>  <i_i_glide_rotatable_bonds>  (1) 
1

>  <i_lp_mmshare_version>  (1) 
72125

>  <i_m_source_file_index>  (1) 
28

>  <i_f3d_flags>  (1) 
0

>  <num_sample>  (1) 
50

>  <b_lp_Chiralities_Consistent>  (1) 
1

>  <r_epik_Charging_Adjusted_Penalty>  (1) 
0.000203171374695584

>  <r_epik_Ionization_Penalty>  (1) 
0.014901896624084464

>  <r_epik_Ionization_Penalty_Charging>  (1) 
0.000203171374695584

>  <r_epik_Ionization_Penalty_Neutral>  (1) 
0.01469872524938888

>  <r_epik_State_Penalty>  (1) 
-0

>  <r_glide_ring_energy>  (1) 
0

>  <r_i_docking_score>  (1) 
-4.7907046369763187

>  <r_i_glide_ecoul>  (1) 
-6.9240742346931832

>  <r_i_glide_eff_state_penalty>  (1) 
-0

>  <r_i_glide_einternal>  (1) 
1.2656900810336742

>  <r_i_glide_emodel>  (1) 
-26.835813898389752

>  <r_i_glide_emodel_strain>  (1) 
0.16177821659786495

>  <r_i_glide_energy>  (1) 
-20.46179694349529

>  <r_i_glide_erotb>  (1) 
0

>  <r_i_glide_esite>  (1) 
0

>  <r_i_glide_evdw>  (1) 
-13.537722708802107

>  <r_i_glide_gscore>  (1) 
-4.7907046369763187

>  <r_i_glide_gscore_strain>  (1) 
0

>  <r_i_glide_hbond>  (1) 
-0.16

>  <r_i_glide_ligand_efficiency>  (1) 
-0.59883807962203983

>  <r_i_glide_ligand_efficiency_ln>  (1) 
-1.5557056603071571

>  <r_i_glide_ligand_efficiency_sa>  (1) 
-1.1976761592440799

>  <r_i_glide_lipo>  (1) 
-0.66520736633223609

>  <r_i_glide_metal>  (1) 
-0

>  <r_i_glide_rewards>  (1) 
-2.25

>  <r_lp_Energy>  (1) 
11.500328

>  <r_lp_tautomer_probability>  (1) 
1

>  <s_epik_cmdline>  (1) 
J2VwaWtfcHl0aG9uJywgJy1waHQnLCAnMS4wJywgJy1waCcsICc3LjQnLCAnLXRuJywgJzgnLCAnLW1hJywgJzUwMCcsICctaW1hZScsICc8aW5maWxlLm1hZT4nLCAnLW9tYWUnLCAnPG91dGZpbGUubWFlPic=

>  <s_epik_input>  (1) 
W09IXWMxW2NIXW5bY0hdW2NIXWMxW09IXQ==

>  <s_glide_docking_method>  (1) 
confgen

>  <s_i_glide_gridfile>  (1) 
gpcr_drd2_6luq_protein_autoprepared_prepared

>  <s_lp_Force_Field>  (1) 
S-OPLS

>  <s_lp_Variant>  (1) 
Pocket2Mol_27_num_sample_50-1

>  <s_m_source_file>  (1) 
generated__ligand_Pocket2Mol_2026-05-06_prepared.sdf

>  <GenAI_Model>  (1) 
Pocket2Mol

>  <Protein>  (1) 
generic_title2

$$$$
Pocket2Mol_19_num_sample_50
     RDKit          3D

  0  0  0  0  0  0  0  0  0  0999 V3000
M  V30 BEGIN CTAB
M  V30 COUNTS 12 12 0 0 1
M  V30 BEGIN ATOM
M  V30 1 N 9.462184 7.902699 -8.868449 0 CHG=1
M  V30 2 C 9.780055 8.056295 -7.567820 0
M  V30 3 C 11.116229 8.233833 -7.187875 0
M  V30 4 C 10.390363 7.910702 -9.853409 0
M  V30 5 O 11.436482 8.392018 -5.876265 0 CHG=-1
M  V30 6 C 12.120591 8.249068 -8.180136 0
M  V30 7 C 11.752886 8.085853 -9.534115 0
M  V30 8 H 8.948967 8.032129 -6.872149 0
M  V30 9 H 10.015844 7.778340 -10.860728 0
M  V30 10 H 8.448069 7.769307 -9.121753 0
M  V30 11 H 13.156303 8.384677 -7.909180 0
M  V30 12 H 12.502888 8.094803 -10.308463 0
M  V30 END ATOM
M  V30 BEGIN BOND
M  V30 1 1 2 1
M  V30 2 2 3 2
M  V30 3 2 4 1
M  V30 4 1 5 3
M  V30 5 1 6 3
M  V30 6 1 7 4
M  V30 7 2 7 6
M  V30 8 1 8 2
M  V30 9 1 9 4
M  V30 10 1 10 1
M  V30 11 1 11 6
M  V30 12 1 12 7
M  V30 END BOND
M  V30 END CTAB
M  END
>  <i_epik_Tot_Q>  (1) 
0

>  <i_epik_Tot_abs_Q>  (1) 
2

>  <i_i_glide_confnum>  (1) 
1

>  <i_i_glide_lignum>  (1) 
22

>  <i_i_glide_posenum>  (1) 
327

>  <i_i_glide_rotatable_bonds>  (1) 
0

>  <i_lp_mmshare_version>  (1) 
72125

>  <i_m_source_file_index>  (1) 
20

>  <i_f3d_flags>  (1) 
0

>  <num_sample>  (1) 
50

>  <b_lp_Chiralities_Consistent>  (1) 
1

>  <r_epik_Charging_Adjusted_Penalty>  (1) 
0.36510749842979956

>  <r_epik_Ionization_Penalty>  (1) 
0.025180683492302028

>  <r_epik_Ionization_Penalty_Charging>  (1) 
0.025180683492302028

>  <r_epik_Ionization_Penalty_Neutral>  (1) 
0

>  <r_epik_State_Penalty>  (1) 
0.33992681493749755

>  <r_glide_ring_energy>  (1) 
0

>  <r_i_docking_score>  (1) 
-4.7817508180306127

>  <r_i_glide_ecoul>  (1) 
-8.3946367806903268

>  <r_i_glide_eff_state_penalty>  (1) 
0.33992681493749755

>  <r_i_glide_einternal>  (1) 
0

>  <r_i_glide_emodel>  (1) 
-30.039407648092791

>  <r_i_glide_emodel_strain>  (1) 
0

>  <r_i_glide_energy>  (1) 
-20.055260335859639

>  <r_i_glide_erotb>  (1) 
0

>  <r_i_glide_esite>  (1) 
-0.10000000000000001

>  <r_i_glide_evdw>  (1) 
-11.660623555169312

>  <r_i_glide_gscore>  (1) 
-5.12167763296811

>  <r_i_glide_gscore_strain>  (1) 
0

>  <r_i_glide_hbond>  (1) 
-0.19675543455308137

>  <r_i_glide_ligand_efficiency>  (1) 
-0.68310725971865893

>  <r_i_glide_ligand_efficiency_ln>  (1) 
-1.6231828453980552

>  <r_i_glide_ligand_efficiency_sa>  (1) 
-1.30673717829402

>  <r_i_glide_lipo>  (1) 
-0.73269550355301305

>  <r_i_glide_metal>  (1) 
-0

>  <r_i_glide_rewards>  (1) 
-2.25

>  <r_lp_Energy>  (1) 
9.275188

>  <r_lp_tautomer_probability>  (1) 
0.56342000000000003

>  <s_epik_cmdline>  (1) 
J2VwaWtfcHl0aG9uJywgJy1waHQnLCAnMS4wJywgJy1waCcsICc3LjQnLCAnLXRuJywgJzgnLCAnLW1hJywgJzUwMCcsICctaW1hZScsICc8aW5maWxlLm1hZT4nLCAnLW9tYWUnLCAnPG91dGZpbGUubWFlPic=

>  <s_epik_input>  (1) 
W2NIXTFbY0hdW2NIXW5bY0hdYzFbT0hd

>  <s_glide_docking_method>  (1) 
confgen

>  <s_i_glide_gridfile>  (1) 
gpcr_drd2_6luq_protein_autoprepared_prepared

>  <s_lp_Force_Field>  (1) 
S-OPLS

>  <s_lp_Variant>  (1) 
Pocket2Mol_19_num_sample_50-1

>  <s_m_source_file>  (1) 
generated__ligand_Pocket2Mol_2026-05-06_prepared.sdf

>  <GenAI_Model>  (1) 
Pocket2Mol

>  <Protein>  (1) 
generic_title2

$$$$
Pocket2Mol_7_num_sample_50
     RDKit          3D

  0  0  0  0  0  0  0  0  0  0999 V3000
M  V30 BEGIN CTAB
M  V30 COUNTS 13 13 0 0 1
M  V30 BEGIN ATOM
M  V30 1 N 11.514389 9.444091 -5.463680 0
M  V30 2 C 11.987646 9.041570 -4.247138 0
M  V30 3 C 11.834791 7.777302 -3.986247 0
M  V30 4 C 11.047250 8.305230 -5.893783 0
M  V30 5 C 12.242855 7.098743 -2.693508 0
M  V30 6 C 11.180815 6.980072 -5.045357 0
M  V30 7 H 12.433861 9.769301 -3.585624 0
M  V30 8 H 10.542448 8.203755 -6.858326 0
M  V30 9 H 11.389227 6.583612 -2.251853 0
M  V30 10 H 13.033639 6.371105 -2.858705 0
M  V30 11 H 12.607373 7.829366 -1.970089 0
M  V30 12 H 10.215315 6.568432 -4.751737 0
M  V30 13 H 11.834661 6.242089 -5.510616 0
M  V30 END ATOM
M  V30 BEGIN BOND
M  V30 1 1 2 1
M  V30 2 2 3 2
M  V30 3 2 4 1
M  V30 4 1 5 3
M  V30 5 1 6 3
M  V30 6 1 6 4
M  V30 7 1 7 2
M  V30 8 1 8 4
M  V30 9 1 9 5
M  V30 10 1 10 5
M  V30 11 1 11 5
M  V30 12 1 12 6
M  V30 13 1 13 6
M  V30 END BOND
M  V30 END CTAB
M  END
>  <i_epik_Tot_Q>  (1) 
0

>  <i_epik_Tot_abs_Q>  (1) 
0

>  <i_i_glide_confnum>  (1) 
1

>  <i_i_glide_lignum>  (1) 
8

>  <i_i_glide_posenum>  (1) 
308

>  <i_i_glide_rotatable_bonds>  (1) 
0

>  <i_lp_mmshare_version>  (1) 
72125

>  <i_m_source_file_index>  (1) 
8

>  <i_f3d_flags>  (1) 
0

>  <num_sample>  (1) 
50

>  <b_lp_Chiralities_Consistent>  (1) 
1

>  <r_epik_Charging_Adjusted_Penalty>  (1) 
0

>  <r_epik_Ionization_Penalty>  (1) 
0

>  <r_epik_Ionization_Penalty_Charging>  (1) 
0

>  <r_epik_Ionization_Penalty_Neutral>  (1) 
0

>  <r_epik_State_Penalty>  (1) 
-0

>  <r_glide_ring_energy>  (1) 
0

>  <r_i_docking_score>  (1) 
-4.7763185647732094

>  <r_i_glide_ecoul>  (1) 
-0.97733130400107748

>  <r_i_glide_eff_state_penalty>  (1) 
-0

>  <r_i_glide_einternal>  (1) 
0

>  <r_i_glide_emodel>  (1) 
-21.381917746794102

>  <r_i_glide_emodel_strain>  (1) 
0

>  <r_i_glide_energy>  (1) 
-16.12760344467122

>  <r_i_glide_erotb>  (1) 
0

>  <r_i_glide_esite>  (1) 
0

>  <r_i_glide_evdw>  (1) 
-15.150272140670143

>  <r_i_glide_gscore>  (1) 
-4.7763185647732094

>  <r_i_glide_gscore_strain>  (1) 
0

>  <r_i_glide_hbond>  (1) 
0

>  <r_i_glide_ligand_efficiency>  (1) 
-0.79605309412886827

>  <r_i_glide_ligand_efficiency_ln>  (1) 
-1.7108632091767926

>  <r_i_glide_ligand_efficiency_sa>  (1) 
-1.4465244703293083

>  <r_i_glide_lipo>  (1) 
-1.0849997807088809

>  <r_i_glide_metal>  (1) 
-0

>  <r_i_glide_rewards>  (1) 
-2.787205481430659

>  <r_lp_Energy>  (1) 
-3.9959819999999997

>  <r_lp_tautomer_probability>  (1) 
1

>  <s_epik_Chemistry_Notes>  (1) 
This compound has an imine and may undergo hydrolysis.

>  <s_epik_cmdline>  (1) 
J2VwaWtfcHl0aG9uJywgJy1waHQnLCAnMS4wJywgJy1waCcsICc3LjQnLCAnLXRuJywgJzgnLCAnLW1hJywgJzUwMCcsICctaW1hZScsICc8aW5maWxlLm1hZT4nLCAnLW9tYWUnLCAnPG91dGZpbGUubWFlPic=

>  <s_epik_input>  (1) 
W0NIMl0xW0NIXT1OW0NIXT1DMVtDSDNd

>  <s_glide_docking_method>  (1) 
confgen

>  <s_i_glide_gridfile>  (1) 
gpcr_drd2_6luq_protein_autoprepared_prepared

>  <s_lp_Force_Field>  (1) 
S-OPLS

>  <s_lp_Variant>  (1) 
Pocket2Mol_7_num_sample_50-1

>  <s_m_source_file>  (1) 
generated__ligand_Pocket2Mol_2026-05-06_prepared.sdf

>  <GenAI_Model>  (1) 
Pocket2Mol

>  <Protein>  (1) 
generic_title2

$$$$
Pocket2Mol_27_num_sample_50
     RDKit          3D

  0  0  0  0  0  0  0  0  0  0999 V3000
M  V30 BEGIN CTAB
M  V30 COUNTS 13 13 0 0 1
M  V30 BEGIN ATOM
M  V30 1 N 10.454055 8.555157 -6.661428 0
M  V30 2 C 9.679723 8.215336 -7.762682 0
M  V30 3 C 10.191641 8.039707 -8.998683 0
M  V30 4 C 11.821967 8.723750 -6.834248 0
M  V30 5 O 9.436838 7.712026 -10.054689 0
M  V30 6 C 11.648922 8.212242 -9.217491 0
M  V30 7 O 12.167224 8.064017 -10.323667 0
M  V30 8 C 12.445041 8.574390 -8.022563 0
M  V30 9 H 8.627262 8.102703 -7.545889 0
M  V30 10 H 12.352562 8.986930 -5.930816 0
M  V30 11 H 8.535164 7.769305 -9.773106 0
M  V30 12 H 13.511281 8.712428 -8.124784 0
M  V30 13 H 10.029267 8.677145 -5.752310 0
M  V30 END ATOM
M  V30 BEGIN BOND
M  V30 1 1 2 1
M  V30 2 2 3 2
M  V30 3 1 4 1
M  V30 4 1 5 3
M  V30 5 1 6 3
M  V30 6 2 7 6
M  V30 7 2 8 4
M  V30 8 1 8 6
M  V30 9 1 9 2
M  V30 10 1 10 4
M  V30 11 1 11 5
M  V30 12 1 12 8
M  V30 13 1 13 1
M  V30 END BOND
M  V30 END CTAB
M  END
>  <i_epik_Tot_Q>  (1) 
0

>  <i_epik_Tot_abs_Q>  (1) 
0

>  <i_i_glide_confnum>  (1) 
1

>  <i_i_glide_lignum>  (1) 
31

>  <i_i_glide_posenum>  (1) 
128

>  <i_i_glide_rotatable_bonds>  (1) 
1

>  <i_lp_mmshare_version>  (1) 
72125

>  <i_m_source_file_index>  (1) 
28

>  <i_f3d_flags>  (1) 
0

>  <num_sample>  (1) 
50

>  <b_lp_Chiralities_Consistent>  (1) 
1

>  <r_epik_Charging_Adjusted_Penalty>  (1) 
0.000203171374695584

>  <r_epik_Ionization_Penalty>  (1) 
0.014901896624084464

>  <r_epik_Ionization_Penalty_Charging>  (1) 
0.000203171374695584

>  <r_epik_Ionization_Penalty_Neutral>  (1) 
0.01469872524938888

>  <r_epik_State_Penalty>  (1) 
-0

>  <r_glide_ring_energy>  (1) 
0

>  <r_i_docking_score>  (1) 
-4.7680416290665821

>  <r_i_glide_ecoul>  (1) 
-5.8776032657840434

>  <r_i_glide_eff_state_penalty>  (1) 
-0

>  <r_i_glide_einternal>  (1) 
0.17237109766794068

>  <r_i_glide_emodel>  (1) 
-27.460068075594261

>  <r_i_glide_emodel_strain>  (1) 
0

>  <r_i_glide_energy>  (1) 
-20.411525532271519

>  <r_i_glide_erotb>  (1) 
0

>  <r_i_glide_esite>  (1) 
0

>  <r_i_glide_evdw>  (1) 
-14.533922266487474

>  <r_i_glide_gscore>  (1) 
-4.7680416290665821

>  <r_i_glide_gscore_strain>  (1) 
0

>  <r_i_glide_hbond>  (1) 
-0.16

>  <r_i_glide_ligand_efficiency>  (1) 
-0.59600520363332277

>  <r_i_glide_ligand_efficiency_ln>  (1) 
-1.5483462064571665

>  <r_i_glide_ligand_efficiency_sa>  (1) 
-1.1920104072666458

>  <r_i_glide_lipo>  (1) 
-0.74970502587460208

>  <r_i_glide_metal>  (1) 
-0

>  <r_i_glide_rewards>  (1) 
-2.25

>  <r_lp_Energy>  (1) 
11.500328

>  <r_lp_tautomer_probability>  (1) 
1

>  <s_epik_cmdline>  (1) 
J2VwaWtfcHl0aG9uJywgJy1waHQnLCAnMS4wJywgJy1waCcsICc3LjQnLCAnLXRuJywgJzgnLCAnLW1hJywgJzUwMCcsICctaW1hZScsICc8aW5maWxlLm1hZT4nLCAnLW9tYWUnLCAnPG91dGZpbGUubWFlPic=

>  <s_epik_input>  (1) 
W09IXWMxW2NIXW5bY0hdW2NIXWMxW09IXQ==

>  <s_glide_docking_method>  (1) 
confgen

>  <s_i_glide_gridfile>  (1) 
gpcr_drd2_6luq_protein_autoprepared_prepared

>  <s_lp_Force_Field>  (1) 
S-OPLS

>  <s_lp_Variant>  (1) 
Pocket2Mol_27_num_sample_50-1

>  <s_m_source_file>  (1) 
generated__ligand_Pocket2Mol_2026-05-06_prepared.sdf

>  <GenAI_Model>  (1) 
Pocket2Mol

>  <Protein>  (1) 
generic_title2

$$$$
Pocket2Mol_39_num_sample_50
     RDKit          3D

  0  0  0  0  0  0  0  0  0  0999 V3000
M  V30 BEGIN CTAB
M  V30 COUNTS 14 14 0 0 1
M  V30 BEGIN ATOM
M  V30 1 C 9.834839 7.164747 -8.593543 0
M  V30 2 O 11.233448 7.369302 -8.729822 0
M  V30 3 C 11.815054 8.167177 -7.772951 0
M  V30 4 C 9.482633 6.983572 -7.117466 0
M  V30 5 O 9.874047 8.157118 -6.423964 0
M  V30 6 C 11.168554 8.569297 -6.650161 0
M  V30 7 C 11.834840 9.473906 -5.575859 0
M  V30 8 O 11.108962 9.813035 -4.616036 0 CHG=-1
M  V30 9 O 13.033006 9.769301 -5.778086 0
M  V30 10 H 9.538127 6.289348 -9.171182 0
M  V30 11 H 9.308751 8.024244 -9.009497 0
M  V30 12 H 12.830801 8.437041 -8.024337 0
M  V30 13 H 9.995927 6.117119 -6.698090 0
M  V30 14 H 8.415664 6.818725 -6.981757 0
M  V30 END ATOM
M  V30 BEGIN BOND
M  V30 1 1 2 1
M  V30 2 1 3 2
M  V30 3 1 4 1
M  V30 4 1 5 4
M  V30 5 2 6 3
M  V30 6 1 6 5
M  V30 7 1 7 6
M  V30 8 1 8 7
M  V30 9 2 9 7
M  V30 10 1 10 1
M  V30 11 1 11 1
M  V30 12 1 12 3
M  V30 13 1 13 4
M  V30 14 1 14 4
M  V30 END BOND
M  V30 END CTAB
M  END
>  <i_epik_Tot_Q>  (1) 
-1

>  <i_epik_Tot_abs_Q>  (1) 
1

>  <i_i_glide_confnum>  (1) 
1

>  <i_i_glide_lignum>  (1) 
44

>  <i_i_glide_posenum>  (1) 
118

>  <i_i_glide_rotatable_bonds>  (1) 
1

>  <i_lp_mmshare_version>  (1) 
72125

>  <i_m_source_file_index>  (1) 
40

>  <i_f3d_flags>  (1) 
0

>  <num_sample>  (1) 
50

>  <b_lp_Chiralities_Consistent>  (1) 
1

>  <r_epik_Charging_Adjusted_Penalty>  (1) 
1.9393830553820406e-05

>  <r_epik_Ionization_Penalty>  (1) 
1.9393830553820406e-05

>  <r_epik_Ionization_Penalty_Charging>  (1) 
1.9393830553820406e-05

>  <r_epik_Ionization_Penalty_Neutral>  (1) 
0

>  <r_epik_State_Penalty>  (1) 
-0

>  <r_glide_ring_energy>  (1) 
0

>  <r_i_docking_score>  (1) 
-4.7577257414986258

>  <r_i_glide_ecoul>  (1) 
-2.2514951069028499

>  <r_i_glide_eff_state_penalty>  (1) 
-0

>  <r_i_glide_einternal>  (1) 
0.16908858080477107

>  <r_i_glide_emodel>  (1) 
-25.377095791998919

>  <r_i_glide_emodel_strain>  (1) 
0

>  <r_i_glide_energy>  (1) 
-18.51316527140515

>  <r_i_glide_erotb>  (1) 
0

>  <r_i_glide_esite>  (1) 
0

>  <r_i_glide_evdw>  (1) 
-16.261670164502299

>  <r_i_glide_gscore>  (1) 
-4.7577257414986258

>  <r_i_glide_gscore_strain>  (1) 
0

>  <r_i_glide_hbond>  (1) 
0

>  <r_i_glide_ligand_efficiency>  (1) 
-0.52863619349984736

>  <r_i_glide_ligand_efficiency_ln>  (1) 
-1.4880799350862441

>  <r_i_glide_ligand_efficiency_sa>  (1) 
-1.0996075943787686

>  <r_i_glide_lipo>  (1) 
-0.46525130057141684

>  <r_i_glide_metal>  (1) 
-0

>  <r_i_glide_rewards>  (1) 
-3.1416666666666666

>  <r_lp_Energy>  (1) 
18.695968999999998

>  <r_lp_tautomer_probability>  (1) 
1

>  <s_epik_cmdline>  (1) 
J2VwaWtfcHl0aG9uJywgJy1waHQnLCAnMS4wJywgJy1waCcsICc3LjQnLCAnLXRuJywgJzgnLCAnLW1hJywgJzUwMCcsICctaW1hZScsICc8aW5maWxlLm1hZT4nLCAnLW9tYWUnLCAnPG91dGZpbGUubWFlPic=

>  <s_epik_input>  (1) 
TzFbQ0gyXVtDSDJdT1tDSF09QzFDKD1PKVtPSF0=

>  <s_glide_docking_method>  (1) 
confgen

>  <s_i_glide_gridfile>  (1) 
gpcr_drd2_6luq_protein_autoprepared_prepared

>  <s_lp_Force_Field>  (1) 
S-OPLS

>  <s_lp_Variant>  (1) 
Pocket2Mol_39_num_sample_50-1

>  <s_m_source_file>  (1) 
generated__ligand_Pocket2Mol_2026-05-06_prepared.sdf

>  <GenAI_Model>  (1) 
Pocket2Mol

>  <Protein>  (1) 
generic_title2

$$$$
Pocket2Mol_12_num_sample_50
     RDKit          3D

  0  0  0  0  0  0  0  0  0  0999 V3000
M  V30 BEGIN CTAB
M  V30 COUNTS 15 15 0 0 1
M  V30 BEGIN ATOM
M  V30 1 N 11.347169 6.905141 -4.691687 0
M  V30 2 C 11.834839 6.852683 -3.407572 0
M  V30 3 C 12.242486 8.135111 -3.060986 0
M  V30 4 C 11.434835 8.168403 -5.155820 0
M  V30 5 C 12.840573 8.566023 -1.754921 0
M  V30 6 N 11.024117 8.570121 -6.415431 0
M  V30 7 C 11.974993 8.970795 -4.209002 0
M  V30 8 H 11.849735 5.923098 -2.856139 0
M  V30 9 H 12.943033 7.711365 -1.091718 0
M  V30 10 H 13.834834 8.969295 -1.916625 0
M  V30 11 H 12.223188 9.324483 -1.272825 0
M  V30 12 H 11.093313 9.525078 -6.734547 0
M  V30 13 H 10.975311 6.118504 -5.206262 0
M  V30 14 H 12.160280 10.029412 -4.309804 0
M  V30 15 H 10.610766 7.937563 -7.087090 0
M  V30 END ATOM
M  V30 BEGIN BOND
M  V30 1 1 2 1
M  V30 2 2 3 2
M  V30 3 1 4 1
M  V30 4 1 5 3
M  V30 5 1 6 4
M  V30 6 1 7 3
M  V30 7 2 7 4
M  V30 8 1 8 2
M  V30 9 1 9 5
M  V30 10 1 10 5
M  V30 11 1 11 5
M  V30 12 1 12 6
M  V30 13 1 13 1
M  V30 14 1 14 7
M  V30 15 1 15 6
M  V30 END BOND
M  V30 END CTAB
M  END
>  <i_epik_Tot_Q>  (1) 
0

>  <i_epik_Tot_abs_Q>  (1) 
0

>  <i_i_glide_confnum>  (1) 
1

>  <i_i_glide_lignum>  (1) 
15

>  <i_i_glide_posenum>  (1) 
44

>  <i_i_glide_rotatable_bonds>  (1) 
0

>  <i_lp_mmshare_version>  (1) 
72125

>  <i_m_source_file_index>  (1) 
13

>  <i_f3d_flags>  (1) 
0

>  <num_sample>  (1) 
50

>  <b_lp_Chiralities_Consistent>  (1) 
1

>  <r_epik_Charging_Adjusted_Penalty>  (1) 
0

>  <r_epik_Ionization_Penalty>  (1) 
0.00031849139131666116

>  <r_epik_Ionization_Penalty_Charging>  (1) 
0

>  <r_epik_Ionization_Penalty_Neutral>  (1) 
0.00031849139131666116

>  <r_epik_State_Penalty>  (1) 
-0

>  <r_glide_ring_energy>  (1) 
0

>  <r_i_docking_score>  (1) 
-4.7571905692598575

>  <r_i_glide_ecoul>  (1) 
-1.8710803415740822

>  <r_i_glide_eff_state_penalty>  (1) 
-0

>  <r_i_glide_einternal>  (1) 
0

>  <r_i_glide_emodel>  (1) 
-23.908115914272749

>  <r_i_glide_emodel_strain>  (1) 
0

>  <r_i_glide_energy>  (1) 
-17.867980146460347

>  <r_i_glide_erotb>  (1) 
0

>  <r_i_glide_esite>  (1) 
0

>  <r_i_glide_evdw>  (1) 
-15.996899804886263

>  <r_i_glide_gscore>  (1) 
-4.7571905692598575

>  <r_i_glide_gscore_strain>  (1) 
0

>  <r_i_glide_hbond>  (1) 
0

>  <r_i_glide_ligand_efficiency>  (1) 
-0.67959865275140818

>  <r_i_glide_ligand_efficiency_ln>  (1) 
-1.6148457789133115

>  <r_i_glide_ligand_efficiency_sa>  (1) 
-1.3000254546182735

>  <r_i_glide_lipo>  (1) 
-1.3254365910321975

>  <r_i_glide_metal>  (1) 
-0

>  <r_i_glide_rewards>  (1) 
-2.3512469367472346

>  <r_lp_Energy>  (1) 
-3.18065

>  <r_lp_tautomer_probability>  (1) 
1

>  <s_epik_cmdline>  (1) 
J2VwaWtfcHl0aG9uJywgJy1waHQnLCAnMS4wJywgJy1waCcsICc3LjQnLCAnLXRuJywgJzgnLCAnLW1hJywgJzUwMCcsICctaW1hZScsICc8aW5maWxlLm1hZT4nLCAnLW9tYWUnLCAnPG91dGZpbGUubWFlPic=

>  <s_epik_input>  (1) 
W05IMl1DKFtDSDJdMSk9TltDSF09QzFbQ0gzXQ==

>  <s_glide_docking_method>  (1) 
confgen

>  <s_i_glide_gridfile>  (1) 
gpcr_drd2_6luq_protein_autoprepared_prepared

>  <s_lp_Force_Field>  (1) 
S-OPLS

>  <s_lp_Variant>  (1) 
Pocket2Mol_12_num_sample_50-1

>  <s_m_source_file>  (1) 
generated__ligand_Pocket2Mol_2026-05-06_prepared.sdf

>  <GenAI_Model>  (1) 
Pocket2Mol

>  <Protein>  (1) 
generic_title2

$$$$
Pocket2Mol_23_num_sample_50
     RDKit          3D

  0  0  0  0  0  0  0  0  0  0999 V3000
M  V30 BEGIN CTAB
M  V30 COUNTS 15 16 0 0 1
M  V30 BEGIN ATOM
M  V30 1 C 11.034839 7.446035 -6.074544 0
M  V30 2 O 9.657247 7.672507 -6.358635 0
M  V30 3 C 9.483409 8.168507 -7.684245 0 CFG=2
M  V30 4 C 10.032106 7.309307 -8.797964 0 CFG=1
M  V30 5 O 9.434897 7.638969 -10.031239 0
M  V30 6 C 11.834534 8.229664 -7.123208 0
M  V30 7 C 10.855954 8.450043 -8.222616 0 CFG=2
M  V30 8 H 11.275899 7.736414 -5.052323 0
M  V30 9 H 11.238362 6.380304 -6.178744 0
M  V30 10 H 8.665646 8.874377 -7.838817 0
M  V30 11 H 10.273800 6.258736 -8.632114 0
M  V30 12 H 8.491115 7.769301 -9.864657 0
M  V30 13 H 12.137610 9.199431 -6.726585 0
M  V30 14 H 12.717318 7.700591 -7.478487 0
M  V30 15 H 11.033116 9.317336 -8.862128 0
M  V30 END ATOM
M  V30 BEGIN BOND
M  V30 1 1 2 1
M  V30 2 1 3 2
M  V30 3 1 4 3
M  V30 4 1 5 4
M  V30 5 1 6 1
M  V30 6 1 7 3
M  V30 7 1 7 4
M  V30 8 1 7 6
M  V30 9 1 8 1
M  V30 10 1 9 1
M  V30 11 1 3 10 CFG=3
M  V30 12 1 4 11 CFG=1
M  V30 13 1 12 5
M  V30 14 1 13 6
M  V30 15 1 14 6
M  V30 16 1 7 15 CFG=3
M  V30 END BOND
M  V30 END CTAB
M  END
>  <i_epik_Tot_Q>  (1) 
0

>  <i_epik_Tot_abs_Q>  (1) 
0

>  <i_i_glide_confnum>  (1) 
1

>  <i_i_glide_lignum>  (1) 
27

>  <i_i_glide_posenum>  (1) 
380

>  <i_i_glide_rotatable_bonds>  (1) 
1

>  <i_lp_mmshare_version>  (1) 
72125

>  <i_m_source_file_index>  (1) 
24

>  <i_f3d_flags>  (1) 
0

>  <num_sample>  (1) 
50

>  <b_lp_Chiralities_Consistent>  (1) 
1

>  <r_epik_Charging_Adjusted_Penalty>  (1) 
0

>  <r_epik_Ionization_Penalty>  (1) 
4.3639151522347116e-08

>  <r_epik_Ionization_Penalty_Charging>  (1) 
0

>  <r_epik_Ionization_Penalty_Neutral>  (1) 
4.3639151522347116e-08

>  <r_epik_State_Penalty>  (1) 
-0

>  <r_glide_ring_energy>  (1) 
0

>  <r_i_docking_score>  (1) 
-4.7553111250438693

>  <r_i_glide_ecoul>  (1) 
-6.9294162543450994

>  <r_i_glide_eff_state_penalty>  (1) 
-0

>  <r_i_glide_einternal>  (1) 
0.46121670946123217

>  <r_i_glide_emodel>  (1) 
-24.398041962101264

>  <r_i_glide_emodel_strain>  (1) 
0.12370130658659662

>  <r_i_glide_energy>  (1) 
-18.280198637901599

>  <r_i_glide_erotb>  (1) 
0

>  <r_i_glide_esite>  (1) 
0

>  <r_i_glide_evdw>  (1) 
-11.350782383556501

>  <r_i_glide_gscore>  (1) 
-4.7553111250438693

>  <r_i_glide_gscore_strain>  (1) 
0

>  <r_i_glide_hbond>  (1) 
-0.16

>  <r_i_glide_ligand_efficiency>  (1) 
-0.67933016072055274

>  <r_i_glide_ligand_efficiency_ln>  (1) 
-1.6142077946840265

>  <r_i_glide_ligand_efficiency_sa>  (1) 
-1.2995118478401242

>  <r_i_glide_lipo>  (1) 
-0.48961555551394575

>  <r_i_glide_metal>  (1) 
-0

>  <r_i_glide_rewards>  (1) 
-2.4987440122003339

>  <r_lp_Energy>  (1) 
3.2309049999999999

>  <r_lp_tautomer_probability>  (1) 
1

>  <s_epik_cmdline>  (1) 
J2VwaWtfcHl0aG9uJywgJy1waHQnLCAnMS4wJywgJy1waCcsICc3LjQnLCAnLXRuJywgJzgnLCAnLW1hJywgJzUwMCcsICctaW1hZScsICc8aW5maWxlLm1hZT4nLCAnLW9tYWUnLCAnPG91dGZpbGUubWFlPic=

>  <s_epik_input>  (1) 
TzFbQ0gyXVtDSDJdW0NIXShbQ0BIXTEyKVtDQEBIXTJbT0hd

>  <s_glide_docking_method>  (1) 
confgen

>  <s_i_glide_gridfile>  (1) 
gpcr_drd2_6luq_protein_autoprepared_prepared

>  <s_lp_Force_Field>  (1) 
S-OPLS

>  <s_lp_Variant>  (1) 
Pocket2Mol_23_num_sample_50-1

>  <s_m_source_file>  (1) 
generated__ligand_Pocket2Mol_2026-05-06_prepared.sdf

>  <GenAI_Model>  (1) 
Pocket2Mol

>  <Protein>  (1) 
generic_title2

$$$$
Pocket2Mol_15_num_sample_50
     RDKit          3D

  0  0  0  0  0  0  0  0  0  0999 V3000
M  V30 BEGIN CTAB
M  V30 COUNTS 19 19 0 0 1
M  V30 BEGIN ATOM
M  V30 1 C 10.686355 6.569426 -5.754248 0
M  V30 2 O 11.434806 7.726491 -5.393141 0
M  V30 3 C 11.225473 8.768046 -6.337101 0
M  V30 4 C 11.415732 10.102219 -5.601768 0
M  V30 5 C 12.234838 8.645025 -7.492894 0
M  V30 6 C 9.701146 7.002069 -6.840012 0
M  V30 7 C 9.789302 8.513099 -6.801604 0
M  V30 8 H 11.353942 5.787573 -6.118794 0
M  V30 9 H 10.170716 6.186464 -4.873242 0
M  V30 10 H 11.317489 10.946242 -6.283424 0
M  V30 11 H 12.406960 10.159458 -5.152185 0
M  V30 12 H 10.685519 10.226716 -4.801489 0
M  V30 13 H 12.001343 9.358143 -8.284751 0
M  V30 14 H 13.248374 8.863042 -7.156900 0
M  V30 15 H 12.236772 7.649343 -7.935780 0
M  V30 16 H 10.023278 6.629238 -7.812976 0
M  V30 17 H 8.687301 6.638917 -6.664673 0
M  V30 18 H 9.076779 8.886606 -6.067643 0
M  V30 19 H 9.547200 8.969303 -7.761752 0
M  V30 END ATOM
M  V30 BEGIN BOND
M  V30 1 1 2 1
M  V30 2 1 3 2
M  V30 3 1 4 3
M  V30 4 1 5 3
M  V30 5 1 6 1
M  V30 6 1 7 3
M  V30 7 1 7 6
M  V30 8 1 8 1
M  V30 9 1 9 1
M  V30 10 1 10 4
M  V30 11 1 11 4
M  V30 12 1 12 4
M  V30 13 1 13 5
M  V30 14 1 14 5
M  V30 15 1 15 5
M  V30 16 1 16 6
M  V30 17 1 17 6
M  V30 18 1 18 7
M  V30 19 1 19 7
M  V30 END BOND
M  V30 END CTAB
M  END
>  <i_epik_Tot_Q>  (1) 
0

>  <i_epik_Tot_abs_Q>  (1) 
0

>  <i_i_glide_confnum>  (1) 
4

>  <i_i_glide_lignum>  (1) 
18

>  <i_i_glide_posenum>  (1) 
44

>  <i_i_glide_rotatable_bonds>  (1) 
0

>  <i_lp_mmshare_version>  (1) 
72125

>  <i_m_source_file_index>  (1) 
16

>  <i_f3d_flags>  (1) 
0

>  <num_sample>  (1) 
50

>  <b_lp_Chiralities_Consistent>  (1) 
1

>  <r_epik_Charging_Adjusted_Penalty>  (1) 
0

>  <r_epik_Ionization_Penalty>  (1) 
1.3889264151150229e-11

>  <r_epik_Ionization_Penalty_Charging>  (1) 
0

>  <r_epik_Ionization_Penalty_Neutral>  (1) 
1.3889264151150229e-11

>  <r_epik_State_Penalty>  (1) 
-0

>  <r_glide_ring_energy>  (1) 
0.26153960478789529

>  <r_i_docking_score>  (1) 
-4.7539904786882188

>  <r_i_glide_ecoul>  (1) 
-0.71807059670571383

>  <r_i_glide_eff_state_penalty>  (1) 
-0

>  <r_i_glide_einternal>  (1) 
0

>  <r_i_glide_emodel>  (1) 
-21.733605019237729

>  <r_i_glide_emodel_strain>  (1) 
0.49391134849199858

>  <r_i_glide_energy>  (1) 
-17.123775600319679

>  <r_i_glide_erotb>  (1) 
0

>  <r_i_glide_esite>  (1) 
0

>  <r_i_glide_evdw>  (1) 
-16.405705003613964

>  <r_i_glide_gscore>  (1) 
-4.7539904786882188

>  <r_i_glide_gscore_strain>  (1) 
0

>  <r_i_glide_hbond>  (1) 
0

>  <r_i_glide_ligand_efficiency>  (1) 
-0.67914149695545978

>  <r_i_glide_ligand_efficiency_ln>  (1) 
-1.6137594964370232

>  <r_i_glide_ligand_efficiency_sa>  (1) 
-1.2991509470408187

>  <r_i_glide_lipo>  (1) 
-1.1613241340431979

>  <r_i_glide_metal>  (1) 
-0

>  <r_i_glide_rewards>  (1) 
-2.6646705049584662

>  <r_lp_Energy>  (1) 
0.043719999999999995

>  <r_lp_tautomer_probability>  (1) 
1

>  <s_epik_cmdline>  (1) 
J2VwaWtfcHl0aG9uJywgJy1waHQnLCAnMS4wJywgJy1waCcsICc3LjQnLCAnLXRuJywgJzgnLCAnLW1hJywgJzUwMCcsICctaW1hZScsICc8aW5maWxlLm1hZT4nLCAnLW9tYWUnLCAnPG91dGZpbGUubWFlPic=

>  <s_epik_input>  (1) 
W0NIMl0xW0NIMl1bQ0gyXU9DMShbQ0gzXSlbQ0gzXQ==

>  <s_glide_docking_method>  (1) 
confgen

>  <s_i_glide_gridfile>  (1) 
gpcr_drd2_6luq_protein_autoprepared_prepared

>  <s_lp_Force_Field>  (1) 
S-OPLS

>  <s_lp_Variant>  (1) 
Pocket2Mol_15_num_sample_50-1

>  <s_m_source_file>  (1) 
generated__ligand_Pocket2Mol_2026-05-06_prepared.sdf

>  <GenAI_Model>  (1) 
Pocket2Mol

>  <Protein>  (1) 
generic_title2

$$$$
Pocket2Mol_12_num_sample_50
     RDKit          3D

  0  0  0  0  0  0  0  0  0  0999 V3000
M  V30 BEGIN CTAB
M  V30 COUNTS 15 15 0 0 1
M  V30 BEGIN ATOM
M  V30 1 N 9.434840 7.508562 -8.153770 0
M  V30 2 C 9.434839 7.002204 -6.876604 0
M  V30 3 C 10.743123 7.027581 -6.414082 0
M  V30 4 C 10.689894 7.847479 -8.504435 0
M  V30 5 C 11.231991 6.569309 -5.068197 0
M  V30 6 N 11.042784 8.386373 -9.728588 0
M  V30 7 C 11.539753 7.581383 -7.485510 0
M  V30 8 H 8.516314 6.671449 -6.411518 0
M  V30 9 H 10.405888 6.187721 -4.466881 0
M  V30 10 H 11.961059 5.769367 -5.189527 0
M  V30 11 H 11.701434 7.393383 -4.531392 0
M  V30 12 H 11.991925 8.638435 -9.963874 0
M  V30 13 H 8.601788 7.614734 -8.740494 0
M  V30 14 H 12.605477 7.754211 -7.491668 0
M  V30 15 H 10.370761 8.562536 -10.461488 0
M  V30 END ATOM
M  V30 BEGIN BOND
M  V30 1 1 2 1
M  V30 2 2 3 2
M  V30 3 1 4 1
M  V30 4 1 5 3
M  V30 5 1 6 4
M  V30 6 1 7 3
M  V30 7 2 7 4
M  V30 8 1 8 2
M  V30 9 1 9 5
M  V30 10 1 10 5
M  V30 11 1 11 5
M  V30 12 1 12 6
M  V30 13 1 13 1
M  V30 14 1 14 7
M  V30 15 1 15 6
M  V30 END BOND
M  V30 END CTAB
M  END
>  <i_epik_Tot_Q>  (1) 
0

>  <i_epik_Tot_abs_Q>  (1) 
0

>  <i_i_glide_confnum>  (1) 
1

>  <i_i_glide_lignum>  (1) 
15

>  <i_i_glide_posenum>  (1) 
89

>  <i_i_glide_rotatable_bonds>  (1) 
0

>  <i_lp_mmshare_version>  (1) 
72125

>  <i_m_source_file_index>  (1) 
13

>  <i_f3d_flags>  (1) 
0

>  <num_sample>  (1) 
50

>  <b_lp_Chiralities_Consistent>  (1) 
1

>  <r_epik_Charging_Adjusted_Penalty>  (1) 
0

>  <r_epik_Ionization_Penalty>  (1) 
0.00031849139131666116

>  <r_epik_Ionization_Penalty_Charging>  (1) 
0

>  <r_epik_Ionization_Penalty_Neutral>  (1) 
0.00031849139131666116

>  <r_epik_State_Penalty>  (1) 
-0

>  <r_glide_ring_energy>  (1) 
0

>  <r_i_docking_score>  (1) 
-4.7501866083744071

>  <r_i_glide_ecoul>  (1) 
-3.4642044092770226

>  <r_i_glide_eff_state_penalty>  (1) 
-0

>  <r_i_glide_einternal>  (1) 
0

>  <r_i_glide_emodel>  (1) 
-23.662813039957662

>  <r_i_glide_emodel_strain>  (1) 
0

>  <r_i_glide_energy>  (1) 
-17.6315700995493

>  <r_i_glide_erotb>  (1) 
0

>  <r_i_glide_esite>  (1) 
-0.10000000000000001

>  <r_i_glide_evdw>  (1) 
-14.167365690272279

>  <r_i_glide_gscore>  (1) 
-4.7501866083744071

>  <r_i_glide_gscore_strain>  (1) 
0

>  <r_i_glide_hbond>  (1) 
-0.16

>  <r_i_glide_ligand_efficiency>  (1) 
-0.67859808691062962

>  <r_i_glide_ligand_efficiency_ln>  (1) 
-1.6124682587137575

>  <r_i_glide_ligand_efficiency_sa>  (1) 
-1.2981114410210313

>  <r_i_glide_lipo>  (1) 
-0.71218766246924026

>  <r_i_glide_metal>  (1) 
-0

>  <r_i_glide_rewards>  (1) 
-2.5499999999999998

>  <r_lp_Energy>  (1) 
-3.18065

>  <r_lp_tautomer_probability>  (1) 
1

>  <s_epik_cmdline>  (1) 
J2VwaWtfcHl0aG9uJywgJy1waHQnLCAnMS4wJywgJy1waCcsICc3LjQnLCAnLXRuJywgJzgnLCAnLW1hJywgJzUwMCcsICctaW1hZScsICc8aW5maWxlLm1hZT4nLCAnLW9tYWUnLCAnPG91dGZpbGUubWFlPic=

>  <s_epik_input>  (1) 
W05IMl1DKFtDSDJdMSk9TltDSF09QzFbQ0gzXQ==

>  <s_glide_docking_method>  (1) 
confgen

>  <s_i_glide_gridfile>  (1) 
gpcr_drd2_6luq_protein_autoprepared_prepared

>  <s_lp_Force_Field>  (1) 
S-OPLS

>  <s_lp_Variant>  (1) 
Pocket2Mol_12_num_sample_50-1

>  <s_m_source_file>  (1) 
generated__ligand_Pocket2Mol_2026-05-06_prepared.sdf

>  <GenAI_Model>  (1) 
Pocket2Mol

>  <Protein>  (1) 
generic_title2

$$$$
Pocket2Mol_29_num_sample_50
     RDKit          3D

  0  0  0  0  0  0  0  0  0  0999 V3000
M  V30 BEGIN CTAB
M  V30 COUNTS 14 14 0 0 1
M  V30 BEGIN ATOM
M  V30 1 N 11.024436 7.581696 -7.027181 0
M  V30 2 C 11.433605 8.866084 -7.039618 0
M  V30 3 C 11.849227 9.527631 -5.881516 0
M  V30 4 C 11.834832 8.795416 -4.695046 0
M  V30 5 O 12.234486 9.369640 -3.505200 0
M  V30 6 C 11.034855 6.992520 -5.821548 0
M  V30 7 N 11.434838 7.502852 -4.644967 0
M  V30 8 C 12.363858 8.552010 -2.346079 0
M  V30 9 H 11.426397 9.370090 -7.993876 0
M  V30 10 H 12.171988 10.557501 -5.904815 0
M  V30 11 H 10.700930 5.966678 -5.797905 0
M  V30 12 H 12.638273 9.174255 -1.495262 0
M  V30 13 H 11.434845 8.049042 -2.083831 0
M  V30 14 H 13.143240 7.801984 -2.483492 0
M  V30 END ATOM
M  V30 BEGIN BOND
M  V30 1 1 2 1
M  V30 2 2 3 2
M  V30 3 1 4 3
M  V30 4 1 5 4
M  V30 5 2 6 1
M  V30 6 2 7 4
M  V30 7 1 7 6
M  V30 8 1 8 5
M  V30 9 1 9 2
M  V30 10 1 10 3
M  V30 11 1 11 6
M  V30 12 1 12 8
M  V30 13 1 13 8
M  V30 14 1 14 8
M  V30 END BOND
M  V30 END CTAB
M  END
>  <i_epik_Tot_Q>  (1) 
0

>  <i_epik_Tot_abs_Q>  (1) 
0

>  <i_i_glide_confnum>  (1) 
1

>  <i_i_glide_lignum>  (1) 
33

>  <i_i_glide_posenum>  (1) 
280

>  <i_i_glide_rotatable_bonds>  (1) 
1

>  <i_lp_mmshare_version>  (1) 
72125

>  <i_m_source_file_index>  (1) 
30

>  <i_f3d_flags>  (1) 
0

>  <num_sample>  (1) 
50

>  <b_lp_Chiralities_Consistent>  (1) 
1

>  <r_epik_Charging_Adjusted_Penalty>  (1) 
0

>  <r_epik_Ionization_Penalty>  (1) 
8.6638422661064201e-06

>  <r_epik_Ionization_Penalty_Charging>  (1) 
0

>  <r_epik_Ionization_Penalty_Neutral>  (1) 
8.6638422661064201e-06

>  <r_epik_State_Penalty>  (1) 
-0

>  <r_glide_ring_energy>  (1) 
0

>  <r_i_docking_score>  (1) 
-4.7383483106045876

>  <r_i_glide_ecoul>  (1) 
-0.12897255387194553

>  <r_i_glide_eff_state_penalty>  (1) 
-0

>  <r_i_glide_einternal>  (1) 
0.061701078157501921

>  <r_i_glide_emodel>  (1) 
-24.387392769370599

>  <r_i_glide_emodel_strain>  (1) 
0

>  <r_i_glide_energy>  (1) 
-18.431076023100015

>  <r_i_glide_erotb>  (1) 
0

>  <r_i_glide_esite>  (1) 
0

>  <r_i_glide_evdw>  (1) 
-18.302103469228069

>  <r_i_glide_gscore>  (1) 
-4.7383483106045876

>  <r_i_glide_gscore_strain>  (1) 
0

>  <r_i_glide_hbond>  (1) 
0

>  <r_i_glide_ligand_efficiency>  (1) 
-0.59229353882557345

>  <r_i_glide_ligand_efficiency_ln>  (1) 
-1.5387037703010975

>  <r_i_glide_ligand_efficiency_sa>  (1) 
-1.1845870776511471

>  <r_i_glide_lipo>  (1) 
-1.1353326863156623

>  <r_i_glide_metal>  (1) 
-0

>  <r_i_glide_rewards>  (1) 
-2.6685645677467305

>  <r_lp_Energy>  (1) 
14.393509

>  <r_lp_tautomer_probability>  (1) 
1

>  <s_epik_cmdline>  (1) 
J2VwaWtfcHl0aG9uJywgJy1waHQnLCAnMS4wJywgJy1waCcsICc3LjQnLCAnLXRuJywgJzgnLCAnLW1hJywgJzUwMCcsICctaW1hZScsICc8aW5maWxlLm1hZT4nLCAnLW9tYWUnLCAnPG91dGZpbGUubWFlPic=

>  <s_epik_input>  (1) 
bjFbY0hdbltjSF1bY0hdYzFPW0NIM10=

>  <s_glide_docking_method>  (1) 
confgen

>  <s_i_glide_gridfile>  (1) 
gpcr_drd2_6luq_protein_autoprepared_prepared

>  <s_lp_Force_Field>  (1) 
S-OPLS

>  <s_lp_Variant>  (1) 
Pocket2Mol_29_num_sample_50-1

>  <s_m_source_file>  (1) 
generated__ligand_Pocket2Mol_2026-05-06_prepared.sdf

>  <GenAI_Model>  (1) 
Pocket2Mol

>  <Protein>  (1) 
generic_title2

$$$$
Pocket2Mol_26_num_sample_50
     RDKit          3D

  0  0  0  0  0  0  0  0  0  0999 V3000
M  V30 BEGIN CTAB
M  V30 COUNTS 15 15 0 0 1
M  V30 BEGIN ATOM
M  V30 1 C 12.054508 8.442671 -8.707306 0
M  V30 2 O 12.215709 8.969289 -7.363786 0
M  V30 3 C 11.207300 8.834685 -6.415424 0
M  V30 4 C 11.533290 9.487210 -5.091669 0
M  V30 5 C 10.750280 7.708908 -8.929468 0
M  V30 6 C 10.062922 8.178090 -6.691669 0
M  V30 7 C 9.834839 7.596758 -7.976034 0
M  V30 8 H 12.120579 9.267872 -9.417052 0
M  V30 9 H 12.884236 7.769312 -8.921054 0
M  V30 10 H 11.059531 8.948953 -4.272709 0
M  V30 11 H 12.610169 9.492916 -4.920923 0
M  V30 12 H 11.175303 10.517078 -5.082202 0
M  V30 13 H 10.581837 7.274243 -9.903787 0
M  V30 14 H 9.301703 8.092135 -5.929776 0
M  V30 15 H 8.912170 7.067749 -8.172690 0
M  V30 END ATOM
M  V30 BEGIN BOND
M  V30 1 1 2 1
M  V30 2 1 3 2
M  V30 3 1 4 3
M  V30 4 1 5 1
M  V30 5 2 6 3
M  V30 6 2 7 5
M  V30 7 1 7 6
M  V30 8 1 8 1
M  V30 9 1 9 1
M  V30 10 1 10 4
M  V30 11 1 11 4
M  V30 12 1 12 4
M  V30 13 1 13 5
M  V30 14 1 14 6
M  V30 15 1 15 7
M  V30 END BOND
M  V30 END CTAB
M  END
>  <i_epik_Tot_Q>  (1) 
0

>  <i_epik_Tot_abs_Q>  (1) 
0

>  <i_i_glide_confnum>  (1) 
1

>  <i_i_glide_lignum>  (1) 
30

>  <i_i_glide_posenum>  (1) 
156

>  <i_i_glide_rotatable_bonds>  (1) 
0

>  <i_lp_mmshare_version>  (1) 
72125

>  <i_m_source_file_index>  (1) 
27

>  <i_f3d_flags>  (1) 
0

>  <num_sample>  (1) 
50

>  <b_lp_Chiralities_Consistent>  (1) 
1

>  <r_epik_Charging_Adjusted_Penalty>  (1) 
0

>  <r_epik_Ionization_Penalty>  (1) 
0

>  <r_epik_Ionization_Penalty_Charging>  (1) 
0

>  <r_epik_Ionization_Penalty_Neutral>  (1) 
0

>  <r_epik_State_Penalty>  (1) 
-0

>  <r_glide_ring_energy>  (1) 
0

>  <r_i_docking_score>  (1) 
-4.7321335103315478

>  <r_i_glide_ecoul>  (1) 
-0.69044703696922005

>  <r_i_glide_eff_state_penalty>  (1) 
-0

>  <r_i_glide_einternal>  (1) 
0

>  <r_i_glide_emodel>  (1) 
-22.795583173979459

>  <r_i_glide_emodel_strain>  (1) 
0

>  <r_i_glide_energy>  (1) 
-17.577267820250558

>  <r_i_glide_erotb>  (1) 
0

>  <r_i_glide_esite>  (1) 
0

>  <r_i_glide_evdw>  (1) 
-16.886820783281337

>  <r_i_glide_gscore>  (1) 
-4.7321335103315478

>  <r_i_glide_gscore_strain>  (1) 
0

>  <r_i_glide_hbond>  (1) 
0

>  <r_i_glide_ligand_efficiency>  (1) 
-0.6760190729045068

>  <r_i_glide_ligand_efficiency_ln>  (1) 
-1.6063400683992468

>  <r_i_glide_ligand_efficiency_sa>  (1) 
-1.2931779647079122

>  <r_i_glide_lipo>  (1) 
-1.0342254156220978

>  <r_i_glide_metal>  (1) 
-0

>  <r_i_glide_rewards>  (1) 
-2.75

>  <r_lp_Energy>  (1) 
4.7929789999999999

>  <r_lp_tautomer_probability>  (1) 
1

>  <s_epik_cmdline>  (1) 
J2VwaWtfcHl0aG9uJywgJy1waHQnLCAnMS4wJywgJy1waCcsICc3LjQnLCAnLXRuJywgJzgnLCAnLW1hJywgJzUwMCcsICctaW1hZScsICc8aW5maWxlLm1hZT4nLCAnLW9tYWUnLCAnPG91dGZpbGUubWFlPic=

>  <s_epik_input>  (1) 
TzFbQ0gyXVtDSF09W0NIXVtDSF09QzFbQ0gzXQ==

>  <s_glide_docking_method>  (1) 
confgen

>  <s_i_glide_gridfile>  (1) 
gpcr_drd2_6luq_protein_autoprepared_prepared

>  <s_lp_Force_Field>  (1) 
S-OPLS

>  <s_lp_Variant>  (1) 
Pocket2Mol_26_num_sample_50-1

>  <s_m_source_file>  (1) 
generated__ligand_Pocket2Mol_2026-05-06_prepared.sdf

>  <GenAI_Model>  (1) 
Pocket2Mol

>  <Protein>  (1) 
generic_title2

$$$$
Pocket2Mol_30_num_sample_50
     RDKit          3D

  0  0  0  0  0  0  0  0  0  0999 V3000
M  V30 BEGIN CTAB
M  V30 COUNTS 20 21 0 0 1
M  V30 BEGIN ATOM
M  V30 1 C 9.128176 7.393430 -7.004598 0
M  V30 2 O 9.835264 8.569384 -6.605294 0
M  V30 3 C 11.133860 8.605044 -7.207124 0 CFG=2
M  V30 4 C 12.085678 9.387980 -6.309208 0
M  V30 5 C 11.070207 8.927966 -8.710938 0
M  V30 6 C 10.209487 6.332485 -7.158525 0
M  V30 7 C 11.656965 7.550280 -9.006728 0
M  V30 8 C 11.417069 7.139864 -7.544986 0 CFG=1
M  V30 9 H 8.358356 7.110940 -6.291641 0
M  V30 10 H 8.634843 7.571781 -7.956153 0
M  V30 11 H 13.105877 9.368984 -6.692997 0
M  V30 12 H 12.104624 8.977027 -5.299013 0
M  V30 13 H 11.784583 10.433221 -6.234621 0
M  V30 14 H 10.055427 9.048095 -9.093860 0
M  V30 15 H 11.716572 9.748711 -9.025228 0
M  V30 16 H 10.379619 5.838680 -6.202079 0
M  V30 17 H 9.942725 5.570753 -7.891315 0
M  V30 18 H 11.091091 6.970235 -9.736891 0
M  V30 19 H 12.714512 7.603838 -9.269222 0
M  V30 20 H 12.331363 6.766844 -7.091603 0
M  V30 END ATOM
M  V30 BEGIN BOND
M  V30 1 1 2 1
M  V30 2 1 3 2
M  V30 3 1 3 4 CFG=1
M  V30 4 1 5 3
M  V30 5 1 6 1
M  V30 6 1 7 5
M  V30 7 1 8 3
M  V30 8 1 8 6
M  V30 9 1 8 7
M  V30 10 1 9 1
M  V30 11 1 10 1
M  V30 12 1 11 4
M  V30 13 1 12 4
M  V30 14 1 13 4
M  V30 15 1 14 5
M  V30 16 1 15 5
M  V30 17 1 16 6
M  V30 18 1 17 6
M  V30 19 1 18 7
M  V30 20 1 19 7
M  V30 21 1 8 20 CFG=1
M  V30 END BOND
M  V30 END CTAB
M  END
>  <i_epik_Tot_Q>  (1) 
0

>  <i_epik_Tot_abs_Q>  (1) 
0

>  <i_i_glide_confnum>  (1) 
1

>  <i_i_glide_lignum>  (1) 
34

>  <i_i_glide_posenum>  (1) 
50

>  <i_i_glide_rotatable_bonds>  (1) 
0

>  <i_lp_mmshare_version>  (1) 
72125

>  <i_m_source_file_index>  (1) 
31

>  <i_f3d_flags>  (1) 
0

>  <num_sample>  (1) 
50

>  <b_lp_Chiralities_Consistent>  (1) 
1

>  <r_epik_Charging_Adjusted_Penalty>  (1) 
0

>  <r_epik_Ionization_Penalty>  (1) 
2.3587344998035955e-11

>  <r_epik_Ionization_Penalty_Charging>  (1) 
0

>  <r_epik_Ionization_Penalty_Neutral>  (1) 
2.3587344998035955e-11

>  <r_epik_State_Penalty>  (1) 
-0

>  <r_glide_ring_energy>  (1) 
0

>  <r_i_docking_score>  (1) 
-4.7307916439214877

>  <r_i_glide_ecoul>  (1) 
-0.83243303644085576

>  <r_i_glide_eff_state_penalty>  (1) 
-0

>  <r_i_glide_einternal>  (1) 
0

>  <r_i_glide_emodel>  (1) 
-18.473769191398041

>  <r_i_glide_emodel_strain>  (1) 
0

>  <r_i_glide_energy>  (1) 
-14.022113764422445

>  <r_i_glide_erotb>  (1) 
0

>  <r_i_glide_esite>  (1) 
0

>  <r_i_glide_evdw>  (1) 
-13.189680727981589

>  <r_i_glide_gscore>  (1) 
-4.7307916439214877

>  <r_i_glide_gscore_strain>  (1) 
0

>  <r_i_glide_hbond>  (1) 
0

>  <r_i_glide_ligand_efficiency>  (1) 
-0.59134895549018596

>  <r_i_glide_ligand_efficiency_ln>  (1) 
-1.5362498621554739

>  <r_i_glide_ligand_efficiency_sa>  (1) 
-1.1826979109803721

>  <r_i_glide_lipo>  (1) 
-1.14644265205628

>  <r_i_glide_metal>  (1) 
-0

>  <r_i_glide_rewards>  (1) 
-2.7999999999999998

>  <r_lp_Energy>  (1) 
15.613807

>  <r_lp_tautomer_probability>  (1) 
1

>  <s_epik_cmdline>  (1) 
J2VwaWtfcHl0aG9uJywgJy1waHQnLCAnMS4wJywgJy1waCcsICc3LjQnLCAnLXRuJywgJzgnLCAnLW1hJywgJzUwMCcsICctaW1hZScsICc8aW5maWxlLm1hZT4nLCAnLW9tYWUnLCAnPG91dGZpbGUubWFlPic=

>  <s_epik_input>  (1) 
TzFbQ0gyXVtDSDJdW0NASF0oW0NAXTEyW0NIM10pW0NIMl1bQ0gyXTI=

>  <s_glide_docking_method>  (1) 
confgen

>  <s_i_glide_gridfile>  (1) 
gpcr_drd2_6luq_protein_autoprepared_prepared

>  <s_lp_Force_Field>  (1) 
S-OPLS

>  <s_lp_Variant>  (1) 
Pocket2Mol_30_num_sample_50-1

>  <s_m_source_file>  (1) 
generated__ligand_Pocket2Mol_2026-05-06_prepared.sdf

>  <GenAI_Model>  (1) 
Pocket2Mol

>  <Protein>  (1) 
generic_title2

$$$$
Pocket2Mol_29_num_sample_50
     RDKit          3D

  0  0  0  0  0  0  0  0  0  0999 V3000
M  V30 BEGIN CTAB
M  V30 COUNTS 14 14 0 0 1
M  V30 BEGIN ATOM
M  V30 1 N 11.068705 8.969274 -6.219641 0
M  V30 2 C 10.930056 7.670002 -5.886304 0
M  V30 3 C 11.434838 7.150292 -4.691680 0
M  V30 4 C 12.099735 8.046240 -3.839357 0
M  V30 5 O 12.635258 7.650720 -2.631584 0
M  V30 6 C 11.722994 9.721015 -5.320837 0
M  V30 7 N 12.255656 9.349579 -4.144858 0
M  V30 8 C 12.340057 6.349566 -2.139114 0
M  V30 9 H 10.405327 7.038667 -6.588026 0
M  V30 10 H 11.309977 6.108007 -4.443565 0
M  V30 11 H 11.834613 10.764275 -5.576540 0
M  V30 12 H 12.900979 6.176150 -1.221499 0
M  V30 13 H 11.277869 6.243763 -1.914596 0
M  V30 14 H 12.634841 5.563790 -2.830200 0
M  V30 END ATOM
M  V30 BEGIN BOND
M  V30 1 1 2 1
M  V30 2 2 3 2
M  V30 3 1 4 3
M  V30 4 1 5 4
M  V30 5 2 6 1
M  V30 6 2 7 4
M  V30 7 1 7 6
M  V30 8 1 8 5
M  V30 9 1 9 2
M  V30 10 1 10 3
M  V30 11 1 11 6
M  V30 12 1 12 8
M  V30 13 1 13 8
M  V30 14 1 14 8
M  V30 END BOND
M  V30 END CTAB
M  END
>  <i_epik_Tot_Q>  (1) 
0

>  <i_epik_Tot_abs_Q>  (1) 
0

>  <i_i_glide_confnum>  (1) 
1

>  <i_i_glide_lignum>  (1) 
33

>  <i_i_glide_posenum>  (1) 
226

>  <i_i_glide_rotatable_bonds>  (1) 
1

>  <i_lp_mmshare_version>  (1) 
72125

>  <i_m_source_file_index>  (1) 
30

>  <i_f3d_flags>  (1) 
0

>  <num_sample>  (1) 
50

>  <b_lp_Chiralities_Consistent>  (1) 
1

>  <r_epik_Charging_Adjusted_Penalty>  (1) 
0

>  <r_epik_Ionization_Penalty>  (1) 
8.6638422661064201e-06

>  <r_epik_Ionization_Penalty_Charging>  (1) 
0

>  <r_epik_Ionization_Penalty_Neutral>  (1) 
8.6638422661064201e-06

>  <r_epik_State_Penalty>  (1) 
-0

>  <r_glide_ring_energy>  (1) 
0

>  <r_i_docking_score>  (1) 
-4.7103335654439045

>  <r_i_glide_ecoul>  (1) 
-1.0180103367722533

>  <r_i_glide_eff_state_penalty>  (1) 
-0

>  <r_i_glide_einternal>  (1) 
4.0055907775909203

>  <r_i_glide_emodel>  (1) 
-23.675768866625084

>  <r_i_glide_emodel_strain>  (1) 
0

>  <r_i_glide_energy>  (1) 
-19.726795162592861

>  <r_i_glide_erotb>  (1) 
0

>  <r_i_glide_esite>  (1) 
0

>  <r_i_glide_evdw>  (1) 
-18.708784825820608

>  <r_i_glide_gscore>  (1) 
-4.7103335654439045

>  <r_i_glide_gscore_strain>  (1) 
0

>  <r_i_glide_hbond>  (1) 
0

>  <r_i_glide_ligand_efficiency>  (1) 
-0.58879169568048806

>  <r_i_glide_ligand_efficiency_ln>  (1) 
-1.5296064243110836

>  <r_i_glide_ligand_efficiency_sa>  (1) 
-1.1775833913609763

>  <r_i_glide_lipo>  (1) 
-0.92373519914112967

>  <r_i_glide_metal>  (1) 
-0

>  <r_i_glide_rewards>  (1) 
-2.6984575744959067

>  <r_lp_Energy>  (1) 
14.393509

>  <r_lp_tautomer_probability>  (1) 
1

>  <s_epik_cmdline>  (1) 
J2VwaWtfcHl0aG9uJywgJy1waHQnLCAnMS4wJywgJy1waCcsICc3LjQnLCAnLXRuJywgJzgnLCAnLW1hJywgJzUwMCcsICctaW1hZScsICc8aW5maWxlLm1hZT4nLCAnLW9tYWUnLCAnPG91dGZpbGUubWFlPic=

>  <s_epik_input>  (1) 
bjFbY0hdbltjSF1bY0hdYzFPW0NIM10=

>  <s_glide_docking_method>  (1) 
confgen

>  <s_i_glide_gridfile>  (1) 
gpcr_drd2_6luq_protein_autoprepared_prepared

>  <s_lp_Force_Field>  (1) 
S-OPLS

>  <s_lp_Variant>  (1) 
Pocket2Mol_29_num_sample_50-1

>  <s_m_source_file>  (1) 
generated__ligand_Pocket2Mol_2026-05-06_prepared.sdf

>  <GenAI_Model>  (1) 
Pocket2Mol

>  <Protein>  (1) 
generic_title2

$$$$
Pocket2Mol_29_num_sample_50
     RDKit          3D

  0  0  0  0  0  0  0  0  0  0999 V3000
M  V30 BEGIN CTAB
M  V30 COUNTS 14 14 0 0 1
M  V30 BEGIN ATOM
M  V30 1 N 10.937430 8.653566 -6.377416 0
M  V30 2 C 10.855356 7.362060 -5.995193 0
M  V30 3 C 11.299435 6.927439 -4.744639 0
M  V30 4 C 11.834839 7.891629 -3.891667 0
M  V30 5 O 12.285275 7.548041 -2.631669 0
M  V30 6 C 11.471005 9.483776 -5.468305 0
M  V30 7 N 11.933662 9.196827 -4.240541 0
M  V30 8 C 12.801104 8.569301 -1.784226 0
M  V30 9 H 10.426956 6.668660 -6.703786 0
M  V30 10 H 11.225612 5.890699 -4.449311 0
M  V30 11 H 11.537767 10.520721 -5.763116 0
M  V30 12 H 13.034872 8.159804 -0.803556 0
M  V30 13 H 13.725622 8.969301 -2.195784 0
M  V30 14 H 12.086487 9.380179 -1.633970 0
M  V30 END ATOM
M  V30 BEGIN BOND
M  V30 1 1 2 1
M  V30 2 2 3 2
M  V30 3 1 4 3
M  V30 4 1 5 4
M  V30 5 2 6 1
M  V30 6 2 7 4
M  V30 7 1 7 6
M  V30 8 1 8 5
M  V30 9 1 9 2
M  V30 10 1 10 3
M  V30 11 1 11 6
M  V30 12 1 12 8
M  V30 13 1 13 8
M  V30 14 1 14 8
M  V30 END BOND
M  V30 END CTAB
M  END
>  <i_epik_Tot_Q>  (1) 
0

>  <i_epik_Tot_abs_Q>  (1) 
0

>  <i_i_glide_confnum>  (1) 
1

>  <i_i_glide_lignum>  (1) 
33

>  <i_i_glide_posenum>  (1) 
326

>  <i_i_glide_rotatable_bonds>  (1) 
1

>  <i_lp_mmshare_version>  (1) 
72125

>  <i_m_source_file_index>  (1) 
30

>  <i_f3d_flags>  (1) 
0

>  <num_sample>  (1) 
50

>  <b_lp_Chiralities_Consistent>  (1) 
1

>  <r_epik_Charging_Adjusted_Penalty>  (1) 
0

>  <r_epik_Ionization_Penalty>  (1) 
8.6638422661064201e-06

>  <r_epik_Ionization_Penalty_Charging>  (1) 
0

>  <r_epik_Ionization_Penalty_Neutral>  (1) 
8.6638422661064201e-06

>  <r_epik_State_Penalty>  (1) 
-0

>  <r_glide_ring_energy>  (1) 
0

>  <r_i_docking_score>  (1) 
-4.7075182748697708

>  <r_i_glide_ecoul>  (1) 
-0.95956150803172724

>  <r_i_glide_eff_state_penalty>  (1) 
-0

>  <r_i_glide_einternal>  (1) 
0.0010651928812140943

>  <r_i_glide_emodel>  (1) 
-25.527368618931494

>  <r_i_glide_emodel_strain>  (1) 
0

>  <r_i_glide_energy>  (1) 
-19.57968939915629

>  <r_i_glide_erotb>  (1) 
0

>  <r_i_glide_esite>  (1) 
0

>  <r_i_glide_evdw>  (1) 
-18.620127891124564

>  <r_i_glide_gscore>  (1) 
-4.7075182748697708

>  <r_i_glide_gscore_strain>  (1) 
0

>  <r_i_glide_hbond>  (1) 
0

>  <r_i_glide_ligand_efficiency>  (1) 
-0.58843978435872135

>  <r_i_glide_ligand_efficiency_ln>  (1) 
-1.5286922031654542

>  <r_i_glide_ligand_efficiency_sa>  (1) 
-1.1768795687174429

>  <r_i_glide_lipo>  (1) 
-0.93257788091513283

>  <r_i_glide_metal>  (1) 
-0

>  <r_i_glide_rewards>  (1) 
-2.69999977319365

>  <r_lp_Energy>  (1) 
14.393509

>  <r_lp_tautomer_probability>  (1) 
1

>  <s_epik_cmdline>  (1) 
J2VwaWtfcHl0aG9uJywgJy1waHQnLCAnMS4wJywgJy1waCcsICc3LjQnLCAnLXRuJywgJzgnLCAnLW1hJywgJzUwMCcsICctaW1hZScsICc8aW5maWxlLm1hZT4nLCAnLW9tYWUnLCAnPG91dGZpbGUubWFlPic=

>  <s_epik_input>  (1) 
bjFbY0hdbltjSF1bY0hdYzFPW0NIM10=

>  <s_glide_docking_method>  (1) 
confgen

>  <s_i_glide_gridfile>  (1) 
gpcr_drd2_6luq_protein_autoprepared_prepared

>  <s_lp_Force_Field>  (1) 
S-OPLS

>  <s_lp_Variant>  (1) 
Pocket2Mol_29_num_sample_50-1

>  <s_m_source_file>  (1) 
generated__ligand_Pocket2Mol_2026-05-06_prepared.sdf

>  <GenAI_Model>  (1) 
Pocket2Mol

>  <Protein>  (1) 
generic_title2

$$$$
Pocket2Mol_30_num_sample_50
     RDKit          3D

  0  0  0  0  0  0  0  0  0  0999 V3000
M  V30 BEGIN CTAB
M  V30 COUNTS 20 21 0 0 1
M  V30 BEGIN ATOM
M  V30 1 C 11.341456 8.020517 -9.135022 0
M  V30 2 O 11.923776 8.518977 -7.929807 0
M  V30 3 C 11.087277 8.237689 -6.803249 0 CFG=2
M  V30 4 C 11.274632 9.333826 -5.762521 0
M  V30 5 C 11.164414 6.762641 -6.375195 0
M  V30 6 C 9.834851 8.096612 -8.909922 0
M  V30 7 C 9.694745 6.593190 -6.756767 0
M  V30 8 C 9.709567 7.978569 -7.417325 0 CFG=1
M  V30 9 H 11.666916 8.593249 -10.003717 0
M  V30 10 H 11.649893 6.984603 -9.279019 0
M  V30 11 H 10.634841 9.172417 -4.896354 0
M  V30 12 H 11.034839 10.314600 -6.172508 0
M  V30 13 H 12.305287 9.369306 -5.409473 0
M  V30 14 H 11.834845 6.159789 -6.986987 0
M  V30 15 H 11.354565 6.612652 -5.311993 0
M  V30 16 H 9.443035 9.054426 -9.250372 0
M  V30 17 H 9.300995 7.310802 -9.444946 0
M  V30 18 H 9.504023 5.769316 -7.445368 0
M  V30 19 H 9.034840 6.546325 -5.891664 0
M  V30 20 H 8.926568 8.612250 -6.997887 0
M  V30 END ATOM
M  V30 BEGIN BOND
M  V30 1 1 2 1
M  V30 2 1 3 2
M  V30 3 1 3 4 CFG=1
M  V30 4 1 5 3
M  V30 5 1 6 1
M  V30 6 1 7 5
M  V30 7 1 8 3
M  V30 8 1 8 6
M  V30 9 1 8 7
M  V30 10 1 9 1
M  V30 11 1 10 1
M  V30 12 1 11 4
M  V30 13 1 12 4
M  V30 14 1 13 4
M  V30 15 1 14 5
M  V30 16 1 15 5
M  V30 17 1 16 6
M  V30 18 1 17 6
M  V30 19 1 18 7
M  V30 20 1 19 7
M  V30 21 1 8 20 CFG=1
M  V30 END BOND
M  V30 END CTAB
M  END
>  <i_epik_Tot_Q>  (1) 
0

>  <i_epik_Tot_abs_Q>  (1) 
0

>  <i_i_glide_confnum>  (1) 
1

>  <i_i_glide_lignum>  (1) 
34

>  <i_i_glide_posenum>  (1) 
216

>  <i_i_glide_rotatable_bonds>  (1) 
0

>  <i_lp_mmshare_version>  (1) 
72125

>  <i_m_source_file_index>  (1) 
31

>  <i_f3d_flags>  (1) 
0

>  <num_sample>  (1) 
50

>  <b_lp_Chiralities_Consistent>  (1) 
1

>  <r_epik_Charging_Adjusted_Penalty>  (1) 
0

>  <r_epik_Ionization_Penalty>  (1) 
2.3587344998035955e-11

>  <r_epik_Ionization_Penalty_Charging>  (1) 
0

>  <r_epik_Ionization_Penalty_Neutral>  (1) 
2.3587344998035955e-11

>  <r_epik_State_Penalty>  (1) 
-0

>  <r_glide_ring_energy>  (1) 
0

>  <r_i_docking_score>  (1) 
-4.7045934736383987

>  <r_i_glide_ecoul>  (1) 
-0.29488612423416094

>  <r_i_glide_eff_state_penalty>  (1) 
-0

>  <r_i_glide_einternal>  (1) 
0

>  <r_i_glide_emodel>  (1) 
-19.567787286245473

>  <r_i_glide_emodel_strain>  (1) 
6.5142558014485985e-11

>  <r_i_glide_energy>  (1) 
-15.14078422952921

>  <r_i_glide_erotb>  (1) 
0

>  <r_i_glide_esite>  (1) 
0

>  <r_i_glide_evdw>  (1) 
-14.845898105295049

>  <r_i_glide_gscore>  (1) 
-4.7045934736383987

>  <r_i_glide_gscore_strain>  (1) 
0

>  <r_i_glide_hbond>  (1) 
0

>  <r_i_glide_ligand_efficiency>  (1) 
-0.58807418420479984

>  <r_i_glide_ligand_efficiency_ln>  (1) 
-1.5277424201636387

>  <r_i_glide_ligand_efficiency_sa>  (1) 
-1.1761483684095999

>  <r_i_glide_lipo>  (1) 
-1.0762535069124692

>  <r_i_glide_metal>  (1) 
-0

>  <r_i_glide_rewards>  (1) 
-2.8418121428260523

>  <r_lp_Energy>  (1) 
15.613807

>  <r_lp_tautomer_probability>  (1) 
1

>  <s_epik_cmdline>  (1) 
J2VwaWtfcHl0aG9uJywgJy1waHQnLCAnMS4wJywgJy1waCcsICc3LjQnLCAnLXRuJywgJzgnLCAnLW1hJywgJzUwMCcsICctaW1hZScsICc8aW5maWxlLm1hZT4nLCAnLW9tYWUnLCAnPG91dGZpbGUubWFlPic=

>  <s_epik_input>  (1) 
TzFbQ0gyXVtDSDJdW0NASF0oW0NAXTEyW0NIM10pW0NIMl1bQ0gyXTI=

>  <s_glide_docking_method>  (1) 
confgen

>  <s_i_glide_gridfile>  (1) 
gpcr_drd2_6luq_protein_autoprepared_prepared

>  <s_lp_Force_Field>  (1) 
S-OPLS

>  <s_lp_Variant>  (1) 
Pocket2Mol_30_num_sample_50-1

>  <s_m_source_file>  (1) 
generated__ligand_Pocket2Mol_2026-05-06_prepared.sdf

>  <GenAI_Model>  (1) 
Pocket2Mol

>  <Protein>  (1) 
generic_title2

$$$$
Pocket2Mol_16_num_sample_50
     RDKit          3D

  0  0  0  0  0  0  0  0  0  0999 V3000
M  V30 BEGIN CTAB
M  V30 COUNTS 12 12 0 0 1
M  V30 BEGIN ATOM
M  V30 1 N 9.434657 8.032287 -8.388219 0
M  V30 2 C 10.587876 8.320560 -9.093303 0
M  V30 3 C 11.724743 8.754645 -8.511486 0
M  V30 4 C 11.749269 8.944630 -7.033584 0
M  V30 5 O 12.740209 9.369703 -6.448390 0
M  V30 6 C 9.434839 8.170626 -7.013693 0
M  V30 7 C 10.501687 8.596998 -6.308999 0
M  V30 8 H 10.500757 8.171584 -10.159863 0
M  V30 9 H 12.611122 8.977100 -9.087881 0
M  V30 10 H 8.567500 7.769131 -8.880594 0
M  V30 11 H 8.495671 7.910485 -6.545562 0
M  V30 12 H 10.470414 8.699741 -5.236354 0
M  V30 END ATOM
M  V30 BEGIN BOND
M  V30 1 1 2 1
M  V30 2 2 3 2
M  V30 3 1 4 3
M  V30 4 2 5 4
M  V30 5 1 6 1
M  V30 6 1 7 4
M  V30 7 2 7 6
M  V30 8 1 8 2
M  V30 9 1 9 3
M  V30 10 1 10 1
M  V30 11 1 11 6
M  V30 12 1 12 7
M  V30 END BOND
M  V30 END CTAB
M  END
>  <i_epik_Tot_Q>  (1) 
0

>  <i_epik_Tot_abs_Q>  (1) 
0

>  <i_i_glide_confnum>  (1) 
1

>  <i_i_glide_lignum>  (1) 
19

>  <i_i_glide_posenum>  (1) 
359

>  <i_i_glide_rotatable_bonds>  (1) 
0

>  <i_lp_mmshare_version>  (1) 
72125

>  <i_m_source_file_index>  (1) 
17

>  <i_f3d_flags>  (1) 
0

>  <num_sample>  (1) 
50

>  <b_lp_Chiralities_Consistent>  (1) 
1

>  <r_epik_Charging_Adjusted_Penalty>  (1) 
0.00011828912318149299

>  <r_epik_Ionization_Penalty>  (1) 
0.00011828912318149299

>  <r_epik_Ionization_Penalty_Charging>  (1) 
0.00011828912318149299

>  <r_epik_Ionization_Penalty_Neutral>  (1) 
0

>  <r_epik_State_Penalty>  (1) 
-0

>  <r_glide_ring_energy>  (1) 
0

>  <r_i_docking_score>  (1) 
-4.7010798318875917

>  <r_i_glide_ecoul>  (1) 
-4.9562256789478374

>  <r_i_glide_eff_state_penalty>  (1) 
-0

>  <r_i_glide_einternal>  (1) 
0

>  <r_i_glide_emodel>  (1) 
-23.396179794191632

>  <r_i_glide_emodel_strain>  (1) 
6.3849192599718663e-10

>  <r_i_glide_energy>  (1) 
-17.483580914306263

>  <r_i_glide_erotb>  (1) 
0

>  <r_i_glide_esite>  (1) 
-0.10000000000000001

>  <r_i_glide_evdw>  (1) 
-12.527355235358424

>  <r_i_glide_gscore>  (1) 
-4.7010798318875917

>  <r_i_glide_gscore_strain>  (1) 
0

>  <r_i_glide_hbond>  (1) 
-0.16

>  <r_i_glide_ligand_efficiency>  (1) 
-0.67158283312679878

>  <r_i_glide_ligand_efficiency_ln>  (1) 
-1.5957987834065888

>  <r_i_glide_ligand_efficiency_sa>  (1) 
-1.2846917433028793

>  <r_i_glide_lipo>  (1) 
-0.82127821827749492

>  <r_i_glide_metal>  (1) 
-0

>  <r_i_glide_rewards>  (1) 
-2.25

>  <r_lp_Energy>  (1) 
8.1847359999999991

>  <r_lp_tautomer_probability>  (1) 
1

>  <s_epik_cmdline>  (1) 
J2VwaWtfcHl0aG9uJywgJy1waHQnLCAnMS4wJywgJy1waCcsICc3LjQnLCAnLXRuJywgJzgnLCAnLW1hJywgJzUwMCcsICctaW1hZScsICc8aW5maWxlLm1hZT4nLCAnLW9tYWUnLCAnPG91dGZpbGUubWFlPic=

>  <s_epik_input>  (1) 
W2NIXTFbY0hdbltjSF1bY0hdYzFbT0hd

>  <s_glide_docking_method>  (1) 
confgen

>  <s_i_glide_gridfile>  (1) 
gpcr_drd2_6luq_protein_autoprepared_prepared

>  <s_lp_Force_Field>  (1) 
S-OPLS

>  <s_lp_Variant>  (1) 
Pocket2Mol_16_num_sample_50-1

>  <s_m_source_file>  (1) 
generated__ligand_Pocket2Mol_2026-05-06_prepared.sdf

>  <GenAI_Model>  (1) 
Pocket2Mol

>  <Protein>  (1) 
generic_title2

$$$$
Pocket2Mol_16_num_sample_50
     RDKit          3D

  0  0  0  0  0  0  0  0  0  0999 V3000
M  V30 BEGIN CTAB
M  V30 COUNTS 12 12 0 0 1
M  V30 BEGIN ATOM
M  V30 1 N 11.279725 7.731566 -5.276145 0
M  V30 2 C 11.669690 8.974528 -4.813525 0
M  V30 3 C 12.145934 9.187520 -3.569400 0
M  V30 4 C 12.260851 8.037585 -2.635202 0
M  V30 5 O 12.680898 8.171740 -1.491664 0
M  V30 6 C 11.379228 6.640467 -4.433628 0
M  V30 7 C 11.834839 6.716506 -3.166840 0
M  V30 8 H 11.558647 9.769237 -5.537324 0
M  V30 9 H 12.441149 10.168600 -3.232774 0
M  V30 10 H 10.924364 7.621203 -6.216821 0
M  V30 11 H 11.052907 5.715413 -4.875968 0
M  V30 12 H 11.898425 5.844515 -2.529979 0
M  V30 END ATOM
M  V30 BEGIN BOND
M  V30 1 1 2 1
M  V30 2 2 3 2
M  V30 3 1 4 3
M  V30 4 2 5 4
M  V30 5 1 6 1
M  V30 6 1 7 4
M  V30 7 2 7 6
M  V30 8 1 8 2
M  V30 9 1 9 3
M  V30 10 1 10 1
M  V30 11 1 11 6
M  V30 12 1 12 7
M  V30 END BOND
M  V30 END CTAB
M  END
>  <i_epik_Tot_Q>  (1) 
0

>  <i_epik_Tot_abs_Q>  (1) 
0

>  <i_i_glide_confnum>  (1) 
1

>  <i_i_glide_lignum>  (1) 
19

>  <i_i_glide_posenum>  (1) 
207

>  <i_i_glide_rotatable_bonds>  (1) 
0

>  <i_lp_mmshare_version>  (1) 
72125

>  <i_m_source_file_index>  (1) 
17

>  <i_f3d_flags>  (1) 
0

>  <num_sample>  (1) 
50

>  <b_lp_Chiralities_Consistent>  (1) 
1

>  <r_epik_Charging_Adjusted_Penalty>  (1) 
0.00011828912318149299

>  <r_epik_Ionization_Penalty>  (1) 
0.00011828912318149299

>  <r_epik_Ionization_Penalty_Charging>  (1) 
0.00011828912318149299

>  <r_epik_Ionization_Penalty_Neutral>  (1) 
0

>  <r_epik_State_Penalty>  (1) 
-0

>  <r_glide_ring_energy>  (1) 
0

>  <r_i_docking_score>  (1) 
-4.700726151963373

>  <r_i_glide_ecoul>  (1) 
-1.1587420905893659

>  <r_i_glide_eff_state_penalty>  (1) 
-0

>  <r_i_glide_einternal>  (1) 
0

>  <r_i_glide_emodel>  (1) 
-22.899520486707683

>  <r_i_glide_emodel_strain>  (1) 
0

>  <r_i_glide_energy>  (1) 
-16.987366433244581

>  <r_i_glide_erotb>  (1) 
0

>  <r_i_glide_esite>  (1) 
0

>  <r_i_glide_evdw>  (1) 
-15.828624342655216

>  <r_i_glide_gscore>  (1) 
-4.700726151963373

>  <r_i_glide_gscore_strain>  (1) 
0

>  <r_i_glide_hbond>  (1) 
0

>  <r_i_glide_ligand_efficiency>  (1) 
-0.67153230742333903

>  <r_i_glide_ligand_efficiency_ln>  (1) 
-1.5956787254596985

>  <r_i_glide_ligand_efficiency_sa>  (1) 
-1.2845950911091994

>  <r_i_glide_lipo>  (1) 
-1.4854836212422067

>  <r_i_glide_metal>  (1) 
-0

>  <r_i_glide_rewards>  (1) 
-2.25

>  <r_lp_Energy>  (1) 
8.1847359999999991

>  <r_lp_tautomer_probability>  (1) 
1

>  <s_epik_cmdline>  (1) 
J2VwaWtfcHl0aG9uJywgJy1waHQnLCAnMS4wJywgJy1waCcsICc3LjQnLCAnLXRuJywgJzgnLCAnLW1hJywgJzUwMCcsICctaW1hZScsICc8aW5maWxlLm1hZT4nLCAnLW9tYWUnLCAnPG91dGZpbGUubWFlPic=

>  <s_epik_input>  (1) 
W2NIXTFbY0hdbltjSF1bY0hdYzFbT0hd

>  <s_glide_docking_method>  (1) 
confgen

>  <s_i_glide_gridfile>  (1) 
gpcr_drd2_6luq_protein_autoprepared_prepared

>  <s_lp_Force_Field>  (1) 
S-OPLS

>  <s_lp_Variant>  (1) 
Pocket2Mol_16_num_sample_50-1

>  <s_m_source_file>  (1) 
generated__ligand_Pocket2Mol_2026-05-06_prepared.sdf

>  <GenAI_Model>  (1) 
Pocket2Mol

>  <Protein>  (1) 
generic_title2

$$$$
Pocket2Mol_35_num_sample_50
     RDKit          3D

  0  0  0  0  0  0  0  0  0  0999 V3000
M  V30 BEGIN CTAB
M  V30 COUNTS 15 16 0 0 1
M  V30 BEGIN ATOM
M  V30 1 C 11.984709 9.369302 -4.994874 0
M  V30 2 O 11.034827 8.337101 -5.064158 0
M  V30 3 C 10.915057 8.030793 -6.380977 0
M  V30 4 C 11.756146 8.836825 -7.121202 0
M  V30 5 C 11.834918 8.733286 -8.519916 0
M  V30 6 C 11.019210 7.769286 -9.155648 0
M  V30 7 C 10.155473 6.941551 -8.395493 0
M  V30 8 C 10.094783 7.065682 -6.988458 0
M  V30 9 O 12.429662 9.673798 -6.291724 0
M  V30 10 H 12.829512 9.048151 -4.384659 0
M  V30 11 H 11.530964 10.254041 -4.547055 0
M  V30 12 H 12.496706 9.369297 -9.088923 0
M  V30 13 H 11.054849 7.662992 -10.229931 0
M  V30 14 H 9.538117 6.209479 -8.895088 0
M  V30 15 H 9.440479 6.440458 -6.399202 0
M  V30 END ATOM
M  V30 BEGIN BOND
M  V30 1 1 2 1
M  V30 2 1 3 2
M  V30 3 1 4 3
M  V30 4 2 5 4
M  V30 5 1 6 5
M  V30 6 2 7 6
M  V30 7 2 8 3
M  V30 8 1 8 7
M  V30 9 1 9 1
M  V30 10 1 9 4
M  V30 11 1 10 1
M  V30 12 1 11 1
M  V30 13 1 12 5
M  V30 14 1 13 6
M  V30 15 1 14 7
M  V30 16 1 15 8
M  V30 END BOND
M  V30 END CTAB
M  END
>  <i_epik_Tot_Q>  (1) 
0

>  <i_epik_Tot_abs_Q>  (1) 
0

>  <i_i_glide_confnum>  (1) 
1

>  <i_i_glide_lignum>  (1) 
40

>  <i_i_glide_posenum>  (1) 
222

>  <i_i_glide_rotatable_bonds>  (1) 
0

>  <i_lp_mmshare_version>  (1) 
72125

>  <i_m_source_file_index>  (1) 
36

>  <i_f3d_flags>  (1) 
0

>  <num_sample>  (1) 
50

>  <b_lp_Chiralities_Consistent>  (1) 
1

>  <r_epik_Charging_Adjusted_Penalty>  (1) 
0

>  <r_epik_Ionization_Penalty>  (1) 
0

>  <r_epik_Ionization_Penalty_Charging>  (1) 
0

>  <r_epik_Ionization_Penalty_Neutral>  (1) 
0

>  <r_epik_State_Penalty>  (1) 
-0

>  <r_glide_ring_energy>  (1) 
0

>  <r_i_docking_score>  (1) 
-4.6932577523546728

>  <r_i_glide_ecoul>  (1) 
-0.67666865935795462

>  <r_i_glide_eff_state_penalty>  (1) 
-0

>  <r_i_glide_einternal>  (1) 
0

>  <r_i_glide_emodel>  (1) 
-25.034869533100618

>  <r_i_glide_emodel_strain>  (1) 
0

>  <r_i_glide_energy>  (1) 
-19.035843026855932

>  <r_i_glide_erotb>  (1) 
0

>  <r_i_glide_esite>  (1) 
0

>  <r_i_glide_evdw>  (1) 
-18.359174367497978

>  <r_i_glide_gscore>  (1) 
-4.6932577523546728

>  <r_i_glide_gscore_strain>  (1) 
0

>  <r_i_glide_hbond>  (1) 
0

>  <r_i_glide_ligand_efficiency>  (1) 
-0.52147308359496369

>  <r_i_glide_ligand_efficiency_ln>  (1) 
-1.4679162000765298

>  <r_i_glide_ligand_efficiency_sa>  (1) 
-1.0847077253428774

>  <r_i_glide_lipo>  (1) 
-0.97379873507608061

>  <r_i_glide_metal>  (1) 
-0

>  <r_i_glide_rewards>  (1) 
-2.7000000000000002

>  <r_lp_Energy>  (1) 
19.342482

>  <r_lp_tautomer_probability>  (1) 
1

>  <s_epik_Chemistry_Notes>  (1) 
This compound contains an acetal/aminal-like group ( X-CH(R)-Y where X, Y are N, S, or O) that may be acid/base labile, releasing an aldehyde.

>  <s_epik_cmdline>  (1) 
J2VwaWtfcHl0aG9uJywgJy1waHQnLCAnMS4wJywgJy1waCcsICc3LjQnLCAnLXRuJywgJzgnLCAnLW1hJywgJzUwMCcsICctaW1hZScsICc8aW5maWxlLm1hZT4nLCAnLW9tYWUnLCAnPG91dGZpbGUubWFlPic=

>  <s_epik_input>  (1) 
TzFbQ0gyXU9jKGMxMilbY0hdW2NIXVtjSF1bY0hdMg==

>  <s_glide_docking_method>  (1) 
confgen

>  <s_i_glide_gridfile>  (1) 
gpcr_drd2_6luq_protein_autoprepared_prepared

>  <s_lp_Force_Field>  (1) 
S-OPLS

>  <s_lp_Variant>  (1) 
Pocket2Mol_35_num_sample_50-1

>  <s_m_source_file>  (1) 
generated__ligand_Pocket2Mol_2026-05-06_prepared.sdf

>  <GenAI_Model>  (1) 
Pocket2Mol

>  <Protein>  (1) 
generic_title2

$$$$
Pocket2Mol_12_num_sample_50
     RDKit          3D

  0  0  0  0  0  0  0  0  0  0999 V3000
M  V30 BEGIN CTAB
M  V30 COUNTS 15 15 0 0 1
M  V30 BEGIN ATOM
M  V30 1 N 9.434267 7.994155 -8.247969 0
M  V30 2 C 9.521558 8.311091 -6.913407 0
M  V30 3 C 10.856975 8.569297 -6.627853 0
M  V30 4 C 10.661764 8.038854 -8.803404 0
M  V30 5 C 11.434296 8.964031 -5.295716 0
M  V30 6 N 10.929063 7.770716 -10.135495 0
M  V30 7 C 11.578836 8.384596 -7.867255 0
M  V30 8 H 8.638361 8.330152 -6.290893 0
M  V30 9 H 11.454883 8.105103 -4.624382 0
M  V30 10 H 12.450409 9.342683 -5.411139 0
M  V30 11 H 10.829477 9.748362 -4.837968 0
M  V30 12 H 11.857238 7.817776 -10.528013 0
M  V30 13 H 8.563635 7.769248 -8.742018 0
M  V30 14 H 12.640189 8.497847 -8.033978 0
M  V30 15 H 10.208248 7.515261 -10.796976 0
M  V30 END ATOM
M  V30 BEGIN BOND
M  V30 1 1 2 1
M  V30 2 2 3 2
M  V30 3 1 4 1
M  V30 4 1 5 3
M  V30 5 1 6 4
M  V30 6 1 7 3
M  V30 7 2 7 4
M  V30 8 1 8 2
M  V30 9 1 9 5
M  V30 10 1 10 5
M  V30 11 1 11 5
M  V30 12 1 12 6
M  V30 13 1 13 1
M  V30 14 1 14 7
M  V30 15 1 15 6
M  V30 END BOND
M  V30 END CTAB
M  END
>  <i_epik_Tot_Q>  (1) 
0

>  <i_epik_Tot_abs_Q>  (1) 
0

>  <i_i_glide_confnum>  (1) 
1

>  <i_i_glide_lignum>  (1) 
15

>  <i_i_glide_posenum>  (1) 
73

>  <i_i_glide_rotatable_bonds>  (1) 
0

>  <i_lp_mmshare_version>  (1) 
72125

>  <i_m_source_file_index>  (1) 
13

>  <i_f3d_flags>  (1) 
0

>  <num_sample>  (1) 
50

>  <b_lp_Chiralities_Consistent>  (1) 
1

>  <r_epik_Charging_Adjusted_Penalty>  (1) 
0

>  <r_epik_Ionization_Penalty>  (1) 
0.00031849139131666116

>  <r_epik_Ionization_Penalty_Charging>  (1) 
0

>  <r_epik_Ionization_Penalty_Neutral>  (1) 
0.00031849139131666116

>  <r_epik_State_Penalty>  (1) 
-0

>  <r_glide_ring_energy>  (1) 
0

>  <r_i_docking_score>  (1) 
-4.6915353724124218

>  <r_i_glide_ecoul>  (1) 
-3.2388209287468896

>  <r_i_glide_eff_state_penalty>  (1) 
-0

>  <r_i_glide_einternal>  (1) 
0

>  <r_i_glide_emodel>  (1) 
-23.464733239620088

>  <r_i_glide_emodel_strain>  (1) 
0

>  <r_i_glide_energy>  (1) 
-17.507958921606122

>  <r_i_glide_erotb>  (1) 
0

>  <r_i_glide_esite>  (1) 
-0.10000000000000001

>  <r_i_glide_evdw>  (1) 
-14.269137992859232

>  <r_i_glide_gscore>  (1) 
-4.6915353724124218

>  <r_i_glide_gscore_strain>  (1) 
0

>  <r_i_glide_hbond>  (1) 
-0.16

>  <r_i_glide_ligand_efficiency>  (1) 
-0.67021933891606023

>  <r_i_glide_ligand_efficiency_ln>  (1) 
-1.592558881647117

>  <r_i_glide_ligand_efficiency_sa>  (1) 
-1.282083472709628

>  <r_i_glide_lipo>  (1) 
-0.81286667487084963

>  <r_i_glide_metal>  (1) 
-0

>  <r_i_glide_rewards>  (1) 
-2.4193886585865774

>  <r_lp_Energy>  (1) 
-3.18065

>  <r_lp_tautomer_probability>  (1) 
1

>  <s_epik_cmdline>  (1) 
J2VwaWtfcHl0aG9uJywgJy1waHQnLCAnMS4wJywgJy1waCcsICc3LjQnLCAnLXRuJywgJzgnLCAnLW1hJywgJzUwMCcsICctaW1hZScsICc8aW5maWxlLm1hZT4nLCAnLW9tYWUnLCAnPG91dGZpbGUubWFlPic=

>  <s_epik_input>  (1) 
W05IMl1DKFtDSDJdMSk9TltDSF09QzFbQ0gzXQ==

>  <s_glide_docking_method>  (1) 
confgen

>  <s_i_glide_gridfile>  (1) 
gpcr_drd2_6luq_protein_autoprepared_prepared

>  <s_lp_Force_Field>  (1) 
S-OPLS

>  <s_lp_Variant>  (1) 
Pocket2Mol_12_num_sample_50-1

>  <s_m_source_file>  (1) 
generated__ligand_Pocket2Mol_2026-05-06_prepared.sdf

>  <GenAI_Model>  (1) 
Pocket2Mol

>  <Protein>  (1) 
generic_title2

$$$$
Pocket2Mol_30_num_sample_50
     RDKit          3D

  0  0  0  0  0  0  0  0  0  0999 V3000
M  V30 BEGIN CTAB
M  V30 COUNTS 20 21 0 0 1
M  V30 BEGIN ATOM
M  V30 1 C 10.902153 6.434848 -5.244794 0
M  V30 2 O 11.034839 7.845344 -5.091667 0
M  V30 3 C 10.920123 8.501021 -6.353084 0 CFG=2
M  V30 4 C 11.653483 9.830004 -6.278442 0
M  V30 5 C 9.502737 8.423597 -6.961668 0
M  V30 6 C 11.434880 6.128510 -6.644542 0
M  V30 7 C 10.122684 7.789890 -8.204612 0
M  V30 8 C 11.358145 7.443321 -7.362702 0 CFG=1
M  V30 9 H 11.440593 5.898230 -4.463456 0
M  V30 10 H 9.848055 6.169301 -5.164714 0
M  V30 11 H 11.834839 10.222637 -7.274157 0
M  V30 12 H 12.624968 9.720819 -5.795789 0
M  V30 13 H 11.083346 10.569292 -5.715704 0
M  V30 14 H 8.817241 7.752636 -6.442747 0
M  V30 15 H 9.019244 9.369301 -7.176622 0
M  V30 16 H 12.461072 5.769301 -6.594202 0
M  V30 17 H 10.838878 5.369302 -7.144303 0
M  V30 18 H 9.569074 6.935426 -8.596138 0
M  V30 19 H 10.333371 8.521414 -8.986261 0
M  V30 20 H 12.281503 7.707922 -7.879707 0
M  V30 END ATOM
M  V30 BEGIN BOND
M  V30 1 1 2 1
M  V30 2 1 3 2
M  V30 3 1 3 4 CFG=1
M  V30 4 1 5 3
M  V30 5 1 6 1
M  V30 6 1 7 5
M  V30 7 1 8 3
M  V30 8 1 8 6
M  V30 9 1 8 7
M  V30 10 1 9 1
M  V30 11 1 10 1
M  V30 12 1 11 4
M  V30 13 1 12 4
M  V30 14 1 13 4
M  V30 15 1 14 5
M  V30 16 1 15 5
M  V30 17 1 16 6
M  V30 18 1 17 6
M  V30 19 1 18 7
M  V30 20 1 19 7
M  V30 21 1 8 20 CFG=3
M  V30 END BOND
M  V30 END CTAB
M  END
>  <i_epik_Tot_Q>  (1) 
0

>  <i_epik_Tot_abs_Q>  (1) 
0

>  <i_i_glide_confnum>  (1) 
1

>  <i_i_glide_lignum>  (1) 
34

>  <i_i_glide_posenum>  (1) 
142

>  <i_i_glide_rotatable_bonds>  (1) 
0

>  <i_lp_mmshare_version>  (1) 
72125

>  <i_m_source_file_index>  (1) 
31

>  <i_f3d_flags>  (1) 
0

>  <num_sample>  (1) 
50

>  <b_lp_Chiralities_Consistent>  (1) 
1

>  <r_epik_Charging_Adjusted_Penalty>  (1) 
0

>  <r_epik_Ionization_Penalty>  (1) 
2.3587344998035955e-11

>  <r_epik_Ionization_Penalty_Charging>  (1) 
0

>  <r_epik_Ionization_Penalty_Neutral>  (1) 
2.3587344998035955e-11

>  <r_epik_State_Penalty>  (1) 
-0

>  <r_glide_ring_energy>  (1) 
0

>  <r_i_docking_score>  (1) 
-4.6867969781798378

>  <r_i_glide_ecoul>  (1) 
-0.86561846424049649

>  <r_i_glide_eff_state_penalty>  (1) 
-0

>  <r_i_glide_einternal>  (1) 
0

>  <r_i_glide_emodel>  (1) 
-19.385078665652323

>  <r_i_glide_emodel_strain>  (1) 
0.00024492653416885446

>  <r_i_glide_energy>  (1) 
-14.975066964238206

>  <r_i_glide_erotb>  (1) 
0

>  <r_i_glide_esite>  (1) 
0

>  <r_i_glide_evdw>  (1) 
-14.109448499997709

>  <r_i_glide_gscore>  (1) 
-4.6867969781798378

>  <r_i_glide_gscore_strain>  (1) 
0

>  <r_i_glide_hbond>  (1) 
0

>  <r_i_glide_ligand_efficiency>  (1) 
-0.58584962227247972

>  <r_i_glide_ligand_efficiency_ln>  (1) 
-1.5219632893642103

>  <r_i_glide_ligand_efficiency_sa>  (1) 
-1.1716992445449597

>  <r_i_glide_lipo>  (1) 
-1.0932778413894719

>  <r_i_glide_metal>  (1) 
-0

>  <r_i_glide_rewards>  (1) 
-2.7582039421544065

>  <r_lp_Energy>  (1) 
15.613807

>  <r_lp_tautomer_probability>  (1) 
1

>  <s_epik_cmdline>  (1) 
J2VwaWtfcHl0aG9uJywgJy1waHQnLCAnMS4wJywgJy1waCcsICc3LjQnLCAnLXRuJywgJzgnLCAnLW1hJywgJzUwMCcsICctaW1hZScsICc8aW5maWxlLm1hZT4nLCAnLW9tYWUnLCAnPG91dGZpbGUubWFlPic=

>  <s_epik_input>  (1) 
TzFbQ0gyXVtDSDJdW0NASF0oW0NAXTEyW0NIM10pW0NIMl1bQ0gyXTI=

>  <s_glide_docking_method>  (1) 
confgen

>  <s_i_glide_gridfile>  (1) 
gpcr_drd2_6luq_protein_autoprepared_prepared

>  <s_lp_Force_Field>  (1) 
S-OPLS

>  <s_lp_Variant>  (1) 
Pocket2Mol_30_num_sample_50-1

>  <s_m_source_file>  (1) 
generated__ligand_Pocket2Mol_2026-05-06_prepared.sdf

>  <GenAI_Model>  (1) 
Pocket2Mol

>  <Protein>  (1) 
generic_title2

$$$$
Pocket2Mol_39_num_sample_50
     RDKit          3D

  0  0  0  0  0  0  0  0  0  0999 V3000
M  V30 BEGIN CTAB
M  V30 COUNTS 14 14 0 0 1
M  V30 BEGIN ATOM
M  V30 1 C 9.435506 6.687714 -7.591419 0
M  V30 2 O 10.496709 6.168979 -6.810035 0
M  V30 3 C 11.034864 7.042088 -5.899769 0
M  V30 4 C 9.834745 8.074155 -8.090164 0
M  V30 5 O 10.066534 8.909693 -6.968222 0
M  V30 6 C 10.831859 8.378850 -5.954137 0
M  V30 7 C 11.434836 9.368941 -4.921533 0
M  V30 8 O 11.146586 10.569369 -5.091666 0 CHG=-1
M  V30 9 O 12.145623 8.865592 -4.022532 0
M  V30 10 H 8.534798 6.738642 -6.980460 0
M  V30 11 H 9.229770 6.015503 -8.424157 0
M  V30 12 H 11.622763 6.540016 -5.144861 0
M  V30 13 H 9.038198 8.510476 -8.692579 0
M  V30 14 H 10.729061 8.027172 -8.712743 0
M  V30 END ATOM
M  V30 BEGIN BOND
M  V30 1 1 2 1
M  V30 2 1 3 2
M  V30 3 1 4 1
M  V30 4 1 5 4
M  V30 5 2 6 3
M  V30 6 1 6 5
M  V30 7 1 7 6
M  V30 8 1 8 7
M  V30 9 2 9 7
M  V30 10 1 10 1
M  V30 11 1 11 1
M  V30 12 1 12 3
M  V30 13 1 13 4
M  V30 14 1 14 4
M  V30 END BOND
M  V30 END CTAB
M  END
>  <i_epik_Tot_Q>  (1) 
-1

>  <i_epik_Tot_abs_Q>  (1) 
1

>  <i_i_glide_confnum>  (1) 
2

>  <i_i_glide_lignum>  (1) 
44

>  <i_i_glide_posenum>  (1) 
147

>  <i_i_glide_rotatable_bonds>  (1) 
1

>  <i_lp_mmshare_version>  (1) 
72125

>  <i_m_source_file_index>  (1) 
40

>  <i_f3d_flags>  (1) 
0

>  <num_sample>  (1) 
50

>  <b_lp_Chiralities_Consistent>  (1) 
1

>  <r_epik_Charging_Adjusted_Penalty>  (1) 
1.9393830553820406e-05

>  <r_epik_Ionization_Penalty>  (1) 
1.9393830553820406e-05

>  <r_epik_Ionization_Penalty_Charging>  (1) 
1.9393830553820406e-05

>  <r_epik_Ionization_Penalty_Neutral>  (1) 
0

>  <r_epik_State_Penalty>  (1) 
-0

>  <r_glide_ring_energy>  (1) 
0.00027798022993746121

>  <r_i_docking_score>  (1) 
-4.6777982432379295

>  <r_i_glide_ecoul>  (1) 
-1.1503716911824162

>  <r_i_glide_eff_state_penalty>  (1) 
-0

>  <r_i_glide_einternal>  (1) 
0.0082923412250104356

>  <r_i_glide_emodel>  (1) 
-23.938687402217408

>  <r_i_glide_emodel_strain>  (1) 
0

>  <r_i_glide_energy>  (1) 
-17.111089788073084

>  <r_i_glide_erotb>  (1) 
0

>  <r_i_glide_esite>  (1) 
0

>  <r_i_glide_evdw>  (1) 
-15.960718096890668

>  <r_i_glide_gscore>  (1) 
-4.6777982432379295

>  <r_i_glide_gscore_strain>  (1) 
0

>  <r_i_glide_hbond>  (1) 
0

>  <r_i_glide_ligand_efficiency>  (1) 
-0.51975536035976999

>  <r_i_glide_ligand_efficiency_ln>  (1) 
-1.4630809097355482

>  <r_i_glide_ligand_efficiency_sa>  (1) 
-1.0811347170288705

>  <r_i_glide_lipo>  (1) 
-0.54887325138270016

>  <r_i_glide_metal>  (1) 
-0

>  <r_i_glide_rewards>  (1) 
-3.1583333333333332

>  <r_lp_Energy>  (1) 
18.695968999999998

>  <r_lp_tautomer_probability>  (1) 
1

>  <s_epik_cmdline>  (1) 
J2VwaWtfcHl0aG9uJywgJy1waHQnLCAnMS4wJywgJy1waCcsICc3LjQnLCAnLXRuJywgJzgnLCAnLW1hJywgJzUwMCcsICctaW1hZScsICc8aW5maWxlLm1hZT4nLCAnLW9tYWUnLCAnPG91dGZpbGUubWFlPic=

>  <s_epik_input>  (1) 
TzFbQ0gyXVtDSDJdT1tDSF09QzFDKD1PKVtPSF0=

>  <s_glide_docking_method>  (1) 
confgen

>  <s_i_glide_gridfile>  (1) 
gpcr_drd2_6luq_protein_autoprepared_prepared

>  <s_lp_Force_Field>  (1) 
S-OPLS

>  <s_lp_Variant>  (1) 
Pocket2Mol_39_num_sample_50-1

>  <s_m_source_file>  (1) 
generated__ligand_Pocket2Mol_2026-05-06_prepared.sdf

>  <GenAI_Model>  (1) 
Pocket2Mol

>  <Protein>  (1) 
generic_title2

$$$$
Pocket2Mol_35_num_sample_50
     RDKit          3D

  0  0  0  0  0  0  0  0  0  0999 V3000
M  V30 BEGIN CTAB
M  V30 COUNTS 15 16 0 0 1
M  V30 BEGIN ATOM
M  V30 1 C 11.225644 8.969631 -6.442093 0
M  V30 2 O 11.763759 9.794097 -5.360930 0
M  V30 3 C 11.834839 8.870628 -4.398046 0
M  V30 4 C 11.434839 7.655696 -4.776167 0
M  V30 5 C 11.437168 6.569301 -3.891667 0
M  V30 6 C 11.881072 6.771812 -2.564194 0
M  V30 7 C 12.306806 8.063891 -2.160711 0
M  V30 8 C 12.281106 9.127005 -3.091671 0
M  V30 9 O 11.035025 7.580065 -6.047632 0
M  V30 10 H 11.901309 9.009894 -7.297411 0
M  V30 11 H 10.256493 9.369301 -6.741036 0
M  V30 12 H 11.105442 5.597629 -4.219286 0
M  V30 13 H 11.893220 5.949441 -1.863230 0
M  V30 14 H 12.646688 8.235045 -1.149882 0
M  V30 15 H 12.598555 10.116544 -2.802203 0
M  V30 END ATOM
M  V30 BEGIN BOND
M  V30 1 1 2 1
M  V30 2 1 3 2
M  V30 3 1 4 3
M  V30 4 2 5 4
M  V30 5 1 6 5
M  V30 6 2 7 6
M  V30 7 2 8 3
M  V30 8 1 8 7
M  V30 9 1 9 1
M  V30 10 1 9 4
M  V30 11 1 10 1
M  V30 12 1 11 1
M  V30 13 1 12 5
M  V30 14 1 13 6
M  V30 15 1 14 7
M  V30 16 1 15 8
M  V30 END BOND
M  V30 END CTAB
M  END
>  <i_epik_Tot_Q>  (1) 
0

>  <i_epik_Tot_abs_Q>  (1) 
0

>  <i_i_glide_confnum>  (1) 
1

>  <i_i_glide_lignum>  (1) 
40

>  <i_i_glide_posenum>  (1) 
87

>  <i_i_glide_rotatable_bonds>  (1) 
0

>  <i_lp_mmshare_version>  (1) 
72125

>  <i_m_source_file_index>  (1) 
36

>  <i_f3d_flags>  (1) 
0

>  <num_sample>  (1) 
50

>  <b_lp_Chiralities_Consistent>  (1) 
1

>  <r_epik_Charging_Adjusted_Penalty>  (1) 
0

>  <r_epik_Ionization_Penalty>  (1) 
0

>  <r_epik_Ionization_Penalty_Charging>  (1) 
0

>  <r_epik_Ionization_Penalty_Neutral>  (1) 
0

>  <r_epik_State_Penalty>  (1) 
-0

>  <r_glide_ring_energy>  (1) 
0

>  <r_i_docking_score>  (1) 
-4.6766741844016764

>  <r_i_glide_ecoul>  (1) 
-0.77383950663580792

>  <r_i_glide_eff_state_penalty>  (1) 
-0

>  <r_i_glide_einternal>  (1) 
0

>  <r_i_glide_emodel>  (1) 
-25.174387643681456

>  <r_i_glide_emodel_strain>  (1) 
0

>  <r_i_glide_energy>  (1) 
-19.196558623057118

>  <r_i_glide_erotb>  (1) 
0

>  <r_i_glide_esite>  (1) 
0

>  <r_i_glide_evdw>  (1) 
-18.422719116421309

>  <r_i_glide_gscore>  (1) 
-4.6766741844016764

>  <r_i_glide_gscore_strain>  (1) 
0

>  <r_i_glide_hbond>  (1) 
0

>  <r_i_glide_ligand_efficiency>  (1) 
-0.51963046493351961

>  <r_i_glide_ligand_efficiency_ln>  (1) 
-1.4627293364228002

>  <r_i_glide_ligand_efficiency_sa>  (1) 
-1.0808749240731541

>  <r_i_glide_lipo>  (1) 
-1.5844075062007246

>  <r_i_glide_metal>  (1) 
-0

>  <r_i_glide_rewards>  (1) 
-2.0550547963845158

>  <r_lp_Energy>  (1) 
19.342482

>  <r_lp_tautomer_probability>  (1) 
1

>  <s_epik_Chemistry_Notes>  (1) 
This compound contains an acetal/aminal-like group ( X-CH(R)-Y where X, Y are N, S, or O) that may be acid/base labile, releasing an aldehyde.

>  <s_epik_cmdline>  (1) 
J2VwaWtfcHl0aG9uJywgJy1waHQnLCAnMS4wJywgJy1waCcsICc3LjQnLCAnLXRuJywgJzgnLCAnLW1hJywgJzUwMCcsICctaW1hZScsICc8aW5maWxlLm1hZT4nLCAnLW9tYWUnLCAnPG91dGZpbGUubWFlPic=

>  <s_epik_input>  (1) 
TzFbQ0gyXU9jKGMxMilbY0hdW2NIXVtjSF1bY0hdMg==

>  <s_glide_docking_method>  (1) 
confgen

>  <s_i_glide_gridfile>  (1) 
gpcr_drd2_6luq_protein_autoprepared_prepared

>  <s_lp_Force_Field>  (1) 
S-OPLS

>  <s_lp_Variant>  (1) 
Pocket2Mol_35_num_sample_50-1

>  <s_m_source_file>  (1) 
generated__ligand_Pocket2Mol_2026-05-06_prepared.sdf

>  <GenAI_Model>  (1) 
Pocket2Mol

>  <Protein>  (1) 
generic_title2

$$$$
Pocket2Mol_19_num_sample_50
     RDKit          3D

  0  0  0  0  0  0  0  0  0  0999 V3000
M  V30 BEGIN CTAB
M  V30 COUNTS 12 12 0 0 1
M  V30 BEGIN ATOM
M  V30 1 N 9.435197 7.950190 -8.792276 0 CHG=1
M  V30 2 C 10.409158 7.939549 -9.727954 0
M  V30 3 C 11.744463 8.172761 -9.347040 0
M  V30 4 C 9.681285 8.177798 -7.482468 0
M  V30 5 O 12.732639 8.163935 -10.283396 0 CHG=-1
M  V30 6 C 12.047190 8.414638 -7.991684 0
M  V30 7 C 11.000995 8.417246 -7.045853 0
M  V30 8 H 10.098949 7.747081 -10.744935 0
M  V30 9 H 8.822510 8.161857 -6.827500 0
M  V30 10 H 8.475698 7.778785 -9.091685 0
M  V30 11 H 13.067563 8.595144 -7.685188 0
M  V30 12 H 11.212434 8.600530 -6.002914 0
M  V30 END ATOM
M  V30 BEGIN BOND
M  V30 1 1 2 1
M  V30 2 2 3 2
M  V30 3 2 4 1
M  V30 4 1 5 3
M  V30 5 1 6 3
M  V30 6 1 7 4
M  V30 7 2 7 6
M  V30 8 1 8 2
M  V30 9 1 9 4
M  V30 10 1 10 1
M  V30 11 1 11 6
M  V30 12 1 12 7
M  V30 END BOND
M  V30 END CTAB
M  END
>  <i_epik_Tot_Q>  (1) 
0

>  <i_epik_Tot_abs_Q>  (1) 
2

>  <i_i_glide_confnum>  (1) 
1

>  <i_i_glide_lignum>  (1) 
22

>  <i_i_glide_posenum>  (1) 
224

>  <i_i_glide_rotatable_bonds>  (1) 
0

>  <i_lp_mmshare_version>  (1) 
72125

>  <i_m_source_file_index>  (1) 
20

>  <i_f3d_flags>  (1) 
0

>  <num_sample>  (1) 
50

>  <b_lp_Chiralities_Consistent>  (1) 
1

>  <r_epik_Charging_Adjusted_Penalty>  (1) 
0.36510749842979956

>  <r_epik_Ionization_Penalty>  (1) 
0.025180683492302028

>  <r_epik_Ionization_Penalty_Charging>  (1) 
0.025180683492302028

>  <r_epik_Ionization_Penalty_Neutral>  (1) 
0

>  <r_epik_State_Penalty>  (1) 
0.33992681493749755

>  <r_glide_ring_energy>  (1) 
0

>  <r_i_docking_score>  (1) 
-4.6734894104267068

>  <r_i_glide_ecoul>  (1) 
-7.5830358766414916

>  <r_i_glide_eff_state_penalty>  (1) 
0.33992681493749755

>  <r_i_glide_einternal>  (1) 
0

>  <r_i_glide_emodel>  (1) 
-28.75465380065674

>  <r_i_glide_emodel_strain>  (1) 
0

>  <r_i_glide_energy>  (1) 
-18.98155019699076

>  <r_i_glide_erotb>  (1) 
0

>  <r_i_glide_esite>  (1) 
-0.10000000000000001

>  <r_i_glide_evdw>  (1) 
-11.398514320349268

>  <r_i_glide_gscore>  (1) 
-5.0134162253642041

>  <r_i_glide_gscore_strain>  (1) 
0

>  <r_i_glide_hbond>  (1) 
-0.20000000000000001

>  <r_i_glide_ligand_efficiency>  (1) 
-0.66764134434667244

>  <r_i_glide_ligand_efficiency_ln>  (1) 
-1.5864331136933654

>  <r_i_glide_ligand_efficiency_sa>  (1) 
-1.2771519465088281

>  <r_i_glide_lipo>  (1) 
-0.75603512785051663

>  <r_i_glide_metal>  (1) 
-0

>  <r_i_glide_rewards>  (1) 
-2.25

>  <r_lp_Energy>  (1) 
9.275188

>  <r_lp_tautomer_probability>  (1) 
0.56342000000000003

>  <s_epik_cmdline>  (1) 
J2VwaWtfcHl0aG9uJywgJy1waHQnLCAnMS4wJywgJy1waCcsICc3LjQnLCAnLXRuJywgJzgnLCAnLW1hJywgJzUwMCcsICctaW1hZScsICc8aW5maWxlLm1hZT4nLCAnLW9tYWUnLCAnPG91dGZpbGUubWFlPic=

>  <s_epik_input>  (1) 
W2NIXTFbY0hdW2NIXW5bY0hdYzFbT0hd

>  <s_glide_docking_method>  (1) 
confgen

>  <s_i_glide_gridfile>  (1) 
gpcr_drd2_6luq_protein_autoprepared_prepared

>  <s_lp_Force_Field>  (1) 
S-OPLS

>  <s_lp_Variant>  (1) 
Pocket2Mol_19_num_sample_50-1

>  <s_m_source_file>  (1) 
generated__ligand_Pocket2Mol_2026-05-06_prepared.sdf

>  <GenAI_Model>  (1) 
Pocket2Mol

>  <Protein>  (1) 
generic_title2

$$$$
Pocket2Mol_43_num_sample_50
     RDKit          3D

  0  0  0  0  0  0  0  0  0  0999 V3000
M  V30 BEGIN CTAB
M  V30 COUNTS 8 8 0 0 1
M  V30 BEGIN ATOM
M  V30 1 N 11.434840 8.009069 -4.692674 0
M  V30 2 C 12.076814 8.974065 -3.900906 0
M  V30 3 C 12.558881 8.453417 -2.713442 0
M  V30 4 C 11.436303 6.805611 -4.131347 0
M  V30 5 S 12.220774 6.741693 -2.575682 0
M  V30 6 H 12.140752 9.994018 -4.250610 0
M  V30 7 H 13.085658 8.969202 -1.921742 0
M  V30 8 H 10.976519 5.963641 -4.627624 0
M  V30 END ATOM
M  V30 BEGIN BOND
M  V30 1 1 2 1
M  V30 2 2 3 2
M  V30 3 2 4 1
M  V30 4 1 5 3
M  V30 5 1 5 4
M  V30 6 1 6 2
M  V30 7 1 7 3
M  V30 8 1 8 4
M  V30 END BOND
M  V30 END CTAB
M  END
>  <i_epik_Tot_Q>  (1) 
0

>  <i_epik_Tot_abs_Q>  (1) 
0

>  <i_i_glide_confnum>  (1) 
1

>  <i_i_glide_lignum>  (1) 
48

>  <i_i_glide_posenum>  (1) 
9

>  <i_i_glide_rotatable_bonds>  (1) 
0

>  <i_lp_mmshare_version>  (1) 
72125

>  <i_m_source_file_index>  (1) 
44

>  <i_f3d_flags>  (1) 
0

>  <num_sample>  (1) 
50

>  <b_lp_Chiralities_Consistent>  (1) 
1

>  <r_epik_Charging_Adjusted_Penalty>  (1) 
0

>  <r_epik_Ionization_Penalty>  (1) 
1.4882382677604034e-05

>  <r_epik_Ionization_Penalty_Charging>  (1) 
0

>  <r_epik_Ionization_Penalty_Neutral>  (1) 
1.4882382677604034e-05

>  <r_epik_State_Penalty>  (1) 
-0

>  <r_glide_ring_energy>  (1) 
0

>  <r_i_docking_score>  (1) 
-4.671875578278871

>  <r_i_glide_ecoul>  (1) 
-1.5892772396052774

>  <r_i_glide_eff_state_penalty>  (1) 
-0

>  <r_i_glide_einternal>  (1) 
0

>  <r_i_glide_emodel>  (1) 
-20.343393855791376

>  <r_i_glide_emodel_strain>  (1) 
0

>  <r_i_glide_energy>  (1) 
-15.560434063048458

>  <r_i_glide_erotb>  (1) 
0

>  <r_i_glide_esite>  (1) 
0

>  <r_i_glide_evdw>  (1) 
-13.971156823443181

>  <r_i_glide_gscore>  (1) 
-4.671875578278871

>  <r_i_glide_gscore_strain>  (1) 
0

>  <r_i_glide_hbond>  (1) 
0

>  <r_i_glide_ligand_efficiency>  (1) 
-0.93437511565577425

>  <r_i_glide_ligand_efficiency_ln>  (1) 
-1.7903762170454998

>  <r_i_glide_ligand_efficiency_sa>  (1) 
-1.5977589729446307

>  <r_i_glide_lipo>  (1) 
-1.2513547908502716

>  <r_i_glide_metal>  (1) 
-0

>  <r_i_glide_rewards>  (1) 
-2.4835713603156493

>  <r_lp_Energy>  (1) 
1.6688799999999999

>  <r_lp_tautomer_probability>  (1) 
1

>  <s_epik_cmdline>  (1) 
J2VwaWtfcHl0aG9uJywgJy1waHQnLCAnMS4wJywgJy1waCcsICc3LjQnLCAnLXRuJywgJzgnLCAnLW1hJywgJzUwMCcsICctaW1hZScsICc8aW5maWxlLm1hZT4nLCAnLW9tYWUnLCAnPG91dGZpbGUubWFlPic=

>  <s_epik_input>  (1) 
bjFbY0hdW2NIXXNbY0hdMQ==

>  <s_glide_docking_method>  (1) 
confgen

>  <s_i_glide_gridfile>  (1) 
gpcr_drd2_6luq_protein_autoprepared_prepared

>  <s_lp_Force_Field>  (1) 
S-OPLS

>  <s_lp_Variant>  (1) 
Pocket2Mol_43_num_sample_50-1

>  <s_m_source_file>  (1) 
generated__ligand_Pocket2Mol_2026-05-06_prepared.sdf

>  <GenAI_Model>  (1) 
Pocket2Mol

>  <Protein>  (1) 
generic_title2

$$$$
Pocket2Mol_15_num_sample_50
     RDKit          3D

  0  0  0  0  0  0  0  0  0  0999 V3000
M  V30 BEGIN CTAB
M  V30 COUNTS 19 19 0 0 1
M  V30 BEGIN ATOM
M  V30 1 C 9.434839 8.140115 -7.820186 0
M  V30 2 O 9.721141 8.569301 -6.492329 0
M  V30 3 C 11.056862 8.249802 -6.142762 0
M  V30 4 C 11.586660 9.332273 -5.187139 0
M  V30 5 C 11.034839 6.860358 -5.477551 0
M  V30 6 C 10.756770 7.709306 -8.451057 0
M  V30 7 C 11.785775 8.265380 -7.491667 0
M  V30 8 H 8.718721 7.317767 -7.805454 0
M  V30 9 H 8.990127 8.969301 -8.369839 0
M  V30 10 H 12.636348 9.167018 -4.946012 0
M  V30 11 H 11.034839 9.343628 -4.248512 0
M  V30 12 H 11.500263 10.325646 -5.628978 0
M  V30 13 H 12.010451 6.569301 -5.092859 0
M  V30 14 H 10.337691 6.841444 -4.642147 0
M  V30 15 H 10.710449 6.083749 -6.169305 0
M  V30 16 H 10.818355 6.620961 -8.485766 0
M  V30 17 H 10.879223 8.084126 -9.467590 0
M  V30 18 H 12.025020 9.289541 -7.780537 0
M  V30 19 H 12.711728 7.692821 -7.491667 0
M  V30 END ATOM
M  V30 BEGIN BOND
M  V30 1 1 2 1
M  V30 2 1 3 2
M  V30 3 1 4 3
M  V30 4 1 5 3
M  V30 5 1 6 1
M  V30 6 1 7 3
M  V30 7 1 7 6
M  V30 8 1 8 1
M  V30 9 1 9 1
M  V30 10 1 10 4
M  V30 11 1 11 4
M  V30 12 1 12 4
M  V30 13 1 13 5
M  V30 14 1 14 5
M  V30 15 1 15 5
M  V30 16 1 16 6
M  V30 17 1 17 6
M  V30 18 1 18 7
M  V30 19 1 19 7
M  V30 END BOND
M  V30 END CTAB
M  END
>  <i_epik_Tot_Q>  (1) 
0

>  <i_epik_Tot_abs_Q>  (1) 
0

>  <i_i_glide_confnum>  (1) 
1

>  <i_i_glide_lignum>  (1) 
18

>  <i_i_glide_posenum>  (1) 
114

>  <i_i_glide_rotatable_bonds>  (1) 
0

>  <i_lp_mmshare_version>  (1) 
72125

>  <i_m_source_file_index>  (1) 
16

>  <i_f3d_flags>  (1) 
0

>  <num_sample>  (1) 
50

>  <b_lp_Chiralities_Consistent>  (1) 
1

>  <r_epik_Charging_Adjusted_Penalty>  (1) 
0

>  <r_epik_Ionization_Penalty>  (1) 
1.3889264151150229e-11

>  <r_epik_Ionization_Penalty_Charging>  (1) 
0

>  <r_epik_Ionization_Penalty_Neutral>  (1) 
1.3889264151150229e-11

>  <r_epik_State_Penalty>  (1) 
-0

>  <r_glide_ring_energy>  (1) 
0

>  <r_i_docking_score>  (1) 
-4.6696560896727659

>  <r_i_glide_ecoul>  (1) 
-0.39817198078993027

>  <r_i_glide_eff_state_penalty>  (1) 
-0

>  <r_i_glide_einternal>  (1) 
0

>  <r_i_glide_emodel>  (1) 
-21.322042895450338

>  <r_i_glide_emodel_strain>  (1) 
0.40985434643354957

>  <r_i_glide_energy>  (1) 
-16.71869533046068

>  <r_i_glide_erotb>  (1) 
0

>  <r_i_glide_esite>  (1) 
0

>  <r_i_glide_evdw>  (1) 
-16.320523349670751

>  <r_i_glide_gscore>  (1) 
-4.6696560896727659

>  <r_i_glide_gscore_strain>  (1) 
0

>  <r_i_glide_hbond>  (1) 
0

>  <r_i_glide_ligand_efficiency>  (1) 
-0.66709372709610937

>  <r_i_glide_ligand_efficiency_ln>  (1) 
-1.5851318789102304

>  <r_i_glide_ligand_efficiency_sa>  (1) 
-1.2761043923940021

>  <r_i_glide_lipo>  (1) 
-1.1193811914204623

>  <r_i_glide_metal>  (1) 
-0

>  <r_i_glide_rewards>  (1) 
-2.6745229336502772

>  <r_lp_Energy>  (1) 
0.043719999999999995

>  <r_lp_tautomer_probability>  (1) 
1

>  <s_epik_cmdline>  (1) 
J2VwaWtfcHl0aG9uJywgJy1waHQnLCAnMS4wJywgJy1waCcsICc3LjQnLCAnLXRuJywgJzgnLCAnLW1hJywgJzUwMCcsICctaW1hZScsICc8aW5maWxlLm1hZT4nLCAnLW9tYWUnLCAnPG91dGZpbGUubWFlPic=

>  <s_epik_input>  (1) 
W0NIMl0xW0NIMl1bQ0gyXU9DMShbQ0gzXSlbQ0gzXQ==

>  <s_glide_docking_method>  (1) 
confgen

>  <s_i_glide_gridfile>  (1) 
gpcr_drd2_6luq_protein_autoprepared_prepared

>  <s_lp_Force_Field>  (1) 
S-OPLS

>  <s_lp_Variant>  (1) 
Pocket2Mol_15_num_sample_50-1

>  <s_m_source_file>  (1) 
generated__ligand_Pocket2Mol_2026-05-06_prepared.sdf

>  <GenAI_Model>  (1) 
Pocket2Mol

>  <Protein>  (1) 
generic_title2

$$$$
Pocket2Mol_6_num_sample_50
     RDKit          3D

  0  0  0  0  0  0  0  0  0  0999 V3000
M  V30 BEGIN CTAB
M  V30 COUNTS 11 11 0 0 1
M  V30 BEGIN ATOM
M  V30 1 N 11.834839 6.569290 -3.142303 0
M  V30 2 C 11.434840 6.686704 -4.430670 0
M  V30 3 C 11.416381 7.911459 -5.128598 0
M  V30 4 C 11.834794 9.072984 -4.463194 0
M  V30 5 C 12.254060 8.964955 -3.129540 0
M  V30 6 C 12.237500 7.698673 -2.515113 0
M  V30 7 H 11.117621 5.775946 -4.917770 0
M  V30 8 H 11.085432 7.953563 -6.156294 0
M  V30 9 H 11.833695 10.028685 -4.966455 0
M  V30 10 H 12.584755 9.834332 -2.583319 0
M  V30 11 H 12.557941 7.587817 -1.491713 0
M  V30 END ATOM
M  V30 BEGIN BOND
M  V30 1 2 2 1
M  V30 2 1 3 2
M  V30 3 2 4 3
M  V30 4 1 5 4
M  V30 5 1 6 1
M  V30 6 2 6 5
M  V30 7 1 7 2
M  V30 8 1 8 3
M  V30 9 1 9 4
M  V30 10 1 10 5
M  V30 11 1 11 6
M  V30 END BOND
M  V30 END CTAB
M  END
>  <i_epik_Tot_Q>  (1) 
0

>  <i_epik_Tot_abs_Q>  (1) 
0

>  <i_i_glide_confnum>  (1) 
1

>  <i_i_glide_lignum>  (1) 
7

>  <i_i_glide_posenum>  (1) 
243

>  <i_i_glide_rotatable_bonds>  (1) 
0

>  <i_lp_mmshare_version>  (1) 
72125

>  <i_m_source_file_index>  (1) 
7

>  <i_f3d_flags>  (1) 
0

>  <num_sample>  (1) 
50

>  <b_lp_Chiralities_Consistent>  (1) 
1

>  <r_epik_Charging_Adjusted_Penalty>  (1) 
0

>  <r_epik_Ionization_Penalty>  (1) 
0.0028947865417402485

>  <r_epik_Ionization_Penalty_Charging>  (1) 
0

>  <r_epik_Ionization_Penalty_Neutral>  (1) 
0.0028947865417402485

>  <r_epik_State_Penalty>  (1) 
-0

>  <r_glide_ring_energy>  (1) 
0

>  <r_i_docking_score>  (1) 
-4.6661409700792165

>  <r_i_glide_ecoul>  (1) 
-0.11468770140989343

>  <r_i_glide_eff_state_penalty>  (1) 
-0

>  <r_i_glide_einternal>  (1) 
0

>  <r_i_glide_emodel>  (1) 
-18.869290745042189

>  <r_i_glide_emodel_strain>  (1) 
0

>  <r_i_glide_energy>  (1) 
-14.38480829786187

>  <r_i_glide_erotb>  (1) 
0

>  <r_i_glide_esite>  (1) 
0

>  <r_i_glide_evdw>  (1) 
-14.270120596451976

>  <r_i_glide_gscore>  (1) 
-4.6661409700792165

>  <r_i_glide_gscore_strain>  (1) 
0

>  <r_i_glide_hbond>  (1) 
0

>  <r_i_glide_ligand_efficiency>  (1) 
-0.77769016167986937

>  <r_i_glide_ligand_efficiency_ln>  (1) 
-1.6713979200254827

>  <r_i_glide_ligand_efficiency_sa>  (1) 
-1.4131568076314469

>  <r_i_glide_lipo>  (1) 
-1.485431785045134

>  <r_i_glide_metal>  (1) 
-0

>  <r_i_glide_rewards>  (1) 
-2.4500000000000002

>  <r_lp_Energy>  (1) 
11.088944

>  <r_lp_tautomer_probability>  (1) 
1

>  <s_epik_cmdline>  (1) 
J2VwaWtfcHl0aG9uJywgJy1waHQnLCAnMS4wJywgJy1waCcsICc3LjQnLCAnLXRuJywgJzgnLCAnLW1hJywgJzUwMCcsICctaW1hZScsICc8aW5maWxlLm1hZT4nLCAnLW9tYWUnLCAnPG91dGZpbGUubWFlPic=

>  <s_epik_input>  (1) 
bjFbY0hdW2NIXVtjSF1bY0hdW2NIXTE=

>  <s_glide_docking_method>  (1) 
confgen

>  <s_i_glide_gridfile>  (1) 
gpcr_drd2_6luq_protein_autoprepared_prepared

>  <s_lp_Force_Field>  (1) 
S-OPLS

>  <s_lp_Variant>  (1) 
Pocket2Mol_6_num_sample_50-1

>  <s_m_source_file>  (1) 
generated__ligand_Pocket2Mol_2026-05-06_prepared.sdf

>  <GenAI_Model>  (1) 
Pocket2Mol

>  <Protein>  (1) 
generic_title2

$$$$
Pocket2Mol_19_num_sample_50
     RDKit          3D

  0  0  0  0  0  0  0  0  0  0999 V3000
M  V30 BEGIN CTAB
M  V30 COUNTS 12 12 0 0 1
M  V30 BEGIN ATOM
M  V30 1 N 11.872959 8.632467 -7.306315 0
M  V30 2 C 11.243273 8.567852 -8.498920 0
M  V30 3 C 10.031019 7.874840 -8.696096 0
M  V30 4 C 11.306696 7.999574 -6.257292 0
M  V30 5 O 9.437386 7.842325 -9.925107 0
M  V30 6 C 9.448299 7.217612 -7.594639 0
M  V30 7 C 10.098838 7.280445 -6.348128 0
M  V30 8 H 11.720625 9.083988 -9.319033 0
M  V30 9 H 11.832148 8.068137 -5.316219 0
M  V30 10 H 8.495831 7.769345 -9.887380 0
M  V30 11 H 8.520422 6.674892 -7.700269 0
M  V30 12 H 9.682927 6.789398 -5.480960 0
M  V30 END ATOM
M  V30 BEGIN BOND
M  V30 1 2 2 1
M  V30 2 1 3 2
M  V30 3 1 4 1
M  V30 4 1 5 3
M  V30 5 2 6 3
M  V30 6 2 7 4
M  V30 7 1 7 6
M  V30 8 1 8 2
M  V30 9 1 9 4
M  V30 10 1 10 5
M  V30 11 1 11 6
M  V30 12 1 12 7
M  V30 END BOND
M  V30 END CTAB
M  END
>  <i_epik_Tot_Q>  (1) 
0

>  <i_epik_Tot_abs_Q>  (1) 
0

>  <i_i_glide_confnum>  (1) 
1

>  <i_i_glide_lignum>  (1) 
23

>  <i_i_glide_posenum>  (1) 
99

>  <i_i_glide_rotatable_bonds>  (1) 
1

>  <i_lp_mmshare_version>  (1) 
72125

>  <i_m_source_file_index>  (1) 
20

>  <i_f3d_flags>  (1) 
0

>  <num_sample>  (1) 
50

>  <b_lp_Chiralities_Consistent>  (1) 
1

>  <r_epik_Charging_Adjusted_Penalty>  (1) 
0.49104251329211085

>  <r_epik_Ionization_Penalty>  (1) 
0.049438115990627488

>  <r_epik_Ionization_Penalty_Charging>  (1) 
0

>  <r_epik_Ionization_Penalty_Neutral>  (1) 
0.049438115990627488

>  <r_epik_State_Penalty>  (1) 
0.49104251329211085

>  <r_glide_ring_energy>  (1) 
0

>  <r_i_docking_score>  (1) 
-4.6625526331881026

>  <r_i_glide_ecoul>  (1) 
-8.5944752331555456

>  <r_i_glide_eff_state_penalty>  (1) 
0.49104251329211085

>  <r_i_glide_einternal>  (1) 
0.82479387358257306

>  <r_i_glide_emodel>  (1) 
-26.827365354101637

>  <r_i_glide_emodel_strain>  (1) 
0.21584569949988541

>  <r_i_glide_energy>  (1) 
-19.785733135371601

>  <r_i_glide_erotb>  (1) 
0

>  <r_i_glide_esite>  (1) 
0

>  <r_i_glide_evdw>  (1) 
-11.191257902216053

>  <r_i_glide_gscore>  (1) 
-5.1535951464802139

>  <r_i_glide_gscore_strain>  (1) 
0

>  <r_i_glide_hbond>  (1) 
-0.16

>  <r_i_glide_ligand_efficiency>  (1) 
-0.66607894759830033

>  <r_i_glide_ligand_efficiency_ln>  (1) 
-1.5827205845647661

>  <r_i_glide_ligand_efficiency_sa>  (1) 
-1.2741631890490051

>  <r_i_glide_lipo>  (1) 
-0.64370124538302731

>  <r_i_glide_metal>  (1) 
-0

>  <r_i_glide_rewards>  (1) 
-2.5011597210130518

>  <r_lp_Energy>  (1) 
10.560834

>  <r_lp_tautomer_probability>  (1) 
0.43658000000000002

>  <s_epik_cmdline>  (1) 
J2VwaWtfcHl0aG9uJywgJy1waHQnLCAnMS4wJywgJy1waCcsICc3LjQnLCAnLXRuJywgJzgnLCAnLW1hJywgJzUwMCcsICctaW1hZScsICc8aW5maWxlLm1hZT4nLCAnLW9tYWUnLCAnPG91dGZpbGUubWFlPic=

>  <s_epik_input>  (1) 
W2NIXTFbY0hdW2NIXW5bY0hdYzFbT0hd

>  <s_glide_docking_method>  (1) 
confgen

>  <s_i_glide_gridfile>  (1) 
gpcr_drd2_6luq_protein_autoprepared_prepared

>  <s_lp_Force_Field>  (1) 
S-OPLS

>  <s_lp_Variant>  (1) 
Pocket2Mol_19_num_sample_50-2

>  <s_m_source_file>  (1) 
generated__ligand_Pocket2Mol_2026-05-06_prepared.sdf

>  <GenAI_Model>  (1) 
Pocket2Mol

>  <Protein>  (1) 
generic_title2

$$$$
Pocket2Mol_15_num_sample_50
     RDKit          3D

  0  0  0  0  0  0  0  0  0  0999 V3000
M  V30 BEGIN CTAB
M  V30 COUNTS 19 19 0 0 1
M  V30 BEGIN ATOM
M  V30 1 C 11.872853 8.558252 -9.226845 0
M  V30 2 O 12.190512 7.983071 -7.967448 0
M  V30 3 C 11.005109 7.864603 -7.180587 0
M  V30 4 C 10.995174 6.474602 -6.539226 0
M  V30 5 C 11.038190 8.962931 -6.108311 0
M  V30 6 C 10.493950 7.994729 -9.530003 0
M  V30 7 C 9.834887 8.022537 -8.166633 0
M  V30 8 H 11.835053 9.644972 -9.136879 0
M  V30 9 H 12.611714 8.300034 -9.985869 0
M  V30 10 H 10.081227 6.313355 -5.965879 0
M  V30 11 H 11.834842 6.331076 -5.861774 0
M  V30 12 H 11.046320 5.694465 -7.299410 0
M  V30 13 H 10.139138 8.935005 -5.497164 0
M  V30 14 H 11.894403 8.840763 -5.445111 0
M  V30 15 H 11.112085 9.953386 -6.553539 0
M  V30 16 H 9.945286 8.569301 -10.276614 0
M  V30 17 H 10.577693 6.966416 -9.883417 0
M  V30 18 H 9.076929 7.243594 -8.068652 0
M  V30 19 H 9.319938 8.969545 -8.018719 0
M  V30 END ATOM
M  V30 BEGIN BOND
M  V30 1 1 2 1
M  V30 2 1 3 2
M  V30 3 1 4 3
M  V30 4 1 5 3
M  V30 5 1 6 1
M  V30 6 1 7 3
M  V30 7 1 7 6
M  V30 8 1 8 1
M  V30 9 1 9 1
M  V30 10 1 10 4
M  V30 11 1 11 4
M  V30 12 1 12 4
M  V30 13 1 13 5
M  V30 14 1 14 5
M  V30 15 1 15 5
M  V30 16 1 16 6
M  V30 17 1 17 6
M  V30 18 1 18 7
M  V30 19 1 19 7
M  V30 END BOND
M  V30 END CTAB
M  END
>  <i_epik_Tot_Q>  (1) 
0

>  <i_epik_Tot_abs_Q>  (1) 
0

>  <i_i_glide_confnum>  (1) 
3

>  <i_i_glide_lignum>  (1) 
18

>  <i_i_glide_posenum>  (1) 
154

>  <i_i_glide_rotatable_bonds>  (1) 
0

>  <i_lp_mmshare_version>  (1) 
72125

>  <i_m_source_file_index>  (1) 
16

>  <i_f3d_flags>  (1) 
0

>  <num_sample>  (1) 
50

>  <b_lp_Chiralities_Consistent>  (1) 
1

>  <r_epik_Charging_Adjusted_Penalty>  (1) 
0

>  <r_epik_Ionization_Penalty>  (1) 
1.3889264151150229e-11

>  <r_epik_Ionization_Penalty_Charging>  (1) 
0

>  <r_epik_Ionization_Penalty_Neutral>  (1) 
1.3889264151150229e-11

>  <r_epik_State_Penalty>  (1) 
-0

>  <r_glide_ring_energy>  (1) 
0.26153915213888035

>  <r_i_docking_score>  (1) 
-4.6560660906964486

>  <r_i_glide_ecoul>  (1) 
-0.49150829110658611

>  <r_i_glide_eff_state_penalty>  (1) 
-0

>  <r_i_glide_einternal>  (1) 
0

>  <r_i_glide_emodel>  (1) 
-22.183266784438651

>  <r_i_glide_emodel_strain>  (1) 
0

>  <r_i_glide_energy>  (1) 
-17.184654685955845

>  <r_i_glide_erotb>  (1) 
0

>  <r_i_glide_esite>  (1) 
0

>  <r_i_glide_evdw>  (1) 
-16.693146394849258

>  <r_i_glide_gscore>  (1) 
-4.6560660906964486

>  <r_i_glide_gscore_strain>  (1) 
0

>  <r_i_glide_hbond>  (1) 
0

>  <r_i_glide_ligand_efficiency>  (1) 
-0.66515229867092118

>  <r_i_glide_ligand_efficiency_ln>  (1) 
-1.5805187039358763

>  <r_i_glide_ligand_efficiency_sa>  (1) 
-1.2723905734203389

>  <r_i_glide_lipo>  (1) 
-0.98995652704519621

>  <r_i_glide_metal>  (1) 
-0

>  <r_i_glide_rewards>  (1) 
-2.7577260002428012

>  <r_lp_Energy>  (1) 
0.043719999999999995

>  <r_lp_tautomer_probability>  (1) 
1

>  <s_epik_cmdline>  (1) 
J2VwaWtfcHl0aG9uJywgJy1waHQnLCAnMS4wJywgJy1waCcsICc3LjQnLCAnLXRuJywgJzgnLCAnLW1hJywgJzUwMCcsICctaW1hZScsICc8aW5maWxlLm1hZT4nLCAnLW9tYWUnLCAnPG91dGZpbGUubWFlPic=

>  <s_epik_input>  (1) 
W0NIMl0xW0NIMl1bQ0gyXU9DMShbQ0gzXSlbQ0gzXQ==

>  <s_glide_docking_method>  (1) 
confgen

>  <s_i_glide_gridfile>  (1) 
gpcr_drd2_6luq_protein_autoprepared_prepared

>  <s_lp_Force_Field>  (1) 
S-OPLS

>  <s_lp_Variant>  (1) 
Pocket2Mol_15_num_sample_50-1

>  <s_m_source_file>  (1) 
generated__ligand_Pocket2Mol_2026-05-06_prepared.sdf

>  <GenAI_Model>  (1) 
Pocket2Mol

>  <Protein>  (1) 
generic_title2

$$$$
Pocket2Mol_39_num_sample_50
     RDKit          3D

  0  0  0  0  0  0  0  0  0  0999 V3000
M  V30 BEGIN CTAB
M  V30 COUNTS 14 14 0 0 1
M  V30 BEGIN ATOM
M  V30 1 C 9.730974 7.855950 -6.975225 0
M  V30 2 O 10.602902 8.968845 -6.900968 0
M  V30 3 C 11.305940 9.094994 -5.727899 0
M  V30 4 C 10.455017 6.627470 -6.435729 0
M  V30 5 O 10.860224 6.861532 -5.093793 0
M  V30 6 C 11.434844 8.087319 -4.830842 0
M  V30 7 C 12.234810 8.244018 -3.493376 0
M  V30 8 O 12.291224 7.229509 -2.764109 0 CHG=-1
M  V30 9 O 12.736371 9.368654 -3.287679 0
M  V30 10 H 9.428305 7.701701 -8.011284 0
M  V30 11 H 8.826351 8.058917 -6.399905 0
M  V30 12 H 11.729088 10.081776 -5.605682 0
M  V30 13 H 11.327299 6.387883 -7.045570 0
M  V30 14 H 9.788191 5.769301 -6.466191 0
M  V30 END ATOM
M  V30 BEGIN BOND
M  V30 1 1 2 1
M  V30 2 1 3 2
M  V30 3 1 4 1
M  V30 4 1 5 4
M  V30 5 2 6 3
M  V30 6 1 6 5
M  V30 7 1 7 6
M  V30 8 1 8 7
M  V30 9 2 9 7
M  V30 10 1 10 1
M  V30 11 1 11 1
M  V30 12 1 12 3
M  V30 13 1 13 4
M  V30 14 1 14 4
M  V30 END BOND
M  V30 END CTAB
M  END
>  <i_epik_Tot_Q>  (1) 
-1

>  <i_epik_Tot_abs_Q>  (1) 
1

>  <i_i_glide_confnum>  (1) 
1

>  <i_i_glide_lignum>  (1) 
44

>  <i_i_glide_posenum>  (1) 
9

>  <i_i_glide_rotatable_bonds>  (1) 
1

>  <i_lp_mmshare_version>  (1) 
72125

>  <i_m_source_file_index>  (1) 
40

>  <i_f3d_flags>  (1) 
0

>  <num_sample>  (1) 
50

>  <b_lp_Chiralities_Consistent>  (1) 
1

>  <r_epik_Charging_Adjusted_Penalty>  (1) 
1.9393830553820406e-05

>  <r_epik_Ionization_Penalty>  (1) 
1.9393830553820406e-05

>  <r_epik_Ionization_Penalty_Charging>  (1) 
1.9393830553820406e-05

>  <r_epik_Ionization_Penalty_Neutral>  (1) 
0

>  <r_epik_State_Penalty>  (1) 
-0

>  <r_glide_ring_energy>  (1) 
0

>  <r_i_docking_score>  (1) 
-4.654899521966362

>  <r_i_glide_ecoul>  (1) 
-0.48047579345153191

>  <r_i_glide_eff_state_penalty>  (1) 
-0

>  <r_i_glide_einternal>  (1) 
0.0050881695280891037

>  <r_i_glide_emodel>  (1) 
-23.442598808330306

>  <r_i_glide_emodel_strain>  (1) 
0

>  <r_i_glide_energy>  (1) 
-16.64684180693019

>  <r_i_glide_erotb>  (1) 
0

>  <r_i_glide_esite>  (1) 
0

>  <r_i_glide_evdw>  (1) 
-16.166366013478658

>  <r_i_glide_gscore>  (1) 
-4.654899521966362

>  <r_i_glide_gscore_strain>  (1) 
0

>  <r_i_glide_hbond>  (1) 
0

>  <r_i_glide_ligand_efficiency>  (1) 
-0.51721105799626244

>  <r_i_glide_ligand_efficiency_ln>  (1) 
-1.4559188475413918

>  <r_i_glide_ligand_efficiency_sa>  (1) 
-1.0758423548415859

>  <r_i_glide_lipo>  (1) 
-0.73284318560803241

>  <r_i_glide_metal>  (1) 
-0

>  <r_i_glide_rewards>  (1) 
-3.041666666666667

>  <r_lp_Energy>  (1) 
18.695968999999998

>  <r_lp_tautomer_probability>  (1) 
1

>  <s_epik_cmdline>  (1) 
J2VwaWtfcHl0aG9uJywgJy1waHQnLCAnMS4wJywgJy1waCcsICc3LjQnLCAnLXRuJywgJzgnLCAnLW1hJywgJzUwMCcsICctaW1hZScsICc8aW5maWxlLm1hZT4nLCAnLW9tYWUnLCAnPG91dGZpbGUubWFlPic=

>  <s_epik_input>  (1) 
TzFbQ0gyXVtDSDJdT1tDSF09QzFDKD1PKVtPSF0=

>  <s_glide_docking_method>  (1) 
confgen

>  <s_i_glide_gridfile>  (1) 
gpcr_drd2_6luq_protein_autoprepared_prepared

>  <s_lp_Force_Field>  (1) 
S-OPLS

>  <s_lp_Variant>  (1) 
Pocket2Mol_39_num_sample_50-1

>  <s_m_source_file>  (1) 
generated__ligand_Pocket2Mol_2026-05-06_prepared.sdf

>  <GenAI_Model>  (1) 
Pocket2Mol

>  <Protein>  (1) 
generic_title2

$$$$
Pocket2Mol_35_num_sample_50
     RDKit          3D

  0  0  0  0  0  0  0  0  0  0999 V3000
M  V30 BEGIN CTAB
M  V30 COUNTS 15 16 0 0 1
M  V30 BEGIN ATOM
M  V30 1 C 9.798364 7.597865 -7.292559 0
M  V30 2 O 10.406167 8.890176 -6.982823 0
M  V30 3 C 11.030587 8.576257 -5.845150 0
M  V30 4 C 10.890759 7.302068 -5.479442 0
M  V30 5 C 11.473841 6.802400 -4.302343 0
M  V30 6 C 12.234839 7.681313 -3.491548 0
M  V30 7 C 12.382753 9.037232 -3.882614 0
M  V30 8 C 11.770928 9.489594 -5.076840 0
M  V30 9 O 10.153041 6.569339 -6.318331 0
M  V30 10 H 10.114100 7.280337 -8.287006 0
M  V30 11 H 8.712043 7.710335 -7.300057 0
M  V30 12 H 11.344886 5.769377 -4.022117 0
M  V30 13 H 12.694598 7.322994 -2.582477 0
M  V30 14 H 12.957032 9.719840 -3.272735 0
M  V30 15 H 11.869167 10.518129 -5.390895 0
M  V30 END ATOM
M  V30 BEGIN BOND
M  V30 1 1 2 1
M  V30 2 1 3 2
M  V30 3 1 4 3
M  V30 4 2 5 4
M  V30 5 1 6 5
M  V30 6 2 7 6
M  V30 7 2 8 3
M  V30 8 1 8 7
M  V30 9 1 9 1
M  V30 10 1 9 4
M  V30 11 1 10 1
M  V30 12 1 11 1
M  V30 13 1 12 5
M  V30 14 1 13 6
M  V30 15 1 14 7
M  V30 16 1 15 8
M  V30 END BOND
M  V30 END CTAB
M  END
>  <i_epik_Tot_Q>  (1) 
0

>  <i_epik_Tot_abs_Q>  (1) 
0

>  <i_i_glide_confnum>  (1) 
1

>  <i_i_glide_lignum>  (1) 
40

>  <i_i_glide_posenum>  (1) 
250

>  <i_i_glide_rotatable_bonds>  (1) 
0

>  <i_lp_mmshare_version>  (1) 
72125

>  <i_m_source_file_index>  (1) 
36

>  <i_f3d_flags>  (1) 
0

>  <num_sample>  (1) 
50

>  <b_lp_Chiralities_Consistent>  (1) 
1

>  <r_epik_Charging_Adjusted_Penalty>  (1) 
0

>  <r_epik_Ionization_Penalty>  (1) 
0

>  <r_epik_Ionization_Penalty_Charging>  (1) 
0

>  <r_epik_Ionization_Penalty_Neutral>  (1) 
0

>  <r_epik_State_Penalty>  (1) 
-0

>  <r_glide_ring_energy>  (1) 
0

>  <r_i_docking_score>  (1) 
-4.6331926228690374

>  <r_i_glide_ecoul>  (1) 
-1.1279876311894483

>  <r_i_glide_eff_state_penalty>  (1) 
-0

>  <r_i_glide_einternal>  (1) 
0

>  <r_i_glide_emodel>  (1) 
-25.981449132550249

>  <r_i_glide_emodel_strain>  (1) 
0

>  <r_i_glide_energy>  (1) 
-20.059199211547352

>  <r_i_glide_erotb>  (1) 
0

>  <r_i_glide_esite>  (1) 
-0.056642933779500131

>  <r_i_glide_evdw>  (1) 
-18.931211580357903

>  <r_i_glide_gscore>  (1) 
-4.6331926228690374

>  <r_i_glide_gscore_strain>  (1) 
0

>  <r_i_glide_hbond>  (1) 
0

>  <r_i_glide_ligand_efficiency>  (1) 
-0.51479918031878191

>  <r_i_glide_ligand_efficiency_ln>  (1) 
-1.4491295530854453

>  <r_i_glide_ligand_efficiency_sa>  (1) 
-1.0708254471014786

>  <r_i_glide_lipo>  (1) 
-1.8107909653932255

>  <r_i_glide_metal>  (1) 
-0

>  <r_i_glide_rewards>  (1) 
-1.6499999999999999

>  <r_lp_Energy>  (1) 
19.342482

>  <r_lp_tautomer_probability>  (1) 
1

>  <s_epik_Chemistry_Notes>  (1) 
This compound contains an acetal/aminal-like group ( X-CH(R)-Y where X, Y are N, S, or O) that may be acid/base labile, releasing an aldehyde.

>  <s_epik_cmdline>  (1) 
J2VwaWtfcHl0aG9uJywgJy1waHQnLCAnMS4wJywgJy1waCcsICc3LjQnLCAnLXRuJywgJzgnLCAnLW1hJywgJzUwMCcsICctaW1hZScsICc8aW5maWxlLm1hZT4nLCAnLW9tYWUnLCAnPG91dGZpbGUubWFlPic=

>  <s_epik_input>  (1) 
TzFbQ0gyXU9jKGMxMilbY0hdW2NIXVtjSF1bY0hdMg==

>  <s_glide_docking_method>  (1) 
confgen

>  <s_i_glide_gridfile>  (1) 
gpcr_drd2_6luq_protein_autoprepared_prepared

>  <s_lp_Force_Field>  (1) 
S-OPLS

>  <s_lp_Variant>  (1) 
Pocket2Mol_35_num_sample_50-1

>  <s_m_source_file>  (1) 
generated__ligand_Pocket2Mol_2026-05-06_prepared.sdf

>  <GenAI_Model>  (1) 
Pocket2Mol

>  <Protein>  (1) 
generic_title2

$$$$
Pocket2Mol_18_num_sample_50
     RDKit          3D

  0  0  0  0  0  0  0  0  0  0999 V3000
M  V30 BEGIN CTAB
M  V30 COUNTS 14 14 0 0 1
M  V30 BEGIN ATOM
M  V30 1 N 12.140815 7.749440 -3.783730 0 CHG=1
M  V30 2 C 11.434839 6.738064 -4.335831 0
M  V30 3 C 10.659758 6.969562 -5.491667 0
M  V30 4 C 10.634839 8.262869 -6.053499 0
M  V30 5 N 9.871189 8.519810 -7.189041 0
M  V30 6 C 11.390855 9.293725 -5.447513 0
M  V30 7 C 12.146722 9.000208 -4.291666 0
M  V30 8 H 11.508068 5.782196 -3.839246 0
M  V30 9 H 10.089147 6.169301 -5.937622 0
M  V30 10 H 9.723051 9.466810 -7.503249 0
M  V30 11 H 9.205693 7.834350 -7.529510 0
M  V30 12 H 11.388444 10.292047 -5.860600 0
M  V30 13 H 12.750506 9.723760 -3.762956 0
M  V30 14 H 12.693619 7.559187 -2.946435 0
M  V30 END ATOM
M  V30 BEGIN BOND
M  V30 1 1 2 1
M  V30 2 2 3 2
M  V30 3 1 4 3
M  V30 4 1 5 4
M  V30 5 2 6 4
M  V30 6 2 7 1
M  V30 7 1 7 6
M  V30 8 1 8 2
M  V30 9 1 9 3
M  V30 10 1 10 5
M  V30 11 1 11 5
M  V30 12 1 12 6
M  V30 13 1 13 7
M  V30 14 1 14 1
M  V30 END BOND
M  V30 END CTAB
M  END
>  <i_epik_Tot_Q>  (1) 
1

>  <i_epik_Tot_abs_Q>  (1) 
1

>  <i_i_glide_confnum>  (1) 
1

>  <i_i_glide_lignum>  (1) 
21

>  <i_i_glide_posenum>  (1) 
398

>  <i_i_glide_rotatable_bonds>  (1) 
0

>  <i_lp_mmshare_version>  (1) 
72125

>  <i_m_source_file_index>  (1) 
19

>  <i_f3d_flags>  (1) 
0

>  <num_sample>  (1) 
50

>  <b_lp_Chiralities_Consistent>  (1) 
1

>  <r_epik_Charging_Adjusted_Penalty>  (1) 
0.023410508937706027

>  <r_epik_Ionization_Penalty>  (1) 
0.011711918016166721

>  <r_epik_Ionization_Penalty_Charging>  (1) 
0.011705254468853022

>  <r_epik_Ionization_Penalty_Neutral>  (1) 
6.6635473136990569e-06

>  <r_epik_State_Penalty>  (1) 
0.011705254468853005

>  <r_glide_ring_energy>  (1) 
0

>  <r_i_docking_score>  (1) 
-4.6318202304297946

>  <r_i_glide_ecoul>  (1) 
-1.3092971393017709

>  <r_i_glide_eff_state_penalty>  (1) 
0.011705254468853005

>  <r_i_glide_einternal>  (1) 
0

>  <r_i_glide_emodel>  (1) 
-24.479383786564675

>  <r_i_glide_emodel_strain>  (1) 
0

>  <r_i_glide_energy>  (1) 
-15.813517321562193

>  <r_i_glide_erotb>  (1) 
0

>  <r_i_glide_esite>  (1) 
-0.010498106615485475

>  <r_i_glide_evdw>  (1) 
-14.504220182260422

>  <r_i_glide_gscore>  (1) 
-4.6435254848986478

>  <r_i_glide_gscore_strain>  (1) 
0

>  <r_i_glide_hbond>  (1) 
0

>  <r_i_glide_ligand_efficiency>  (1) 
-0.66168860434711352

>  <r_i_glide_ligand_efficiency_ln>  (1) 
-1.5722883577814193

>  <r_i_glide_ligand_efficiency_sa>  (1) 
-1.2657647645407353

>  <r_i_glide_lipo>  (1) 
-1.4614217982748756

>  <r_i_glide_metal>  (1) 
-0

>  <r_i_glide_rewards>  (1) 
-2.25

>  <r_lp_Energy>  (1) 
13.062742999999999

>  <r_lp_tautomer_probability>  (1) 
0.99999999993680011

>  <s_epik_cmdline>  (1) 
J2VwaWtfcHl0aG9uJywgJy1waHQnLCAnMS4wJywgJy1waCcsICc3LjQnLCAnLXRuJywgJzgnLCAnLW1hJywgJzUwMCcsICctaW1hZScsICc8aW5maWxlLm1hZT4nLCAnLW9tYWUnLCAnPG91dGZpbGUubWFlPic=

>  <s_epik_input>  (1) 
W2NIXTFbY0hdbltjSF1bY0hdYzFbTkgyXQ==

>  <s_glide_docking_method>  (1) 
confgen

>  <s_i_glide_gridfile>  (1) 
gpcr_drd2_6luq_protein_autoprepared_prepared

>  <s_lp_Force_Field>  (1) 
S-OPLS

>  <s_lp_Variant>  (1) 
Pocket2Mol_18_num_sample_50-1

>  <s_m_source_file>  (1) 
generated__ligand_Pocket2Mol_2026-05-06_prepared.sdf

>  <GenAI_Model>  (1) 
Pocket2Mol

>  <Protein>  (1) 
generic_title2

$$$$
Pocket2Mol_34_num_sample_50
     RDKit          3D

  0  0  0  0  0  0  0  0  0  0999 V3000
M  V30 BEGIN CTAB
M  V30 COUNTS 17 18 0 0 1
M  V30 BEGIN ATOM
M  V30 1 C 11.696823 8.968990 -4.909152 0
M  V30 2 O 10.750076 7.844117 -5.091745 0
M  V30 3 C 10.664585 7.769028 -6.432841 0
M  V30 4 C 11.433326 8.637237 -7.120766 0
M  V30 5 C 11.428176 8.640655 -8.528819 0
M  V30 6 N 10.629076 7.761455 -9.179539 0 CHG=1
M  V30 7 C 9.834839 6.876192 -8.522839 0
M  V30 8 C 9.833021 6.857247 -7.107959 0
M  V30 9 C 12.234581 9.547624 -6.297038 0
M  V30 10 H 12.532049 8.638294 -4.290931 0
M  V30 11 H 11.190050 9.758307 -4.351925 0
M  V30 12 H 12.015544 9.306525 -9.145451 0
M  V30 13 H 9.230324 6.225710 -9.140320 0
M  V30 14 H 9.207024 6.169044 -6.561756 0
M  V30 15 H 13.304983 9.397284 -6.440850 0
M  V30 16 H 11.955238 10.590386 -6.451261 0
M  V30 17 H 10.617174 7.767687 -10.200613 0
M  V30 END ATOM
M  V30 BEGIN BOND
M  V30 1 1 2 1
M  V30 2 1 3 2
M  V30 3 2 4 3
M  V30 4 1 5 4
M  V30 5 2 6 5
M  V30 6 1 7 6
M  V30 7 1 8 3
M  V30 8 2 8 7
M  V30 9 1 9 1
M  V30 10 1 9 4
M  V30 11 1 10 1
M  V30 12 1 11 1
M  V30 13 1 12 5
M  V30 14 1 13 7
M  V30 15 1 14 8
M  V30 16 1 15 9
M  V30 17 1 16 9
M  V30 18 1 17 6
M  V30 END BOND
M  V30 END CTAB
M  END
>  <i_epik_Tot_Q>  (1) 
1

>  <i_epik_Tot_abs_Q>  (1) 
1

>  <i_i_glide_confnum>  (1) 
1

>  <i_i_glide_lignum>  (1) 
38

>  <i_i_glide_posenum>  (1) 
341

>  <i_i_glide_rotatable_bonds>  (1) 
0

>  <i_lp_mmshare_version>  (1) 
72125

>  <i_m_source_file_index>  (1) 
35

>  <i_f3d_flags>  (1) 
0

>  <num_sample>  (1) 
50

>  <b_lp_Chiralities_Consistent>  (1) 
1

>  <r_epik_Charging_Adjusted_Penalty>  (1) 
0.75885481127580179

>  <r_epik_Ionization_Penalty>  (1) 
0.37942740563790117

>  <r_epik_Ionization_Penalty_Charging>  (1) 
0.37942740563790117

>  <r_epik_Ionization_Penalty_Neutral>  (1) 
0

>  <r_epik_State_Penalty>  (1) 
0.37942740563790056

>  <r_glide_ring_energy>  (1) 
0

>  <r_i_docking_score>  (1) 
-4.6268608775357132

>  <r_i_glide_ecoul>  (1) 
-1.3420187930621323

>  <r_i_glide_eff_state_penalty>  (1) 
0.37942740563790056

>  <r_i_glide_einternal>  (1) 
0

>  <r_i_glide_emodel>  (1) 
-27.793493513185496

>  <r_i_glide_emodel_strain>  (1) 
9.9475983006414026e-14

>  <r_i_glide_energy>  (1) 
-18.489502472643164

>  <r_i_glide_erotb>  (1) 
0

>  <r_i_glide_esite>  (1) 
-0.019391277194893176

>  <r_i_glide_evdw>  (1) 
-17.147483679581033

>  <r_i_glide_gscore>  (1) 
-5.006288283173614

>  <r_i_glide_gscore_strain>  (1) 
0

>  <r_i_glide_hbond>  (1) 
0

>  <r_i_glide_ligand_efficiency>  (1) 
-0.51409565305952365

>  <r_i_glide_ligand_efficiency_ln>  (1) 
-1.4471491650394483

>  <r_i_glide_ligand_efficiency_sa>  (1) 
-1.0693620514304196

>  <r_i_glide_lipo>  (1) 
-1.2998389782242419

>  <r_i_glide_metal>  (1) 
-0

>  <r_i_glide_rewards>  (1) 
-2.628381024816107

>  <r_lp_Energy>  (1) 
18.327531999999998

>  <s_epik_cmdline>  (1) 
J2VwaWtfcHl0aG9uJywgJy1waHQnLCAnMS4wJywgJy1waCcsICc3LjQnLCAnLXRuJywgJzgnLCAnLW1hJywgJzUwMCcsICctaW1hZScsICc8aW5maWxlLm1hZT4nLCAnLW9tYWUnLCAnPG91dGZpbGUubWFlPic=

>  <s_epik_input>  (1) 
TzFbQ0gyXVtDSDJdYyhjMTIpW2NIXW5bY0hdW2NIXTI=

>  <s_glide_docking_method>  (1) 
confgen

>  <s_i_glide_gridfile>  (1) 
gpcr_drd2_6luq_protein_autoprepared_prepared

>  <s_lp_Force_Field>  (1) 
S-OPLS

>  <s_lp_Variant>  (1) 
Pocket2Mol_34_num_sample_50-1

>  <s_m_source_file>  (1) 
generated__ligand_Pocket2Mol_2026-05-06_prepared.sdf

>  <GenAI_Model>  (1) 
Pocket2Mol

>  <Protein>  (1) 
generic_title2

$$$$
Pocket2Mol_19_num_sample_50
     RDKit          3D

  0  0  0  0  0  0  0  0  0  0999 V3000
M  V30 BEGIN CTAB
M  V30 COUNTS 12 12 0 0 1
M  V30 BEGIN ATOM
M  V30 1 N 10.119257 8.569236 -6.419080 0
M  V30 2 C 9.483088 8.236591 -7.563101 0
M  V30 3 C 10.140635 8.110770 -8.803990 0
M  V30 4 C 11.449695 8.789733 -6.477336 0
M  V30 5 O 9.447176 7.771768 -9.930496 0
M  V30 6 C 11.529132 8.342995 -8.853914 0
M  V30 7 C 12.198919 8.689876 -7.665702 0
M  V30 8 H 8.419455 8.066520 -7.484875 0
M  V30 9 H 11.932038 9.053879 -5.547726 0
M  V30 10 H 8.508093 7.769331 -9.809431 0
M  V30 11 H 12.072581 8.257627 -9.783168 0
M  V30 12 H 13.262986 8.875677 -7.663957 0
M  V30 END ATOM
M  V30 BEGIN BOND
M  V30 1 2 2 1
M  V30 2 1 3 2
M  V30 3 1 4 1
M  V30 4 1 5 3
M  V30 5 2 6 3
M  V30 6 2 7 4
M  V30 7 1 7 6
M  V30 8 1 8 2
M  V30 9 1 9 4
M  V30 10 1 10 5
M  V30 11 1 11 6
M  V30 12 1 12 7
M  V30 END BOND
M  V30 END CTAB
M  END
>  <i_epik_Tot_Q>  (1) 
0

>  <i_epik_Tot_abs_Q>  (1) 
0

>  <i_i_glide_confnum>  (1) 
1

>  <i_i_glide_lignum>  (1) 
23

>  <i_i_glide_posenum>  (1) 
49

>  <i_i_glide_rotatable_bonds>  (1) 
1

>  <i_lp_mmshare_version>  (1) 
72125

>  <i_m_source_file_index>  (1) 
20

>  <i_f3d_flags>  (1) 
0

>  <num_sample>  (1) 
50

>  <b_lp_Chiralities_Consistent>  (1) 
1

>  <r_epik_Charging_Adjusted_Penalty>  (1) 
0.49104251329211085

>  <r_epik_Ionization_Penalty>  (1) 
0.049438115990627488

>  <r_epik_Ionization_Penalty_Charging>  (1) 
0

>  <r_epik_Ionization_Penalty_Neutral>  (1) 
0.049438115990627488

>  <r_epik_State_Penalty>  (1) 
0.49104251329211085

>  <r_glide_ring_energy>  (1) 
0

>  <r_i_docking_score>  (1) 
-4.6247426354535666

>  <r_i_glide_ecoul>  (1) 
-7.5447906696500988

>  <r_i_glide_eff_state_penalty>  (1) 
0.49104251329211085

>  <r_i_glide_einternal>  (1) 
0.079732240303486898

>  <r_i_glide_emodel>  (1) 
-26.052626714407658

>  <r_i_glide_emodel_strain>  (1) 
0

>  <r_i_glide_energy>  (1) 
-18.478888979228692

>  <r_i_glide_erotb>  (1) 
0

>  <r_i_glide_esite>  (1) 
0

>  <r_i_glide_evdw>  (1) 
-10.934098309578593

>  <r_i_glide_gscore>  (1) 
-5.1157851487456778

>  <r_i_glide_gscore_strain>  (1) 
0

>  <r_i_glide_hbond>  (1) 
-0.16

>  <r_i_glide_ligand_efficiency>  (1) 
-0.66067751935050956

>  <r_i_glide_ligand_efficiency_ln>  (1) 
-1.5698858422198032

>  <r_i_glide_ligand_efficiency_sa>  (1) 
-1.2638306285222982

>  <r_i_glide_lipo>  (1) 
-0.81069496615256698

>  <r_i_glide_metal>  (1) 
-0

>  <r_i_glide_rewards>  (1) 
-2.4666666666666668

>  <r_lp_Energy>  (1) 
10.560834

>  <r_lp_tautomer_probability>  (1) 
0.43658000000000002

>  <s_epik_cmdline>  (1) 
J2VwaWtfcHl0aG9uJywgJy1waHQnLCAnMS4wJywgJy1waCcsICc3LjQnLCAnLXRuJywgJzgnLCAnLW1hJywgJzUwMCcsICctaW1hZScsICc8aW5maWxlLm1hZT4nLCAnLW9tYWUnLCAnPG91dGZpbGUubWFlPic=

>  <s_epik_input>  (1) 
W2NIXTFbY0hdW2NIXW5bY0hdYzFbT0hd

>  <s_glide_docking_method>  (1) 
confgen

>  <s_i_glide_gridfile>  (1) 
gpcr_drd2_6luq_protein_autoprepared_prepared

>  <s_lp_Force_Field>  (1) 
S-OPLS

>  <s_lp_Variant>  (1) 
Pocket2Mol_19_num_sample_50-2

>  <s_m_source_file>  (1) 
generated__ligand_Pocket2Mol_2026-05-06_prepared.sdf

>  <GenAI_Model>  (1) 
Pocket2Mol

>  <Protein>  (1) 
generic_title2

$$$$
Pocket2Mol_35_num_sample_50
     RDKit          3D

  0  0  0  0  0  0  0  0  0  0999 V3000
M  V30 BEGIN CTAB
M  V30 COUNTS 15 16 0 0 1
M  V30 BEGIN ATOM
M  V30 1 C 12.076223 6.612431 -2.433030 0
M  V30 2 O 12.656913 7.933968 -2.637549 0
M  V30 3 C 12.189098 8.190285 -3.863595 0
M  V30 4 C 11.434839 7.218509 -4.377350 0
M  V30 5 C 10.863343 7.321482 -5.657050 0
M  V30 6 C 11.091187 8.496165 -6.409686 0
M  V30 7 C 11.889413 9.531849 -5.859104 0
M  V30 8 C 12.448598 9.369433 -4.569405 0
M  V30 9 O 11.283225 6.169328 -3.573501 0
M  V30 10 H 11.431002 6.640389 -1.555595 0
M  V30 11 H 12.880741 5.899234 -2.249421 0
M  V30 12 H 10.257338 6.522955 -6.054577 0
M  V30 13 H 10.661138 8.602841 -7.396302 0
M  V30 14 H 12.073532 10.435438 -6.420896 0
M  V30 15 H 13.063599 10.143862 -4.137075 0
M  V30 END ATOM
M  V30 BEGIN BOND
M  V30 1 1 2 1
M  V30 2 1 3 2
M  V30 3 1 4 3
M  V30 4 2 5 4
M  V30 5 1 6 5
M  V30 6 2 7 6
M  V30 7 2 8 3
M  V30 8 1 8 7
M  V30 9 1 9 1
M  V30 10 1 9 4
M  V30 11 1 10 1
M  V30 12 1 11 1
M  V30 13 1 12 5
M  V30 14 1 13 6
M  V30 15 1 14 7
M  V30 16 1 15 8
M  V30 END BOND
M  V30 END CTAB
M  END
>  <i_epik_Tot_Q>  (1) 
0

>  <i_epik_Tot_abs_Q>  (1) 
0

>  <i_i_glide_confnum>  (1) 
1

>  <i_i_glide_lignum>  (1) 
40

>  <i_i_glide_posenum>  (1) 
78

>  <i_i_glide_rotatable_bonds>  (1) 
0

>  <i_lp_mmshare_version>  (1) 
72125

>  <i_m_source_file_index>  (1) 
36

>  <i_f3d_flags>  (1) 
0

>  <num_sample>  (1) 
50

>  <b_lp_Chiralities_Consistent>  (1) 
1

>  <r_epik_Charging_Adjusted_Penalty>  (1) 
0

>  <r_epik_Ionization_Penalty>  (1) 
0

>  <r_epik_Ionization_Penalty_Charging>  (1) 
0

>  <r_epik_Ionization_Penalty_Neutral>  (1) 
0

>  <r_epik_State_Penalty>  (1) 
-0

>  <r_glide_ring_energy>  (1) 
0

>  <r_i_docking_score>  (1) 
-4.6169131683075388

>  <r_i_glide_ecoul>  (1) 
0.29816887243685392

>  <r_i_glide_eff_state_penalty>  (1) 
-0

>  <r_i_glide_einternal>  (1) 
0

>  <r_i_glide_emodel>  (1) 
-23.232619993487816

>  <r_i_glide_emodel_strain>  (1) 
0

>  <r_i_glide_energy>  (1) 
-17.331178833600294

>  <r_i_glide_erotb>  (1) 
0

>  <r_i_glide_esite>  (1) 
0

>  <r_i_glide_evdw>  (1) 
-17.629347706037148

>  <r_i_glide_gscore>  (1) 
-4.6169131683075388

>  <r_i_glide_gscore_strain>  (1) 
0

>  <r_i_glide_hbond>  (1) 
0

>  <r_i_glide_ligand_efficiency>  (1) 
-0.51299035203417098

>  <r_i_glide_ligand_efficiency_ln>  (1) 
-1.4440378073642042

>  <r_i_glide_ligand_efficiency_sa>  (1) 
-1.0670629326479806

>  <r_i_glide_lipo>  (1) 
-1.6801711138712101

>  <r_i_glide_metal>  (1) 
-0

>  <r_i_glide_rewards>  (1) 
-2.1000000000000001

>  <r_lp_Energy>  (1) 
19.342482

>  <r_lp_tautomer_probability>  (1) 
1

>  <s_epik_Chemistry_Notes>  (1) 
This compound contains an acetal/aminal-like group ( X-CH(R)-Y where X, Y are N, S, or O) that may be acid/base labile, releasing an aldehyde.

>  <s_epik_cmdline>  (1) 
J2VwaWtfcHl0aG9uJywgJy1waHQnLCAnMS4wJywgJy1waCcsICc3LjQnLCAnLXRuJywgJzgnLCAnLW1hJywgJzUwMCcsICctaW1hZScsICc8aW5maWxlLm1hZT4nLCAnLW9tYWUnLCAnPG91dGZpbGUubWFlPic=

>  <s_epik_input>  (1) 
TzFbQ0gyXU9jKGMxMilbY0hdW2NIXVtjSF1bY0hdMg==

>  <s_glide_docking_method>  (1) 
confgen

>  <s_i_glide_gridfile>  (1) 
gpcr_drd2_6luq_protein_autoprepared_prepared

>  <s_lp_Force_Field>  (1) 
S-OPLS

>  <s_lp_Variant>  (1) 
Pocket2Mol_35_num_sample_50-1

>  <s_m_source_file>  (1) 
generated__ligand_Pocket2Mol_2026-05-06_prepared.sdf

>  <GenAI_Model>  (1) 
Pocket2Mol

>  <Protein>  (1) 
generic_title2

$$$$
Pocket2Mol_11_num_sample_50
     RDKit          3D

  0  0  0  0  0  0  0  0  0  0999 V3000
M  V30 BEGIN CTAB
M  V30 COUNTS 14 14 0 0 1
M  V30 BEGIN ATOM
M  V30 1 O 10.375272 8.965315 -6.691656 0
M  V30 2 C 11.088277 9.308998 -5.606744 0
M  V30 3 C 10.253943 7.500416 -6.519134 0
M  V30 4 C 11.434841 8.349734 -4.808068 0
M  V30 5 C 12.236823 8.527926 -3.533108 0
M  V30 6 C 11.003501 7.000590 -5.193665 0
M  V30 7 H 11.296466 10.365443 -5.516966 0
M  V30 8 H 10.667315 7.003776 -7.397638 0
M  V30 9 H 9.195622 7.238103 -6.477078 0
M  V30 10 H 13.144110 7.925309 -3.569043 0
M  V30 11 H 12.526125 9.569736 -3.390890 0
M  V30 12 H 11.660628 8.215156 -2.662833 0
M  V30 13 H 11.838384 6.332529 -5.399527 0
M  V30 14 H 10.326462 6.557418 -4.462948 0
M  V30 END ATOM
M  V30 BEGIN BOND
M  V30 1 1 2 1
M  V30 2 1 3 1
M  V30 3 2 4 2
M  V30 4 1 5 4
M  V30 5 1 6 3
M  V30 6 1 6 4
M  V30 7 1 7 2
M  V30 8 1 8 3
M  V30 9 1 9 3
M  V30 10 1 10 5
M  V30 11 1 11 5
M  V30 12 1 12 5
M  V30 13 1 13 6
M  V30 14 1 14 6
M  V30 END BOND
M  V30 END CTAB
M  END
>  <i_epik_Tot_Q>  (1) 
0

>  <i_epik_Tot_abs_Q>  (1) 
0

>  <i_i_glide_confnum>  (1) 
1

>  <i_i_glide_lignum>  (1) 
14

>  <i_i_glide_posenum>  (1) 
10

>  <i_i_glide_rotatable_bonds>  (1) 
0

>  <i_lp_mmshare_version>  (1) 
72125

>  <i_m_source_file_index>  (1) 
12

>  <i_f3d_flags>  (1) 
0

>  <num_sample>  (1) 
50

>  <b_lp_Chiralities_Consistent>  (1) 
1

>  <r_epik_Charging_Adjusted_Penalty>  (1) 
0

>  <r_epik_Ionization_Penalty>  (1) 
0

>  <r_epik_Ionization_Penalty_Charging>  (1) 
0

>  <r_epik_Ionization_Penalty_Neutral>  (1) 
0

>  <r_epik_State_Penalty>  (1) 
-0

>  <r_glide_ring_energy>  (1) 
0

>  <r_i_docking_score>  (1) 
-4.6113189360806075

>  <r_i_glide_ecoul>  (1) 
-0.50831715676542821

>  <r_i_glide_eff_state_penalty>  (1) 
-0

>  <r_i_glide_einternal>  (1) 
0

>  <r_i_glide_emodel>  (1) 
-19.002727930801665

>  <r_i_glide_emodel_strain>  (1) 
0

>  <r_i_glide_energy>  (1) 
-14.502487455666927

>  <r_i_glide_erotb>  (1) 
0

>  <r_i_glide_esite>  (1) 
0

>  <r_i_glide_evdw>  (1) 
-13.994170298901498

>  <r_i_glide_gscore>  (1) 
-4.6113189360806075

>  <r_i_glide_gscore_strain>  (1) 
0

>  <r_i_glide_hbond>  (1) 
0

>  <r_i_glide_ligand_efficiency>  (1) 
-0.76855315601343455

>  <r_i_glide_ligand_efficiency_ln>  (1) 
-1.651760829293677

>  <r_i_glide_ligand_efficiency_sa>  (1) 
-1.3965537664781444

>  <r_i_glide_lipo>  (1) 
-1.3270295142873847

>  <r_i_glide_metal>  (1) 
-0

>  <r_i_glide_rewards>  (1) 
-2.5083333333333333

>  <r_lp_Energy>  (1) 
-7.9393969999999996

>  <r_lp_tautomer_probability>  (1) 
1

>  <s_epik_cmdline>  (1) 
J2VwaWtfcHl0aG9uJywgJy1waHQnLCAnMS4wJywgJy1waCcsICc3LjQnLCAnLXRuJywgJzgnLCAnLW1hJywgJzUwMCcsICctaW1hZScsICc8aW5maWxlLm1hZT4nLCAnLW9tYWUnLCAnPG91dGZpbGUubWFlPic=

>  <s_epik_input>  (1) 
W0NIMl0xW0NIMl1PW0NIXT1DMVtDSDNd

>  <s_glide_docking_method>  (1) 
confgen

>  <s_i_glide_gridfile>  (1) 
gpcr_drd2_6luq_protein_autoprepared_prepared

>  <s_lp_Force_Field>  (1) 
S-OPLS

>  <s_lp_Variant>  (1) 
Pocket2Mol_11_num_sample_50-1

>  <s_m_source_file>  (1) 
generated__ligand_Pocket2Mol_2026-05-06_prepared.sdf

>  <GenAI_Model>  (1) 
Pocket2Mol

>  <Protein>  (1) 
generic_title2

$$$$
Pocket2Mol_7_num_sample_50
     RDKit          3D

  0  0  0  0  0  0  0  0  0  0999 V3000
M  V30 BEGIN CTAB
M  V30 COUNTS 13 13 0 0 1
M  V30 BEGIN ATOM
M  V30 1 N 10.997578 8.113489 -5.881635 0
M  V30 2 C 11.434883 8.566903 -7.091509 0
M  V30 3 C 10.974151 7.922340 -8.122311 0
M  V30 4 C 10.234942 7.139413 -6.291696 0
M  V30 5 C 11.312220 8.230588 -9.564706 0
M  V30 6 C 10.056774 6.812577 -7.824393 0
M  V30 7 H 12.116585 9.403778 -7.126612 0
M  V30 8 H 9.679588 6.498462 -5.601885 0
M  V30 9 H 10.404344 8.470056 -10.119168 0
M  V30 10 H 11.992809 9.079934 -9.638684 0
M  V30 11 H 11.786278 7.369304 -10.035012 0
M  V30 12 H 10.448895 5.831456 -8.093109 0
M  V30 13 H 9.035899 6.978639 -8.172364 0
M  V30 END ATOM
M  V30 BEGIN BOND
M  V30 1 1 2 1
M  V30 2 2 3 2
M  V30 3 2 4 1
M  V30 4 1 5 3
M  V30 5 1 6 3
M  V30 6 1 6 4
M  V30 7 1 7 2
M  V30 8 1 8 4
M  V30 9 1 9 5
M  V30 10 1 10 5
M  V30 11 1 11 5
M  V30 12 1 12 6
M  V30 13 1 13 6
M  V30 END BOND
M  V30 END CTAB
M  END
>  <i_epik_Tot_Q>  (1) 
0

>  <i_epik_Tot_abs_Q>  (1) 
0

>  <i_i_glide_confnum>  (1) 
1

>  <i_i_glide_lignum>  (1) 
8

>  <i_i_glide_posenum>  (1) 
364

>  <i_i_glide_rotatable_bonds>  (1) 
0

>  <i_lp_mmshare_version>  (1) 
72125

>  <i_m_source_file_index>  (1) 
8

>  <i_f3d_flags>  (1) 
0

>  <num_sample>  (1) 
50

>  <b_lp_Chiralities_Consistent>  (1) 
1

>  <r_epik_Charging_Adjusted_Penalty>  (1) 
0

>  <r_epik_Ionization_Penalty>  (1) 
0

>  <r_epik_Ionization_Penalty_Charging>  (1) 
0

>  <r_epik_Ionization_Penalty_Neutral>  (1) 
0

>  <r_epik_State_Penalty>  (1) 
-0

>  <r_glide_ring_energy>  (1) 
0

>  <r_i_docking_score>  (1) 
-4.5948523355810584

>  <r_i_glide_ecoul>  (1) 
-1.3468361322049733

>  <r_i_glide_eff_state_penalty>  (1) 
-0

>  <r_i_glide_einternal>  (1) 
0

>  <r_i_glide_emodel>  (1) 
-21.723383097268574

>  <r_i_glide_emodel_strain>  (1) 
0

>  <r_i_glide_energy>  (1) 
-16.668695472149366

>  <r_i_glide_erotb>  (1) 
0

>  <r_i_glide_esite>  (1) 
0

>  <r_i_glide_evdw>  (1) 
-15.321859339944394

>  <r_i_glide_gscore>  (1) 
-4.5948523355810584

>  <r_i_glide_gscore_strain>  (1) 
0

>  <r_i_glide_hbond>  (1) 
0

>  <r_i_glide_ligand_efficiency>  (1) 
-0.76580872259684307

>  <r_i_glide_ligand_efficiency_ln>  (1) 
-1.6458625416077031

>  <r_i_glide_ligand_efficiency_sa>  (1) 
-1.3915668000011991

>  <r_i_glide_lipo>  (1) 
-0.53226831250641371

>  <r_i_glide_metal>  (1) 
-0

>  <r_i_glide_rewards>  (1) 
-3.0944656362466789

>  <r_lp_Energy>  (1) 
-3.9959819999999997

>  <r_lp_tautomer_probability>  (1) 
1

>  <s_epik_Chemistry_Notes>  (1) 
This compound has an imine and may undergo hydrolysis.

>  <s_epik_cmdline>  (1) 
J2VwaWtfcHl0aG9uJywgJy1waHQnLCAnMS4wJywgJy1waCcsICc3LjQnLCAnLXRuJywgJzgnLCAnLW1hJywgJzUwMCcsICctaW1hZScsICc8aW5maWxlLm1hZT4nLCAnLW9tYWUnLCAnPG91dGZpbGUubWFlPic=

>  <s_epik_input>  (1) 
W0NIMl0xW0NIXT1OW0NIXT1DMVtDSDNd

>  <s_glide_docking_method>  (1) 
confgen

>  <s_i_glide_gridfile>  (1) 
gpcr_drd2_6luq_protein_autoprepared_prepared

>  <s_lp_Force_Field>  (1) 
S-OPLS

>  <s_lp_Variant>  (1) 
Pocket2Mol_7_num_sample_50-1

>  <s_m_source_file>  (1) 
generated__ligand_Pocket2Mol_2026-05-06_prepared.sdf

>  <GenAI_Model>  (1) 
Pocket2Mol

>  <Protein>  (1) 
generic_title2

$$$$
Pocket2Mol_9_num_sample_50
     RDKit          3D

  0  0  0  0  0  0  0  0  0  0999 V3000
M  V30 BEGIN CTAB
M  V30 COUNTS 12 12 0 0 1
M  V30 BEGIN ATOM
M  V30 1 O 11.434802 8.087760 -4.987103 0
M  V30 2 C 11.572392 6.967688 -4.219560 0
M  V30 3 C 12.019433 9.092411 -4.285579 0
M  V30 4 C 12.234836 7.239939 -3.049274 0
M  V30 5 C 12.580459 6.275917 -1.946741 0
M  V30 6 C 12.521467 8.633404 -3.103581 0
M  V30 7 H 11.148906 6.068787 -4.645298 0
M  V30 8 H 11.993093 10.061125 -4.762493 0
M  V30 9 H 13.034839 6.802190 -1.108732 0
M  V30 10 H 11.682924 5.769573 -1.591369 0
M  V30 11 H 13.287676 5.523025 -2.291690 0
M  V30 12 H 13.034827 9.229444 -2.362692 0
M  V30 END ATOM
M  V30 BEGIN BOND
M  V30 1 1 2 1
M  V30 2 1 3 1
M  V30 3 2 4 2
M  V30 4 1 5 4
M  V30 5 2 6 3
M  V30 6 1 6 4
M  V30 7 1 7 2
M  V30 8 1 8 3
M  V30 9 1 9 5
M  V30 10 1 10 5
M  V30 11 1 11 5
M  V30 12 1 12 6
M  V30 END BOND
M  V30 END CTAB
M  END
>  <i_epik_Tot_Q>  (1) 
0

>  <i_epik_Tot_abs_Q>  (1) 
0

>  <i_i_glide_confnum>  (1) 
1

>  <i_i_glide_lignum>  (1) 
12

>  <i_i_glide_posenum>  (1) 
21

>  <i_i_glide_rotatable_bonds>  (1) 
0

>  <i_lp_mmshare_version>  (1) 
72125

>  <i_m_source_file_index>  (1) 
10

>  <i_f3d_flags>  (1) 
0

>  <num_sample>  (1) 
50

>  <b_lp_Chiralities_Consistent>  (1) 
1

>  <r_epik_Charging_Adjusted_Penalty>  (1) 
0

>  <r_epik_Ionization_Penalty>  (1) 
0

>  <r_epik_Ionization_Penalty_Charging>  (1) 
0

>  <r_epik_Ionization_Penalty_Neutral>  (1) 
0

>  <r_epik_State_Penalty>  (1) 
-0

>  <r_glide_ring_energy>  (1) 
0

>  <r_i_docking_score>  (1) 
-4.5917295816888997

>  <r_i_glide_ecoul>  (1) 
-0.9936382798366431

>  <r_i_glide_eff_state_penalty>  (1) 
-0

>  <r_i_glide_einternal>  (1) 
0

>  <r_i_glide_emodel>  (1) 
-18.630495387614822

>  <r_i_glide_emodel_strain>  (1) 
7.3823662240179999e-05

>  <r_i_glide_energy>  (1) 
-14.379309607263004

>  <r_i_glide_erotb>  (1) 
0

>  <r_i_glide_esite>  (1) 
0

>  <r_i_glide_evdw>  (1) 
-13.38567132742636

>  <r_i_glide_gscore>  (1) 
-4.5917295816888997

>  <r_i_glide_gscore_strain>  (1) 
0

>  <r_i_glide_hbond>  (1) 
0

>  <r_i_glide_ligand_efficiency>  (1) 
-0.76528826361481661

>  <r_i_glide_ligand_efficiency_ln>  (1) 
-1.6447439803825763

>  <r_i_glide_ligand_efficiency_sa>  (1) 
-1.3906210632672344

>  <r_i_glide_lipo>  (1) 
-1.2823514530446836

>  <r_i_glide_metal>  (1) 
-0

>  <r_i_glide_rewards>  (1) 
-2.4910488202974022

>  <r_lp_Energy>  (1) 
-1.206345

>  <r_lp_tautomer_probability>  (1) 
1

>  <s_epik_cmdline>  (1) 
J2VwaWtfcHl0aG9uJywgJy1waHQnLCAnMS4wJywgJy1waCcsICc3LjQnLCAnLXRuJywgJzgnLCAnLW1hJywgJzUwMCcsICctaW1hZScsICc8aW5maWxlLm1hZT4nLCAnLW9tYWUnLCAnPG91dGZpbGUubWFlPic=

>  <s_epik_input>  (1) 
W2NIXTFbY0hdb1tjSF1jMVtDSDNd

>  <s_glide_docking_method>  (1) 
confgen

>  <s_i_glide_gridfile>  (1) 
gpcr_drd2_6luq_protein_autoprepared_prepared

>  <s_lp_Force_Field>  (1) 
S-OPLS

>  <s_lp_Variant>  (1) 
Pocket2Mol_9_num_sample_50-1

>  <s_m_source_file>  (1) 
generated__ligand_Pocket2Mol_2026-05-06_prepared.sdf

>  <GenAI_Model>  (1) 
Pocket2Mol

>  <Protein>  (1) 
generic_title2

$$$$
Pocket2Mol_22_num_sample_50
     RDKit          3D

  0  0  0  0  0  0  0  0  0  0999 V3000
M  V30 BEGIN CTAB
M  V30 COUNTS 11 11 0 0 1
M  V30 BEGIN ATOM
M  V30 1 N 11.434839 8.464790 -6.684278 0
M  V30 2 C 11.754744 8.436471 -8.001601 0
M  V30 3 C 10.989625 7.760278 -8.970977 0
M  V30 4 C 10.320132 7.792860 -6.305489 0
M  V30 5 C 9.493908 7.090285 -7.202813 0
M  V30 6 F 11.363290 7.769334 -10.273144 0
M  V30 7 C 9.834839 7.075529 -8.564102 0
M  V30 8 H 12.649165 8.969301 -8.288164 0
M  V30 9 H 10.081743 7.819094 -5.253399 0
M  V30 10 H 8.611462 6.574294 -6.851197 0
M  V30 11 H 9.222609 6.548220 -9.281260 0
M  V30 END ATOM
M  V30 BEGIN BOND
M  V30 1 2 2 1
M  V30 2 1 3 2
M  V30 3 1 4 1
M  V30 4 2 5 4
M  V30 5 1 6 3
M  V30 6 2 7 3
M  V30 7 1 7 5
M  V30 8 1 8 2
M  V30 9 1 9 4
M  V30 10 1 10 5
M  V30 11 1 11 7
M  V30 END BOND
M  V30 END CTAB
M  END
>  <i_epik_Tot_Q>  (1) 
0

>  <i_epik_Tot_abs_Q>  (1) 
0

>  <i_i_glide_confnum>  (1) 
1

>  <i_i_glide_lignum>  (1) 
26

>  <i_i_glide_posenum>  (1) 
34

>  <i_i_glide_rotatable_bonds>  (1) 
0

>  <i_lp_mmshare_version>  (1) 
72125

>  <i_m_source_file_index>  (1) 
23

>  <i_f3d_flags>  (1) 
0

>  <num_sample>  (1) 
50

>  <b_lp_Chiralities_Consistent>  (1) 
1

>  <r_epik_Charging_Adjusted_Penalty>  (1) 
0

>  <r_epik_Ionization_Penalty>  (1) 
7.3223601380878174e-05

>  <r_epik_Ionization_Penalty_Charging>  (1) 
0

>  <r_epik_Ionization_Penalty_Neutral>  (1) 
7.3223601380878174e-05

>  <r_epik_State_Penalty>  (1) 
-0

>  <r_glide_ring_energy>  (1) 
0

>  <r_i_docking_score>  (1) 
-4.5780588438073764

>  <r_i_glide_ecoul>  (1) 
-1.6529960466317291

>  <r_i_glide_eff_state_penalty>  (1) 
-0

>  <r_i_glide_einternal>  (1) 
0

>  <r_i_glide_emodel>  (1) 
-20.367785153118799

>  <r_i_glide_emodel_strain>  (1) 
0

>  <r_i_glide_energy>  (1) 
-15.651792267288819

>  <r_i_glide_erotb>  (1) 
0

>  <r_i_glide_esite>  (1) 
0

>  <r_i_glide_evdw>  (1) 
-13.99879622065709

>  <r_i_glide_gscore>  (1) 
-4.5780588438073764

>  <r_i_glide_gscore_strain>  (1) 
0

>  <r_i_glide_hbond>  (1) 
0

>  <r_i_glide_ligand_efficiency>  (1) 
-0.65400840625819667

>  <r_i_glide_ligand_efficiency_ln>  (1) 
-1.5540388579996087

>  <r_i_glide_ligand_efficiency_sa>  (1) 
-1.2510730741265772

>  <r_i_glide_lipo>  (1) 
-0.57124978153620054

>  <r_i_glide_metal>  (1) 
-0

>  <r_i_glide_rewards>  (1) 
-3.0589198442435621

>  <r_lp_Energy>  (1) 
10.789624

>  <r_lp_tautomer_probability>  (1) 
1

>  <s_epik_cmdline>  (1) 
J2VwaWtfcHl0aG9uJywgJy1waHQnLCAnMS4wJywgJy1waCcsICc3LjQnLCAnLXRuJywgJzgnLCAnLW1hJywgJzUwMCcsICctaW1hZScsICc8aW5maWxlLm1hZT4nLCAnLW9tYWUnLCAnPG91dGZpbGUubWFlPic=

>  <s_epik_input>  (1) 
W2NIXTFbY0hdW2NIXW5bY0hdYzFG

>  <s_glide_docking_method>  (1) 
confgen

>  <s_i_glide_gridfile>  (1) 
gpcr_drd2_6luq_protein_autoprepared_prepared

>  <s_lp_Force_Field>  (1) 
S-OPLS

>  <s_lp_Variant>  (1) 
Pocket2Mol_22_num_sample_50-1

>  <s_m_source_file>  (1) 
generated__ligand_Pocket2Mol_2026-05-06_prepared.sdf

>  <GenAI_Model>  (1) 
Pocket2Mol

>  <Protein>  (1) 
generic_title2

$$$$
Pocket2Mol_39_num_sample_50
     RDKit          3D

  0  0  0  0  0  0  0  0  0  0999 V3000
M  V30 BEGIN CTAB
M  V30 COUNTS 14 14 0 0 1
M  V30 BEGIN ATOM
M  V30 1 C 10.373908 7.310075 -8.863297 0
M  V30 2 O 9.434839 7.902343 -7.980664 0
M  V30 3 C 9.955593 8.569335 -6.900238 0
M  V30 4 C 11.581905 8.229379 -9.034343 0
M  V30 5 O 12.154865 8.465033 -7.758375 0
M  V30 6 C 11.275095 8.846510 -6.767095 0
M  V30 7 C 11.859428 9.604630 -5.537782 0
M  V30 8 O 13.097477 9.769324 -5.538287 0 CHG=-1
M  V30 9 O 11.034544 9.973886 -4.674127 0
M  V30 10 H 9.894344 7.127478 -9.823863 0
M  V30 11 H 10.681505 6.341476 -8.466968 0
M  V30 12 H 9.197061 8.837089 -6.179906 0
M  V30 13 H 11.289050 9.176203 -9.491338 0
M  V30 14 H 12.326602 7.769668 -9.684700 0
M  V30 END ATOM
M  V30 BEGIN BOND
M  V30 1 1 2 1
M  V30 2 1 3 2
M  V30 3 1 4 1
M  V30 4 1 5 4
M  V30 5 2 6 3
M  V30 6 1 6 5
M  V30 7 1 7 6
M  V30 8 1 8 7
M  V30 9 2 9 7
M  V30 10 1 10 1
M  V30 11 1 11 1
M  V30 12 1 12 3
M  V30 13 1 13 4
M  V30 14 1 14 4
M  V30 END BOND
M  V30 END CTAB
M  END
>  <i_epik_Tot_Q>  (1) 
-1

>  <i_epik_Tot_abs_Q>  (1) 
1

>  <i_i_glide_confnum>  (1) 
1

>  <i_i_glide_lignum>  (1) 
44

>  <i_i_glide_posenum>  (1) 
342

>  <i_i_glide_rotatable_bonds>  (1) 
1

>  <i_lp_mmshare_version>  (1) 
72125

>  <i_m_source_file_index>  (1) 
40

>  <i_f3d_flags>  (1) 
0

>  <num_sample>  (1) 
50

>  <b_lp_Chiralities_Consistent>  (1) 
1

>  <r_epik_Charging_Adjusted_Penalty>  (1) 
1.9393830553820406e-05

>  <r_epik_Ionization_Penalty>  (1) 
1.9393830553820406e-05

>  <r_epik_Ionization_Penalty_Charging>  (1) 
1.9393830553820406e-05

>  <r_epik_Ionization_Penalty_Neutral>  (1) 
0

>  <r_epik_State_Penalty>  (1) 
-0

>  <r_glide_ring_energy>  (1) 
0

>  <r_i_docking_score>  (1) 
-4.5674564346890536

>  <r_i_glide_ecoul>  (1) 
-0.51265054820532097

>  <r_i_glide_eff_state_penalty>  (1) 
-0

>  <r_i_glide_einternal>  (1) 
0.034613170516817782

>  <r_i_glide_emodel>  (1) 
-23.560094695278707

>  <r_i_glide_emodel_strain>  (1) 
0

>  <r_i_glide_energy>  (1) 
-16.90680744829103

>  <r_i_glide_erotb>  (1) 
0

>  <r_i_glide_esite>  (1) 
0

>  <r_i_glide_evdw>  (1) 
-16.394156900085708

>  <r_i_glide_gscore>  (1) 
-4.5674564346890536

>  <r_i_glide_gscore_strain>  (1) 
0

>  <r_i_glide_hbond>  (1) 
0

>  <r_i_glide_ligand_efficiency>  (1) 
-0.50749515940989487

>  <r_i_glide_ligand_efficiency_ln>  (1) 
-1.4285691618492586

>  <r_i_glide_ligand_efficiency_sa>  (1) 
-1.0556324713656697

>  <r_i_glide_lipo>  (1) 
-0.57918434078730352

>  <r_i_glide_metal>  (1) 
-0

>  <r_i_glide_rewards>  (1) 
-3.0916666666666668

>  <r_lp_Energy>  (1) 
18.695968999999998

>  <r_lp_tautomer_probability>  (1) 
1

>  <s_epik_cmdline>  (1) 
J2VwaWtfcHl0aG9uJywgJy1waHQnLCAnMS4wJywgJy1waCcsICc3LjQnLCAnLXRuJywgJzgnLCAnLW1hJywgJzUwMCcsICctaW1hZScsICc8aW5maWxlLm1hZT4nLCAnLW9tYWUnLCAnPG91dGZpbGUubWFlPic=

>  <s_epik_input>  (1) 
TzFbQ0gyXVtDSDJdT1tDSF09QzFDKD1PKVtPSF0=

>  <s_glide_docking_method>  (1) 
confgen

>  <s_i_glide_gridfile>  (1) 
gpcr_drd2_6luq_protein_autoprepared_prepared

>  <s_lp_Force_Field>  (1) 
S-OPLS

>  <s_lp_Variant>  (1) 
Pocket2Mol_39_num_sample_50-1

>  <s_m_source_file>  (1) 
generated__ligand_Pocket2Mol_2026-05-06_prepared.sdf

>  <GenAI_Model>  (1) 
Pocket2Mol

>  <Protein>  (1) 
generic_title2

$$$$
Pocket2Mol_6_num_sample_50
     RDKit          3D

  0  0  0  0  0  0  0  0  0  0999 V3000
M  V30 BEGIN CTAB
M  V30 COUNTS 11 11 0 0 1
M  V30 BEGIN ATOM
M  V30 1 N 11.897388 9.558300 -4.555080 0
M  V30 2 C 11.141990 9.249830 -5.635501 0
M  V30 3 C 10.692365 7.946064 -5.920922 0
M  V30 4 C 11.043080 6.906143 -5.047554 0
M  V30 5 C 11.834893 7.208679 -3.924700 0
M  V30 6 C 12.234832 8.544825 -3.722673 0
M  V30 7 H 10.888915 10.069680 -6.291667 0
M  V30 8 H 10.089604 7.749446 -6.796599 0
M  V30 9 H 10.714787 5.894928 -5.235042 0
M  V30 10 H 12.131016 6.433037 -3.232163 0
M  V30 11 H 12.850595 8.807674 -2.873230 0
M  V30 END ATOM
M  V30 BEGIN BOND
M  V30 1 2 2 1
M  V30 2 1 3 2
M  V30 3 2 4 3
M  V30 4 1 5 4
M  V30 5 1 6 1
M  V30 6 2 6 5
M  V30 7 1 7 2
M  V30 8 1 8 3
M  V30 9 1 9 4
M  V30 10 1 10 5
M  V30 11 1 11 6
M  V30 END BOND
M  V30 END CTAB
M  END
>  <i_epik_Tot_Q>  (1) 
0

>  <i_epik_Tot_abs_Q>  (1) 
0

>  <i_i_glide_confnum>  (1) 
1

>  <i_i_glide_lignum>  (1) 
7

>  <i_i_glide_posenum>  (1) 
289

>  <i_i_glide_rotatable_bonds>  (1) 
0

>  <i_lp_mmshare_version>  (1) 
72125

>  <i_m_source_file_index>  (1) 
7

>  <i_f3d_flags>  (1) 
0

>  <num_sample>  (1) 
50

>  <b_lp_Chiralities_Consistent>  (1) 
1

>  <r_epik_Charging_Adjusted_Penalty>  (1) 
0

>  <r_epik_Ionization_Penalty>  (1) 
0.0028947865417402485

>  <r_epik_Ionization_Penalty_Charging>  (1) 
0

>  <r_epik_Ionization_Penalty_Neutral>  (1) 
0.0028947865417402485

>  <r_epik_State_Penalty>  (1) 
-0

>  <r_glide_ring_energy>  (1) 
0

>  <r_i_docking_score>  (1) 
-4.5670164581395625

>  <r_i_glide_ecoul>  (1) 
-1.1850230215181687

>  <r_i_glide_eff_state_penalty>  (1) 
-0

>  <r_i_glide_einternal>  (1) 
0

>  <r_i_glide_emodel>  (1) 
-19.164481098599882

>  <r_i_glide_emodel_strain>  (1) 
0

>  <r_i_glide_energy>  (1) 
-14.775264125979614

>  <r_i_glide_erotb>  (1) 
0

>  <r_i_glide_esite>  (1) 
0

>  <r_i_glide_evdw>  (1) 
-13.590241104461445

>  <r_i_glide_gscore>  (1) 
-4.5670164581395625

>  <r_i_glide_gscore_strain>  (1) 
0

>  <r_i_glide_hbond>  (1) 
0

>  <r_i_glide_ligand_efficiency>  (1) 
-0.76116940968992708

>  <r_i_glide_ligand_efficiency_ln>  (1) 
-1.6358918124856869

>  <r_i_glide_ligand_efficiency_sa>  (1) 
-1.3831366089814503

>  <r_i_glide_lipo>  (1) 
-1.3332654760762164

>  <r_i_glide_metal>  (1) 
-0

>  <r_i_glide_rewards>  (1) 
-2.3764854736125485

>  <r_lp_Energy>  (1) 
11.088944

>  <r_lp_tautomer_probability>  (1) 
1

>  <s_epik_cmdline>  (1) 
J2VwaWtfcHl0aG9uJywgJy1waHQnLCAnMS4wJywgJy1waCcsICc3LjQnLCAnLXRuJywgJzgnLCAnLW1hJywgJzUwMCcsICctaW1hZScsICc8aW5maWxlLm1hZT4nLCAnLW9tYWUnLCAnPG91dGZpbGUubWFlPic=

>  <s_epik_input>  (1) 
bjFbY0hdW2NIXVtjSF1bY0hdW2NIXTE=

>  <s_glide_docking_method>  (1) 
confgen

>  <s_i_glide_gridfile>  (1) 
gpcr_drd2_6luq_protein_autoprepared_prepared

>  <s_lp_Force_Field>  (1) 
S-OPLS

>  <s_lp_Variant>  (1) 
Pocket2Mol_6_num_sample_50-1

>  <s_m_source_file>  (1) 
generated__ligand_Pocket2Mol_2026-05-06_prepared.sdf

>  <GenAI_Model>  (1) 
Pocket2Mol

>  <Protein>  (1) 
generic_title2

$$$$
Pocket2Mol_13_num_sample_50
     RDKit          3D

  0  0  0  0  0  0  0  0  0  0999 V3000
M  V30 BEGIN CTAB
M  V30 COUNTS 17 17 0 0 1
M  V30 BEGIN ATOM
M  V30 1 C 11.055770 8.569271 -7.017634 0
M  V30 2 O 10.602005 7.409635 -6.327970 0
M  V30 3 C 9.436353 6.838544 -6.917949 0
M  V30 4 C 9.768338 6.349508 -8.339357 0 CFG=1
M  V30 5 O 8.634878 5.769279 -8.952738 0
M  V30 6 C 11.441240 8.214382 -8.464973 0
M  V30 7 C 10.276123 7.524060 -9.186940 0
M  V30 8 H 10.280443 9.335607 -6.994445 0
M  V30 9 H 11.917946 8.978462 -6.490385 0
M  V30 10 H 8.634829 7.577050 -6.931028 0
M  V30 11 H 9.095460 6.011512 -6.295990 0
M  V30 12 H 10.541339 5.582442 -8.277251 0
M  V30 13 H 7.977352 6.453789 -9.091667 0
M  V30 14 H 11.743300 9.111417 -9.006967 0
M  V30 15 H 12.305552 7.551135 -8.453198 0
M  V30 16 H 10.589417 7.178985 -10.172745 0
M  V30 17 H 9.469494 8.242131 -9.346301 0
M  V30 END ATOM
M  V30 BEGIN BOND
M  V30 1 1 2 1
M  V30 2 1 3 2
M  V30 3 1 4 3
M  V30 4 1 5 4
M  V30 5 1 6 1
M  V30 6 1 7 4
M  V30 7 1 7 6
M  V30 8 1 8 1
M  V30 9 1 9 1
M  V30 10 1 10 3
M  V30 11 1 11 3
M  V30 12 1 4 12 CFG=1
M  V30 13 1 13 5
M  V30 14 1 14 6
M  V30 15 1 15 6
M  V30 16 1 16 7
M  V30 17 1 17 7
M  V30 END BOND
M  V30 END CTAB
M  END
>  <i_epik_Tot_Q>  (1) 
0

>  <i_epik_Tot_abs_Q>  (1) 
0

>  <i_i_glide_confnum>  (1) 
1

>  <i_i_glide_lignum>  (1) 
16

>  <i_i_glide_posenum>  (1) 
246

>  <i_i_glide_rotatable_bonds>  (1) 
1

>  <i_lp_mmshare_version>  (1) 
72125

>  <i_m_source_file_index>  (1) 
14

>  <i_f3d_flags>  (1) 
0

>  <num_sample>  (1) 
50

>  <b_lp_Chiralities_Consistent>  (1) 
1

>  <r_epik_Charging_Adjusted_Penalty>  (1) 
0

>  <r_epik_Ionization_Penalty>  (1) 
4.2263924331700322e-08

>  <r_epik_Ionization_Penalty_Charging>  (1) 
0

>  <r_epik_Ionization_Penalty_Neutral>  (1) 
4.2263924331700322e-08

>  <r_epik_State_Penalty>  (1) 
-0

>  <r_glide_ring_energy>  (1) 
0

>  <r_i_docking_score>  (1) 
-4.560025697248558

>  <r_i_glide_ecoul>  (1) 
-3.4348997661383782

>  <r_i_glide_eff_state_penalty>  (1) 
-0

>  <r_i_glide_einternal>  (1) 
0.026917370779046323

>  <r_i_glide_emodel>  (1) 
-24.306256123554672

>  <r_i_glide_emodel_strain>  (1) 
0

>  <r_i_glide_energy>  (1) 
-18.277582624865257

>  <r_i_glide_erotb>  (1) 
0

>  <r_i_glide_esite>  (1) 
0

>  <r_i_glide_evdw>  (1) 
-14.842682858726878

>  <r_i_glide_gscore>  (1) 
-4.560025697248558

>  <r_i_glide_gscore_strain>  (1) 
0

>  <r_i_glide_hbond>  (1) 
-0.16

>  <r_i_glide_ligand_efficiency>  (1) 
-0.65143224246407971

>  <r_i_glide_ligand_efficiency_ln>  (1) 
-1.5479174402894993

>  <r_i_glide_ligand_efficiency_sa>  (1) 
-1.2461450500728819

>  <r_i_glide_lipo>  (1) 
-0.45098992272479088

>  <r_i_glide_metal>  (1) 
-0

>  <r_i_glide_rewards>  (1) 
-2.6916666666666669

>  <r_lp_Energy>  (1) 
6.7642049999999996

>  <r_lp_tautomer_probability>  (1) 
1

>  <s_epik_cmdline>  (1) 
J2VwaWtfcHl0aG9uJywgJy1waHQnLCAnMS4wJywgJy1waCcsICc3LjQnLCAnLXRuJywgJzgnLCAnLW1hJywgJzUwMCcsICctaW1hZScsICc8aW5maWxlLm1hZT4nLCAnLW9tYWUnLCAnPG91dGZpbGUubWFlPic=

>  <s_epik_input>  (1) 
W0NIMl0xW0NIMl1bQ0gyXU9bQ0gyXVtDQEhdMVtPSF0=

>  <s_glide_docking_method>  (1) 
confgen

>  <s_i_glide_gridfile>  (1) 
gpcr_drd2_6luq_protein_autoprepared_prepared

>  <s_lp_Force_Field>  (1) 
S-OPLS

>  <s_lp_Variant>  (1) 
Pocket2Mol_13_num_sample_50-1

>  <s_m_source_file>  (1) 
generated__ligand_Pocket2Mol_2026-05-06_prepared.sdf

>  <GenAI_Model>  (1) 
Pocket2Mol

>  <Protein>  (1) 
generic_title2

$$$$
Pocket2Mol_20_num_sample_50
     RDKit          3D

  0  0  0  0  0  0  0  0  0  0999 V3000
M  V30 BEGIN CTAB
M  V30 COUNTS 12 12 0 0 1
M  V30 BEGIN ATOM
M  V30 1 N 10.987758 8.289291 -6.241262 0
M  V30 2 C 11.033386 7.119095 -5.571355 0
M  V30 3 C 11.578682 7.016533 -4.288834 0
M  V30 4 C 12.084661 8.187763 -3.716791 0
M  V30 5 N 12.633318 8.169301 -2.441388 0
M  V30 6 N 12.055126 9.369294 -4.358255 0
M  V30 7 C 11.499668 9.338882 -5.580881 0
M  V30 8 H 10.624635 6.253204 -6.071228 0
M  V30 9 H 11.604499 6.072902 -3.763582 0
M  V30 10 H 12.661575 7.324162 -1.891974 0
M  V30 11 H 12.978876 9.014493 -2.005809 0
M  V30 12 H 11.461896 10.284190 -6.102027 0
M  V30 END ATOM
M  V30 BEGIN BOND
M  V30 1 1 2 1
M  V30 2 2 3 2
M  V30 3 1 4 3
M  V30 4 1 5 4
M  V30 5 2 6 4
M  V30 6 2 7 1
M  V30 7 1 7 6
M  V30 8 1 8 2
M  V30 9 1 9 3
M  V30 10 1 10 5
M  V30 11 1 11 5
M  V30 12 1 12 7
M  V30 END BOND
M  V30 END CTAB
M  END
>  <i_epik_Tot_Q>  (1) 
0

>  <i_epik_Tot_abs_Q>  (1) 
0

>  <i_i_glide_confnum>  (1) 
1

>  <i_i_glide_lignum>  (1) 
24

>  <i_i_glide_posenum>  (1) 
131

>  <i_i_glide_rotatable_bonds>  (1) 
0

>  <i_lp_mmshare_version>  (1) 
72125

>  <i_m_source_file_index>  (1) 
21

>  <i_f3d_flags>  (1) 
0

>  <num_sample>  (1) 
50

>  <b_lp_Chiralities_Consistent>  (1) 
1

>  <r_epik_Charging_Adjusted_Penalty>  (1) 
0.011441366301234922

>  <r_epik_Ionization_Penalty>  (1) 
0.011523414685131987

>  <r_epik_Ionization_Penalty_Charging>  (1) 
0

>  <r_epik_Ionization_Penalty_Neutral>  (1) 
0.011523414685131987

>  <r_epik_State_Penalty>  (1) 
0.011441366301234922

>  <r_glide_ring_energy>  (1) 
0

>  <r_i_docking_score>  (1) 
-4.5514163705385844

>  <r_i_glide_ecoul>  (1) 
-1.4018089157711109

>  <r_i_glide_eff_state_penalty>  (1) 
0.011441366301234922

>  <r_i_glide_einternal>  (1) 
0

>  <r_i_glide_emodel>  (1) 
-23.51591512774376

>  <r_i_glide_emodel_strain>  (1) 
0

>  <r_i_glide_energy>  (1) 
-18.078142843373158

>  <r_i_glide_erotb>  (1) 
0

>  <r_i_glide_esite>  (1) 
0

>  <r_i_glide_evdw>  (1) 
-16.676333927602048

>  <r_i_glide_gscore>  (1) 
-4.5628577368398195

>  <r_i_glide_gscore_strain>  (1) 
0

>  <r_i_glide_hbond>  (1) 
0

>  <r_i_glide_ligand_efficiency>  (1) 
-0.65020233864836918

>  <r_i_glide_ligand_efficiency_ln>  (1) 
-1.5449949727754326

>  <r_i_glide_ligand_efficiency_sa>  (1) 
-1.2437923287119985

>  <r_i_glide_lipo>  (1) 
-0.81876970309405084

>  <r_i_glide_metal>  (1) 
-0

>  <r_i_glide_rewards>  (1) 
-2.7000000000000002

>  <r_lp_Energy>  (1) 
9.3523319999999988

>  <r_lp_tautomer_probability>  (1) 
0.9999995832001739

>  <s_epik_cmdline>  (1) 
J2VwaWtfcHl0aG9uJywgJy1waHQnLCAnMS4wJywgJy1waCcsICc3LjQnLCAnLXRuJywgJzgnLCAnLW1hJywgJzUwMCcsICctaW1hZScsICc8aW5maWxlLm1hZT4nLCAnLW9tYWUnLCAnPG91dGZpbGUubWFlPic=

>  <s_epik_input>  (1) 
bjFbY0hdbltjSF1bY0hdYzFbTkgyXQ==

>  <s_glide_docking_method>  (1) 
confgen

>  <s_i_glide_gridfile>  (1) 
gpcr_drd2_6luq_protein_autoprepared_prepared

>  <s_lp_Force_Field>  (1) 
S-OPLS

>  <s_lp_Variant>  (1) 
Pocket2Mol_20_num_sample_50-1

>  <s_m_source_file>  (1) 
generated__ligand_Pocket2Mol_2026-05-06_prepared.sdf

>  <GenAI_Model>  (1) 
Pocket2Mol

>  <Protein>  (1) 
generic_title2

$$$$
Pocket2Mol_20_num_sample_50
     RDKit          3D

  0  0  0  0  0  0  0  0  0  0999 V3000
M  V30 BEGIN CTAB
M  V30 COUNTS 12 12 0 0 1
M  V30 BEGIN ATOM
M  V30 1 N 11.834844 8.153150 -4.289680 0
M  V30 2 C 11.303416 7.007455 -4.766004 0
M  V30 3 C 10.619260 6.955038 -5.980951 0
M  V30 4 C 10.506448 8.144065 -6.700780 0
M  V30 5 N 9.834815 8.169308 -7.914665 0
M  V30 6 N 11.034839 9.302768 -6.261238 0
M  V30 7 C 11.662625 9.225978 -5.078209 0
M  V30 8 H 11.425095 6.122435 -4.158835 0
M  V30 9 H 10.192908 6.032332 -6.345766 0
M  V30 10 H 9.307079 7.368564 -8.235767 0
M  V30 11 H 9.662569 9.039556 -8.393601 0
M  V30 12 H 12.084900 10.149594 -4.711426 0
M  V30 END ATOM
M  V30 BEGIN BOND
M  V30 1 1 2 1
M  V30 2 2 3 2
M  V30 3 1 4 3
M  V30 4 1 5 4
M  V30 5 2 6 4
M  V30 6 2 7 1
M  V30 7 1 7 6
M  V30 8 1 8 2
M  V30 9 1 9 3
M  V30 10 1 10 5
M  V30 11 1 11 5
M  V30 12 1 12 7
M  V30 END BOND
M  V30 END CTAB
M  END
>  <i_epik_Tot_Q>  (1) 
0

>  <i_epik_Tot_abs_Q>  (1) 
0

>  <i_i_glide_confnum>  (1) 
1

>  <i_i_glide_lignum>  (1) 
24

>  <i_i_glide_posenum>  (1) 
10

>  <i_i_glide_rotatable_bonds>  (1) 
0

>  <i_lp_mmshare_version>  (1) 
72125

>  <i_m_source_file_index>  (1) 
21

>  <i_f3d_flags>  (1) 
0

>  <num_sample>  (1) 
50

>  <b_lp_Chiralities_Consistent>  (1) 
1

>  <r_epik_Charging_Adjusted_Penalty>  (1) 
0.011441366301234922

>  <r_epik_Ionization_Penalty>  (1) 
0.011523414685131987

>  <r_epik_Ionization_Penalty_Charging>  (1) 
0

>  <r_epik_Ionization_Penalty_Neutral>  (1) 
0.011523414685131987

>  <r_epik_State_Penalty>  (1) 
0.011441366301234922

>  <r_glide_ring_energy>  (1) 
0

>  <r_i_docking_score>  (1) 
-4.5498971145131799

>  <r_i_glide_ecoul>  (1) 
-1.720221887115494

>  <r_i_glide_eff_state_penalty>  (1) 
0.011441366301234922

>  <r_i_glide_einternal>  (1) 
0

>  <r_i_glide_emodel>  (1) 
-22.745624310302574

>  <r_i_glide_emodel_strain>  (1) 
0

>  <r_i_glide_energy>  (1) 
-17.309662594830733

>  <r_i_glide_erotb>  (1) 
0

>  <r_i_glide_esite>  (1) 
-0.067536439331876585

>  <r_i_glide_evdw>  (1) 
-15.589440707715239

>  <r_i_glide_gscore>  (1) 
-4.5613384808144151

>  <r_i_glide_gscore_strain>  (1) 
0

>  <r_i_glide_hbond>  (1) 
0

>  <r_i_glide_ligand_efficiency>  (1) 
-0.6499853020733114

>  <r_i_glide_ligand_efficiency_ln>  (1) 
-1.544479255747915

>  <r_i_glide_ligand_efficiency_sa>  (1) 
-1.2433771526797683

>  <r_i_glide_lipo>  (1) 
-0.75629672302945239

>  <r_i_glide_metal>  (1) 
-0

>  <r_i_glide_rewards>  (1) 
-2.7000000000000002

>  <r_lp_Energy>  (1) 
9.3523319999999988

>  <r_lp_tautomer_probability>  (1) 
0.9999995832001739

>  <s_epik_cmdline>  (1) 
J2VwaWtfcHl0aG9uJywgJy1waHQnLCAnMS4wJywgJy1waCcsICc3LjQnLCAnLXRuJywgJzgnLCAnLW1hJywgJzUwMCcsICctaW1hZScsICc8aW5maWxlLm1hZT4nLCAnLW9tYWUnLCAnPG91dGZpbGUubWFlPic=

>  <s_epik_input>  (1) 
bjFbY0hdbltjSF1bY0hdYzFbTkgyXQ==

>  <s_glide_docking_method>  (1) 
confgen

>  <s_i_glide_gridfile>  (1) 
gpcr_drd2_6luq_protein_autoprepared_prepared

>  <s_lp_Force_Field>  (1) 
S-OPLS

>  <s_lp_Variant>  (1) 
Pocket2Mol_20_num_sample_50-1

>  <s_m_source_file>  (1) 
generated__ligand_Pocket2Mol_2026-05-06_prepared.sdf

>  <GenAI_Model>  (1) 
Pocket2Mol

>  <Protein>  (1) 
generic_title2

$$$$
Pocket2Mol_18_num_sample_50
     RDKit          3D

  0  0  0  0  0  0  0  0  0  0999 V3000
M  V30 BEGIN CTAB
M  V30 COUNTS 14 14 0 0 1
M  V30 BEGIN ATOM
M  V30 1 N 10.765171 8.569015 -6.296157 0 CHG=1
M  V30 2 C 11.414419 9.463415 -5.518883 0
M  V30 3 C 11.969537 9.053058 -4.288841 0
M  V30 4 C 11.834840 7.704133 -3.891708 0
M  V30 5 N 12.367303 7.270228 -2.680378 0
M  V30 6 C 11.151413 6.802336 -4.735573 0
M  V30 7 C 10.617345 7.272124 -5.952879 0
M  V30 8 H 11.467478 10.473583 -5.899310 0
M  V30 9 H 12.488748 9.760986 -3.659049 0
M  V30 10 H 12.139866 6.352684 -2.321716 0
M  V30 11 H 12.717121 7.935261 -2.004927 0
M  V30 12 H 11.034860 5.769302 -4.451907 0
M  V30 13 H 10.076391 6.652585 -6.656012 0
M  V30 14 H 10.367369 8.887098 -7.182432 0
M  V30 END ATOM
M  V30 BEGIN BOND
M  V30 1 1 2 1
M  V30 2 2 3 2
M  V30 3 1 4 3
M  V30 4 1 5 4
M  V30 5 2 6 4
M  V30 6 2 7 1
M  V30 7 1 7 6
M  V30 8 1 8 2
M  V30 9 1 9 3
M  V30 10 1 10 5
M  V30 11 1 11 5
M  V30 12 1 12 6
M  V30 13 1 13 7
M  V30 14 1 14 1
M  V30 END BOND
M  V30 END CTAB
M  END
>  <i_epik_Tot_Q>  (1) 
1

>  <i_epik_Tot_abs_Q>  (1) 
1

>  <i_i_glide_confnum>  (1) 
1

>  <i_i_glide_lignum>  (1) 
21

>  <i_i_glide_posenum>  (1) 
48

>  <i_i_glide_rotatable_bonds>  (1) 
0

>  <i_lp_mmshare_version>  (1) 
72125

>  <i_m_source_file_index>  (1) 
19

>  <i_f3d_flags>  (1) 
0

>  <num_sample>  (1) 
50

>  <b_lp_Chiralities_Consistent>  (1) 
1

>  <r_epik_Charging_Adjusted_Penalty>  (1) 
0.023410508937706027

>  <r_epik_Ionization_Penalty>  (1) 
0.011711918016166721

>  <r_epik_Ionization_Penalty_Charging>  (1) 
0.011705254468853022

>  <r_epik_Ionization_Penalty_Neutral>  (1) 
6.6635473136990569e-06

>  <r_epik_State_Penalty>  (1) 
0.011705254468853005

>  <r_glide_ring_energy>  (1) 
0

>  <r_i_docking_score>  (1) 
-4.5465168070582456

>  <r_i_glide_ecoul>  (1) 
-1.504831394772169

>  <r_i_glide_eff_state_penalty>  (1) 
0.011705254468853005

>  <r_i_glide_einternal>  (1) 
0

>  <r_i_glide_emodel>  (1) 
-24.492375448997901

>  <r_i_glide_emodel_strain>  (1) 
0

>  <r_i_glide_energy>  (1) 
-15.985704422536561

>  <r_i_glide_erotb>  (1) 
0

>  <r_i_glide_esite>  (1) 
0

>  <r_i_glide_evdw>  (1) 
-14.480873027764392

>  <r_i_glide_gscore>  (1) 
-4.5582220615270987

>  <r_i_glide_gscore_strain>  (1) 
0

>  <r_i_glide_hbond>  (1) 
0

>  <r_i_glide_ligand_efficiency>  (1) 
-0.6495024010083208

>  <r_i_glide_ligand_efficiency_ln>  (1) 
-1.5433317979899048

>  <r_i_glide_ligand_efficiency_sa>  (1) 
-1.2424533961743538

>  <r_i_glide_lipo>  (1) 
-1.3584537009230531

>  <r_i_glide_metal>  (1) 
-0

>  <r_i_glide_rewards>  (1) 
-2.25

>  <r_lp_Energy>  (1) 
13.062742999999999

>  <r_lp_tautomer_probability>  (1) 
0.99999999993680011

>  <s_epik_cmdline>  (1) 
J2VwaWtfcHl0aG9uJywgJy1waHQnLCAnMS4wJywgJy1waCcsICc3LjQnLCAnLXRuJywgJzgnLCAnLW1hJywgJzUwMCcsICctaW1hZScsICc8aW5maWxlLm1hZT4nLCAnLW9tYWUnLCAnPG91dGZpbGUubWFlPic=

>  <s_epik_input>  (1) 
W2NIXTFbY0hdbltjSF1bY0hdYzFbTkgyXQ==

>  <s_glide_docking_method>  (1) 
confgen

>  <s_i_glide_gridfile>  (1) 
gpcr_drd2_6luq_protein_autoprepared_prepared

>  <s_lp_Force_Field>  (1) 
S-OPLS

>  <s_lp_Variant>  (1) 
Pocket2Mol_18_num_sample_50-1

>  <s_m_source_file>  (1) 
generated__ligand_Pocket2Mol_2026-05-06_prepared.sdf

>  <GenAI_Model>  (1) 
Pocket2Mol

>  <Protein>  (1) 
generic_title2

$$$$
Pocket2Mol_18_num_sample_50
     RDKit          3D

  0  0  0  0  0  0  0  0  0  0999 V3000
M  V30 BEGIN CTAB
M  V30 COUNTS 14 14 0 0 1
M  V30 BEGIN ATOM
M  V30 1 N 7.184349 5.769302 -11.091666 0 CHG=1
M  V30 2 C 8.440323 5.300323 -11.241549 0
M  V30 3 C 8.676649 4.169522 -12.050244 0
M  V30 4 C 7.584074 3.545767 -12.691670 0
M  V30 5 N 7.784641 2.423342 -13.491666 0
M  V30 6 C 6.285160 4.071281 -12.508931 0
M  V30 7 C 6.114922 5.204355 -11.686150 0
M  V30 8 H 9.213430 5.839692 -10.712762 0
M  V30 9 H 9.679124 3.786068 -12.175796 0
M  V30 10 H 6.994137 1.876764 -13.802682 0
M  V30 11 H 8.669738 1.936274 -13.469526 0
M  V30 12 H 5.434851 3.612052 -12.990114 0
M  V30 13 H 5.161618 5.671907 -11.486831 0
M  V30 14 H 7.034839 6.606755 -10.487895 0
M  V30 END ATOM
M  V30 BEGIN BOND
M  V30 1 1 2 1
M  V30 2 2 3 2
M  V30 3 1 4 3
M  V30 4 1 5 4
M  V30 5 2 6 4
M  V30 6 2 7 1
M  V30 7 1 7 6
M  V30 8 1 8 2
M  V30 9 1 9 3
M  V30 10 1 10 5
M  V30 11 1 11 5
M  V30 12 1 12 6
M  V30 13 1 13 7
M  V30 14 1 14 1
M  V30 END BOND
M  V30 END CTAB
M  END
>  <i_epik_Tot_Q>  (1) 
1

>  <i_epik_Tot_abs_Q>  (1) 
1

>  <i_i_glide_confnum>  (1) 
1

>  <i_i_glide_lignum>  (1) 
21

>  <i_i_glide_posenum>  (1) 
183

>  <i_i_glide_rotatable_bonds>  (1) 
0

>  <i_lp_mmshare_version>  (1) 
72125

>  <i_m_source_file_index>  (1) 
19

>  <i_f3d_flags>  (1) 
0

>  <num_sample>  (1) 
50

>  <b_lp_Chiralities_Consistent>  (1) 
1

>  <r_epik_Charging_Adjusted_Penalty>  (1) 
0.023410508937706027

>  <r_epik_Ionization_Penalty>  (1) 
0.011711918016166721

>  <r_epik_Ionization_Penalty_Charging>  (1) 
0.011705254468853022

>  <r_epik_Ionization_Penalty_Neutral>  (1) 
6.6635473136990569e-06

>  <r_epik_State_Penalty>  (1) 
0.011705254468853005

>  <r_glide_ring_energy>  (1) 
0

>  <r_i_docking_score>  (1) 
-4.5421484397539524

>  <r_i_glide_ecoul>  (1) 
-6.3456661685970417

>  <r_i_glide_eff_state_penalty>  (1) 
0.011705254468853005

>  <r_i_glide_einternal>  (1) 
0

>  <r_i_glide_emodel>  (1) 
-25.64188458939244

>  <r_i_glide_emodel_strain>  (1) 
0

>  <r_i_glide_energy>  (1) 
-17.1433659221358

>  <r_i_glide_erotb>  (1) 
0

>  <r_i_glide_esite>  (1) 
-0.10000000000000001

>  <r_i_glide_evdw>  (1) 
-10.797699753538758

>  <r_i_glide_gscore>  (1) 
-4.5538536942228056

>  <r_i_glide_gscore_strain>  (1) 
0

>  <r_i_glide_hbond>  (1) 
-0.20000000000000001

>  <r_i_glide_ligand_efficiency>  (1) 
-0.6488783485362789

>  <r_i_glide_ligand_efficiency_ln>  (1) 
-1.5418489396937365

>  <r_i_glide_ligand_efficiency_sa>  (1) 
-1.2412596267408986

>  <r_i_glide_lipo>  (1) 
-0.51211878125631116

>  <r_i_glide_metal>  (1) 
-0

>  <r_i_glide_rewards>  (1) 
-2.25

>  <r_lp_Energy>  (1) 
13.062742999999999

>  <r_lp_tautomer_probability>  (1) 
0.99999999993680011

>  <s_epik_cmdline>  (1) 
J2VwaWtfcHl0aG9uJywgJy1waHQnLCAnMS4wJywgJy1waCcsICc3LjQnLCAnLXRuJywgJzgnLCAnLW1hJywgJzUwMCcsICctaW1hZScsICc8aW5maWxlLm1hZT4nLCAnLW9tYWUnLCAnPG91dGZpbGUubWFlPic=

>  <s_epik_input>  (1) 
W2NIXTFbY0hdbltjSF1bY0hdYzFbTkgyXQ==

>  <s_glide_docking_method>  (1) 
confgen

>  <s_i_glide_gridfile>  (1) 
gpcr_drd2_6luq_protein_autoprepared_prepared

>  <s_lp_Force_Field>  (1) 
S-OPLS

>  <s_lp_Variant>  (1) 
Pocket2Mol_18_num_sample_50-1

>  <s_m_source_file>  (1) 
generated__ligand_Pocket2Mol_2026-05-06_prepared.sdf

>  <GenAI_Model>  (1) 
Pocket2Mol

>  <Protein>  (1) 
generic_title2

$$$$
Pocket2Mol_33_num_sample_50
     RDKit          3D

  0  0  0  0  0  0  0  0  0  0999 V3000
M  V30 BEGIN CTAB
M  V30 COUNTS 21 22 0 0 1
M  V30 BEGIN ATOM
M  V30 1 C 12.326735 8.471966 -8.126141 0
M  V30 2 O 11.773470 7.368730 -7.430589 0
M  V30 3 C 10.389441 7.285631 -7.758058 0 CFG=2
M  V30 4 C 9.582809 8.070063 -6.710973 0
M  V30 5 C 9.954482 5.831732 -7.891671 0
M  V30 6 C 11.661711 8.399878 -9.491668 0
M  V30 7 C 9.278513 5.775540 -9.255312 0
M  V30 8 C 10.279592 7.842256 -9.183798 0 CFG=1
M  V30 9 O 9.995843 6.728895 -10.022471 0
M  V30 10 H 13.413898 8.412351 -8.183601 0
M  V30 11 H 12.060017 9.391123 -7.606931 0
M  V30 12 H 8.515600 8.026921 -6.921694 0
M  V30 13 H 9.740765 7.659486 -5.713939 0
M  V30 14 H 9.870603 9.119982 -6.689182 0
M  V30 15 H 9.292070 5.501496 -7.091669 0
M  V30 16 H 10.827368 5.180137 -7.891687 0
M  V30 17 H 12.213618 7.709971 -10.131199 0
M  V30 18 H 11.632265 9.369289 -9.986125 0
M  V30 19 H 8.234895 6.076807 -9.178672 0
M  V30 20 H 9.317329 4.783276 -9.705300 0
M  V30 21 H 9.492487 8.594033 -9.265403 0
M  V30 END ATOM
M  V30 BEGIN BOND
M  V30 1 1 2 1
M  V30 2 1 3 2
M  V30 3 1 3 4 CFG=1
M  V30 4 1 5 3
M  V30 5 1 6 1
M  V30 6 1 7 5
M  V30 7 1 8 3
M  V30 8 1 8 6
M  V30 9 1 9 7
M  V30 10 1 9 8
M  V30 11 1 10 1
M  V30 12 1 11 1
M  V30 13 1 12 4
M  V30 14 1 13 4
M  V30 15 1 14 4
M  V30 16 1 15 5
M  V30 17 1 16 5
M  V30 18 1 17 6
M  V30 19 1 18 6
M  V30 20 1 19 7
M  V30 21 1 20 7
M  V30 22 1 8 21 CFG=1
M  V30 END BOND
M  V30 END CTAB
M  END
>  <i_epik_Tot_Q>  (1) 
0

>  <i_epik_Tot_abs_Q>  (1) 
0

>  <i_i_glide_confnum>  (1) 
4

>  <i_i_glide_lignum>  (1) 
37

>  <i_i_glide_posenum>  (1) 
228

>  <i_i_glide_rotatable_bonds>  (1) 
0

>  <i_lp_mmshare_version>  (1) 
72125

>  <i_m_source_file_index>  (1) 
34

>  <i_f3d_flags>  (1) 
0

>  <num_sample>  (1) 
50

>  <b_lp_Chiralities_Consistent>  (1) 
1

>  <r_epik_Charging_Adjusted_Penalty>  (1) 
0

>  <r_epik_Ionization_Penalty>  (1) 
2.529470820146915e-12

>  <r_epik_Ionization_Penalty_Charging>  (1) 
0

>  <r_epik_Ionization_Penalty_Neutral>  (1) 
2.529470820146915e-12

>  <r_epik_State_Penalty>  (1) 
-0

>  <r_glide_ring_energy>  (1) 
0.71124509259843272

>  <r_i_docking_score>  (1) 
-4.5392860588639543

>  <r_i_glide_ecoul>  (1) 
-0.65891904118267774

>  <r_i_glide_eff_state_penalty>  (1) 
-0

>  <r_i_glide_einternal>  (1) 
0

>  <r_i_glide_emodel>  (1) 
-24.068540115236701

>  <r_i_glide_emodel_strain>  (1) 
0

>  <r_i_glide_energy>  (1) 
-18.877690187723392

>  <r_i_glide_erotb>  (1) 
0

>  <r_i_glide_esite>  (1) 
0

>  <r_i_glide_evdw>  (1) 
-18.218771146540714

>  <r_i_glide_gscore>  (1) 
-4.5392860588639543

>  <r_i_glide_gscore_strain>  (1) 
0

>  <r_i_glide_hbond>  (1) 
0

>  <r_i_glide_ligand_efficiency>  (1) 
-0.50436511765155045

>  <r_i_glide_ligand_efficiency_ln>  (1) 
-1.419758277551425

>  <r_i_glide_ligand_efficiency_sa>  (1) 
-1.0491217221386606

>  <r_i_glide_lipo>  (1) 
-0.62765021624858675

>  <r_i_glide_metal>  (1) 
-0

>  <r_i_glide_rewards>  (1) 
-2.9018594291109303

>  <r_lp_Energy>  (1) 
-0.369228

>  <r_lp_tautomer_probability>  (1) 
1

>  <s_epik_cmdline>  (1) 
J2VwaWtfcHl0aG9uJywgJy1waHQnLCAnMS4wJywgJy1waCcsICc3LjQnLCAnLXRuJywgJzgnLCAnLW1hJywgJzUwMCcsICctaW1hZScsICc8aW5maWxlLm1hZT4nLCAnLW9tYWUnLCAnPG91dGZpbGUubWFlPic=

>  <s_epik_input>  (1) 
TzFbQ0gyXVtDSDJdW0NASF0oW0NAXTEyW0NIM10pT1tDSDJdW0NIMl0y

>  <s_glide_docking_method>  (1) 
confgen

>  <s_i_glide_gridfile>  (1) 
gpcr_drd2_6luq_protein_autoprepared_prepared

>  <s_lp_Force_Field>  (1) 
S-OPLS

>  <s_lp_Variant>  (1) 
Pocket2Mol_33_num_sample_50-1

>  <s_m_source_file>  (1) 
generated__ligand_Pocket2Mol_2026-05-06_prepared.sdf

>  <GenAI_Model>  (1) 
Pocket2Mol

>  <Protein>  (1) 
generic_title2

$$$$
Pocket2Mol_20_num_sample_50
     RDKit          3D

  0  0  0  0  0  0  0  0  0  0999 V3000
M  V30 BEGIN CTAB
M  V30 COUNTS 12 12 0 0 1
M  V30 BEGIN ATOM
M  V30 1 N 12.255925 7.744406 -2.536695 0
M  V30 2 C 11.834875 6.771584 -3.368953 0
M  V30 3 C 11.414206 7.036231 -4.674133 0
M  V30 4 C 11.434840 8.367944 -5.091544 0
M  V30 5 N 11.021658 8.710551 -6.370962 0
M  V30 6 N 11.848481 9.365059 -4.288466 0
M  V30 7 C 12.234839 8.979511 -3.059716 0
M  V30 8 H 11.838537 5.766715 -2.981624 0
M  V30 9 H 11.079851 6.243729 -5.327652 0
M  V30 10 H 10.671622 8.017395 -7.016808 0
M  V30 11 H 11.009794 9.670618 -6.678166 0
M  V30 12 H 12.564552 9.769173 -2.403963 0
M  V30 END ATOM
M  V30 BEGIN BOND
M  V30 1 1 2 1
M  V30 2 2 3 2
M  V30 3 1 4 3
M  V30 4 1 5 4
M  V30 5 2 6 4
M  V30 6 2 7 1
M  V30 7 1 7 6
M  V30 8 1 8 2
M  V30 9 1 9 3
M  V30 10 1 10 5
M  V30 11 1 11 5
M  V30 12 1 12 7
M  V30 END BOND
M  V30 END CTAB
M  END
>  <i_epik_Tot_Q>  (1) 
0

>  <i_epik_Tot_abs_Q>  (1) 
0

>  <i_i_glide_confnum>  (1) 
1

>  <i_i_glide_lignum>  (1) 
24

>  <i_i_glide_posenum>  (1) 
331

>  <i_i_glide_rotatable_bonds>  (1) 
0

>  <i_lp_mmshare_version>  (1) 
72125

>  <i_m_source_file_index>  (1) 
21

>  <i_f3d_flags>  (1) 
0

>  <num_sample>  (1) 
50

>  <b_lp_Chiralities_Consistent>  (1) 
1

>  <r_epik_Charging_Adjusted_Penalty>  (1) 
0.011441366301234922

>  <r_epik_Ionization_Penalty>  (1) 
0.011523414685131987

>  <r_epik_Ionization_Penalty_Charging>  (1) 
0

>  <r_epik_Ionization_Penalty_Neutral>  (1) 
0.011523414685131987

>  <r_epik_State_Penalty>  (1) 
0.011441366301234922

>  <r_glide_ring_energy>  (1) 
0

>  <r_i_docking_score>  (1) 
-4.5358546699648903

>  <r_i_glide_ecoul>  (1) 
-1.5965351535645484

>  <r_i_glide_eff_state_penalty>  (1) 
0.011441366301234922

>  <r_i_glide_einternal>  (1) 
0

>  <r_i_glide_emodel>  (1) 
-24.411876512994088

>  <r_i_glide_emodel_strain>  (1) 
0

>  <r_i_glide_energy>  (1) 
-18.992649839501091

>  <r_i_glide_erotb>  (1) 
0

>  <r_i_glide_esite>  (1) 
0

>  <r_i_glide_evdw>  (1) 
-17.396114685936542

>  <r_i_glide_gscore>  (1) 
-4.5472960362661254

>  <r_i_glide_gscore_strain>  (1) 
0

>  <r_i_glide_hbond>  (1) 
0

>  <r_i_glide_ligand_efficiency>  (1) 
-0.64797923856641293

>  <r_i_glide_ligand_efficiency_ln>  (1) 
-1.5397124964654594

>  <r_i_glide_ligand_efficiency_sa>  (1) 
-1.2395396912428003

>  <r_i_glide_lipo>  (1) 
-0.73801002893461576

>  <r_i_glide_metal>  (1) 
-0

>  <r_i_glide_rewards>  (1) 
-2.7000000000000002

>  <r_lp_Energy>  (1) 
9.3523319999999988

>  <r_lp_tautomer_probability>  (1) 
0.9999995832001739

>  <s_epik_cmdline>  (1) 
J2VwaWtfcHl0aG9uJywgJy1waHQnLCAnMS4wJywgJy1waCcsICc3LjQnLCAnLXRuJywgJzgnLCAnLW1hJywgJzUwMCcsICctaW1hZScsICc8aW5maWxlLm1hZT4nLCAnLW9tYWUnLCAnPG91dGZpbGUubWFlPic=

>  <s_epik_input>  (1) 
bjFbY0hdbltjSF1bY0hdYzFbTkgyXQ==

>  <s_glide_docking_method>  (1) 
confgen

>  <s_i_glide_gridfile>  (1) 
gpcr_drd2_6luq_protein_autoprepared_prepared

>  <s_lp_Force_Field>  (1) 
S-OPLS

>  <s_lp_Variant>  (1) 
Pocket2Mol_20_num_sample_50-1

>  <s_m_source_file>  (1) 
generated__ligand_Pocket2Mol_2026-05-06_prepared.sdf

>  <GenAI_Model>  (1) 
Pocket2Mol

>  <Protein>  (1) 
generic_title2

$$$$
Pocket2Mol_19_num_sample_50
     RDKit          3D

  0  0  0  0  0  0  0  0  0  0999 V3000
M  V30 BEGIN CTAB
M  V30 COUNTS 12 12 0 0 1
M  V30 BEGIN ATOM
M  V30 1 N 12.201855 9.370356 -4.056931 0
M  V30 2 C 12.575775 8.452117 -3.133663 0
M  V30 3 C 12.217853 7.091431 -3.207500 0
M  V30 4 C 11.439712 8.939112 -5.091700 0
M  V30 5 O 12.622127 6.211911 -2.244340 0
M  V30 6 C 11.434822 6.656647 -4.290722 0
M  V30 7 C 11.034852 7.599322 -5.251283 0
M  V30 8 H 13.176761 8.815616 -2.312373 0
M  V30 9 H 11.146827 9.686632 -5.814006 0
M  V30 10 H 12.202459 5.363728 -2.298536 0
M  V30 11 H 11.140211 5.624149 -4.380004 0
M  V30 12 H 10.427308 7.303647 -6.095006 0
M  V30 END ATOM
M  V30 BEGIN BOND
M  V30 1 2 2 1
M  V30 2 1 3 2
M  V30 3 1 4 1
M  V30 4 1 5 3
M  V30 5 2 6 3
M  V30 6 2 7 4
M  V30 7 1 7 6
M  V30 8 1 8 2
M  V30 9 1 9 4
M  V30 10 1 10 5
M  V30 11 1 11 6
M  V30 12 1 12 7
M  V30 END BOND
M  V30 END CTAB
M  END
>  <i_epik_Tot_Q>  (1) 
0

>  <i_epik_Tot_abs_Q>  (1) 
0

>  <i_i_glide_confnum>  (1) 
1

>  <i_i_glide_lignum>  (1) 
23

>  <i_i_glide_posenum>  (1) 
157

>  <i_i_glide_rotatable_bonds>  (1) 
1

>  <i_lp_mmshare_version>  (1) 
72125

>  <i_m_source_file_index>  (1) 
20

>  <i_f3d_flags>  (1) 
0

>  <num_sample>  (1) 
50

>  <b_lp_Chiralities_Consistent>  (1) 
1

>  <r_epik_Charging_Adjusted_Penalty>  (1) 
0.49104251329211085

>  <r_epik_Ionization_Penalty>  (1) 
0.049438115990627488

>  <r_epik_Ionization_Penalty_Charging>  (1) 
0

>  <r_epik_Ionization_Penalty_Neutral>  (1) 
0.049438115990627488

>  <r_epik_State_Penalty>  (1) 
0.49104251329211085

>  <r_glide_ring_energy>  (1) 
0

>  <r_i_docking_score>  (1) 
-4.5300730695660496

>  <r_i_glide_ecoul>  (1) 
-2.6913718009609862

>  <r_i_glide_eff_state_penalty>  (1) 
0.49104251329211085

>  <r_i_glide_einternal>  (1) 
0.097421502680826305

>  <r_i_glide_emodel>  (1) 
-25.979891432971058

>  <r_i_glide_emodel_strain>  (1) 
0

>  <r_i_glide_energy>  (1) 
-18.555890987852568

>  <r_i_glide_erotb>  (1) 
0

>  <r_i_glide_esite>  (1) 
0

>  <r_i_glide_evdw>  (1) 
-15.864519186891583

>  <r_i_glide_gscore>  (1) 
-5.0211155828581608

>  <r_i_glide_gscore_strain>  (1) 
0

>  <r_i_glide_hbond>  (1) 
0

>  <r_i_glide_ligand_efficiency>  (1) 
-0.64715329565229285

>  <r_i_glide_ligand_efficiency_ln>  (1) 
-1.53774991101434

>  <r_i_glide_ligand_efficiency_sa>  (1) 
-1.2379597192871901

>  <r_i_glide_lipo>  (1) 
-1.474183853369434

>  <r_i_glide_metal>  (1) 
-0

>  <r_i_glide_rewards>  (1) 
-2.3500000000000001

>  <r_lp_Energy>  (1) 
10.560834

>  <r_lp_tautomer_probability>  (1) 
0.43658000000000002

>  <s_epik_cmdline>  (1) 
J2VwaWtfcHl0aG9uJywgJy1waHQnLCAnMS4wJywgJy1waCcsICc3LjQnLCAnLXRuJywgJzgnLCAnLW1hJywgJzUwMCcsICctaW1hZScsICc8aW5maWxlLm1hZT4nLCAnLW9tYWUnLCAnPG91dGZpbGUubWFlPic=

>  <s_epik_input>  (1) 
W2NIXTFbY0hdW2NIXW5bY0hdYzFbT0hd

>  <s_glide_docking_method>  (1) 
confgen

>  <s_i_glide_gridfile>  (1) 
gpcr_drd2_6luq_protein_autoprepared_prepared

>  <s_lp_Force_Field>  (1) 
S-OPLS

>  <s_lp_Variant>  (1) 
Pocket2Mol_19_num_sample_50-2

>  <s_m_source_file>  (1) 
generated__ligand_Pocket2Mol_2026-05-06_prepared.sdf

>  <GenAI_Model>  (1) 
Pocket2Mol

>  <Protein>  (1) 
generic_title2

$$$$
Pocket2Mol_46_num_sample_50
     RDKit          3D

  0  0  0  0  0  0  0  0  0  0999 V3000
M  V30 BEGIN CTAB
M  V30 COUNTS 8 8 0 0 1
M  V30 BEGIN ATOM
M  V30 1 N 12.025346 8.670090 -4.009856 0
M  V30 2 C 12.027524 7.299052 -3.552431 0
M  V30 3 C 12.234510 7.226970 -2.291667 0
M  V30 4 C 12.366064 8.477481 -1.898331 0
M  V30 5 C 12.234884 9.292627 -2.921706 0
M  V30 6 H 11.872507 6.483136 -4.244314 0
M  V30 7 H 12.298894 6.334632 -1.686271 0
M  V30 8 H 12.702596 8.764569 -0.914066 0
M  V30 END ATOM
M  V30 BEGIN BOND
M  V30 1 1 2 1
M  V30 2 2 3 2
M  V30 3 1 4 3
M  V30 4 2 5 1
M  V30 5 2 5 4
M  V30 6 1 6 2
M  V30 7 1 7 3
M  V30 8 1 8 4
M  V30 END BOND
M  V30 END CTAB
M  END
>  <i_epik_Tot_Q>  (1) 
0

>  <i_epik_Tot_abs_Q>  (1) 
0

>  <i_i_glide_confnum>  (1) 
1

>  <i_i_glide_lignum>  (1) 
52

>  <i_i_glide_posenum>  (1) 
213

>  <i_i_glide_rotatable_bonds>  (1) 
0

>  <i_lp_mmshare_version>  (1) 
72125

>  <i_m_source_file_index>  (1) 
47

>  <i_f3d_flags>  (1) 
0

>  <num_sample>  (1) 
50

>  <b_lp_Chiralities_Consistent>  (1) 
1

>  <r_epik_Charging_Adjusted_Penalty>  (1) 
0

>  <r_epik_Ionization_Penalty>  (1) 
0

>  <r_epik_Ionization_Penalty_Charging>  (1) 
0

>  <r_epik_Ionization_Penalty_Neutral>  (1) 
0

>  <r_epik_State_Penalty>  (1) 
-0

>  <r_glide_ring_energy>  (1) 
0

>  <r_i_docking_score>  (1) 
-4.5168870380795525

>  <r_i_glide_ecoul>  (1) 
-0.95454365991902823

>  <r_i_glide_eff_state_penalty>  (1) 
-0

>  <r_i_glide_einternal>  (1) 
0

>  <r_i_glide_emodel>  (1) 
-17.851595854624456

>  <r_i_glide_emodel_strain>  (1) 
0

>  <r_i_glide_energy>  (1) 
-13.763244456074155

>  <r_i_glide_erotb>  (1) 
0

>  <r_i_glide_esite>  (1) 
0

>  <r_i_glide_evdw>  (1) 
-12.808700796155126

>  <r_i_glide_gscore>  (1) 
-4.5168870380795525

>  <r_i_glide_gscore_strain>  (1) 
0

>  <r_i_glide_hbond>  (1) 
0

>  <r_i_glide_ligand_efficiency>  (1) 
-0.90337740761591045

>  <r_i_glide_ligand_efficiency_ln>  (1) 
-1.7309808432522433

>  <r_i_glide_ligand_efficiency_sa>  (1) 
-1.5447536377943569

>  <r_i_glide_lipo>  (1) 
-1.2818029270895839

>  <r_i_glide_metal>  (1) 
-0

>  <r_i_glide_rewards>  (1) 
-2.4514675221943576

>  <r_lp_Energy>  (1) 
4.860805

>  <r_lp_tautomer_probability>  (1) 
1

>  <s_epik_Chemistry_Notes>  (1) 
This compound has an imine and may undergo hydrolysis.

>  <s_epik_cmdline>  (1) 
J2VwaWtfcHl0aG9uJywgJy1waHQnLCAnMS4wJywgJy1waCcsICc3LjQnLCAnLXRuJywgJzgnLCAnLW1hJywgJzUwMCcsICctaW1hZScsICc8aW5maWxlLm1hZT4nLCAnLW9tYWUnLCAnPG91dGZpbGUubWFlPic=

>  <s_epik_input>  (1) 
TjE9Qz1bQ0hdW0NIXT1bQ0hdMQ==

>  <s_glide_docking_method>  (1) 
confgen

>  <s_i_glide_gridfile>  (1) 
gpcr_drd2_6luq_protein_autoprepared_prepared

>  <s_lp_Force_Field>  (1) 
S-OPLS

>  <s_lp_Variant>  (1) 
Pocket2Mol_46_num_sample_50-1

>  <s_m_source_file>  (1) 
generated__ligand_Pocket2Mol_2026-05-06_prepared.sdf

>  <GenAI_Model>  (1) 
Pocket2Mol

>  <Protein>  (1) 
generic_title2

$$$$
Pocket2Mol_29_num_sample_50
     RDKit          3D

  0  0  0  0  0  0  0  0  0  0999 V3000
M  V30 BEGIN CTAB
M  V30 COUNTS 14 14 0 0 1
M  V30 BEGIN ATOM
M  V30 1 N 12.234839 7.555515 -3.408820 0
M  V30 2 C 12.340263 8.859732 -3.737437 0
M  V30 3 C 11.748781 9.387337 -4.886009 0
M  V30 4 C 11.034798 8.504156 -5.694752 0
M  V30 5 O 10.409382 8.947074 -6.840266 0
M  V30 6 C 11.513615 6.810317 -4.266913 0
M  V30 7 N 10.911634 7.190033 -5.403617 0
M  V30 8 C 9.492987 8.079477 -7.503976 0
M  V30 9 H 12.906951 9.488362 -3.066641 0
M  V30 10 H 11.835171 10.433573 -5.136049 0
M  V30 11 H 11.411444 5.769318 -4.008885 0
M  V30 12 H 9.034839 8.610496 -8.338168 0
M  V30 13 H 9.992593 7.197350 -7.907449 0
M  V30 14 H 8.690254 7.762932 -6.835477 0
M  V30 END ATOM
M  V30 BEGIN BOND
M  V30 1 1 2 1
M  V30 2 2 3 2
M  V30 3 1 4 3
M  V30 4 1 5 4
M  V30 5 2 6 1
M  V30 6 2 7 4
M  V30 7 1 7 6
M  V30 8 1 8 5
M  V30 9 1 9 2
M  V30 10 1 10 3
M  V30 11 1 11 6
M  V30 12 1 12 8
M  V30 13 1 13 8
M  V30 14 1 14 8
M  V30 END BOND
M  V30 END CTAB
M  END
>  <i_epik_Tot_Q>  (1) 
0

>  <i_epik_Tot_abs_Q>  (1) 
0

>  <i_i_glide_confnum>  (1) 
1

>  <i_i_glide_lignum>  (1) 
33

>  <i_i_glide_posenum>  (1) 
248

>  <i_i_glide_rotatable_bonds>  (1) 
1

>  <i_lp_mmshare_version>  (1) 
72125

>  <i_m_source_file_index>  (1) 
30

>  <i_f3d_flags>  (1) 
0

>  <num_sample>  (1) 
50

>  <b_lp_Chiralities_Consistent>  (1) 
1

>  <r_epik_Charging_Adjusted_Penalty>  (1) 
0

>  <r_epik_Ionization_Penalty>  (1) 
8.6638422661064201e-06

>  <r_epik_Ionization_Penalty_Charging>  (1) 
0

>  <r_epik_Ionization_Penalty_Neutral>  (1) 
8.6638422661064201e-06

>  <r_epik_State_Penalty>  (1) 
-0

>  <r_glide_ring_energy>  (1) 
0

>  <r_i_docking_score>  (1) 
-4.5040389705427382

>  <r_i_glide_ecoul>  (1) 
-0.30165449702056479

>  <r_i_glide_eff_state_penalty>  (1) 
-0

>  <r_i_glide_einternal>  (1) 
0.10001701028090737

>  <r_i_glide_emodel>  (1) 
-24.184581168408467

>  <r_i_glide_emodel_strain>  (1) 
0

>  <r_i_glide_energy>  (1) 
-18.543485303694943

>  <r_i_glide_erotb>  (1) 
0

>  <r_i_glide_esite>  (1) 
0

>  <r_i_glide_evdw>  (1) 
-18.241830806674379

>  <r_i_glide_gscore>  (1) 
-4.5040389705427382

>  <r_i_glide_gscore_strain>  (1) 
0

>  <r_i_glide_hbond>  (1) 
0

>  <r_i_glide_ligand_efficiency>  (1) 
-0.56300487131784227

>  <r_i_glide_ligand_efficiency_ln>  (1) 
-1.4626155130991005

>  <r_i_glide_ligand_efficiency_sa>  (1) 
-1.1260097426356848

>  <r_i_glide_lipo>  (1) 
-0.93809319034342686

>  <r_i_glide_metal>  (1) 
-0

>  <r_i_glide_rewards>  (1) 
-2.6086060653125069

>  <r_lp_Energy>  (1) 
14.393509

>  <r_lp_tautomer_probability>  (1) 
1

>  <s_epik_cmdline>  (1) 
J2VwaWtfcHl0aG9uJywgJy1waHQnLCAnMS4wJywgJy1waCcsICc3LjQnLCAnLXRuJywgJzgnLCAnLW1hJywgJzUwMCcsICctaW1hZScsICc8aW5maWxlLm1hZT4nLCAnLW9tYWUnLCAnPG91dGZpbGUubWFlPic=

>  <s_epik_input>  (1) 
bjFbY0hdbltjSF1bY0hdYzFPW0NIM10=

>  <s_glide_docking_method>  (1) 
confgen

>  <s_i_glide_gridfile>  (1) 
gpcr_drd2_6luq_protein_autoprepared_prepared

>  <s_lp_Force_Field>  (1) 
S-OPLS

>  <s_lp_Variant>  (1) 
Pocket2Mol_29_num_sample_50-1

>  <s_m_source_file>  (1) 
generated__ligand_Pocket2Mol_2026-05-06_prepared.sdf

>  <GenAI_Model>  (1) 
Pocket2Mol

>  <Protein>  (1) 
generic_title2

$$$$
Pocket2Mol_24_num_sample_50
     RDKit          3D

  0  0  0  0  0  0  0  0  0  0999 V3000
M  V30 BEGIN CTAB
M  V30 COUNTS 15 15 0 0 1
M  V30 BEGIN ATOM
M  V30 1 N 11.535821 8.146837 -9.405396 0 CHG=1
M  V30 2 C 11.388213 8.267350 -8.048050 0
M  V30 3 C 10.047584 8.119498 -7.772196 0
M  V30 4 C 10.343414 7.932770 -9.960504 0
M  V30 5 C 9.292972 8.152805 -6.486761 0
M  V30 6 N 10.102147 7.767034 -11.260352 0
M  V30 7 N 9.435827 7.913947 -8.984083 0
M  V30 8 H 12.227277 8.445487 -7.390509 0
M  V30 9 H 9.971846 8.328164 -5.651574 0
M  V30 10 H 8.551490 8.952146 -6.502591 0
M  V30 11 H 8.781370 7.203969 -6.322349 0
M  V30 12 H 10.832421 7.791078 -11.958707 0
M  V30 13 H 9.173879 7.607193 -11.627129 0
M  V30 14 H 8.440737 7.769302 -9.118844 0
M  V30 15 H 12.412127 8.210197 -9.908741 0
M  V30 END ATOM
M  V30 BEGIN BOND
M  V30 1 1 2 1
M  V30 2 2 3 2
M  V30 3 2 4 1
M  V30 4 1 5 3
M  V30 5 1 6 4
M  V30 6 1 7 3
M  V30 7 1 7 4
M  V30 8 1 8 2
M  V30 9 1 9 5
M  V30 10 1 10 5
M  V30 11 1 11 5
M  V30 12 1 12 6
M  V30 13 1 13 6
M  V30 14 1 14 7
M  V30 15 1 15 1
M  V30 END BOND
M  V30 END CTAB
M  END
>  <i_epik_Tot_Q>  (1) 
1

>  <i_epik_Tot_abs_Q>  (1) 
1

>  <i_i_glide_confnum>  (1) 
1

>  <i_i_glide_lignum>  (1) 
28

>  <i_i_glide_posenum>  (1) 
200

>  <i_i_glide_rotatable_bonds>  (1) 
0

>  <i_lp_mmshare_version>  (1) 
72125

>  <i_m_source_file_index>  (1) 
25

>  <i_f3d_flags>  (1) 
0

>  <num_sample>  (1) 
50

>  <b_lp_Chiralities_Consistent>  (1) 
1

>  <r_epik_Charging_Adjusted_Penalty>  (1) 
0.028937443406262361

>  <r_epik_Ionization_Penalty>  (1) 
0.025358402846536118

>  <r_epik_Ionization_Penalty_Charging>  (1) 
0

>  <r_epik_Ionization_Penalty_Neutral>  (1) 
0.025358402846536118

>  <r_epik_State_Penalty>  (1) 
0.028937443406262361

>  <r_glide_ring_energy>  (1) 
0

>  <r_i_docking_score>  (1) 
-4.5001785509410244

>  <r_i_glide_ecoul>  (1) 
-8.1971061704031634

>  <r_i_glide_eff_state_penalty>  (1) 
0.028937443406262361

>  <r_i_glide_einternal>  (1) 
0

>  <r_i_glide_emodel>  (1) 
-26.106155846260847

>  <r_i_glide_emodel_strain>  (1) 
0

>  <r_i_glide_energy>  (1) 
-17.209697956080166

>  <r_i_glide_erotb>  (1) 
0

>  <r_i_glide_esite>  (1) 
-0.19335361999615158

>  <r_i_glide_evdw>  (1) 
-9.012591785677003

>  <r_i_glide_gscore>  (1) 
-4.5291159943472863

>  <r_i_glide_gscore_strain>  (1) 
0

>  <r_i_glide_hbond>  (1) 
-0.19338872828011927

>  <r_i_glide_ligand_efficiency>  (1) 
-0.64288265013443202

>  <r_i_glide_ligand_efficiency_ln>  (1) 
-1.5276021070717754

>  <r_i_glide_ligand_efficiency_sa>  (1) 
-1.2297902683055071

>  <r_i_glide_lipo>  (1) 
-0.21217813122669005

>  <r_i_glide_metal>  (1) 
-0

>  <r_i_glide_rewards>  (1) 
-2.25

>  <r_lp_Energy>  (1) 
-0.73901799999999995

>  <r_lp_tautomer_probability>  (1) 
0.99999998112300037

>  <s_epik_cmdline>  (1) 
J2VwaWtfcHl0aG9uJywgJy1waHQnLCAnMS4wJywgJy1waCcsICc3LjQnLCAnLXRuJywgJzgnLCAnLW1hJywgJzUwMCcsICctaW1hZScsICc8aW5maWxlLm1hZT4nLCAnLW9tYWUnLCAnPG91dGZpbGUubWFlPic=

>  <s_epik_input>  (1) 
W05IMl1jKFtuSF0xKW5bY0hdYzFbQ0gzXQ==

>  <s_glide_docking_method>  (1) 
confgen

>  <s_i_glide_gridfile>  (1) 
gpcr_drd2_6luq_protein_autoprepared_prepared

>  <s_lp_Force_Field>  (1) 
S-OPLS

>  <s_lp_Variant>  (1) 
Pocket2Mol_24_num_sample_50-1

>  <s_m_source_file>  (1) 
generated__ligand_Pocket2Mol_2026-05-06_prepared.sdf

>  <GenAI_Model>  (1) 
Pocket2Mol

>  <Protein>  (1) 
generic_title2

$$$$
Pocket2Mol_16_num_sample_50
     RDKit          3D

  0  0  0  0  0  0  0  0  0  0999 V3000
M  V30 BEGIN CTAB
M  V30 COUNTS 12 12 0 0 1
M  V30 BEGIN ATOM
M  V30 1 N 10.860899 6.569302 -5.252325 0
M  V30 2 C 11.531888 7.307166 -4.294419 0
M  V30 3 C 11.834842 8.615951 -4.439910 0
M  V30 4 C 11.434918 9.313010 -5.694867 0
M  V30 5 O 11.691580 10.498243 -5.891625 0
M  V30 6 C 10.467146 7.189389 -6.424563 0
M  V30 7 C 10.708209 8.488390 -6.697275 0
M  V30 8 H 11.794331 6.746169 -3.409858 0
M  V30 9 H 12.357660 9.167057 -3.672657 0
M  V30 10 H 10.644729 5.592019 -5.091489 0
M  V30 11 H 9.943882 6.540233 -7.112464 0
M  V30 12 H 10.387345 8.942880 -7.622995 0
M  V30 END ATOM
M  V30 BEGIN BOND
M  V30 1 1 2 1
M  V30 2 2 3 2
M  V30 3 1 4 3
M  V30 4 2 5 4
M  V30 5 1 6 1
M  V30 6 1 7 4
M  V30 7 2 7 6
M  V30 8 1 8 2
M  V30 9 1 9 3
M  V30 10 1 10 1
M  V30 11 1 11 6
M  V30 12 1 12 7
M  V30 END BOND
M  V30 END CTAB
M  END
>  <i_epik_Tot_Q>  (1) 
0

>  <i_epik_Tot_abs_Q>  (1) 
0

>  <i_i_glide_confnum>  (1) 
1

>  <i_i_glide_lignum>  (1) 
19

>  <i_i_glide_posenum>  (1) 
357

>  <i_i_glide_rotatable_bonds>  (1) 
0

>  <i_lp_mmshare_version>  (1) 
72125

>  <i_m_source_file_index>  (1) 
17

>  <i_f3d_flags>  (1) 
0

>  <num_sample>  (1) 
50

>  <b_lp_Chiralities_Consistent>  (1) 
1

>  <r_epik_Charging_Adjusted_Penalty>  (1) 
0.00011828912318149299

>  <r_epik_Ionization_Penalty>  (1) 
0.00011828912318149299

>  <r_epik_Ionization_Penalty_Charging>  (1) 
0.00011828912318149299

>  <r_epik_Ionization_Penalty_Neutral>  (1) 
0

>  <r_epik_State_Penalty>  (1) 
-0

>  <r_glide_ring_energy>  (1) 
0

>  <r_i_docking_score>  (1) 
-4.499173712926094

>  <r_i_glide_ecoul>  (1) 
-2.1570215361156597

>  <r_i_glide_eff_state_penalty>  (1) 
-0

>  <r_i_glide_einternal>  (1) 
0

>  <r_i_glide_emodel>  (1) 
-23.02566150339117

>  <r_i_glide_emodel_strain>  (1) 
1.9059420708344987e-11

>  <r_i_glide_energy>  (1) 
-17.367002129474869

>  <r_i_glide_erotb>  (1) 
0

>  <r_i_glide_esite>  (1) 
0

>  <r_i_glide_evdw>  (1) 
-15.209980593359209

>  <r_i_glide_gscore>  (1) 
-4.499173712926094

>  <r_i_glide_gscore_strain>  (1) 
0

>  <r_i_glide_hbond>  (1) 
0

>  <r_i_glide_ligand_efficiency>  (1) 
-0.64273910184658489

>  <r_i_glide_ligand_efficiency_ln>  (1) 
-1.5272610111238039

>  <r_i_glide_ligand_efficiency_sa>  (1) 
-1.2295156703094507

>  <r_i_glide_lipo>  (1) 
-1.1651214528407845

>  <r_i_glide_metal>  (1) 
-0

>  <r_i_glide_rewards>  (1) 
-2.25

>  <r_lp_Energy>  (1) 
8.1847359999999991

>  <r_lp_tautomer_probability>  (1) 
1

>  <s_epik_cmdline>  (1) 
J2VwaWtfcHl0aG9uJywgJy1waHQnLCAnMS4wJywgJy1waCcsICc3LjQnLCAnLXRuJywgJzgnLCAnLW1hJywgJzUwMCcsICctaW1hZScsICc8aW5maWxlLm1hZT4nLCAnLW9tYWUnLCAnPG91dGZpbGUubWFlPic=

>  <s_epik_input>  (1) 
W2NIXTFbY0hdbltjSF1bY0hdYzFbT0hd

>  <s_glide_docking_method>  (1) 
confgen

>  <s_i_glide_gridfile>  (1) 
gpcr_drd2_6luq_protein_autoprepared_prepared

>  <s_lp_Force_Field>  (1) 
S-OPLS

>  <s_lp_Variant>  (1) 
Pocket2Mol_16_num_sample_50-1

>  <s_m_source_file>  (1) 
generated__ligand_Pocket2Mol_2026-05-06_prepared.sdf

>  <GenAI_Model>  (1) 
Pocket2Mol

>  <Protein>  (1) 
generic_title2

$$$$
Pocket2Mol_14_num_sample_50
     RDKit          3D

  0  0  0  0  0  0  0  0  0  0999 V3000
M  V30 BEGIN CTAB
M  V30 COUNTS 17 17 0 0 1
M  V30 BEGIN ATOM
M  V30 1 C 11.616409 8.521485 -8.564400 0
M  V30 2 O 11.404008 8.918006 -7.211780 0
M  V30 3 C 10.367662 8.016578 -9.309347 0
M  V30 4 O 10.234839 6.614954 -9.125654 0
M  V30 5 C 10.474408 8.171811 -6.430119 0
M  V30 6 C 9.648096 6.233007 -7.891667 0
M  V30 7 C 10.487400 6.652707 -6.672528 0
M  V30 8 H 12.014001 9.392046 -9.085654 0
M  V30 9 H 12.404834 7.769301 -8.602258 0
M  V30 10 H 9.462160 8.566592 -9.046637 0
M  V30 11 H 10.518846 8.169329 -10.378071 0
M  V30 12 H 10.711265 8.372347 -5.385145 0
M  V30 13 H 9.470283 8.568960 -6.586909 0
M  V30 14 H 9.549661 5.147351 -7.901341 0
M  V30 15 H 8.634839 6.629829 -7.821289 0
M  V30 16 H 11.507343 6.274078 -6.746295 0
M  V30 17 H 10.051948 6.170506 -5.796540 0
M  V30 END ATOM
M  V30 BEGIN BOND
M  V30 1 1 2 1
M  V30 2 1 3 1
M  V30 3 1 4 3
M  V30 4 1 5 2
M  V30 5 1 6 4
M  V30 6 1 7 5
M  V30 7 1 7 6
M  V30 8 1 8 1
M  V30 9 1 9 1
M  V30 10 1 10 3
M  V30 11 1 11 3
M  V30 12 1 12 5
M  V30 13 1 13 5
M  V30 14 1 14 6
M  V30 15 1 15 6
M  V30 16 1 16 7
M  V30 17 1 17 7
M  V30 END BOND
M  V30 END CTAB
M  END
>  <i_epik_Tot_Q>  (1) 
0

>  <i_epik_Tot_abs_Q>  (1) 
0

>  <i_i_glide_confnum>  (1) 
13

>  <i_i_glide_lignum>  (1) 
17

>  <i_i_glide_posenum>  (1) 
269

>  <i_i_glide_rotatable_bonds>  (1) 
0

>  <i_lp_mmshare_version>  (1) 
72125

>  <i_m_source_file_index>  (1) 
15

>  <i_f3d_flags>  (1) 
0

>  <num_sample>  (1) 
50

>  <b_lp_Chiralities_Consistent>  (1) 
1

>  <r_epik_Charging_Adjusted_Penalty>  (1) 
0

>  <r_epik_Ionization_Penalty>  (1) 
3.933197540425548e-12

>  <r_epik_Ionization_Penalty_Charging>  (1) 
0

>  <r_epik_Ionization_Penalty_Neutral>  (1) 
3.933197540425548e-12

>  <r_epik_State_Penalty>  (1) 
-0

>  <r_glide_ring_energy>  (1) 
0.0013247502693584507

>  <r_i_docking_score>  (1) 
-4.494546268168504

>  <r_i_glide_ecoul>  (1) 
-0.61917939564895874

>  <r_i_glide_eff_state_penalty>  (1) 
-0

>  <r_i_glide_einternal>  (1) 
0

>  <r_i_glide_emodel>  (1) 
-21.814858227285043

>  <r_i_glide_emodel_strain>  (1) 
0

>  <r_i_glide_energy>  (1) 
-16.936775513439006

>  <r_i_glide_erotb>  (1) 
0

>  <r_i_glide_esite>  (1) 
0

>  <r_i_glide_evdw>  (1) 
-16.317596117790046

>  <r_i_glide_gscore>  (1) 
-4.494546268168504

>  <r_i_glide_gscore_strain>  (1) 
0

>  <r_i_glide_hbond>  (1) 
0

>  <r_i_glide_ligand_efficiency>  (1) 
-0.64207803830978627

>  <r_i_glide_ligand_efficiency_ln>  (1) 
-1.5256902080363188

>  <r_i_glide_ligand_efficiency_sa>  (1) 
-1.2282511012561148

>  <r_i_glide_lipo>  (1) 
-0.74412288626499135

>  <r_i_glide_metal>  (1) 
-0

>  <r_i_glide_rewards>  (1) 
-2.8416666666666668

>  <r_lp_Energy>  (1) 
9.641

>  <r_lp_tautomer_probability>  (1) 
1

>  <s_epik_cmdline>  (1) 
J2VwaWtfcHl0aG9uJywgJy1waHQnLCAnMS4wJywgJy1waCcsICc3LjQnLCAnLXRuJywgJzgnLCAnLW1hJywgJzUwMCcsICctaW1hZScsICc8aW5maWxlLm1hZT4nLCAnLW9tYWUnLCAnPG91dGZpbGUubWFlPic=

>  <s_epik_input>  (1) 
W0NIMl0xT1tDSDJdW0NIMl1bQ0gyXU9bQ0gyXTE=

>  <s_glide_docking_method>  (1) 
confgen

>  <s_i_glide_gridfile>  (1) 
gpcr_drd2_6luq_protein_autoprepared_prepared

>  <s_lp_Force_Field>  (1) 
S-OPLS

>  <s_lp_Variant>  (1) 
Pocket2Mol_14_num_sample_50-1

>  <s_m_source_file>  (1) 
generated__ligand_Pocket2Mol_2026-05-06_prepared.sdf

>  <GenAI_Model>  (1) 
Pocket2Mol

>  <Protein>  (1) 
generic_title2

$$$$
Pocket2Mol_47_num_sample_50
     RDKit          3D

  0  0  0  0  0  0  0  0  0  0999 V3000
M  V30 BEGIN CTAB
M  V30 COUNTS 11 11 0 0 1
M  V30 BEGIN ATOM
M  V30 1 C 12.234884 9.108184 -3.317324 0
M  V30 2 O 11.833556 8.082357 -4.305007 0
M  V30 3 C 12.518216 8.467203 -1.877513 0
M  V30 4 C 12.191446 7.109802 -2.315693 0
M  V30 5 C 11.846404 6.969300 -3.553899 0
M  V30 6 H 11.438288 9.849654 -3.243945 0
M  V30 7 H 13.120283 9.629925 -3.682918 0
M  V30 8 H 11.834850 8.823826 -1.105720 0
M  V30 9 H 13.555021 8.569317 -1.559460 0
M  V30 10 H 12.240848 6.284980 -1.618894 0
M  V30 11 H 11.567096 6.064739 -4.075847 0
M  V30 END ATOM
M  V30 BEGIN BOND
M  V30 1 1 2 1
M  V30 2 1 3 1
M  V30 3 1 4 3
M  V30 4 1 5 2
M  V30 5 2 5 4
M  V30 6 1 6 1
M  V30 7 1 7 1
M  V30 8 1 8 3
M  V30 9 1 9 3
M  V30 10 1 10 4
M  V30 11 1 11 5
M  V30 END BOND
M  V30 END CTAB
M  END
>  <i_epik_Tot_Q>  (1) 
0

>  <i_epik_Tot_abs_Q>  (1) 
0

>  <i_i_glide_confnum>  (1) 
1

>  <i_i_glide_lignum>  (1) 
53

>  <i_i_glide_posenum>  (1) 
37

>  <i_i_glide_rotatable_bonds>  (1) 
0

>  <i_lp_mmshare_version>  (1) 
72125

>  <i_m_source_file_index>  (1) 
48

>  <i_f3d_flags>  (1) 
0

>  <num_sample>  (1) 
50

>  <b_lp_Chiralities_Consistent>  (1) 
1

>  <r_epik_Charging_Adjusted_Penalty>  (1) 
0

>  <r_epik_Ionization_Penalty>  (1) 
0

>  <r_epik_Ionization_Penalty_Charging>  (1) 
0

>  <r_epik_Ionization_Penalty_Neutral>  (1) 
0

>  <r_epik_State_Penalty>  (1) 
-0

>  <r_glide_ring_energy>  (1) 
0

>  <r_i_docking_score>  (1) 
-4.4942478098487655

>  <r_i_glide_ecoul>  (1) 
-0.73477432699734124

>  <r_i_glide_eff_state_penalty>  (1) 
-0

>  <r_i_glide_einternal>  (1) 
0

>  <r_i_glide_emodel>  (1) 
-18.410731983199511

>  <r_i_glide_emodel_strain>  (1) 
0

>  <r_i_glide_energy>  (1) 
-14.518353988693363

>  <r_i_glide_erotb>  (1) 
0

>  <r_i_glide_esite>  (1) 
0

>  <r_i_glide_evdw>  (1) 
-13.783579661696022

>  <r_i_glide_gscore>  (1) 
-4.4942478098487655

>  <r_i_glide_gscore_strain>  (1) 
0

>  <r_i_glide_hbond>  (1) 
0

>  <r_i_glide_ligand_efficiency>  (1) 
-0.89884956196975307

>  <r_i_glide_ligand_efficiency_ln>  (1) 
-1.722304941011799

>  <r_i_glide_ligand_efficiency_sa>  (1) 
-1.5370111306491629

>  <r_i_glide_lipo>  (1) 
-1.2237776714396897

>  <r_i_glide_metal>  (1) 
-0

>  <r_i_glide_rewards>  (1) 
-2.4710750062746727

>  <r_lp_Energy>  (1) 
-3.1771669999999999

>  <r_lp_tautomer_probability>  (1) 
1

>  <s_epik_cmdline>  (1) 
J2VwaWtfcHl0aG9uJywgJy1waHQnLCAnMS4wJywgJy1waCcsICc3LjQnLCAnLXRuJywgJzgnLCAnLW1hJywgJzUwMCcsICctaW1hZScsICc8aW5maWxlLm1hZT4nLCAnLW9tYWUnLCAnPG91dGZpbGUubWFlPic=

>  <s_epik_input>  (1) 
W0NIMl0xT1tDSF09W0NIXVtDSDJdMQ==

>  <s_glide_docking_method>  (1) 
confgen

>  <s_i_glide_gridfile>  (1) 
gpcr_drd2_6luq_protein_autoprepared_prepared

>  <s_lp_Force_Field>  (1) 
S-OPLS

>  <s_lp_Variant>  (1) 
Pocket2Mol_47_num_sample_50-1

>  <s_m_source_file>  (1) 
generated__ligand_Pocket2Mol_2026-05-06_prepared.sdf

>  <GenAI_Model>  (1) 
Pocket2Mol

>  <Protein>  (1) 
generic_title2

$$$$
Pocket2Mol_20_num_sample_50
     RDKit          3D

  0  0  0  0  0  0  0  0  0  0999 V3000
M  V30 BEGIN CTAB
M  V30 COUNTS 12 12 0 0 1
M  V30 BEGIN ATOM
M  V30 1 N 12.403429 8.969299 -3.774704 0
M  V30 2 C 12.204330 7.662135 -3.508794 0
M  V30 3 C 11.434990 6.841175 -4.355476 0
M  V30 4 C 10.888091 7.463536 -5.491671 0
M  V30 5 N 10.111746 6.746034 -6.395214 0
M  V30 6 N 11.088603 8.768449 -5.754363 0
M  V30 7 C 11.834825 9.449076 -4.881874 0
M  V30 8 H 12.662006 7.267370 -2.613815 0
M  V30 9 H 11.278675 5.795139 -4.137949 0
M  V30 10 H 9.916182 5.764412 -6.267981 0
M  V30 11 H 9.719466 7.193520 -7.210677 0
M  V30 12 H 11.994728 10.495766 -5.094047 0
M  V30 END ATOM
M  V30 BEGIN BOND
M  V30 1 1 2 1
M  V30 2 2 3 2
M  V30 3 1 4 3
M  V30 4 1 5 4
M  V30 5 2 6 4
M  V30 6 2 7 1
M  V30 7 1 7 6
M  V30 8 1 8 2
M  V30 9 1 9 3
M  V30 10 1 10 5
M  V30 11 1 11 5
M  V30 12 1 12 7
M  V30 END BOND
M  V30 END CTAB
M  END
>  <i_epik_Tot_Q>  (1) 
0

>  <i_epik_Tot_abs_Q>  (1) 
0

>  <i_i_glide_confnum>  (1) 
1

>  <i_i_glide_lignum>  (1) 
24

>  <i_i_glide_posenum>  (1) 
333

>  <i_i_glide_rotatable_bonds>  (1) 
0

>  <i_lp_mmshare_version>  (1) 
72125

>  <i_m_source_file_index>  (1) 
21

>  <i_f3d_flags>  (1) 
0

>  <num_sample>  (1) 
50

>  <b_lp_Chiralities_Consistent>  (1) 
1

>  <r_epik_Charging_Adjusted_Penalty>  (1) 
0.011441366301234922

>  <r_epik_Ionization_Penalty>  (1) 
0.011523414685131987

>  <r_epik_Ionization_Penalty_Charging>  (1) 
0

>  <r_epik_Ionization_Penalty_Neutral>  (1) 
0.011523414685131987

>  <r_epik_State_Penalty>  (1) 
0.011441366301234922

>  <r_glide_ring_energy>  (1) 
0

>  <r_i_docking_score>  (1) 
-4.4940536362750363

>  <r_i_glide_ecoul>  (1) 
-0.86235995382540453

>  <r_i_glide_eff_state_penalty>  (1) 
0.011441366301234922

>  <r_i_glide_einternal>  (1) 
0

>  <r_i_glide_emodel>  (1) 
-22.81964954401672

>  <r_i_glide_emodel_strain>  (1) 
4.5334047626965912e-09

>  <r_i_glide_energy>  (1) 
-17.450239133982208

>  <r_i_glide_erotb>  (1) 
0

>  <r_i_glide_esite>  (1) 
0

>  <r_i_glide_evdw>  (1) 
-16.587879180156804

>  <r_i_glide_gscore>  (1) 
-4.5054950025762714

>  <r_i_glide_gscore_strain>  (1) 
0

>  <r_i_glide_hbond>  (1) 
0

>  <r_i_glide_ligand_efficiency>  (1) 
-0.64200766232500517

>  <r_i_glide_ligand_efficiency_ln>  (1) 
-1.5255229823340597

>  <r_i_glide_ligand_efficiency_sa>  (1) 
-1.2281164768403088

>  <r_i_glide_lipo>  (1) 
-0.84674705049462051

>  <r_i_glide_metal>  (1) 
-0

>  <r_i_glide_rewards>  (1) 
-2.7000000000000002

>  <r_lp_Energy>  (1) 
9.3523319999999988

>  <r_lp_tautomer_probability>  (1) 
0.9999995832001739

>  <s_epik_cmdline>  (1) 
J2VwaWtfcHl0aG9uJywgJy1waHQnLCAnMS4wJywgJy1waCcsICc3LjQnLCAnLXRuJywgJzgnLCAnLW1hJywgJzUwMCcsICctaW1hZScsICc8aW5maWxlLm1hZT4nLCAnLW9tYWUnLCAnPG91dGZpbGUubWFlPic=

>  <s_epik_input>  (1) 
bjFbY0hdbltjSF1bY0hdYzFbTkgyXQ==

>  <s_glide_docking_method>  (1) 
confgen

>  <s_i_glide_gridfile>  (1) 
gpcr_drd2_6luq_protein_autoprepared_prepared

>  <s_lp_Force_Field>  (1) 
S-OPLS

>  <s_lp_Variant>  (1) 
Pocket2Mol_20_num_sample_50-1

>  <s_m_source_file>  (1) 
generated__ligand_Pocket2Mol_2026-05-06_prepared.sdf

>  <GenAI_Model>  (1) 
Pocket2Mol

>  <Protein>  (1) 
generic_title2

$$$$
Pocket2Mol_9_num_sample_50
     RDKit          3D

  0  0  0  0  0  0  0  0  0  0999 V3000
M  V30 BEGIN CTAB
M  V30 COUNTS 12 12 0 0 1
M  V30 BEGIN ATOM
M  V30 1 O 10.974347 8.969301 -6.369276 0
M  V30 2 C 11.530433 9.617138 -5.305851 0
M  V30 3 C 10.924243 7.657964 -6.020727 0
M  V30 4 C 11.834839 8.746700 -4.291642 0
M  V30 5 C 12.452961 9.071743 -2.960749 0
M  V30 6 C 11.434839 7.466826 -4.771122 0
M  V30 7 H 11.637535 10.684745 -5.429402 0
M  V30 8 H 10.500572 7.000093 -6.765896 0
M  V30 9 H 12.570686 8.170471 -2.359288 0
M  V30 10 H 13.434838 9.517554 -3.104341 0
M  V30 11 H 11.830434 9.774700 -2.406579 0
M  V30 12 H 11.509847 6.518272 -4.259303 0
M  V30 END ATOM
M  V30 BEGIN BOND
M  V30 1 1 2 1
M  V30 2 1 3 1
M  V30 3 2 4 2
M  V30 4 1 5 4
M  V30 5 2 6 3
M  V30 6 1 6 4
M  V30 7 1 7 2
M  V30 8 1 8 3
M  V30 9 1 9 5
M  V30 10 1 10 5
M  V30 11 1 11 5
M  V30 12 1 12 6
M  V30 END BOND
M  V30 END CTAB
M  END
>  <i_epik_Tot_Q>  (1) 
0

>  <i_epik_Tot_abs_Q>  (1) 
0

>  <i_i_glide_confnum>  (1) 
1

>  <i_i_glide_lignum>  (1) 
12

>  <i_i_glide_posenum>  (1) 
213

>  <i_i_glide_rotatable_bonds>  (1) 
0

>  <i_lp_mmshare_version>  (1) 
72125

>  <i_m_source_file_index>  (1) 
10

>  <i_f3d_flags>  (1) 
0

>  <num_sample>  (1) 
50

>  <b_lp_Chiralities_Consistent>  (1) 
1

>  <r_epik_Charging_Adjusted_Penalty>  (1) 
0

>  <r_epik_Ionization_Penalty>  (1) 
0

>  <r_epik_Ionization_Penalty_Charging>  (1) 
0

>  <r_epik_Ionization_Penalty_Neutral>  (1) 
0

>  <r_epik_State_Penalty>  (1) 
-0

>  <r_glide_ring_energy>  (1) 
0

>  <r_i_docking_score>  (1) 
-4.4845511366500066

>  <r_i_glide_ecoul>  (1) 
-0.83454637995654934

>  <r_i_glide_eff_state_penalty>  (1) 
-0

>  <r_i_glide_einternal>  (1) 
0

>  <r_i_glide_emodel>  (1) 
-18.282623499390866

>  <r_i_glide_emodel_strain>  (1) 
0

>  <r_i_glide_energy>  (1) 
-14.130595216757737

>  <r_i_glide_erotb>  (1) 
0

>  <r_i_glide_esite>  (1) 
0

>  <r_i_glide_evdw>  (1) 
-13.296048836801187

>  <r_i_glide_gscore>  (1) 
-4.4845511366500066

>  <r_i_glide_gscore_strain>  (1) 
0

>  <r_i_glide_hbond>  (1) 
0

>  <r_i_glide_ligand_efficiency>  (1) 
-0.7474251894416678

>  <r_i_glide_ligand_efficiency_ln>  (1) 
-1.606352977783585

>  <r_i_glide_ligand_efficiency_sa>  (1) 
-1.3581617033359177

>  <r_i_glide_lipo>  (1) 
-1.3430209857386

>  <r_i_glide_metal>  (1) 
-0

>  <r_i_glide_rewards>  (1) 
-2.3515457520778651

>  <r_lp_Energy>  (1) 
-1.206345

>  <r_lp_tautomer_probability>  (1) 
1

>  <s_epik_cmdline>  (1) 
J2VwaWtfcHl0aG9uJywgJy1waHQnLCAnMS4wJywgJy1waCcsICc3LjQnLCAnLXRuJywgJzgnLCAnLW1hJywgJzUwMCcsICctaW1hZScsICc8aW5maWxlLm1hZT4nLCAnLW9tYWUnLCAnPG91dGZpbGUubWFlPic=

>  <s_epik_input>  (1) 
W2NIXTFbY0hdb1tjSF1jMVtDSDNd

>  <s_glide_docking_method>  (1) 
confgen

>  <s_i_glide_gridfile>  (1) 
gpcr_drd2_6luq_protein_autoprepared_prepared

>  <s_lp_Force_Field>  (1) 
S-OPLS

>  <s_lp_Variant>  (1) 
Pocket2Mol_9_num_sample_50-1

>  <s_m_source_file>  (1) 
generated__ligand_Pocket2Mol_2026-05-06_prepared.sdf

>  <GenAI_Model>  (1) 
Pocket2Mol

>  <Protein>  (1) 
generic_title2

$$$$
Pocket2Mol_9_num_sample_50
     RDKit          3D

  0  0  0  0  0  0  0  0  0  0999 V3000
M  V30 BEGIN CTAB
M  V30 COUNTS 12 12 0 0 1
M  V30 BEGIN ATOM
M  V30 1 O 11.834839 7.714062 -4.291667 0
M  V30 2 C 11.034834 7.194306 -5.268565 0
M  V30 3 C 11.889018 9.050134 -4.529049 0
M  V30 4 C 10.581744 8.170385 -6.117826 0
M  V30 5 C 9.675635 8.000081 -7.308196 0
M  V30 6 C 11.151209 9.380002 -5.626562 0
M  V30 7 H 10.887671 6.125814 -5.215072 0
M  V30 8 H 12.490661 9.616327 -3.833346 0
M  V30 9 H 9.479674 8.957876 -7.790694 0
M  V30 10 H 10.124249 7.328620 -8.040439 0
M  V30 11 H 8.720210 7.574867 -6.996942 0
M  V30 12 H 11.030946 10.375223 -6.029056 0
M  V30 END ATOM
M  V30 BEGIN BOND
M  V30 1 1 2 1
M  V30 2 1 3 1
M  V30 3 2 4 2
M  V30 4 1 5 4
M  V30 5 2 6 3
M  V30 6 1 6 4
M  V30 7 1 7 2
M  V30 8 1 8 3
M  V30 9 1 9 5
M  V30 10 1 10 5
M  V30 11 1 11 5
M  V30 12 1 12 6
M  V30 END BOND
M  V30 END CTAB
M  END
>  <i_epik_Tot_Q>  (1) 
0

>  <i_epik_Tot_abs_Q>  (1) 
0

>  <i_i_glide_confnum>  (1) 
1

>  <i_i_glide_lignum>  (1) 
12

>  <i_i_glide_posenum>  (1) 
135

>  <i_i_glide_rotatable_bonds>  (1) 
0

>  <i_lp_mmshare_version>  (1) 
72125

>  <i_m_source_file_index>  (1) 
10

>  <i_f3d_flags>  (1) 
0

>  <num_sample>  (1) 
50

>  <b_lp_Chiralities_Consistent>  (1) 
1

>  <r_epik_Charging_Adjusted_Penalty>  (1) 
0

>  <r_epik_Ionization_Penalty>  (1) 
0

>  <r_epik_Ionization_Penalty_Charging>  (1) 
0

>  <r_epik_Ionization_Penalty_Neutral>  (1) 
0

>  <r_epik_State_Penalty>  (1) 
-0

>  <r_glide_ring_energy>  (1) 
0

>  <r_i_docking_score>  (1) 
-4.4765640906401352

>  <r_i_glide_ecoul>  (1) 
-0.99640777881510645

>  <r_i_glide_eff_state_penalty>  (1) 
-0

>  <r_i_glide_einternal>  (1) 
0

>  <r_i_glide_emodel>  (1) 
-18.571477654856558

>  <r_i_glide_emodel_strain>  (1) 
0

>  <r_i_glide_energy>  (1) 
-14.426844190549092

>  <r_i_glide_erotb>  (1) 
0

>  <r_i_glide_esite>  (1) 
0

>  <r_i_glide_evdw>  (1) 
-13.430436411733986

>  <r_i_glide_gscore>  (1) 
-4.4765640906401352

>  <r_i_glide_gscore_strain>  (1) 
0

>  <r_i_glide_hbond>  (1) 
0

>  <r_i_glide_ligand_efficiency>  (1) 
-0.74609401510668916

>  <r_i_glide_ligand_efficiency_ln>  (1) 
-1.6034920414823355

>  <r_i_glide_ligand_efficiency_sa>  (1) 
-1.3557427990391786

>  <r_i_glide_lipo>  (1) 
-1.187098036891429

>  <r_i_glide_metal>  (1) 
-0

>  <r_i_glide_rewards>  (1) 
-2.4684830663397404

>  <r_lp_Energy>  (1) 
-1.206345

>  <r_lp_tautomer_probability>  (1) 
1

>  <s_epik_cmdline>  (1) 
J2VwaWtfcHl0aG9uJywgJy1waHQnLCAnMS4wJywgJy1waCcsICc3LjQnLCAnLXRuJywgJzgnLCAnLW1hJywgJzUwMCcsICctaW1hZScsICc8aW5maWxlLm1hZT4nLCAnLW9tYWUnLCAnPG91dGZpbGUubWFlPic=

>  <s_epik_input>  (1) 
W2NIXTFbY0hdb1tjSF1jMVtDSDNd

>  <s_glide_docking_method>  (1) 
confgen

>  <s_i_glide_gridfile>  (1) 
gpcr_drd2_6luq_protein_autoprepared_prepared

>  <s_lp_Force_Field>  (1) 
S-OPLS

>  <s_lp_Variant>  (1) 
Pocket2Mol_9_num_sample_50-1

>  <s_m_source_file>  (1) 
generated__ligand_Pocket2Mol_2026-05-06_prepared.sdf

>  <GenAI_Model>  (1) 
Pocket2Mol

>  <Protein>  (1) 
generic_title2

$$$$
Pocket2Mol_43_num_sample_50
     RDKit          3D

  0  0  0  0  0  0  0  0  0  0999 V3000
M  V30 BEGIN CTAB
M  V30 COUNTS 8 8 0 0 1
M  V30 BEGIN ATOM
M  V30 1 N 11.859239 9.266855 -4.296769 0
M  V30 2 C 11.434836 8.140786 -5.016515 0
M  V30 3 C 11.560337 6.969301 -4.291628 0
M  V30 4 C 12.286560 8.963728 -3.076883 0
M  V30 5 S 12.234839 7.264300 -2.697988 0
M  V30 6 H 11.055583 8.260699 -6.021238 0
M  V30 7 H 11.304536 5.963904 -4.596486 0
M  V30 8 H 12.634836 9.736856 -2.407371 0
M  V30 END ATOM
M  V30 BEGIN BOND
M  V30 1 1 2 1
M  V30 2 2 3 2
M  V30 3 2 4 1
M  V30 4 1 5 3
M  V30 5 1 5 4
M  V30 6 1 6 2
M  V30 7 1 7 3
M  V30 8 1 8 4
M  V30 END BOND
M  V30 END CTAB
M  END
>  <i_epik_Tot_Q>  (1) 
0

>  <i_epik_Tot_abs_Q>  (1) 
0

>  <i_i_glide_confnum>  (1) 
1

>  <i_i_glide_lignum>  (1) 
48

>  <i_i_glide_posenum>  (1) 
63

>  <i_i_glide_rotatable_bonds>  (1) 
0

>  <i_lp_mmshare_version>  (1) 
72125

>  <i_m_source_file_index>  (1) 
44

>  <i_f3d_flags>  (1) 
0

>  <num_sample>  (1) 
50

>  <b_lp_Chiralities_Consistent>  (1) 
1

>  <r_epik_Charging_Adjusted_Penalty>  (1) 
0

>  <r_epik_Ionization_Penalty>  (1) 
1.4882382677604034e-05

>  <r_epik_Ionization_Penalty_Charging>  (1) 
0

>  <r_epik_Ionization_Penalty_Neutral>  (1) 
1.4882382677604034e-05

>  <r_epik_State_Penalty>  (1) 
-0

>  <r_glide_ring_energy>  (1) 
0

>  <r_i_docking_score>  (1) 
-4.4761529687905846

>  <r_i_glide_ecoul>  (1) 
-1.9307577822267266

>  <r_i_glide_eff_state_penalty>  (1) 
-0

>  <r_i_glide_einternal>  (1) 
0

>  <r_i_glide_emodel>  (1) 
-21.088065870962179

>  <r_i_glide_emodel_strain>  (1) 
0

>  <r_i_glide_energy>  (1) 
-16.505482427295334

>  <r_i_glide_erotb>  (1) 
0

>  <r_i_glide_esite>  (1) 
0

>  <r_i_glide_evdw>  (1) 
-14.574724645068608

>  <r_i_glide_gscore>  (1) 
-4.4761529687905846

>  <r_i_glide_gscore_strain>  (1) 
0

>  <r_i_glide_hbond>  (1) 
0

>  <r_i_glide_ligand_efficiency>  (1) 
-0.89523059375811687

>  <r_i_glide_ligand_efficiency_ln>  (1) 
-1.7153705583342278

>  <r_i_glide_ligand_efficiency_sa>  (1) 
-1.5308227820554776

>  <r_i_glide_lipo>  (1) 
-1.0698587890291025

>  <r_i_glide_metal>  (1) 
-0

>  <r_i_glide_rewards>  (1) 
-2.3879442801740436

>  <r_lp_Energy>  (1) 
1.6688799999999999

>  <r_lp_tautomer_probability>  (1) 
1

>  <s_epik_cmdline>  (1) 
J2VwaWtfcHl0aG9uJywgJy1waHQnLCAnMS4wJywgJy1waCcsICc3LjQnLCAnLXRuJywgJzgnLCAnLW1hJywgJzUwMCcsICctaW1hZScsICc8aW5maWxlLm1hZT4nLCAnLW9tYWUnLCAnPG91dGZpbGUubWFlPic=

>  <s_epik_input>  (1) 
bjFbY0hdW2NIXXNbY0hdMQ==

>  <s_glide_docking_method>  (1) 
confgen

>  <s_i_glide_gridfile>  (1) 
gpcr_drd2_6luq_protein_autoprepared_prepared

>  <s_lp_Force_Field>  (1) 
S-OPLS

>  <s_lp_Variant>  (1) 
Pocket2Mol_43_num_sample_50-1

>  <s_m_source_file>  (1) 
generated__ligand_Pocket2Mol_2026-05-06_prepared.sdf

>  <GenAI_Model>  (1) 
Pocket2Mol

>  <Protein>  (1) 
generic_title2

$$$$
Pocket2Mol_27_num_sample_50
     RDKit          3D

  0  0  0  0  0  0  0  0  0  0999 V3000
M  V30 BEGIN CTAB
M  V30 COUNTS 13 13 0 0 1
M  V30 BEGIN ATOM
M  V30 1 N 11.018340 7.748498 -9.731123 0
M  V30 2 C 9.960942 7.723138 -8.842360 0
M  V30 3 C 10.067546 8.099990 -7.552237 0
M  V30 4 C 12.258212 8.169301 -9.286965 0
M  V30 5 O 9.034839 8.074697 -6.698993 0
M  V30 6 C 11.382731 8.569236 -7.037190 0
M  V30 7 O 11.538867 8.937435 -5.872055 0
M  V30 8 C 12.499434 8.569291 -8.020310 0
M  V30 9 H 9.034838 7.374783 -9.272236 0
M  V30 10 H 13.026724 8.154095 -10.045581 0
M  V30 11 H 8.271956 7.766174 -7.173495 0
M  V30 12 H 13.478217 8.895862 -7.704814 0
M  V30 13 H 10.885718 7.460413 -10.691402 0
M  V30 END ATOM
M  V30 BEGIN BOND
M  V30 1 1 2 1
M  V30 2 2 3 2
M  V30 3 1 4 1
M  V30 4 1 5 3
M  V30 5 1 6 3
M  V30 6 2 7 6
M  V30 7 2 8 4
M  V30 8 1 8 6
M  V30 9 1 9 2
M  V30 10 1 10 4
M  V30 11 1 11 5
M  V30 12 1 12 8
M  V30 13 1 13 1
M  V30 END BOND
M  V30 END CTAB
M  END
>  <i_epik_Tot_Q>  (1) 
0

>  <i_epik_Tot_abs_Q>  (1) 
0

>  <i_i_glide_confnum>  (1) 
1

>  <i_i_glide_lignum>  (1) 
31

>  <i_i_glide_posenum>  (1) 
338

>  <i_i_glide_rotatable_bonds>  (1) 
1

>  <i_lp_mmshare_version>  (1) 
72125

>  <i_m_source_file_index>  (1) 
28

>  <i_f3d_flags>  (1) 
0

>  <num_sample>  (1) 
50

>  <b_lp_Chiralities_Consistent>  (1) 
1

>  <r_epik_Charging_Adjusted_Penalty>  (1) 
0.000203171374695584

>  <r_epik_Ionization_Penalty>  (1) 
0.014901896624084464

>  <r_epik_Ionization_Penalty_Charging>  (1) 
0.000203171374695584

>  <r_epik_Ionization_Penalty_Neutral>  (1) 
0.01469872524938888

>  <r_epik_State_Penalty>  (1) 
-0

>  <r_glide_ring_energy>  (1) 
0

>  <r_i_docking_score>  (1) 
-4.4721150001048962

>  <r_i_glide_ecoul>  (1) 
-2.6329429327964378

>  <r_i_glide_eff_state_penalty>  (1) 
-0

>  <r_i_glide_einternal>  (1) 
0.0042924105978514593

>  <r_i_glide_emodel>  (1) 
-26.685868730823326

>  <r_i_glide_emodel_strain>  (1) 
0

>  <r_i_glide_energy>  (1) 
-19.996100937701438

>  <r_i_glide_erotb>  (1) 
0

>  <r_i_glide_esite>  (1) 
0

>  <r_i_glide_evdw>  (1) 
-17.363158004904999

>  <r_i_glide_gscore>  (1) 
-4.4721150001048962

>  <r_i_glide_gscore_strain>  (1) 
0

>  <r_i_glide_hbond>  (1) 
-0.13534645153546168

>  <r_i_glide_ligand_efficiency>  (1) 
-0.55901437501311202

>  <r_i_glide_ligand_efficiency_ln>  (1) 
-1.4522487079476614

>  <r_i_glide_ligand_efficiency_sa>  (1) 
-1.1180287500262243

>  <r_i_glide_lipo>  (1) 
-0.82366920840471902

>  <r_i_glide_metal>  (1) 
-0

>  <r_i_glide_rewards>  (1) 
-2.25

>  <r_lp_Energy>  (1) 
11.500328

>  <r_lp_tautomer_probability>  (1) 
1

>  <s_epik_cmdline>  (1) 
J2VwaWtfcHl0aG9uJywgJy1waHQnLCAnMS4wJywgJy1waCcsICc3LjQnLCAnLXRuJywgJzgnLCAnLW1hJywgJzUwMCcsICctaW1hZScsICc8aW5maWxlLm1hZT4nLCAnLW9tYWUnLCAnPG91dGZpbGUubWFlPic=

>  <s_epik_input>  (1) 
W09IXWMxW2NIXW5bY0hdW2NIXWMxW09IXQ==

>  <s_glide_docking_method>  (1) 
confgen

>  <s_i_glide_gridfile>  (1) 
gpcr_drd2_6luq_protein_autoprepared_prepared

>  <s_lp_Force_Field>  (1) 
S-OPLS

>  <s_lp_Variant>  (1) 
Pocket2Mol_27_num_sample_50-1

>  <s_m_source_file>  (1) 
generated__ligand_Pocket2Mol_2026-05-06_prepared.sdf

>  <GenAI_Model>  (1) 
Pocket2Mol

>  <Protein>  (1) 
generic_title2

$$$$
Pocket2Mol_14_num_sample_50
     RDKit          3D

  0  0  0  0  0  0  0  0  0  0999 V3000
M  V30 BEGIN CTAB
M  V30 COUNTS 17 17 0 0 1
M  V30 BEGIN ATOM
M  V30 1 C 11.829340 8.492057 -7.833472 0
M  V30 2 O 10.628929 8.242321 -8.547440 0
M  V30 3 C 11.516644 9.092760 -6.450203 0
M  V30 4 O 11.354663 8.140760 -5.405232 0
M  V30 5 C 9.932312 7.067225 -8.157827 0
M  V30 6 C 10.634889 6.945555 -5.694917 0
M  V30 7 C 9.471276 7.095522 -6.691667 0
M  V30 8 H 12.472349 7.613157 -7.774792 0
M  V30 9 H 12.372590 9.231219 -8.420546 0
M  V30 10 H 12.338325 9.742908 -6.148780 0
M  V30 11 H 10.634927 9.731092 -6.500225 0
M  V30 12 H 9.057611 6.975468 -8.802345 0
M  V30 13 H 10.547501 6.187562 -8.353294 0
M  V30 14 H 10.250253 6.569302 -4.746383 0
M  V30 15 H 11.333794 6.186455 -6.048922 0
M  V30 16 H 8.877979 7.986300 -6.481270 0
M  V30 17 H 8.793586 6.253229 -6.546947 0
M  V30 END ATOM
M  V30 BEGIN BOND
M  V30 1 1 2 1
M  V30 2 1 3 1
M  V30 3 1 4 3
M  V30 4 1 5 2
M  V30 5 1 6 4
M  V30 6 1 7 5
M  V30 7 1 7 6
M  V30 8 1 8 1
M  V30 9 1 9 1
M  V30 10 1 10 3
M  V30 11 1 11 3
M  V30 12 1 12 5
M  V30 13 1 13 5
M  V30 14 1 14 6
M  V30 15 1 15 6
M  V30 16 1 16 7
M  V30 17 1 17 7
M  V30 END BOND
M  V30 END CTAB
M  END
>  <i_epik_Tot_Q>  (1) 
0

>  <i_epik_Tot_abs_Q>  (1) 
0

>  <i_i_glide_confnum>  (1) 
4

>  <i_i_glide_lignum>  (1) 
17

>  <i_i_glide_posenum>  (1) 
368

>  <i_i_glide_rotatable_bonds>  (1) 
0

>  <i_lp_mmshare_version>  (1) 
72125

>  <i_m_source_file_index>  (1) 
15

>  <i_f3d_flags>  (1) 
0

>  <num_sample>  (1) 
50

>  <b_lp_Chiralities_Consistent>  (1) 
1

>  <r_epik_Charging_Adjusted_Penalty>  (1) 
0

>  <r_epik_Ionization_Penalty>  (1) 
3.933197540425548e-12

>  <r_epik_Ionization_Penalty_Charging>  (1) 
0

>  <r_epik_Ionization_Penalty_Neutral>  (1) 
3.933197540425548e-12

>  <r_epik_State_Penalty>  (1) 
-0

>  <r_glide_ring_energy>  (1) 
0.00034554738616163878

>  <r_i_docking_score>  (1) 
-4.469505039989925

>  <r_i_glide_ecoul>  (1) 
-1.0154201587373959

>  <r_i_glide_eff_state_penalty>  (1) 
-0

>  <r_i_glide_einternal>  (1) 
0

>  <r_i_glide_emodel>  (1) 
-21.838791909365327

>  <r_i_glide_emodel_strain>  (1) 
0

>  <r_i_glide_energy>  (1) 
-16.987887285369322

>  <r_i_glide_erotb>  (1) 
0

>  <r_i_glide_esite>  (1) 
0

>  <r_i_glide_evdw>  (1) 
-15.972467126631924

>  <r_i_glide_gscore>  (1) 
-4.469505039989925

>  <r_i_glide_gscore_strain>  (1) 
0

>  <r_i_glide_hbond>  (1) 
0

>  <r_i_glide_ligand_efficiency>  (1) 
-0.63850071999856073

>  <r_i_glide_ligand_efficiency_ln>  (1) 
-1.5171898713282868

>  <r_i_glide_ligand_efficiency_sa>  (1) 
-1.2214079375078688

>  <r_i_glide_lipo>  (1) 
-0.79234183872454489

>  <r_i_glide_metal>  (1) 
-0

>  <r_i_glide_rewards>  (1) 
-2.7262268211231744

>  <r_lp_Energy>  (1) 
9.641

>  <r_lp_tautomer_probability>  (1) 
1

>  <s_epik_cmdline>  (1) 
J2VwaWtfcHl0aG9uJywgJy1waHQnLCAnMS4wJywgJy1waCcsICc3LjQnLCAnLXRuJywgJzgnLCAnLW1hJywgJzUwMCcsICctaW1hZScsICc8aW5maWxlLm1hZT4nLCAnLW9tYWUnLCAnPG91dGZpbGUubWFlPic=

>  <s_epik_input>  (1) 
W0NIMl0xT1tDSDJdW0NIMl1bQ0gyXU9bQ0gyXTE=

>  <s_glide_docking_method>  (1) 
confgen

>  <s_i_glide_gridfile>  (1) 
gpcr_drd2_6luq_protein_autoprepared_prepared

>  <s_lp_Force_Field>  (1) 
S-OPLS

>  <s_lp_Variant>  (1) 
Pocket2Mol_14_num_sample_50-1

>  <s_m_source_file>  (1) 
generated__ligand_Pocket2Mol_2026-05-06_prepared.sdf

>  <GenAI_Model>  (1) 
Pocket2Mol

>  <Protein>  (1) 
generic_title2

$$$$
Pocket2Mol_17_num_sample_50
     RDKit          3D

  0  0  0  0  0  0  0  0  0  0999 V3000
M  V30 BEGIN CTAB
M  V30 COUNTS 15 15 0 0 1
M  V30 BEGIN ATOM
M  V30 1 C 11.539179 8.569302 -8.669603 0
M  V30 2 O 11.920175 8.647248 -7.349140 0
M  V30 3 C 10.898384 8.460574 -6.379754 0
M  V30 4 C 10.726247 6.969309 -6.065185 0
M  V30 5 O 10.634856 6.169301 -7.232441 0
M  V30 6 C 9.834839 6.710897 -8.270534 0
M  V30 7 C 10.591160 7.719007 -9.126383 0
M  V30 8 H 12.072055 9.275227 -9.290539 0
M  V30 9 H 9.960952 8.921325 -6.698508 0
M  V30 10 H 11.188095 8.987591 -5.470561 0
M  V30 11 H 9.834764 6.820691 -5.456560 0
M  V30 12 H 11.569615 6.604984 -5.478528 0
M  V30 13 H 8.897791 7.126341 -7.896486 0
M  V30 14 H 9.562941 5.880290 -8.921938 0
M  V30 15 H 10.337657 7.732025 -10.176183 0
M  V30 END ATOM
M  V30 BEGIN BOND
M  V30 1 1 2 1
M  V30 2 1 3 2
M  V30 3 1 4 3
M  V30 4 1 5 4
M  V30 5 1 6 5
M  V30 6 2 7 1
M  V30 7 1 7 6
M  V30 8 1 8 1
M  V30 9 1 9 3
M  V30 10 1 10 3
M  V30 11 1 11 4
M  V30 12 1 12 4
M  V30 13 1 13 6
M  V30 14 1 14 6
M  V30 15 1 15 7
M  V30 END BOND
M  V30 END CTAB
M  END
>  <i_epik_Tot_Q>  (1) 
0

>  <i_epik_Tot_abs_Q>  (1) 
0

>  <i_i_glide_confnum>  (1) 
4

>  <i_i_glide_lignum>  (1) 
20

>  <i_i_glide_posenum>  (1) 
369

>  <i_i_glide_rotatable_bonds>  (1) 
0

>  <i_lp_mmshare_version>  (1) 
72125

>  <i_m_source_file_index>  (1) 
18

>  <i_f3d_flags>  (1) 
0

>  <num_sample>  (1) 
50

>  <b_lp_Chiralities_Consistent>  (1) 
1

>  <r_epik_Charging_Adjusted_Penalty>  (1) 
0

>  <r_epik_Ionization_Penalty>  (1) 
5.6701613537443791e-14

>  <r_epik_Ionization_Penalty_Charging>  (1) 
0

>  <r_epik_Ionization_Penalty_Neutral>  (1) 
5.6701613537443791e-14

>  <r_epik_State_Penalty>  (1) 
-0

>  <r_glide_ring_energy>  (1) 
0.98544188256928789

>  <r_i_docking_score>  (1) 
-4.4658904130602233

>  <r_i_glide_ecoul>  (1) 
-0.63714366721416327

>  <r_i_glide_eff_state_penalty>  (1) 
-0

>  <r_i_glide_einternal>  (1) 
0

>  <r_i_glide_emodel>  (1) 
-21.163922702875439

>  <r_i_glide_emodel_strain>  (1) 
0

>  <r_i_glide_energy>  (1) 
-16.507182754266903

>  <r_i_glide_erotb>  (1) 
0

>  <r_i_glide_esite>  (1) 
0

>  <r_i_glide_evdw>  (1) 
-15.87003908705274

>  <r_i_glide_gscore>  (1) 
-4.4658904130602233

>  <r_i_glide_gscore_strain>  (1) 
0

>  <r_i_glide_hbond>  (1) 
0

>  <r_i_glide_ligand_efficiency>  (1) 
-0.63798434472288901

>  <r_i_glide_ligand_efficiency_ln>  (1) 
-1.5159628729655359

>  <r_i_glide_ligand_efficiency_sa>  (1) 
-1.2204201471410239

>  <r_i_glide_lipo>  (1) 
-0.831016548013225

>  <r_i_glide_metal>  (1) 
-0

>  <r_i_glide_rewards>  (1) 
-2.745800360612237

>  <r_lp_Energy>  (1) 
7.3473319999999998

>  <r_lp_tautomer_probability>  (1) 
1

>  <s_epik_cmdline>  (1) 
J2VwaWtfcHl0aG9uJywgJy1waHQnLCAnMS4wJywgJy1waCcsICc3LjQnLCAnLXRuJywgJzgnLCAnLW1hJywgJzUwMCcsICctaW1hZScsICc8aW5maWxlLm1hZT4nLCAnLW9tYWUnLCAnPG91dGZpbGUubWFlPic=

>  <s_epik_input>  (1) 
W0NIXTE9W0NIXVtDSDJdT1tDSDJdW0NIMl1PMQ==

>  <s_glide_docking_method>  (1) 
confgen

>  <s_i_glide_gridfile>  (1) 
gpcr_drd2_6luq_protein_autoprepared_prepared

>  <s_lp_Force_Field>  (1) 
S-OPLS

>  <s_lp_Variant>  (1) 
Pocket2Mol_17_num_sample_50-1

>  <s_m_source_file>  (1) 
generated__ligand_Pocket2Mol_2026-05-06_prepared.sdf

>  <GenAI_Model>  (1) 
Pocket2Mol

>  <Protein>  (1) 
generic_title2

$$$$
Pocket2Mol_7_num_sample_50
     RDKit          3D

  0  0  0  0  0  0  0  0  0  0999 V3000
M  V30 BEGIN CTAB
M  V30 COUNTS 13 13 0 0 1
M  V30 BEGIN ATOM
M  V30 1 N 11.319222 7.812231 -8.609044 0
M  V30 2 C 11.834839 8.576408 -7.603346 0
M  V30 3 C 11.037692 8.773798 -6.595056 0
M  V30 4 C 10.140532 7.576503 -8.105059 0
M  V30 5 C 11.377222 9.584093 -5.360938 0
M  V30 6 C 9.711887 8.144944 -6.697008 0
M  V30 7 H 12.840224 8.962261 -7.695533 0
M  V30 8 H 9.387743 6.977310 -8.624975 0
M  V30 9 H 10.638111 10.372354 -5.211137 0
M  V30 10 H 11.380429 8.944058 -4.478495 0
M  V30 11 H 12.360290 10.047251 -5.452733 0
M  V30 12 H 8.885262 8.851889 -6.770752 0
M  V30 13 H 9.537328 7.357299 -5.963619 0
M  V30 END ATOM
M  V30 BEGIN BOND
M  V30 1 1 2 1
M  V30 2 2 3 2
M  V30 3 2 4 1
M  V30 4 1 5 3
M  V30 5 1 6 3
M  V30 6 1 6 4
M  V30 7 1 7 2
M  V30 8 1 8 4
M  V30 9 1 9 5
M  V30 10 1 10 5
M  V30 11 1 11 5
M  V30 12 1 12 6
M  V30 13 1 13 6
M  V30 END BOND
M  V30 END CTAB
M  END
>  <i_epik_Tot_Q>  (1) 
0

>  <i_epik_Tot_abs_Q>  (1) 
0

>  <i_i_glide_confnum>  (1) 
1

>  <i_i_glide_lignum>  (1) 
8

>  <i_i_glide_posenum>  (1) 
214

>  <i_i_glide_rotatable_bonds>  (1) 
0

>  <i_lp_mmshare_version>  (1) 
72125

>  <i_m_source_file_index>  (1) 
8

>  <i_f3d_flags>  (1) 
0

>  <num_sample>  (1) 
50

>  <b_lp_Chiralities_Consistent>  (1) 
1

>  <r_epik_Charging_Adjusted_Penalty>  (1) 
0

>  <r_epik_Ionization_Penalty>  (1) 
0

>  <r_epik_Ionization_Penalty_Charging>  (1) 
0

>  <r_epik_Ionization_Penalty_Neutral>  (1) 
0

>  <r_epik_State_Penalty>  (1) 
-0

>  <r_glide_ring_energy>  (1) 
0

>  <r_i_docking_score>  (1) 
-4.45736171373877

>  <r_i_glide_ecoul>  (1) 
-0.72435159007906691

>  <r_i_glide_eff_state_penalty>  (1) 
-0

>  <r_i_glide_einternal>  (1) 
0

>  <r_i_glide_emodel>  (1) 
-21.819173191621942

>  <r_i_glide_emodel_strain>  (1) 
0

>  <r_i_glide_energy>  (1) 
-16.915735725167142

>  <r_i_glide_erotb>  (1) 
0

>  <r_i_glide_esite>  (1) 
-0.05599638933001444

>  <r_i_glide_evdw>  (1) 
-16.191384135088075

>  <r_i_glide_gscore>  (1) 
-4.45736171373877

>  <r_i_glide_gscore_strain>  (1) 
0

>  <r_i_glide_hbond>  (1) 
0

>  <r_i_glide_ligand_efficiency>  (1) 
-0.74289361895646167

>  <r_i_glide_ligand_efficiency_ln>  (1) 
-1.5966138067658344

>  <r_i_glide_ligand_efficiency_sa>  (1) 
-1.3499272932893795

>  <r_i_glide_lipo>  (1) 
-0.86647671247582447

>  <r_i_glide_metal>  (1) 
-0

>  <r_i_glide_rewards>  (1) 
-2.6166666666666667

>  <r_lp_Energy>  (1) 
-3.9959819999999997

>  <r_lp_tautomer_probability>  (1) 
1

>  <s_epik_Chemistry_Notes>  (1) 
This compound has an imine and may undergo hydrolysis.

>  <s_epik_cmdline>  (1) 
J2VwaWtfcHl0aG9uJywgJy1waHQnLCAnMS4wJywgJy1waCcsICc3LjQnLCAnLXRuJywgJzgnLCAnLW1hJywgJzUwMCcsICctaW1hZScsICc8aW5maWxlLm1hZT4nLCAnLW9tYWUnLCAnPG91dGZpbGUubWFlPic=

>  <s_epik_input>  (1) 
W0NIMl0xW0NIXT1OW0NIXT1DMVtDSDNd

>  <s_glide_docking_method>  (1) 
confgen

>  <s_i_glide_gridfile>  (1) 
gpcr_drd2_6luq_protein_autoprepared_prepared

>  <s_lp_Force_Field>  (1) 
S-OPLS

>  <s_lp_Variant>  (1) 
Pocket2Mol_7_num_sample_50-1

>  <s_m_source_file>  (1) 
generated__ligand_Pocket2Mol_2026-05-06_prepared.sdf

>  <GenAI_Model>  (1) 
Pocket2Mol

>  <Protein>  (1) 
generic_title2

$$$$
Pocket2Mol_14_num_sample_50
     RDKit          3D

  0  0  0  0  0  0  0  0  0  0999 V3000
M  V30 BEGIN CTAB
M  V30 COUNTS 17 17 0 0 1
M  V30 BEGIN ATOM
M  V30 1 C 11.568283 8.473110 -9.222522 0
M  V30 2 O 10.686114 7.369269 -9.380061 0
M  V30 3 C 12.378351 8.445915 -7.918648 0
M  V30 4 O 11.700267 9.152331 -6.891677 0
M  V30 5 C 9.888768 6.970864 -8.265656 0
M  V30 6 C 10.632383 8.435639 -6.291489 0
M  V30 7 C 9.501975 8.085436 -7.274923 0
M  V30 8 H 12.252704 8.444221 -10.070694 0
M  V30 9 H 11.019144 9.409320 -9.315182 0
M  V30 10 H 12.634869 7.430142 -7.616257 0
M  V30 11 H 13.320593 8.969301 -8.083060 0
M  V30 12 H 8.983825 6.520201 -8.673262 0
M  V30 13 H 10.404867 6.168938 -7.736244 0
M  V30 14 H 10.234845 9.066571 -5.496974 0
M  V30 15 H 11.012928 7.537118 -5.803424 0
M  V30 16 H 9.140003 8.969284 -7.800783 0
M  V30 17 H 8.652494 7.727164 -6.691442 0
M  V30 END ATOM
M  V30 BEGIN BOND
M  V30 1 1 2 1
M  V30 2 1 3 1
M  V30 3 1 4 3
M  V30 4 1 5 2
M  V30 5 1 6 4
M  V30 6 1 7 5
M  V30 7 1 7 6
M  V30 8 1 8 1
M  V30 9 1 9 1
M  V30 10 1 10 3
M  V30 11 1 11 3
M  V30 12 1 12 5
M  V30 13 1 13 5
M  V30 14 1 14 6
M  V30 15 1 15 6
M  V30 16 1 16 7
M  V30 17 1 17 7
M  V30 END BOND
M  V30 END CTAB
M  END
>  <i_epik_Tot_Q>  (1) 
0

>  <i_epik_Tot_abs_Q>  (1) 
0

>  <i_i_glide_confnum>  (1) 
13

>  <i_i_glide_lignum>  (1) 
17

>  <i_i_glide_posenum>  (1) 
241

>  <i_i_glide_rotatable_bonds>  (1) 
0

>  <i_lp_mmshare_version>  (1) 
72125

>  <i_m_source_file_index>  (1) 
15

>  <i_f3d_flags>  (1) 
0

>  <num_sample>  (1) 
50

>  <b_lp_Chiralities_Consistent>  (1) 
1

>  <r_epik_Charging_Adjusted_Penalty>  (1) 
0

>  <r_epik_Ionization_Penalty>  (1) 
3.933197540425548e-12

>  <r_epik_Ionization_Penalty_Charging>  (1) 
0

>  <r_epik_Ionization_Penalty_Neutral>  (1) 
3.933197540425548e-12

>  <r_epik_State_Penalty>  (1) 
-0

>  <r_glide_ring_energy>  (1) 
0.0013247502693584507

>  <r_i_docking_score>  (1) 
-4.4544351555172526

>  <r_i_glide_ecoul>  (1) 
-0.62706714062675972

>  <r_i_glide_eff_state_penalty>  (1) 
-0

>  <r_i_glide_einternal>  (1) 
0

>  <r_i_glide_emodel>  (1) 
-21.400631915968869

>  <r_i_glide_emodel_strain>  (1) 
1.3174172863728018e-10

>  <r_i_glide_energy>  (1) 
-16.566083146190795

>  <r_i_glide_erotb>  (1) 
0

>  <r_i_glide_esite>  (1) 
0

>  <r_i_glide_evdw>  (1) 
-15.939016005564037

>  <r_i_glide_gscore>  (1) 
-4.4544351555172526

>  <r_i_glide_gscore_strain>  (1) 
0

>  <r_i_glide_hbond>  (1) 
0

>  <r_i_glide_ligand_efficiency>  (1) 
-0.63634787935960746

>  <r_i_glide_ligand_efficiency_ln>  (1) 
-1.512074343796836

>  <r_i_glide_ligand_efficiency_sa>  (1) 
-1.2172897015180757

>  <r_i_glide_lipo>  (1) 
-0.83118381213802561

>  <r_i_glide_metal>  (1) 
-0

>  <r_i_glide_rewards>  (1) 
-2.7322404720070113

>  <r_lp_Energy>  (1) 
9.641

>  <r_lp_tautomer_probability>  (1) 
1

>  <s_epik_cmdline>  (1) 
J2VwaWtfcHl0aG9uJywgJy1waHQnLCAnMS4wJywgJy1waCcsICc3LjQnLCAnLXRuJywgJzgnLCAnLW1hJywgJzUwMCcsICctaW1hZScsICc8aW5maWxlLm1hZT4nLCAnLW9tYWUnLCAnPG91dGZpbGUubWFlPic=

>  <s_epik_input>  (1) 
W0NIMl0xT1tDSDJdW0NIMl1bQ0gyXU9bQ0gyXTE=

>  <s_glide_docking_method>  (1) 
confgen

>  <s_i_glide_gridfile>  (1) 
gpcr_drd2_6luq_protein_autoprepared_prepared

>  <s_lp_Force_Field>  (1) 
S-OPLS

>  <s_lp_Variant>  (1) 
Pocket2Mol_14_num_sample_50-1

>  <s_m_source_file>  (1) 
generated__ligand_Pocket2Mol_2026-05-06_prepared.sdf

>  <GenAI_Model>  (1) 
Pocket2Mol

>  <Protein>  (1) 
generic_title2

$$$$
Pocket2Mol_1_num_sample_50
     RDKit          3D

  0  0  0  0  0  0  0  0  0  0999 V3000
M  V30 BEGIN CTAB
M  V30 COUNTS 10 10 0 0 1
M  V30 BEGIN ATOM
M  V30 1 N 12.634022 9.033851 -2.692752 0
M  V30 2 C 12.151292 8.969176 -3.975180 0
M  V30 3 C 11.834828 7.658744 -4.215392 0
M  V30 4 C 12.141674 6.916078 -3.029136 0
M  V30 5 C 12.634839 7.797298 -2.106358 0
M  V30 6 H 12.950723 9.883754 -2.237955 0
M  V30 7 H 12.076623 9.851422 -4.593403 0
M  V30 8 H 11.427568 7.272552 -5.139823 0
M  V30 9 H 12.013011 5.853459 -2.873025 0
M  V30 10 H 12.984343 7.659501 -1.094878 0
M  V30 END ATOM
M  V30 BEGIN BOND
M  V30 1 1 2 1
M  V30 2 2 3 2
M  V30 3 1 4 3
M  V30 4 1 5 1
M  V30 5 2 5 4
M  V30 6 1 6 1
M  V30 7 1 7 2
M  V30 8 1 8 3
M  V30 9 1 9 4
M  V30 10 1 10 5
M  V30 END BOND
M  V30 END CTAB
M  END
>  <i_epik_Tot_Q>  (1) 
0

>  <i_epik_Tot_abs_Q>  (1) 
0

>  <i_i_glide_confnum>  (1) 
1

>  <i_i_glide_lignum>  (1) 
2

>  <i_i_glide_posenum>  (1) 
211

>  <i_i_glide_rotatable_bonds>  (1) 
0

>  <i_lp_mmshare_version>  (1) 
72125

>  <i_m_source_file_index>  (1) 
2

>  <i_f3d_flags>  (1) 
0

>  <num_sample>  (1) 
50

>  <b_lp_Chiralities_Consistent>  (1) 
1

>  <r_epik_Charging_Adjusted_Penalty>  (1) 
0

>  <r_epik_Ionization_Penalty>  (1) 
4.7655302421719939e-09

>  <r_epik_Ionization_Penalty_Charging>  (1) 
0

>  <r_epik_Ionization_Penalty_Neutral>  (1) 
4.7655302421719939e-09

>  <r_epik_State_Penalty>  (1) 
-0

>  <r_glide_ring_energy>  (1) 
0

>  <r_i_docking_score>  (1) 
-4.4520914450324369

>  <r_i_glide_ecoul>  (1) 
-2.2312997944297988

>  <r_i_glide_eff_state_penalty>  (1) 
-0

>  <r_i_glide_einternal>  (1) 
0

>  <r_i_glide_emodel>  (1) 
-18.251894797874115

>  <r_i_glide_emodel_strain>  (1) 
0

>  <r_i_glide_energy>  (1) 
-13.190820635265005

>  <r_i_glide_erotb>  (1) 
0

>  <r_i_glide_esite>  (1) 
0

>  <r_i_glide_evdw>  (1) 
-10.959520840835207

>  <r_i_glide_gscore>  (1) 
-4.4520914450324369

>  <r_i_glide_gscore_strain>  (1) 
0

>  <r_i_glide_hbond>  (1) 
-0.32000000000000001

>  <r_i_glide_ligand_efficiency>  (1) 
-0.89041828900648734

>  <r_i_glide_ligand_efficiency_ln>  (1) 
-1.706149597895394

>  <r_i_glide_ligand_efficiency_sa>  (1) 
-1.5225938566821131

>  <r_i_glide_lipo>  (1) 
-0.99942043382620749

>  <r_i_glide_metal>  (1) 
-0

>  <r_i_glide_rewards>  (1) 
-2.25

>  <r_lp_Energy>  (1) 
2.9132020000000001

>  <r_lp_tautomer_probability>  (1) 
1

>  <s_epik_cmdline>  (1) 
J2VwaWtfcHl0aG9uJywgJy1waHQnLCAnMS4wJywgJy1waCcsICc3LjQnLCAnLXRuJywgJzgnLCAnLW1hJywgJzUwMCcsICctaW1hZScsICc8aW5maWxlLm1hZT4nLCAnLW9tYWUnLCAnPG91dGZpbGUubWFlPic=

>  <s_epik_input>  (1) 
W25IXTFbY0hdW2NIXVtjSF1bY0hdMQ==

>  <s_glide_docking_method>  (1) 
confgen

>  <s_i_glide_gridfile>  (1) 
gpcr_drd2_6luq_protein_autoprepared_prepared

>  <s_lp_Force_Field>  (1) 
S-OPLS

>  <s_lp_Variant>  (1) 
Pocket2Mol_1_num_sample_50-1

>  <s_m_source_file>  (1) 
generated__ligand_Pocket2Mol_2026-05-06_prepared.sdf

>  <GenAI_Model>  (1) 
Pocket2Mol

>  <Protein>  (1) 
generic_title2

$$$$
Pocket2Mol_1_num_sample_50
     RDKit          3D

  0  0  0  0  0  0  0  0  0  0999 V3000
M  V30 BEGIN CTAB
M  V30 COUNTS 10 10 0 0 1
M  V30 BEGIN ATOM
M  V30 1 N 9.434867 7.944523 -8.792471 0
M  V30 2 C 9.849915 7.979479 -7.478363 0
M  V30 3 C 11.191947 8.242686 -7.493247 0
M  V30 4 C 11.598001 8.370133 -8.855155 0
M  V30 5 C 10.494807 8.181886 -9.641331 0
M  V30 6 H 8.485793 7.769301 -9.091820 0
M  V30 7 H 9.158422 7.815469 -6.664624 0
M  V30 8 H 11.818096 8.334412 -6.617776 0
M  V30 9 H 12.593673 8.577839 -9.219057 0
M  V30 10 H 10.365722 8.194398 -10.713903 0
M  V30 END ATOM
M  V30 BEGIN BOND
M  V30 1 1 2 1
M  V30 2 2 3 2
M  V30 3 1 4 3
M  V30 4 1 5 1
M  V30 5 2 5 4
M  V30 6 1 6 1
M  V30 7 1 7 2
M  V30 8 1 8 3
M  V30 9 1 9 4
M  V30 10 1 10 5
M  V30 END BOND
M  V30 END CTAB
M  END
>  <i_epik_Tot_Q>  (1) 
0

>  <i_epik_Tot_abs_Q>  (1) 
0

>  <i_i_glide_confnum>  (1) 
1

>  <i_i_glide_lignum>  (1) 
2

>  <i_i_glide_posenum>  (1) 
194

>  <i_i_glide_rotatable_bonds>  (1) 
0

>  <i_lp_mmshare_version>  (1) 
72125

>  <i_m_source_file_index>  (1) 
2

>  <i_f3d_flags>  (1) 
0

>  <num_sample>  (1) 
50

>  <b_lp_Chiralities_Consistent>  (1) 
1

>  <r_epik_Charging_Adjusted_Penalty>  (1) 
0

>  <r_epik_Ionization_Penalty>  (1) 
4.7655302421719939e-09

>  <r_epik_Ionization_Penalty_Charging>  (1) 
0

>  <r_epik_Ionization_Penalty_Neutral>  (1) 
4.7655302421719939e-09

>  <r_epik_State_Penalty>  (1) 
-0

>  <r_glide_ring_energy>  (1) 
0

>  <r_i_docking_score>  (1) 
-4.4373496942455706

>  <r_i_glide_ecoul>  (1) 
-7.1833787118106347

>  <r_i_glide_eff_state_penalty>  (1) 
-0

>  <r_i_glide_einternal>  (1) 
0

>  <r_i_glide_emodel>  (1) 
-19.801693692012332

>  <r_i_glide_emodel_strain>  (1) 
0

>  <r_i_glide_energy>  (1) 
-14.757377741794006

>  <r_i_glide_erotb>  (1) 
0

>  <r_i_glide_esite>  (1) 
-0.10000000000000001

>  <r_i_glide_evdw>  (1) 
-7.573999029983371

>  <r_i_glide_gscore>  (1) 
-4.4373496942455706

>  <r_i_glide_gscore_strain>  (1) 
0

>  <r_i_glide_hbond>  (1) 
-0.16

>  <r_i_glide_ligand_efficiency>  (1) 
-0.88746993884911407

>  <r_i_glide_ligand_efficiency_ln>  (1) 
-1.7005002008675432

>  <r_i_glide_ligand_efficiency_sa>  (1) 
-1.5175522488306243

>  <r_i_glide_lipo>  (1) 
-0.47114293597480705

>  <r_i_glide_metal>  (1) 
-0

>  <r_i_glide_rewards>  (1) 
-2.25

>  <r_lp_Energy>  (1) 
2.9132020000000001

>  <r_lp_tautomer_probability>  (1) 
1

>  <s_epik_cmdline>  (1) 
J2VwaWtfcHl0aG9uJywgJy1waHQnLCAnMS4wJywgJy1waCcsICc3LjQnLCAnLXRuJywgJzgnLCAnLW1hJywgJzUwMCcsICctaW1hZScsICc8aW5maWxlLm1hZT4nLCAnLW9tYWUnLCAnPG91dGZpbGUubWFlPic=

>  <s_epik_input>  (1) 
W25IXTFbY0hdW2NIXVtjSF1bY0hdMQ==

>  <s_glide_docking_method>  (1) 
confgen

>  <s_i_glide_gridfile>  (1) 
gpcr_drd2_6luq_protein_autoprepared_prepared

>  <s_lp_Force_Field>  (1) 
S-OPLS

>  <s_lp_Variant>  (1) 
Pocket2Mol_1_num_sample_50-1

>  <s_m_source_file>  (1) 
generated__ligand_Pocket2Mol_2026-05-06_prepared.sdf

>  <GenAI_Model>  (1) 
Pocket2Mol

>  <Protein>  (1) 
generic_title2

$$$$
Pocket2Mol_11_num_sample_50
     RDKit          3D

  0  0  0  0  0  0  0  0  0  0999 V3000
M  V30 BEGIN CTAB
M  V30 COUNTS 14 14 0 0 1
M  V30 BEGIN ATOM
M  V30 1 O 12.203512 6.914835 -2.617829 0
M  V30 2 C 11.834839 7.137687 -3.891283 0
M  V30 3 C 12.434499 8.294014 -2.133852 0
M  V30 4 C 11.834669 8.371332 -4.291661 0
M  V30 5 C 11.436026 8.835719 -5.677942 0
M  V30 6 C 12.234944 9.368091 -3.301398 0
M  V30 7 H 11.568967 6.250441 -4.448662 0
M  V30 8 H 13.434465 8.376427 -1.711211 0
M  V30 9 H 11.736901 8.497760 -1.320969 0
M  V30 10 H 10.591475 9.521979 -5.619295 0
M  V30 11 H 12.266333 9.355568 -6.156404 0
M  V30 12 H 11.148595 7.993046 -6.308016 0
M  V30 13 H 13.167300 9.849244 -3.592600 0
M  V30 14 H 11.448590 10.095435 -3.094363 0
M  V30 END ATOM
M  V30 BEGIN BOND
M  V30 1 1 2 1
M  V30 2 1 3 1
M  V30 3 2 4 2
M  V30 4 1 5 4
M  V30 5 1 6 3
M  V30 6 1 6 4
M  V30 7 1 7 2
M  V30 8 1 8 3
M  V30 9 1 9 3
M  V30 10 1 10 5
M  V30 11 1 11 5
M  V30 12 1 12 5
M  V30 13 1 13 6
M  V30 14 1 14 6
M  V30 END BOND
M  V30 END CTAB
M  END
>  <i_epik_Tot_Q>  (1) 
0

>  <i_epik_Tot_abs_Q>  (1) 
0

>  <i_i_glide_confnum>  (1) 
1

>  <i_i_glide_lignum>  (1) 
14

>  <i_i_glide_posenum>  (1) 
68

>  <i_i_glide_rotatable_bonds>  (1) 
0

>  <i_lp_mmshare_version>  (1) 
72125

>  <i_m_source_file_index>  (1) 
12

>  <i_f3d_flags>  (1) 
0

>  <num_sample>  (1) 
50

>  <b_lp_Chiralities_Consistent>  (1) 
1

>  <r_epik_Charging_Adjusted_Penalty>  (1) 
0

>  <r_epik_Ionization_Penalty>  (1) 
0

>  <r_epik_Ionization_Penalty_Charging>  (1) 
0

>  <r_epik_Ionization_Penalty_Neutral>  (1) 
0

>  <r_epik_State_Penalty>  (1) 
-0

>  <r_glide_ring_energy>  (1) 
0

>  <r_i_docking_score>  (1) 
-4.430596982490389

>  <r_i_glide_ecoul>  (1) 
-0.13065893679393842

>  <r_i_glide_eff_state_penalty>  (1) 
-0

>  <r_i_glide_einternal>  (1) 
0

>  <r_i_glide_emodel>  (1) 
-19.462750347053039

>  <r_i_glide_emodel_strain>  (1) 
0

>  <r_i_glide_energy>  (1) 
-15.138878555491374

>  <r_i_glide_erotb>  (1) 
0

>  <r_i_glide_esite>  (1) 
0

>  <r_i_glide_evdw>  (1) 
-15.008219618697435

>  <r_i_glide_gscore>  (1) 
-4.430596982490389

>  <r_i_glide_gscore_strain>  (1) 
0

>  <r_i_glide_hbond>  (1) 
0

>  <r_i_glide_ligand_efficiency>  (1) 
-0.7384328304150648

>  <r_i_glide_ligand_efficiency_ln>  (1) 
-1.587026759047937

>  <r_i_glide_ligand_efficiency_sa>  (1) 
-1.3418215025705376

>  <r_i_glide_lipo>  (1) 
-1.287640173053739

>  <r_i_glide_metal>  (1) 
-0

>  <r_i_glide_rewards>  (1) 
-2.3729469879826874

>  <r_lp_Energy>  (1) 
-7.9393969999999996

>  <r_lp_tautomer_probability>  (1) 
1

>  <s_epik_cmdline>  (1) 
J2VwaWtfcHl0aG9uJywgJy1waHQnLCAnMS4wJywgJy1waCcsICc3LjQnLCAnLXRuJywgJzgnLCAnLW1hJywgJzUwMCcsICctaW1hZScsICc8aW5maWxlLm1hZT4nLCAnLW9tYWUnLCAnPG91dGZpbGUubWFlPic=

>  <s_epik_input>  (1) 
W0NIMl0xW0NIMl1PW0NIXT1DMVtDSDNd

>  <s_glide_docking_method>  (1) 
confgen

>  <s_i_glide_gridfile>  (1) 
gpcr_drd2_6luq_protein_autoprepared_prepared

>  <s_lp_Force_Field>  (1) 
S-OPLS

>  <s_lp_Variant>  (1) 
Pocket2Mol_11_num_sample_50-1

>  <s_m_source_file>  (1) 
generated__ligand_Pocket2Mol_2026-05-06_prepared.sdf

>  <GenAI_Model>  (1) 
Pocket2Mol

>  <Protein>  (1) 
generic_title2

$$$$
Pocket2Mol_3_num_sample_50
     RDKit          3D

  0  0  0  0  0  0  0  0  0  0999 V3000
M  V30 BEGIN CTAB
M  V30 COUNTS 9 9 0 0 1
M  V30 BEGIN ATOM
M  V30 1 N 12.634839 8.969301 -2.513109 0
M  V30 2 C 12.199434 8.928637 -3.803098 0
M  V30 3 C 11.834839 7.641889 -4.059418 0
M  V30 4 C 12.102202 6.963916 -2.825624 0
M  V30 5 N 12.591621 7.781428 -1.891667 0
M  V30 6 H 12.976878 9.801994 -2.040378 0
M  V30 7 H 12.180802 9.808477 -4.428780 0
M  V30 8 H 11.438749 7.239967 -4.980694 0
M  V30 9 H 11.957494 5.920547 -2.583659 0
M  V30 END ATOM
M  V30 BEGIN BOND
M  V30 1 1 2 1
M  V30 2 2 3 2
M  V30 3 1 4 3
M  V30 4 1 5 1
M  V30 5 2 5 4
M  V30 6 1 6 1
M  V30 7 1 7 2
M  V30 8 1 8 3
M  V30 9 1 9 4
M  V30 END BOND
M  V30 END CTAB
M  END
>  <i_epik_Tot_Q>  (1) 
0

>  <i_epik_Tot_abs_Q>  (1) 
0

>  <i_i_glide_confnum>  (1) 
1

>  <i_i_glide_lignum>  (1) 
4

>  <i_i_glide_posenum>  (1) 
376

>  <i_i_glide_rotatable_bonds>  (1) 
0

>  <i_lp_mmshare_version>  (1) 
72125

>  <i_m_source_file_index>  (1) 
4

>  <i_f3d_flags>  (1) 
0

>  <num_sample>  (1) 
50

>  <b_lp_Chiralities_Consistent>  (1) 
1

>  <r_epik_Charging_Adjusted_Penalty>  (1) 
0

>  <r_epik_Ionization_Penalty>  (1) 
1.0045315435319e-05

>  <r_epik_Ionization_Penalty_Charging>  (1) 
0

>  <r_epik_Ionization_Penalty_Neutral>  (1) 
1.0045315435319e-05

>  <r_epik_State_Penalty>  (1) 
-0

>  <r_glide_ring_energy>  (1) 
0

>  <r_i_docking_score>  (1) 
-4.4146827521523342

>  <r_i_glide_ecoul>  (1) 
-3.284752397454719

>  <r_i_glide_eff_state_penalty>  (1) 
-0

>  <r_i_glide_einternal>  (1) 
0

>  <r_i_glide_emodel>  (1) 
-20.695003176141977

>  <r_i_glide_emodel_strain>  (1) 
0

>  <r_i_glide_energy>  (1) 
-15.42944362872618

>  <r_i_glide_erotb>  (1) 
0

>  <r_i_glide_esite>  (1) 
0

>  <r_i_glide_evdw>  (1) 
-12.144691231271461

>  <r_i_glide_gscore>  (1) 
-4.4146827521523342

>  <r_i_glide_gscore_strain>  (1) 
0

>  <r_i_glide_hbond>  (1) 
-0.32000000000000001

>  <r_i_glide_ligand_efficiency>  (1) 
-0.88293655043046682

>  <r_i_glide_ligand_efficiency_ln>  (1) 
-1.6918136780017463

>  <r_i_glide_ligand_efficiency_sa>  (1) 
-1.5098002636777947

>  <r_i_glide_lipo>  (1) 
-0.74473533097055344

>  <r_i_glide_metal>  (1) 
-0

>  <r_i_glide_rewards>  (1) 
-2.25

>  <r_lp_Energy>  (1) 
2.3130189999999997

>  <r_lp_tautomer_probability>  (1) 
1

>  <s_epik_cmdline>  (1) 
J2VwaWtfcHl0aG9uJywgJy1waHQnLCAnMS4wJywgJy1waCcsICc3LjQnLCAnLXRuJywgJzgnLCAnLW1hJywgJzUwMCcsICctaW1hZScsICc8aW5maWxlLm1hZT4nLCAnLW9tYWUnLCAnPG91dGZpbGUubWFlPic=

>  <s_epik_input>  (1) 
W25IXTFbY0hdW2NIXVtjSF1uMQ==

>  <s_glide_docking_method>  (1) 
confgen

>  <s_i_glide_gridfile>  (1) 
gpcr_drd2_6luq_protein_autoprepared_prepared

>  <s_lp_Force_Field>  (1) 
S-OPLS

>  <s_lp_Variant>  (1) 
Pocket2Mol_3_num_sample_50-1

>  <s_m_source_file>  (1) 
generated__ligand_Pocket2Mol_2026-05-06_prepared.sdf

>  <GenAI_Model>  (1) 
Pocket2Mol

>  <Protein>  (1) 
generic_title2

$$$$
Pocket2Mol_19_num_sample_50
     RDKit          3D

  0  0  0  0  0  0  0  0  0  0999 V3000
M  V30 BEGIN CTAB
M  V30 COUNTS 12 12 0 0 1
M  V30 BEGIN ATOM
M  V30 1 N 11.222149 8.670921 -6.466333 0
M  V30 2 C 12.142788 8.840216 -7.445213 0
M  V30 3 C 11.974925 8.365318 -8.762542 0
M  V30 4 C 10.088819 8.003796 -6.795371 0
M  V30 5 O 12.942396 8.569234 -9.708051 0
M  V30 6 C 10.795651 7.678430 -9.085627 0
M  V30 7 C 9.834774 7.492592 -8.081926 0
M  V30 8 H 13.042249 9.369301 -7.165923 0
M  V30 9 H 9.363096 7.876160 -6.005919 0
M  V30 10 H 13.565396 9.260100 -9.504768 0
M  V30 11 H 10.630698 7.301277 -10.084444 0
M  V30 12 H 8.911460 6.970035 -8.293253 0
M  V30 END ATOM
M  V30 BEGIN BOND
M  V30 1 2 2 1
M  V30 2 1 3 2
M  V30 3 1 4 1
M  V30 4 1 5 3
M  V30 5 2 6 3
M  V30 6 2 7 4
M  V30 7 1 7 6
M  V30 8 1 8 2
M  V30 9 1 9 4
M  V30 10 1 10 5
M  V30 11 1 11 6
M  V30 12 1 12 7
M  V30 END BOND
M  V30 END CTAB
M  END
>  <i_epik_Tot_Q>  (1) 
0

>  <i_epik_Tot_abs_Q>  (1) 
0

>  <i_i_glide_confnum>  (1) 
1

>  <i_i_glide_lignum>  (1) 
23

>  <i_i_glide_posenum>  (1) 
130

>  <i_i_glide_rotatable_bonds>  (1) 
1

>  <i_lp_mmshare_version>  (1) 
72125

>  <i_m_source_file_index>  (1) 
20

>  <i_f3d_flags>  (1) 
0

>  <num_sample>  (1) 
50

>  <b_lp_Chiralities_Consistent>  (1) 
1

>  <r_epik_Charging_Adjusted_Penalty>  (1) 
0.49104251329211085

>  <r_epik_Ionization_Penalty>  (1) 
0.049438115990627488

>  <r_epik_Ionization_Penalty_Charging>  (1) 
0

>  <r_epik_Ionization_Penalty_Neutral>  (1) 
0.049438115990627488

>  <r_epik_State_Penalty>  (1) 
0.49104251329211085

>  <r_glide_ring_energy>  (1) 
0

>  <r_i_docking_score>  (1) 
-4.4145917969311137

>  <r_i_glide_ecoul>  (1) 
-4.843159910420014

>  <r_i_glide_eff_state_penalty>  (1) 
0.49104251329211085

>  <r_i_glide_einternal>  (1) 
0.35497511270070081

>  <r_i_glide_emodel>  (1) 
-26.00314481033049

>  <r_i_glide_emodel_strain>  (1) 
0.013300052083581981

>  <r_i_glide_energy>  (1) 
-18.893087052669294

>  <r_i_glide_erotb>  (1) 
0

>  <r_i_glide_esite>  (1) 
0

>  <r_i_glide_evdw>  (1) 
-14.049927142249279

>  <r_i_glide_gscore>  (1) 
-4.9056343102232249

>  <r_i_glide_gscore_strain>  (1) 
0

>  <r_i_glide_hbond>  (1) 
-0.32000000000000001

>  <r_i_glide_ligand_efficiency>  (1) 
-0.63065597099015913

>  <r_i_glide_ligand_efficiency_ln>  (1) 
-1.4985493696563601

>  <r_i_glide_ligand_efficiency_sa>  (1) 
-1.2064014725086747

>  <r_i_glide_lipo>  (1) 
-0.64833063321442452

>  <r_i_glide_metal>  (1) 
-0

>  <r_i_glide_rewards>  (1) 
-2.5083333333333333

>  <r_lp_Energy>  (1) 
10.560834

>  <r_lp_tautomer_probability>  (1) 
0.43658000000000002

>  <s_epik_cmdline>  (1) 
J2VwaWtfcHl0aG9uJywgJy1waHQnLCAnMS4wJywgJy1waCcsICc3LjQnLCAnLXRuJywgJzgnLCAnLW1hJywgJzUwMCcsICctaW1hZScsICc8aW5maWxlLm1hZT4nLCAnLW9tYWUnLCAnPG91dGZpbGUubWFlPic=

>  <s_epik_input>  (1) 
W2NIXTFbY0hdW2NIXW5bY0hdYzFbT0hd

>  <s_glide_docking_method>  (1) 
confgen

>  <s_i_glide_gridfile>  (1) 
gpcr_drd2_6luq_protein_autoprepared_prepared

>  <s_lp_Force_Field>  (1) 
S-OPLS

>  <s_lp_Variant>  (1) 
Pocket2Mol_19_num_sample_50-2

>  <s_m_source_file>  (1) 
generated__ligand_Pocket2Mol_2026-05-06_prepared.sdf

>  <GenAI_Model>  (1) 
Pocket2Mol

>  <Protein>  (1) 
generic_title2

$$$$
Pocket2Mol_19_num_sample_50
     RDKit          3D

  0  0  0  0  0  0  0  0  0  0999 V3000
M  V30 BEGIN CTAB
M  V30 COUNTS 12 12 0 0 1
M  V30 BEGIN ATOM
M  V30 1 N 12.091876 7.720291 -3.629023 0 CHG=1
M  V30 2 C 12.234846 8.968653 -4.122171 0
M  V30 3 C 11.690023 9.291311 -5.380548 0
M  V30 4 C 11.434840 6.741837 -4.291672 0
M  V30 5 O 11.834839 10.542632 -5.891666 0 CHG=-1
M  V30 6 C 10.994772 8.299869 -6.106751 0
M  V30 7 C 10.865441 7.006931 -5.554338 0
M  V30 8 H 12.780017 9.665124 -3.502556 0
M  V30 9 H 11.384741 5.784992 -3.795749 0
M  V30 10 H 12.495426 7.507055 -2.717170 0
M  V30 11 H 10.567688 8.527969 -7.073190 0
M  V30 12 H 10.336867 6.232590 -6.091745 0
M  V30 END ATOM
M  V30 BEGIN BOND
M  V30 1 1 2 1
M  V30 2 2 3 2
M  V30 3 2 4 1
M  V30 4 1 5 3
M  V30 5 1 6 3
M  V30 6 1 7 4
M  V30 7 2 7 6
M  V30 8 1 8 2
M  V30 9 1 9 4
M  V30 10 1 10 1
M  V30 11 1 11 6
M  V30 12 1 12 7
M  V30 END BOND
M  V30 END CTAB
M  END
>  <i_epik_Tot_Q>  (1) 
0

>  <i_epik_Tot_abs_Q>  (1) 
2

>  <i_i_glide_confnum>  (1) 
1

>  <i_i_glide_lignum>  (1) 
22

>  <i_i_glide_posenum>  (1) 
67

>  <i_i_glide_rotatable_bonds>  (1) 
0

>  <i_lp_mmshare_version>  (1) 
72125

>  <i_m_source_file_index>  (1) 
20

>  <i_f3d_flags>  (1) 
0

>  <num_sample>  (1) 
50

>  <b_lp_Chiralities_Consistent>  (1) 
1

>  <r_epik_Charging_Adjusted_Penalty>  (1) 
0.36510749842979956

>  <r_epik_Ionization_Penalty>  (1) 
0.025180683492302028

>  <r_epik_Ionization_Penalty_Charging>  (1) 
0.025180683492302028

>  <r_epik_Ionization_Penalty_Neutral>  (1) 
0

>  <r_epik_State_Penalty>  (1) 
0.33992681493749755

>  <r_glide_ring_energy>  (1) 
0

>  <r_i_docking_score>  (1) 
-4.4142038207329346

>  <r_i_glide_ecoul>  (1) 
-2.4224316152244687

>  <r_i_glide_eff_state_penalty>  (1) 
0.33992681493749755

>  <r_i_glide_einternal>  (1) 
0

>  <r_i_glide_emodel>  (1) 
-24.177291751711124

>  <r_i_glide_emodel_strain>  (1) 
0

>  <r_i_glide_energy>  (1) 
-14.909636891397941

>  <r_i_glide_erotb>  (1) 
0

>  <r_i_glide_esite>  (1) 
0

>  <r_i_glide_evdw>  (1) 
-12.487205276173473

>  <r_i_glide_gscore>  (1) 
-4.7541306356704318

>  <r_i_glide_gscore_strain>  (1) 
0

>  <r_i_glide_hbond>  (1) 
0

>  <r_i_glide_ligand_efficiency>  (1) 
-0.63060054581899061

>  <r_i_glide_ligand_efficiency_ln>  (1) 
-1.4984176697135416

>  <r_i_glide_ligand_efficiency_sa>  (1) 
-1.206295447970436

>  <r_i_glide_lipo>  (1) 
-1.5164056295780874

>  <r_i_glide_metal>  (1) 
-0

>  <r_i_glide_rewards>  (1) 
-2.25

>  <r_lp_Energy>  (1) 
9.275188

>  <r_lp_tautomer_probability>  (1) 
0.56342000000000003

>  <s_epik_cmdline>  (1) 
J2VwaWtfcHl0aG9uJywgJy1waHQnLCAnMS4wJywgJy1waCcsICc3LjQnLCAnLXRuJywgJzgnLCAnLW1hJywgJzUwMCcsICctaW1hZScsICc8aW5maWxlLm1hZT4nLCAnLW9tYWUnLCAnPG91dGZpbGUubWFlPic=

>  <s_epik_input>  (1) 
W2NIXTFbY0hdW2NIXW5bY0hdYzFbT0hd

>  <s_glide_docking_method>  (1) 
confgen

>  <s_i_glide_gridfile>  (1) 
gpcr_drd2_6luq_protein_autoprepared_prepared

>  <s_lp_Force_Field>  (1) 
S-OPLS

>  <s_lp_Variant>  (1) 
Pocket2Mol_19_num_sample_50-1

>  <s_m_source_file>  (1) 
generated__ligand_Pocket2Mol_2026-05-06_prepared.sdf

>  <GenAI_Model>  (1) 
Pocket2Mol

>  <Protein>  (1) 
generic_title2

$$$$
Pocket2Mol_43_num_sample_50
     RDKit          3D

  0  0  0  0  0  0  0  0  0  0999 V3000
M  V30 BEGIN CTAB
M  V30 COUNTS 8 8 0 0 1
M  V30 BEGIN ATOM
M  V30 1 N 11.895665 9.369272 -4.679512 0
M  V30 2 C 12.234830 8.492021 -3.639948 0
M  V30 3 C 11.834850 7.191838 -3.891644 0
M  V30 4 C 11.267910 8.760956 -5.679252 0
M  V30 5 S 11.034839 7.050552 -5.446929 0
M  V30 6 H 12.748638 8.870908 -2.768016 0
M  V30 7 H 11.961195 6.320237 -3.265520 0
M  V30 8 H 10.946291 9.317203 -6.547722 0
M  V30 END ATOM
M  V30 BEGIN BOND
M  V30 1 1 2 1
M  V30 2 2 3 2
M  V30 3 2 4 1
M  V30 4 1 5 3
M  V30 5 1 5 4
M  V30 6 1 6 2
M  V30 7 1 7 3
M  V30 8 1 8 4
M  V30 END BOND
M  V30 END CTAB
M  END
>  <i_epik_Tot_Q>  (1) 
0

>  <i_epik_Tot_abs_Q>  (1) 
0

>  <i_i_glide_confnum>  (1) 
1

>  <i_i_glide_lignum>  (1) 
48

>  <i_i_glide_posenum>  (1) 
341

>  <i_i_glide_rotatable_bonds>  (1) 
0

>  <i_lp_mmshare_version>  (1) 
72125

>  <i_m_source_file_index>  (1) 
44

>  <i_f3d_flags>  (1) 
0

>  <num_sample>  (1) 
50

>  <b_lp_Chiralities_Consistent>  (1) 
1

>  <r_epik_Charging_Adjusted_Penalty>  (1) 
0

>  <r_epik_Ionization_Penalty>  (1) 
1.4882382677604034e-05

>  <r_epik_Ionization_Penalty_Charging>  (1) 
0

>  <r_epik_Ionization_Penalty_Neutral>  (1) 
1.4882382677604034e-05

>  <r_epik_State_Penalty>  (1) 
-0

>  <r_glide_ring_energy>  (1) 
0

>  <r_i_docking_score>  (1) 
-4.4105099434826851

>  <r_i_glide_ecoul>  (1) 
-0.90619748431597202

>  <r_i_glide_eff_state_penalty>  (1) 
-0

>  <r_i_glide_einternal>  (1) 
0

>  <r_i_glide_emodel>  (1) 
-19.577406874771789

>  <r_i_glide_emodel_strain>  (1) 
4.5519144009631418e-14

>  <r_i_glide_energy>  (1) 
-15.062027265081527

>  <r_i_glide_erotb>  (1) 
0

>  <r_i_glide_esite>  (1) 
0

>  <r_i_glide_evdw>  (1) 
-14.155829780765554

>  <r_i_glide_gscore>  (1) 
-4.4105099434826851

>  <r_i_glide_gscore_strain>  (1) 
0

>  <r_i_glide_hbond>  (1) 
0

>  <r_i_glide_ligand_efficiency>  (1) 
-0.882101988696537

>  <r_i_glide_ligand_efficiency_ln>  (1) 
-1.6902145563480884

>  <r_i_glide_ligand_efficiency_sa>  (1) 
-1.5083731831867579

>  <r_i_glide_lipo>  (1) 
-1.1334554984636782

>  <r_i_glide_metal>  (1) 
-0

>  <r_i_glide_rewards>  (1) 
-2.4333333333333336

>  <r_lp_Energy>  (1) 
1.6688799999999999

>  <r_lp_tautomer_probability>  (1) 
1

>  <s_epik_cmdline>  (1) 
J2VwaWtfcHl0aG9uJywgJy1waHQnLCAnMS4wJywgJy1waCcsICc3LjQnLCAnLXRuJywgJzgnLCAnLW1hJywgJzUwMCcsICctaW1hZScsICc8aW5maWxlLm1hZT4nLCAnLW9tYWUnLCAnPG91dGZpbGUubWFlPic=

>  <s_epik_input>  (1) 
bjFbY0hdW2NIXXNbY0hdMQ==

>  <s_glide_docking_method>  (1) 
confgen

>  <s_i_glide_gridfile>  (1) 
gpcr_drd2_6luq_protein_autoprepared_prepared

>  <s_lp_Force_Field>  (1) 
S-OPLS

>  <s_lp_Variant>  (1) 
Pocket2Mol_43_num_sample_50-1

>  <s_m_source_file>  (1) 
generated__ligand_Pocket2Mol_2026-05-06_prepared.sdf

>  <GenAI_Model>  (1) 
Pocket2Mol

>  <Protein>  (1) 
generic_title2

$$$$
Pocket2Mol_45_num_sample_50
     RDKit          3D

  0  0  0  0  0  0  0  0  0  0999 V3000
M  V30 BEGIN CTAB
M  V30 COUNTS 13 13 0 0 1
M  V30 BEGIN ATOM
M  V30 1 O 11.834839 7.907037 -4.291667 0
M  V30 2 C 11.853245 9.323200 -4.420571 0
M  V30 3 C 11.641072 9.562894 -5.908027 0
M  V30 4 C 11.034839 7.333271 -5.330064 0
M  V30 5 C 10.634838 8.485113 -6.254527 0
M  V30 6 H 11.034839 9.752691 -3.840947 0
M  V30 7 H 12.789128 9.746392 -4.054223 0
M  V30 8 H 11.287886 10.569301 -6.131386 0
M  V30 9 H 12.572298 9.396089 -6.451083 0
M  V30 10 H 11.633167 6.593724 -5.863422 0
M  V30 11 H 10.165639 6.819779 -4.919706 0
M  V30 12 H 10.649256 8.208479 -7.309237 0
M  V30 13 H 9.626766 8.822092 -6.010698 0
M  V30 END ATOM
M  V30 BEGIN BOND
M  V30 1 1 2 1
M  V30 2 1 3 2
M  V30 3 1 4 1
M  V30 4 1 5 3
M  V30 5 1 5 4
M  V30 6 1 6 2
M  V30 7 1 7 2
M  V30 8 1 8 3
M  V30 9 1 9 3
M  V30 10 1 10 4
M  V30 11 1 11 4
M  V30 12 1 12 5
M  V30 13 1 13 5
M  V30 END BOND
M  V30 END CTAB
M  END
>  <i_epik_Tot_Q>  (1) 
0

>  <i_epik_Tot_abs_Q>  (1) 
0

>  <i_i_glide_confnum>  (1) 
3

>  <i_i_glide_lignum>  (1) 
51

>  <i_i_glide_posenum>  (1) 
213

>  <i_i_glide_rotatable_bonds>  (1) 
0

>  <i_lp_mmshare_version>  (1) 
72125

>  <i_m_source_file_index>  (1) 
46

>  <i_f3d_flags>  (1) 
0

>  <num_sample>  (1) 
50

>  <b_lp_Chiralities_Consistent>  (1) 
1

>  <r_epik_Charging_Adjusted_Penalty>  (1) 
0

>  <r_epik_Ionization_Penalty>  (1) 
1.3889264151150229e-11

>  <r_epik_Ionization_Penalty_Charging>  (1) 
0

>  <r_epik_Ionization_Penalty_Neutral>  (1) 
1.3889264151150229e-11

>  <r_epik_State_Penalty>  (1) 
-0

>  <r_glide_ring_energy>  (1) 
0.22161987042107956

>  <r_i_docking_score>  (1) 
-4.4077967722555043

>  <r_i_glide_ecoul>  (1) 
-0.31102813849057409

>  <r_i_glide_eff_state_penalty>  (1) 
-0

>  <r_i_glide_einternal>  (1) 
0

>  <r_i_glide_emodel>  (1) 
-17.12819452541995

>  <r_i_glide_emodel_strain>  (1) 
0.0034879390656659126

>  <r_i_glide_energy>  (1) 
-13.42610652192994

>  <r_i_glide_erotb>  (1) 
0

>  <r_i_glide_esite>  (1) 
0

>  <r_i_glide_evdw>  (1) 
-13.115078383439366

>  <r_i_glide_gscore>  (1) 
-4.4077967722555043

>  <r_i_glide_gscore_strain>  (1) 
0

>  <r_i_glide_hbond>  (1) 
0

>  <r_i_glide_ligand_efficiency>  (1) 
-0.8815593544511009

>  <r_i_glide_ligand_efficiency_ln>  (1) 
-1.689174803221849

>  <r_i_glide_ligand_efficiency_sa>  (1) 
-1.5074452916792191

>  <r_i_glide_lipo>  (1) 
-1.2212586530868546

>  <r_i_glide_metal>  (1) 
-0

>  <r_i_glide_rewards>  (1) 
-2.4841299792230953

>  <r_lp_Energy>  (1) 
3.9173999999999998

>  <r_lp_tautomer_probability>  (1) 
1

>  <s_epik_cmdline>  (1) 
J2VwaWtfcHl0aG9uJywgJy1waHQnLCAnMS4wJywgJy1waCcsICc3LjQnLCAnLXRuJywgJzgnLCAnLW1hJywgJzUwMCcsICctaW1hZScsICc8aW5maWxlLm1hZT4nLCAnLW9tYWUnLCAnPG91dGZpbGUubWFlPic=

>  <s_epik_input>  (1) 
TzFbQ0gyXVtDSDJdW0NIMl1bQ0gyXTE=

>  <s_glide_docking_method>  (1) 
confgen

>  <s_i_glide_gridfile>  (1) 
gpcr_drd2_6luq_protein_autoprepared_prepared

>  <s_lp_Force_Field>  (1) 
S-OPLS

>  <s_lp_Variant>  (1) 
Pocket2Mol_45_num_sample_50-1

>  <s_m_source_file>  (1) 
generated__ligand_Pocket2Mol_2026-05-06_prepared.sdf

>  <GenAI_Model>  (1) 
Pocket2Mol

>  <Protein>  (1) 
generic_title2

$$$$
Pocket2Mol_3_num_sample_50
     RDKit          3D

  0  0  0  0  0  0  0  0  0  0999 V3000
M  V30 BEGIN CTAB
M  V30 COUNTS 9 9 0 0 1
M  V30 BEGIN ATOM
M  V30 1 N 12.634839 8.969300 -2.498529 0
M  V30 2 C 12.506448 7.629065 -2.291704 0
M  V30 3 C 11.985192 7.098045 -3.429430 0
M  V30 4 C 11.834839 8.233240 -4.291667 0
M  V30 5 N 12.232611 9.369277 -3.715279 0
M  V30 6 H 13.007657 9.628978 -1.822235 0
M  V30 7 H 12.794931 7.164738 -1.363214 0
M  V30 8 H 11.747715 6.062211 -3.624809 0
M  V30 9 H 11.452777 8.266244 -5.301658 0
M  V30 END ATOM
M  V30 BEGIN BOND
M  V30 1 1 2 1
M  V30 2 2 3 2
M  V30 3 1 4 3
M  V30 4 1 5 1
M  V30 5 2 5 4
M  V30 6 1 6 1
M  V30 7 1 7 2
M  V30 8 1 8 3
M  V30 9 1 9 4
M  V30 END BOND
M  V30 END CTAB
M  END
>  <i_epik_Tot_Q>  (1) 
0

>  <i_epik_Tot_abs_Q>  (1) 
0

>  <i_i_glide_confnum>  (1) 
1

>  <i_i_glide_lignum>  (1) 
4

>  <i_i_glide_posenum>  (1) 
393

>  <i_i_glide_rotatable_bonds>  (1) 
0

>  <i_lp_mmshare_version>  (1) 
72125

>  <i_m_source_file_index>  (1) 
4

>  <i_f3d_flags>  (1) 
0

>  <num_sample>  (1) 
50

>  <b_lp_Chiralities_Consistent>  (1) 
1

>  <r_epik_Charging_Adjusted_Penalty>  (1) 
0

>  <r_epik_Ionization_Penalty>  (1) 
1.0045315435319e-05

>  <r_epik_Ionization_Penalty_Charging>  (1) 
0

>  <r_epik_Ionization_Penalty_Neutral>  (1) 
1.0045315435319e-05

>  <r_epik_State_Penalty>  (1) 
-0

>  <r_glide_ring_energy>  (1) 
0

>  <r_i_docking_score>  (1) 
-4.4022609937186949

>  <r_i_glide_ecoul>  (1) 
-3.1745857835471014

>  <r_i_glide_eff_state_penalty>  (1) 
-0

>  <r_i_glide_einternal>  (1) 
0

>  <r_i_glide_emodel>  (1) 
-20.055426580065657

>  <r_i_glide_emodel_strain>  (1) 
0

>  <r_i_glide_energy>  (1) 
-14.804682935034704

>  <r_i_glide_erotb>  (1) 
0

>  <r_i_glide_esite>  (1) 
0

>  <r_i_glide_evdw>  (1) 
-11.630097151487602

>  <r_i_glide_gscore>  (1) 
-4.4022609937186949

>  <r_i_glide_gscore_strain>  (1) 
0

>  <r_i_glide_hbond>  (1) 
-0.32000000000000001

>  <r_i_glide_ligand_efficiency>  (1) 
-0.88045219874373903

>  <r_i_glide_ligand_efficiency_ln>  (1) 
-1.6870533584040088

>  <r_i_glide_ligand_efficiency_sa>  (1) 
-1.5055520820504045

>  <r_i_glide_lipo>  (1) 
-0.77456826861224959

>  <r_i_glide_metal>  (1) 
-0

>  <r_i_glide_rewards>  (1) 
-2.25

>  <r_lp_Energy>  (1) 
2.3130189999999997

>  <r_lp_tautomer_probability>  (1) 
1

>  <s_epik_cmdline>  (1) 
J2VwaWtfcHl0aG9uJywgJy1waHQnLCAnMS4wJywgJy1waCcsICc3LjQnLCAnLXRuJywgJzgnLCAnLW1hJywgJzUwMCcsICctaW1hZScsICc8aW5maWxlLm1hZT4nLCAnLW9tYWUnLCAnPG91dGZpbGUubWFlPic=

>  <s_epik_input>  (1) 
W25IXTFbY0hdW2NIXVtjSF1uMQ==

>  <s_glide_docking_method>  (1) 
confgen

>  <s_i_glide_gridfile>  (1) 
gpcr_drd2_6luq_protein_autoprepared_prepared

>  <s_lp_Force_Field>  (1) 
S-OPLS

>  <s_lp_Variant>  (1) 
Pocket2Mol_3_num_sample_50-1

>  <s_m_source_file>  (1) 
generated__ligand_Pocket2Mol_2026-05-06_prepared.sdf

>  <GenAI_Model>  (1) 
Pocket2Mol

>  <Protein>  (1) 
generic_title2

$$$$
Pocket2Mol_29_num_sample_50
     RDKit          3D

  0  0  0  0  0  0  0  0  0  0999 V3000
M  V30 BEGIN CTAB
M  V30 COUNTS 14 14 0 0 1
M  V30 BEGIN ATOM
M  V30 1 N 11.148418 7.792276 -9.442214 0
M  V30 2 C 10.059488 7.369298 -8.764346 0
M  V30 3 C 9.834852 7.711778 -7.429864 0
M  V30 4 C 10.784724 8.522371 -6.814228 0
M  V30 5 O 10.634848 8.911001 -5.498345 0
M  V30 6 C 11.986780 8.569295 -8.738091 0
M  V30 7 N 11.886679 8.969294 -7.459142 0
M  V30 8 C 11.582779 9.806958 -4.928735 0
M  V30 9 H 9.360604 6.745860 -9.302275 0
M  V30 10 H 8.956942 7.367117 -6.900826 0
M  V30 11 H 12.860450 8.915818 -9.269305 0
M  V30 12 H 11.289272 10.036598 -3.904470 0
M  V30 13 H 12.581752 9.369364 -4.898755 0
M  V30 14 H 11.619444 10.747802 -5.480001 0
M  V30 END ATOM
M  V30 BEGIN BOND
M  V30 1 1 2 1
M  V30 2 2 3 2
M  V30 3 1 4 3
M  V30 4 1 5 4
M  V30 5 2 6 1
M  V30 6 2 7 4
M  V30 7 1 7 6
M  V30 8 1 8 5
M  V30 9 1 9 2
M  V30 10 1 10 3
M  V30 11 1 11 6
M  V30 12 1 12 8
M  V30 13 1 13 8
M  V30 14 1 14 8
M  V30 END BOND
M  V30 END CTAB
M  END
>  <i_epik_Tot_Q>  (1) 
0

>  <i_epik_Tot_abs_Q>  (1) 
0

>  <i_i_glide_confnum>  (1) 
1

>  <i_i_glide_lignum>  (1) 
33

>  <i_i_glide_posenum>  (1) 
241

>  <i_i_glide_rotatable_bonds>  (1) 
1

>  <i_lp_mmshare_version>  (1) 
72125

>  <i_m_source_file_index>  (1) 
30

>  <i_f3d_flags>  (1) 
0

>  <num_sample>  (1) 
50

>  <b_lp_Chiralities_Consistent>  (1) 
1

>  <r_epik_Charging_Adjusted_Penalty>  (1) 
0

>  <r_epik_Ionization_Penalty>  (1) 
8.6638422661064201e-06

>  <r_epik_Ionization_Penalty_Charging>  (1) 
0

>  <r_epik_Ionization_Penalty_Neutral>  (1) 
8.6638422661064201e-06

>  <r_epik_State_Penalty>  (1) 
-0

>  <r_glide_ring_energy>  (1) 
0

>  <r_i_docking_score>  (1) 
-4.3993847299900741

>  <r_i_glide_ecoul>  (1) 
-1.7423325072071856

>  <r_i_glide_eff_state_penalty>  (1) 
-0

>  <r_i_glide_einternal>  (1) 
0.030912527534225243

>  <r_i_glide_emodel>  (1) 
-25.018574290329859

>  <r_i_glide_emodel_strain>  (1) 
0

>  <r_i_glide_energy>  (1) 
-19.475162652361576

>  <r_i_glide_erotb>  (1) 
0

>  <r_i_glide_esite>  (1) 
0

>  <r_i_glide_evdw>  (1) 
-17.732830145154391

>  <r_i_glide_gscore>  (1) 
-4.3993847299900741

>  <r_i_glide_gscore_strain>  (1) 
0

>  <r_i_glide_hbond>  (1) 
0

>  <r_i_glide_ligand_efficiency>  (1) 
-0.54992309124875927

>  <r_i_glide_ligand_efficiency_ln>  (1) 
-1.4286307015233057

>  <r_i_glide_ligand_efficiency_sa>  (1) 
-1.0998461824975188

>  <r_i_glide_lipo>  (1) 
-0.55210392775582262

>  <r_i_glide_metal>  (1) 
-0

>  <r_i_glide_rewards>  (1) 
-2.6992894188954546

>  <r_lp_Energy>  (1) 
14.393509

>  <r_lp_tautomer_probability>  (1) 
1

>  <s_epik_cmdline>  (1) 
J2VwaWtfcHl0aG9uJywgJy1waHQnLCAnMS4wJywgJy1waCcsICc3LjQnLCAnLXRuJywgJzgnLCAnLW1hJywgJzUwMCcsICctaW1hZScsICc8aW5maWxlLm1hZT4nLCAnLW9tYWUnLCAnPG91dGZpbGUubWFlPic=

>  <s_epik_input>  (1) 
bjFbY0hdbltjSF1bY0hdYzFPW0NIM10=

>  <s_glide_docking_method>  (1) 
confgen

>  <s_i_glide_gridfile>  (1) 
gpcr_drd2_6luq_protein_autoprepared_prepared

>  <s_lp_Force_Field>  (1) 
S-OPLS

>  <s_lp_Variant>  (1) 
Pocket2Mol_29_num_sample_50-1

>  <s_m_source_file>  (1) 
generated__ligand_Pocket2Mol_2026-05-06_prepared.sdf

>  <GenAI_Model>  (1) 
Pocket2Mol

>  <Protein>  (1) 
generic_title2

$$$$
Pocket2Mol_11_num_sample_50
     RDKit          3D

  0  0  0  0  0  0  0  0  0  0999 V3000
M  V30 BEGIN CTAB
M  V30 COUNTS 14 14 0 0 1
M  V30 BEGIN ATOM
M  V30 1 O 11.366833 8.289290 -5.506091 0
M  V30 2 C 11.390947 8.770459 -6.760490 0
M  V30 3 C 10.728891 6.969356 -5.710707 0
M  V30 4 C 10.887481 8.015502 -7.686549 0
M  V30 5 C 10.818977 8.372425 -9.155757 0
M  V30 6 C 10.350952 6.725846 -7.246640 0
M  V30 7 H 11.834838 9.749938 -6.861971 0
M  V30 8 H 9.834839 6.903268 -5.091640 0
M  V30 9 H 11.409612 6.190866 -5.363319 0
M  V30 10 H 11.357258 7.633866 -9.749810 0
M  V30 11 H 9.779864 8.389810 -9.488627 0
M  V30 12 H 11.257819 9.352289 -9.347239 0
M  V30 13 H 9.276005 6.653802 -7.420394 0
M  V30 14 H 10.879802 5.883798 -7.693721 0
M  V30 END ATOM
M  V30 BEGIN BOND
M  V30 1 1 2 1
M  V30 2 1 3 1
M  V30 3 2 4 2
M  V30 4 1 5 4
M  V30 5 1 6 3
M  V30 6 1 6 4
M  V30 7 1 7 2
M  V30 8 1 8 3
M  V30 9 1 9 3
M  V30 10 1 10 5
M  V30 11 1 11 5
M  V30 12 1 12 5
M  V30 13 1 13 6
M  V30 14 1 14 6
M  V30 END BOND
M  V30 END CTAB
M  END
>  <i_epik_Tot_Q>  (1) 
0

>  <i_epik_Tot_abs_Q>  (1) 
0

>  <i_i_glide_confnum>  (1) 
1

>  <i_i_glide_lignum>  (1) 
14

>  <i_i_glide_posenum>  (1) 
374

>  <i_i_glide_rotatable_bonds>  (1) 
0

>  <i_lp_mmshare_version>  (1) 
72125

>  <i_m_source_file_index>  (1) 
12

>  <i_f3d_flags>  (1) 
0

>  <num_sample>  (1) 
50

>  <b_lp_Chiralities_Consistent>  (1) 
1

>  <r_epik_Charging_Adjusted_Penalty>  (1) 
0

>  <r_epik_Ionization_Penalty>  (1) 
0

>  <r_epik_Ionization_Penalty_Charging>  (1) 
0

>  <r_epik_Ionization_Penalty_Neutral>  (1) 
0

>  <r_epik_State_Penalty>  (1) 
-0

>  <r_glide_ring_energy>  (1) 
0

>  <r_i_docking_score>  (1) 
-4.3991485951231715

>  <r_i_glide_ecoul>  (1) 
-0.82533682973249922

>  <r_i_glide_eff_state_penalty>  (1) 
-0

>  <r_i_glide_einternal>  (1) 
0

>  <r_i_glide_emodel>  (1) 
-19.112311717249334

>  <r_i_glide_emodel_strain>  (1) 
0

>  <r_i_glide_energy>  (1) 
-14.819130777409143

>  <r_i_glide_erotb>  (1) 
0

>  <r_i_glide_esite>  (1) 
0

>  <r_i_glide_evdw>  (1) 
-13.993793947676643

>  <r_i_glide_gscore>  (1) 
-4.3991485951231715

>  <r_i_glide_gscore_strain>  (1) 
0

>  <r_i_glide_hbond>  (1) 
0

>  <r_i_glide_ligand_efficiency>  (1) 
-0.73319143252052854

>  <r_i_glide_ligand_efficiency_ln>  (1) 
-1.5757620395354379

>  <r_i_glide_ligand_efficiency_sa>  (1) 
-1.3322972505211488

>  <r_i_glide_lipo>  (1) 
-0.86540934534368563

>  <r_i_glide_metal>  (1) 
-0

>  <r_i_glide_rewards>  (1) 
-2.7102490279357787

>  <r_lp_Energy>  (1) 
-7.9393969999999996

>  <r_lp_tautomer_probability>  (1) 
1

>  <s_epik_cmdline>  (1) 
J2VwaWtfcHl0aG9uJywgJy1waHQnLCAnMS4wJywgJy1waCcsICc3LjQnLCAnLXRuJywgJzgnLCAnLW1hJywgJzUwMCcsICctaW1hZScsICc8aW5maWxlLm1hZT4nLCAnLW9tYWUnLCAnPG91dGZpbGUubWFlPic=

>  <s_epik_input>  (1) 
W0NIMl0xW0NIMl1PW0NIXT1DMVtDSDNd

>  <s_glide_docking_method>  (1) 
confgen

>  <s_i_glide_gridfile>  (1) 
gpcr_drd2_6luq_protein_autoprepared_prepared

>  <s_lp_Force_Field>  (1) 
S-OPLS

>  <s_lp_Variant>  (1) 
Pocket2Mol_11_num_sample_50-1

>  <s_m_source_file>  (1) 
generated__ligand_Pocket2Mol_2026-05-06_prepared.sdf

>  <GenAI_Model>  (1) 
Pocket2Mol

>  <Protein>  (1) 
generic_title2

$$$$
Pocket2Mol_3_num_sample_50
     RDKit          3D

  0  0  0  0  0  0  0  0  0  0999 V3000
M  V30 BEGIN CTAB
M  V30 COUNTS 9 9 0 0 1
M  V30 BEGIN ATOM
M  V30 1 N 9.437030 7.892191 -8.673903 0
M  V30 2 C 9.792037 7.412624 -7.436364 0
M  V30 3 C 11.109078 7.727522 -7.259092 0
M  V30 4 C 11.464027 8.405797 -8.462305 0
M  V30 5 N 10.452418 8.502969 -9.313126 0
M  V30 6 H 8.517486 7.812081 -9.091703 0
M  V30 7 H 9.091443 6.896355 -6.795415 0
M  V30 8 H 11.728315 7.508704 -6.402451 0
M  V30 9 H 12.418880 8.826753 -8.739891 0
M  V30 END ATOM
M  V30 BEGIN BOND
M  V30 1 1 2 1
M  V30 2 2 3 2
M  V30 3 1 4 3
M  V30 4 1 5 1
M  V30 5 2 5 4
M  V30 6 1 6 1
M  V30 7 1 7 2
M  V30 8 1 8 3
M  V30 9 1 9 4
M  V30 END BOND
M  V30 END CTAB
M  END
>  <i_epik_Tot_Q>  (1) 
0

>  <i_epik_Tot_abs_Q>  (1) 
0

>  <i_i_glide_confnum>  (1) 
1

>  <i_i_glide_lignum>  (1) 
4

>  <i_i_glide_posenum>  (1) 
284

>  <i_i_glide_rotatable_bonds>  (1) 
0

>  <i_lp_mmshare_version>  (1) 
72125

>  <i_m_source_file_index>  (1) 
4

>  <i_f3d_flags>  (1) 
0

>  <num_sample>  (1) 
50

>  <b_lp_Chiralities_Consistent>  (1) 
1

>  <r_epik_Charging_Adjusted_Penalty>  (1) 
0

>  <r_epik_Ionization_Penalty>  (1) 
1.0045315435319e-05

>  <r_epik_Ionization_Penalty_Charging>  (1) 
0

>  <r_epik_Ionization_Penalty_Neutral>  (1) 
1.0045315435319e-05

>  <r_epik_State_Penalty>  (1) 
-0

>  <r_glide_ring_energy>  (1) 
0

>  <r_i_docking_score>  (1) 
-4.3893205889168136

>  <r_i_glide_ecoul>  (1) 
-7.2038543826243071

>  <r_i_glide_eff_state_penalty>  (1) 
-0

>  <r_i_glide_einternal>  (1) 
0

>  <r_i_glide_emodel>  (1) 
-20.422798534609608

>  <r_i_glide_emodel_strain>  (1) 
0

>  <r_i_glide_energy>  (1) 
-15.187489401156807

>  <r_i_glide_erotb>  (1) 
0

>  <r_i_glide_esite>  (1) 
-0.10000000000000001

>  <r_i_glide_evdw>  (1) 
-7.9836350185324987

>  <r_i_glide_gscore>  (1) 
-4.3893205889168136

>  <r_i_glide_gscore_strain>  (1) 
0

>  <r_i_glide_hbond>  (1) 
-0.16

>  <r_i_glide_ligand_efficiency>  (1) 
-0.87786411778336271

>  <r_i_glide_ligand_efficiency_ln>  (1) 
-1.6820942809183097

>  <r_i_glide_ligand_efficiency_sa>  (1) 
-1.5011265258601092

>  <r_i_glide_lipo>  (1) 
-0.39956068059654248

>  <r_i_glide_metal>  (1) 
-0

>  <r_i_glide_rewards>  (1) 
-2.25

>  <r_lp_Energy>  (1) 
2.3130189999999997

>  <r_lp_tautomer_probability>  (1) 
1

>  <s_epik_cmdline>  (1) 
J2VwaWtfcHl0aG9uJywgJy1waHQnLCAnMS4wJywgJy1waCcsICc3LjQnLCAnLXRuJywgJzgnLCAnLW1hJywgJzUwMCcsICctaW1hZScsICc8aW5maWxlLm1hZT4nLCAnLW9tYWUnLCAnPG91dGZpbGUubWFlPic=

>  <s_epik_input>  (1) 
W25IXTFbY0hdW2NIXVtjSF1uMQ==

>  <s_glide_docking_method>  (1) 
confgen

>  <s_i_glide_gridfile>  (1) 
gpcr_drd2_6luq_protein_autoprepared_prepared

>  <s_lp_Force_Field>  (1) 
S-OPLS

>  <s_lp_Variant>  (1) 
Pocket2Mol_3_num_sample_50-1

>  <s_m_source_file>  (1) 
generated__ligand_Pocket2Mol_2026-05-06_prepared.sdf

>  <GenAI_Model>  (1) 
Pocket2Mol

>  <Protein>  (1) 
generic_title2

$$$$
Pocket2Mol_21_num_sample_50
     RDKit          3D

  0  0  0  0  0  0  0  0  0  0999 V3000
M  V30 BEGIN CTAB
M  V30 COUNTS 9 9 0 0 1
M  V30 BEGIN ATOM
M  V30 1 C 11.028395 7.401315 -5.376790 0
M  V30 2 O 11.834839 7.626747 -4.291969 0
M  V30 3 C 12.068390 8.974426 -4.278406 0
M  V30 4 C 10.760995 8.567239 -6.035765 0
M  V30 5 C 11.436519 9.589839 -5.321705 0
M  V30 6 H 10.742754 6.370380 -5.531905 0
M  V30 7 H 12.695680 9.324218 -3.470332 0
M  V30 8 H 10.150906 8.669948 -6.922381 0
M  V30 9 H 11.457681 10.647205 -5.541838 0
M  V30 END ATOM
M  V30 BEGIN BOND
M  V30 1 1 2 1
M  V30 2 1 3 2
M  V30 3 2 4 1
M  V30 4 2 5 3
M  V30 5 1 5 4
M  V30 6 1 6 1
M  V30 7 1 7 3
M  V30 8 1 8 4
M  V30 9 1 9 5
M  V30 END BOND
M  V30 END CTAB
M  END
>  <i_epik_Tot_Q>  (1) 
0

>  <i_epik_Tot_abs_Q>  (1) 
0

>  <i_i_glide_confnum>  (1) 
1

>  <i_i_glide_lignum>  (1) 
25

>  <i_i_glide_posenum>  (1) 
37

>  <i_i_glide_rotatable_bonds>  (1) 
0

>  <i_lp_mmshare_version>  (1) 
72125

>  <i_m_source_file_index>  (1) 
22

>  <i_f3d_flags>  (1) 
0

>  <num_sample>  (1) 
50

>  <b_lp_Chiralities_Consistent>  (1) 
1

>  <r_epik_Charging_Adjusted_Penalty>  (1) 
0

>  <r_epik_Ionization_Penalty>  (1) 
0

>  <r_epik_Ionization_Penalty_Charging>  (1) 
0

>  <r_epik_Ionization_Penalty_Neutral>  (1) 
0

>  <r_epik_State_Penalty>  (1) 
-0

>  <r_glide_ring_energy>  (1) 
0

>  <r_i_docking_score>  (1) 
-4.3833129620262099

>  <r_i_glide_ecoul>  (1) 
-0.79886872465079661

>  <r_i_glide_eff_state_penalty>  (1) 
-0

>  <r_i_glide_einternal>  (1) 
0

>  <r_i_glide_emodel>  (1) 
-15.849886203810946

>  <r_i_glide_emodel_strain>  (1) 
0

>  <r_i_glide_energy>  (1) 
-12.410772124719411

>  <r_i_glide_erotb>  (1) 
0

>  <r_i_glide_esite>  (1) 
0

>  <r_i_glide_evdw>  (1) 
-11.611903400068615

>  <r_i_glide_gscore>  (1) 
-4.3833129620262099

>  <r_i_glide_gscore_strain>  (1) 
0

>  <r_i_glide_hbond>  (1) 
0

>  <r_i_glide_ligand_efficiency>  (1) 
-0.87666259240524202

>  <r_i_glide_ligand_efficiency_ln>  (1) 
-1.6797920123485242

>  <r_i_glide_ligand_efficiency_sa>  (1) 
-1.499071946364201

>  <r_i_glide_lipo>  (1) 
-1.1912208166584926

>  <r_i_glide_metal>  (1) 
-0

>  <r_i_glide_rewards>  (1) 
-2.4916666666666667

>  <r_lp_Energy>  (1) 
2.5980879999999997

>  <r_lp_tautomer_probability>  (1) 
1

>  <s_epik_cmdline>  (1) 
J2VwaWtfcHl0aG9uJywgJy1waHQnLCAnMS4wJywgJy1waCcsICc3LjQnLCAnLXRuJywgJzgnLCAnLW1hJywgJzUwMCcsICctaW1hZScsICc8aW5maWxlLm1hZT4nLCAnLW9tYWUnLCAnPG91dGZpbGUubWFlPic=

>  <s_epik_input>  (1) 
W2NIXTFvW2NIXVtjSF1bY0hdMQ==

>  <s_glide_docking_method>  (1) 
confgen

>  <s_i_glide_gridfile>  (1) 
gpcr_drd2_6luq_protein_autoprepared_prepared

>  <s_lp_Force_Field>  (1) 
S-OPLS

>  <s_lp_Variant>  (1) 
Pocket2Mol_21_num_sample_50-1

>  <s_m_source_file>  (1) 
generated__ligand_Pocket2Mol_2026-05-06_prepared.sdf

>  <GenAI_Model>  (1) 
Pocket2Mol

>  <Protein>  (1) 
generic_title2

$$$$
Pocket2Mol_11_num_sample_50
     RDKit          3D

  0  0  0  0  0  0  0  0  0  0999 V3000
M  V30 BEGIN CTAB
M  V30 COUNTS 14 14 0 0 1
M  V30 BEGIN ATOM
M  V30 1 O 11.389271 7.688903 -8.704820 0
M  V30 2 C 11.837310 8.504918 -7.736975 0
M  V30 3 C 10.104776 7.227906 -8.132314 0
M  V30 4 C 11.086860 8.636050 -6.688425 0
M  V30 5 C 11.413237 9.504520 -5.491677 0
M  V30 6 C 9.834753 7.874554 -6.692110 0
M  V30 7 H 12.791233 8.969301 -7.941819 0
M  V30 8 H 10.121329 6.139614 -8.062288 0
M  V30 9 H 9.298088 7.488596 -8.817483 0
M  V30 10 H 10.653962 10.274649 -5.357449 0
M  V30 11 H 11.455534 8.897593 -4.587023 0
M  V30 12 H 12.377108 9.999113 -5.615693 0
M  V30 13 H 9.795831 7.135528 -5.891668 0
M  V30 14 H 8.956063 8.520834 -6.673249 0
M  V30 END ATOM
M  V30 BEGIN BOND
M  V30 1 1 2 1
M  V30 2 1 3 1
M  V30 3 2 4 2
M  V30 4 1 5 4
M  V30 5 1 6 3
M  V30 6 1 6 4
M  V30 7 1 7 2
M  V30 8 1 8 3
M  V30 9 1 9 3
M  V30 10 1 10 5
M  V30 11 1 11 5
M  V30 12 1 12 5
M  V30 13 1 13 6
M  V30 14 1 14 6
M  V30 END BOND
M  V30 END CTAB
M  END
>  <i_epik_Tot_Q>  (1) 
0

>  <i_epik_Tot_abs_Q>  (1) 
0

>  <i_i_glide_confnum>  (1) 
1

>  <i_i_glide_lignum>  (1) 
14

>  <i_i_glide_posenum>  (1) 
52

>  <i_i_glide_rotatable_bonds>  (1) 
0

>  <i_lp_mmshare_version>  (1) 
72125

>  <i_m_source_file_index>  (1) 
12

>  <i_f3d_flags>  (1) 
0

>  <num_sample>  (1) 
50

>  <b_lp_Chiralities_Consistent>  (1) 
1

>  <r_epik_Charging_Adjusted_Penalty>  (1) 
0

>  <r_epik_Ionization_Penalty>  (1) 
0

>  <r_epik_Ionization_Penalty_Charging>  (1) 
0

>  <r_epik_Ionization_Penalty_Neutral>  (1) 
0

>  <r_epik_State_Penalty>  (1) 
-0

>  <r_glide_ring_energy>  (1) 
0

>  <r_i_docking_score>  (1) 
-4.3647020142757365

>  <r_i_glide_ecoul>  (1) 
-0.54087811381028961

>  <r_i_glide_eff_state_penalty>  (1) 
-0

>  <r_i_glide_einternal>  (1) 
0

>  <r_i_glide_emodel>  (1) 
-19.736577315411814

>  <r_i_glide_emodel_strain>  (1) 
0

>  <r_i_glide_energy>  (1) 
-15.477013199631807

>  <r_i_glide_erotb>  (1) 
0

>  <r_i_glide_esite>  (1) 
0

>  <r_i_glide_evdw>  (1) 
-14.936135085821517

>  <r_i_glide_gscore>  (1) 
-4.3647020142757365

>  <r_i_glide_gscore_strain>  (1) 
0

>  <r_i_glide_hbond>  (1) 
0

>  <r_i_glide_ligand_efficiency>  (1) 
-0.72745033571262274

>  <r_i_glide_ligand_efficiency_ln>  (1) 
-1.5634233759696401

>  <r_i_glide_ligand_efficiency_sa>  (1) 
-1.3218649852860602

>  <r_i_glide_lipo>  (1) 
-0.84509687624645058

>  <r_i_glide_metal>  (1) 
-0

>  <r_i_glide_rewards>  (1) 
-2.6916666666666664

>  <r_lp_Energy>  (1) 
-7.9393969999999996

>  <r_lp_tautomer_probability>  (1) 
1

>  <s_epik_cmdline>  (1) 
J2VwaWtfcHl0aG9uJywgJy1waHQnLCAnMS4wJywgJy1waCcsICc3LjQnLCAnLXRuJywgJzgnLCAnLW1hJywgJzUwMCcsICctaW1hZScsICc8aW5maWxlLm1hZT4nLCAnLW9tYWUnLCAnPG91dGZpbGUubWFlPic=

>  <s_epik_input>  (1) 
W0NIMl0xW0NIMl1PW0NIXT1DMVtDSDNd

>  <s_glide_docking_method>  (1) 
confgen

>  <s_i_glide_gridfile>  (1) 
gpcr_drd2_6luq_protein_autoprepared_prepared

>  <s_lp_Force_Field>  (1) 
S-OPLS

>  <s_lp_Variant>  (1) 
Pocket2Mol_11_num_sample_50-1

>  <s_m_source_file>  (1) 
generated__ligand_Pocket2Mol_2026-05-06_prepared.sdf

>  <GenAI_Model>  (1) 
Pocket2Mol

>  <Protein>  (1) 
generic_title2

$$$$
Pocket2Mol_47_num_sample_50
     RDKit          3D

  0  0  0  0  0  0  0  0  0  0999 V3000
M  V30 BEGIN CTAB
M  V30 COUNTS 11 11 0 0 1
M  V30 BEGIN ATOM
M  V30 1 C 11.035021 6.988676 -5.113182 0
M  V30 2 O 11.834839 7.742607 -4.116852 0
M  V30 3 C 10.534964 7.936948 -6.307462 0
M  V30 4 C 11.189883 9.126868 -5.762639 0
M  V30 5 C 11.834838 8.976174 -4.651317 0
M  V30 6 H 10.184348 6.523402 -4.615261 0
M  V30 7 H 11.644924 6.175325 -5.509050 0
M  V30 8 H 9.450625 8.050382 -6.345528 0
M  V30 9 H 10.935884 7.656734 -7.281833 0
M  V30 10 H 11.121091 10.070902 -6.283098 0
M  V30 11 H 12.381546 9.716755 -4.085902 0
M  V30 END ATOM
M  V30 BEGIN BOND
M  V30 1 1 2 1
M  V30 2 1 3 1
M  V30 3 1 4 3
M  V30 4 1 5 2
M  V30 5 2 5 4
M  V30 6 1 6 1
M  V30 7 1 7 1
M  V30 8 1 8 3
M  V30 9 1 9 3
M  V30 10 1 10 4
M  V30 11 1 11 5
M  V30 END BOND
M  V30 END CTAB
M  END
>  <i_epik_Tot_Q>  (1) 
0

>  <i_epik_Tot_abs_Q>  (1) 
0

>  <i_i_glide_confnum>  (1) 
1

>  <i_i_glide_lignum>  (1) 
53

>  <i_i_glide_posenum>  (1) 
290

>  <i_i_glide_rotatable_bonds>  (1) 
0

>  <i_lp_mmshare_version>  (1) 
72125

>  <i_m_source_file_index>  (1) 
48

>  <i_f3d_flags>  (1) 
0

>  <num_sample>  (1) 
50

>  <b_lp_Chiralities_Consistent>  (1) 
1

>  <r_epik_Charging_Adjusted_Penalty>  (1) 
0

>  <r_epik_Ionization_Penalty>  (1) 
0

>  <r_epik_Ionization_Penalty_Charging>  (1) 
0

>  <r_epik_Ionization_Penalty_Neutral>  (1) 
0

>  <r_epik_State_Penalty>  (1) 
-0

>  <r_glide_ring_energy>  (1) 
0

>  <r_i_docking_score>  (1) 
-4.3571978047360931

>  <r_i_glide_ecoul>  (1) 
-0.55551373748380206

>  <r_i_glide_eff_state_penalty>  (1) 
-0

>  <r_i_glide_einternal>  (1) 
0

>  <r_i_glide_emodel>  (1) 
-16.591380271081533

>  <r_i_glide_emodel_strain>  (1) 
7.1196382123162039e-12

>  <r_i_glide_energy>  (1) 
-12.817698540477547

>  <r_i_glide_erotb>  (1) 
0

>  <r_i_glide_esite>  (1) 
0

>  <r_i_glide_evdw>  (1) 
-12.262184802993746

>  <r_i_glide_gscore>  (1) 
-4.3571978047360931

>  <r_i_glide_gscore_strain>  (1) 
0

>  <r_i_glide_hbond>  (1) 
0

>  <r_i_glide_ligand_efficiency>  (1) 
-0.87143956094721864

>  <r_i_glide_ligand_efficiency_ln>  (1) 
-1.669784049650628

>  <r_i_glide_ligand_efficiency_sa>  (1) 
-1.4901406882022454

>  <r_i_glide_lipo>  (1) 
-1.174867590085424

>  <r_i_glide_metal>  (1) 
-0

>  <r_i_glide_rewards>  (1) 
-2.4858939138784106

>  <r_lp_Energy>  (1) 
-3.1771669999999999

>  <r_lp_tautomer_probability>  (1) 
1

>  <s_epik_cmdline>  (1) 
J2VwaWtfcHl0aG9uJywgJy1waHQnLCAnMS4wJywgJy1waCcsICc3LjQnLCAnLXRuJywgJzgnLCAnLW1hJywgJzUwMCcsICctaW1hZScsICc8aW5maWxlLm1hZT4nLCAnLW9tYWUnLCAnPG91dGZpbGUubWFlPic=

>  <s_epik_input>  (1) 
W0NIMl0xT1tDSF09W0NIXVtDSDJdMQ==

>  <s_glide_docking_method>  (1) 
confgen

>  <s_i_glide_gridfile>  (1) 
gpcr_drd2_6luq_protein_autoprepared_prepared

>  <s_lp_Force_Field>  (1) 
S-OPLS

>  <s_lp_Variant>  (1) 
Pocket2Mol_47_num_sample_50-1

>  <s_m_source_file>  (1) 
generated__ligand_Pocket2Mol_2026-05-06_prepared.sdf

>  <GenAI_Model>  (1) 
Pocket2Mol

>  <Protein>  (1) 
generic_title2

$$$$
Pocket2Mol_13_num_sample_50
     RDKit          3D

  0  0  0  0  0  0  0  0  0  0999 V3000
M  V30 BEGIN CTAB
M  V30 COUNTS 17 17 0 0 1
M  V30 BEGIN ATOM
M  V30 1 C 11.787844 8.335779 -9.019385 0
M  V30 2 O 11.810854 8.638699 -7.628728 0
M  V30 3 C 11.389874 7.565008 -6.786457 0
M  V30 4 C 9.970446 7.083729 -7.132980 0 CFG=1
M  V30 5 O 9.034839 8.045645 -6.691807 0
M  V30 6 C 10.359249 7.980539 -9.456173 0
M  V30 7 C 9.834839 6.798820 -8.633520 0
M  V30 8 H 12.144020 9.205023 -9.573186 0
M  V30 9 H 12.475137 7.517572 -9.236586 0
M  V30 10 H 11.443539 7.878952 -5.743491 0
M  V30 11 H 12.089345 6.735986 -6.902903 0
M  V30 12 H 9.757496 6.169303 -6.577833 0
M  V30 13 H 8.162342 7.768962 -6.961598 0
M  V30 14 H 9.704937 8.842791 -9.318854 0
M  V30 15 H 10.336672 7.738321 -10.518808 0
M  V30 16 H 10.412435 5.907703 -8.879191 0
M  V30 17 H 8.800570 6.569330 -8.892507 0
M  V30 END ATOM
M  V30 BEGIN BOND
M  V30 1 1 2 1
M  V30 2 1 3 2
M  V30 3 1 4 3
M  V30 4 1 5 4
M  V30 5 1 6 1
M  V30 6 1 7 4
M  V30 7 1 7 6
M  V30 8 1 8 1
M  V30 9 1 9 1
M  V30 10 1 10 3
M  V30 11 1 11 3
M  V30 12 1 4 12 CFG=1
M  V30 13 1 13 5
M  V30 14 1 14 6
M  V30 15 1 15 6
M  V30 16 1 16 7
M  V30 17 1 17 7
M  V30 END BOND
M  V30 END CTAB
M  END
>  <i_epik_Tot_Q>  (1) 
0

>  <i_epik_Tot_abs_Q>  (1) 
0

>  <i_i_glide_confnum>  (1) 
2

>  <i_i_glide_lignum>  (1) 
16

>  <i_i_glide_posenum>  (1) 
110

>  <i_i_glide_rotatable_bonds>  (1) 
1

>  <i_lp_mmshare_version>  (1) 
72125

>  <i_m_source_file_index>  (1) 
14

>  <i_f3d_flags>  (1) 
0

>  <num_sample>  (1) 
50

>  <b_lp_Chiralities_Consistent>  (1) 
1

>  <r_epik_Charging_Adjusted_Penalty>  (1) 
0

>  <r_epik_Ionization_Penalty>  (1) 
4.2263924331700322e-08

>  <r_epik_Ionization_Penalty_Charging>  (1) 
0

>  <r_epik_Ionization_Penalty_Neutral>  (1) 
4.2263924331700322e-08

>  <r_epik_State_Penalty>  (1) 
-0

>  <r_glide_ring_energy>  (1) 
0.68055942654544588

>  <r_i_docking_score>  (1) 
-4.3568439066521716

>  <r_i_glide_ecoul>  (1) 
-2.6942795821248642

>  <r_i_glide_eff_state_penalty>  (1) 
-0

>  <r_i_glide_einternal>  (1) 
0.34896583525063368

>  <r_i_glide_emodel>  (1) 
-23.583069771938156

>  <r_i_glide_emodel_strain>  (1) 
0

>  <r_i_glide_energy>  (1) 
-17.984640750651565

>  <r_i_glide_erotb>  (1) 
0

>  <r_i_glide_esite>  (1) 
0

>  <r_i_glide_evdw>  (1) 
-15.290361168526699

>  <r_i_glide_gscore>  (1) 
-4.3568439066521716

>  <r_i_glide_gscore_strain>  (1) 
0

>  <r_i_glide_hbond>  (1) 
-0.16

>  <r_i_glide_ligand_efficiency>  (1) 
-0.62240627237888169

>  <r_i_glide_ligand_efficiency_ln>  (1) 
-1.4789466365935542

>  <r_i_glide_ligand_efficiency_sa>  (1) 
-1.1906203667866879

>  <r_i_glide_lipo>  (1) 
-0.4870230115343489

>  <r_i_glide_metal>  (1) 
-0

>  <r_i_glide_rewards>  (1) 
-2.5411608993727577

>  <r_lp_Energy>  (1) 
6.7642049999999996

>  <r_lp_tautomer_probability>  (1) 
1

>  <s_epik_cmdline>  (1) 
J2VwaWtfcHl0aG9uJywgJy1waHQnLCAnMS4wJywgJy1waCcsICc3LjQnLCAnLXRuJywgJzgnLCAnLW1hJywgJzUwMCcsICctaW1hZScsICc8aW5maWxlLm1hZT4nLCAnLW9tYWUnLCAnPG91dGZpbGUubWFlPic=

>  <s_epik_input>  (1) 
W0NIMl0xW0NIMl1bQ0gyXU9bQ0gyXVtDQEhdMVtPSF0=

>  <s_glide_docking_method>  (1) 
confgen

>  <s_i_glide_gridfile>  (1) 
gpcr_drd2_6luq_protein_autoprepared_prepared

>  <s_lp_Force_Field>  (1) 
S-OPLS

>  <s_lp_Variant>  (1) 
Pocket2Mol_13_num_sample_50-1

>  <s_m_source_file>  (1) 
generated__ligand_Pocket2Mol_2026-05-06_prepared.sdf

>  <GenAI_Model>  (1) 
Pocket2Mol

>  <Protein>  (1) 
generic_title2

$$$$
Pocket2Mol_24_num_sample_50
     RDKit          3D

  0  0  0  0  0  0  0  0  0  0999 V3000
M  V30 BEGIN CTAB
M  V30 COUNTS 15 15 0 0 1
M  V30 BEGIN ATOM
M  V30 1 N 7.869207 6.169241 -11.091667 0 CHG=1
M  V30 2 C 7.303662 4.973777 -11.456167 0
M  V30 3 C 8.225037 4.329424 -12.270911 0
M  V30 4 C 9.068160 6.276904 -11.637486 0
M  V30 5 C 8.188316 3.010559 -12.965758 0
M  V30 6 N 9.898675 7.307199 -11.491676 0
M  V30 7 N 9.304790 5.183151 -12.350970 0
M  V30 8 H 6.320722 4.673809 -11.120303 0
M  V30 9 H 7.269348 2.477574 -12.720248 0
M  V30 10 H 8.229689 3.150179 -14.046152 0
M  V30 11 H 9.034863 2.395320 -12.658550 0
M  V30 12 H 9.663518 8.114807 -10.930265 0
M  V30 13 H 10.806028 7.338291 -11.933176 0
M  V30 14 H 10.155522 5.002687 -12.872972 0
M  V30 15 H 7.434843 6.872755 -10.470063 0
M  V30 END ATOM
M  V30 BEGIN BOND
M  V30 1 1 2 1
M  V30 2 2 3 2
M  V30 3 2 4 1
M  V30 4 1 5 3
M  V30 5 1 6 4
M  V30 6 1 7 3
M  V30 7 1 7 4
M  V30 8 1 8 2
M  V30 9 1 9 5
M  V30 10 1 10 5
M  V30 11 1 11 5
M  V30 12 1 12 6
M  V30 13 1 13 6
M  V30 14 1 14 7
M  V30 15 1 15 1
M  V30 END BOND
M  V30 END CTAB
M  END
>  <i_epik_Tot_Q>  (1) 
1

>  <i_epik_Tot_abs_Q>  (1) 
1

>  <i_i_glide_confnum>  (1) 
1

>  <i_i_glide_lignum>  (1) 
28

>  <i_i_glide_posenum>  (1) 
367

>  <i_i_glide_rotatable_bonds>  (1) 
0

>  <i_lp_mmshare_version>  (1) 
72125

>  <i_m_source_file_index>  (1) 
25

>  <i_f3d_flags>  (1) 
0

>  <num_sample>  (1) 
50

>  <b_lp_Chiralities_Consistent>  (1) 
1

>  <r_epik_Charging_Adjusted_Penalty>  (1) 
0.028937443406262361

>  <r_epik_Ionization_Penalty>  (1) 
0.025358402846536118

>  <r_epik_Ionization_Penalty_Charging>  (1) 
0

>  <r_epik_Ionization_Penalty_Neutral>  (1) 
0.025358402846536118

>  <r_epik_State_Penalty>  (1) 
0.028937443406262361

>  <r_glide_ring_energy>  (1) 
0

>  <r_i_docking_score>  (1) 
-4.3513025604334201

>  <r_i_glide_ecoul>  (1) 
-7.6043617683379638

>  <r_i_glide_eff_state_penalty>  (1) 
0.028937443406262361

>  <r_i_glide_einternal>  (1) 
0

>  <r_i_glide_emodel>  (1) 
-23.147194782612292

>  <r_i_glide_emodel_strain>  (1) 
0

>  <r_i_glide_energy>  (1) 
-14.543171217819367

>  <r_i_glide_erotb>  (1) 
0

>  <r_i_glide_esite>  (1) 
-0.16435311337991459

>  <r_i_glide_evdw>  (1) 
-6.9388094494814023

>  <r_i_glide_gscore>  (1) 
-4.380240003839682

>  <r_i_glide_gscore_strain>  (1) 
0

>  <r_i_glide_hbond>  (1) 
-0.19378311276314325

>  <r_i_glide_ligand_efficiency>  (1) 
-0.62161465149048856

>  <r_i_glide_ligand_efficiency_ln>  (1) 
-1.4770656063046539

>  <r_i_glide_ligand_efficiency_sa>  (1) 
-1.1891060505043469

>  <r_i_glide_lipo>  (1) 
-0.2845090399718595

>  <r_i_glide_metal>  (1) 
-0

>  <r_i_glide_rewards>  (1) 
-2.25

>  <r_lp_Energy>  (1) 
-0.73901799999999995

>  <r_lp_tautomer_probability>  (1) 
0.99999998112300037

>  <s_epik_cmdline>  (1) 
J2VwaWtfcHl0aG9uJywgJy1waHQnLCAnMS4wJywgJy1waCcsICc3LjQnLCAnLXRuJywgJzgnLCAnLW1hJywgJzUwMCcsICctaW1hZScsICc8aW5maWxlLm1hZT4nLCAnLW9tYWUnLCAnPG91dGZpbGUubWFlPic=

>  <s_epik_input>  (1) 
W05IMl1jKFtuSF0xKW5bY0hdYzFbQ0gzXQ==

>  <s_glide_docking_method>  (1) 
confgen

>  <s_i_glide_gridfile>  (1) 
gpcr_drd2_6luq_protein_autoprepared_prepared

>  <s_lp_Force_Field>  (1) 
S-OPLS

>  <s_lp_Variant>  (1) 
Pocket2Mol_24_num_sample_50-1

>  <s_m_source_file>  (1) 
generated__ligand_Pocket2Mol_2026-05-06_prepared.sdf

>  <GenAI_Model>  (1) 
Pocket2Mol

>  <Protein>  (1) 
generic_title2

$$$$
Pocket2Mol_24_num_sample_50
     RDKit          3D

  0  0  0  0  0  0  0  0  0  0999 V3000
M  V30 BEGIN CTAB
M  V30 COUNTS 15 15 0 0 1
M  V30 BEGIN ATOM
M  V30 1 N 11.479946 8.002415 -8.443190 0 CHG=1
M  V30 2 C 11.512722 7.991909 -9.814154 0
M  V30 3 C 10.203980 7.927617 -10.247632 0
M  V30 4 C 10.216927 7.947713 -8.032558 0
M  V30 5 C 9.617395 7.888754 -11.616051 0
M  V30 6 N 9.805348 7.940229 -6.761790 0
M  V30 7 N 9.446044 7.902512 -9.107934 0
M  V30 8 H 12.436067 8.029613 -10.371523 0
M  V30 9 H 10.405068 7.917768 -12.369059 0
M  V30 10 H 9.040984 6.973888 -11.755737 0
M  V30 11 H 8.959464 8.744336 -11.771270 0
M  V30 12 H 10.445371 7.976206 -5.981761 0
M  V30 13 H 8.828146 7.897091 -6.506733 0
M  V30 14 H 8.418157 7.854939 -9.091679 0
M  V30 15 H 12.292704 8.045072 -7.839769 0
M  V30 END ATOM
M  V30 BEGIN BOND
M  V30 1 1 2 1
M  V30 2 2 3 2
M  V30 3 2 4 1
M  V30 4 1 5 3
M  V30 5 1 6 4
M  V30 6 1 7 3
M  V30 7 1 7 4
M  V30 8 1 8 2
M  V30 9 1 9 5
M  V30 10 1 10 5
M  V30 11 1 11 5
M  V30 12 1 12 6
M  V30 13 1 13 6
M  V30 14 1 14 7
M  V30 15 1 15 1
M  V30 END BOND
M  V30 END CTAB
M  END
>  <i_epik_Tot_Q>  (1) 
1

>  <i_epik_Tot_abs_Q>  (1) 
1

>  <i_i_glide_confnum>  (1) 
1

>  <i_i_glide_lignum>  (1) 
28

>  <i_i_glide_posenum>  (1) 
374

>  <i_i_glide_rotatable_bonds>  (1) 
0

>  <i_lp_mmshare_version>  (1) 
72125

>  <i_m_source_file_index>  (1) 
25

>  <i_f3d_flags>  (1) 
0

>  <num_sample>  (1) 
50

>  <b_lp_Chiralities_Consistent>  (1) 
1

>  <r_epik_Charging_Adjusted_Penalty>  (1) 
0.028937443406262361

>  <r_epik_Ionization_Penalty>  (1) 
0.025358402846536118

>  <r_epik_Ionization_Penalty_Charging>  (1) 
0

>  <r_epik_Ionization_Penalty_Neutral>  (1) 
0.025358402846536118

>  <r_epik_State_Penalty>  (1) 
0.028937443406262361

>  <r_glide_ring_energy>  (1) 
0

>  <r_i_docking_score>  (1) 
-4.3510619933395738

>  <r_i_glide_ecoul>  (1) 
-8.1137776906556454

>  <r_i_glide_eff_state_penalty>  (1) 
0.028937443406262361

>  <r_i_glide_einternal>  (1) 
0

>  <r_i_glide_emodel>  (1) 
-23.803825255154699

>  <r_i_glide_emodel_strain>  (1) 
0

>  <r_i_glide_energy>  (1) 
-15.200274231807574

>  <r_i_glide_erotb>  (1) 
0

>  <r_i_glide_esite>  (1) 
-0.16571950384196074

>  <r_i_glide_evdw>  (1) 
-7.086496541151929

>  <r_i_glide_gscore>  (1) 
-4.3799994367458357

>  <r_i_glide_gscore_strain>  (1) 
0

>  <r_i_glide_hbond>  (1) 
-0.18264058155028745

>  <r_i_glide_ligand_efficiency>  (1) 
-0.62158028476279625

>  <r_i_glide_ligand_efficiency_ln>  (1) 
-1.4769839449227129

>  <r_i_glide_ligand_efficiency_sa>  (1) 
-1.1890403093192943

>  <r_i_glide_lipo>  (1) 
-0.21024787069764414

>  <r_i_glide_metal>  (1) 
-0

>  <r_i_glide_rewards>  (1) 
-2.25

>  <r_lp_Energy>  (1) 
-0.73901799999999995

>  <r_lp_tautomer_probability>  (1) 
0.99999998112300037

>  <s_epik_cmdline>  (1) 
J2VwaWtfcHl0aG9uJywgJy1waHQnLCAnMS4wJywgJy1waCcsICc3LjQnLCAnLXRuJywgJzgnLCAnLW1hJywgJzUwMCcsICctaW1hZScsICc8aW5maWxlLm1hZT4nLCAnLW9tYWUnLCAnPG91dGZpbGUubWFlPic=

>  <s_epik_input>  (1) 
W05IMl1jKFtuSF0xKW5bY0hdYzFbQ0gzXQ==

>  <s_glide_docking_method>  (1) 
confgen

>  <s_i_glide_gridfile>  (1) 
gpcr_drd2_6luq_protein_autoprepared_prepared

>  <s_lp_Force_Field>  (1) 
S-OPLS

>  <s_lp_Variant>  (1) 
Pocket2Mol_24_num_sample_50-1

>  <s_m_source_file>  (1) 
generated__ligand_Pocket2Mol_2026-05-06_prepared.sdf

>  <GenAI_Model>  (1) 
Pocket2Mol

>  <Protein>  (1) 
generic_title2

$$$$
Pocket2Mol_32_num_sample_50
     RDKit          3D

  0  0  0  0  0  0  0  0  0  0999 V3000
M  V30 BEGIN CTAB
M  V30 COUNTS 12 12 0 0 1
M  V30 BEGIN ATOM
M  V30 1 N 11.434789 7.975503 -5.018581 0
M  V30 2 C 11.898591 8.969000 -4.291594 0
M  V30 3 C 12.302314 8.599733 -3.129069 0
M  V30 4 C 12.144159 7.115352 -2.850308 0
M  V30 5 C 11.434845 6.691285 -4.291670 0
M  V30 6 H 11.889299 9.962600 -4.716505 0
M  V30 7 H 13.108514 6.633968 -2.691695 0
M  V30 8 H 11.490870 6.935208 -1.996048 0
M  V30 9 H 12.009149 5.938767 -4.831508 0
M  V30 10 H 10.417586 6.322498 -4.155221 0
M  V30 11 H 12.711777 9.269603 -2.386131 0
M  V30 12 H 10.879002 8.108462 -5.853411 0
M  V30 END ATOM
M  V30 BEGIN BOND
M  V30 1 1 2 1
M  V30 2 2 3 2
M  V30 3 1 4 3
M  V30 4 1 5 1
M  V30 5 1 5 4
M  V30 6 1 6 2
M  V30 7 1 7 4
M  V30 8 1 8 4
M  V30 9 1 9 5
M  V30 10 1 10 5
M  V30 11 1 11 3
M  V30 12 1 12 1
M  V30 END BOND
M  V30 END CTAB
M  END
>  <i_epik_Tot_Q>  (1) 
0

>  <i_epik_Tot_abs_Q>  (1) 
0

>  <i_i_glide_confnum>  (1) 
1

>  <i_i_glide_lignum>  (1) 
36

>  <i_i_glide_posenum>  (1) 
49

>  <i_i_glide_rotatable_bonds>  (1) 
0

>  <i_lp_mmshare_version>  (1) 
72125

>  <i_m_source_file_index>  (1) 
33

>  <i_f3d_flags>  (1) 
0

>  <num_sample>  (1) 
50

>  <b_lp_Chiralities_Consistent>  (1) 
1

>  <r_epik_Charging_Adjusted_Penalty>  (1) 
1.6042444336516156e-06

>  <r_epik_Ionization_Penalty>  (1) 
0.0023556498582944039

>  <r_epik_Ionization_Penalty_Charging>  (1) 
1.6042444336516156e-06

>  <r_epik_Ionization_Penalty_Neutral>  (1) 
0.0023540456138607521

>  <r_epik_State_Penalty>  (1) 
-0

>  <r_glide_ring_energy>  (1) 
0

>  <r_i_docking_score>  (1) 
-4.3492726410395743

>  <r_i_glide_ecoul>  (1) 
-1.3332355808756662

>  <r_i_glide_eff_state_penalty>  (1) 
-0

>  <r_i_glide_einternal>  (1) 
0

>  <r_i_glide_emodel>  (1) 
-18.171635488345082

>  <r_i_glide_emodel_strain>  (1) 
0

>  <r_i_glide_energy>  (1) 
-13.823598719322538

>  <r_i_glide_erotb>  (1) 
0

>  <r_i_glide_esite>  (1) 
0

>  <r_i_glide_evdw>  (1) 
-12.490363138446872

>  <r_i_glide_gscore>  (1) 
-4.3492726410395743

>  <r_i_glide_gscore_strain>  (1) 
0

>  <r_i_glide_hbond>  (1) 
0

>  <r_i_glide_ligand_efficiency>  (1) 
-0.86985452820791487

>  <r_i_glide_ligand_efficiency_ln>  (1) 
-1.6667469343934476

>  <r_i_glide_ligand_efficiency_sa>  (1) 
-1.4874303203433408

>  <r_i_glide_lipo>  (1) 
-1.2747691469858802

>  <r_i_glide_metal>  (1) 
-0

>  <r_i_glide_rewards>  (1) 
-2.25

>  <r_lp_Energy>  (1) 
2.9163329999999998

>  <r_lp_tautomer_probability>  (1) 
1

>  <s_epik_Chemistry_Notes>  (1) 
This compound has an imine and may undergo hydrolysis.

>  <s_epik_cmdline>  (1) 
J2VwaWtfcHl0aG9uJywgJy1waHQnLCAnMS4wJywgJy1waCcsICc3LjQnLCAnLXRuJywgJzgnLCAnLW1hJywgJzUwMCcsICctaW1hZScsICc8aW5maWxlLm1hZT4nLCAnLW9tYWUnLCAnPG91dGZpbGUubWFlPic=

>  <s_epik_input>  (1) 
W05IXTFbQ0hdPVtDSF1bQ0gyXVtDSDJdMQ==

>  <s_glide_docking_method>  (1) 
confgen

>  <s_i_glide_gridfile>  (1) 
gpcr_drd2_6luq_protein_autoprepared_prepared

>  <s_lp_Force_Field>  (1) 
S-OPLS

>  <s_lp_Variant>  (1) 
Pocket2Mol_32_num_sample_50-1

>  <s_m_source_file>  (1) 
generated__ligand_Pocket2Mol_2026-05-06_prepared.sdf

>  <GenAI_Model>  (1) 
Pocket2Mol

>  <Protein>  (1) 
generic_title2

$$$$
Pocket2Mol_28_num_sample_50
     RDKit          3D

  0  0  0  0  0  0  0  0  0  0999 V3000
M  V30 BEGIN CTAB
M  V30 COUNTS 18 18 0 0 1
M  V30 BEGIN ATOM
M  V30 1 C 10.660973 7.837200 -6.461687 0
M  V30 2 O 11.135437 8.423337 -7.668076 0
M  V30 3 C 10.185148 8.561497 -8.710066 0
M  V30 4 C 10.153466 7.283069 -9.560414 0
M  V30 5 O 9.434613 7.592817 -10.731855 0
M  V30 6 C 9.638681 6.699685 -6.624463 0
M  V30 7 C 9.490150 6.060193 -8.895309 0
M  V30 8 O 10.041082 5.769773 -7.618834 0
M  V30 9 H 11.532427 7.467323 -5.923544 0
M  V30 10 H 10.225320 8.619542 -5.839782 0
M  V30 11 H 10.544410 9.369663 -9.343892 0
M  V30 12 H 9.197840 8.856408 -8.348044 0
M  V30 13 H 11.173721 7.028218 -9.847825 0
M  V30 14 H 8.530000 7.764526 -10.467144 0
M  V30 15 H 9.572648 6.170544 -5.674365 0
M  V30 16 H 8.634682 7.088219 -6.805302 0
M  V30 17 H 8.407675 6.169302 -8.818483 0
M  V30 18 H 9.650945 5.187063 -9.527977 0
M  V30 END ATOM
M  V30 BEGIN BOND
M  V30 1 1 2 1
M  V30 2 1 3 2
M  V30 3 1 4 3
M  V30 4 1 5 4
M  V30 5 1 6 1
M  V30 6 1 7 4
M  V30 7 1 8 6
M  V30 8 1 8 7
M  V30 9 1 9 1
M  V30 10 1 10 1
M  V30 11 1 11 3
M  V30 12 1 12 3
M  V30 13 1 13 4
M  V30 14 1 14 5
M  V30 15 1 15 6
M  V30 16 1 16 6
M  V30 17 1 17 7
M  V30 18 1 18 7
M  V30 END BOND
M  V30 END CTAB
M  END
>  <i_epik_Tot_Q>  (1) 
0

>  <i_epik_Tot_abs_Q>  (1) 
0

>  <i_i_glide_confnum>  (1) 
1

>  <i_i_glide_lignum>  (1) 
32

>  <i_i_glide_posenum>  (1) 
208

>  <i_i_glide_rotatable_bonds>  (1) 
1

>  <i_lp_mmshare_version>  (1) 
72125

>  <i_m_source_file_index>  (1) 
29

>  <i_f3d_flags>  (1) 
0

>  <num_sample>  (1) 
50

>  <b_lp_Chiralities_Consistent>  (1) 
1

>  <r_epik_Charging_Adjusted_Penalty>  (1) 
0

>  <r_epik_Ionization_Penalty>  (1) 
1.4561355789117501e-07

>  <r_epik_Ionization_Penalty_Charging>  (1) 
0

>  <r_epik_Ionization_Penalty_Neutral>  (1) 
1.4561355789117501e-07

>  <r_epik_State_Penalty>  (1) 
-0

>  <r_glide_ring_energy>  (1) 
0

>  <r_i_docking_score>  (1) 
-4.3477566659619802

>  <r_i_glide_ecoul>  (1) 
-4.1381363350263092

>  <r_i_glide_eff_state_penalty>  (1) 
-0

>  <r_i_glide_einternal>  (1) 
0.89552910074276393

>  <r_i_glide_emodel>  (1) 
-25.37568854478063

>  <r_i_glide_emodel_strain>  (1) 
0

>  <r_i_glide_energy>  (1) 
-19.578988398601464

>  <r_i_glide_erotb>  (1) 
0

>  <r_i_glide_esite>  (1) 
0

>  <r_i_glide_evdw>  (1) 
-15.440852063575155

>  <r_i_glide_gscore>  (1) 
-4.3477566659619802

>  <r_i_glide_gscore_strain>  (1) 
0

>  <r_i_glide_hbond>  (1) 
-0.16

>  <r_i_glide_ligand_efficiency>  (1) 
-0.54346958324524752

>  <r_i_glide_ligand_efficiency_ln>  (1) 
-1.4118653032102302

>  <r_i_glide_ligand_efficiency_sa>  (1) 
-1.0869391664904953

>  <r_i_glide_lipo>  (1) 
-0.20332694586260955

>  <r_i_glide_metal>  (1) 
-0

>  <r_i_glide_rewards>  (1) 
-2.5916666666666668

>  <r_lp_Energy>  (1) 
13.809562999999999

>  <r_lp_tautomer_probability>  (1) 
1

>  <s_epik_cmdline>  (1) 
J2VwaWtfcHl0aG9uJywgJy1waHQnLCAnMS4wJywgJy1waCcsICc3LjQnLCAnLXRuJywgJzgnLCAnLW1hJywgJzUwMCcsICctaW1hZScsICc8aW5maWxlLm1hZT4nLCAnLW9tYWUnLCAnPG91dGZpbGUubWFlPic=

>  <s_epik_input>  (1) 
W0NIMl0xT1tDSDJdW0NIMl1PW0NIMl1bQ0hdMVtPSF0=

>  <s_glide_docking_method>  (1) 
confgen

>  <s_i_glide_gridfile>  (1) 
gpcr_drd2_6luq_protein_autoprepared_prepared

>  <s_lp_Force_Field>  (1) 
S-OPLS

>  <s_lp_Variant>  (1) 
Pocket2Mol_28_num_sample_50-1

>  <s_m_source_file>  (1) 
generated__ligand_Pocket2Mol_2026-05-06_prepared.sdf

>  <GenAI_Model>  (1) 
Pocket2Mol

>  <Protein>  (1) 
generic_title2

$$$$
Pocket2Mol_18_num_sample_50
     RDKit          3D

  0  0  0  0  0  0  0  0  0  0999 V3000
M  V30 BEGIN CTAB
M  V30 COUNTS 14 14 0 0 1
M  V30 BEGIN ATOM
M  V30 1 N 12.292647 8.569302 -7.561189 0 CHG=1
M  V30 2 C 12.665921 8.371033 -8.843411 0
M  V30 3 C 11.720954 7.932112 -9.789384 0
M  V30 4 C 10.391920 7.710011 -9.374886 0
M  V30 5 N 9.434839 7.285500 -10.284927 0
M  V30 6 C 10.044549 7.926300 -8.023702 0
M  V30 7 C 11.034033 8.363260 -7.124426 0
M  V30 8 H 13.703568 8.569299 -9.072749 0
M  V30 9 H 12.009451 7.769301 -10.816483 0
M  V30 10 H 8.441568 7.369033 -10.030987 0
M  V30 11 H 9.627017 7.324544 -11.274230 0
M  V30 12 H 9.034839 7.758898 -7.684208 0
M  V30 13 H 10.856643 8.554324 -6.075488 0
M  V30 14 H 12.994534 8.889531 -6.893043 0
M  V30 END ATOM
M  V30 BEGIN BOND
M  V30 1 1 2 1
M  V30 2 2 3 2
M  V30 3 1 4 3
M  V30 4 1 5 4
M  V30 5 2 6 4
M  V30 6 2 7 1
M  V30 7 1 7 6
M  V30 8 1 8 2
M  V30 9 1 9 3
M  V30 10 1 10 5
M  V30 11 1 11 5
M  V30 12 1 12 6
M  V30 13 1 13 7
M  V30 14 1 14 1
M  V30 END BOND
M  V30 END CTAB
M  END
>  <i_epik_Tot_Q>  (1) 
1

>  <i_epik_Tot_abs_Q>  (1) 
1

>  <i_i_glide_confnum>  (1) 
1

>  <i_i_glide_lignum>  (1) 
21

>  <i_i_glide_posenum>  (1) 
294

>  <i_i_glide_rotatable_bonds>  (1) 
0

>  <i_lp_mmshare_version>  (1) 
72125

>  <i_m_source_file_index>  (1) 
19

>  <i_f3d_flags>  (1) 
0

>  <num_sample>  (1) 
50

>  <b_lp_Chiralities_Consistent>  (1) 
1

>  <r_epik_Charging_Adjusted_Penalty>  (1) 
0.023410508937706027

>  <r_epik_Ionization_Penalty>  (1) 
0.011711918016166721

>  <r_epik_Ionization_Penalty_Charging>  (1) 
0.011705254468853022

>  <r_epik_Ionization_Penalty_Neutral>  (1) 
6.6635473136990569e-06

>  <r_epik_State_Penalty>  (1) 
0.011705254468853005

>  <r_glide_ring_energy>  (1) 
0

>  <r_i_docking_score>  (1) 
-4.3475878159618775

>  <r_i_glide_ecoul>  (1) 
-4.1608158122975798

>  <r_i_glide_eff_state_penalty>  (1) 
0.011705254468853005

>  <r_i_glide_einternal>  (1) 
0

>  <r_i_glide_emodel>  (1) 
-24.175033968087522

>  <r_i_glide_emodel_strain>  (1) 
0

>  <r_i_glide_energy>  (1) 
-16.039609331565273

>  <r_i_glide_erotb>  (1) 
0

>  <r_i_glide_esite>  (1) 
-0.10000000000000001

>  <r_i_glide_evdw>  (1) 
-11.878793519267694

>  <r_i_glide_gscore>  (1) 
-4.3592930704307307

>  <r_i_glide_gscore_strain>  (1) 
0

>  <r_i_glide_hbond>  (1) 
-0.16

>  <r_i_glide_ligand_efficiency>  (1) 
-0.62108397370883961

>  <r_i_glide_ligand_efficiency_ln>  (1) 
-1.4758046226752877

>  <r_i_glide_ligand_efficiency_sa>  (1) 
-1.1880909004278262

>  <r_i_glide_lipo>  (1) 
-0.63123102262270869

>  <r_i_glide_metal>  (1) 
-0

>  <r_i_glide_rewards>  (1) 
-2.25

>  <r_lp_Energy>  (1) 
13.062742999999999

>  <r_lp_tautomer_probability>  (1) 
0.99999999993680011

>  <s_epik_cmdline>  (1) 
J2VwaWtfcHl0aG9uJywgJy1waHQnLCAnMS4wJywgJy1waCcsICc3LjQnLCAnLXRuJywgJzgnLCAnLW1hJywgJzUwMCcsICctaW1hZScsICc8aW5maWxlLm1hZT4nLCAnLW9tYWUnLCAnPG91dGZpbGUubWFlPic=

>  <s_epik_input>  (1) 
W2NIXTFbY0hdbltjSF1bY0hdYzFbTkgyXQ==

>  <s_glide_docking_method>  (1) 
confgen

>  <s_i_glide_gridfile>  (1) 
gpcr_drd2_6luq_protein_autoprepared_prepared

>  <s_lp_Force_Field>  (1) 
S-OPLS

>  <s_lp_Variant>  (1) 
Pocket2Mol_18_num_sample_50-1

>  <s_m_source_file>  (1) 
generated__ligand_Pocket2Mol_2026-05-06_prepared.sdf

>  <GenAI_Model>  (1) 
Pocket2Mol

>  <Protein>  (1) 
generic_title2

$$$$
Pocket2Mol_47_num_sample_50
     RDKit          3D

  0  0  0  0  0  0  0  0  0  0999 V3000
M  V30 BEGIN CTAB
M  V30 COUNTS 11 11 0 0 1
M  V30 BEGIN ATOM
M  V30 1 C 11.178713 9.081444 -5.732338 0
M  V30 2 O 11.570361 8.101459 -4.691941 0
M  V30 3 C 10.298370 8.400297 -6.888196 0
M  V30 4 C 10.380335 7.068219 -6.291675 0
M  V30 5 C 11.034839 6.969297 -5.179971 0
M  V30 6 H 12.084140 9.514231 -6.159672 0
M  V30 7 H 10.633865 9.901327 -5.263896 0
M  V30 8 H 10.764348 8.438436 -7.872990 0
M  V30 9 H 9.268889 8.759357 -6.924433 0
M  V30 10 H 9.906065 6.226384 -6.775524 0
M  V30 11 H 11.210868 6.087360 -4.580812 0
M  V30 END ATOM
M  V30 BEGIN BOND
M  V30 1 1 2 1
M  V30 2 1 3 1
M  V30 3 1 4 3
M  V30 4 1 5 2
M  V30 5 2 5 4
M  V30 6 1 6 1
M  V30 7 1 7 1
M  V30 8 1 8 3
M  V30 9 1 9 3
M  V30 10 1 10 4
M  V30 11 1 11 5
M  V30 END BOND
M  V30 END CTAB
M  END
>  <i_epik_Tot_Q>  (1) 
0

>  <i_epik_Tot_abs_Q>  (1) 
0

>  <i_i_glide_confnum>  (1) 
1

>  <i_i_glide_lignum>  (1) 
53

>  <i_i_glide_posenum>  (1) 
299

>  <i_i_glide_rotatable_bonds>  (1) 
0

>  <i_lp_mmshare_version>  (1) 
72125

>  <i_m_source_file_index>  (1) 
48

>  <i_f3d_flags>  (1) 
0

>  <num_sample>  (1) 
50

>  <b_lp_Chiralities_Consistent>  (1) 
1

>  <r_epik_Charging_Adjusted_Penalty>  (1) 
0

>  <r_epik_Ionization_Penalty>  (1) 
0

>  <r_epik_Ionization_Penalty_Charging>  (1) 
0

>  <r_epik_Ionization_Penalty_Neutral>  (1) 
0

>  <r_epik_State_Penalty>  (1) 
-0

>  <r_glide_ring_energy>  (1) 
0

>  <r_i_docking_score>  (1) 
-4.3456103557057864

>  <r_i_glide_ecoul>  (1) 
-0.70057797865222271

>  <r_i_glide_eff_state_penalty>  (1) 
-0

>  <r_i_glide_einternal>  (1) 
0

>  <r_i_glide_emodel>  (1) 
-16.395127877244452

>  <r_i_glide_emodel_strain>  (1) 
0

>  <r_i_glide_energy>  (1) 
-12.631481804106256

>  <r_i_glide_erotb>  (1) 
0

>  <r_i_glide_esite>  (1) 
0

>  <r_i_glide_evdw>  (1) 
-11.930903825454033

>  <r_i_glide_gscore>  (1) 
-4.3456103557057864

>  <r_i_glide_gscore_strain>  (1) 
0

>  <r_i_glide_hbond>  (1) 
0

>  <r_i_glide_ligand_efficiency>  (1) 
-0.86912207114115725

>  <r_i_glide_ligand_efficiency_ln>  (1) 
-1.6653434576844073

>  <r_i_glide_ligand_efficiency_sa>  (1) 
-1.486177836377212

>  <r_i_glide_lipo>  (1) 
-1.0776663599700773

>  <r_i_glide_metal>  (1) 
-0

>  <r_i_glide_rewards>  (1) 
-2.5663121076651736

>  <r_lp_Energy>  (1) 
-3.1771669999999999

>  <r_lp_tautomer_probability>  (1) 
1

>  <s_epik_cmdline>  (1) 
J2VwaWtfcHl0aG9uJywgJy1waHQnLCAnMS4wJywgJy1waCcsICc3LjQnLCAnLXRuJywgJzgnLCAnLW1hJywgJzUwMCcsICctaW1hZScsICc8aW5maWxlLm1hZT4nLCAnLW9tYWUnLCAnPG91dGZpbGUubWFlPic=

>  <s_epik_input>  (1) 
W0NIMl0xT1tDSF09W0NIXVtDSDJdMQ==

>  <s_glide_docking_method>  (1) 
confgen

>  <s_i_glide_gridfile>  (1) 
gpcr_drd2_6luq_protein_autoprepared_prepared

>  <s_lp_Force_Field>  (1) 
S-OPLS

>  <s_lp_Variant>  (1) 
Pocket2Mol_47_num_sample_50-1

>  <s_m_source_file>  (1) 
generated__ligand_Pocket2Mol_2026-05-06_prepared.sdf

>  <GenAI_Model>  (1) 
Pocket2Mol

>  <Protein>  (1) 
generic_title2

$$$$
Pocket2Mol_0_num_sample_50
     RDKit          3D

  0  0  0  0  0  0  0  0  0  0999 V3000
M  V30 BEGIN CTAB
M  V30 COUNTS 10 10 0 0 1
M  V30 BEGIN ATOM
M  V30 1 N 11.434842 8.330416 -5.091981 0
M  V30 2 C 11.034839 7.059063 -5.389625 0
M  V30 3 C 10.377661 6.937630 -6.501898 0
M  V30 4 C 10.956266 8.943462 -6.137894 0
M  V30 5 C 10.164709 8.169807 -7.267199 0
M  V30 6 H 11.275310 6.253929 -4.709325 0
M  V30 7 H 9.996123 5.994970 -6.867129 0
M  V30 8 H 11.073111 10.019497 -6.291605 0
M  V30 9 H 9.117101 8.467397 -7.331615 0
M  V30 10 H 10.677314 8.183552 -8.229023 0
M  V30 END ATOM
M  V30 BEGIN BOND
M  V30 1 1 2 1
M  V30 2 2 3 2
M  V30 3 2 4 1
M  V30 4 1 5 3
M  V30 5 1 5 4
M  V30 6 1 6 2
M  V30 7 1 7 3
M  V30 8 1 8 4
M  V30 9 1 9 5
M  V30 10 1 10 5
M  V30 END BOND
M  V30 END CTAB
M  END
>  <i_epik_Tot_Q>  (1) 
0

>  <i_epik_Tot_abs_Q>  (1) 
0

>  <i_i_glide_confnum>  (1) 
1

>  <i_i_glide_lignum>  (1) 
1

>  <i_i_glide_posenum>  (1) 
23

>  <i_i_glide_rotatable_bonds>  (1) 
0

>  <i_lp_mmshare_version>  (1) 
72125

>  <i_m_source_file_index>  (1) 
1

>  <i_f3d_flags>  (1) 
0

>  <num_sample>  (1) 
50

>  <b_lp_Chiralities_Consistent>  (1) 
1

>  <r_epik_Charging_Adjusted_Penalty>  (1) 
0

>  <r_epik_Ionization_Penalty>  (1) 
0

>  <r_epik_Ionization_Penalty_Charging>  (1) 
0

>  <r_epik_Ionization_Penalty_Neutral>  (1) 
0

>  <r_epik_State_Penalty>  (1) 
-0

>  <r_glide_ring_energy>  (1) 
0

>  <r_i_docking_score>  (1) 
-4.3416368275897899

>  <r_i_glide_ecoul>  (1) 
-0.98111825332467462

>  <r_i_glide_eff_state_penalty>  (1) 
-0

>  <r_i_glide_einternal>  (1) 
0

>  <r_i_glide_emodel>  (1) 
-17.951860747007753

>  <r_i_glide_emodel_strain>  (1) 
0

>  <r_i_glide_energy>  (1) 
-13.888139277647641

>  <r_i_glide_erotb>  (1) 
0

>  <r_i_glide_esite>  (1) 
0

>  <r_i_glide_evdw>  (1) 
-12.907021024322965

>  <r_i_glide_gscore>  (1) 
-4.3416368275897899

>  <r_i_glide_gscore_strain>  (1) 
0

>  <r_i_glide_hbond>  (1) 
0

>  <r_i_glide_ligand_efficiency>  (1) 
-0.86832736551795797

>  <r_i_glide_ligand_efficiency_ln>  (1) 
-1.6638207051800988

>  <r_i_glide_ligand_efficiency_sa>  (1) 
-1.4848189088768524

>  <r_i_glide_lipo>  (1) 
-0.56848169384116232

>  <r_i_glide_metal>  (1) 
-0

>  <r_i_glide_rewards>  (1) 
-2.9806363445337776

>  <r_lp_Energy>  (1) 
-2.9532909999999997

>  <r_lp_tautomer_probability>  (1) 
1

>  <s_epik_Chemistry_Notes>  (1) 
This compound has an imine and may undergo hydrolysis.

>  <s_epik_cmdline>  (1) 
J2VwaWtfcHl0aG9uJywgJy1waHQnLCAnMS4wJywgJy1waCcsICc3LjQnLCAnLXRuJywgJzgnLCAnLW1hJywgJzUwMCcsICctaW1hZScsICc8aW5maWxlLm1hZT4nLCAnLW9tYWUnLCAnPG91dGZpbGUubWFlPic=

>  <s_epik_input>  (1) 
TjE9W0NIXVtDSDJdW0NIXT1bQ0hdMQ==

>  <s_glide_docking_method>  (1) 
confgen

>  <s_i_glide_gridfile>  (1) 
gpcr_drd2_6luq_protein_autoprepared_prepared

>  <s_lp_Force_Field>  (1) 
S-OPLS

>  <s_lp_Variant>  (1) 
Pocket2Mol_0_num_sample_50-1

>  <s_m_source_file>  (1) 
generated__ligand_Pocket2Mol_2026-05-06_prepared.sdf

>  <GenAI_Model>  (1) 
Pocket2Mol

>  <Protein>  (1) 
generic_title2

$$$$
Pocket2Mol_21_num_sample_50
     RDKit          3D

  0  0  0  0  0  0  0  0  0  0999 V3000
M  V30 BEGIN CTAB
M  V30 COUNTS 9 9 0 0 1
M  V30 BEGIN ATOM
M  V30 1 C 12.315714 8.940436 -3.082195 0
M  V30 2 O 11.834839 8.176684 -4.108423 0
M  V30 3 C 11.834792 6.890992 -3.642592 0
M  V30 4 C 12.617513 8.169038 -1.997667 0
M  V30 5 C 12.302864 6.835273 -2.361378 0
M  V30 6 H 12.379466 9.995052 -3.287266 0
M  V30 7 H 11.475346 6.148722 -4.341172 0
M  V30 8 H 13.016254 8.523356 -1.058542 0
M  V30 9 H 12.407657 5.940511 -1.762387 0
M  V30 END ATOM
M  V30 BEGIN BOND
M  V30 1 1 2 1
M  V30 2 1 3 2
M  V30 3 2 4 1
M  V30 4 2 5 3
M  V30 5 1 5 4
M  V30 6 1 6 1
M  V30 7 1 7 3
M  V30 8 1 8 4
M  V30 9 1 9 5
M  V30 END BOND
M  V30 END CTAB
M  END
>  <i_epik_Tot_Q>  (1) 
0

>  <i_epik_Tot_abs_Q>  (1) 
0

>  <i_i_glide_confnum>  (1) 
1

>  <i_i_glide_lignum>  (1) 
25

>  <i_i_glide_posenum>  (1) 
100

>  <i_i_glide_rotatable_bonds>  (1) 
0

>  <i_lp_mmshare_version>  (1) 
72125

>  <i_m_source_file_index>  (1) 
22

>  <i_f3d_flags>  (1) 
0

>  <num_sample>  (1) 
50

>  <b_lp_Chiralities_Consistent>  (1) 
1

>  <r_epik_Charging_Adjusted_Penalty>  (1) 
0

>  <r_epik_Ionization_Penalty>  (1) 
0

>  <r_epik_Ionization_Penalty_Charging>  (1) 
0

>  <r_epik_Ionization_Penalty_Neutral>  (1) 
0

>  <r_epik_State_Penalty>  (1) 
-0

>  <r_glide_ring_energy>  (1) 
0

>  <r_i_docking_score>  (1) 
-4.3385663454107295

>  <r_i_glide_ecoul>  (1) 
-0.83752536529737809

>  <r_i_glide_eff_state_penalty>  (1) 
-0

>  <r_i_glide_einternal>  (1) 
0

>  <r_i_glide_emodel>  (1) 
-16.582226739164103

>  <r_i_glide_emodel_strain>  (1) 
0

>  <r_i_glide_energy>  (1) 
-13.178220515826238

>  <r_i_glide_erotb>  (1) 
0

>  <r_i_glide_esite>  (1) 
0

>  <r_i_glide_evdw>  (1) 
-12.340695150528861

>  <r_i_glide_gscore>  (1) 
-4.3385663454107295

>  <r_i_glide_gscore_strain>  (1) 
0

>  <r_i_glide_hbond>  (1) 
0

>  <r_i_glide_ligand_efficiency>  (1) 
-0.86771326908214585

>  <r_i_glide_ligand_efficiency_ln>  (1) 
-1.6626440218168237

>  <r_i_glide_ligand_efficiency_sa>  (1) 
-1.4837688187426739

>  <r_i_glide_lipo>  (1) 
-1.1890239849406556

>  <r_i_glide_metal>  (1) 
-0

>  <r_i_glide_rewards>  (1) 
-2.4068787981490236

>  <r_lp_Energy>  (1) 
2.5980879999999997

>  <r_lp_tautomer_probability>  (1) 
1

>  <s_epik_cmdline>  (1) 
J2VwaWtfcHl0aG9uJywgJy1waHQnLCAnMS4wJywgJy1waCcsICc3LjQnLCAnLXRuJywgJzgnLCAnLW1hJywgJzUwMCcsICctaW1hZScsICc8aW5maWxlLm1hZT4nLCAnLW9tYWUnLCAnPG91dGZpbGUubWFlPic=

>  <s_epik_input>  (1) 
W2NIXTFvW2NIXVtjSF1bY0hdMQ==

>  <s_glide_docking_method>  (1) 
confgen

>  <s_i_glide_gridfile>  (1) 
gpcr_drd2_6luq_protein_autoprepared_prepared

>  <s_lp_Force_Field>  (1) 
S-OPLS

>  <s_lp_Variant>  (1) 
Pocket2Mol_21_num_sample_50-1

>  <s_m_source_file>  (1) 
generated__ligand_Pocket2Mol_2026-05-06_prepared.sdf

>  <GenAI_Model>  (1) 
Pocket2Mol

>  <Protein>  (1) 
generic_title2

$$$$
Pocket2Mol_14_num_sample_50
     RDKit          3D

  0  0  0  0  0  0  0  0  0  0999 V3000
M  V30 BEGIN CTAB
M  V30 COUNTS 17 17 0 0 1
M  V30 BEGIN ATOM
M  V30 1 C 11.434839 8.672663 -7.067448 0
M  V30 2 O 11.152858 7.433397 -6.434246 0
M  V30 3 C 12.041958 8.496325 -8.474073 0
M  V30 4 O 11.434835 7.516833 -9.307851 0
M  V30 5 C 9.834681 6.963469 -6.691654 0
M  V30 6 C 10.023895 7.395701 -9.225346 0
M  V30 7 C 9.673142 6.400863 -8.110228 0
M  V30 8 H 10.551739 9.311945 -7.091630 0
M  V30 9 H 12.156664 9.206046 -6.448584 0
M  V30 10 H 12.012721 9.451247 -8.998605 0
M  V30 11 H 13.095329 8.229577 -8.385406 0
M  V30 12 H 9.624228 6.169304 -5.975231 0
M  V30 13 H 9.094344 7.741345 -6.495633 0
M  V30 14 H 9.677604 6.988732 -10.175612 0
M  V30 15 H 9.525320 8.358848 -9.102322 0
M  V30 16 H 10.275223 5.498773 -8.223683 0
M  V30 17 H 8.634697 6.091045 -8.235246 0
M  V30 END ATOM
M  V30 BEGIN BOND
M  V30 1 1 2 1
M  V30 2 1 3 1
M  V30 3 1 4 3
M  V30 4 1 5 2
M  V30 5 1 6 4
M  V30 6 1 7 5
M  V30 7 1 7 6
M  V30 8 1 8 1
M  V30 9 1 9 1
M  V30 10 1 10 3
M  V30 11 1 11 3
M  V30 12 1 12 5
M  V30 13 1 13 5
M  V30 14 1 14 6
M  V30 15 1 15 6
M  V30 16 1 16 7
M  V30 17 1 17 7
M  V30 END BOND
M  V30 END CTAB
M  END
>  <i_epik_Tot_Q>  (1) 
0

>  <i_epik_Tot_abs_Q>  (1) 
0

>  <i_i_glide_confnum>  (1) 
14

>  <i_i_glide_lignum>  (1) 
17

>  <i_i_glide_posenum>  (1) 
209

>  <i_i_glide_rotatable_bonds>  (1) 
0

>  <i_lp_mmshare_version>  (1) 
72125

>  <i_m_source_file_index>  (1) 
15

>  <i_f3d_flags>  (1) 
0

>  <num_sample>  (1) 
50

>  <b_lp_Chiralities_Consistent>  (1) 
1

>  <r_epik_Charging_Adjusted_Penalty>  (1) 
0

>  <r_epik_Ionization_Penalty>  (1) 
3.933197540425548e-12

>  <r_epik_Ionization_Penalty_Charging>  (1) 
0

>  <r_epik_Ionization_Penalty_Neutral>  (1) 
3.933197540425548e-12

>  <r_epik_State_Penalty>  (1) 
-0

>  <r_glide_ring_energy>  (1) 
0.0018681440481121299

>  <r_i_docking_score>  (1) 
-4.3312502020080821

>  <r_i_glide_ecoul>  (1) 
-1.1966581197126838

>  <r_i_glide_eff_state_penalty>  (1) 
-0

>  <r_i_glide_einternal>  (1) 
0

>  <r_i_glide_emodel>  (1) 
-21.378766893706409

>  <r_i_glide_emodel_strain>  (1) 
0

>  <r_i_glide_energy>  (1) 
-16.67791491018297

>  <r_i_glide_erotb>  (1) 
0

>  <r_i_glide_esite>  (1) 
0

>  <r_i_glide_evdw>  (1) 
-15.481256790470285

>  <r_i_glide_gscore>  (1) 
-4.3312502020080821

>  <r_i_glide_gscore_strain>  (1) 
0

>  <r_i_glide_hbond>  (1) 
0

>  <r_i_glide_ligand_efficiency>  (1) 
-0.61875002885829744

>  <r_i_glide_ligand_efficiency_ln>  (1) 
-1.470258759723889

>  <r_i_glide_ligand_efficiency_sa>  (1) 
-1.183626224544353

>  <r_i_glide_lipo>  (1) 
-0.59447746463229045

>  <r_i_glide_metal>  (1) 
-0

>  <r_i_glide_rewards>  (1) 
-2.7832111798953743

>  <r_lp_Energy>  (1) 
9.641

>  <r_lp_tautomer_probability>  (1) 
1

>  <s_epik_cmdline>  (1) 
J2VwaWtfcHl0aG9uJywgJy1waHQnLCAnMS4wJywgJy1waCcsICc3LjQnLCAnLXRuJywgJzgnLCAnLW1hJywgJzUwMCcsICctaW1hZScsICc8aW5maWxlLm1hZT4nLCAnLW9tYWUnLCAnPG91dGZpbGUubWFlPic=

>  <s_epik_input>  (1) 
W0NIMl0xT1tDSDJdW0NIMl1bQ0gyXU9bQ0gyXTE=

>  <s_glide_docking_method>  (1) 
confgen

>  <s_i_glide_gridfile>  (1) 
gpcr_drd2_6luq_protein_autoprepared_prepared

>  <s_lp_Force_Field>  (1) 
S-OPLS

>  <s_lp_Variant>  (1) 
Pocket2Mol_14_num_sample_50-1

>  <s_m_source_file>  (1) 
generated__ligand_Pocket2Mol_2026-05-06_prepared.sdf

>  <GenAI_Model>  (1) 
Pocket2Mol

>  <Protein>  (1) 
generic_title2

$$$$
Pocket2Mol_45_num_sample_50
     RDKit          3D

  0  0  0  0  0  0  0  0  0  0999 V3000
M  V30 BEGIN CTAB
M  V30 COUNTS 13 13 0 0 1
M  V30 BEGIN ATOM
M  V30 1 O 11.834839 8.196533 -4.280592 0
M  V30 2 C 12.293165 8.986110 -3.186662 0
M  V30 3 C 12.209516 8.099502 -1.950594 0
M  V30 4 C 11.700380 6.831053 -3.892344 0
M  V30 5 C 12.379107 6.716155 -2.534280 0
M  V30 6 H 13.325973 9.281375 -3.375884 0
M  V30 7 H 11.698823 9.893530 -3.077289 0
M  V30 8 H 12.958699 8.348486 -1.198097 0
M  V30 9 H 11.224370 8.184059 -1.491675 0
M  V30 10 H 10.644186 6.569298 -3.820308 0
M  V30 11 H 12.143225 6.169295 -4.635873 0
M  V30 12 H 11.963415 5.923267 -1.911303 0
M  V30 13 H 13.434839 6.511782 -2.687584 0
M  V30 END ATOM
M  V30 BEGIN BOND
M  V30 1 1 2 1
M  V30 2 1 3 2
M  V30 3 1 4 1
M  V30 4 1 5 3
M  V30 5 1 5 4
M  V30 6 1 6 2
M  V30 7 1 7 2
M  V30 8 1 8 3
M  V30 9 1 9 3
M  V30 10 1 10 4
M  V30 11 1 11 4
M  V30 12 1 12 5
M  V30 13 1 13 5
M  V30 END BOND
M  V30 END CTAB
M  END
>  <i_epik_Tot_Q>  (1) 
0

>  <i_epik_Tot_abs_Q>  (1) 
0

>  <i_i_glide_confnum>  (1) 
3

>  <i_i_glide_lignum>  (1) 
51

>  <i_i_glide_posenum>  (1) 
317

>  <i_i_glide_rotatable_bonds>  (1) 
0

>  <i_lp_mmshare_version>  (1) 
72125

>  <i_m_source_file_index>  (1) 
46

>  <i_f3d_flags>  (1) 
0

>  <num_sample>  (1) 
50

>  <b_lp_Chiralities_Consistent>  (1) 
1

>  <r_epik_Charging_Adjusted_Penalty>  (1) 
0

>  <r_epik_Ionization_Penalty>  (1) 
1.3889264151150229e-11

>  <r_epik_Ionization_Penalty_Charging>  (1) 
0

>  <r_epik_Ionization_Penalty_Neutral>  (1) 
1.3889264151150229e-11

>  <r_epik_State_Penalty>  (1) 
-0

>  <r_glide_ring_energy>  (1) 
0.22161987042107956

>  <r_i_docking_score>  (1) 
-4.3307558117608451

>  <r_i_glide_ecoul>  (1) 
-0.76600679306812425

>  <r_i_glide_eff_state_penalty>  (1) 
-0

>  <r_i_glide_einternal>  (1) 
0

>  <r_i_glide_emodel>  (1) 
-17.212078035721007

>  <r_i_glide_emodel_strain>  (1) 
0

>  <r_i_glide_energy>  (1) 
-13.571269400859128

>  <r_i_glide_erotb>  (1) 
0

>  <r_i_glide_esite>  (1) 
0

>  <r_i_glide_evdw>  (1) 
-12.805262607791004

>  <r_i_glide_gscore>  (1) 
-4.3307558117608451

>  <r_i_glide_gscore_strain>  (1) 
0

>  <r_i_glide_hbond>  (1) 
0

>  <r_i_glide_ligand_efficiency>  (1) 
-0.86615116235216905

>  <r_i_glide_ligand_efficiency_ln>  (1) 
-1.65965083557826

>  <r_i_glide_ligand_efficiency_sa>  (1) 
-1.4810976538082716

>  <r_i_glide_lipo>  (1) 
-1.1843002198548251

>  <r_i_glide_metal>  (1) 
-0

>  <r_i_glide_rewards>  (1) 
-2.391291442556251

>  <r_lp_Energy>  (1) 
3.9173999999999998

>  <r_lp_tautomer_probability>  (1) 
1

>  <s_epik_cmdline>  (1) 
J2VwaWtfcHl0aG9uJywgJy1waHQnLCAnMS4wJywgJy1waCcsICc3LjQnLCAnLXRuJywgJzgnLCAnLW1hJywgJzUwMCcsICctaW1hZScsICc8aW5maWxlLm1hZT4nLCAnLW9tYWUnLCAnPG91dGZpbGUubWFlPic=

>  <s_epik_input>  (1) 
TzFbQ0gyXVtDSDJdW0NIMl1bQ0gyXTE=

>  <s_glide_docking_method>  (1) 
confgen

>  <s_i_glide_gridfile>  (1) 
gpcr_drd2_6luq_protein_autoprepared_prepared

>  <s_lp_Force_Field>  (1) 
S-OPLS

>  <s_lp_Variant>  (1) 
Pocket2Mol_45_num_sample_50-1

>  <s_m_source_file>  (1) 
generated__ligand_Pocket2Mol_2026-05-06_prepared.sdf

>  <GenAI_Model>  (1) 
Pocket2Mol

>  <Protein>  (1) 
generic_title2

$$$$
Pocket2Mol_32_num_sample_50
     RDKit          3D

  0  0  0  0  0  0  0  0  0  0999 V3000
M  V30 BEGIN CTAB
M  V30 COUNTS 12 12 0 0 1
M  V30 BEGIN ATOM
M  V30 1 N 11.434842 6.969413 -4.377556 0
M  V30 2 C 12.194789 7.434020 -3.405910 0
M  V30 3 C 12.425631 8.693107 -3.506174 0
M  V30 4 C 11.785695 9.353320 -4.716920 0
M  V30 5 C 11.079744 7.997752 -5.373918 0
M  V30 6 H 12.539806 6.743761 -2.649932 0
M  V30 7 H 11.051940 10.099922 -4.414525 0
M  V30 8 H 12.530713 9.800149 -5.376112 0
M  V30 9 H 10.000147 8.092703 -5.490245 0
M  V30 10 H 11.509878 7.749123 -6.343400 0
M  V30 11 H 13.026194 9.259877 -2.808172 0
M  V30 12 H 11.234821 5.988547 -4.522374 0
M  V30 END ATOM
M  V30 BEGIN BOND
M  V30 1 1 2 1
M  V30 2 2 3 2
M  V30 3 1 4 3
M  V30 4 1 5 1
M  V30 5 1 5 4
M  V30 6 1 6 2
M  V30 7 1 7 4
M  V30 8 1 8 4
M  V30 9 1 9 5
M  V30 10 1 10 5
M  V30 11 1 11 3
M  V30 12 1 12 1
M  V30 END BOND
M  V30 END CTAB
M  END
>  <i_epik_Tot_Q>  (1) 
0

>  <i_epik_Tot_abs_Q>  (1) 
0

>  <i_i_glide_confnum>  (1) 
1

>  <i_i_glide_lignum>  (1) 
36

>  <i_i_glide_posenum>  (1) 
212

>  <i_i_glide_rotatable_bonds>  (1) 
0

>  <i_lp_mmshare_version>  (1) 
72125

>  <i_m_source_file_index>  (1) 
33

>  <i_f3d_flags>  (1) 
0

>  <num_sample>  (1) 
50

>  <b_lp_Chiralities_Consistent>  (1) 
1

>  <r_epik_Charging_Adjusted_Penalty>  (1) 
1.6042444336516156e-06

>  <r_epik_Ionization_Penalty>  (1) 
0.0023556498582944039

>  <r_epik_Ionization_Penalty_Charging>  (1) 
1.6042444336516156e-06

>  <r_epik_Ionization_Penalty_Neutral>  (1) 
0.0023540456138607521

>  <r_epik_State_Penalty>  (1) 
-0

>  <r_glide_ring_energy>  (1) 
0

>  <r_i_docking_score>  (1) 
-4.3054337223296386

>  <r_i_glide_ecoul>  (1) 
-1.2504159005358511

>  <r_i_glide_eff_state_penalty>  (1) 
-0

>  <r_i_glide_einternal>  (1) 
0

>  <r_i_glide_emodel>  (1) 
-17.990823902539297

>  <r_i_glide_emodel_strain>  (1) 
0

>  <r_i_glide_energy>  (1) 
-13.686613595133892

>  <r_i_glide_erotb>  (1) 
0

>  <r_i_glide_esite>  (1) 
0

>  <r_i_glide_evdw>  (1) 
-12.436197694598041

>  <r_i_glide_gscore>  (1) 
-4.3054337223296386

>  <r_i_glide_gscore_strain>  (1) 
0

>  <r_i_glide_hbond>  (1) 
0

>  <r_i_glide_ligand_efficiency>  (1) 
-0.8610867444659277

>  <r_i_glide_ligand_efficiency_ln>  (1) 
-1.649946795750163

>  <r_i_glide_ligand_efficiency_sa>  (1) 
-1.4724376210388799

>  <r_i_glide_lipo>  (1) 
-1.2460614525193585

>  <r_i_glide_metal>  (1) 
-0

>  <r_i_glide_rewards>  (1) 
-2.25

>  <r_lp_Energy>  (1) 
2.9163329999999998

>  <r_lp_tautomer_probability>  (1) 
1

>  <s_epik_Chemistry_Notes>  (1) 
This compound has an imine and may undergo hydrolysis.

>  <s_epik_cmdline>  (1) 
J2VwaWtfcHl0aG9uJywgJy1waHQnLCAnMS4wJywgJy1waCcsICc3LjQnLCAnLXRuJywgJzgnLCAnLW1hJywgJzUwMCcsICctaW1hZScsICc8aW5maWxlLm1hZT4nLCAnLW9tYWUnLCAnPG91dGZpbGUubWFlPic=

>  <s_epik_input>  (1) 
W05IXTFbQ0hdPVtDSF1bQ0gyXVtDSDJdMQ==

>  <s_glide_docking_method>  (1) 
confgen

>  <s_i_glide_gridfile>  (1) 
gpcr_drd2_6luq_protein_autoprepared_prepared

>  <s_lp_Force_Field>  (1) 
S-OPLS

>  <s_lp_Variant>  (1) 
Pocket2Mol_32_num_sample_50-1

>  <s_m_source_file>  (1) 
generated__ligand_Pocket2Mol_2026-05-06_prepared.sdf

>  <GenAI_Model>  (1) 
Pocket2Mol

>  <Protein>  (1) 
generic_title2

$$$$
Pocket2Mol_5_num_sample_50
     RDKit          3D

  0  0  0  0  0  0  0  0  0  0999 V3000
M  V30 BEGIN CTAB
M  V30 COUNTS 14 14 0 0 1
M  V30 BEGIN ATOM
M  V30 1 C 11.274631 7.958737 -7.162478 0
M  V30 2 O 11.434823 9.369299 -7.095822 0
M  V30 3 C 10.632498 7.462937 -5.857776 0
M  V30 4 O 11.434830 7.859597 -4.750399 0
M  V30 5 C 12.234488 9.769341 -5.994501 0
M  V30 6 C 11.595140 9.272384 -4.691675 0
M  V30 7 H 10.638509 7.712653 -8.012803 0
M  V30 8 H 12.234870 7.473663 -7.333607 0
M  V30 9 H 9.623288 7.863953 -5.753471 0
M  V30 10 H 10.544888 6.376048 -5.864755 0
M  V30 11 H 13.251587 9.391984 -6.108360 0
M  V30 12 H 12.282569 10.857577 -5.991339 0
M  V30 13 H 12.225018 9.525379 -3.838757 0
M  V30 14 H 10.634884 9.762364 -4.533562 0
M  V30 END ATOM
M  V30 BEGIN BOND
M  V30 1 1 2 1
M  V30 2 1 3 1
M  V30 3 1 4 3
M  V30 4 1 5 2
M  V30 5 1 6 4
M  V30 6 1 6 5
M  V30 7 1 7 1
M  V30 8 1 8 1
M  V30 9 1 9 3
M  V30 10 1 10 3
M  V30 11 1 11 5
M  V30 12 1 12 5
M  V30 13 1 13 6
M  V30 14 1 14 6
M  V30 END BOND
M  V30 END CTAB
M  END
>  <i_epik_Tot_Q>  (1) 
0

>  <i_epik_Tot_abs_Q>  (1) 
0

>  <i_i_glide_confnum>  (1) 
1

>  <i_i_glide_lignum>  (1) 
6

>  <i_i_glide_posenum>  (1) 
320

>  <i_i_glide_rotatable_bonds>  (1) 
0

>  <i_lp_mmshare_version>  (1) 
72125

>  <i_m_source_file_index>  (1) 
6

>  <i_f3d_flags>  (1) 
0

>  <num_sample>  (1) 
50

>  <b_lp_Chiralities_Consistent>  (1) 
1

>  <r_epik_Charging_Adjusted_Penalty>  (1) 
0

>  <r_epik_Ionization_Penalty>  (1) 
8.3894707547109138e-13

>  <r_epik_Ionization_Penalty_Charging>  (1) 
0

>  <r_epik_Ionization_Penalty_Neutral>  (1) 
8.3894707547109138e-13

>  <r_epik_State_Penalty>  (1) 
-0

>  <r_glide_ring_energy>  (1) 
0

>  <r_i_docking_score>  (1) 
-4.3052470502040832

>  <r_i_glide_ecoul>  (1) 
-0.44650317183910959

>  <r_i_glide_eff_state_penalty>  (1) 
-0

>  <r_i_glide_einternal>  (1) 
0

>  <r_i_glide_emodel>  (1) 
-17.520533046880281

>  <r_i_glide_emodel_strain>  (1) 
0

>  <r_i_glide_energy>  (1) 
-13.625486313902506

>  <r_i_glide_erotb>  (1) 
0

>  <r_i_glide_esite>  (1) 
0

>  <r_i_glide_evdw>  (1) 
-13.178983142063396

>  <r_i_glide_gscore>  (1) 
-4.3052470502040832

>  <r_i_glide_gscore_strain>  (1) 
0

>  <r_i_glide_hbond>  (1) 
0

>  <r_i_glide_ligand_efficiency>  (1) 
-0.71754117503401382

>  <r_i_glide_ligand_efficiency_ln>  (1) 
-1.5421267833630812

>  <r_i_glide_ligand_efficiency_sa>  (1) 
-1.3038588453592774

>  <r_i_glide_lipo>  (1) 
-1.0709890839917133

>  <r_i_glide_metal>  (1) 
-0

>  <r_i_glide_rewards>  (1) 
-2.5083333333333333

>  <r_lp_Energy>  (1) 
4.9648199999999996

>  <r_lp_tautomer_probability>  (1) 
1

>  <s_epik_cmdline>  (1) 
J2VwaWtfcHl0aG9uJywgJy1waHQnLCAnMS4wJywgJy1waCcsICc3LjQnLCAnLXRuJywgJzgnLCAnLW1hJywgJzUwMCcsICctaW1hZScsICc8aW5maWxlLm1hZT4nLCAnLW9tYWUnLCAnPG91dGZpbGUubWFlPic=

>  <s_epik_input>  (1) 
W0NIMl0xT1tDSDJdW0NIMl1PW0NIMl0x

>  <s_glide_docking_method>  (1) 
confgen

>  <s_i_glide_gridfile>  (1) 
gpcr_drd2_6luq_protein_autoprepared_prepared

>  <s_lp_Force_Field>  (1) 
S-OPLS

>  <s_lp_Variant>  (1) 
Pocket2Mol_5_num_sample_50-1

>  <s_m_source_file>  (1) 
generated__ligand_Pocket2Mol_2026-05-06_prepared.sdf

>  <GenAI_Model>  (1) 
Pocket2Mol

>  <Protein>  (1) 
generic_title2

$$$$
Pocket2Mol_11_num_sample_50
     RDKit          3D

  0  0  0  0  0  0  0  0  0  0999 V3000
M  V30 BEGIN CTAB
M  V30 COUNTS 14 14 0 0 1
M  V30 BEGIN ATOM
M  V30 1 O 10.595520 8.795959 -5.951164 0
M  V30 2 C 11.562445 8.918943 -6.875354 0
M  V30 3 C 9.577160 8.015207 -6.691667 0
M  V30 4 C 11.340666 8.372816 -8.030065 0
M  V30 5 C 12.297084 8.401524 -9.201737 0
M  V30 6 C 10.055989 7.686801 -8.182783 0
M  V30 7 H 12.433071 9.469379 -6.550005 0
M  V30 8 H 8.637549 8.570093 -6.705708 0
M  V30 9 H 9.384585 7.089092 -6.148681 0
M  V30 10 H 12.533651 7.387355 -9.522698 0
M  V30 11 H 11.848096 8.932860 -10.041205 0
M  V30 12 H 13.227661 8.905258 -8.938379 0
M  V30 13 H 9.433224 8.152219 -8.947113 0
M  V30 14 H 10.175575 6.619369 -8.370963 0
M  V30 END ATOM
M  V30 BEGIN BOND
M  V30 1 1 2 1
M  V30 2 1 3 1
M  V30 3 2 4 2
M  V30 4 1 5 4
M  V30 5 1 6 3
M  V30 6 1 6 4
M  V30 7 1 7 2
M  V30 8 1 8 3
M  V30 9 1 9 3
M  V30 10 1 10 5
M  V30 11 1 11 5
M  V30 12 1 12 5
M  V30 13 1 13 6
M  V30 14 1 14 6
M  V30 END BOND
M  V30 END CTAB
M  END
>  <i_epik_Tot_Q>  (1) 
0

>  <i_epik_Tot_abs_Q>  (1) 
0

>  <i_i_glide_confnum>  (1) 
1

>  <i_i_glide_lignum>  (1) 
14

>  <i_i_glide_posenum>  (1) 
251

>  <i_i_glide_rotatable_bonds>  (1) 
0

>  <i_lp_mmshare_version>  (1) 
72125

>  <i_m_source_file_index>  (1) 
12

>  <i_f3d_flags>  (1) 
0

>  <num_sample>  (1) 
50

>  <b_lp_Chiralities_Consistent>  (1) 
1

>  <r_epik_Charging_Adjusted_Penalty>  (1) 
0

>  <r_epik_Ionization_Penalty>  (1) 
0

>  <r_epik_Ionization_Penalty_Charging>  (1) 
0

>  <r_epik_Ionization_Penalty_Neutral>  (1) 
0

>  <r_epik_State_Penalty>  (1) 
-0

>  <r_glide_ring_energy>  (1) 
0

>  <r_i_docking_score>  (1) 
-4.2908392205575643

>  <r_i_glide_ecoul>  (1) 
-0.80882595201536511

>  <r_i_glide_eff_state_penalty>  (1) 
-0

>  <r_i_glide_einternal>  (1) 
0

>  <r_i_glide_emodel>  (1) 
-19.393525719312315

>  <r_i_glide_emodel_strain>  (1) 
0

>  <r_i_glide_energy>  (1) 
-15.20604517409088

>  <r_i_glide_erotb>  (1) 
0

>  <r_i_glide_esite>  (1) 
0

>  <r_i_glide_evdw>  (1) 
-14.397219222075515

>  <r_i_glide_gscore>  (1) 
-4.2908392205575643

>  <r_i_glide_gscore_strain>  (1) 
0

>  <r_i_glide_hbond>  (1) 
0

>  <r_i_glide_ligand_efficiency>  (1) 
-0.71513987009292734

>  <r_i_glide_ligand_efficiency_ln>  (1) 
-1.536965941318726

>  <r_i_glide_ligand_efficiency_sa>  (1) 
-1.2994953847011597

>  <r_i_glide_lipo>  (1) 
-0.77465436665148413

>  <r_i_glide_metal>  (1) 
-0

>  <r_i_glide_rewards>  (1) 
-2.6749999999999998

>  <r_lp_Energy>  (1) 
-7.9393969999999996

>  <r_lp_tautomer_probability>  (1) 
1

>  <s_epik_cmdline>  (1) 
J2VwaWtfcHl0aG9uJywgJy1waHQnLCAnMS4wJywgJy1waCcsICc3LjQnLCAnLXRuJywgJzgnLCAnLW1hJywgJzUwMCcsICctaW1hZScsICc8aW5maWxlLm1hZT4nLCAnLW9tYWUnLCAnPG91dGZpbGUubWFlPic=

>  <s_epik_input>  (1) 
W0NIMl0xW0NIMl1PW0NIXT1DMVtDSDNd

>  <s_glide_docking_method>  (1) 
confgen

>  <s_i_glide_gridfile>  (1) 
gpcr_drd2_6luq_protein_autoprepared_prepared

>  <s_lp_Force_Field>  (1) 
S-OPLS

>  <s_lp_Variant>  (1) 
Pocket2Mol_11_num_sample_50-1

>  <s_m_source_file>  (1) 
generated__ligand_Pocket2Mol_2026-05-06_prepared.sdf

>  <GenAI_Model>  (1) 
Pocket2Mol

>  <Protein>  (1) 
generic_title2

$$$$
Pocket2Mol_15_num_sample_50
     RDKit          3D

  0  0  0  0  0  0  0  0  0  0999 V3000
M  V30 BEGIN CTAB
M  V30 COUNTS 19 19 0 0 1
M  V30 BEGIN ATOM
M  V30 1 C 12.359760 8.416580 -8.134544 0
M  V30 2 O 11.666167 7.343210 -7.520510 0
M  V30 3 C 10.280810 7.434787 -7.847540 0
M  V30 4 C 9.719624 6.015831 -8.009691 0
M  V30 5 C 9.584104 8.169302 -6.691687 0
M  V30 6 C 11.688392 8.523450 -9.491323 0
M  V30 7 C 10.234835 8.221663 -9.171876 0
M  V30 8 H 12.217901 9.328496 -7.553129 0
M  V30 9 H 13.429226 8.218596 -8.209799 0
M  V30 10 H 8.658167 6.043397 -8.262011 0
M  V30 11 H 9.826738 5.440863 -7.091630 0
M  V30 12 H 10.234840 5.471632 -8.800493 0
M  V30 13 H 8.517913 8.287053 -6.882412 0
M  V30 14 H 9.693671 7.617264 -5.758348 0
M  V30 15 H 10.004040 9.162396 -6.537530 0
M  V30 16 H 11.834978 9.500133 -9.950929 0
M  V30 17 H 12.087826 7.762682 -10.162818 0
M  V30 18 H 9.760007 7.661155 -9.978465 0
M  V30 19 H 9.664445 9.143296 -9.059432 0
M  V30 END ATOM
M  V30 BEGIN BOND
M  V30 1 1 2 1
M  V30 2 1 3 2
M  V30 3 1 4 3
M  V30 4 1 5 3
M  V30 5 1 6 1
M  V30 6 1 7 3
M  V30 7 1 7 6
M  V30 8 1 8 1
M  V30 9 1 9 1
M  V30 10 1 10 4
M  V30 11 1 11 4
M  V30 12 1 12 4
M  V30 13 1 13 5
M  V30 14 1 14 5
M  V30 15 1 15 5
M  V30 16 1 16 6
M  V30 17 1 17 6
M  V30 18 1 18 7
M  V30 19 1 19 7
M  V30 END BOND
M  V30 END CTAB
M  END
>  <i_epik_Tot_Q>  (1) 
0

>  <i_epik_Tot_abs_Q>  (1) 
0

>  <i_i_glide_confnum>  (1) 
1

>  <i_i_glide_lignum>  (1) 
18

>  <i_i_glide_posenum>  (1) 
251

>  <i_i_glide_rotatable_bonds>  (1) 
0

>  <i_lp_mmshare_version>  (1) 
72125

>  <i_m_source_file_index>  (1) 
16

>  <i_f3d_flags>  (1) 
0

>  <num_sample>  (1) 
50

>  <b_lp_Chiralities_Consistent>  (1) 
1

>  <r_epik_Charging_Adjusted_Penalty>  (1) 
0

>  <r_epik_Ionization_Penalty>  (1) 
1.3889264151150229e-11

>  <r_epik_Ionization_Penalty_Charging>  (1) 
0

>  <r_epik_Ionization_Penalty_Neutral>  (1) 
1.3889264151150229e-11

>  <r_epik_State_Penalty>  (1) 
-0

>  <r_glide_ring_energy>  (1) 
0

>  <r_i_docking_score>  (1) 
-4.285858428222511

>  <r_i_glide_ecoul>  (1) 
-0.42588698048019502

>  <r_i_glide_eff_state_penalty>  (1) 
-0

>  <r_i_glide_einternal>  (1) 
0

>  <r_i_glide_emodel>  (1) 
-21.42485774519325

>  <r_i_glide_emodel_strain>  (1) 
0.089433909906569298

>  <r_i_glide_energy>  (1) 
-16.913123335237529

>  <r_i_glide_erotb>  (1) 
0

>  <r_i_glide_esite>  (1) 
0

>  <r_i_glide_evdw>  (1) 
-16.487236354757332

>  <r_i_glide_gscore>  (1) 
-4.285858428222511

>  <r_i_glide_gscore_strain>  (1) 
0

>  <r_i_glide_hbond>  (1) 
0

>  <r_i_glide_ligand_efficiency>  (1) 
-0.61226548974607298

>  <r_i_glide_ligand_efficiency_ln>  (1) 
-1.4548503557031054

>  <r_i_glide_ligand_efficiency_sa>  (1) 
-1.1712217474706716

>  <r_i_glide_lipo>  (1) 
-0.5574102687863155

>  <r_i_glide_metal>  (1) 
-0

>  <r_i_glide_rewards>  (1) 
-2.8402032946262996

>  <r_lp_Energy>  (1) 
0.043719999999999995

>  <r_lp_tautomer_probability>  (1) 
1

>  <s_epik_cmdline>  (1) 
J2VwaWtfcHl0aG9uJywgJy1waHQnLCAnMS4wJywgJy1waCcsICc3LjQnLCAnLXRuJywgJzgnLCAnLW1hJywgJzUwMCcsICctaW1hZScsICc8aW5maWxlLm1hZT4nLCAnLW9tYWUnLCAnPG91dGZpbGUubWFlPic=

>  <s_epik_input>  (1) 
W0NIMl0xW0NIMl1bQ0gyXU9DMShbQ0gzXSlbQ0gzXQ==

>  <s_glide_docking_method>  (1) 
confgen

>  <s_i_glide_gridfile>  (1) 
gpcr_drd2_6luq_protein_autoprepared_prepared

>  <s_lp_Force_Field>  (1) 
S-OPLS

>  <s_lp_Variant>  (1) 
Pocket2Mol_15_num_sample_50-1

>  <s_m_source_file>  (1) 
generated__ligand_Pocket2Mol_2026-05-06_prepared.sdf

>  <GenAI_Model>  (1) 
Pocket2Mol

>  <Protein>  (1) 
generic_title2

$$$$
Pocket2Mol_24_num_sample_50
     RDKit          3D

  0  0  0  0  0  0  0  0  0  0999 V3000
M  V30 BEGIN CTAB
M  V30 COUNTS 15 15 0 0 1
M  V30 BEGIN ATOM
M  V30 1 N 9.399203 5.203966 -12.291668 0 CHG=1
M  V30 2 C 8.325251 4.349786 -12.256248 0
M  V30 3 C 7.350794 4.966844 -11.482593 0
M  V30 4 C 9.122506 6.290563 -11.587664 0
M  V30 5 C 5.979410 4.538447 -11.079576 0
M  V30 6 N 9.936059 7.328557 -11.404419 0
M  V30 7 N 7.899031 6.169301 -11.091666 0
M  V30 8 H 8.328681 3.395173 -12.763489 0
M  V30 9 H 5.445144 4.124540 -11.934748 0
M  V30 10 H 6.035432 3.778236 -10.299367 0
M  V30 11 H 5.408995 5.383973 -10.691689 0
M  V30 12 H 10.861750 7.369107 -11.805011 0
M  V30 13 H 9.669381 8.131871 -10.850937 0
M  V30 14 H 7.434856 6.868100 -10.486846 0
M  V30 15 H 10.272978 5.030057 -12.778285 0
M  V30 END ATOM
M  V30 BEGIN BOND
M  V30 1 1 2 1
M  V30 2 2 3 2
M  V30 3 2 4 1
M  V30 4 1 5 3
M  V30 5 1 6 4
M  V30 6 1 7 3
M  V30 7 1 7 4
M  V30 8 1 8 2
M  V30 9 1 9 5
M  V30 10 1 10 5
M  V30 11 1 11 5
M  V30 12 1 12 6
M  V30 13 1 13 6
M  V30 14 1 14 7
M  V30 15 1 15 1
M  V30 END BOND
M  V30 END CTAB
M  END
>  <i_epik_Tot_Q>  (1) 
1

>  <i_epik_Tot_abs_Q>  (1) 
1

>  <i_i_glide_confnum>  (1) 
1

>  <i_i_glide_lignum>  (1) 
28

>  <i_i_glide_posenum>  (1) 
276

>  <i_i_glide_rotatable_bonds>  (1) 
0

>  <i_lp_mmshare_version>  (1) 
72125

>  <i_m_source_file_index>  (1) 
25

>  <i_f3d_flags>  (1) 
0

>  <num_sample>  (1) 
50

>  <b_lp_Chiralities_Consistent>  (1) 
1

>  <r_epik_Charging_Adjusted_Penalty>  (1) 
0.028937443406262361

>  <r_epik_Ionization_Penalty>  (1) 
0.025358402846536118

>  <r_epik_Ionization_Penalty_Charging>  (1) 
0

>  <r_epik_Ionization_Penalty_Neutral>  (1) 
0.025358402846536118

>  <r_epik_State_Penalty>  (1) 
0.028937443406262361

>  <r_glide_ring_energy>  (1) 
0

>  <r_i_docking_score>  (1) 
-4.2797319205974294

>  <r_i_glide_ecoul>  (1) 
-7.5806361007193397

>  <r_i_glide_eff_state_penalty>  (1) 
0.028937443406262361

>  <r_i_glide_einternal>  (1) 
0

>  <r_i_glide_emodel>  (1) 
-23.732352198419388

>  <r_i_glide_emodel_strain>  (1) 
0.032401548692316595

>  <r_i_glide_energy>  (1) 
-15.301315052361604

>  <r_i_glide_erotb>  (1) 
0

>  <r_i_glide_esite>  (1) 
-0.17005931318581494

>  <r_i_glide_evdw>  (1) 
-7.720678951642264

>  <r_i_glide_gscore>  (1) 
-4.3086693640036913

>  <r_i_glide_gscore_strain>  (1) 
0

>  <r_i_glide_hbond>  (1) 
-0.20000000000000001

>  <r_i_glide_ligand_efficiency>  (1) 
-0.6113902743710613

>  <r_i_glide_ligand_efficiency_ln>  (1) 
-1.4527706902295856

>  <r_i_glide_ligand_efficiency_sa>  (1) 
-1.1695475206881698

>  <r_i_glide_lipo>  (1) 
-0.1654806881278624

>  <r_i_glide_metal>  (1) 
-0

>  <r_i_glide_rewards>  (1) 
-2.25

>  <r_lp_Energy>  (1) 
-0.73901799999999995

>  <r_lp_tautomer_probability>  (1) 
0.99999998112300037

>  <s_epik_cmdline>  (1) 
J2VwaWtfcHl0aG9uJywgJy1waHQnLCAnMS4wJywgJy1waCcsICc3LjQnLCAnLXRuJywgJzgnLCAnLW1hJywgJzUwMCcsICctaW1hZScsICc8aW5maWxlLm1hZT4nLCAnLW9tYWUnLCAnPG91dGZpbGUubWFlPic=

>  <s_epik_input>  (1) 
W05IMl1jKFtuSF0xKW5bY0hdYzFbQ0gzXQ==

>  <s_glide_docking_method>  (1) 
confgen

>  <s_i_glide_gridfile>  (1) 
gpcr_drd2_6luq_protein_autoprepared_prepared

>  <s_lp_Force_Field>  (1) 
S-OPLS

>  <s_lp_Variant>  (1) 
Pocket2Mol_24_num_sample_50-1

>  <s_m_source_file>  (1) 
generated__ligand_Pocket2Mol_2026-05-06_prepared.sdf

>  <GenAI_Model>  (1) 
Pocket2Mol

>  <Protein>  (1) 
generic_title2

$$$$
Pocket2Mol_19_num_sample_50
     RDKit          3D

  0  0  0  0  0  0  0  0  0  0999 V3000
M  V30 BEGIN CTAB
M  V30 COUNTS 12 12 0 0 1
M  V30 BEGIN ATOM
M  V30 1 N 11.185315 6.569300 -4.292228 0 CHG=1
M  V30 2 C 11.150652 7.591363 -5.171234 0
M  V30 3 C 11.816156 8.795621 -4.867778 0
M  V30 4 C 11.834851 6.642329 -3.108940 0
M  V30 5 O 11.793748 9.835876 -5.746360 0 CHG=-1
M  V30 6 C 12.509188 8.907797 -3.644101 0
M  V30 7 C 12.515327 7.819072 -2.752044 0
M  V30 8 H 10.597823 7.417765 -6.083784 0
M  V30 9 H 11.785466 5.769352 -2.486492 0
M  V30 10 H 10.696276 5.703770 -4.531752 0
M  V30 11 H 13.027266 9.808770 -3.394537 0
M  V30 12 H 13.034839 7.888359 -1.808183 0
M  V30 END ATOM
M  V30 BEGIN BOND
M  V30 1 1 2 1
M  V30 2 2 3 2
M  V30 3 2 4 1
M  V30 4 1 5 3
M  V30 5 1 6 3
M  V30 6 1 7 4
M  V30 7 2 7 6
M  V30 8 1 8 2
M  V30 9 1 9 4
M  V30 10 1 10 1
M  V30 11 1 11 6
M  V30 12 1 12 7
M  V30 END BOND
M  V30 END CTAB
M  END
>  <i_epik_Tot_Q>  (1) 
0

>  <i_epik_Tot_abs_Q>  (1) 
2

>  <i_i_glide_confnum>  (1) 
1

>  <i_i_glide_lignum>  (1) 
22

>  <i_i_glide_posenum>  (1) 
8

>  <i_i_glide_rotatable_bonds>  (1) 
0

>  <i_lp_mmshare_version>  (1) 
72125

>  <i_m_source_file_index>  (1) 
20

>  <i_f3d_flags>  (1) 
0

>  <num_sample>  (1) 
50

>  <b_lp_Chiralities_Consistent>  (1) 
1

>  <r_epik_Charging_Adjusted_Penalty>  (1) 
0.36510749842979956

>  <r_epik_Ionization_Penalty>  (1) 
0.025180683492302028

>  <r_epik_Ionization_Penalty_Charging>  (1) 
0.025180683492302028

>  <r_epik_Ionization_Penalty_Neutral>  (1) 
0

>  <r_epik_State_Penalty>  (1) 
0.33992681493749755

>  <r_glide_ring_energy>  (1) 
0

>  <r_i_docking_score>  (1) 
-4.271255909845447

>  <r_i_glide_ecoul>  (1) 
-2.5267731875441011

>  <r_i_glide_eff_state_penalty>  (1) 
0.33992681493749755

>  <r_i_glide_einternal>  (1) 
0

>  <r_i_glide_emodel>  (1) 
-23.433289245172659

>  <r_i_glide_emodel_strain>  (1) 
0

>  <r_i_glide_energy>  (1) 
-14.444295617087313

>  <r_i_glide_erotb>  (1) 
0

>  <r_i_glide_esite>  (1) 
0

>  <r_i_glide_evdw>  (1) 
-11.917522429543212

>  <r_i_glide_gscore>  (1) 
-4.6111827247829442

>  <r_i_glide_gscore_strain>  (1) 
0

>  <r_i_glide_hbond>  (1) 
0

>  <r_i_glide_ligand_efficiency>  (1) 
-0.61017941569220668

>  <r_i_glide_ligand_efficiency_ln>  (1) 
-1.4498934773062042

>  <r_i_glide_ligand_efficiency_sa>  (1) 
-1.1672312313634583

>  <r_i_glide_lipo>  (1) 
-1.3862906251741682

>  <r_i_glide_metal>  (1) 
-0

>  <r_i_glide_rewards>  (1) 
-2.25

>  <r_lp_Energy>  (1) 
9.275188

>  <r_lp_tautomer_probability>  (1) 
0.56342000000000003

>  <s_epik_cmdline>  (1) 
J2VwaWtfcHl0aG9uJywgJy1waHQnLCAnMS4wJywgJy1waCcsICc3LjQnLCAnLXRuJywgJzgnLCAnLW1hJywgJzUwMCcsICctaW1hZScsICc8aW5maWxlLm1hZT4nLCAnLW9tYWUnLCAnPG91dGZpbGUubWFlPic=

>  <s_epik_input>  (1) 
W2NIXTFbY0hdW2NIXW5bY0hdYzFbT0hd

>  <s_glide_docking_method>  (1) 
confgen

>  <s_i_glide_gridfile>  (1) 
gpcr_drd2_6luq_protein_autoprepared_prepared

>  <s_lp_Force_Field>  (1) 
S-OPLS

>  <s_lp_Variant>  (1) 
Pocket2Mol_19_num_sample_50-1

>  <s_m_source_file>  (1) 
generated__ligand_Pocket2Mol_2026-05-06_prepared.sdf

>  <GenAI_Model>  (1) 
Pocket2Mol

>  <Protein>  (1) 
generic_title2

$$$$
Pocket2Mol_0_num_sample_50
     RDKit          3D

  0  0  0  0  0  0  0  0  0  0999 V3000
M  V30 BEGIN CTAB
M  V30 COUNTS 10 10 0 0 1
M  V30 BEGIN ATOM
M  V30 1 N 12.219083 9.207706 -3.395719 0
M  V30 2 C 11.834839 8.253363 -4.291598 0
M  V30 3 C 11.834837 7.038346 -3.831399 0
M  V30 4 C 12.440814 8.442167 -2.363512 0
M  V30 5 C 12.234831 6.875719 -2.429247 0
M  V30 6 H 11.565063 8.547185 -5.296268 0
M  V30 7 H 11.555157 6.177923 -4.423149 0
M  V30 8 H 12.779130 8.837165 -1.401908 0
M  V30 9 H 13.157087 6.312835 -2.292412 0
M  V30 10 H 11.421310 6.524686 -1.794048 0
M  V30 END ATOM
M  V30 BEGIN BOND
M  V30 1 1 2 1
M  V30 2 2 3 2
M  V30 3 2 4 1
M  V30 4 1 5 3
M  V30 5 1 5 4
M  V30 6 1 6 2
M  V30 7 1 7 3
M  V30 8 1 8 4
M  V30 9 1 9 5
M  V30 10 1 10 5
M  V30 END BOND
M  V30 END CTAB
M  END
>  <i_epik_Tot_Q>  (1) 
0

>  <i_epik_Tot_abs_Q>  (1) 
0

>  <i_i_glide_confnum>  (1) 
1

>  <i_i_glide_lignum>  (1) 
1

>  <i_i_glide_posenum>  (1) 
267

>  <i_i_glide_rotatable_bonds>  (1) 
0

>  <i_lp_mmshare_version>  (1) 
72125

>  <i_m_source_file_index>  (1) 
1

>  <i_f3d_flags>  (1) 
0

>  <num_sample>  (1) 
50

>  <b_lp_Chiralities_Consistent>  (1) 
1

>  <r_epik_Charging_Adjusted_Penalty>  (1) 
0

>  <r_epik_Ionization_Penalty>  (1) 
0

>  <r_epik_Ionization_Penalty_Charging>  (1) 
0

>  <r_epik_Ionization_Penalty_Neutral>  (1) 
0

>  <r_epik_State_Penalty>  (1) 
-0

>  <r_glide_ring_energy>  (1) 
0

>  <r_i_docking_score>  (1) 
-4.2703822837575203

>  <r_i_glide_ecoul>  (1) 
-0.82001936093660599

>  <r_i_glide_eff_state_penalty>  (1) 
-0

>  <r_i_glide_einternal>  (1) 
0

>  <r_i_glide_emodel>  (1) 
-18.482241041294287

>  <r_i_glide_emodel_strain>  (1) 
0

>  <r_i_glide_energy>  (1) 
-14.485212994497894

>  <r_i_glide_erotb>  (1) 
0

>  <r_i_glide_esite>  (1) 
0

>  <r_i_glide_evdw>  (1) 
-13.665193633561289

>  <r_i_glide_gscore>  (1) 
-4.2703822837575203

>  <r_i_glide_gscore_strain>  (1) 
0

>  <r_i_glide_hbond>  (1) 
0

>  <r_i_glide_ligand_efficiency>  (1) 
-0.85407645675150401

>  <r_i_glide_ligand_efficiency_ln>  (1) 
-1.6365142329729088

>  <r_i_glide_ligand_efficiency_sa>  (1) 
-1.4604501976679323

>  <r_i_glide_lipo>  (1) 
-0.65516011223949278

>  <r_i_glide_metal>  (1) 
-0

>  <r_i_glide_rewards>  (1) 
-2.8089595856994727

>  <r_lp_Energy>  (1) 
-2.9532909999999997

>  <r_lp_tautomer_probability>  (1) 
1

>  <s_epik_Chemistry_Notes>  (1) 
This compound has an imine and may undergo hydrolysis.

>  <s_epik_cmdline>  (1) 
J2VwaWtfcHl0aG9uJywgJy1waHQnLCAnMS4wJywgJy1waCcsICc3LjQnLCAnLXRuJywgJzgnLCAnLW1hJywgJzUwMCcsICctaW1hZScsICc8aW5maWxlLm1hZT4nLCAnLW9tYWUnLCAnPG91dGZpbGUubWFlPic=

>  <s_epik_input>  (1) 
TjE9W0NIXVtDSDJdW0NIXT1bQ0hdMQ==

>  <s_glide_docking_method>  (1) 
confgen

>  <s_i_glide_gridfile>  (1) 
gpcr_drd2_6luq_protein_autoprepared_prepared

>  <s_lp_Force_Field>  (1) 
S-OPLS

>  <s_lp_Variant>  (1) 
Pocket2Mol_0_num_sample_50-1

>  <s_m_source_file>  (1) 
generated__ligand_Pocket2Mol_2026-05-06_prepared.sdf

>  <GenAI_Model>  (1) 
Pocket2Mol

>  <Protein>  (1) 
generic_title2

$$$$
Pocket2Mol_1_num_sample_50
     RDKit          3D

  0  0  0  0  0  0  0  0  0  0999 V3000
M  V30 BEGIN CTAB
M  V30 COUNTS 10 10 0 0 1
M  V30 BEGIN ATOM
M  V30 1 N 11.034802 7.874810 -5.322152 0
M  V30 2 C 11.434839 6.942712 -4.396338 0
M  V30 3 C 12.234836 7.594071 -3.491721 0
M  V30 4 C 12.308023 8.969310 -3.891679 0
M  V30 5 C 11.555407 9.111404 -5.028861 0
M  V30 6 H 10.433382 7.677190 -6.111281 0
M  V30 7 H 11.118621 5.910827 -4.465819 0
M  V30 8 H 12.711767 7.137173 -2.637032 0
M  V30 9 H 12.852678 9.762626 -3.399647 0
M  V30 10 H 11.344236 9.970686 -5.649666 0
M  V30 END ATOM
M  V30 BEGIN BOND
M  V30 1 1 2 1
M  V30 2 2 3 2
M  V30 3 1 4 3
M  V30 4 1 5 1
M  V30 5 2 5 4
M  V30 6 1 6 1
M  V30 7 1 7 2
M  V30 8 1 8 3
M  V30 9 1 9 4
M  V30 10 1 10 5
M  V30 END BOND
M  V30 END CTAB
M  END
>  <i_epik_Tot_Q>  (1) 
0

>  <i_epik_Tot_abs_Q>  (1) 
0

>  <i_i_glide_confnum>  (1) 
1

>  <i_i_glide_lignum>  (1) 
2

>  <i_i_glide_posenum>  (1) 
184

>  <i_i_glide_rotatable_bonds>  (1) 
0

>  <i_lp_mmshare_version>  (1) 
72125

>  <i_m_source_file_index>  (1) 
2

>  <i_f3d_flags>  (1) 
0

>  <num_sample>  (1) 
50

>  <b_lp_Chiralities_Consistent>  (1) 
1

>  <r_epik_Charging_Adjusted_Penalty>  (1) 
0

>  <r_epik_Ionization_Penalty>  (1) 
4.7655302421719939e-09

>  <r_epik_Ionization_Penalty_Charging>  (1) 
0

>  <r_epik_Ionization_Penalty_Neutral>  (1) 
4.7655302421719939e-09

>  <r_epik_State_Penalty>  (1) 
-0

>  <r_glide_ring_energy>  (1) 
0

>  <r_i_docking_score>  (1) 
-4.2689352556525337

>  <r_i_glide_ecoul>  (1) 
-1.3242716174370122

>  <r_i_glide_eff_state_penalty>  (1) 
-0

>  <r_i_glide_einternal>  (1) 
0

>  <r_i_glide_emodel>  (1) 
-17.58105919890718

>  <r_i_glide_emodel_strain>  (1) 
5.6701310313655995e-12

>  <r_i_glide_energy>  (1) 
-12.728194384480286

>  <r_i_glide_erotb>  (1) 
0

>  <r_i_glide_esite>  (1) 
0

>  <r_i_glide_evdw>  (1) 
-11.403922767043273

>  <r_i_glide_gscore>  (1) 
-4.2689352556525337

>  <r_i_glide_gscore_strain>  (1) 
0

>  <r_i_glide_hbond>  (1) 
0

>  <r_i_glide_ligand_efficiency>  (1) 
-0.85378705113050679

>  <r_i_glide_ligand_efficiency_ln>  (1) 
-1.6359596966499361

>  <r_i_glide_ligand_efficiency_sa>  (1) 
-1.4599553210171938

>  <r_i_glide_lipo>  (1) 
-1.2500983746848182

>  <r_i_glide_metal>  (1) 
-0

>  <r_i_glide_rewards>  (1) 
-2.25

>  <r_lp_Energy>  (1) 
2.9132020000000001

>  <r_lp_tautomer_probability>  (1) 
1

>  <s_epik_cmdline>  (1) 
J2VwaWtfcHl0aG9uJywgJy1waHQnLCAnMS4wJywgJy1waCcsICc3LjQnLCAnLXRuJywgJzgnLCAnLW1hJywgJzUwMCcsICctaW1hZScsICc8aW5maWxlLm1hZT4nLCAnLW9tYWUnLCAnPG91dGZpbGUubWFlPic=

>  <s_epik_input>  (1) 
W25IXTFbY0hdW2NIXVtjSF1bY0hdMQ==

>  <s_glide_docking_method>  (1) 
confgen

>  <s_i_glide_gridfile>  (1) 
gpcr_drd2_6luq_protein_autoprepared_prepared

>  <s_lp_Force_Field>  (1) 
S-OPLS

>  <s_lp_Variant>  (1) 
Pocket2Mol_1_num_sample_50-1

>  <s_m_source_file>  (1) 
generated__ligand_Pocket2Mol_2026-05-06_prepared.sdf

>  <GenAI_Model>  (1) 
Pocket2Mol

>  <Protein>  (1) 
generic_title2

$$$$
Pocket2Mol_15_num_sample_50
     RDKit          3D

  0  0  0  0  0  0  0  0  0  0999 V3000
M  V30 BEGIN CTAB
M  V30 COUNTS 19 19 0 0 1
M  V30 BEGIN ATOM
M  V30 1 C 11.644319 8.204170 -9.168754 0
M  V30 2 O 11.575232 8.277919 -7.746861 0
M  V30 3 C 10.501188 7.478502 -7.249123 0
M  V30 4 C 11.034842 6.569302 -6.135566 0
M  V30 5 C 9.434789 8.429372 -6.694632 0
M  V30 6 C 10.312704 7.611817 -9.615770 0
M  V30 7 C 9.982446 6.693212 -8.459363 0
M  V30 8 H 11.834613 9.183881 -9.608987 0
M  V30 9 H 12.467192 7.543831 -9.446326 0
M  V30 10 H 10.236858 5.955926 -5.717605 0
M  V30 11 H 11.454023 7.156927 -5.319664 0
M  V30 12 H 11.815712 5.901960 -6.501371 0
M  V30 13 H 8.584656 7.876096 -6.293843 0
M  V30 14 H 9.836332 9.043537 -5.891634 0
M  V30 15 H 9.048391 9.098729 -7.463695 0
M  V30 16 H 9.556562 8.393467 -9.703372 0
M  V30 17 H 10.373213 7.090920 -10.571651 0
M  V30 18 H 10.526556 5.754845 -8.571533 0
M  V30 19 H 8.918593 6.457087 -8.395796 0
M  V30 END ATOM
M  V30 BEGIN BOND
M  V30 1 1 2 1
M  V30 2 1 3 2
M  V30 3 1 4 3
M  V30 4 1 5 3
M  V30 5 1 6 1
M  V30 6 1 7 3
M  V30 7 1 7 6
M  V30 8 1 8 1
M  V30 9 1 9 1
M  V30 10 1 10 4
M  V30 11 1 11 4
M  V30 12 1 12 4
M  V30 13 1 13 5
M  V30 14 1 14 5
M  V30 15 1 15 5
M  V30 16 1 16 6
M  V30 17 1 17 6
M  V30 18 1 18 7
M  V30 19 1 19 7
M  V30 END BOND
M  V30 END CTAB
M  END
>  <i_epik_Tot_Q>  (1) 
0

>  <i_epik_Tot_abs_Q>  (1) 
0

>  <i_i_glide_confnum>  (1) 
1

>  <i_i_glide_lignum>  (1) 
18

>  <i_i_glide_posenum>  (1) 
98

>  <i_i_glide_rotatable_bonds>  (1) 
0

>  <i_lp_mmshare_version>  (1) 
72125

>  <i_m_source_file_index>  (1) 
16

>  <i_f3d_flags>  (1) 
0

>  <num_sample>  (1) 
50

>  <b_lp_Chiralities_Consistent>  (1) 
1

>  <r_epik_Charging_Adjusted_Penalty>  (1) 
0

>  <r_epik_Ionization_Penalty>  (1) 
1.3889264151150229e-11

>  <r_epik_Ionization_Penalty_Charging>  (1) 
0

>  <r_epik_Ionization_Penalty_Neutral>  (1) 
1.3889264151150229e-11

>  <r_epik_State_Penalty>  (1) 
-0

>  <r_glide_ring_energy>  (1) 
0

>  <r_i_docking_score>  (1) 
-4.2595979560074859

>  <r_i_glide_ecoul>  (1) 
-0.72571273465848796

>  <r_i_glide_eff_state_penalty>  (1) 
-0

>  <r_i_glide_einternal>  (1) 
0

>  <r_i_glide_emodel>  (1) 
-21.84901229664364

>  <r_i_glide_emodel_strain>  (1) 
0

>  <r_i_glide_energy>  (1) 
-17.276036427568979

>  <r_i_glide_erotb>  (1) 
0

>  <r_i_glide_esite>  (1) 
0

>  <r_i_glide_evdw>  (1) 
-16.550323692910492

>  <r_i_glide_gscore>  (1) 
-4.2595979560074859

>  <r_i_glide_gscore_strain>  (1) 
0

>  <r_i_glide_hbond>  (1) 
0

>  <r_i_glide_ligand_efficiency>  (1) 
-0.60851399371535508

>  <r_i_glide_ligand_efficiency_ln>  (1) 
-1.4459361421370718

>  <r_i_glide_ligand_efficiency_sa>  (1) 
-1.1640453937314645

>  <r_i_glide_lipo>  (1) 
-0.55715599394289805

>  <r_i_glide_metal>  (1) 
-0

>  <r_i_glide_rewards>  (1) 
-2.76606886722029

>  <r_lp_Energy>  (1) 
0.043719999999999995

>  <r_lp_tautomer_probability>  (1) 
1

>  <s_epik_cmdline>  (1) 
J2VwaWtfcHl0aG9uJywgJy1waHQnLCAnMS4wJywgJy1waCcsICc3LjQnLCAnLXRuJywgJzgnLCAnLW1hJywgJzUwMCcsICctaW1hZScsICc8aW5maWxlLm1hZT4nLCAnLW9tYWUnLCAnPG91dGZpbGUubWFlPic=

>  <s_epik_input>  (1) 
W0NIMl0xW0NIMl1bQ0gyXU9DMShbQ0gzXSlbQ0gzXQ==

>  <s_glide_docking_method>  (1) 
confgen

>  <s_i_glide_gridfile>  (1) 
gpcr_drd2_6luq_protein_autoprepared_prepared

>  <s_lp_Force_Field>  (1) 
S-OPLS

>  <s_lp_Variant>  (1) 
Pocket2Mol_15_num_sample_50-1

>  <s_m_source_file>  (1) 
generated__ligand_Pocket2Mol_2026-05-06_prepared.sdf

>  <GenAI_Model>  (1) 
Pocket2Mol

>  <Protein>  (1) 
generic_title2

$$$$
Pocket2Mol_19_num_sample_50
     RDKit          3D

  0  0  0  0  0  0  0  0  0  0999 V3000
M  V30 BEGIN CTAB
M  V30 COUNTS 12 12 0 0 1
M  V30 BEGIN ATOM
M  V30 1 N 12.234816 9.307912 -3.077867 0 CHG=1
M  V30 2 C 11.837673 9.368807 -4.367549 0
M  V30 3 C 11.432817 8.198605 -5.031804 0
M  V30 4 C 12.260574 8.156939 -2.374206 0
M  V30 5 O 11.034839 8.252197 -6.331283 0 CHG=-1
M  V30 6 C 11.435552 6.970382 -4.333445 0
M  V30 7 C 11.857509 6.949632 -2.983971 0
M  V30 8 H 11.852366 10.342850 -4.828328 0
M  V30 9 H 12.598318 8.235798 -1.352018 0
M  V30 10 H 12.528725 10.169288 -2.613574 0
M  V30 11 H 11.121748 6.062532 -4.824940 0
M  V30 12 H 11.870286 6.023609 -2.428666 0
M  V30 END ATOM
M  V30 BEGIN BOND
M  V30 1 1 2 1
M  V30 2 2 3 2
M  V30 3 2 4 1
M  V30 4 1 5 3
M  V30 5 1 6 3
M  V30 6 1 7 4
M  V30 7 2 7 6
M  V30 8 1 8 2
M  V30 9 1 9 4
M  V30 10 1 10 1
M  V30 11 1 11 6
M  V30 12 1 12 7
M  V30 END BOND
M  V30 END CTAB
M  END
>  <i_epik_Tot_Q>  (1) 
0

>  <i_epik_Tot_abs_Q>  (1) 
2

>  <i_i_glide_confnum>  (1) 
1

>  <i_i_glide_lignum>  (1) 
22

>  <i_i_glide_posenum>  (1) 
209

>  <i_i_glide_rotatable_bonds>  (1) 
0

>  <i_lp_mmshare_version>  (1) 
72125

>  <i_m_source_file_index>  (1) 
20

>  <i_f3d_flags>  (1) 
0

>  <num_sample>  (1) 
50

>  <b_lp_Chiralities_Consistent>  (1) 
1

>  <r_epik_Charging_Adjusted_Penalty>  (1) 
0.36510749842979956

>  <r_epik_Ionization_Penalty>  (1) 
0.025180683492302028

>  <r_epik_Ionization_Penalty_Charging>  (1) 
0.025180683492302028

>  <r_epik_Ionization_Penalty_Neutral>  (1) 
0

>  <r_epik_State_Penalty>  (1) 
0.33992681493749755

>  <r_glide_ring_energy>  (1) 
0

>  <r_i_docking_score>  (1) 
-4.2520476420893125

>  <r_i_glide_ecoul>  (1) 
-1.7952188250326664

>  <r_i_glide_eff_state_penalty>  (1) 
0.33992681493749755

>  <r_i_glide_einternal>  (1) 
0

>  <r_i_glide_emodel>  (1) 
-23.238039779422305

>  <r_i_glide_emodel_strain>  (1) 
0

>  <r_i_glide_energy>  (1) 
-14.286490556985528

>  <r_i_glide_erotb>  (1) 
0

>  <r_i_glide_esite>  (1) 
0

>  <r_i_glide_evdw>  (1) 
-12.491271731952862

>  <r_i_glide_gscore>  (1) 
-4.5919744570268097

>  <r_i_glide_gscore_strain>  (1) 
0

>  <r_i_glide_hbond>  (1) 
0

>  <r_i_glide_ligand_efficiency>  (1) 
-0.60743537744133036

>  <r_i_glide_ligand_efficiency_ln>  (1) 
-1.4433731603975932

>  <r_i_glide_ligand_efficiency_sa>  (1) 
-1.1619820750266368

>  <r_i_glide_lipo>  (1) 
-1.4481280466742668

>  <r_i_glide_metal>  (1) 
-0

>  <r_i_glide_rewards>  (1) 
-2.25

>  <r_lp_Energy>  (1) 
9.275188

>  <r_lp_tautomer_probability>  (1) 
0.56342000000000003

>  <s_epik_cmdline>  (1) 
J2VwaWtfcHl0aG9uJywgJy1waHQnLCAnMS4wJywgJy1waCcsICc3LjQnLCAnLXRuJywgJzgnLCAnLW1hJywgJzUwMCcsICctaW1hZScsICc8aW5maWxlLm1hZT4nLCAnLW9tYWUnLCAnPG91dGZpbGUubWFlPic=

>  <s_epik_input>  (1) 
W2NIXTFbY0hdW2NIXW5bY0hdYzFbT0hd

>  <s_glide_docking_method>  (1) 
confgen

>  <s_i_glide_gridfile>  (1) 
gpcr_drd2_6luq_protein_autoprepared_prepared

>  <s_lp_Force_Field>  (1) 
S-OPLS

>  <s_lp_Variant>  (1) 
Pocket2Mol_19_num_sample_50-1

>  <s_m_source_file>  (1) 
generated__ligand_Pocket2Mol_2026-05-06_prepared.sdf

>  <GenAI_Model>  (1) 
Pocket2Mol

>  <Protein>  (1) 
generic_title2

$$$$
Pocket2Mol_32_num_sample_50
     RDKit          3D

  0  0  0  0  0  0  0  0  0  0999 V3000
M  V30 BEGIN CTAB
M  V30 COUNTS 12 12 0 0 1
M  V30 BEGIN ATOM
M  V30 1 N 12.323676 8.966189 -3.188186 0
M  V30 2 C 11.886327 9.280727 -4.388662 0
M  V30 3 C 11.434824 8.271844 -5.041701 0
M  V30 4 C 11.509827 6.952957 -4.291667 0
M  V30 5 C 12.234505 7.521235 -2.908454 0
M  V30 6 H 11.949878 10.310661 -4.704303 0
M  V30 7 H 10.516778 6.539952 -4.117445 0
M  V30 8 H 12.119403 6.221616 -4.821722 0
M  V30 9 H 11.626062 7.330997 -2.023958 0
M  V30 10 H 13.226224 7.093007 -2.762936 0
M  V30 11 H 11.034329 8.324862 -6.043635 0
M  V30 12 H 12.856608 9.593791 -2.597788 0
M  V30 END ATOM
M  V30 BEGIN BOND
M  V30 1 1 2 1
M  V30 2 2 3 2
M  V30 3 1 4 3
M  V30 4 1 5 1
M  V30 5 1 5 4
M  V30 6 1 6 2
M  V30 7 1 7 4
M  V30 8 1 8 4
M  V30 9 1 9 5
M  V30 10 1 10 5
M  V30 11 1 11 3
M  V30 12 1 12 1
M  V30 END BOND
M  V30 END CTAB
M  END
>  <i_epik_Tot_Q>  (1) 
0

>  <i_epik_Tot_abs_Q>  (1) 
0

>  <i_i_glide_confnum>  (1) 
1

>  <i_i_glide_lignum>  (1) 
36

>  <i_i_glide_posenum>  (1) 
110

>  <i_i_glide_rotatable_bonds>  (1) 
0

>  <i_lp_mmshare_version>  (1) 
72125

>  <i_m_source_file_index>  (1) 
33

>  <i_f3d_flags>  (1) 
0

>  <num_sample>  (1) 
50

>  <b_lp_Chiralities_Consistent>  (1) 
1

>  <r_epik_Charging_Adjusted_Penalty>  (1) 
1.6042444336516156e-06

>  <r_epik_Ionization_Penalty>  (1) 
0.0023556498582944039

>  <r_epik_Ionization_Penalty_Charging>  (1) 
1.6042444336516156e-06

>  <r_epik_Ionization_Penalty_Neutral>  (1) 
0.0023540456138607521

>  <r_epik_State_Penalty>  (1) 
-0

>  <r_glide_ring_energy>  (1) 
0

>  <r_i_docking_score>  (1) 
-4.2465310860264172

>  <r_i_glide_ecoul>  (1) 
-1.3319055797629933

>  <r_i_glide_eff_state_penalty>  (1) 
-0

>  <r_i_glide_einternal>  (1) 
0

>  <r_i_glide_emodel>  (1) 
-17.784783729762616

>  <r_i_glide_emodel_strain>  (1) 
0

>  <r_i_glide_energy>  (1) 
-13.539459321121551

>  <r_i_glide_erotb>  (1) 
0

>  <r_i_glide_esite>  (1) 
0

>  <r_i_glide_evdw>  (1) 
-12.207553741358558

>  <r_i_glide_gscore>  (1) 
-4.2465310860264172

>  <r_i_glide_gscore_strain>  (1) 
0

>  <r_i_glide_hbond>  (1) 
-0.081351198137749589

>  <r_i_glide_ligand_efficiency>  (1) 
-0.84930621720528343

>  <r_i_glide_ligand_efficiency_ln>  (1) 
-1.6273738745771595

>  <r_i_glide_ligand_efficiency_sa>  (1) 
-1.452293202784009

>  <r_i_glide_lipo>  (1) 
-1.1050163638562907

>  <r_i_glide_metal>  (1) 
-0

>  <r_i_glide_rewards>  (1) 
-2.25

>  <r_lp_Energy>  (1) 
2.9163329999999998

>  <r_lp_tautomer_probability>  (1) 
1

>  <s_epik_Chemistry_Notes>  (1) 
This compound has an imine and may undergo hydrolysis.

>  <s_epik_cmdline>  (1) 
J2VwaWtfcHl0aG9uJywgJy1waHQnLCAnMS4wJywgJy1waCcsICc3LjQnLCAnLXRuJywgJzgnLCAnLW1hJywgJzUwMCcsICctaW1hZScsICc8aW5maWxlLm1hZT4nLCAnLW9tYWUnLCAnPG91dGZpbGUubWFlPic=

>  <s_epik_input>  (1) 
W05IXTFbQ0hdPVtDSF1bQ0gyXVtDSDJdMQ==

>  <s_glide_docking_method>  (1) 
confgen

>  <s_i_glide_gridfile>  (1) 
gpcr_drd2_6luq_protein_autoprepared_prepared

>  <s_lp_Force_Field>  (1) 
S-OPLS

>  <s_lp_Variant>  (1) 
Pocket2Mol_32_num_sample_50-1

>  <s_m_source_file>  (1) 
generated__ligand_Pocket2Mol_2026-05-06_prepared.sdf

>  <GenAI_Model>  (1) 
Pocket2Mol

>  <Protein>  (1) 
generic_title2

$$$$
Pocket2Mol_21_num_sample_50
     RDKit          3D

  0  0  0  0  0  0  0  0  0  0999 V3000
M  V30 BEGIN CTAB
M  V30 COUNTS 9 9 0 0 1
M  V30 BEGIN ATOM
M  V30 1 C 12.450340 8.549626 -2.201084 0
M  V30 2 O 12.211260 9.369303 -3.268334 0
M  V30 3 C 11.834987 8.546262 -4.291939 0
M  V30 4 C 12.235182 7.242378 -2.532441 0
M  V30 5 C 11.834864 7.239868 -3.891667 0
M  V30 6 H 12.760996 9.052438 -1.296508 0
M  V30 7 H 11.605786 9.044660 -5.222605 0
M  V30 8 H 12.351345 6.392395 -1.875548 0
M  V30 9 H 11.576256 6.387904 -4.504359 0
M  V30 END ATOM
M  V30 BEGIN BOND
M  V30 1 1 2 1
M  V30 2 1 3 2
M  V30 3 2 4 1
M  V30 4 2 5 3
M  V30 5 1 5 4
M  V30 6 1 6 1
M  V30 7 1 7 3
M  V30 8 1 8 4
M  V30 9 1 9 5
M  V30 END BOND
M  V30 END CTAB
M  END
>  <i_epik_Tot_Q>  (1) 
0

>  <i_epik_Tot_abs_Q>  (1) 
0

>  <i_i_glide_confnum>  (1) 
1

>  <i_i_glide_lignum>  (1) 
25

>  <i_i_glide_posenum>  (1) 
235

>  <i_i_glide_rotatable_bonds>  (1) 
0

>  <i_lp_mmshare_version>  (1) 
72125

>  <i_m_source_file_index>  (1) 
22

>  <i_f3d_flags>  (1) 
0

>  <num_sample>  (1) 
50

>  <b_lp_Chiralities_Consistent>  (1) 
1

>  <r_epik_Charging_Adjusted_Penalty>  (1) 
0

>  <r_epik_Ionization_Penalty>  (1) 
0

>  <r_epik_Ionization_Penalty_Charging>  (1) 
0

>  <r_epik_Ionization_Penalty_Neutral>  (1) 
0

>  <r_epik_State_Penalty>  (1) 
-0

>  <r_glide_ring_energy>  (1) 
0

>  <r_i_docking_score>  (1) 
-4.2304271229696573

>  <r_i_glide_ecoul>  (1) 
-0.87518483120498047

>  <r_i_glide_eff_state_penalty>  (1) 
-0

>  <r_i_glide_einternal>  (1) 
0

>  <r_i_glide_emodel>  (1) 
-16.384493032683451

>  <r_i_glide_emodel_strain>  (1) 
0

>  <r_i_glide_energy>  (1) 
-13.065332022457451

>  <r_i_glide_erotb>  (1) 
0

>  <r_i_glide_esite>  (1) 
0

>  <r_i_glide_evdw>  (1) 
-12.190147191252469

>  <r_i_glide_gscore>  (1) 
-4.2304271229696573

>  <r_i_glide_gscore_strain>  (1) 
0

>  <r_i_glide_hbond>  (1) 
0

>  <r_i_glide_ligand_efficiency>  (1) 
-0.84608542459393143

>  <r_i_glide_ligand_efficiency_ln>  (1) 
-1.6212024447148037

>  <r_i_glide_ligand_efficiency_sa>  (1) 
-1.4467857248893632

>  <r_i_glide_lipo>  (1) 
-1.0448834843845638

>  <r_i_glide_metal>  (1) 
-0

>  <r_i_glide_rewards>  (1) 
-2.4447585543417225

>  <r_lp_Energy>  (1) 
2.5980879999999997

>  <r_lp_tautomer_probability>  (1) 
1

>  <s_epik_cmdline>  (1) 
J2VwaWtfcHl0aG9uJywgJy1waHQnLCAnMS4wJywgJy1waCcsICc3LjQnLCAnLXRuJywgJzgnLCAnLW1hJywgJzUwMCcsICctaW1hZScsICc8aW5maWxlLm1hZT4nLCAnLW9tYWUnLCAnPG91dGZpbGUubWFlPic=

>  <s_epik_input>  (1) 
W2NIXTFvW2NIXVtjSF1bY0hdMQ==

>  <s_glide_docking_method>  (1) 
confgen

>  <s_i_glide_gridfile>  (1) 
gpcr_drd2_6luq_protein_autoprepared_prepared

>  <s_lp_Force_Field>  (1) 
S-OPLS

>  <s_lp_Variant>  (1) 
Pocket2Mol_21_num_sample_50-1

>  <s_m_source_file>  (1) 
generated__ligand_Pocket2Mol_2026-05-06_prepared.sdf

>  <GenAI_Model>  (1) 
Pocket2Mol

>  <Protein>  (1) 
generic_title2

$$$$
Pocket2Mol_18_num_sample_50
     RDKit          3D

  0  0  0  0  0  0  0  0  0  0999 V3000
M  V30 BEGIN CTAB
M  V30 COUNTS 14 14 0 0 1
M  V30 BEGIN ATOM
M  V30 1 N 9.610971 7.264559 -6.736189 0 CHG=1
M  V30 2 C 9.434840 6.830529 -8.000872 0
M  V30 3 C 10.310716 7.255109 -9.019334 0
M  V30 4 C 11.367003 8.132300 -8.694031 0
M  V30 5 N 12.247737 8.569301 -9.681166 0
M  V30 6 C 11.520242 8.560555 -7.356537 0
M  V30 7 C 10.608965 8.101455 -6.382433 0
M  V30 8 H 8.598443 6.165505 -8.161780 0
M  V30 9 H 10.171492 6.914221 -10.035008 0
M  V30 10 H 12.919382 9.303334 -9.488609 0
M  V30 11 H 12.059713 8.385980 -10.655997 0
M  V30 12 H 12.321116 9.230733 -7.083105 0
M  V30 13 H 10.648572 8.378434 -5.340216 0
M  V30 14 H 8.956967 6.947425 -6.016409 0
M  V30 END ATOM
M  V30 BEGIN BOND
M  V30 1 1 2 1
M  V30 2 2 3 2
M  V30 3 1 4 3
M  V30 4 1 5 4
M  V30 5 2 6 4
M  V30 6 2 7 1
M  V30 7 1 7 6
M  V30 8 1 8 2
M  V30 9 1 9 3
M  V30 10 1 10 5
M  V30 11 1 11 5
M  V30 12 1 12 6
M  V30 13 1 13 7
M  V30 14 1 14 1
M  V30 END BOND
M  V30 END CTAB
M  END
>  <i_epik_Tot_Q>  (1) 
1

>  <i_epik_Tot_abs_Q>  (1) 
1

>  <i_i_glide_confnum>  (1) 
1

>  <i_i_glide_lignum>  (1) 
21

>  <i_i_glide_posenum>  (1) 
21

>  <i_i_glide_rotatable_bonds>  (1) 
0

>  <i_lp_mmshare_version>  (1) 
72125

>  <i_m_source_file_index>  (1) 
19

>  <i_f3d_flags>  (1) 
0

>  <num_sample>  (1) 
50

>  <b_lp_Chiralities_Consistent>  (1) 
1

>  <r_epik_Charging_Adjusted_Penalty>  (1) 
0.023410508937706027

>  <r_epik_Ionization_Penalty>  (1) 
0.011711918016166721

>  <r_epik_Ionization_Penalty_Charging>  (1) 
0.011705254468853022

>  <r_epik_Ionization_Penalty_Neutral>  (1) 
6.6635473136990569e-06

>  <r_epik_State_Penalty>  (1) 
0.011705254468853005

>  <r_glide_ring_energy>  (1) 
0

>  <r_i_docking_score>  (1) 
-4.2226576527087998

>  <r_i_glide_ecoul>  (1) 
-2.6392277632680905

>  <r_i_glide_eff_state_penalty>  (1) 
0.011705254468853005

>  <r_i_glide_einternal>  (1) 
0

>  <r_i_glide_emodel>  (1) 
-24.518884132482633

>  <r_i_glide_emodel_strain>  (1) 
0

>  <r_i_glide_energy>  (1) 
-16.616607373736223

>  <r_i_glide_erotb>  (1) 
0

>  <r_i_glide_esite>  (1) 
-0.029785646518982908

>  <r_i_glide_evdw>  (1) 
-13.97737961046813

>  <r_i_glide_gscore>  (1) 
-4.234362907177653

>  <r_i_glide_gscore_strain>  (1) 
0

>  <r_i_glide_hbond>  (1) 
-0.16417732616836467

>  <r_i_glide_ligand_efficiency>  (1) 
-0.60323680752982856

>  <r_i_glide_ligand_efficiency_ln>  (1) 
-1.4333966207567159

>  <r_i_glide_ligand_efficiency_sa>  (1) 
-1.1539504997198751

>  <r_i_glide_lipo>  (1) 
-0.69564678947668468

>  <r_i_glide_metal>  (1) 
-0

>  <r_i_glide_rewards>  (1) 
-2.25

>  <r_lp_Energy>  (1) 
13.062742999999999

>  <r_lp_tautomer_probability>  (1) 
0.99999999993680011

>  <s_epik_cmdline>  (1) 
J2VwaWtfcHl0aG9uJywgJy1waHQnLCAnMS4wJywgJy1waCcsICc3LjQnLCAnLXRuJywgJzgnLCAnLW1hJywgJzUwMCcsICctaW1hZScsICc8aW5maWxlLm1hZT4nLCAnLW9tYWUnLCAnPG91dGZpbGUubWFlPic=

>  <s_epik_input>  (1) 
W2NIXTFbY0hdbltjSF1bY0hdYzFbTkgyXQ==

>  <s_glide_docking_method>  (1) 
confgen

>  <s_i_glide_gridfile>  (1) 
gpcr_drd2_6luq_protein_autoprepared_prepared

>  <s_lp_Force_Field>  (1) 
S-OPLS

>  <s_lp_Variant>  (1) 
Pocket2Mol_18_num_sample_50-1

>  <s_m_source_file>  (1) 
generated__ligand_Pocket2Mol_2026-05-06_prepared.sdf

>  <GenAI_Model>  (1) 
Pocket2Mol

>  <Protein>  (1) 
generic_title2

$$$$
Pocket2Mol_0_num_sample_50
     RDKit          3D

  0  0  0  0  0  0  0  0  0  0999 V3000
M  V30 BEGIN CTAB
M  V30 COUNTS 10 10 0 0 1
M  V30 BEGIN ATOM
M  V30 1 N 10.234838 16.969605 -20.347583 0
M  V30 2 C 10.454088 15.849704 -21.091667 0
M  V30 3 C 11.356339 15.972177 -22.015745 0
M  V30 4 C 11.088787 17.767950 -20.926849 0
M  V30 5 C 11.995983 17.286569 -22.126452 0
M  V30 6 H 9.887958 14.957020 -20.878987 0
M  V30 7 H 11.637139 15.169051 -22.682372 0
M  V30 8 H 11.225482 18.806801 -20.615980 0
M  V30 9 H 11.763947 17.800326 -23.059489 0
M  V30 10 H 13.058090 17.280968 -21.882319 0
M  V30 END ATOM
M  V30 BEGIN BOND
M  V30 1 1 2 1
M  V30 2 2 3 2
M  V30 3 2 4 1
M  V30 4 1 5 3
M  V30 5 1 5 4
M  V30 6 1 6 2
M  V30 7 1 7 3
M  V30 8 1 8 4
M  V30 9 1 9 5
M  V30 10 1 10 5
M  V30 END BOND
M  V30 END CTAB
M  END
>  <i_epik_Tot_Q>  (1) 
0

>  <i_epik_Tot_abs_Q>  (1) 
0

>  <i_i_glide_confnum>  (1) 
1

>  <i_i_glide_lignum>  (1) 
1

>  <i_i_glide_posenum>  (1) 
290

>  <i_i_glide_rotatable_bonds>  (1) 
0

>  <i_lp_mmshare_version>  (1) 
72125

>  <i_m_source_file_index>  (1) 
1

>  <i_f3d_flags>  (1) 
0

>  <num_sample>  (1) 
50

>  <b_lp_Chiralities_Consistent>  (1) 
1

>  <r_epik_Charging_Adjusted_Penalty>  (1) 
0

>  <r_epik_Ionization_Penalty>  (1) 
0

>  <r_epik_Ionization_Penalty_Charging>  (1) 
0

>  <r_epik_Ionization_Penalty_Neutral>  (1) 
0

>  <r_epik_State_Penalty>  (1) 
-0

>  <r_glide_ring_energy>  (1) 
0

>  <r_i_docking_score>  (1) 
-4.2225063637512124

>  <r_i_glide_ecoul>  (1) 
-1.1314729785831799

>  <r_i_glide_eff_state_penalty>  (1) 
-0

>  <r_i_glide_einternal>  (1) 
0

>  <r_i_glide_emodel>  (1) 
-18.748785476342295

>  <r_i_glide_emodel_strain>  (1) 
0

>  <r_i_glide_energy>  (1) 
-14.796568732683619

>  <r_i_glide_erotb>  (1) 
0

>  <r_i_glide_esite>  (1) 
0

>  <r_i_glide_evdw>  (1) 
-13.66509575410044

>  <r_i_glide_gscore>  (1) 
-4.2225063637512124

>  <r_i_glide_gscore_strain>  (1) 
0

>  <r_i_glide_hbond>  (1) 
0

>  <r_i_glide_ligand_efficiency>  (1) 
-0.84450127275024245

>  <r_i_glide_ligand_efficiency_ln>  (1) 
-1.6181670173606204

>  <r_i_glide_ligand_efficiency_sa>  (1) 
-1.4440768633407715

>  <r_i_glide_lipo>  (1) 
-0.8226946429905212

>  <r_i_glide_metal>  (1) 
-0

>  <r_i_glide_rewards>  (1) 
-2.5468359862681922

>  <r_lp_Energy>  (1) 
-2.9532909999999997

>  <r_lp_tautomer_probability>  (1) 
1

>  <s_epik_Chemistry_Notes>  (1) 
This compound has an imine and may undergo hydrolysis.

>  <s_epik_cmdline>  (1) 
J2VwaWtfcHl0aG9uJywgJy1waHQnLCAnMS4wJywgJy1waCcsICc3LjQnLCAnLXRuJywgJzgnLCAnLW1hJywgJzUwMCcsICctaW1hZScsICc8aW5maWxlLm1hZT4nLCAnLW9tYWUnLCAnPG91dGZpbGUubWFlPic=

>  <s_epik_input>  (1) 
TjE9W0NIXVtDSDJdW0NIXT1bQ0hdMQ==

>  <s_glide_docking_method>  (1) 
confgen

>  <s_i_glide_gridfile>  (1) 
gpcr_drd2_6luq_protein_autoprepared_prepared

>  <s_lp_Force_Field>  (1) 
S-OPLS

>  <s_lp_Variant>  (1) 
Pocket2Mol_0_num_sample_50-1

>  <s_m_source_file>  (1) 
generated__ligand_Pocket2Mol_2026-05-06_prepared.sdf

>  <GenAI_Model>  (1) 
Pocket2Mol

>  <Protein>  (1) 
generic_title2

$$$$
Pocket2Mol_0_num_sample_50
     RDKit          3D

  0  0  0  0  0  0  0  0  0  0999 V3000
M  V30 BEGIN CTAB
M  V30 COUNTS 10 10 0 0 1
M  V30 BEGIN ATOM
M  V30 1 N 11.420711 8.236938 -5.347401 0
M  V30 2 C 10.647963 8.914087 -6.245089 0
M  V30 3 C 9.880492 8.168954 -6.980997 0
M  V30 4 C 11.034838 7.021242 -5.623836 0
M  V30 5 C 9.957997 6.723606 -6.741773 0
M  V30 6 H 10.712205 9.991334 -6.291649 0
M  V30 7 H 9.211399 8.562702 -7.733949 0
M  V30 8 H 11.430645 6.146619 -5.101019 0
M  V30 9 H 10.364479 6.158716 -7.580980 0
M  V30 10 H 9.037987 6.298123 -6.340054 0
M  V30 END ATOM
M  V30 BEGIN BOND
M  V30 1 1 2 1
M  V30 2 2 3 2
M  V30 3 2 4 1
M  V30 4 1 5 3
M  V30 5 1 5 4
M  V30 6 1 6 2
M  V30 7 1 7 3
M  V30 8 1 8 4
M  V30 9 1 9 5
M  V30 10 1 10 5
M  V30 END BOND
M  V30 END CTAB
M  END
>  <i_epik_Tot_Q>  (1) 
0

>  <i_epik_Tot_abs_Q>  (1) 
0

>  <i_i_glide_confnum>  (1) 
1

>  <i_i_glide_lignum>  (1) 
1

>  <i_i_glide_posenum>  (1) 
292

>  <i_i_glide_rotatable_bonds>  (1) 
0

>  <i_lp_mmshare_version>  (1) 
72125

>  <i_m_source_file_index>  (1) 
1

>  <i_f3d_flags>  (1) 
0

>  <num_sample>  (1) 
50

>  <b_lp_Chiralities_Consistent>  (1) 
1

>  <r_epik_Charging_Adjusted_Penalty>  (1) 
0

>  <r_epik_Ionization_Penalty>  (1) 
0

>  <r_epik_Ionization_Penalty_Charging>  (1) 
0

>  <r_epik_Ionization_Penalty_Neutral>  (1) 
0

>  <r_epik_State_Penalty>  (1) 
-0

>  <r_glide_ring_energy>  (1) 
0

>  <r_i_docking_score>  (1) 
-4.21840533741846

>  <r_i_glide_ecoul>  (1) 
-1.3794718248263802

>  <r_i_glide_eff_state_penalty>  (1) 
-0

>  <r_i_glide_einternal>  (1) 
0

>  <r_i_glide_emodel>  (1) 
-17.895794949637992

>  <r_i_glide_emodel_strain>  (1) 
0

>  <r_i_glide_energy>  (1) 
-13.947416718829794

>  <r_i_glide_erotb>  (1) 
0

>  <r_i_glide_esite>  (1) 
0

>  <r_i_glide_evdw>  (1) 
-12.567944894003414

>  <r_i_glide_gscore>  (1) 
-4.21840533741846

>  <r_i_glide_gscore_strain>  (1) 
0

>  <r_i_glide_hbond>  (1) 
0

>  <r_i_glide_ligand_efficiency>  (1) 
-0.84368106748369198

>  <r_i_glide_ligand_efficiency_ln>  (1) 
-1.6165954044422939

>  <r_i_glide_ligand_efficiency_sa>  (1) 
-1.4426743320636326

>  <r_i_glide_lipo>  (1) 
-0.38618044055573242

>  <r_i_glide_metal>  (1) 
-0

>  <r_i_glide_rewards>  (1) 
-2.9969068784385993

>  <r_lp_Energy>  (1) 
-2.9532909999999997

>  <r_lp_tautomer_probability>  (1) 
1

>  <s_epik_Chemistry_Notes>  (1) 
This compound has an imine and may undergo hydrolysis.

>  <s_epik_cmdline>  (1) 
J2VwaWtfcHl0aG9uJywgJy1waHQnLCAnMS4wJywgJy1waCcsICc3LjQnLCAnLXRuJywgJzgnLCAnLW1hJywgJzUwMCcsICctaW1hZScsICc8aW5maWxlLm1hZT4nLCAnLW9tYWUnLCAnPG91dGZpbGUubWFlPic=

>  <s_epik_input>  (1) 
TjE9W0NIXVtDSDJdW0NIXT1bQ0hdMQ==

>  <s_glide_docking_method>  (1) 
confgen

>  <s_i_glide_gridfile>  (1) 
gpcr_drd2_6luq_protein_autoprepared_prepared

>  <s_lp_Force_Field>  (1) 
S-OPLS

>  <s_lp_Variant>  (1) 
Pocket2Mol_0_num_sample_50-1

>  <s_m_source_file>  (1) 
generated__ligand_Pocket2Mol_2026-05-06_prepared.sdf

>  <GenAI_Model>  (1) 
Pocket2Mol

>  <Protein>  (1) 
generic_title2

$$$$
Pocket2Mol_4_num_sample_50
     RDKit          3D

  0  0  0  0  0  0  0  0  0  0999 V3000
M  V30 BEGIN CTAB
M  V30 COUNTS 16 16 0 0 1
M  V30 BEGIN ATOM
M  V30 1 C 9.961467 6.969519 -8.484978 0
M  V30 2 O 10.625596 8.163695 -8.893242 0
M  V30 3 C 11.771405 8.471264 -8.107179 0
M  V30 4 C 11.360925 8.691075 -6.641960 0
M  V30 5 C 10.634764 7.452623 -6.104598 0
M  V30 6 C 9.468044 7.103733 -7.035618 0
M  V30 7 H 9.117217 6.787868 -9.150340 0
M  V30 8 H 10.634501 6.116767 -8.585750 0
M  V30 9 H 12.509001 7.672913 -8.187797 0
M  V30 10 H 12.234967 9.369230 -8.512210 0
M  V30 11 H 12.234853 8.919967 -6.032718 0
M  V30 12 H 10.700986 9.555862 -6.574852 0
M  V30 13 H 11.325858 6.610093 -6.050334 0
M  V30 14 H 10.272432 7.627339 -5.091668 0
M  V30 15 H 8.705167 7.882032 -6.983807 0
M  V30 16 H 8.985615 6.180317 -6.712999 0
M  V30 END ATOM
M  V30 BEGIN BOND
M  V30 1 1 2 1
M  V30 2 1 3 2
M  V30 3 1 4 3
M  V30 4 1 5 4
M  V30 5 1 6 1
M  V30 6 1 6 5
M  V30 7 1 7 1
M  V30 8 1 8 1
M  V30 9 1 9 3
M  V30 10 1 10 3
M  V30 11 1 11 4
M  V30 12 1 12 4
M  V30 13 1 13 5
M  V30 14 1 14 5
M  V30 15 1 15 6
M  V30 16 1 16 6
M  V30 END BOND
M  V30 END CTAB
M  END
>  <i_epik_Tot_Q>  (1) 
0

>  <i_epik_Tot_abs_Q>  (1) 
0

>  <i_i_glide_confnum>  (1) 
2

>  <i_i_glide_lignum>  (1) 
5

>  <i_i_glide_posenum>  (1) 
371

>  <i_i_glide_rotatable_bonds>  (1) 
0

>  <i_lp_mmshare_version>  (1) 
72125

>  <i_m_source_file_index>  (1) 
5

>  <i_f3d_flags>  (1) 
0

>  <num_sample>  (1) 
50

>  <b_lp_Chiralities_Consistent>  (1) 
1

>  <r_epik_Charging_Adjusted_Penalty>  (1) 
0

>  <r_epik_Ionization_Penalty>  (1) 
1.5229185111393156e-11

>  <r_epik_Ionization_Penalty_Charging>  (1) 
0

>  <r_epik_Ionization_Penalty_Neutral>  (1) 
1.5229185111393156e-11

>  <r_epik_State_Penalty>  (1) 
-0

>  <r_glide_ring_energy>  (1) 
0.00023819064548269558

>  <r_i_docking_score>  (1) 
-4.2146079606333853

>  <r_i_glide_ecoul>  (1) 
-0.17748957674817289

>  <r_i_glide_eff_state_penalty>  (1) 
-0

>  <r_i_glide_einternal>  (1) 
0

>  <r_i_glide_emodel>  (1) 
-18.336460550711507

>  <r_i_glide_emodel_strain>  (1) 
0

>  <r_i_glide_energy>  (1) 
-14.33521480115286

>  <r_i_glide_erotb>  (1) 
0

>  <r_i_glide_esite>  (1) 
0

>  <r_i_glide_evdw>  (1) 
-14.157725224404688

>  <r_i_glide_gscore>  (1) 
-4.2146079606333853

>  <r_i_glide_gscore_strain>  (1) 
0

>  <r_i_glide_hbond>  (1) 
0

>  <r_i_glide_ligand_efficiency>  (1) 
-0.70243466010556421

>  <r_i_glide_ligand_efficiency_ln>  (1) 
-1.5096601290650444

>  <r_i_glide_ligand_efficiency_sa>  (1) 
-1.2764084859968654

>  <r_i_glide_lipo>  (1) 
-0.75256198475015856

>  <r_i_glide_metal>  (1) 
-0

>  <r_i_glide_rewards>  (1) 
-2.7275362781507662

>  <r_lp_Energy>  (1) 
2.9645999999999999

>  <r_lp_tautomer_probability>  (1) 
1

>  <s_epik_cmdline>  (1) 
J2VwaWtfcHl0aG9uJywgJy1waHQnLCAnMS4wJywgJy1waCcsICc3LjQnLCAnLXRuJywgJzgnLCAnLW1hJywgJzUwMCcsICctaW1hZScsICc8aW5maWxlLm1hZT4nLCAnLW9tYWUnLCAnPG91dGZpbGUubWFlPic=

>  <s_epik_input>  (1) 
W0NIMl0xT1tDSDJdW0NIMl1bQ0gyXVtDSDJdMQ==

>  <s_glide_docking_method>  (1) 
confgen

>  <s_i_glide_gridfile>  (1) 
gpcr_drd2_6luq_protein_autoprepared_prepared

>  <s_lp_Force_Field>  (1) 
S-OPLS

>  <s_lp_Variant>  (1) 
Pocket2Mol_4_num_sample_50-1

>  <s_m_source_file>  (1) 
generated__ligand_Pocket2Mol_2026-05-06_prepared.sdf

>  <GenAI_Model>  (1) 
Pocket2Mol

>  <Protein>  (1) 
generic_title2

$$$$
Pocket2Mol_49_num_sample_50
     RDKit          3D

  0  0  0  0  0  0  0  0  0  0999 V3000
M  V30 BEGIN CTAB
M  V30 COUNTS 11 11 0 0 1
M  V30 BEGIN ATOM
M  V30 1 O 11.834839 9.606765 -2.804091 0
M  V30 2 C 12.251010 8.570357 -1.932559 0
M  V30 3 C 12.562988 7.396254 -2.856493 0
M  V30 4 C 11.951383 9.101293 -4.086618 0
M  V30 5 O 11.835178 7.726068 -4.016811 0
M  V30 6 H 13.113531 8.865732 -1.334048 0
M  V30 7 H 11.434632 8.325518 -1.257103 0
M  V30 8 H 13.626257 7.366334 -3.092847 0
M  V30 9 H 12.273293 6.430292 -2.442604 0
M  V30 10 H 11.181561 9.521254 -4.734120 0
M  V30 11 H 12.932602 9.366283 -4.487221 0
M  V30 END ATOM
M  V30 BEGIN BOND
M  V30 1 1 2 1
M  V30 2 1 3 2
M  V30 3 1 4 1
M  V30 4 1 5 3
M  V30 5 1 5 4
M  V30 6 1 6 2
M  V30 7 1 7 2
M  V30 8 1 8 3
M  V30 9 1 9 3
M  V30 10 1 10 4
M  V30 11 1 11 4
M  V30 END BOND
M  V30 END CTAB
M  END
>  <i_epik_Tot_Q>  (1) 
0

>  <i_epik_Tot_abs_Q>  (1) 
0

>  <i_i_glide_confnum>  (1) 
2

>  <i_i_glide_lignum>  (1) 
55

>  <i_i_glide_posenum>  (1) 
206

>  <i_i_glide_rotatable_bonds>  (1) 
0

>  <i_lp_mmshare_version>  (1) 
72125

>  <i_m_source_file_index>  (1) 
50

>  <i_f3d_flags>  (1) 
0

>  <num_sample>  (1) 
50

>  <b_lp_Chiralities_Consistent>  (1) 
1

>  <r_epik_Charging_Adjusted_Penalty>  (1) 
0

>  <r_epik_Ionization_Penalty>  (1) 
7.9724310449397378e-14

>  <r_epik_Ionization_Penalty_Charging>  (1) 
0

>  <r_epik_Ionization_Penalty_Neutral>  (1) 
7.9724310449397378e-14

>  <r_epik_State_Penalty>  (1) 
-0

>  <r_glide_ring_energy>  (1) 
1.1396681620093737e-05

>  <r_i_docking_score>  (1) 
-4.2061859325960418

>  <r_i_glide_ecoul>  (1) 
0.12971317358899628

>  <r_i_glide_eff_state_penalty>  (1) 
-0

>  <r_i_glide_einternal>  (1) 
0

>  <r_i_glide_emodel>  (1) 
-16.930544983345875

>  <r_i_glide_emodel_strain>  (1) 
0.013498560861075148

>  <r_i_glide_energy>  (1) 
-13.25893405888505

>  <r_i_glide_erotb>  (1) 
0

>  <r_i_glide_esite>  (1) 
0

>  <r_i_glide_evdw>  (1) 
-13.388647232474046

>  <r_i_glide_gscore>  (1) 
-4.2061859325960418

>  <r_i_glide_gscore_strain>  (1) 
0

>  <r_i_glide_hbond>  (1) 
0

>  <r_i_glide_ligand_efficiency>  (1) 
-0.84123718651920831

>  <r_i_glide_ligand_efficiency_ln>  (1) 
-1.6119126316642209

>  <r_i_glide_ligand_efficiency_sa>  (1) 
-1.4384953543978245

>  <r_i_glide_lipo>  (1) 
-0.66000000000000003

>  <r_i_glide_metal>  (1) 
-0

>  <r_i_glide_rewards>  (1) 
-2.8962105470106891

>  <r_lp_Energy>  (1) 
-12.242958999999999

>  <r_lp_tautomer_probability>  (1) 
1

>  <s_epik_Chemistry_Notes>  (1) 
This compound contains an acetal/aminal-like group ( X-CH(R)-Y where X, Y are N, S, or O) that may be acid/base labile, releasing an aldehyde.

>  <s_epik_cmdline>  (1) 
J2VwaWtfcHl0aG9uJywgJy1waHQnLCAnMS4wJywgJy1waCcsICc3LjQnLCAnLXRuJywgJzgnLCAnLW1hJywgJzUwMCcsICctaW1hZScsICc8aW5maWxlLm1hZT4nLCAnLW9tYWUnLCAnPG91dGZpbGUubWFlPic=

>  <s_epik_input>  (1) 
TzFbQ0gyXVtDSDJdT1tDSDJdMQ==

>  <s_glide_docking_method>  (1) 
confgen

>  <s_i_glide_gridfile>  (1) 
gpcr_drd2_6luq_protein_autoprepared_prepared

>  <s_lp_Force_Field>  (1) 
S-OPLS

>  <s_lp_Variant>  (1) 
Pocket2Mol_49_num_sample_50-1

>  <s_m_source_file>  (1) 
generated__ligand_Pocket2Mol_2026-05-06_prepared.sdf

>  <GenAI_Model>  (1) 
Pocket2Mol

>  <Protein>  (1) 
generic_title2

$$$$
Pocket2Mol_32_num_sample_50
     RDKit          3D

  0  0  0  0  0  0  0  0  0  0999 V3000
M  V30 BEGIN CTAB
M  V30 COUNTS 12 12 0 0 1
M  V30 BEGIN ATOM
M  V30 1 N 12.234822 7.668205 -3.491969 0
M  V30 2 C 12.276340 8.969267 -3.686813 0
M  V30 3 C 11.670754 9.341341 -4.757355 0
M  V30 4 C 11.034621 8.210463 -5.545536 0
M  V30 5 C 11.434805 6.969301 -4.519522 0
M  V30 6 H 12.785713 9.580582 -2.954967 0
M  V30 7 H 9.957123 8.339490 -5.649709 0
M  V30 8 H 11.495658 8.108159 -6.528128 0
M  V30 9 H 10.553394 6.506974 -4.075109 0
M  V30 10 H 12.017506 6.195868 -5.020540 0
M  V30 11 H 11.591574 10.367319 -5.086526 0
M  V30 12 H 12.431882 7.237237 -2.599512 0
M  V30 END ATOM
M  V30 BEGIN BOND
M  V30 1 1 2 1
M  V30 2 2 3 2
M  V30 3 1 4 3
M  V30 4 1 5 1
M  V30 5 1 5 4
M  V30 6 1 6 2
M  V30 7 1 7 4
M  V30 8 1 8 4
M  V30 9 1 9 5
M  V30 10 1 10 5
M  V30 11 1 11 3
M  V30 12 1 12 1
M  V30 END BOND
M  V30 END CTAB
M  END
>  <i_epik_Tot_Q>  (1) 
0

>  <i_epik_Tot_abs_Q>  (1) 
0

>  <i_i_glide_confnum>  (1) 
1

>  <i_i_glide_lignum>  (1) 
36

>  <i_i_glide_posenum>  (1) 
235

>  <i_i_glide_rotatable_bonds>  (1) 
0

>  <i_lp_mmshare_version>  (1) 
72125

>  <i_m_source_file_index>  (1) 
33

>  <i_f3d_flags>  (1) 
0

>  <num_sample>  (1) 
50

>  <b_lp_Chiralities_Consistent>  (1) 
1

>  <r_epik_Charging_Adjusted_Penalty>  (1) 
1.6042444336516156e-06

>  <r_epik_Ionization_Penalty>  (1) 
0.0023556498582944039

>  <r_epik_Ionization_Penalty_Charging>  (1) 
1.6042444336516156e-06

>  <r_epik_Ionization_Penalty_Neutral>  (1) 
0.0023540456138607521

>  <r_epik_State_Penalty>  (1) 
-0

>  <r_glide_ring_energy>  (1) 
0

>  <r_i_docking_score>  (1) 
-4.1984206393717072

>  <r_i_glide_ecoul>  (1) 
-0.88915026451953327

>  <r_i_glide_eff_state_penalty>  (1) 
-0

>  <r_i_glide_einternal>  (1) 
0

>  <r_i_glide_emodel>  (1) 
-17.894880260001848

>  <r_i_glide_emodel_strain>  (1) 
0

>  <r_i_glide_energy>  (1) 
-13.6976526271423

>  <r_i_glide_erotb>  (1) 
0

>  <r_i_glide_esite>  (1) 
0

>  <r_i_glide_evdw>  (1) 
-12.808502362622766

>  <r_i_glide_gscore>  (1) 
-4.1984206393717072

>  <r_i_glide_gscore_strain>  (1) 
0

>  <r_i_glide_hbond>  (1) 
0

>  <r_i_glide_ligand_efficiency>  (1) 
-0.83968412787434143

>  <r_i_glide_ligand_efficiency_ln>  (1) 
-1.6089367826557688

>  <r_i_glide_ligand_efficiency_sa>  (1) 
-1.4358396614713238

>  <r_i_glide_lipo>  (1) 
-1.1746229815626388

>  <r_i_glide_metal>  (1) 
-0

>  <r_i_glide_rewards>  (1) 
-2.25

>  <r_lp_Energy>  (1) 
2.9163329999999998

>  <r_lp_tautomer_probability>  (1) 
1

>  <s_epik_Chemistry_Notes>  (1) 
This compound has an imine and may undergo hydrolysis.

>  <s_epik_cmdline>  (1) 
J2VwaWtfcHl0aG9uJywgJy1waHQnLCAnMS4wJywgJy1waCcsICc3LjQnLCAnLXRuJywgJzgnLCAnLW1hJywgJzUwMCcsICctaW1hZScsICc8aW5maWxlLm1hZT4nLCAnLW9tYWUnLCAnPG91dGZpbGUubWFlPic=

>  <s_epik_input>  (1) 
W05IXTFbQ0hdPVtDSF1bQ0gyXVtDSDJdMQ==

>  <s_glide_docking_method>  (1) 
confgen

>  <s_i_glide_gridfile>  (1) 
gpcr_drd2_6luq_protein_autoprepared_prepared

>  <s_lp_Force_Field>  (1) 
S-OPLS

>  <s_lp_Variant>  (1) 
Pocket2Mol_32_num_sample_50-1

>  <s_m_source_file>  (1) 
generated__ligand_Pocket2Mol_2026-05-06_prepared.sdf

>  <GenAI_Model>  (1) 
Pocket2Mol

>  <Protein>  (1) 
generic_title2

$$$$
Pocket2Mol_47_num_sample_50
     RDKit          3D

  0  0  0  0  0  0  0  0  0  0999 V3000
M  V30 BEGIN CTAB
M  V30 COUNTS 11 11 0 0 1
M  V30 BEGIN ATOM
M  V30 1 C 12.422820 8.530978 -2.187724 0
M  V30 2 O 12.161506 9.368677 -3.381460 0
M  V30 3 C 12.186453 6.972454 -2.489384 0
M  V30 4 C 11.834839 7.205887 -3.889572 0
M  V30 5 C 11.834840 8.436976 -4.291658 0
M  V30 6 H 11.782934 8.864021 -1.370624 0
M  V30 7 H 13.449610 8.697445 -1.863389 0
M  V30 8 H 11.352622 6.542836 -1.932977 0
M  V30 9 H 13.080613 6.359710 -2.385918 0
M  V30 10 H 11.587962 6.373449 -4.533284 0
M  V30 11 H 11.605185 8.822344 -5.274484 0
M  V30 END ATOM
M  V30 BEGIN BOND
M  V30 1 1 2 1
M  V30 2 1 3 1
M  V30 3 1 4 3
M  V30 4 1 5 2
M  V30 5 2 5 4
M  V30 6 1 6 1
M  V30 7 1 7 1
M  V30 8 1 8 3
M  V30 9 1 9 3
M  V30 10 1 10 4
M  V30 11 1 11 5
M  V30 END BOND
M  V30 END CTAB
M  END
>  <i_epik_Tot_Q>  (1) 
0

>  <i_epik_Tot_abs_Q>  (1) 
0

>  <i_i_glide_confnum>  (1) 
1

>  <i_i_glide_lignum>  (1) 
53

>  <i_i_glide_posenum>  (1) 
10

>  <i_i_glide_rotatable_bonds>  (1) 
0

>  <i_lp_mmshare_version>  (1) 
72125

>  <i_m_source_file_index>  (1) 
48

>  <i_f3d_flags>  (1) 
0

>  <num_sample>  (1) 
50

>  <b_lp_Chiralities_Consistent>  (1) 
1

>  <r_epik_Charging_Adjusted_Penalty>  (1) 
0

>  <r_epik_Ionization_Penalty>  (1) 
0

>  <r_epik_Ionization_Penalty_Charging>  (1) 
0

>  <r_epik_Ionization_Penalty_Neutral>  (1) 
0

>  <r_epik_State_Penalty>  (1) 
-0

>  <r_glide_ring_energy>  (1) 
0

>  <r_i_docking_score>  (1) 
-4.1957615691660965

>  <r_i_glide_ecoul>  (1) 
-0.63765031437541053

>  <r_i_glide_eff_state_penalty>  (1) 
-0

>  <r_i_glide_einternal>  (1) 
0

>  <r_i_glide_emodel>  (1) 
-17.150776327269696

>  <r_i_glide_emodel_strain>  (1) 
0

>  <r_i_glide_energy>  (1) 
-13.516911286221532

>  <r_i_glide_erotb>  (1) 
0

>  <r_i_glide_esite>  (1) 
0

>  <r_i_glide_evdw>  (1) 
-12.879260971846122

>  <r_i_glide_gscore>  (1) 
-4.1957615691660965

>  <r_i_glide_gscore_strain>  (1) 
0

>  <r_i_glide_hbond>  (1) 
0

>  <r_i_glide_ligand_efficiency>  (1) 
-0.83915231383321931

>  <r_i_glide_ligand_efficiency_ln>  (1) 
-1.6079177623552894

>  <r_i_glide_ligand_efficiency_sa>  (1) 
-1.4349302722529

>  <r_i_glide_lipo>  (1) 
-1.0163623307354221

>  <r_i_glide_metal>  (1) 
-0

>  <r_i_glide_rewards>  (1) 
-2.439788642682057

>  <r_lp_Energy>  (1) 
-3.1771669999999999

>  <r_lp_tautomer_probability>  (1) 
1

>  <s_epik_cmdline>  (1) 
J2VwaWtfcHl0aG9uJywgJy1waHQnLCAnMS4wJywgJy1waCcsICc3LjQnLCAnLXRuJywgJzgnLCAnLW1hJywgJzUwMCcsICctaW1hZScsICc8aW5maWxlLm1hZT4nLCAnLW9tYWUnLCAnPG91dGZpbGUubWFlPic=

>  <s_epik_input>  (1) 
W0NIMl0xT1tDSF09W0NIXVtDSDJdMQ==

>  <s_glide_docking_method>  (1) 
confgen

>  <s_i_glide_gridfile>  (1) 
gpcr_drd2_6luq_protein_autoprepared_prepared

>  <s_lp_Force_Field>  (1) 
S-OPLS

>  <s_lp_Variant>  (1) 
Pocket2Mol_47_num_sample_50-1

>  <s_m_source_file>  (1) 
generated__ligand_Pocket2Mol_2026-05-06_prepared.sdf

>  <GenAI_Model>  (1) 
Pocket2Mol

>  <Protein>  (1) 
generic_title2

$$$$
Pocket2Mol_6_num_sample_50
     RDKit          3D

  0  0  0  0  0  0  0  0  0  0999 V3000
M  V30 BEGIN CTAB
M  V30 COUNTS 11 11 0 0 1
M  V30 BEGIN ATOM
M  V30 1 N 11.842610 8.949980 -6.991270 0
M  V30 2 C 10.715289 8.569302 -6.344446 0
M  V30 3 C 9.690127 7.818391 -6.948644 0
M  V30 4 C 9.834839 7.436183 -8.290255 0
M  V30 5 C 10.999098 7.817778 -8.973486 0
M  V30 6 C 11.970537 8.569301 -8.285822 0
M  V30 7 H 10.629893 8.876971 -5.312748 0
M  V30 8 H 8.806088 7.542008 -6.391181 0
M  V30 9 H 9.065974 6.860823 -8.786153 0
M  V30 10 H 11.146047 7.541316 -10.006700 0
M  V30 11 H 12.876350 8.877106 -8.787227 0
M  V30 END ATOM
M  V30 BEGIN BOND
M  V30 1 2 2 1
M  V30 2 1 3 2
M  V30 3 2 4 3
M  V30 4 1 5 4
M  V30 5 1 6 1
M  V30 6 2 6 5
M  V30 7 1 7 2
M  V30 8 1 8 3
M  V30 9 1 9 4
M  V30 10 1 10 5
M  V30 11 1 11 6
M  V30 END BOND
M  V30 END CTAB
M  END
>  <i_epik_Tot_Q>  (1) 
0

>  <i_epik_Tot_abs_Q>  (1) 
0

>  <i_i_glide_confnum>  (1) 
1

>  <i_i_glide_lignum>  (1) 
7

>  <i_i_glide_posenum>  (1) 
220

>  <i_i_glide_rotatable_bonds>  (1) 
0

>  <i_lp_mmshare_version>  (1) 
72125

>  <i_m_source_file_index>  (1) 
7

>  <i_f3d_flags>  (1) 
0

>  <num_sample>  (1) 
50

>  <b_lp_Chiralities_Consistent>  (1) 
1

>  <r_epik_Charging_Adjusted_Penalty>  (1) 
0

>  <r_epik_Ionization_Penalty>  (1) 
0.0028947865417402485

>  <r_epik_Ionization_Penalty_Charging>  (1) 
0

>  <r_epik_Ionization_Penalty_Neutral>  (1) 
0.0028947865417402485

>  <r_epik_State_Penalty>  (1) 
-0

>  <r_glide_ring_energy>  (1) 
0

>  <r_i_docking_score>  (1) 
-4.1949727283001481

>  <r_i_glide_ecoul>  (1) 
-1.1553132832634005

>  <r_i_glide_eff_state_penalty>  (1) 
-0

>  <r_i_glide_einternal>  (1) 
0

>  <r_i_glide_emodel>  (1) 
-18.859902518970593

>  <r_i_glide_emodel_strain>  (1) 
0

>  <r_i_glide_energy>  (1) 
-14.828245162904308

>  <r_i_glide_erotb>  (1) 
0

>  <r_i_glide_esite>  (1) 
0

>  <r_i_glide_evdw>  (1) 
-13.672931879640908

>  <r_i_glide_gscore>  (1) 
-4.1949727283001481

>  <r_i_glide_gscore_strain>  (1) 
0

>  <r_i_glide_hbond>  (1) 
0

>  <r_i_glide_ligand_efficiency>  (1) 
-0.69916212138335798

>  <r_i_glide_ligand_efficiency_ln>  (1) 
-1.5026268468107296

>  <r_i_glide_ligand_efficiency_sa>  (1) 
-1.2704618884939041

>  <r_i_glide_lipo>  (1) 
-0.67969580849525879

>  <r_i_glide_metal>  (1) 
-0

>  <r_i_glide_rewards>  (1) 
-2.6583333333333332

>  <r_lp_Energy>  (1) 
11.088944

>  <r_lp_tautomer_probability>  (1) 
1

>  <s_epik_cmdline>  (1) 
J2VwaWtfcHl0aG9uJywgJy1waHQnLCAnMS4wJywgJy1waCcsICc3LjQnLCAnLXRuJywgJzgnLCAnLW1hJywgJzUwMCcsICctaW1hZScsICc8aW5maWxlLm1hZT4nLCAnLW9tYWUnLCAnPG91dGZpbGUubWFlPic=

>  <s_epik_input>  (1) 
bjFbY0hdW2NIXVtjSF1bY0hdW2NIXTE=

>  <s_glide_docking_method>  (1) 
confgen

>  <s_i_glide_gridfile>  (1) 
gpcr_drd2_6luq_protein_autoprepared_prepared

>  <s_lp_Force_Field>  (1) 
S-OPLS

>  <s_lp_Variant>  (1) 
Pocket2Mol_6_num_sample_50-1

>  <s_m_source_file>  (1) 
generated__ligand_Pocket2Mol_2026-05-06_prepared.sdf

>  <GenAI_Model>  (1) 
Pocket2Mol

>  <Protein>  (1) 
generic_title2

$$$$
Pocket2Mol_6_num_sample_50
     RDKit          3D

  0  0  0  0  0  0  0  0  0  0999 V3000
M  V30 BEGIN CTAB
M  V30 COUNTS 11 11 0 0 1
M  V30 BEGIN ATOM
M  V30 1 N 10.635135 8.787721 -6.121472 0
M  V30 2 C 9.664579 8.169288 -6.838183 0
M  V30 3 C 9.841675 7.726155 -8.162533 0
M  V30 4 C 11.081447 7.930947 -8.782799 0
M  V30 5 C 12.096340 8.569301 -8.055669 0
M  V30 6 C 11.827664 8.977233 -6.734541 0
M  V30 7 H 8.718018 8.025922 -6.337541 0
M  V30 8 H 9.034837 7.239434 -8.691727 0
M  V30 9 H 11.251017 7.604502 -9.798379 0
M  V30 10 H 13.065166 8.745053 -8.500270 0
M  V30 11 H 12.591320 9.470781 -6.151629 0
M  V30 END ATOM
M  V30 BEGIN BOND
M  V30 1 2 2 1
M  V30 2 1 3 2
M  V30 3 2 4 3
M  V30 4 1 5 4
M  V30 5 1 6 1
M  V30 6 2 6 5
M  V30 7 1 7 2
M  V30 8 1 8 3
M  V30 9 1 9 4
M  V30 10 1 10 5
M  V30 11 1 11 6
M  V30 END BOND
M  V30 END CTAB
M  END
>  <i_epik_Tot_Q>  (1) 
0

>  <i_epik_Tot_abs_Q>  (1) 
0

>  <i_i_glide_confnum>  (1) 
1

>  <i_i_glide_lignum>  (1) 
7

>  <i_i_glide_posenum>  (1) 
400

>  <i_i_glide_rotatable_bonds>  (1) 
0

>  <i_lp_mmshare_version>  (1) 
72125

>  <i_m_source_file_index>  (1) 
7

>  <i_f3d_flags>  (1) 
0

>  <num_sample>  (1) 
50

>  <b_lp_Chiralities_Consistent>  (1) 
1

>  <r_epik_Charging_Adjusted_Penalty>  (1) 
0

>  <r_epik_Ionization_Penalty>  (1) 
0.0028947865417402485

>  <r_epik_Ionization_Penalty_Charging>  (1) 
0

>  <r_epik_Ionization_Penalty_Neutral>  (1) 
0.0028947865417402485

>  <r_epik_State_Penalty>  (1) 
-0

>  <r_glide_ring_energy>  (1) 
0

>  <r_i_docking_score>  (1) 
-4.1811496066446141

>  <r_i_glide_ecoul>  (1) 
-1.1960010472384695

>  <r_i_glide_eff_state_penalty>  (1) 
-0

>  <r_i_glide_einternal>  (1) 
0

>  <r_i_glide_emodel>  (1) 
-19.008063600140591

>  <r_i_glide_emodel_strain>  (1) 
0

>  <r_i_glide_energy>  (1) 
-14.989691214851439

>  <r_i_glide_erotb>  (1) 
0

>  <r_i_glide_esite>  (1) 
0

>  <r_i_glide_evdw>  (1) 
-13.793690167612969

>  <r_i_glide_gscore>  (1) 
-4.1811496066446141

>  <r_i_glide_gscore_strain>  (1) 
0

>  <r_i_glide_hbond>  (1) 
0

>  <r_i_glide_ligand_efficiency>  (1) 
-0.69685826777410231

>  <r_i_glide_ligand_efficiency_ln>  (1) 
-1.4976754454425607

>  <r_i_glide_ligand_efficiency_sa>  (1) 
-1.2662755086576549

>  <r_i_glide_lipo>  (1) 
-0.63706494117819534

>  <r_i_glide_metal>  (1) 
-0

>  <r_i_glide_rewards>  (1) 
-2.6749999999999998

>  <r_lp_Energy>  (1) 
11.088944

>  <r_lp_tautomer_probability>  (1) 
1

>  <s_epik_cmdline>  (1) 
J2VwaWtfcHl0aG9uJywgJy1waHQnLCAnMS4wJywgJy1waCcsICc3LjQnLCAnLXRuJywgJzgnLCAnLW1hJywgJzUwMCcsICctaW1hZScsICc8aW5maWxlLm1hZT4nLCAnLW9tYWUnLCAnPG91dGZpbGUubWFlPic=

>  <s_epik_input>  (1) 
bjFbY0hdW2NIXVtjSF1bY0hdW2NIXTE=

>  <s_glide_docking_method>  (1) 
confgen

>  <s_i_glide_gridfile>  (1) 
gpcr_drd2_6luq_protein_autoprepared_prepared

>  <s_lp_Force_Field>  (1) 
S-OPLS

>  <s_lp_Variant>  (1) 
Pocket2Mol_6_num_sample_50-1

>  <s_m_source_file>  (1) 
generated__ligand_Pocket2Mol_2026-05-06_prepared.sdf

>  <GenAI_Model>  (1) 
Pocket2Mol

>  <Protein>  (1) 
generic_title2

$$$$
Pocket2Mol_10_num_sample_50
     RDKit          3D

  0  0  0  0  0  0  0  0  0  0999 V3000
M  V30 BEGIN CTAB
M  V30 COUNTS 14 13 0 0 1
M  V30 BEGIN ATOM
M  V30 1 N 9.034839 6.569291 -8.291666 0 CHG=1
M  V30 2 C 10.109227 7.334701 -8.957106 0
M  V30 3 C 8.974699 5.160065 -8.734429 0
M  V30 4 C 9.063452 6.701810 -6.819235 0
M  V30 5 H 11.093121 6.948013 -8.688356 0
M  V30 6 H 10.061626 8.386752 -8.673198 0
M  V30 7 H 10.002349 7.281507 -10.041198 0
M  V30 8 H 9.876420 4.616977 -8.449618 0
M  V30 9 H 8.114663 4.655567 -8.291513 0
M  V30 10 H 8.867445 5.101425 -9.818173 0
M  V30 11 H 9.987320 6.297106 -6.403906 0
M  V30 12 H 8.981151 7.749246 -6.526612 0
M  V30 13 H 8.226824 6.169310 -6.366858 0
M  V30 14 H 8.153614 6.995490 -8.600288 0
M  V30 END ATOM
M  V30 BEGIN BOND
M  V30 1 1 2 1
M  V30 2 1 3 1
M  V30 3 1 4 1
M  V30 4 1 5 2
M  V30 5 1 6 2
M  V30 6 1 7 2
M  V30 7 1 8 3
M  V30 8 1 9 3
M  V30 9 1 10 3
M  V30 10 1 11 4
M  V30 11 1 12 4
M  V30 12 1 13 4
M  V30 13 1 14 1
M  V30 END BOND
M  V30 END CTAB
M  END
>  <i_epik_Tot_Q>  (1) 
1

>  <i_epik_Tot_abs_Q>  (1) 
1

>  <i_i_glide_confnum>  (1) 
1

>  <i_i_glide_lignum>  (1) 
13

>  <i_i_glide_posenum>  (1) 
395

>  <i_i_glide_rotatable_bonds>  (1) 
0

>  <i_lp_mmshare_version>  (1) 
72125

>  <i_m_source_file_index>  (1) 
11

>  <i_f3d_flags>  (1) 
0

>  <num_sample>  (1) 
50

>  <b_lp_Chiralities_Consistent>  (1) 
1

>  <r_epik_Charging_Adjusted_Penalty>  (1) 
0.0093753769364623638

>  <r_epik_Ionization_Penalty>  (1) 
0.0046876884682311671

>  <r_epik_Ionization_Penalty_Charging>  (1) 
0.0046876884682311671

>  <r_epik_Ionization_Penalty_Neutral>  (1) 
0

>  <r_epik_State_Penalty>  (1) 
0.0046876884682311958

>  <r_glide_ring_energy>  (1) 
0

>  <r_i_docking_score>  (1) 
-4.1655750806090941

>  <r_i_glide_ecoul>  (1) 
-4.6373783046412189

>  <r_i_glide_eff_state_penalty>  (1) 
0.0046876884682311958

>  <r_i_glide_einternal>  (1) 
0

>  <r_i_glide_emodel>  (1) 
-18.625054123362396

>  <r_i_glide_emodel_strain>  (1) 
0

>  <r_i_glide_energy>  (1) 
-11.884911250143787

>  <r_i_glide_erotb>  (1) 
0

>  <r_i_glide_esite>  (1) 
-0.089711500431014557

>  <r_i_glide_evdw>  (1) 
-7.2475329455025692

>  <r_i_glide_gscore>  (1) 
-4.1702627690773255

>  <r_i_glide_gscore_strain>  (1) 
0

>  <r_i_glide_hbond>  (1) 
-0.24256787567499971

>  <r_i_glide_ligand_efficiency>  (1) 
-1.0413937701522735

>  <r_i_glide_ligand_efficiency_ln>  (1) 
-1.7456249943339701

>  <r_i_glide_ligand_efficiency_sa>  (1) 
-1.6531095662528483

>  <r_i_glide_lipo>  (1) 
0

>  <r_i_glide_metal>  (1) 
-0

>  <r_i_glide_rewards>  (1) 
-2.7800000000000002

>  <r_lp_Energy>  (1) 
13.212527

>  <s_epik_cmdline>  (1) 
J2VwaWtfcHl0aG9uJywgJy1waHQnLCAnMS4wJywgJy1waCcsICc3LjQnLCAnLXRuJywgJzgnLCAnLW1hJywgJzUwMCcsICctaW1hZScsICc8aW5maWxlLm1hZT4nLCAnLW9tYWUnLCAnPG91dGZpbGUubWFlPic=

>  <s_epik_input>  (1) 
W0NIM11OKFtDSDNdKVtDSDNd

>  <s_glide_docking_method>  (1) 
confgen

>  <s_i_glide_gridfile>  (1) 
gpcr_drd2_6luq_protein_autoprepared_prepared

>  <s_lp_Force_Field>  (1) 
S-OPLS

>  <s_lp_Variant>  (1) 
Pocket2Mol_10_num_sample_50-1

>  <s_m_source_file>  (1) 
generated__ligand_Pocket2Mol_2026-05-06_prepared.sdf

>  <GenAI_Model>  (1) 
Pocket2Mol

>  <Protein>  (1) 
generic_title2

$$$$
Pocket2Mol_44_num_sample_50
     RDKit          3D

  0  0  0  0  0  0  0  0  0  0999 V3000
M  V30 BEGIN CTAB
M  V30 COUNTS 15 16 0 0 1
M  V30 BEGIN ATOM
M  V30 1 C 12.080505 9.461306 -5.369075 0
M  V30 2 O 12.696891 9.369363 -6.691658 0
M  V30 3 C 11.676310 8.832528 -7.364702 0
M  V30 4 C 10.606832 8.568566 -6.616492 0
M  V30 5 C 9.451194 8.013546 -7.179904 0
M  V30 6 N 9.434835 7.753483 -8.508176 0 CHG=1
M  V30 7 C 10.503156 8.004184 -9.312121 0
M  V30 8 C 11.680413 8.561732 -8.748530 0
M  V30 9 O 10.741386 8.885810 -5.330691 0
M  V30 10 H 11.999988 10.515980 -5.106605 0
M  V30 11 H 12.709317 8.967296 -4.628694 0
M  V30 12 H 8.554396 7.782175 -6.631377 0
M  V30 13 H 10.380476 7.762339 -10.358482 0
M  V30 14 H 12.545663 8.778644 -9.358949 0
M  V30 15 H 8.567986 7.369317 -8.927049 0
M  V30 END ATOM
M  V30 BEGIN BOND
M  V30 1 1 2 1
M  V30 2 1 3 2
M  V30 3 2 4 3
M  V30 4 1 5 4
M  V30 5 2 6 5
M  V30 6 1 7 6
M  V30 7 1 8 3
M  V30 8 2 8 7
M  V30 9 1 9 1
M  V30 10 1 9 4
M  V30 11 1 10 1
M  V30 12 1 11 1
M  V30 13 1 12 5
M  V30 14 1 13 7
M  V30 15 1 14 8
M  V30 16 1 15 6
M  V30 END BOND
M  V30 END CTAB
M  END
>  <i_epik_Tot_Q>  (1) 
1

>  <i_epik_Tot_abs_Q>  (1) 
1

>  <i_i_glide_confnum>  (1) 
1

>  <i_i_glide_lignum>  (1) 
50

>  <i_i_glide_posenum>  (1) 
93

>  <i_i_glide_rotatable_bonds>  (1) 
0

>  <i_lp_mmshare_version>  (1) 
72125

>  <i_m_source_file_index>  (1) 
45

>  <i_f3d_flags>  (1) 
0

>  <num_sample>  (1) 
50

>  <b_lp_Chiralities_Consistent>  (1) 
1

>  <r_epik_Charging_Adjusted_Penalty>  (1) 
2.6035637255513002

>  <r_epik_Ionization_Penalty>  (1) 
1.3017818627756499

>  <r_epik_Ionization_Penalty_Charging>  (1) 
1.3017818627756499

>  <r_epik_Ionization_Penalty_Neutral>  (1) 
0

>  <r_epik_State_Penalty>  (1) 
1.3017818627756503

>  <r_glide_ring_energy>  (1) 
0

>  <r_i_docking_score>  (1) 
-4.1511759757129045

>  <r_i_glide_ecoul>  (1) 
-4.103447873672267

>  <r_i_glide_eff_state_penalty>  (1) 
1.3017818627756503

>  <r_i_glide_einternal>  (1) 
0

>  <r_i_glide_emodel>  (1) 
-29.052390362106976

>  <r_i_glide_emodel_strain>  (1) 
0

>  <r_i_glide_energy>  (1) 
-18.933509590194529

>  <r_i_glide_erotb>  (1) 
0

>  <r_i_glide_esite>  (1) 
-0.10000000000000001

>  <r_i_glide_evdw>  (1) 
-14.830061716522261

>  <r_i_glide_gscore>  (1) 
-5.4529578384885546

>  <r_i_glide_gscore_strain>  (1) 
0

>  <r_i_glide_hbond>  (1) 
-0.16133733453959634

>  <r_i_glide_ligand_efficiency>  (1) 
-0.4612417750792116

>  <r_i_glide_ligand_efficiency_ln>  (1) 
-1.2983685929161326

>  <r_i_glide_ligand_efficiency_sa>  (1) 
-0.95942155485801317

>  <r_i_glide_lipo>  (1) 
-0.79766981046976204

>  <r_i_glide_metal>  (1) 
-0

>  <r_i_glide_rewards>  (1) 
-3.0369304266022423

>  <r_lp_Energy>  (1) 
25.893000999999998

>  <s_epik_Chemistry_Notes>  (1) 
This compound contains an acetal/aminal-like group ( X-CH(R)-Y where X, Y are N, S, or O) that may be acid/base labile, releasing an aldehyde.

>  <s_epik_cmdline>  (1) 
J2VwaWtfcHl0aG9uJywgJy1waHQnLCAnMS4wJywgJy1waCcsICc3LjQnLCAnLXRuJywgJzgnLCAnLW1hJywgJzUwMCcsICctaW1hZScsICc8aW5maWxlLm1hZT4nLCAnLW9tYWUnLCAnPG91dGZpbGUubWFlPic=

>  <s_epik_input>  (1) 
TzFbQ0gyXU9jKGMxMilbY0hdbltjSF1bY0hdMg==

>  <s_glide_docking_method>  (1) 
confgen

>  <s_i_glide_gridfile>  (1) 
gpcr_drd2_6luq_protein_autoprepared_prepared

>  <s_lp_Force_Field>  (1) 
S-OPLS

>  <s_lp_Variant>  (1) 
Pocket2Mol_44_num_sample_50-2

>  <s_m_source_file>  (1) 
generated__ligand_Pocket2Mol_2026-05-06_prepared.sdf

>  <GenAI_Model>  (1) 
Pocket2Mol

>  <Protein>  (1) 
generic_title2

$$$$
Pocket2Mol_49_num_sample_50
     RDKit          3D

  0  0  0  0  0  0  0  0  0  0999 V3000
M  V30 BEGIN CTAB
M  V30 COUNTS 11 11 0 0 1
M  V30 BEGIN ATOM
M  V30 1 O 21.618500 8.512785 -9.491666 0
M  V30 2 C 20.896134 7.604938 -10.291953 0
M  V30 3 C 21.435262 7.909121 -11.676459 0
M  V30 4 C 21.924252 9.588088 -10.316149 0
M  V30 5 O 21.508599 9.314258 -11.611140 0
M  V30 6 H 21.034862 6.569271 -9.988111 0
M  V30 7 H 19.834894 7.839403 -10.244181 0
M  V30 8 H 22.429466 7.482502 -11.820267 0
M  V30 9 H 20.781867 7.563076 -12.477975 0
M  V30 10 H 21.434840 10.493418 -9.955310 0
M  V30 11 H 23.004607 9.739201 -10.306481 0
M  V30 END ATOM
M  V30 BEGIN BOND
M  V30 1 1 2 1
M  V30 2 1 3 2
M  V30 3 1 4 1
M  V30 4 1 5 3
M  V30 5 1 5 4
M  V30 6 1 6 2
M  V30 7 1 7 2
M  V30 8 1 8 3
M  V30 9 1 9 3
M  V30 10 1 10 4
M  V30 11 1 11 4
M  V30 END BOND
M  V30 END CTAB
M  END
>  <i_epik_Tot_Q>  (1) 
0

>  <i_epik_Tot_abs_Q>  (1) 
0

>  <i_i_glide_confnum>  (1) 
2

>  <i_i_glide_lignum>  (1) 
55

>  <i_i_glide_posenum>  (1) 
6

>  <i_i_glide_rotatable_bonds>  (1) 
0

>  <i_lp_mmshare_version>  (1) 
72125

>  <i_m_source_file_index>  (1) 
50

>  <i_f3d_flags>  (1) 
0

>  <num_sample>  (1) 
50

>  <b_lp_Chiralities_Consistent>  (1) 
1

>  <r_epik_Charging_Adjusted_Penalty>  (1) 
0

>  <r_epik_Ionization_Penalty>  (1) 
7.9724310449397378e-14

>  <r_epik_Ionization_Penalty_Charging>  (1) 
0

>  <r_epik_Ionization_Penalty_Neutral>  (1) 
7.9724310449397378e-14

>  <r_epik_State_Penalty>  (1) 
-0

>  <r_glide_ring_energy>  (1) 
1.1396681620093737e-05

>  <r_i_docking_score>  (1) 
-4.1439570045768246

>  <r_i_glide_ecoul>  (1) 
-0.69868656584677824

>  <r_i_glide_eff_state_penalty>  (1) 
-0

>  <r_i_glide_einternal>  (1) 
0

>  <r_i_glide_emodel>  (1) 
-16.198603588717688

>  <r_i_glide_emodel_strain>  (1) 
0

>  <r_i_glide_energy>  (1) 
-12.56801390270563

>  <r_i_glide_erotb>  (1) 
0

>  <r_i_glide_esite>  (1) 
0

>  <r_i_glide_evdw>  (1) 
-11.869327336858852

>  <r_i_glide_gscore>  (1) 
-4.1439570045768246

>  <r_i_glide_gscore_strain>  (1) 
0

>  <r_i_glide_hbond>  (1) 
0

>  <r_i_glide_ligand_efficiency>  (1) 
-0.82879140091536496

>  <r_i_glide_ligand_efficiency_ln>  (1) 
-1.5880649946989216

>  <r_i_glide_ligand_efficiency_sa>  (1) 
-1.417213360377757

>  <r_i_glide_lipo>  (1) 
-0.66000000000000003

>  <r_i_glide_metal>  (1) 
-0

>  <r_i_glide_rewards>  (1) 
-2.7856876528568648

>  <r_lp_Energy>  (1) 
-12.242958999999999

>  <r_lp_tautomer_probability>  (1) 
1

>  <s_epik_Chemistry_Notes>  (1) 
This compound contains an acetal/aminal-like group ( X-CH(R)-Y where X, Y are N, S, or O) that may be acid/base labile, releasing an aldehyde.

>  <s_epik_cmdline>  (1) 
J2VwaWtfcHl0aG9uJywgJy1waHQnLCAnMS4wJywgJy1waCcsICc3LjQnLCAnLXRuJywgJzgnLCAnLW1hJywgJzUwMCcsICctaW1hZScsICc8aW5maWxlLm1hZT4nLCAnLW9tYWUnLCAnPG91dGZpbGUubWFlPic=

>  <s_epik_input>  (1) 
TzFbQ0gyXVtDSDJdT1tDSDJdMQ==

>  <s_glide_docking_method>  (1) 
confgen

>  <s_i_glide_gridfile>  (1) 
gpcr_drd2_6luq_protein_autoprepared_prepared

>  <s_lp_Force_Field>  (1) 
S-OPLS

>  <s_lp_Variant>  (1) 
Pocket2Mol_49_num_sample_50-1

>  <s_m_source_file>  (1) 
generated__ligand_Pocket2Mol_2026-05-06_prepared.sdf

>  <GenAI_Model>  (1) 
Pocket2Mol

>  <Protein>  (1) 
generic_title2

$$$$
Pocket2Mol_20_num_sample_50
     RDKit          3D

  0  0  0  0  0  0  0  0  0  0999 V3000
M  V30 BEGIN CTAB
M  V30 COUNTS 12 12 0 0 1
M  V30 BEGIN ATOM
M  V30 1 N 10.234615 8.286614 -5.972653 0
M  V30 2 C 9.662995 7.793199 -7.091668 0
M  V30 3 C 10.290489 7.859834 -8.337614 0
M  V30 4 C 11.547358 8.464303 -8.384501 0
M  V30 5 N 12.234839 8.569301 -9.586522 0
M  V30 6 N 12.142045 8.969301 -7.287707 0
M  V30 7 C 11.434887 8.850191 -6.153536 0
M  V30 8 H 8.688711 7.339221 -6.983866 0
M  V30 9 H 9.818073 7.461230 -9.224391 0
M  V30 10 H 11.821184 8.266563 -10.454517 0
M  V30 11 H 13.111959 9.072244 -9.646146 0
M  V30 12 H 11.900119 9.255549 -5.267172 0
M  V30 END ATOM
M  V30 BEGIN BOND
M  V30 1 1 2 1
M  V30 2 2 3 2
M  V30 3 1 4 3
M  V30 4 1 5 4
M  V30 5 2 6 4
M  V30 6 2 7 1
M  V30 7 1 7 6
M  V30 8 1 8 2
M  V30 9 1 9 3
M  V30 10 1 10 5
M  V30 11 1 11 5
M  V30 12 1 12 7
M  V30 END BOND
M  V30 END CTAB
M  END
>  <i_epik_Tot_Q>  (1) 
0

>  <i_epik_Tot_abs_Q>  (1) 
0

>  <i_i_glide_confnum>  (1) 
1

>  <i_i_glide_lignum>  (1) 
24

>  <i_i_glide_posenum>  (1) 
220

>  <i_i_glide_rotatable_bonds>  (1) 
0

>  <i_lp_mmshare_version>  (1) 
72125

>  <i_m_source_file_index>  (1) 
21

>  <i_f3d_flags>  (1) 
0

>  <num_sample>  (1) 
50

>  <b_lp_Chiralities_Consistent>  (1) 
1

>  <r_epik_Charging_Adjusted_Penalty>  (1) 
0.011441366301234922

>  <r_epik_Ionization_Penalty>  (1) 
0.011523414685131987

>  <r_epik_Ionization_Penalty_Charging>  (1) 
0

>  <r_epik_Ionization_Penalty_Neutral>  (1) 
0.011523414685131987

>  <r_epik_State_Penalty>  (1) 
0.011441366301234922

>  <r_glide_ring_energy>  (1) 
0

>  <r_i_docking_score>  (1) 
-4.1370872449752074

>  <r_i_glide_ecoul>  (1) 
-2.570539049572881

>  <r_i_glide_eff_state_penalty>  (1) 
0.011441366301234922

>  <r_i_glide_einternal>  (1) 
0

>  <r_i_glide_emodel>  (1) 
-22.998669003549473

>  <r_i_glide_emodel_strain>  (1) 
0

>  <r_i_glide_energy>  (1) 
-18.054672235650802

>  <r_i_glide_erotb>  (1) 
0

>  <r_i_glide_esite>  (1) 
0

>  <r_i_glide_evdw>  (1) 
-15.484133186077921

>  <r_i_glide_gscore>  (1) 
-4.1485286112764426

>  <r_i_glide_gscore_strain>  (1) 
0

>  <r_i_glide_hbond>  (1) 
-0.13561744893574401

>  <r_i_glide_ligand_efficiency>  (1) 
-0.59101246356788673

>  <r_i_glide_ligand_efficiency_ln>  (1) 
-1.4043494321447236

>  <r_i_glide_ligand_efficiency_sa>  (1) 
-1.1305661709661412

>  <r_i_glide_lipo>  (1) 
-0.24948610680584729

>  <r_i_glide_metal>  (1) 
-0

>  <r_i_glide_rewards>  (1) 
-2.6036375387950232

>  <r_lp_Energy>  (1) 
9.3523319999999988

>  <r_lp_tautomer_probability>  (1) 
0.9999995832001739

>  <s_epik_cmdline>  (1) 
J2VwaWtfcHl0aG9uJywgJy1waHQnLCAnMS4wJywgJy1waCcsICc3LjQnLCAnLXRuJywgJzgnLCAnLW1hJywgJzUwMCcsICctaW1hZScsICc8aW5maWxlLm1hZT4nLCAnLW9tYWUnLCAnPG91dGZpbGUubWFlPic=

>  <s_epik_input>  (1) 
bjFbY0hdbltjSF1bY0hdYzFbTkgyXQ==

>  <s_glide_docking_method>  (1) 
confgen

>  <s_i_glide_gridfile>  (1) 
gpcr_drd2_6luq_protein_autoprepared_prepared

>  <s_lp_Force_Field>  (1) 
S-OPLS

>  <s_lp_Variant>  (1) 
Pocket2Mol_20_num_sample_50-1

>  <s_m_source_file>  (1) 
generated__ligand_Pocket2Mol_2026-05-06_prepared.sdf

>  <GenAI_Model>  (1) 
Pocket2Mol

>  <Protein>  (1) 
generic_title2

$$$$
Pocket2Mol_9_num_sample_50
     RDKit          3D

  0  0  0  0  0  0  0  0  0  0999 V3000
M  V30 BEGIN CTAB
M  V30 COUNTS 12 12 0 0 1
M  V30 BEGIN ATOM
M  V30 1 O 10.634794 8.781943 -6.053740 0
M  V30 2 C 11.738682 8.969298 -6.834032 0
M  V30 3 C 9.719436 8.169301 -6.849374 0
M  V30 4 C 11.543849 8.489302 -8.103461 0
M  V30 5 C 12.517270 8.508877 -9.250158 0
M  V30 6 C 10.218780 7.969533 -8.101569 0
M  V30 7 H 12.568157 9.453063 -6.339593 0
M  V30 8 H 8.771981 7.947832 -6.377528 0
M  V30 9 H 12.415368 7.604251 -9.849601 0
M  V30 10 H 12.326605 9.369281 -9.891656 0
M  V30 11 H 13.543559 8.567748 -8.886532 0
M  V30 12 H 9.691308 7.504006 -8.922673 0
M  V30 END ATOM
M  V30 BEGIN BOND
M  V30 1 1 2 1
M  V30 2 1 3 1
M  V30 3 2 4 2
M  V30 4 1 5 4
M  V30 5 2 6 3
M  V30 6 1 6 4
M  V30 7 1 7 2
M  V30 8 1 8 3
M  V30 9 1 9 5
M  V30 10 1 10 5
M  V30 11 1 11 5
M  V30 12 1 12 6
M  V30 END BOND
M  V30 END CTAB
M  END
>  <i_epik_Tot_Q>  (1) 
0

>  <i_epik_Tot_abs_Q>  (1) 
0

>  <i_i_glide_confnum>  (1) 
1

>  <i_i_glide_lignum>  (1) 
12

>  <i_i_glide_posenum>  (1) 
68

>  <i_i_glide_rotatable_bonds>  (1) 
0

>  <i_lp_mmshare_version>  (1) 
72125

>  <i_m_source_file_index>  (1) 
10

>  <i_f3d_flags>  (1) 
0

>  <num_sample>  (1) 
50

>  <b_lp_Chiralities_Consistent>  (1) 
1

>  <r_epik_Charging_Adjusted_Penalty>  (1) 
0

>  <r_epik_Ionization_Penalty>  (1) 
0

>  <r_epik_Ionization_Penalty_Charging>  (1) 
0

>  <r_epik_Ionization_Penalty_Neutral>  (1) 
0

>  <r_epik_State_Penalty>  (1) 
-0

>  <r_glide_ring_energy>  (1) 
0

>  <r_i_docking_score>  (1) 
-4.1346532272072132

>  <r_i_glide_ecoul>  (1) 
-0.77633172846525988

>  <r_i_glide_eff_state_penalty>  (1) 
-0

>  <r_i_glide_einternal>  (1) 
0

>  <r_i_glide_emodel>  (1) 
-18.201436013786346

>  <r_i_glide_emodel_strain>  (1) 
0

>  <r_i_glide_energy>  (1) 
-14.373361226558316

>  <r_i_glide_erotb>  (1) 
0

>  <r_i_glide_esite>  (1) 
0

>  <r_i_glide_evdw>  (1) 
-13.597029498093056

>  <r_i_glide_gscore>  (1) 
-4.1346532272072132

>  <r_i_glide_gscore_strain>  (1) 
0

>  <r_i_glide_hbond>  (1) 
0

>  <r_i_glide_ligand_efficiency>  (1) 
-0.68910887120120223

>  <r_i_glide_ligand_efficiency_ln>  (1) 
-1.4810205795954476

>  <r_i_glide_ligand_efficiency_sa>  (1) 
-1.2521939205630153

>  <r_i_glide_lipo>  (1) 
-0.69668532636610436

>  <r_i_glide_metal>  (1) 
-0

>  <r_i_glide_rewards>  (1) 
-2.6416666666666666

>  <r_lp_Energy>  (1) 
-1.206345

>  <r_lp_tautomer_probability>  (1) 
1

>  <s_epik_cmdline>  (1) 
J2VwaWtfcHl0aG9uJywgJy1waHQnLCAnMS4wJywgJy1waCcsICc3LjQnLCAnLXRuJywgJzgnLCAnLW1hJywgJzUwMCcsICctaW1hZScsICc8aW5maWxlLm1hZT4nLCAnLW9tYWUnLCAnPG91dGZpbGUubWFlPic=

>  <s_epik_input>  (1) 
W2NIXTFbY0hdb1tjSF1jMVtDSDNd

>  <s_glide_docking_method>  (1) 
confgen

>  <s_i_glide_gridfile>  (1) 
gpcr_drd2_6luq_protein_autoprepared_prepared

>  <s_lp_Force_Field>  (1) 
S-OPLS

>  <s_lp_Variant>  (1) 
Pocket2Mol_9_num_sample_50-1

>  <s_m_source_file>  (1) 
generated__ligand_Pocket2Mol_2026-05-06_prepared.sdf

>  <GenAI_Model>  (1) 
Pocket2Mol

>  <Protein>  (1) 
generic_title2

$$$$
Pocket2Mol_45_num_sample_50
     RDKit          3D

  0  0  0  0  0  0  0  0  0  0999 V3000
M  V30 BEGIN CTAB
M  V30 COUNTS 13 13 0 0 1
M  V30 BEGIN ATOM
M  V30 1 O 12.176838 9.369297 -6.691689 0
M  V30 2 C 11.389600 8.958401 -5.577867 0
M  V30 3 C 10.731545 7.645154 -5.995773 0
M  V30 4 C 11.868046 8.569306 -7.832607 0
M  V30 5 C 10.576651 7.836902 -7.486469 0
M  V30 6 H 11.995684 8.853100 -4.677823 0
M  V30 7 H 10.634745 9.722462 -5.390090 0
M  V30 8 H 11.398315 6.805534 -5.793463 0
M  V30 9 H 9.784535 7.457245 -5.491668 0
M  V30 10 H 11.776621 9.176413 -8.733843 0
M  V30 11 H 12.679521 7.856616 -7.985459 0
M  V30 12 H 9.712330 8.469168 -7.697440 0
M  V30 13 H 10.455449 6.900150 -8.031639 0
M  V30 END ATOM
M  V30 BEGIN BOND
M  V30 1 1 2 1
M  V30 2 1 3 2
M  V30 3 1 4 1
M  V30 4 1 5 3
M  V30 5 1 5 4
M  V30 6 1 6 2
M  V30 7 1 7 2
M  V30 8 1 8 3
M  V30 9 1 9 3
M  V30 10 1 10 4
M  V30 11 1 11 4
M  V30 12 1 12 5
M  V30 13 1 13 5
M  V30 END BOND
M  V30 END CTAB
M  END
>  <i_epik_Tot_Q>  (1) 
0

>  <i_epik_Tot_abs_Q>  (1) 
0

>  <i_i_glide_confnum>  (1) 
4

>  <i_i_glide_lignum>  (1) 
51

>  <i_i_glide_posenum>  (1) 
38

>  <i_i_glide_rotatable_bonds>  (1) 
0

>  <i_lp_mmshare_version>  (1) 
72125

>  <i_m_source_file_index>  (1) 
46

>  <i_f3d_flags>  (1) 
0

>  <num_sample>  (1) 
50

>  <b_lp_Chiralities_Consistent>  (1) 
1

>  <r_epik_Charging_Adjusted_Penalty>  (1) 
0

>  <r_epik_Ionization_Penalty>  (1) 
1.3889264151150229e-11

>  <r_epik_Ionization_Penalty_Charging>  (1) 
0

>  <r_epik_Ionization_Penalty_Neutral>  (1) 
1.3889264151150229e-11

>  <r_epik_State_Penalty>  (1) 
-0

>  <r_glide_ring_energy>  (1) 
0.22164722245690596

>  <r_i_docking_score>  (1) 
-4.1263009187516699

>  <r_i_glide_ecoul>  (1) 
-0.58270598925740325

>  <r_i_glide_eff_state_penalty>  (1) 
-0

>  <r_i_glide_einternal>  (1) 
0

>  <r_i_glide_emodel>  (1) 
-16.389400809555234

>  <r_i_glide_emodel_strain>  (1) 
0

>  <r_i_glide_energy>  (1) 
-12.920474675638356

>  <r_i_glide_erotb>  (1) 
0

>  <r_i_glide_esite>  (1) 
0

>  <r_i_glide_evdw>  (1) 
-12.337768686380953

>  <r_i_glide_gscore>  (1) 
-4.1263009187516699

>  <r_i_glide_gscore_strain>  (1) 
0

>  <r_i_glide_hbond>  (1) 
0

>  <r_i_glide_ligand_efficiency>  (1) 
-0.82526018375033394

>  <r_i_glide_ligand_efficiency_ln>  (1) 
-1.5812987536854746

>  <r_i_glide_ligand_efficiency_sa>  (1) 
-1.4111750639630622

>  <r_i_glide_lipo>  (1) 
-0.81367325271067847

>  <r_i_glide_metal>  (1) 
-0

>  <r_i_glide_rewards>  (1) 
-2.6083333333333334

>  <r_lp_Energy>  (1) 
3.9173999999999998

>  <r_lp_tautomer_probability>  (1) 
1

>  <s_epik_cmdline>  (1) 
J2VwaWtfcHl0aG9uJywgJy1waHQnLCAnMS4wJywgJy1waCcsICc3LjQnLCAnLXRuJywgJzgnLCAnLW1hJywgJzUwMCcsICctaW1hZScsICc8aW5maWxlLm1hZT4nLCAnLW9tYWUnLCAnPG91dGZpbGUubWFlPic=

>  <s_epik_input>  (1) 
TzFbQ0gyXVtDSDJdW0NIMl1bQ0gyXTE=

>  <s_glide_docking_method>  (1) 
confgen

>  <s_i_glide_gridfile>  (1) 
gpcr_drd2_6luq_protein_autoprepared_prepared

>  <s_lp_Force_Field>  (1) 
S-OPLS

>  <s_lp_Variant>  (1) 
Pocket2Mol_45_num_sample_50-1

>  <s_m_source_file>  (1) 
generated__ligand_Pocket2Mol_2026-05-06_prepared.sdf

>  <GenAI_Model>  (1) 
Pocket2Mol

>  <Protein>  (1) 
generic_title2

$$$$
Pocket2Mol_9_num_sample_50
     RDKit          3D

  0  0  0  0  0  0  0  0  0  0999 V3000
M  V30 BEGIN CTAB
M  V30 COUNTS 12 12 0 0 1
M  V30 BEGIN ATOM
M  V30 1 O 11.344014 8.104527 -9.839867 0
M  V30 2 C 10.225651 7.773358 -9.131098 0
M  V30 3 C 12.234975 8.569284 -8.927841 0
M  V30 4 C 10.389210 8.015372 -7.792274 0
M  V30 5 C 9.389322 7.781974 -6.691667 0
M  V30 6 C 11.707890 8.536848 -7.670760 0
M  V30 7 H 9.408273 7.384215 -9.723005 0
M  V30 8 H 13.186656 8.881650 -9.333063 0
M  V30 9 H 9.878857 7.766386 -5.718127 0
M  V30 10 H 8.635103 8.568718 -6.690337 0
M  V30 11 H 8.879435 6.828702 -6.836012 0
M  V30 12 H 12.210159 8.852072 -6.768414 0
M  V30 END ATOM
M  V30 BEGIN BOND
M  V30 1 1 2 1
M  V30 2 1 3 1
M  V30 3 2 4 2
M  V30 4 1 5 4
M  V30 5 2 6 3
M  V30 6 1 6 4
M  V30 7 1 7 2
M  V30 8 1 8 3
M  V30 9 1 9 5
M  V30 10 1 10 5
M  V30 11 1 11 5
M  V30 12 1 12 6
M  V30 END BOND
M  V30 END CTAB
M  END
>  <i_epik_Tot_Q>  (1) 
0

>  <i_epik_Tot_abs_Q>  (1) 
0

>  <i_i_glide_confnum>  (1) 
1

>  <i_i_glide_lignum>  (1) 
12

>  <i_i_glide_posenum>  (1) 
358

>  <i_i_glide_rotatable_bonds>  (1) 
0

>  <i_lp_mmshare_version>  (1) 
72125

>  <i_m_source_file_index>  (1) 
10

>  <i_f3d_flags>  (1) 
0

>  <num_sample>  (1) 
50

>  <b_lp_Chiralities_Consistent>  (1) 
1

>  <r_epik_Charging_Adjusted_Penalty>  (1) 
0

>  <r_epik_Ionization_Penalty>  (1) 
0

>  <r_epik_Ionization_Penalty_Charging>  (1) 
0

>  <r_epik_Ionization_Penalty_Neutral>  (1) 
0

>  <r_epik_State_Penalty>  (1) 
-0

>  <r_glide_ring_energy>  (1) 
0

>  <r_i_docking_score>  (1) 
-4.1185516650365042

>  <r_i_glide_ecoul>  (1) 
-1.2961703234723441

>  <r_i_glide_eff_state_penalty>  (1) 
-0

>  <r_i_glide_einternal>  (1) 
0

>  <r_i_glide_emodel>  (1) 
-18.346780681879302

>  <r_i_glide_emodel_strain>  (1) 
0

>  <r_i_glide_energy>  (1) 
-14.533613549729838

>  <r_i_glide_erotb>  (1) 
0

>  <r_i_glide_esite>  (1) 
0

>  <r_i_glide_evdw>  (1) 
-13.237443226257493

>  <r_i_glide_gscore>  (1) 
-4.1185516650365042

>  <r_i_glide_gscore_strain>  (1) 
0

>  <r_i_glide_hbond>  (1) 
0

>  <r_i_glide_ligand_efficiency>  (1) 
-0.68642527750608406

>  <r_i_glide_ligand_efficiency_ln>  (1) 
-1.475253047561192

>  <r_i_glide_ligand_efficiency_sa>  (1) 
-1.2473175071968214

>  <r_i_glide_lipo>  (1) 
-0.57892062186944471

>  <r_i_glide_metal>  (1) 
-0

>  <r_i_glide_rewards>  (1) 
-2.6833333333333336

>  <r_lp_Energy>  (1) 
-1.206345

>  <r_lp_tautomer_probability>  (1) 
1

>  <s_epik_cmdline>  (1) 
J2VwaWtfcHl0aG9uJywgJy1waHQnLCAnMS4wJywgJy1waCcsICc3LjQnLCAnLXRuJywgJzgnLCAnLW1hJywgJzUwMCcsICctaW1hZScsICc8aW5maWxlLm1hZT4nLCAnLW9tYWUnLCAnPG91dGZpbGUubWFlPic=

>  <s_epik_input>  (1) 
W2NIXTFbY0hdb1tjSF1jMVtDSDNd

>  <s_glide_docking_method>  (1) 
confgen

>  <s_i_glide_gridfile>  (1) 
gpcr_drd2_6luq_protein_autoprepared_prepared

>  <s_lp_Force_Field>  (1) 
S-OPLS

>  <s_lp_Variant>  (1) 
Pocket2Mol_9_num_sample_50-1

>  <s_m_source_file>  (1) 
generated__ligand_Pocket2Mol_2026-05-06_prepared.sdf

>  <GenAI_Model>  (1) 
Pocket2Mol

>  <Protein>  (1) 
generic_title2

$$$$
Pocket2Mol_43_num_sample_50
     RDKit          3D

  0  0  0  0  0  0  0  0  0  0999 V3000
M  V30 BEGIN CTAB
M  V30 COUNTS 8 8 0 0 1
M  V30 BEGIN ATOM
M  V30 1 N 12.642629 16.569301 -22.515029 0
M  V30 2 C 12.549499 17.819357 -21.891661 0
M  V30 3 C 11.434837 17.926312 -21.082450 0
M  V30 4 C 11.627998 15.769301 -22.212778 0
M  V30 5 S 10.484518 16.452834 -21.091667 0
M  V30 6 H 13.308421 18.566073 -22.076358 0
M  V30 7 H 11.118624 18.771977 -20.491205 0
M  V30 8 H 11.561629 14.778105 -22.639298 0
M  V30 END ATOM
M  V30 BEGIN BOND
M  V30 1 1 2 1
M  V30 2 2 3 2
M  V30 3 2 4 1
M  V30 4 1 5 3
M  V30 5 1 5 4
M  V30 6 1 6 2
M  V30 7 1 7 3
M  V30 8 1 8 4
M  V30 END BOND
M  V30 END CTAB
M  END
>  <i_epik_Tot_Q>  (1) 
0

>  <i_epik_Tot_abs_Q>  (1) 
0

>  <i_i_glide_confnum>  (1) 
1

>  <i_i_glide_lignum>  (1) 
48

>  <i_i_glide_posenum>  (1) 
265

>  <i_i_glide_rotatable_bonds>  (1) 
0

>  <i_lp_mmshare_version>  (1) 
72125

>  <i_m_source_file_index>  (1) 
44

>  <i_f3d_flags>  (1) 
0

>  <num_sample>  (1) 
50

>  <b_lp_Chiralities_Consistent>  (1) 
1

>  <r_epik_Charging_Adjusted_Penalty>  (1) 
0

>  <r_epik_Ionization_Penalty>  (1) 
1.4882382677604034e-05

>  <r_epik_Ionization_Penalty_Charging>  (1) 
0

>  <r_epik_Ionization_Penalty_Neutral>  (1) 
1.4882382677604034e-05

>  <r_epik_State_Penalty>  (1) 
-0

>  <r_glide_ring_energy>  (1) 
0

>  <r_i_docking_score>  (1) 
-4.1165387015398132

>  <r_i_glide_ecoul>  (1) 
0.25278229117189194

>  <r_i_glide_eff_state_penalty>  (1) 
-0

>  <r_i_glide_einternal>  (1) 
0

>  <r_i_glide_emodel>  (1) 
-19.518831439314944

>  <r_i_glide_emodel_strain>  (1) 
0

>  <r_i_glide_energy>  (1) 
-15.304412890525459

>  <r_i_glide_erotb>  (1) 
0

>  <r_i_glide_esite>  (1) 
0

>  <r_i_glide_evdw>  (1) 
-15.557195181697351

>  <r_i_glide_gscore>  (1) 
-4.1165387015398132

>  <r_i_glide_gscore_strain>  (1) 
0

>  <r_i_glide_hbond>  (1) 
0

>  <r_i_glide_ligand_efficiency>  (1) 
-0.82330774030796261

>  <r_i_glide_ligand_efficiency_ln>  (1) 
-1.577557634893056

>  <r_i_glide_ligand_efficiency_sa>  (1) 
-1.4078364326393606

>  <r_i_glide_lipo>  (1) 
-1.1265962861307288

>  <r_i_glide_metal>  (1) 
-0

>  <r_i_glide_rewards>  (1) 
-2.25

>  <r_lp_Energy>  (1) 
1.6688799999999999

>  <r_lp_tautomer_probability>  (1) 
1

>  <s_epik_cmdline>  (1) 
J2VwaWtfcHl0aG9uJywgJy1waHQnLCAnMS4wJywgJy1waCcsICc3LjQnLCAnLXRuJywgJzgnLCAnLW1hJywgJzUwMCcsICctaW1hZScsICc8aW5maWxlLm1hZT4nLCAnLW9tYWUnLCAnPG91dGZpbGUubWFlPic=

>  <s_epik_input>  (1) 
bjFbY0hdW2NIXXNbY0hdMQ==

>  <s_glide_docking_method>  (1) 
confgen

>  <s_i_glide_gridfile>  (1) 
gpcr_drd2_6luq_protein_autoprepared_prepared

>  <s_lp_Force_Field>  (1) 
S-OPLS

>  <s_lp_Variant>  (1) 
Pocket2Mol_43_num_sample_50-1

>  <s_m_source_file>  (1) 
generated__ligand_Pocket2Mol_2026-05-06_prepared.sdf

>  <GenAI_Model>  (1) 
Pocket2Mol

>  <Protein>  (1) 
generic_title2

$$$$
Pocket2Mol_45_num_sample_50
     RDKit          3D

  0  0  0  0  0  0  0  0  0  0999 V3000
M  V30 BEGIN CTAB
M  V30 COUNTS 13 13 0 0 1
M  V30 BEGIN ATOM
M  V30 1 O 11.107947 8.152381 -5.321258 0
M  V30 2 C 10.634839 6.969301 -5.965852 0
M  V30 3 C 10.381640 7.364305 -7.416625 0
M  V30 4 C 11.434842 9.147587 -6.291676 0
M  V30 5 C 11.434839 8.427520 -7.635697 0
M  V30 6 H 11.412237 6.207238 -5.910969 0
M  V30 7 H 9.742537 6.575118 -5.479522 0
M  V30 8 H 10.465455 6.524843 -8.106828 0
M  V30 9 H 9.385254 7.793556 -7.521784 0
M  V30 10 H 10.733132 9.981269 -6.265622 0
M  V30 11 H 12.428528 9.537349 -6.070829 0
M  V30 12 H 11.212658 9.089347 -8.472788 0
M  V30 13 H 12.405421 7.965142 -7.815352 0
M  V30 END ATOM
M  V30 BEGIN BOND
M  V30 1 1 2 1
M  V30 2 1 3 2
M  V30 3 1 4 1
M  V30 4 1 5 3
M  V30 5 1 5 4
M  V30 6 1 6 2
M  V30 7 1 7 2
M  V30 8 1 8 3
M  V30 9 1 9 3
M  V30 10 1 10 4
M  V30 11 1 11 4
M  V30 12 1 12 5
M  V30 13 1 13 5
M  V30 END BOND
M  V30 END CTAB
M  END
>  <i_epik_Tot_Q>  (1) 
0

>  <i_epik_Tot_abs_Q>  (1) 
0

>  <i_i_glide_confnum>  (1) 
3

>  <i_i_glide_lignum>  (1) 
51

>  <i_i_glide_posenum>  (1) 
190

>  <i_i_glide_rotatable_bonds>  (1) 
0

>  <i_lp_mmshare_version>  (1) 
72125

>  <i_m_source_file_index>  (1) 
46

>  <i_f3d_flags>  (1) 
0

>  <num_sample>  (1) 
50

>  <b_lp_Chiralities_Consistent>  (1) 
1

>  <r_epik_Charging_Adjusted_Penalty>  (1) 
0

>  <r_epik_Ionization_Penalty>  (1) 
1.3889264151150229e-11

>  <r_epik_Ionization_Penalty_Charging>  (1) 
0

>  <r_epik_Ionization_Penalty_Neutral>  (1) 
1.3889264151150229e-11

>  <r_epik_State_Penalty>  (1) 
-0

>  <r_glide_ring_energy>  (1) 
0.22161987042107956

>  <r_i_docking_score>  (1) 
-4.0876703278495539

>  <r_i_glide_ecoul>  (1) 
-0.70555493005562375

>  <r_i_glide_eff_state_penalty>  (1) 
-0

>  <r_i_glide_einternal>  (1) 
0

>  <r_i_glide_emodel>  (1) 
-16.454987159085238

>  <r_i_glide_emodel_strain>  (1) 
0

>  <r_i_glide_energy>  (1) 
-13.018537247573768

>  <r_i_glide_erotb>  (1) 
0

>  <r_i_glide_esite>  (1) 
0

>  <r_i_glide_evdw>  (1) 
-12.312982317518145

>  <r_i_glide_gscore>  (1) 
-4.0876703278495539

>  <r_i_glide_gscore_strain>  (1) 
0

>  <r_i_glide_hbond>  (1) 
0

>  <r_i_glide_ligand_efficiency>  (1) 
-0.81753406556991082

>  <r_i_glide_ligand_efficiency_ln>  (1) 
-1.5664945727858106

>  <r_i_glide_ligand_efficiency_sa>  (1) 
-1.3979635877133572

>  <r_i_glide_lipo>  (1) 
-0.80776932700541726

>  <r_i_glide_metal>  (1) 
-0

>  <r_i_glide_rewards>  (1) 
-2.5584186454598856

>  <r_lp_Energy>  (1) 
3.9173999999999998

>  <r_lp_tautomer_probability>  (1) 
1

>  <s_epik_cmdline>  (1) 
J2VwaWtfcHl0aG9uJywgJy1waHQnLCAnMS4wJywgJy1waCcsICc3LjQnLCAnLXRuJywgJzgnLCAnLW1hJywgJzUwMCcsICctaW1hZScsICc8aW5maWxlLm1hZT4nLCAnLW9tYWUnLCAnPG91dGZpbGUubWFlPic=

>  <s_epik_input>  (1) 
TzFbQ0gyXVtDSDJdW0NIMl1bQ0gyXTE=

>  <s_glide_docking_method>  (1) 
confgen

>  <s_i_glide_gridfile>  (1) 
gpcr_drd2_6luq_protein_autoprepared_prepared

>  <s_lp_Force_Field>  (1) 
S-OPLS

>  <s_lp_Variant>  (1) 
Pocket2Mol_45_num_sample_50-1

>  <s_m_source_file>  (1) 
generated__ligand_Pocket2Mol_2026-05-06_prepared.sdf

>  <GenAI_Model>  (1) 
Pocket2Mol

>  <Protein>  (1) 
generic_title2

$$$$
Pocket2Mol_4_num_sample_50
     RDKit          3D

  0  0  0  0  0  0  0  0  0  0999 V3000
M  V30 BEGIN CTAB
M  V30 COUNTS 16 16 0 0 1
M  V30 BEGIN ATOM
M  V30 1 C 10.840289 7.624326 -6.118750 0
M  V30 2 O 11.291537 8.763059 -6.847651 0
M  V30 3 C 11.639650 8.461915 -8.196642 0
M  V30 4 C 10.417085 7.916728 -8.954379 0
M  V30 5 C 9.834841 6.696739 -8.231663 0
M  V30 6 C 9.570587 7.050202 -6.764964 0
M  V30 7 H 11.625597 6.867969 -6.078445 0
M  V30 8 H 10.634841 7.924045 -5.091667 0
M  V30 9 H 12.000329 9.369301 -8.680205 0
M  V30 10 H 12.463012 7.747206 -8.216126 0
M  V30 11 H 9.653659 8.693260 -9.025062 0
M  V30 12 H 10.690004 7.654622 -9.976797 0
M  V30 13 H 8.911309 6.374140 -8.714278 0
M  V30 14 H 10.532594 5.860532 -8.291601 0
M  V30 15 H 9.231754 6.169305 -6.219529 0
M  V30 16 H 8.762600 7.781287 -6.703253 0
M  V30 END ATOM
M  V30 BEGIN BOND
M  V30 1 1 2 1
M  V30 2 1 3 2
M  V30 3 1 4 3
M  V30 4 1 5 4
M  V30 5 1 6 1
M  V30 6 1 6 5
M  V30 7 1 7 1
M  V30 8 1 8 1
M  V30 9 1 9 3
M  V30 10 1 10 3
M  V30 11 1 11 4
M  V30 12 1 12 4
M  V30 13 1 13 5
M  V30 14 1 14 5
M  V30 15 1 15 6
M  V30 16 1 16 6
M  V30 END BOND
M  V30 END CTAB
M  END
>  <i_epik_Tot_Q>  (1) 
0

>  <i_epik_Tot_abs_Q>  (1) 
0

>  <i_i_glide_confnum>  (1) 
1

>  <i_i_glide_lignum>  (1) 
5

>  <i_i_glide_posenum>  (1) 
329

>  <i_i_glide_rotatable_bonds>  (1) 
0

>  <i_lp_mmshare_version>  (1) 
72125

>  <i_m_source_file_index>  (1) 
5

>  <i_f3d_flags>  (1) 
0

>  <num_sample>  (1) 
50

>  <b_lp_Chiralities_Consistent>  (1) 
1

>  <r_epik_Charging_Adjusted_Penalty>  (1) 
0

>  <r_epik_Ionization_Penalty>  (1) 
1.5229185111393156e-11

>  <r_epik_Ionization_Penalty_Charging>  (1) 
0

>  <r_epik_Ionization_Penalty_Neutral>  (1) 
1.5229185111393156e-11

>  <r_epik_State_Penalty>  (1) 
-0

>  <r_glide_ring_energy>  (1) 
0

>  <r_i_docking_score>  (1) 
-4.0784003479812867

>  <r_i_glide_ecoul>  (1) 
-0.73502719584032117

>  <r_i_glide_eff_state_penalty>  (1) 
-0

>  <r_i_glide_einternal>  (1) 
0

>  <r_i_glide_emodel>  (1) 
-19.086984031712952

>  <r_i_glide_emodel_strain>  (1) 
0

>  <r_i_glide_energy>  (1) 
-15.215050459294462

>  <r_i_glide_erotb>  (1) 
0

>  <r_i_glide_esite>  (1) 
0

>  <r_i_glide_evdw>  (1) 
-14.480023263454141

>  <r_i_glide_gscore>  (1) 
-4.0784003479812867

>  <r_i_glide_gscore_strain>  (1) 
0

>  <r_i_glide_hbond>  (1) 
0

>  <r_i_glide_ligand_efficiency>  (1) 
-0.67973339133021449

>  <r_i_glide_ligand_efficiency_ln>  (1) 
-1.4608709643273812

>  <r_i_glide_ligand_efficiency_sa>  (1) 
-1.2351575430217603

>  <r_i_glide_lipo>  (1) 
-0.48581177209919862

>  <r_i_glide_metal>  (1) 
-0

>  <r_i_glide_rewards>  (1) 
-2.7583333333333333

>  <r_lp_Energy>  (1) 
2.9645999999999999

>  <r_lp_tautomer_probability>  (1) 
1

>  <s_epik_cmdline>  (1) 
J2VwaWtfcHl0aG9uJywgJy1waHQnLCAnMS4wJywgJy1waCcsICc3LjQnLCAnLXRuJywgJzgnLCAnLW1hJywgJzUwMCcsICctaW1hZScsICc8aW5maWxlLm1hZT4nLCAnLW9tYWUnLCAnPG91dGZpbGUubWFlPic=

>  <s_epik_input>  (1) 
W0NIMl0xT1tDSDJdW0NIMl1bQ0gyXVtDSDJdMQ==

>  <s_glide_docking_method>  (1) 
confgen

>  <s_i_glide_gridfile>  (1) 
gpcr_drd2_6luq_protein_autoprepared_prepared

>  <s_lp_Force_Field>  (1) 
S-OPLS

>  <s_lp_Variant>  (1) 
Pocket2Mol_4_num_sample_50-1

>  <s_m_source_file>  (1) 
generated__ligand_Pocket2Mol_2026-05-06_prepared.sdf

>  <GenAI_Model>  (1) 
Pocket2Mol

>  <Protein>  (1) 
generic_title2

$$$$
Pocket2Mol_4_num_sample_50
     RDKit          3D

  0  0  0  0  0  0  0  0  0  0999 V3000
M  V30 BEGIN CTAB
M  V30 COUNTS 16 16 0 0 1
M  V30 BEGIN ATOM
M  V30 1 C 10.070826 7.369300 -9.841239 0
M  V30 2 O 11.446171 7.704942 -10.009628 0
M  V30 3 C 11.887099 8.713076 -9.107316 0
M  V30 4 C 11.737721 8.230636 -7.655254 0
M  V30 5 C 10.290842 7.812022 -7.370295 0
M  V30 6 C 9.834839 6.804036 -8.430001 0
M  V30 7 H 9.445411 8.246458 -10.016575 0
M  V30 8 H 9.793501 6.628442 -10.591278 0
M  V30 9 H 12.932226 8.939447 -9.319173 0
M  V30 10 H 11.327081 9.633717 -9.274043 0
M  V30 11 H 12.399838 7.380252 -7.491668 0
M  V30 12 H 12.050251 9.012061 -6.962294 0
M  V30 13 H 10.202626 7.381081 -6.372454 0
M  V30 14 H 9.638432 8.686219 -7.394288 0
M  V30 15 H 8.778174 6.569300 -8.291666 0
M  V30 16 H 10.382725 5.868188 -8.313099 0
M  V30 END ATOM
M  V30 BEGIN BOND
M  V30 1 1 2 1
M  V30 2 1 3 2
M  V30 3 1 4 3
M  V30 4 1 5 4
M  V30 5 1 6 1
M  V30 6 1 6 5
M  V30 7 1 7 1
M  V30 8 1 8 1
M  V30 9 1 9 3
M  V30 10 1 10 3
M  V30 11 1 11 4
M  V30 12 1 12 4
M  V30 13 1 13 5
M  V30 14 1 14 5
M  V30 15 1 15 6
M  V30 16 1 16 6
M  V30 END BOND
M  V30 END CTAB
M  END
>  <i_epik_Tot_Q>  (1) 
0

>  <i_epik_Tot_abs_Q>  (1) 
0

>  <i_i_glide_confnum>  (1) 
1

>  <i_i_glide_lignum>  (1) 
5

>  <i_i_glide_posenum>  (1) 
127

>  <i_i_glide_rotatable_bonds>  (1) 
0

>  <i_lp_mmshare_version>  (1) 
72125

>  <i_m_source_file_index>  (1) 
5

>  <i_f3d_flags>  (1) 
0

>  <num_sample>  (1) 
50

>  <b_lp_Chiralities_Consistent>  (1) 
1

>  <r_epik_Charging_Adjusted_Penalty>  (1) 
0

>  <r_epik_Ionization_Penalty>  (1) 
1.5229185111393156e-11

>  <r_epik_Ionization_Penalty_Charging>  (1) 
0

>  <r_epik_Ionization_Penalty_Neutral>  (1) 
1.5229185111393156e-11

>  <r_epik_State_Penalty>  (1) 
-0

>  <r_glide_ring_energy>  (1) 
0

>  <r_i_docking_score>  (1) 
-4.0778593631005586

>  <r_i_glide_ecoul>  (1) 
-1.0181690863359318

>  <r_i_glide_eff_state_penalty>  (1) 
-0

>  <r_i_glide_einternal>  (1) 
0

>  <r_i_glide_emodel>  (1) 
-18.396058545853823

>  <r_i_glide_emodel_strain>  (1) 
0

>  <r_i_glide_energy>  (1) 
-14.524638571253872

>  <r_i_glide_erotb>  (1) 
0

>  <r_i_glide_esite>  (1) 
0

>  <r_i_glide_evdw>  (1) 
-13.50646948491794

>  <r_i_glide_gscore>  (1) 
-4.0778593631005586

>  <r_i_glide_gscore_strain>  (1) 
0

>  <r_i_glide_hbond>  (1) 
0

>  <r_i_glide_ligand_efficiency>  (1) 
-0.6796432271834264

>  <r_i_glide_ligand_efficiency_ln>  (1) 
-1.4606771851402087

>  <r_i_glide_ligand_efficiency_sa>  (1) 
-1.2349937038938965

>  <r_i_glide_lipo>  (1) 
-0.53334540170861677

>  <r_i_glide_metal>  (1) 
-0

>  <r_i_glide_rewards>  (1) 
-2.7164651241956554

>  <r_lp_Energy>  (1) 
2.9645999999999999

>  <r_lp_tautomer_probability>  (1) 
1

>  <s_epik_cmdline>  (1) 
J2VwaWtfcHl0aG9uJywgJy1waHQnLCAnMS4wJywgJy1waCcsICc3LjQnLCAnLXRuJywgJzgnLCAnLW1hJywgJzUwMCcsICctaW1hZScsICc8aW5maWxlLm1hZT4nLCAnLW9tYWUnLCAnPG91dGZpbGUubWFlPic=

>  <s_epik_input>  (1) 
W0NIMl0xT1tDSDJdW0NIMl1bQ0gyXVtDSDJdMQ==

>  <s_glide_docking_method>  (1) 
confgen

>  <s_i_glide_gridfile>  (1) 
gpcr_drd2_6luq_protein_autoprepared_prepared

>  <s_lp_Force_Field>  (1) 
S-OPLS

>  <s_lp_Variant>  (1) 
Pocket2Mol_4_num_sample_50-1

>  <s_m_source_file>  (1) 
generated__ligand_Pocket2Mol_2026-05-06_prepared.sdf

>  <GenAI_Model>  (1) 
Pocket2Mol

>  <Protein>  (1) 
generic_title2

$$$$
Pocket2Mol_5_num_sample_50
     RDKit          3D

  0  0  0  0  0  0  0  0  0  0999 V3000
M  V30 BEGIN CTAB
M  V30 COUNTS 14 14 0 0 1
M  V30 BEGIN ATOM
M  V30 1 C 9.851574 7.605454 -9.250963 0
M  V30 2 O 11.226785 7.520517 -9.608798 0
M  V30 3 C 9.712460 7.519516 -7.718932 0
M  V30 4 O 10.464267 8.569301 -7.122191 0
M  V30 5 C 11.976188 8.569300 -9.011563 0
M  V30 6 C 11.834837 8.475743 -7.481893 0
M  V30 7 H 9.426763 8.538343 -9.624520 0
M  V30 8 H 9.305192 6.791158 -9.727129 0
M  V30 9 H 8.667221 7.620117 -7.425490 0
M  V30 10 H 10.054023 6.550535 -7.351582 0
M  V30 11 H 13.022124 8.471370 -9.303212 0
M  V30 12 H 11.630683 9.537417 -9.377930 0
M  V30 13 H 12.234839 7.530728 -7.114782 0
M  V30 14 H 12.390087 9.278365 -6.996372 0
M  V30 END ATOM
M  V30 BEGIN BOND
M  V30 1 1 2 1
M  V30 2 1 3 1
M  V30 3 1 4 3
M  V30 4 1 5 2
M  V30 5 1 6 4
M  V30 6 1 6 5
M  V30 7 1 7 1
M  V30 8 1 8 1
M  V30 9 1 9 3
M  V30 10 1 10 3
M  V30 11 1 11 5
M  V30 12 1 12 5
M  V30 13 1 13 6
M  V30 14 1 14 6
M  V30 END BOND
M  V30 END CTAB
M  END
>  <i_epik_Tot_Q>  (1) 
0

>  <i_epik_Tot_abs_Q>  (1) 
0

>  <i_i_glide_confnum>  (1) 
2

>  <i_i_glide_lignum>  (1) 
6

>  <i_i_glide_posenum>  (1) 
120

>  <i_i_glide_rotatable_bonds>  (1) 
0

>  <i_lp_mmshare_version>  (1) 
72125

>  <i_m_source_file_index>  (1) 
6

>  <i_f3d_flags>  (1) 
0

>  <num_sample>  (1) 
50

>  <b_lp_Chiralities_Consistent>  (1) 
1

>  <r_epik_Charging_Adjusted_Penalty>  (1) 
0

>  <r_epik_Ionization_Penalty>  (1) 
8.3894707547109138e-13

>  <r_epik_Ionization_Penalty_Charging>  (1) 
0

>  <r_epik_Ionization_Penalty_Neutral>  (1) 
8.3894707547109138e-13

>  <r_epik_State_Penalty>  (1) 
-0

>  <r_glide_ring_energy>  (1) 
0.00013676017923054334

>  <r_i_docking_score>  (1) 
-4.0761199545552094

>  <r_i_glide_ecoul>  (1) 
-1.3660020894008533

>  <r_i_glide_eff_state_penalty>  (1) 
-0

>  <r_i_glide_einternal>  (1) 
0

>  <r_i_glide_emodel>  (1) 
-17.519519797377562

>  <r_i_glide_emodel_strain>  (1) 
0

>  <r_i_glide_energy>  (1) 
-13.831769123124573

>  <r_i_glide_erotb>  (1) 
0

>  <r_i_glide_esite>  (1) 
0

>  <r_i_glide_evdw>  (1) 
-12.46576703372372

>  <r_i_glide_gscore>  (1) 
-4.0761199545552094

>  <r_i_glide_gscore_strain>  (1) 
0

>  <r_i_glide_hbond>  (1) 
0

>  <r_i_glide_ligand_efficiency>  (1) 
-0.6793533257592016

>  <r_i_glide_ligand_efficiency_ln>  (1) 
-1.4600541341343747

>  <r_i_glide_ligand_efficiency_sa>  (1) 
-1.2344669180460461

>  <r_i_glide_lipo>  (1) 
-0.56459795612556218

>  <r_i_glide_metal>  (1) 
-0

>  <r_i_glide_rewards>  (1) 
-2.6833333333333336

>  <r_lp_Energy>  (1) 
4.9648199999999996

>  <r_lp_tautomer_probability>  (1) 
1

>  <s_epik_cmdline>  (1) 
J2VwaWtfcHl0aG9uJywgJy1waHQnLCAnMS4wJywgJy1waCcsICc3LjQnLCAnLXRuJywgJzgnLCAnLW1hJywgJzUwMCcsICctaW1hZScsICc8aW5maWxlLm1hZT4nLCAnLW9tYWUnLCAnPG91dGZpbGUubWFlPic=

>  <s_epik_input>  (1) 
W0NIMl0xT1tDSDJdW0NIMl1PW0NIMl0x

>  <s_glide_docking_method>  (1) 
confgen

>  <s_i_glide_gridfile>  (1) 
gpcr_drd2_6luq_protein_autoprepared_prepared

>  <s_lp_Force_Field>  (1) 
S-OPLS

>  <s_lp_Variant>  (1) 
Pocket2Mol_5_num_sample_50-1

>  <s_m_source_file>  (1) 
generated__ligand_Pocket2Mol_2026-05-06_prepared.sdf

>  <GenAI_Model>  (1) 
Pocket2Mol

>  <Protein>  (1) 
generic_title2

$$$$
Pocket2Mol_46_num_sample_50
     RDKit          3D

  0  0  0  0  0  0  0  0  0  0999 V3000
M  V30 BEGIN CTAB
M  V30 COUNTS 8 8 0 0 1
M  V30 BEGIN ATOM
M  V30 1 N 11.834839 6.766038 -3.384890 0
M  V30 2 C 11.834841 7.917736 -4.257698 0
M  V30 3 C 12.228290 8.968987 -3.641484 0
M  V30 4 C 12.476756 8.568121 -2.409630 0
M  V30 5 C 12.234878 7.279395 -2.291993 0
M  V30 6 H 11.524626 7.832664 -5.290040 0
M  V30 7 H 12.314843 9.967909 -4.038384 0
M  V30 8 H 12.655500 9.245293 -1.588473 0
M  V30 END ATOM
M  V30 BEGIN BOND
M  V30 1 1 2 1
M  V30 2 2 3 2
M  V30 3 1 4 3
M  V30 4 2 5 1
M  V30 5 2 5 4
M  V30 6 1 6 2
M  V30 7 1 7 3
M  V30 8 1 8 4
M  V30 END BOND
M  V30 END CTAB
M  END
>  <i_epik_Tot_Q>  (1) 
0

>  <i_epik_Tot_abs_Q>  (1) 
0

>  <i_i_glide_confnum>  (1) 
1

>  <i_i_glide_lignum>  (1) 
52

>  <i_i_glide_posenum>  (1) 
121

>  <i_i_glide_rotatable_bonds>  (1) 
0

>  <i_lp_mmshare_version>  (1) 
72125

>  <i_m_source_file_index>  (1) 
47

>  <i_f3d_flags>  (1) 
0

>  <num_sample>  (1) 
50

>  <b_lp_Chiralities_Consistent>  (1) 
1

>  <r_epik_Charging_Adjusted_Penalty>  (1) 
0

>  <r_epik_Ionization_Penalty>  (1) 
0

>  <r_epik_Ionization_Penalty_Charging>  (1) 
0

>  <r_epik_Ionization_Penalty_Neutral>  (1) 
0

>  <r_epik_State_Penalty>  (1) 
-0

>  <r_glide_ring_energy>  (1) 
0

>  <r_i_docking_score>  (1) 
-4.0670326216774892

>  <r_i_glide_ecoul>  (1) 
0.11469054731837555

>  <r_i_glide_eff_state_penalty>  (1) 
-0

>  <r_i_glide_einternal>  (1) 
0

>  <r_i_glide_emodel>  (1) 
-16.849772422958161

>  <r_i_glide_emodel_strain>  (1) 
0

>  <r_i_glide_energy>  (1) 
-13.168595903242855

>  <r_i_glide_erotb>  (1) 
0

>  <r_i_glide_esite>  (1) 
0

>  <r_i_glide_evdw>  (1) 
-13.28328645056123

>  <r_i_glide_gscore>  (1) 
-4.0670326216774892

>  <r_i_glide_gscore_strain>  (1) 
0

>  <r_i_glide_hbond>  (1) 
0

>  <r_i_glide_ligand_efficiency>  (1) 
-0.81340652433549787

>  <r_i_glide_ligand_efficiency_ln>  (1) 
-1.5585857024219192

>  <r_i_glide_ligand_efficiency_sa>  (1) 
-1.3909055914835946

>  <r_i_glide_lipo>  (1) 
-1.0417230593507982

>  <r_i_glide_metal>  (1) 
-0

>  <r_i_glide_rewards>  (1) 
-2.3783488218963855

>  <r_lp_Energy>  (1) 
4.860805

>  <r_lp_tautomer_probability>  (1) 
1

>  <s_epik_Chemistry_Notes>  (1) 
This compound has an imine and may undergo hydrolysis.

>  <s_epik_cmdline>  (1) 
J2VwaWtfcHl0aG9uJywgJy1waHQnLCAnMS4wJywgJy1waCcsICc3LjQnLCAnLXRuJywgJzgnLCAnLW1hJywgJzUwMCcsICctaW1hZScsICc8aW5maWxlLm1hZT4nLCAnLW9tYWUnLCAnPG91dGZpbGUubWFlPic=

>  <s_epik_input>  (1) 
TjE9Qz1bQ0hdW0NIXT1bQ0hdMQ==

>  <s_glide_docking_method>  (1) 
confgen

>  <s_i_glide_gridfile>  (1) 
gpcr_drd2_6luq_protein_autoprepared_prepared

>  <s_lp_Force_Field>  (1) 
S-OPLS

>  <s_lp_Variant>  (1) 
Pocket2Mol_46_num_sample_50-1

>  <s_m_source_file>  (1) 
generated__ligand_Pocket2Mol_2026-05-06_prepared.sdf

>  <GenAI_Model>  (1) 
Pocket2Mol

>  <Protein>  (1) 
generic_title2

$$$$
Pocket2Mol_4_num_sample_50
     RDKit          3D

  0  0  0  0  0  0  0  0  0  0999 V3000
M  V30 BEGIN CTAB
M  V30 COUNTS 16 16 0 0 1
M  V30 BEGIN ATOM
M  V30 1 C 11.416581 8.808082 -6.625889 0
M  V30 2 O 11.034881 7.631657 -5.919728 0
M  V30 3 C 9.834839 7.047036 -6.418055 0
M  V30 4 C 10.017022 6.616883 -7.881625 0
M  V30 5 C 10.464013 7.807673 -8.736933 0
M  V30 6 C 11.692022 8.469720 -8.101055 0
M  V30 7 H 10.634833 9.562600 -6.535144 0
M  V30 8 H 12.311453 9.224449 -6.163160 0
M  V30 9 H 9.583095 6.181978 -5.804291 0
M  V30 10 H 9.007839 7.753051 -6.322954 0
M  V30 11 H 10.759113 5.819718 -7.936494 0
M  V30 12 H 9.083761 6.206485 -8.269940 0
M  V30 13 H 10.685565 7.484133 -9.754293 0
M  V30 14 H 9.648631 8.529744 -8.808413 0
M  V30 15 H 11.960860 9.369301 -8.654666 0
M  V30 16 H 12.547114 7.795695 -8.164434 0
M  V30 END ATOM
M  V30 BEGIN BOND
M  V30 1 1 2 1
M  V30 2 1 3 2
M  V30 3 1 4 3
M  V30 4 1 5 4
M  V30 5 1 6 1
M  V30 6 1 6 5
M  V30 7 1 7 1
M  V30 8 1 8 1
M  V30 9 1 9 3
M  V30 10 1 10 3
M  V30 11 1 11 4
M  V30 12 1 12 4
M  V30 13 1 13 5
M  V30 14 1 14 5
M  V30 15 1 15 6
M  V30 16 1 16 6
M  V30 END BOND
M  V30 END CTAB
M  END
>  <i_epik_Tot_Q>  (1) 
0

>  <i_epik_Tot_abs_Q>  (1) 
0

>  <i_i_glide_confnum>  (1) 
1

>  <i_i_glide_lignum>  (1) 
5

>  <i_i_glide_posenum>  (1) 
365

>  <i_i_glide_rotatable_bonds>  (1) 
0

>  <i_lp_mmshare_version>  (1) 
72125

>  <i_m_source_file_index>  (1) 
5

>  <i_f3d_flags>  (1) 
0

>  <num_sample>  (1) 
50

>  <b_lp_Chiralities_Consistent>  (1) 
1

>  <r_epik_Charging_Adjusted_Penalty>  (1) 
0

>  <r_epik_Ionization_Penalty>  (1) 
1.5229185111393156e-11

>  <r_epik_Ionization_Penalty_Charging>  (1) 
0

>  <r_epik_Ionization_Penalty_Neutral>  (1) 
1.5229185111393156e-11

>  <r_epik_State_Penalty>  (1) 
-0

>  <r_glide_ring_energy>  (1) 
0

>  <r_i_docking_score>  (1) 
-4.0589187082263951

>  <r_i_glide_ecoul>  (1) 
-0.47220356671525154

>  <r_i_glide_eff_state_penalty>  (1) 
-0

>  <r_i_glide_einternal>  (1) 
0

>  <r_i_glide_emodel>  (1) 
-18.79909370237996

>  <r_i_glide_emodel_strain>  (1) 
0

>  <r_i_glide_energy>  (1) 
-14.945655522413576

>  <r_i_glide_erotb>  (1) 
0

>  <r_i_glide_esite>  (1) 
0

>  <r_i_glide_evdw>  (1) 
-14.473451955698325

>  <r_i_glide_gscore>  (1) 
-4.0589187082263951

>  <r_i_glide_gscore_strain>  (1) 
0

>  <r_i_glide_hbond>  (1) 
0

>  <r_i_glide_ligand_efficiency>  (1) 
-0.67648645137106589

>  <r_i_glide_ligand_efficiency_ln>  (1) 
-1.4538926984811913

>  <r_i_glide_ligand_efficiency_sa>  (1) 
-1.2292574615583018

>  <r_i_glide_lipo>  (1) 
-0.57274890876752427

>  <r_i_glide_metal>  (1) 
-0

>  <r_i_glide_rewards>  (1) 
-2.6916666666666664

>  <r_lp_Energy>  (1) 
2.9645999999999999

>  <r_lp_tautomer_probability>  (1) 
1

>  <s_epik_cmdline>  (1) 
J2VwaWtfcHl0aG9uJywgJy1waHQnLCAnMS4wJywgJy1waCcsICc3LjQnLCAnLXRuJywgJzgnLCAnLW1hJywgJzUwMCcsICctaW1hZScsICc8aW5maWxlLm1hZT4nLCAnLW9tYWUnLCAnPG91dGZpbGUubWFlPic=

>  <s_epik_input>  (1) 
W0NIMl0xT1tDSDJdW0NIMl1bQ0gyXVtDSDJdMQ==

>  <s_glide_docking_method>  (1) 
confgen

>  <s_i_glide_gridfile>  (1) 
gpcr_drd2_6luq_protein_autoprepared_prepared

>  <s_lp_Force_Field>  (1) 
S-OPLS

>  <s_lp_Variant>  (1) 
Pocket2Mol_4_num_sample_50-1

>  <s_m_source_file>  (1) 
generated__ligand_Pocket2Mol_2026-05-06_prepared.sdf

>  <GenAI_Model>  (1) 
Pocket2Mol

>  <Protein>  (1) 
generic_title2

$$$$
Pocket2Mol_3_num_sample_50
     RDKit          3D

  0  0  0  0  0  0  0  0  0  0999 V3000
M  V30 BEGIN CTAB
M  V30 COUNTS 9 9 0 0 1
M  V30 BEGIN ATOM
M  V30 1 N 9.822540 8.022252 -8.548673 0
M  V30 2 C 10.739505 8.169293 -9.544512 0
M  V30 3 C 11.913700 8.527133 -8.956389 0
M  V30 4 C 11.592091 8.569241 -7.559589 0
M  V30 5 N 10.315075 8.258634 -7.319076 0
M  V30 6 H 8.844151 7.769297 -8.691665 0
M  V30 7 H 10.484560 8.012583 -10.582443 0
M  V30 8 H 12.857697 8.731037 -9.440692 0
M  V30 9 H 12.235240 8.812703 -6.727120 0
M  V30 END ATOM
M  V30 BEGIN BOND
M  V30 1 1 2 1
M  V30 2 2 3 2
M  V30 3 1 4 3
M  V30 4 1 5 1
M  V30 5 2 5 4
M  V30 6 1 6 1
M  V30 7 1 7 2
M  V30 8 1 8 3
M  V30 9 1 9 4
M  V30 END BOND
M  V30 END CTAB
M  END
>  <i_epik_Tot_Q>  (1) 
0

>  <i_epik_Tot_abs_Q>  (1) 
0

>  <i_i_glide_confnum>  (1) 
1

>  <i_i_glide_lignum>  (1) 
4

>  <i_i_glide_posenum>  (1) 
390

>  <i_i_glide_rotatable_bonds>  (1) 
0

>  <i_lp_mmshare_version>  (1) 
72125

>  <i_m_source_file_index>  (1) 
4

>  <i_f3d_flags>  (1) 
0

>  <num_sample>  (1) 
50

>  <b_lp_Chiralities_Consistent>  (1) 
1

>  <r_epik_Charging_Adjusted_Penalty>  (1) 
0

>  <r_epik_Ionization_Penalty>  (1) 
1.0045315435319e-05

>  <r_epik_Ionization_Penalty_Charging>  (1) 
0

>  <r_epik_Ionization_Penalty_Neutral>  (1) 
1.0045315435319e-05

>  <r_epik_State_Penalty>  (1) 
-0

>  <r_glide_ring_energy>  (1) 
0

>  <r_i_docking_score>  (1) 
-4.0541482533288811

>  <r_i_glide_ecoul>  (1) 
-2.7559052924554011

>  <r_i_glide_eff_state_penalty>  (1) 
-0

>  <r_i_glide_einternal>  (1) 
0

>  <r_i_glide_emodel>  (1) 
-18.804248855817448

>  <r_i_glide_emodel_strain>  (1) 
0

>  <r_i_glide_energy>  (1) 
-13.968712478589143

>  <r_i_glide_erotb>  (1) 
0

>  <r_i_glide_esite>  (1) 
-0.096636266447197902

>  <r_i_glide_evdw>  (1) 
-11.212807186133743

>  <r_i_glide_gscore>  (1) 
-4.0541482533288811

>  <r_i_glide_gscore_strain>  (1) 
0

>  <r_i_glide_hbond>  (1) 
-0.16

>  <r_i_glide_ligand_efficiency>  (1) 
-0.81082965066577617

>  <r_i_glide_ligand_efficiency_ln>  (1) 
-1.553648099466427

>  <r_i_glide_ligand_efficiency_sa>  (1) 
-1.3864991994907463

>  <r_i_glide_lipo>  (1) 
-0.57348583370668604

>  <r_i_glide_metal>  (1) 
-0

>  <r_i_glide_rewards>  (1) 
-2.25

>  <r_lp_Energy>  (1) 
2.3130189999999997

>  <r_lp_tautomer_probability>  (1) 
1

>  <s_epik_cmdline>  (1) 
J2VwaWtfcHl0aG9uJywgJy1waHQnLCAnMS4wJywgJy1waCcsICc3LjQnLCAnLXRuJywgJzgnLCAnLW1hJywgJzUwMCcsICctaW1hZScsICc8aW5maWxlLm1hZT4nLCAnLW9tYWUnLCAnPG91dGZpbGUubWFlPic=

>  <s_epik_input>  (1) 
W25IXTFbY0hdW2NIXVtjSF1uMQ==

>  <s_glide_docking_method>  (1) 
confgen

>  <s_i_glide_gridfile>  (1) 
gpcr_drd2_6luq_protein_autoprepared_prepared

>  <s_lp_Force_Field>  (1) 
S-OPLS

>  <s_lp_Variant>  (1) 
Pocket2Mol_3_num_sample_50-1

>  <s_m_source_file>  (1) 
generated__ligand_Pocket2Mol_2026-05-06_prepared.sdf

>  <GenAI_Model>  (1) 
Pocket2Mol

>  <Protein>  (1) 
generic_title2

$$$$
Pocket2Mol_8_num_sample_50
     RDKit          3D

  0  0  0  0  0  0  0  0  0  0999 V3000
M  V30 BEGIN CTAB
M  V30 COUNTS 13 13 0 0 1
M  V30 BEGIN ATOM
M  V30 1 N 11.513940 8.244712 -9.357487 0 CHG=1
M  V30 2 C 11.388512 8.164525 -7.995953 0
M  V30 3 C 10.056074 7.952001 -7.730347 0
M  V30 4 C 10.322693 8.091456 -9.937414 0
M  V30 5 C 9.316227 7.783010 -6.448227 0
M  V30 6 N 9.445331 7.913805 -8.954665 0
M  V30 7 H 12.232832 8.261552 -7.329292 0
M  V30 8 H 10.114187 8.107833 -10.995108 0
M  V30 9 H 10.001584 7.847919 -5.602473 0
M  V30 10 H 8.560300 8.561454 -6.340552 0
M  V30 11 H 8.823764 6.810440 -6.419459 0
M  V30 12 H 8.435575 7.769306 -9.093721 0
M  V30 13 H 12.385287 8.398281 -9.852212 0
M  V30 END ATOM
M  V30 BEGIN BOND
M  V30 1 1 2 1
M  V30 2 2 3 2
M  V30 3 2 4 1
M  V30 4 1 5 3
M  V30 5 1 6 3
M  V30 6 1 6 4
M  V30 7 1 7 2
M  V30 8 1 8 4
M  V30 9 1 9 5
M  V30 10 1 10 5
M  V30 11 1 11 5
M  V30 12 1 12 6
M  V30 13 1 13 1
M  V30 END BOND
M  V30 END CTAB
M  END
>  <i_epik_Tot_Q>  (1) 
1

>  <i_epik_Tot_abs_Q>  (1) 
1

>  <i_i_glide_confnum>  (1) 
1

>  <i_i_glide_lignum>  (1) 
10

>  <i_i_glide_posenum>  (1) 
383

>  <i_i_glide_rotatable_bonds>  (1) 
0

>  <i_lp_mmshare_version>  (1) 
72125

>  <i_m_source_file_index>  (1) 
9

>  <i_f3d_flags>  (1) 
0

>  <num_sample>  (1) 
50

>  <b_lp_Chiralities_Consistent>  (1) 
1

>  <r_epik_Charging_Adjusted_Penalty>  (1) 
0.63910500234431922

>  <r_epik_Ionization_Penalty>  (1) 
0.82018112513013652

>  <r_epik_Ionization_Penalty_Charging>  (1) 
0

>  <r_epik_Ionization_Penalty_Neutral>  (1) 
0.82018112513013652

>  <r_epik_State_Penalty>  (1) 
0.63910500234431922

>  <r_glide_ring_energy>  (1) 
0

>  <r_i_docking_score>  (1) 
-4.0531373717677539

>  <r_i_glide_ecoul>  (1) 
-9.5797719625954159

>  <r_i_glide_eff_state_penalty>  (1) 
0.63910500234431922

>  <r_i_glide_einternal>  (1) 
0

>  <r_i_glide_emodel>  (1) 
-27.722695913039171

>  <r_i_glide_emodel_strain>  (1) 
0

>  <r_i_glide_energy>  (1) 
-18.820998499430161

>  <r_i_glide_erotb>  (1) 
0

>  <r_i_glide_esite>  (1) 
-0.14543012699710775

>  <r_i_glide_evdw>  (1) 
-9.2412265368347466

>  <r_i_glide_gscore>  (1) 
-4.6922423741120731

>  <r_i_glide_gscore_strain>  (1) 
0

>  <r_i_glide_hbond>  (1) 
-0.19303641588500681

>  <r_i_glide_ligand_efficiency>  (1) 
-0.67552289529462561

>  <r_i_glide_ligand_efficiency_ln>  (1) 
-1.451821840829461

>  <r_i_glide_ligand_efficiency_sa>  (1) 
-1.2275065639694538

>  <r_i_glide_lipo>  (1) 
-0.2047487099989089

>  <r_i_glide_metal>  (1) 
-0

>  <r_i_glide_rewards>  (1) 
-2.25

>  <r_lp_Energy>  (1) 
7.4764169999999996

>  <r_lp_tautomer_probability>  (1) 
1

>  <s_epik_cmdline>  (1) 
J2VwaWtfcHl0aG9uJywgJy1waHQnLCAnMS4wJywgJy1waCcsICc3LjQnLCAnLXRuJywgJzgnLCAnLW1hJywgJzUwMCcsICctaW1hZScsICc8aW5maWxlLm1hZT4nLCAnLW9tYWUnLCAnPG91dGZpbGUubWFlPic=

>  <s_epik_input>  (1) 
W25IXTFbY0hdbltjSF1jMVtDSDNd

>  <s_glide_docking_method>  (1) 
confgen

>  <s_i_glide_gridfile>  (1) 
gpcr_drd2_6luq_protein_autoprepared_prepared

>  <s_lp_Force_Field>  (1) 
S-OPLS

>  <s_lp_Variant>  (1) 
Pocket2Mol_8_num_sample_50-2

>  <s_m_source_file>  (1) 
generated__ligand_Pocket2Mol_2026-05-06_prepared.sdf

>  <GenAI_Model>  (1) 
Pocket2Mol

>  <Protein>  (1) 
generic_title2

$$$$
Pocket2Mol_5_num_sample_50
     RDKit          3D

  0  0  0  0  0  0  0  0  0  0999 V3000
M  V30 BEGIN CTAB
M  V30 COUNTS 14 14 0 0 1
M  V30 BEGIN ATOM
M  V30 1 C 11.567615 8.569297 -7.532201 0
M  V30 2 O 10.801487 8.337344 -6.356283 0
M  V30 3 C 10.741872 8.169290 -8.768450 0
M  V30 4 O 10.383440 6.798781 -8.657272 0
M  V30 5 C 10.422537 6.969309 -6.253872 0
M  V30 6 C 9.600045 6.569336 -7.492121 0
M  V30 7 H 11.834843 9.624551 -7.578363 0
M  V30 8 H 12.500180 8.004501 -7.491690 0
M  V30 9 H 9.847216 8.787922 -8.859497 0
M  V30 10 H 11.325684 8.313433 -9.677724 0
M  V30 11 H 11.308622 6.339143 -6.160382 0
M  V30 12 H 9.834839 6.827486 -5.347379 0
M  V30 13 H 9.331028 5.513971 -7.446866 0
M  V30 14 H 8.667793 7.134546 -7.539774 0
M  V30 END ATOM
M  V30 BEGIN BOND
M  V30 1 1 2 1
M  V30 2 1 3 1
M  V30 3 1 4 3
M  V30 4 1 5 2
M  V30 5 1 6 4
M  V30 6 1 6 5
M  V30 7 1 7 1
M  V30 8 1 8 1
M  V30 9 1 9 3
M  V30 10 1 10 3
M  V30 11 1 11 5
M  V30 12 1 12 5
M  V30 13 1 13 6
M  V30 14 1 14 6
M  V30 END BOND
M  V30 END CTAB
M  END
>  <i_epik_Tot_Q>  (1) 
0

>  <i_epik_Tot_abs_Q>  (1) 
0

>  <i_i_glide_confnum>  (1) 
1

>  <i_i_glide_lignum>  (1) 
6

>  <i_i_glide_posenum>  (1) 
34

>  <i_i_glide_rotatable_bonds>  (1) 
0

>  <i_lp_mmshare_version>  (1) 
72125

>  <i_m_source_file_index>  (1) 
6

>  <i_f3d_flags>  (1) 
0

>  <num_sample>  (1) 
50

>  <b_lp_Chiralities_Consistent>  (1) 
1

>  <r_epik_Charging_Adjusted_Penalty>  (1) 
0

>  <r_epik_Ionization_Penalty>  (1) 
8.3894707547109138e-13

>  <r_epik_Ionization_Penalty_Charging>  (1) 
0

>  <r_epik_Ionization_Penalty_Neutral>  (1) 
8.3894707547109138e-13

>  <r_epik_State_Penalty>  (1) 
-0

>  <r_glide_ring_energy>  (1) 
0

>  <r_i_docking_score>  (1) 
-4.0506128771490131

>  <r_i_glide_ecoul>  (1) 
-0.52824414025028799

>  <r_i_glide_eff_state_penalty>  (1) 
-0

>  <r_i_glide_einternal>  (1) 
0

>  <r_i_glide_emodel>  (1) 
-17.824207764305413

>  <r_i_glide_emodel_strain>  (1) 
0

>  <r_i_glide_energy>  (1) 
-14.159533874580763

>  <r_i_glide_erotb>  (1) 
0

>  <r_i_glide_esite>  (1) 
0

>  <r_i_glide_evdw>  (1) 
-13.631289734330474

>  <r_i_glide_gscore>  (1) 
-4.0506128771490131

>  <r_i_glide_gscore_strain>  (1) 
0

>  <r_i_glide_hbond>  (1) 
0

>  <r_i_glide_ligand_efficiency>  (1) 
-0.67510214619150222

>  <r_i_glide_ligand_efficiency_ln>  (1) 
-1.4509175743098819

>  <r_i_glide_ligand_efficiency_sa>  (1) 
-1.2267420121097523

>  <r_i_glide_lipo>  (1) 
-0.53981176939494635

>  <r_i_glide_metal>  (1) 
-0

>  <r_i_glide_rewards>  (1) 
-2.75

>  <r_lp_Energy>  (1) 
4.9648199999999996

>  <r_lp_tautomer_probability>  (1) 
1

>  <s_epik_cmdline>  (1) 
J2VwaWtfcHl0aG9uJywgJy1waHQnLCAnMS4wJywgJy1waCcsICc3LjQnLCAnLXRuJywgJzgnLCAnLW1hJywgJzUwMCcsICctaW1hZScsICc8aW5maWxlLm1hZT4nLCAnLW9tYWUnLCAnPG91dGZpbGUubWFlPic=

>  <s_epik_input>  (1) 
W0NIMl0xT1tDSDJdW0NIMl1PW0NIMl0x

>  <s_glide_docking_method>  (1) 
confgen

>  <s_i_glide_gridfile>  (1) 
gpcr_drd2_6luq_protein_autoprepared_prepared

>  <s_lp_Force_Field>  (1) 
S-OPLS

>  <s_lp_Variant>  (1) 
Pocket2Mol_5_num_sample_50-1

>  <s_m_source_file>  (1) 
generated__ligand_Pocket2Mol_2026-05-06_prepared.sdf

>  <GenAI_Model>  (1) 
Pocket2Mol

>  <Protein>  (1) 
generic_title2

$$$$
Pocket2Mol_4_num_sample_50
     RDKit          3D

  0  0  0  0  0  0  0  0  0  0999 V3000
M  V30 BEGIN CTAB
M  V30 COUNTS 16 16 0 0 1
M  V30 BEGIN ATOM
M  V30 1 C 11.553737 8.115449 -7.657091 0
M  V30 2 O 11.405947 7.405567 -8.882735 0
M  V30 3 C 10.046488 7.103600 -9.188813 0
M  V30 4 C 9.454317 6.187744 -8.105169 0
M  V30 5 C 9.579951 6.849220 -6.729286 0
M  V30 6 C 11.034783 7.261493 -6.487337 0
M  V30 7 H 12.608170 8.351731 -7.511745 0
M  V30 8 H 11.022004 9.065500 -7.710508 0
M  V30 9 H 9.468199 8.025190 -9.275465 0
M  V30 10 H 10.003191 6.611035 -10.160094 0
M  V30 11 H 8.406664 5.976193 -8.323426 0
M  V30 12 H 9.977445 5.230874 -8.107478 0
M  V30 13 H 8.931306 7.725928 -6.686938 0
M  V30 14 H 9.239184 6.169301 -5.948110 0
M  V30 15 H 11.653841 6.368724 -6.386773 0
M  V30 16 H 11.121026 7.811305 -5.549914 0
M  V30 END ATOM
M  V30 BEGIN BOND
M  V30 1 1 2 1
M  V30 2 1 3 2
M  V30 3 1 4 3
M  V30 4 1 5 4
M  V30 5 1 6 1
M  V30 6 1 6 5
M  V30 7 1 7 1
M  V30 8 1 8 1
M  V30 9 1 9 3
M  V30 10 1 10 3
M  V30 11 1 11 4
M  V30 12 1 12 4
M  V30 13 1 13 5
M  V30 14 1 14 5
M  V30 15 1 15 6
M  V30 16 1 16 6
M  V30 END BOND
M  V30 END CTAB
M  END
>  <i_epik_Tot_Q>  (1) 
0

>  <i_epik_Tot_abs_Q>  (1) 
0

>  <i_i_glide_confnum>  (1) 
2

>  <i_i_glide_lignum>  (1) 
5

>  <i_i_glide_posenum>  (1) 
80

>  <i_i_glide_rotatable_bonds>  (1) 
0

>  <i_lp_mmshare_version>  (1) 
72125

>  <i_m_source_file_index>  (1) 
5

>  <i_f3d_flags>  (1) 
0

>  <num_sample>  (1) 
50

>  <b_lp_Chiralities_Consistent>  (1) 
1

>  <r_epik_Charging_Adjusted_Penalty>  (1) 
0

>  <r_epik_Ionization_Penalty>  (1) 
1.5229185111393156e-11

>  <r_epik_Ionization_Penalty_Charging>  (1) 
0

>  <r_epik_Ionization_Penalty_Neutral>  (1) 
1.5229185111393156e-11

>  <r_epik_State_Penalty>  (1) 
-0

>  <r_glide_ring_energy>  (1) 
0.00023819064548269558

>  <r_i_docking_score>  (1) 
-4.0381448286350698

>  <r_i_glide_ecoul>  (1) 
-0.76062651350634902

>  <r_i_glide_eff_state_penalty>  (1) 
-0

>  <r_i_glide_einternal>  (1) 
0

>  <r_i_glide_emodel>  (1) 
-18.282286798912732

>  <r_i_glide_emodel_strain>  (1) 
0

>  <r_i_glide_energy>  (1) 
-14.448570832303565

>  <r_i_glide_erotb>  (1) 
0

>  <r_i_glide_esite>  (1) 
0

>  <r_i_glide_evdw>  (1) 
-13.687944318797216

>  <r_i_glide_gscore>  (1) 
-4.0381448286350698

>  <r_i_glide_gscore_strain>  (1) 
0

>  <r_i_glide_hbond>  (1) 
0

>  <r_i_glide_ligand_efficiency>  (1) 
-0.67302413810584494

>  <r_i_glide_ligand_efficiency_ln>  (1) 
-1.4464515561405622

>  <r_i_glide_ligand_efficiency_sa>  (1) 
-1.2229660208252331

>  <r_i_glide_lipo>  (1) 
-0.44798696900259027

>  <r_i_glide_metal>  (1) 
-0

>  <r_i_glide_rewards>  (1) 
-2.7916666666666665

>  <r_lp_Energy>  (1) 
2.9645999999999999

>  <r_lp_tautomer_probability>  (1) 
1

>  <s_epik_cmdline>  (1) 
J2VwaWtfcHl0aG9uJywgJy1waHQnLCAnMS4wJywgJy1waCcsICc3LjQnLCAnLXRuJywgJzgnLCAnLW1hJywgJzUwMCcsICctaW1hZScsICc8aW5maWxlLm1hZT4nLCAnLW9tYWUnLCAnPG91dGZpbGUubWFlPic=

>  <s_epik_input>  (1) 
W0NIMl0xT1tDSDJdW0NIMl1bQ0gyXVtDSDJdMQ==

>  <s_glide_docking_method>  (1) 
confgen

>  <s_i_glide_gridfile>  (1) 
gpcr_drd2_6luq_protein_autoprepared_prepared

>  <s_lp_Force_Field>  (1) 
S-OPLS

>  <s_lp_Variant>  (1) 
Pocket2Mol_4_num_sample_50-1

>  <s_m_source_file>  (1) 
generated__ligand_Pocket2Mol_2026-05-06_prepared.sdf

>  <GenAI_Model>  (1) 
Pocket2Mol

>  <Protein>  (1) 
generic_title2

$$$$
Pocket2Mol_3_num_sample_50
     RDKit          3D

  0  0  0  0  0  0  0  0  0  0999 V3000
M  V30 BEGIN CTAB
M  V30 COUNTS 9 9 0 0 1
M  V30 BEGIN ATOM
M  V30 1 N 9.434837 7.597782 -7.776409 0
M  V30 2 C 10.064187 6.399155 -7.630996 0
M  V30 3 C 11.034714 6.569328 -6.691698 0
M  V30 4 C 10.904534 7.947270 -6.317917 0
M  V30 5 N 9.927015 8.567525 -6.984207 0
M  V30 6 H 8.650579 7.769301 -8.404713 0
M  V30 7 H 9.772633 5.528425 -8.200417 0
M  V30 8 H 11.729898 5.829722 -6.322531 0
M  V30 9 H 11.479832 8.506731 -5.595025 0
M  V30 END ATOM
M  V30 BEGIN BOND
M  V30 1 1 2 1
M  V30 2 2 3 2
M  V30 3 1 4 3
M  V30 4 1 5 1
M  V30 5 2 5 4
M  V30 6 1 6 1
M  V30 7 1 7 2
M  V30 8 1 8 3
M  V30 9 1 9 4
M  V30 END BOND
M  V30 END CTAB
M  END
>  <i_epik_Tot_Q>  (1) 
0

>  <i_epik_Tot_abs_Q>  (1) 
0

>  <i_i_glide_confnum>  (1) 
1

>  <i_i_glide_lignum>  (1) 
4

>  <i_i_glide_posenum>  (1) 
175

>  <i_i_glide_rotatable_bonds>  (1) 
0

>  <i_lp_mmshare_version>  (1) 
72125

>  <i_m_source_file_index>  (1) 
4

>  <i_f3d_flags>  (1) 
0

>  <num_sample>  (1) 
50

>  <b_lp_Chiralities_Consistent>  (1) 
1

>  <r_epik_Charging_Adjusted_Penalty>  (1) 
0

>  <r_epik_Ionization_Penalty>  (1) 
1.0045315435319e-05

>  <r_epik_Ionization_Penalty_Charging>  (1) 
0

>  <r_epik_Ionization_Penalty_Neutral>  (1) 
1.0045315435319e-05

>  <r_epik_State_Penalty>  (1) 
-0

>  <r_glide_ring_energy>  (1) 
0

>  <r_i_docking_score>  (1) 
-4.0321781632917597

>  <r_i_glide_ecoul>  (1) 
-2.9061207990041535

>  <r_i_glide_eff_state_penalty>  (1) 
-0

>  <r_i_glide_einternal>  (1) 
0

>  <r_i_glide_emodel>  (1) 
-19.159154395546317

>  <r_i_glide_emodel_strain>  (1) 
0

>  <r_i_glide_energy>  (1) 
-14.349822577931308

>  <r_i_glide_erotb>  (1) 
0

>  <r_i_glide_esite>  (1) 
-0.10000000000000001

>  <r_i_glide_evdw>  (1) 
-11.443701778927155

>  <r_i_glide_gscore>  (1) 
-4.0321781632917597

>  <r_i_glide_gscore_strain>  (1) 
0

>  <r_i_glide_hbond>  (1) 
-0.16

>  <r_i_glide_ligand_efficiency>  (1) 
-0.80643563265835194

>  <r_i_glide_ligand_efficiency_ln>  (1) 
-1.5452286272373954

>  <r_i_glide_ligand_efficiency_sa>  (1) 
-1.3789855343887865

>  <r_i_glide_lipo>  (1) 
-0.51407495449477913

>  <r_i_glide_metal>  (1) 
-0

>  <r_i_glide_rewards>  (1) 
-2.25

>  <r_lp_Energy>  (1) 
2.3130189999999997

>  <r_lp_tautomer_probability>  (1) 
1

>  <s_epik_cmdline>  (1) 
J2VwaWtfcHl0aG9uJywgJy1waHQnLCAnMS4wJywgJy1waCcsICc3LjQnLCAnLXRuJywgJzgnLCAnLW1hJywgJzUwMCcsICctaW1hZScsICc8aW5maWxlLm1hZT4nLCAnLW9tYWUnLCAnPG91dGZpbGUubWFlPic=

>  <s_epik_input>  (1) 
W25IXTFbY0hdW2NIXVtjSF1uMQ==

>  <s_glide_docking_method>  (1) 
confgen

>  <s_i_glide_gridfile>  (1) 
gpcr_drd2_6luq_protein_autoprepared_prepared

>  <s_lp_Force_Field>  (1) 
S-OPLS

>  <s_lp_Variant>  (1) 
Pocket2Mol_3_num_sample_50-1

>  <s_m_source_file>  (1) 
generated__ligand_Pocket2Mol_2026-05-06_prepared.sdf

>  <GenAI_Model>  (1) 
Pocket2Mol

>  <Protein>  (1) 
generic_title2

$$$$
Pocket2Mol_32_num_sample_50
     RDKit          3D

  0  0  0  0  0  0  0  0  0  0999 V3000
M  V30 BEGIN CTAB
M  V30 COUNTS 12 12 0 0 1
M  V30 BEGIN ATOM
M  V30 1 N 12.202139 7.050794 -2.395082 0
M  V30 2 C 11.834982 6.969301 -3.655470 0
M  V30 3 C 11.834839 8.105270 -4.256631 0
M  V30 4 C 12.234839 9.277855 -3.383365 0
M  V30 5 C 12.455619 8.441097 -1.969597 0
M  V30 6 H 11.570691 5.998363 -4.050792 0
M  V30 7 H 13.150242 9.748867 -3.743098 0
M  V30 8 H 11.434273 10.014269 -3.308818 0
M  V30 9 H 13.467241 8.567504 -1.585383 0
M  V30 10 H 11.746703 8.747050 -1.200489 0
M  V30 11 H 11.559033 8.245723 -5.291842 0
M  V30 12 H 12.037267 6.313831 -1.722434 0
M  V30 END ATOM
M  V30 BEGIN BOND
M  V30 1 1 2 1
M  V30 2 2 3 2
M  V30 3 1 4 3
M  V30 4 1 5 1
M  V30 5 1 5 4
M  V30 6 1 6 2
M  V30 7 1 7 4
M  V30 8 1 8 4
M  V30 9 1 9 5
M  V30 10 1 10 5
M  V30 11 1 11 3
M  V30 12 1 12 1
M  V30 END BOND
M  V30 END CTAB
M  END
>  <i_epik_Tot_Q>  (1) 
0

>  <i_epik_Tot_abs_Q>  (1) 
0

>  <i_i_glide_confnum>  (1) 
1

>  <i_i_glide_lignum>  (1) 
36

>  <i_i_glide_posenum>  (1) 
36

>  <i_i_glide_rotatable_bonds>  (1) 
0

>  <i_lp_mmshare_version>  (1) 
72125

>  <i_m_source_file_index>  (1) 
33

>  <i_f3d_flags>  (1) 
0

>  <num_sample>  (1) 
50

>  <b_lp_Chiralities_Consistent>  (1) 
1

>  <r_epik_Charging_Adjusted_Penalty>  (1) 
1.6042444336516156e-06

>  <r_epik_Ionization_Penalty>  (1) 
0.0023556498582944039

>  <r_epik_Ionization_Penalty_Charging>  (1) 
1.6042444336516156e-06

>  <r_epik_Ionization_Penalty_Neutral>  (1) 
0.0023540456138607521

>  <r_epik_State_Penalty>  (1) 
-0

>  <r_glide_ring_energy>  (1) 
0

>  <r_i_docking_score>  (1) 
-4.0297043176027216

>  <r_i_glide_ecoul>  (1) 
-0.95617528950213049

>  <r_i_glide_eff_state_penalty>  (1) 
-0

>  <r_i_glide_einternal>  (1) 
0

>  <r_i_glide_emodel>  (1) 
-18.11168644562796

>  <r_i_glide_emodel_strain>  (1) 
0

>  <r_i_glide_energy>  (1) 
-14.083127192778372

>  <r_i_glide_erotb>  (1) 
0

>  <r_i_glide_esite>  (1) 
0

>  <r_i_glide_evdw>  (1) 
-13.126951903276241

>  <r_i_glide_gscore>  (1) 
-4.0297043176027216

>  <r_i_glide_gscore_strain>  (1) 
0

>  <r_i_glide_hbond>  (1) 
0

>  <r_i_glide_ligand_efficiency>  (1) 
-0.80594086352054428

>  <r_i_glide_ligand_efficiency_ln>  (1) 
-1.5442805894713882

>  <r_i_glide_ligand_efficiency_sa>  (1) 
-1.3781394910639775

>  <r_i_glide_lipo>  (1) 
-0.9799304290135904

>  <r_i_glide_metal>  (1) 
-0

>  <r_i_glide_rewards>  (1) 
-2.25

>  <r_lp_Energy>  (1) 
2.9163329999999998

>  <r_lp_tautomer_probability>  (1) 
1

>  <s_epik_Chemistry_Notes>  (1) 
This compound has an imine and may undergo hydrolysis.

>  <s_epik_cmdline>  (1) 
J2VwaWtfcHl0aG9uJywgJy1waHQnLCAnMS4wJywgJy1waCcsICc3LjQnLCAnLXRuJywgJzgnLCAnLW1hJywgJzUwMCcsICctaW1hZScsICc8aW5maWxlLm1hZT4nLCAnLW9tYWUnLCAnPG91dGZpbGUubWFlPic=

>  <s_epik_input>  (1) 
W05IXTFbQ0hdPVtDSF1bQ0gyXVtDSDJdMQ==

>  <s_glide_docking_method>  (1) 
confgen

>  <s_i_glide_gridfile>  (1) 
gpcr_drd2_6luq_protein_autoprepared_prepared

>  <s_lp_Force_Field>  (1) 
S-OPLS

>  <s_lp_Variant>  (1) 
Pocket2Mol_32_num_sample_50-1

>  <s_m_source_file>  (1) 
generated__ligand_Pocket2Mol_2026-05-06_prepared.sdf

>  <GenAI_Model>  (1) 
Pocket2Mol

>  <Protein>  (1) 
generic_title2

$$$$
Pocket2Mol_49_num_sample_50
     RDKit          3D

  0  0  0  0  0  0  0  0  0  0999 V3000
M  V30 BEGIN CTAB
M  V30 COUNTS 11 11 0 0 1
M  V30 BEGIN ATOM
M  V30 1 O 11.333571 9.775094 -4.716395 0
M  V30 2 C 11.129453 9.044441 -5.902999 0
M  V30 3 C 11.034865 7.617057 -5.371057 0
M  V30 4 C 12.173990 8.969273 -3.971150 0
M  V30 5 O 11.834839 7.641980 -4.199998 0
M  V30 6 H 10.234866 9.365802 -6.436460 0
M  V30 7 H 11.991851 9.160128 -6.561820 0
M  V30 8 H 10.010445 7.368929 -5.093689 0
M  V30 9 H 11.387272 6.876149 -6.089405 0
M  V30 10 H 13.204590 9.135395 -4.290467 0
M  V30 11 H 12.091168 9.209250 -2.910277 0
M  V30 END ATOM
M  V30 BEGIN BOND
M  V30 1 1 2 1
M  V30 2 1 3 2
M  V30 3 1 4 1
M  V30 4 1 5 3
M  V30 5 1 5 4
M  V30 6 1 6 2
M  V30 7 1 7 2
M  V30 8 1 8 3
M  V30 9 1 9 3
M  V30 10 1 10 4
M  V30 11 1 11 4
M  V30 END BOND
M  V30 END CTAB
M  END
>  <i_epik_Tot_Q>  (1) 
0

>  <i_epik_Tot_abs_Q>  (1) 
0

>  <i_i_glide_confnum>  (1) 
1

>  <i_i_glide_lignum>  (1) 
55

>  <i_i_glide_posenum>  (1) 
290

>  <i_i_glide_rotatable_bonds>  (1) 
0

>  <i_lp_mmshare_version>  (1) 
72125

>  <i_m_source_file_index>  (1) 
50

>  <i_f3d_flags>  (1) 
0

>  <num_sample>  (1) 
50

>  <b_lp_Chiralities_Consistent>  (1) 
1

>  <r_epik_Charging_Adjusted_Penalty>  (1) 
0

>  <r_epik_Ionization_Penalty>  (1) 
7.9724310449397378e-14

>  <r_epik_Ionization_Penalty_Charging>  (1) 
0

>  <r_epik_Ionization_Penalty_Neutral>  (1) 
7.9724310449397378e-14

>  <r_epik_State_Penalty>  (1) 
-0

>  <r_glide_ring_energy>  (1) 
0

>  <r_i_docking_score>  (1) 
-4.0242896847536347

>  <r_i_glide_ecoul>  (1) 
-0.68392502522054643

>  <r_i_glide_eff_state_penalty>  (1) 
-0

>  <r_i_glide_einternal>  (1) 
0

>  <r_i_glide_emodel>  (1) 
-16.340008518424213

>  <r_i_glide_emodel_strain>  (1) 
0

>  <r_i_glide_energy>  (1) 
-12.814261362540471

>  <r_i_glide_erotb>  (1) 
0

>  <r_i_glide_esite>  (1) 
0

>  <r_i_glide_evdw>  (1) 
-12.130336337319925

>  <r_i_glide_gscore>  (1) 
-4.0242896847536347

>  <r_i_glide_gscore_strain>  (1) 
0

>  <r_i_glide_hbond>  (1) 
0

>  <r_i_glide_ligand_efficiency>  (1) 
-0.80485793695072694

>  <r_i_glide_ligand_efficiency_ln>  (1) 
-1.5422055706241162

>  <r_i_glide_ligand_efficiency_sa>  (1) 
-1.3762877126775726

>  <r_i_glide_lipo>  (1) 
-0.57351744743788957

>  <r_i_glide_metal>  (1) 
-0

>  <r_i_glide_rewards>  (1) 
-2.7416666666666667

>  <r_lp_Energy>  (1) 
-12.242958999999999

>  <r_lp_tautomer_probability>  (1) 
1

>  <s_epik_Chemistry_Notes>  (1) 
This compound contains an acetal/aminal-like group ( X-CH(R)-Y where X, Y are N, S, or O) that may be acid/base labile, releasing an aldehyde.

>  <s_epik_cmdline>  (1) 
J2VwaWtfcHl0aG9uJywgJy1waHQnLCAnMS4wJywgJy1waCcsICc3LjQnLCAnLXRuJywgJzgnLCAnLW1hJywgJzUwMCcsICctaW1hZScsICc8aW5maWxlLm1hZT4nLCAnLW9tYWUnLCAnPG91dGZpbGUubWFlPic=

>  <s_epik_input>  (1) 
TzFbQ0gyXVtDSDJdT1tDSDJdMQ==

>  <s_glide_docking_method>  (1) 
confgen

>  <s_i_glide_gridfile>  (1) 
gpcr_drd2_6luq_protein_autoprepared_prepared

>  <s_lp_Force_Field>  (1) 
S-OPLS

>  <s_lp_Variant>  (1) 
Pocket2Mol_49_num_sample_50-1

>  <s_m_source_file>  (1) 
generated__ligand_Pocket2Mol_2026-05-06_prepared.sdf

>  <GenAI_Model>  (1) 
Pocket2Mol

>  <Protein>  (1) 
generic_title2

$$$$
Pocket2Mol_46_num_sample_50
     RDKit          3D

  0  0  0  0  0  0  0  0  0  0999 V3000
M  V30 BEGIN CTAB
M  V30 COUNTS 8 8 0 0 1
M  V30 BEGIN ATOM
M  V30 1 N 11.034832 8.012560 -5.835277 0
M  V30 2 C 11.034838 6.647563 -6.307651 0
M  V30 3 C 10.310578 6.515766 -7.355296 0
M  V30 4 C 9.834837 7.719990 -7.593471 0
M  V30 5 C 10.275899 8.569283 -6.691667 0
M  V30 6 H 11.591275 5.879891 -5.788828 0
M  V30 7 H 10.115394 5.609766 -7.910467 0
M  V30 8 H 9.038770 7.916992 -8.298442 0
M  V30 END ATOM
M  V30 BEGIN BOND
M  V30 1 1 2 1
M  V30 2 2 3 2
M  V30 3 1 4 3
M  V30 4 2 5 1
M  V30 5 2 5 4
M  V30 6 1 6 2
M  V30 7 1 7 3
M  V30 8 1 8 4
M  V30 END BOND
M  V30 END CTAB
M  END
>  <i_epik_Tot_Q>  (1) 
0

>  <i_epik_Tot_abs_Q>  (1) 
0

>  <i_i_glide_confnum>  (1) 
1

>  <i_i_glide_lignum>  (1) 
52

>  <i_i_glide_posenum>  (1) 
313

>  <i_i_glide_rotatable_bonds>  (1) 
0

>  <i_lp_mmshare_version>  (1) 
72125

>  <i_m_source_file_index>  (1) 
47

>  <i_f3d_flags>  (1) 
0

>  <num_sample>  (1) 
50

>  <b_lp_Chiralities_Consistent>  (1) 
1

>  <r_epik_Charging_Adjusted_Penalty>  (1) 
0

>  <r_epik_Ionization_Penalty>  (1) 
0

>  <r_epik_Ionization_Penalty_Charging>  (1) 
0

>  <r_epik_Ionization_Penalty_Neutral>  (1) 
0

>  <r_epik_State_Penalty>  (1) 
-0

>  <r_glide_ring_energy>  (1) 
0

>  <r_i_docking_score>  (1) 
-4.017842805454614

>  <r_i_glide_ecoul>  (1) 
-1.0813966316236774

>  <r_i_glide_eff_state_penalty>  (1) 
-0

>  <r_i_glide_einternal>  (1) 
0

>  <r_i_glide_emodel>  (1) 
-17.353936265488276

>  <r_i_glide_emodel_strain>  (1) 
0

>  <r_i_glide_energy>  (1) 
-13.717282721940805

>  <r_i_glide_erotb>  (1) 
0

>  <r_i_glide_esite>  (1) 
0

>  <r_i_glide_evdw>  (1) 
-12.635886090317127

>  <r_i_glide_gscore>  (1) 
-4.017842805454614

>  <r_i_glide_gscore_strain>  (1) 
0

>  <r_i_glide_hbond>  (1) 
0

>  <r_i_glide_ligand_efficiency>  (1) 
-0.80356856109092278

>  <r_i_glide_ligand_efficiency_ln>  (1) 
-1.5397349698605185

>  <r_i_glide_ligand_efficiency_sa>  (1) 
-1.3740829109710819

>  <r_i_glide_lipo>  (1) 
-0.65378986192375599

>  <r_i_glide_metal>  (1) 
-0

>  <r_i_glide_rewards>  (1) 
-2.5700491442714499

>  <r_lp_Energy>  (1) 
4.860805

>  <r_lp_tautomer_probability>  (1) 
1

>  <s_epik_Chemistry_Notes>  (1) 
This compound has an imine and may undergo hydrolysis.

>  <s_epik_cmdline>  (1) 
J2VwaWtfcHl0aG9uJywgJy1waHQnLCAnMS4wJywgJy1waCcsICc3LjQnLCAnLXRuJywgJzgnLCAnLW1hJywgJzUwMCcsICctaW1hZScsICc8aW5maWxlLm1hZT4nLCAnLW9tYWUnLCAnPG91dGZpbGUubWFlPic=

>  <s_epik_input>  (1) 
TjE9Qz1bQ0hdW0NIXT1bQ0hdMQ==

>  <s_glide_docking_method>  (1) 
confgen

>  <s_i_glide_gridfile>  (1) 
gpcr_drd2_6luq_protein_autoprepared_prepared

>  <s_lp_Force_Field>  (1) 
S-OPLS

>  <s_lp_Variant>  (1) 
Pocket2Mol_46_num_sample_50-1

>  <s_m_source_file>  (1) 
generated__ligand_Pocket2Mol_2026-05-06_prepared.sdf

>  <GenAI_Model>  (1) 
Pocket2Mol

>  <Protein>  (1) 
generic_title2

$$$$
Pocket2Mol_44_num_sample_50
     RDKit          3D

  0  0  0  0  0  0  0  0  0  0999 V3000
M  V30 BEGIN CTAB
M  V30 COUNTS 15 16 0 0 1
M  V30 BEGIN ATOM
M  V30 1 C 12.483658 8.660818 -2.097306 0
M  V30 2 O 12.234814 9.747530 -3.046258 0
M  V30 3 C 11.836852 9.030750 -4.096011 0
M  V30 4 C 11.834839 7.714451 -3.891667 0
M  V30 5 C 11.424577 6.831879 -4.899171 0
M  V30 6 N 11.031918 7.339006 -6.092328 0 CHG=1
M  V30 7 C 11.023504 8.673576 -6.345864 0
M  V30 8 C 11.434837 9.575415 -5.331730 0
M  V30 9 O 12.235179 7.340986 -2.674114 0
M  V30 10 H 11.835750 8.799063 -1.229726 0
M  V30 11 H 13.519305 8.716817 -1.761759 0
M  V30 12 H 11.392726 5.769301 -4.797088 0
M  V30 13 H 10.690924 8.969301 -7.330492 0
M  V30 14 H 11.434858 10.641457 -5.498008 0
M  V30 15 H 10.728961 6.695239 -6.826472 0
M  V30 END ATOM
M  V30 BEGIN BOND
M  V30 1 1 2 1
M  V30 2 1 3 2
M  V30 3 2 4 3
M  V30 4 1 5 4
M  V30 5 2 6 5
M  V30 6 1 7 6
M  V30 7 1 8 3
M  V30 8 2 8 7
M  V30 9 1 9 1
M  V30 10 1 9 4
M  V30 11 1 10 1
M  V30 12 1 11 1
M  V30 13 1 12 5
M  V30 14 1 13 7
M  V30 15 1 14 8
M  V30 16 1 15 6
M  V30 END BOND
M  V30 END CTAB
M  END
>  <i_epik_Tot_Q>  (1) 
1

>  <i_epik_Tot_abs_Q>  (1) 
1

>  <i_i_glide_confnum>  (1) 
1

>  <i_i_glide_lignum>  (1) 
50

>  <i_i_glide_posenum>  (1) 
381

>  <i_i_glide_rotatable_bonds>  (1) 
0

>  <i_lp_mmshare_version>  (1) 
72125

>  <i_m_source_file_index>  (1) 
45

>  <i_f3d_flags>  (1) 
0

>  <num_sample>  (1) 
50

>  <b_lp_Chiralities_Consistent>  (1) 
1

>  <r_epik_Charging_Adjusted_Penalty>  (1) 
2.6035637255513002

>  <r_epik_Ionization_Penalty>  (1) 
1.3017818627756499

>  <r_epik_Ionization_Penalty_Charging>  (1) 
1.3017818627756499

>  <r_epik_Ionization_Penalty_Neutral>  (1) 
0

>  <r_epik_State_Penalty>  (1) 
1.3017818627756503

>  <r_glide_ring_energy>  (1) 
0

>  <r_i_docking_score>  (1) 
-4.0097485150734231

>  <r_i_glide_ecoul>  (1) 
-0.84537448012738092

>  <r_i_glide_eff_state_penalty>  (1) 
1.3017818627756503

>  <r_i_glide_einternal>  (1) 
0

>  <r_i_glide_emodel>  (1) 
-27.91344721544106

>  <r_i_glide_emodel_strain>  (1) 
0

>  <r_i_glide_energy>  (1) 
-18.057008893016157

>  <r_i_glide_erotb>  (1) 
0

>  <r_i_glide_esite>  (1) 
0

>  <r_i_glide_evdw>  (1) 
-17.211634412888777

>  <r_i_glide_gscore>  (1) 
-5.3115303778490732

>  <r_i_glide_gscore_strain>  (1) 
0

>  <r_i_glide_hbond>  (1) 
0

>  <r_i_glide_ligand_efficiency>  (1) 
-0.44552761278593589

>  <r_i_glide_ligand_efficiency_ln>  (1) 
-1.2541341460643223

>  <r_i_glide_ligand_efficiency_sa>  (1) 
-0.92673478007895804

>  <r_i_glide_lipo>  (1) 
-1.3736963668376814

>  <r_i_glide_metal>  (1) 
-0

>  <r_i_glide_rewards>  (1) 
-2.9504461183478456

>  <r_lp_Energy>  (1) 
25.893000999999998

>  <s_epik_Chemistry_Notes>  (1) 
This compound contains an acetal/aminal-like group ( X-CH(R)-Y where X, Y are N, S, or O) that may be acid/base labile, releasing an aldehyde.

>  <s_epik_cmdline>  (1) 
J2VwaWtfcHl0aG9uJywgJy1waHQnLCAnMS4wJywgJy1waCcsICc3LjQnLCAnLXRuJywgJzgnLCAnLW1hJywgJzUwMCcsICctaW1hZScsICc8aW5maWxlLm1hZT4nLCAnLW9tYWUnLCAnPG91dGZpbGUubWFlPic=

>  <s_epik_input>  (1) 
TzFbQ0gyXU9jKGMxMilbY0hdbltjSF1bY0hdMg==

>  <s_glide_docking_method>  (1) 
confgen

>  <s_i_glide_gridfile>  (1) 
gpcr_drd2_6luq_protein_autoprepared_prepared

>  <s_lp_Force_Field>  (1) 
S-OPLS

>  <s_lp_Variant>  (1) 
Pocket2Mol_44_num_sample_50-2

>  <s_m_source_file>  (1) 
generated__ligand_Pocket2Mol_2026-05-06_prepared.sdf

>  <GenAI_Model>  (1) 
Pocket2Mol

>  <Protein>  (1) 
generic_title2

$$$$
Pocket2Mol_47_num_sample_50
     RDKit          3D

  0  0  0  0  0  0  0  0  0  0999 V3000
M  V30 BEGIN CTAB
M  V30 COUNTS 11 11 0 0 1
M  V30 BEGIN ATOM
M  V30 1 C 10.960435 6.804395 -5.605789 0
M  V30 2 O 11.422540 8.195012 -5.384196 0
M  V30 3 C 9.827492 6.728080 -6.738494 0
M  V30 4 C 9.842764 8.169301 -6.979775 0
M  V30 5 C 10.668373 8.867859 -6.269188 0
M  V30 6 H 10.580694 6.401806 -4.665376 0
M  V30 7 H 11.813850 6.185934 -5.886566 0
M  V30 8 H 8.859183 6.390804 -6.366542 0
M  V30 9 H 10.128796 6.161924 -7.620071 0
M  V30 10 H 9.184881 8.602287 -7.720898 0
M  V30 11 H 10.835331 9.934548 -6.289716 0
M  V30 END ATOM
M  V30 BEGIN BOND
M  V30 1 1 2 1
M  V30 2 1 3 1
M  V30 3 1 4 3
M  V30 4 1 5 2
M  V30 5 2 5 4
M  V30 6 1 6 1
M  V30 7 1 7 1
M  V30 8 1 8 3
M  V30 9 1 9 3
M  V30 10 1 10 4
M  V30 11 1 11 5
M  V30 END BOND
M  V30 END CTAB
M  END
>  <i_epik_Tot_Q>  (1) 
0

>  <i_epik_Tot_abs_Q>  (1) 
0

>  <i_i_glide_confnum>  (1) 
1

>  <i_i_glide_lignum>  (1) 
53

>  <i_i_glide_posenum>  (1) 
199

>  <i_i_glide_rotatable_bonds>  (1) 
0

>  <i_lp_mmshare_version>  (1) 
72125

>  <i_m_source_file_index>  (1) 
48

>  <i_f3d_flags>  (1) 
0

>  <num_sample>  (1) 
50

>  <b_lp_Chiralities_Consistent>  (1) 
1

>  <r_epik_Charging_Adjusted_Penalty>  (1) 
0

>  <r_epik_Ionization_Penalty>  (1) 
0

>  <r_epik_Ionization_Penalty_Charging>  (1) 
0

>  <r_epik_Ionization_Penalty_Neutral>  (1) 
0

>  <r_epik_State_Penalty>  (1) 
-0

>  <r_glide_ring_energy>  (1) 
0

>  <r_i_docking_score>  (1) 
-3.9978540201275825

>  <r_i_glide_ecoul>  (1) 
-0.85787376200278853

>  <r_i_glide_eff_state_penalty>  (1) 
-0

>  <r_i_glide_einternal>  (1) 
0

>  <r_i_glide_emodel>  (1) 
-16.51624380751484

>  <r_i_glide_emodel_strain>  (1) 
0

>  <r_i_glide_energy>  (1) 
-13.053782529992144

>  <r_i_glide_erotb>  (1) 
0

>  <r_i_glide_esite>  (1) 
0

>  <r_i_glide_evdw>  (1) 
-12.195908767989355

>  <r_i_glide_gscore>  (1) 
-3.9978540201275825

>  <r_i_glide_gscore_strain>  (1) 
0

>  <r_i_glide_hbond>  (1) 
0

>  <r_i_glide_ligand_efficiency>  (1) 
-0.7995708040255165

>  <r_i_glide_ligand_efficiency_ln>  (1) 
-1.5320747817288967

>  <r_i_glide_ligand_efficiency_sa>  (1) 
-1.3672468425485804

>  <r_i_glide_lipo>  (1) 
-0.66331601987939137

>  <r_i_glide_metal>  (1) 
-0

>  <r_i_glide_rewards>  (1) 
-2.5960614975483045

>  <r_lp_Energy>  (1) 
-3.1771669999999999

>  <r_lp_tautomer_probability>  (1) 
1

>  <s_epik_cmdline>  (1) 
J2VwaWtfcHl0aG9uJywgJy1waHQnLCAnMS4wJywgJy1waCcsICc3LjQnLCAnLXRuJywgJzgnLCAnLW1hJywgJzUwMCcsICctaW1hZScsICc8aW5maWxlLm1hZT4nLCAnLW9tYWUnLCAnPG91dGZpbGUubWFlPic=

>  <s_epik_input>  (1) 
W0NIMl0xT1tDSF09W0NIXVtDSDJdMQ==

>  <s_glide_docking_method>  (1) 
confgen

>  <s_i_glide_gridfile>  (1) 
gpcr_drd2_6luq_protein_autoprepared_prepared

>  <s_lp_Force_Field>  (1) 
S-OPLS

>  <s_lp_Variant>  (1) 
Pocket2Mol_47_num_sample_50-1

>  <s_m_source_file>  (1) 
generated__ligand_Pocket2Mol_2026-05-06_prepared.sdf

>  <GenAI_Model>  (1) 
Pocket2Mol

>  <Protein>  (1) 
generic_title2

$$$$
Pocket2Mol_1_num_sample_50
     RDKit          3D

  0  0  0  0  0  0  0  0  0  0999 V3000
M  V30 BEGIN CTAB
M  V30 COUNTS 10 10 0 0 1
M  V30 BEGIN ATOM
M  V30 1 N 9.434839 7.676607 -8.291667 0
M  V30 2 C 9.637494 7.044172 -7.091665 0
M  V30 3 C 10.975103 7.132315 -6.813520 0
M  V30 4 C 11.594894 7.847124 -7.891666 0
M  V30 5 C 10.614070 8.169301 -8.791469 0
M  V30 6 H 8.520201 7.769300 -8.751077 0
M  V30 7 H 8.816519 6.593553 -6.550765 0
M  V30 8 H 11.457307 6.729543 -5.935126 0
M  V30 9 H 12.641382 8.094549 -7.993452 0
M  V30 10 H 10.646185 8.699153 -9.732034 0
M  V30 END ATOM
M  V30 BEGIN BOND
M  V30 1 1 2 1
M  V30 2 2 3 2
M  V30 3 1 4 3
M  V30 4 1 5 1
M  V30 5 2 5 4
M  V30 6 1 6 1
M  V30 7 1 7 2
M  V30 8 1 8 3
M  V30 9 1 9 4
M  V30 10 1 10 5
M  V30 END BOND
M  V30 END CTAB
M  END
>  <i_epik_Tot_Q>  (1) 
0

>  <i_epik_Tot_abs_Q>  (1) 
0

>  <i_i_glide_confnum>  (1) 
1

>  <i_i_glide_lignum>  (1) 
2

>  <i_i_glide_posenum>  (1) 
327

>  <i_i_glide_rotatable_bonds>  (1) 
0

>  <i_lp_mmshare_version>  (1) 
72125

>  <i_m_source_file_index>  (1) 
2

>  <i_f3d_flags>  (1) 
0

>  <num_sample>  (1) 
50

>  <b_lp_Chiralities_Consistent>  (1) 
1

>  <r_epik_Charging_Adjusted_Penalty>  (1) 
0

>  <r_epik_Ionization_Penalty>  (1) 
4.7655302421719939e-09

>  <r_epik_Ionization_Penalty_Charging>  (1) 
0

>  <r_epik_Ionization_Penalty_Neutral>  (1) 
4.7655302421719939e-09

>  <r_epik_State_Penalty>  (1) 
-0

>  <r_glide_ring_energy>  (1) 
0

>  <r_i_docking_score>  (1) 
-3.9916851828090882

>  <r_i_glide_ecoul>  (1) 
-3.8645530305506188

>  <r_i_glide_eff_state_penalty>  (1) 
-0

>  <r_i_glide_einternal>  (1) 
0

>  <r_i_glide_emodel>  (1) 
-18.214721887465956

>  <r_i_glide_emodel_strain>  (1) 
0

>  <r_i_glide_energy>  (1) 
-13.677031008154401

>  <r_i_glide_erotb>  (1) 
0

>  <r_i_glide_esite>  (1) 
-0.10000000000000001

>  <r_i_glide_evdw>  (1) 
-9.8124779776037823

>  <r_i_glide_gscore>  (1) 
-3.9916851828090882

>  <r_i_glide_gscore_strain>  (1) 
0

>  <r_i_glide_hbond>  (1) 
-0.16

>  <r_i_glide_ligand_efficiency>  (1) 
-0.79833703656181765

>  <r_i_glide_ligand_efficiency_ln>  (1) 
-1.5297107334068043

>  <r_i_glide_ligand_efficiency_sa>  (1) 
-1.3651371298618631

>  <r_i_glide_lipo>  (1) 
-0.41137832934630647

>  <r_i_glide_metal>  (1) 
-0

>  <r_i_glide_rewards>  (1) 
-2.25

>  <r_lp_Energy>  (1) 
2.9132020000000001

>  <r_lp_tautomer_probability>  (1) 
1

>  <s_epik_cmdline>  (1) 
J2VwaWtfcHl0aG9uJywgJy1waHQnLCAnMS4wJywgJy1waCcsICc3LjQnLCAnLXRuJywgJzgnLCAnLW1hJywgJzUwMCcsICctaW1hZScsICc8aW5maWxlLm1hZT4nLCAnLW9tYWUnLCAnPG91dGZpbGUubWFlPic=

>  <s_epik_input>  (1) 
W25IXTFbY0hdW2NIXVtjSF1bY0hdMQ==

>  <s_glide_docking_method>  (1) 
confgen

>  <s_i_glide_gridfile>  (1) 
gpcr_drd2_6luq_protein_autoprepared_prepared

>  <s_lp_Force_Field>  (1) 
S-OPLS

>  <s_lp_Variant>  (1) 
Pocket2Mol_1_num_sample_50-1

>  <s_m_source_file>  (1) 
generated__ligand_Pocket2Mol_2026-05-06_prepared.sdf

>  <GenAI_Model>  (1) 
Pocket2Mol

>  <Protein>  (1) 
generic_title2

$$$$
Pocket2Mol_43_num_sample_50
     RDKit          3D

  0  0  0  0  0  0  0  0  0  0999 V3000
M  V30 BEGIN CTAB
M  V30 COUNTS 8 8 0 0 1
M  V30 BEGIN ATOM
M  V30 1 N 10.815845 8.679286 -6.237946 0
M  V30 2 C 9.675563 8.169326 -6.875597 0
M  V30 3 C 9.840415 8.050088 -8.241305 0
M  V30 4 C 11.802060 8.938325 -7.087710 0
M  V30 5 S 11.435251 8.569299 -8.749029 0
M  V30 6 H 8.799403 7.924670 -6.291665 0
M  V30 7 H 9.124527 7.692348 -8.970278 0
M  V30 8 H 12.739245 9.343735 -6.736135 0
M  V30 END ATOM
M  V30 BEGIN BOND
M  V30 1 1 2 1
M  V30 2 2 3 2
M  V30 3 2 4 1
M  V30 4 1 5 3
M  V30 5 1 5 4
M  V30 6 1 6 2
M  V30 7 1 7 3
M  V30 8 1 8 4
M  V30 END BOND
M  V30 END CTAB
M  END
>  <i_epik_Tot_Q>  (1) 
0

>  <i_epik_Tot_abs_Q>  (1) 
0

>  <i_i_glide_confnum>  (1) 
1

>  <i_i_glide_lignum>  (1) 
48

>  <i_i_glide_posenum>  (1) 
240

>  <i_i_glide_rotatable_bonds>  (1) 
0

>  <i_lp_mmshare_version>  (1) 
72125

>  <i_m_source_file_index>  (1) 
44

>  <i_f3d_flags>  (1) 
0

>  <num_sample>  (1) 
50

>  <b_lp_Chiralities_Consistent>  (1) 
1

>  <r_epik_Charging_Adjusted_Penalty>  (1) 
0

>  <r_epik_Ionization_Penalty>  (1) 
1.4882382677604034e-05

>  <r_epik_Ionization_Penalty_Charging>  (1) 
0

>  <r_epik_Ionization_Penalty_Neutral>  (1) 
1.4882382677604034e-05

>  <r_epik_State_Penalty>  (1) 
-0

>  <r_glide_ring_energy>  (1) 
0

>  <r_i_docking_score>  (1) 
-3.9913193103514573

>  <r_i_glide_ecoul>  (1) 
-1.6062044247164367

>  <r_i_glide_eff_state_penalty>  (1) 
-0

>  <r_i_glide_einternal>  (1) 
0

>  <r_i_glide_emodel>  (1) 
-19.590916424497081

>  <r_i_glide_emodel_strain>  (1) 
0

>  <r_i_glide_energy>  (1) 
-15.504694635936023

>  <r_i_glide_erotb>  (1) 
0

>  <r_i_glide_esite>  (1) 
0

>  <r_i_glide_evdw>  (1) 
-13.898490211219586

>  <r_i_glide_gscore>  (1) 
-3.9913193103514573

>  <r_i_glide_gscore_strain>  (1) 
0

>  <r_i_glide_hbond>  (1) 
0

>  <r_i_glide_ligand_efficiency>  (1) 
-0.79826386207029143

>  <r_i_glide_ligand_efficiency_ln>  (1) 
-1.5295705221927771

>  <r_i_glide_ligand_efficiency_sa>  (1) 
-1.365012003241443

>  <r_i_glide_lipo>  (1) 
-0.488797469416346

>  <r_i_glide_metal>  (1) 
-0

>  <r_i_glide_rewards>  (1) 
-2.5666666666666664

>  <r_lp_Energy>  (1) 
1.6688799999999999

>  <r_lp_tautomer_probability>  (1) 
1

>  <s_epik_cmdline>  (1) 
J2VwaWtfcHl0aG9uJywgJy1waHQnLCAnMS4wJywgJy1waCcsICc3LjQnLCAnLXRuJywgJzgnLCAnLW1hJywgJzUwMCcsICctaW1hZScsICc8aW5maWxlLm1hZT4nLCAnLW9tYWUnLCAnPG91dGZpbGUubWFlPic=

>  <s_epik_input>  (1) 
bjFbY0hdW2NIXXNbY0hdMQ==

>  <s_glide_docking_method>  (1) 
confgen

>  <s_i_glide_gridfile>  (1) 
gpcr_drd2_6luq_protein_autoprepared_prepared

>  <s_lp_Force_Field>  (1) 
S-OPLS

>  <s_lp_Variant>  (1) 
Pocket2Mol_43_num_sample_50-1

>  <s_m_source_file>  (1) 
generated__ligand_Pocket2Mol_2026-05-06_prepared.sdf

>  <GenAI_Model>  (1) 
Pocket2Mol

>  <Protein>  (1) 
generic_title2

$$$$
Pocket2Mol_45_num_sample_50
     RDKit          3D

  0  0  0  0  0  0  0  0  0  0999 V3000
M  V30 BEGIN CTAB
M  V30 COUNTS 13 13 0 0 1
M  V30 BEGIN ATOM
M  V30 1 O 11.237148 8.061431 -5.287669 0
M  V30 2 C 11.099871 8.805119 -6.485421 0
M  V30 3 C 9.826912 8.230476 -7.095615 0
M  V30 4 C 10.938655 6.707025 -5.600208 0
M  V30 5 C 9.862311 6.767230 -6.689578 0
M  V30 6 H 11.031496 9.875776 -6.291667 0
M  V30 7 H 11.960931 8.624597 -7.131380 0
M  V30 8 H 8.951552 8.707236 -6.652553 0
M  V30 9 H 9.769687 8.372209 -8.175411 0
M  V30 10 H 11.835002 6.213214 -5.977940 0
M  V30 11 H 10.604480 6.168071 -4.713156 0
M  V30 12 H 10.122228 6.120491 -7.528254 0
M  V30 13 H 8.890014 6.449661 -6.309233 0
M  V30 END ATOM
M  V30 BEGIN BOND
M  V30 1 1 2 1
M  V30 2 1 3 2
M  V30 3 1 4 1
M  V30 4 1 5 3
M  V30 5 1 5 4
M  V30 6 1 6 2
M  V30 7 1 7 2
M  V30 8 1 8 3
M  V30 9 1 9 3
M  V30 10 1 10 4
M  V30 11 1 11 4
M  V30 12 1 12 5
M  V30 13 1 13 5
M  V30 END BOND
M  V30 END CTAB
M  END
>  <i_epik_Tot_Q>  (1) 
0

>  <i_epik_Tot_abs_Q>  (1) 
0

>  <i_i_glide_confnum>  (1) 
2

>  <i_i_glide_lignum>  (1) 
51

>  <i_i_glide_posenum>  (1) 
362

>  <i_i_glide_rotatable_bonds>  (1) 
0

>  <i_lp_mmshare_version>  (1) 
72125

>  <i_m_source_file_index>  (1) 
46

>  <i_f3d_flags>  (1) 
0

>  <num_sample>  (1) 
50

>  <b_lp_Chiralities_Consistent>  (1) 
1

>  <r_epik_Charging_Adjusted_Penalty>  (1) 
0

>  <r_epik_Ionization_Penalty>  (1) 
1.3889264151150229e-11

>  <r_epik_Ionization_Penalty_Charging>  (1) 
0

>  <r_epik_Ionization_Penalty_Neutral>  (1) 
1.3889264151150229e-11

>  <r_epik_State_Penalty>  (1) 
-0

>  <r_glide_ring_energy>  (1) 
9.8467329014132268e-05

>  <r_i_docking_score>  (1) 
-3.9906111661653312

>  <r_i_glide_ecoul>  (1) 
-0.89299126573821663

>  <r_i_glide_eff_state_penalty>  (1) 
-0

>  <r_i_glide_einternal>  (1) 
0

>  <r_i_glide_emodel>  (1) 
-16.929022480372534

>  <r_i_glide_emodel_strain>  (1) 
0.00063436942428651832

>  <r_i_glide_energy>  (1) 
-13.574803280658827

>  <r_i_glide_erotb>  (1) 
0

>  <r_i_glide_esite>  (1) 
0

>  <r_i_glide_evdw>  (1) 
-12.681812014920611

>  <r_i_glide_gscore>  (1) 
-3.9906111661653312

>  <r_i_glide_gscore_strain>  (1) 
0

>  <r_i_glide_hbond>  (1) 
0

>  <r_i_glide_ligand_efficiency>  (1) 
-0.79812223323306619

>  <r_i_glide_ligand_efficiency_ln>  (1) 
-1.5292991441374681

>  <r_i_glide_ligand_efficiency_sa>  (1) 
-1.3647698213364321

>  <r_i_glide_lipo>  (1) 
-0.66133767132103349

>  <r_i_glide_metal>  (1) 
-0

>  <r_i_glide_rewards>  (1) 
-2.5612342042375347

>  <r_lp_Energy>  (1) 
3.9173999999999998

>  <r_lp_tautomer_probability>  (1) 
1

>  <s_epik_cmdline>  (1) 
J2VwaWtfcHl0aG9uJywgJy1waHQnLCAnMS4wJywgJy1waCcsICc3LjQnLCAnLXRuJywgJzgnLCAnLW1hJywgJzUwMCcsICctaW1hZScsICc8aW5maWxlLm1hZT4nLCAnLW9tYWUnLCAnPG91dGZpbGUubWFlPic=

>  <s_epik_input>  (1) 
TzFbQ0gyXVtDSDJdW0NIMl1bQ0gyXTE=

>  <s_glide_docking_method>  (1) 
confgen

>  <s_i_glide_gridfile>  (1) 
gpcr_drd2_6luq_protein_autoprepared_prepared

>  <s_lp_Force_Field>  (1) 
S-OPLS

>  <s_lp_Variant>  (1) 
Pocket2Mol_45_num_sample_50-1

>  <s_m_source_file>  (1) 
generated__ligand_Pocket2Mol_2026-05-06_prepared.sdf

>  <GenAI_Model>  (1) 
Pocket2Mol

>  <Protein>  (1) 
generic_title2

$$$$
Pocket2Mol_21_num_sample_50
     RDKit          3D

  0  0  0  0  0  0  0  0  0  0999 V3000
M  V30 BEGIN CTAB
M  V30 COUNTS 9 9 0 0 1
M  V30 BEGIN ATOM
M  V30 1 C 10.207426 7.770711 -9.067545 0
M  V30 2 O 11.250669 8.080741 -9.895285 0
M  V30 3 C 12.234842 8.569292 -9.083336 0
M  V30 4 C 10.516749 8.049398 -7.767627 0
M  V30 5 C 11.834839 8.569298 -7.777778 0
M  V30 6 H 9.331745 7.369148 -9.559259 0
M  V30 7 H 13.141241 8.869634 -9.588963 0
M  V30 8 H 9.869839 7.898550 -6.915493 0
M  V30 9 H 12.420308 8.904959 -6.935111 0
M  V30 END ATOM
M  V30 BEGIN BOND
M  V30 1 1 2 1
M  V30 2 1 3 2
M  V30 3 2 4 1
M  V30 4 2 5 3
M  V30 5 1 5 4
M  V30 6 1 6 1
M  V30 7 1 7 3
M  V30 8 1 8 4
M  V30 9 1 9 5
M  V30 END BOND
M  V30 END CTAB
M  END
>  <i_epik_Tot_Q>  (1) 
0

>  <i_epik_Tot_abs_Q>  (1) 
0

>  <i_i_glide_confnum>  (1) 
1

>  <i_i_glide_lignum>  (1) 
25

>  <i_i_glide_posenum>  (1) 
391

>  <i_i_glide_rotatable_bonds>  (1) 
0

>  <i_lp_mmshare_version>  (1) 
72125

>  <i_m_source_file_index>  (1) 
22

>  <i_f3d_flags>  (1) 
0

>  <num_sample>  (1) 
50

>  <b_lp_Chiralities_Consistent>  (1) 
1

>  <r_epik_Charging_Adjusted_Penalty>  (1) 
0

>  <r_epik_Ionization_Penalty>  (1) 
0

>  <r_epik_Ionization_Penalty_Charging>  (1) 
0

>  <r_epik_Ionization_Penalty_Neutral>  (1) 
0

>  <r_epik_State_Penalty>  (1) 
-0

>  <r_glide_ring_energy>  (1) 
0

>  <r_i_docking_score>  (1) 
-3.9831136720572156

>  <r_i_glide_ecoul>  (1) 
-1.3300701368839873

>  <r_i_glide_eff_state_penalty>  (1) 
-0

>  <r_i_glide_einternal>  (1) 
0

>  <r_i_glide_emodel>  (1) 
-14.871101883757003

>  <r_i_glide_emodel_strain>  (1) 
0

>  <r_i_glide_energy>  (1) 
-11.745981129919294

>  <r_i_glide_erotb>  (1) 
0

>  <r_i_glide_esite>  (1) 
0

>  <r_i_glide_evdw>  (1) 
-10.415910993035306

>  <r_i_glide_gscore>  (1) 
-3.9831136720572156

>  <r_i_glide_gscore_strain>  (1) 
0

>  <r_i_glide_hbond>  (1) 
0

>  <r_i_glide_ligand_efficiency>  (1) 
-0.79662273441144316

>  <r_i_glide_ligand_efficiency_ln>  (1) 
-1.5264259222560852

>  <r_i_glide_ligand_efficiency_sa>  (1) 
-1.3622057144193864

>  <r_i_glide_lipo>  (1) 
-0.59614093520618516

>  <r_i_glide_metal>  (1) 
-0

>  <r_i_glide_rewards>  (1) 
-2.666666666666667

>  <r_lp_Energy>  (1) 
2.5980879999999997

>  <r_lp_tautomer_probability>  (1) 
1

>  <s_epik_cmdline>  (1) 
J2VwaWtfcHl0aG9uJywgJy1waHQnLCAnMS4wJywgJy1waCcsICc3LjQnLCAnLXRuJywgJzgnLCAnLW1hJywgJzUwMCcsICctaW1hZScsICc8aW5maWxlLm1hZT4nLCAnLW9tYWUnLCAnPG91dGZpbGUubWFlPic=

>  <s_epik_input>  (1) 
W2NIXTFvW2NIXVtjSF1bY0hdMQ==

>  <s_glide_docking_method>  (1) 
confgen

>  <s_i_glide_gridfile>  (1) 
gpcr_drd2_6luq_protein_autoprepared_prepared

>  <s_lp_Force_Field>  (1) 
S-OPLS

>  <s_lp_Variant>  (1) 
Pocket2Mol_21_num_sample_50-1

>  <s_m_source_file>  (1) 
generated__ligand_Pocket2Mol_2026-05-06_prepared.sdf

>  <GenAI_Model>  (1) 
Pocket2Mol

>  <Protein>  (1) 
generic_title2

$$$$
Pocket2Mol_1_num_sample_50
     RDKit          3D

  0  0  0  0  0  0  0  0  0  0999 V3000
M  V30 BEGIN CTAB
M  V30 COUNTS 10 10 0 0 1
M  V30 BEGIN ATOM
M  V30 1 N 12.234745 6.880275 -2.301692 0
M  V30 2 C 11.834837 6.742435 -3.606329 0
M  V30 3 C 11.834839 7.995418 -4.159585 0
M  V30 4 C 12.248196 8.916620 -3.142938 0
M  V30 5 C 12.489746 8.195982 -2.004858 0
M  V30 6 H 12.326521 6.114495 -1.647698 0
M  V30 7 H 11.589093 5.773496 -4.018758 0
M  V30 8 H 11.565678 8.227623 -5.179857 0
M  V30 9 H 12.356496 9.984752 -3.237769 0
M  V30 10 H 12.816837 8.497398 -1.021061 0
M  V30 END ATOM
M  V30 BEGIN BOND
M  V30 1 1 2 1
M  V30 2 2 3 2
M  V30 3 1 4 3
M  V30 4 1 5 1
M  V30 5 2 5 4
M  V30 6 1 6 1
M  V30 7 1 7 2
M  V30 8 1 8 3
M  V30 9 1 9 4
M  V30 10 1 10 5
M  V30 END BOND
M  V30 END CTAB
M  END
>  <i_epik_Tot_Q>  (1) 
0

>  <i_epik_Tot_abs_Q>  (1) 
0

>  <i_i_glide_confnum>  (1) 
1

>  <i_i_glide_lignum>  (1) 
2

>  <i_i_glide_posenum>  (1) 
271

>  <i_i_glide_rotatable_bonds>  (1) 
0

>  <i_lp_mmshare_version>  (1) 
72125

>  <i_m_source_file_index>  (1) 
2

>  <i_f3d_flags>  (1) 
0

>  <num_sample>  (1) 
50

>  <b_lp_Chiralities_Consistent>  (1) 
1

>  <r_epik_Charging_Adjusted_Penalty>  (1) 
0

>  <r_epik_Ionization_Penalty>  (1) 
4.7655302421719939e-09

>  <r_epik_Ionization_Penalty_Charging>  (1) 
0

>  <r_epik_Ionization_Penalty_Neutral>  (1) 
4.7655302421719939e-09

>  <r_epik_State_Penalty>  (1) 
-0

>  <r_glide_ring_energy>  (1) 
0

>  <r_i_docking_score>  (1) 
-3.9779240283973354

>  <r_i_glide_ecoul>  (1) 
-1.0096427338468978

>  <r_i_glide_eff_state_penalty>  (1) 
-0

>  <r_i_glide_einternal>  (1) 
0

>  <r_i_glide_emodel>  (1) 
-17.518710288014596

>  <r_i_glide_emodel_strain>  (1) 
0

>  <r_i_glide_energy>  (1) 
-12.996662893097035

>  <r_i_glide_erotb>  (1) 
0

>  <r_i_glide_esite>  (1) 
0

>  <r_i_glide_evdw>  (1) 
-11.987020159250138

>  <r_i_glide_gscore>  (1) 
-3.9779240283973354

>  <r_i_glide_gscore_strain>  (1) 
0

>  <r_i_glide_hbond>  (1) 
0

>  <r_i_glide_ligand_efficiency>  (1) 
-0.7955848056794671

>  <r_i_glide_ligand_efficiency_ln>  (1) 
-1.5244371247318556

>  <r_i_glide_ligand_efficiency_sa>  (1) 
-1.3604308812533428

>  <r_i_glide_lipo>  (1) 
-0.9771266103577938

>  <r_i_glide_metal>  (1) 
-0

>  <r_i_glide_rewards>  (1) 
-2.25

>  <r_lp_Energy>  (1) 
2.9132020000000001

>  <r_lp_tautomer_probability>  (1) 
1

>  <s_epik_cmdline>  (1) 
J2VwaWtfcHl0aG9uJywgJy1waHQnLCAnMS4wJywgJy1waCcsICc3LjQnLCAnLXRuJywgJzgnLCAnLW1hJywgJzUwMCcsICctaW1hZScsICc8aW5maWxlLm1hZT4nLCAnLW9tYWUnLCAnPG91dGZpbGUubWFlPic=

>  <s_epik_input>  (1) 
W25IXTFbY0hdW2NIXVtjSF1bY0hdMQ==

>  <s_glide_docking_method>  (1) 
confgen

>  <s_i_glide_gridfile>  (1) 
gpcr_drd2_6luq_protein_autoprepared_prepared

>  <s_lp_Force_Field>  (1) 
S-OPLS

>  <s_lp_Variant>  (1) 
Pocket2Mol_1_num_sample_50-1

>  <s_m_source_file>  (1) 
generated__ligand_Pocket2Mol_2026-05-06_prepared.sdf

>  <GenAI_Model>  (1) 
Pocket2Mol

>  <Protein>  (1) 
generic_title2

$$$$
Pocket2Mol_44_num_sample_50
     RDKit          3D

  0  0  0  0  0  0  0  0  0  0999 V3000
M  V30 BEGIN CTAB
M  V30 COUNTS 15 16 0 0 1
M  V30 BEGIN ATOM
M  V30 1 C 9.783372 7.610868 -7.261458 0
M  V30 2 O 10.165745 6.569172 -6.306499 0
M  V30 3 C 10.888149 7.304471 -5.460826 0
M  V30 4 C 10.992248 8.589593 -5.800091 0
M  V30 5 C 11.717060 9.491084 -5.003245 0
M  V30 6 N 12.315160 9.028075 -3.874488 0 CHG=1
M  V30 7 C 12.234838 7.723735 -3.491680 0
M  V30 8 C 11.500210 6.809275 -4.291672 0
M  V30 9 O 10.355082 8.916672 -6.924661 0
M  V30 10 H 8.693934 7.692994 -7.273975 0
M  V30 11 H 10.110717 7.322671 -8.260693 0
M  V30 12 H 11.834754 10.542470 -5.220187 0
M  V30 13 H 12.745779 7.459781 -2.575808 0
M  V30 14 H 11.413881 5.769459 -4.015775 0
M  V30 15 H 12.842277 9.681045 -3.291082 0
M  V30 END ATOM
M  V30 BEGIN BOND
M  V30 1 1 2 1
M  V30 2 1 3 2
M  V30 3 2 4 3
M  V30 4 1 5 4
M  V30 5 2 6 5
M  V30 6 1 7 6
M  V30 7 1 8 3
M  V30 8 2 8 7
M  V30 9 1 9 1
M  V30 10 1 9 4
M  V30 11 1 10 1
M  V30 12 1 11 1
M  V30 13 1 12 5
M  V30 14 1 13 7
M  V30 15 1 14 8
M  V30 16 1 15 6
M  V30 END BOND
M  V30 END CTAB
M  END
>  <i_epik_Tot_Q>  (1) 
1

>  <i_epik_Tot_abs_Q>  (1) 
1

>  <i_i_glide_confnum>  (1) 
1

>  <i_i_glide_lignum>  (1) 
50

>  <i_i_glide_posenum>  (1) 
61

>  <i_i_glide_rotatable_bonds>  (1) 
0

>  <i_lp_mmshare_version>  (1) 
72125

>  <i_m_source_file_index>  (1) 
45

>  <i_f3d_flags>  (1) 
0

>  <num_sample>  (1) 
50

>  <b_lp_Chiralities_Consistent>  (1) 
1

>  <r_epik_Charging_Adjusted_Penalty>  (1) 
2.6035637255513002

>  <r_epik_Ionization_Penalty>  (1) 
1.3017818627756499

>  <r_epik_Ionization_Penalty_Charging>  (1) 
1.3017818627756499

>  <r_epik_Ionization_Penalty_Neutral>  (1) 
0

>  <r_epik_State_Penalty>  (1) 
1.3017818627756503

>  <r_glide_ring_energy>  (1) 
0

>  <r_i_docking_score>  (1) 
-3.96280489814154

>  <r_i_glide_ecoul>  (1) 
-1.459645375594101

>  <r_i_glide_eff_state_penalty>  (1) 
1.3017818627756503

>  <r_i_glide_einternal>  (1) 
0

>  <r_i_glide_emodel>  (1) 
-27.996141549763863

>  <r_i_glide_emodel_strain>  (1) 
0

>  <r_i_glide_energy>  (1) 
-18.226815007184985

>  <r_i_glide_erotb>  (1) 
0

>  <r_i_glide_esite>  (1) 
-0.05627014180930643

>  <r_i_glide_evdw>  (1) 
-16.767169631590885

>  <r_i_glide_gscore>  (1) 
-5.2645867609171901

>  <r_i_glide_gscore_strain>  (1) 
0

>  <r_i_glide_hbond>  (1) 
0

>  <r_i_glide_ligand_efficiency>  (1) 
-0.44031165534906003

>  <r_i_glide_ligand_efficiency_ln>  (1) 
-1.2394515312537622

>  <r_i_glide_ligand_efficiency_sa>  (1) 
-0.91588515139278526

>  <r_i_glide_lipo>  (1) 
-1.4615715522757837

>  <r_i_glide_metal>  (1) 
-0

>  <r_i_glide_rewards>  (1) 
-2.6894397789134405

>  <r_lp_Energy>  (1) 
25.893000999999998

>  <s_epik_Chemistry_Notes>  (1) 
This compound contains an acetal/aminal-like group ( X-CH(R)-Y where X, Y are N, S, or O) that may be acid/base labile, releasing an aldehyde.

>  <s_epik_cmdline>  (1) 
J2VwaWtfcHl0aG9uJywgJy1waHQnLCAnMS4wJywgJy1waCcsICc3LjQnLCAnLXRuJywgJzgnLCAnLW1hJywgJzUwMCcsICctaW1hZScsICc8aW5maWxlLm1hZT4nLCAnLW9tYWUnLCAnPG91dGZpbGUubWFlPic=

>  <s_epik_input>  (1) 
TzFbQ0gyXU9jKGMxMilbY0hdbltjSF1bY0hdMg==

>  <s_glide_docking_method>  (1) 
confgen

>  <s_i_glide_gridfile>  (1) 
gpcr_drd2_6luq_protein_autoprepared_prepared

>  <s_lp_Force_Field>  (1) 
S-OPLS

>  <s_lp_Variant>  (1) 
Pocket2Mol_44_num_sample_50-2

>  <s_m_source_file>  (1) 
generated__ligand_Pocket2Mol_2026-05-06_prepared.sdf

>  <GenAI_Model>  (1) 
Pocket2Mol

>  <Protein>  (1) 
generic_title2

$$$$
Pocket2Mol_0_num_sample_50
     RDKit          3D

  0  0  0  0  0  0  0  0  0  0999 V3000
M  V30 BEGIN CTAB
M  V30 COUNTS 10 10 0 0 1
M  V30 BEGIN ATOM
M  V30 1 N 10.559806 8.869378 -6.291771 0
M  V30 2 C 11.034762 7.854403 -5.516581 0
M  V30 3 C 10.634839 6.669305 -5.859300 0
M  V30 4 C 9.834848 8.169314 -7.121649 0
M  V30 5 C 9.736193 6.596646 -7.017484 0
M  V30 6 H 11.693772 8.082089 -4.691248 0
M  V30 7 H 10.928523 5.769304 -5.338294 0
M  V30 8 H 9.258272 8.628617 -7.929411 0
M  V30 9 H 8.728755 6.255890 -6.774372 0
M  V30 10 H 10.169351 6.086715 -7.877817 0
M  V30 END ATOM
M  V30 BEGIN BOND
M  V30 1 1 2 1
M  V30 2 2 3 2
M  V30 3 2 4 1
M  V30 4 1 5 3
M  V30 5 1 5 4
M  V30 6 1 6 2
M  V30 7 1 7 3
M  V30 8 1 8 4
M  V30 9 1 9 5
M  V30 10 1 10 5
M  V30 END BOND
M  V30 END CTAB
M  END
>  <i_epik_Tot_Q>  (1) 
0

>  <i_epik_Tot_abs_Q>  (1) 
0

>  <i_i_glide_confnum>  (1) 
1

>  <i_i_glide_lignum>  (1) 
1

>  <i_i_glide_posenum>  (1) 
205

>  <i_i_glide_rotatable_bonds>  (1) 
0

>  <i_lp_mmshare_version>  (1) 
72125

>  <i_m_source_file_index>  (1) 
1

>  <i_f3d_flags>  (1) 
0

>  <num_sample>  (1) 
50

>  <b_lp_Chiralities_Consistent>  (1) 
1

>  <r_epik_Charging_Adjusted_Penalty>  (1) 
0

>  <r_epik_Ionization_Penalty>  (1) 
0

>  <r_epik_Ionization_Penalty_Charging>  (1) 
0

>  <r_epik_Ionization_Penalty_Neutral>  (1) 
0

>  <r_epik_State_Penalty>  (1) 
-0

>  <r_glide_ring_energy>  (1) 
0

>  <r_i_docking_score>  (1) 
-3.9446333418902655

>  <r_i_glide_ecoul>  (1) 
-1.5944524642309958

>  <r_i_glide_eff_state_penalty>  (1) 
-0

>  <r_i_glide_einternal>  (1) 
0

>  <r_i_glide_emodel>  (1) 
-18.054061802881012

>  <r_i_glide_emodel_strain>  (1) 
0

>  <r_i_glide_energy>  (1) 
-14.361930969106966

>  <r_i_glide_erotb>  (1) 
0

>  <r_i_glide_esite>  (1) 
-0.029393497992842011

>  <r_i_glide_evdw>  (1) 
-12.767478504875971

>  <r_i_glide_gscore>  (1) 
-3.9446333418902655

>  <r_i_glide_gscore_strain>  (1) 
0

>  <r_i_glide_hbond>  (1) 
0

>  <r_i_glide_ligand_efficiency>  (1) 
-0.78892666837805314

>  <r_i_glide_ligand_efficiency_ln>  (1) 
-1.5116793249204714

>  <r_i_glide_ligand_efficiency_sa>  (1) 
-1.349045626618254

>  <r_i_glide_lipo>  (1) 
-0.50436471568564234

>  <r_i_glide_metal>  (1) 
-0

>  <r_i_glide_rewards>  (1) 
-2.5333333333333332

>  <r_lp_Energy>  (1) 
-2.9532909999999997

>  <r_lp_tautomer_probability>  (1) 
1

>  <s_epik_Chemistry_Notes>  (1) 
This compound has an imine and may undergo hydrolysis.

>  <s_epik_cmdline>  (1) 
J2VwaWtfcHl0aG9uJywgJy1waHQnLCAnMS4wJywgJy1waCcsICc3LjQnLCAnLXRuJywgJzgnLCAnLW1hJywgJzUwMCcsICctaW1hZScsICc8aW5maWxlLm1hZT4nLCAnLW9tYWUnLCAnPG91dGZpbGUubWFlPic=

>  <s_epik_input>  (1) 
TjE9W0NIXVtDSDJdW0NIXT1bQ0hdMQ==

>  <s_glide_docking_method>  (1) 
confgen

>  <s_i_glide_gridfile>  (1) 
gpcr_drd2_6luq_protein_autoprepared_prepared

>  <s_lp_Force_Field>  (1) 
S-OPLS

>  <s_lp_Variant>  (1) 
Pocket2Mol_0_num_sample_50-1

>  <s_m_source_file>  (1) 
generated__ligand_Pocket2Mol_2026-05-06_prepared.sdf

>  <GenAI_Model>  (1) 
Pocket2Mol

>  <Protein>  (1) 
generic_title2

$$$$
Pocket2Mol_44_num_sample_50
     RDKit          3D

  0  0  0  0  0  0  0  0  0  0999 V3000
M  V30 BEGIN CTAB
M  V30 COUNTS 15 16 0 0 1
M  V30 BEGIN ATOM
M  V30 1 C 9.725244 7.462177 -7.327991 0
M  V30 2 O 10.277330 8.785507 -7.029029 0
M  V30 3 C 10.911165 8.503594 -5.890019 0
M  V30 4 C 10.821799 7.229055 -5.511809 0
M  V30 5 C 11.434861 6.781373 -4.328864 0
M  V30 6 N 12.122646 7.674217 -3.572888 0 CHG=1
M  V30 7 C 12.234915 8.984241 -3.921094 0
M  V30 8 C 11.620255 9.442923 -5.115627 0
M  V30 9 O 10.114065 6.457442 -6.337610 0
M  V30 10 H 10.068193 7.141245 -8.312276 0
M  V30 11 H 8.634839 7.530378 -7.354733 0
M  V30 12 H 11.398737 5.769301 -3.966304 0
M  V30 13 H 12.802636 9.610187 -3.247492 0
M  V30 14 H 11.690571 10.477460 -5.421518 0
M  V30 15 H 12.567573 7.352254 -2.711730 0
M  V30 END ATOM
M  V30 BEGIN BOND
M  V30 1 1 2 1
M  V30 2 1 3 2
M  V30 3 2 4 3
M  V30 4 1 5 4
M  V30 5 2 6 5
M  V30 6 1 7 6
M  V30 7 1 8 3
M  V30 8 2 8 7
M  V30 9 1 9 1
M  V30 10 1 9 4
M  V30 11 1 10 1
M  V30 12 1 11 1
M  V30 13 1 12 5
M  V30 14 1 13 7
M  V30 15 1 14 8
M  V30 16 1 15 6
M  V30 END BOND
M  V30 END CTAB
M  END
>  <i_epik_Tot_Q>  (1) 
1

>  <i_epik_Tot_abs_Q>  (1) 
1

>  <i_i_glide_confnum>  (1) 
1

>  <i_i_glide_lignum>  (1) 
50

>  <i_i_glide_posenum>  (1) 
246

>  <i_i_glide_rotatable_bonds>  (1) 
0

>  <i_lp_mmshare_version>  (1) 
72125

>  <i_m_source_file_index>  (1) 
45

>  <i_f3d_flags>  (1) 
0

>  <num_sample>  (1) 
50

>  <b_lp_Chiralities_Consistent>  (1) 
1

>  <r_epik_Charging_Adjusted_Penalty>  (1) 
2.6035637255513002

>  <r_epik_Ionization_Penalty>  (1) 
1.3017818627756499

>  <r_epik_Ionization_Penalty_Charging>  (1) 
1.3017818627756499

>  <r_epik_Ionization_Penalty_Neutral>  (1) 
0

>  <r_epik_State_Penalty>  (1) 
1.3017818627756503

>  <r_glide_ring_energy>  (1) 
0

>  <r_i_docking_score>  (1) 
-3.9321702904375506

>  <r_i_glide_ecoul>  (1) 
-1.3607117790901915

>  <r_i_glide_eff_state_penalty>  (1) 
1.3017818627756503

>  <r_i_glide_einternal>  (1) 
0

>  <r_i_glide_emodel>  (1) 
-28.253976480183809

>  <r_i_glide_emodel_strain>  (1) 
0

>  <r_i_glide_energy>  (1) 
-18.541497606710859

>  <r_i_glide_erotb>  (1) 
0

>  <r_i_glide_esite>  (1) 
-0.056595085802654078

>  <r_i_glide_evdw>  (1) 
-17.180785827620667

>  <r_i_glide_gscore>  (1) 
-5.2339521532132007

>  <r_i_glide_gscore_strain>  (1) 
0

>  <r_i_glide_hbond>  (1) 
0

>  <r_i_glide_ligand_efficiency>  (1) 
-0.43690781004861673

>  <r_i_glide_ligand_efficiency_ln>  (1) 
-1.2298699060150644

>  <r_i_glide_ligand_efficiency_sa>  (1) 
-0.90880486784716197

>  <r_i_glide_lipo>  (1) 
-1.4793664756837401

>  <r_i_glide_metal>  (1) 
-0

>  <r_i_glide_rewards>  (1) 
-2.6348445334822443

>  <r_lp_Energy>  (1) 
25.893000999999998

>  <s_epik_Chemistry_Notes>  (1) 
This compound contains an acetal/aminal-like group ( X-CH(R)-Y where X, Y are N, S, or O) that may be acid/base labile, releasing an aldehyde.

>  <s_epik_cmdline>  (1) 
J2VwaWtfcHl0aG9uJywgJy1waHQnLCAnMS4wJywgJy1waCcsICc3LjQnLCAnLXRuJywgJzgnLCAnLW1hJywgJzUwMCcsICctaW1hZScsICc8aW5maWxlLm1hZT4nLCAnLW9tYWUnLCAnPG91dGZpbGUubWFlPic=

>  <s_epik_input>  (1) 
TzFbQ0gyXU9jKGMxMilbY0hdbltjSF1bY0hdMg==

>  <s_glide_docking_method>  (1) 
confgen

>  <s_i_glide_gridfile>  (1) 
gpcr_drd2_6luq_protein_autoprepared_prepared

>  <s_lp_Force_Field>  (1) 
S-OPLS

>  <s_lp_Variant>  (1) 
Pocket2Mol_44_num_sample_50-2

>  <s_m_source_file>  (1) 
generated__ligand_Pocket2Mol_2026-05-06_prepared.sdf

>  <GenAI_Model>  (1) 
Pocket2Mol

>  <Protein>  (1) 
generic_title2

$$$$
Pocket2Mol_5_num_sample_50
     RDKit          3D

  0  0  0  0  0  0  0  0  0  0999 V3000
M  V30 BEGIN CTAB
M  V30 COUNTS 14 14 0 0 1
M  V30 BEGIN ATOM
M  V30 1 C 9.444221 7.752245 -6.693685 0
M  V30 2 O 10.064173 8.969301 -6.292743 0
M  V30 3 C 9.834837 7.437135 -8.148990 0
M  V30 4 O 11.252044 7.353452 -8.245684 0
M  V30 5 C 11.474889 8.886981 -6.392861 0
M  V30 6 C 11.869026 8.569180 -7.847420 0
M  V30 7 H 9.737081 6.939073 -6.026933 0
M  V30 8 H 8.363859 7.862943 -6.606824 0
M  V30 9 H 9.396024 6.488869 -8.459735 0
M  V30 10 H 9.451710 8.202126 -8.826297 0
M  V30 11 H 11.914694 9.833722 -6.077836 0
M  V30 12 H 11.834833 8.117039 -5.710458 0
M  V30 13 H 11.573876 9.374227 -8.520151 0
M  V30 14 H 12.950493 8.464153 -7.933074 0
M  V30 END ATOM
M  V30 BEGIN BOND
M  V30 1 1 2 1
M  V30 2 1 3 1
M  V30 3 1 4 3
M  V30 4 1 5 2
M  V30 5 1 6 4
M  V30 6 1 6 5
M  V30 7 1 7 1
M  V30 8 1 8 1
M  V30 9 1 9 3
M  V30 10 1 10 3
M  V30 11 1 11 5
M  V30 12 1 12 5
M  V30 13 1 13 6
M  V30 14 1 14 6
M  V30 END BOND
M  V30 END CTAB
M  END
>  <i_epik_Tot_Q>  (1) 
0

>  <i_epik_Tot_abs_Q>  (1) 
0

>  <i_i_glide_confnum>  (1) 
2

>  <i_i_glide_lignum>  (1) 
6

>  <i_i_glide_posenum>  (1) 
91

>  <i_i_glide_rotatable_bonds>  (1) 
0

>  <i_lp_mmshare_version>  (1) 
72125

>  <i_m_source_file_index>  (1) 
6

>  <i_f3d_flags>  (1) 
0

>  <num_sample>  (1) 
50

>  <b_lp_Chiralities_Consistent>  (1) 
1

>  <r_epik_Charging_Adjusted_Penalty>  (1) 
0

>  <r_epik_Ionization_Penalty>  (1) 
8.3894707547109138e-13

>  <r_epik_Ionization_Penalty_Charging>  (1) 
0

>  <r_epik_Ionization_Penalty_Neutral>  (1) 
8.3894707547109138e-13

>  <r_epik_State_Penalty>  (1) 
-0

>  <r_glide_ring_energy>  (1) 
0.00013676017923054334

>  <r_i_docking_score>  (1) 
-3.9276767881074388

>  <r_i_glide_ecoul>  (1) 
-1.1826137322185812

>  <r_i_glide_eff_state_penalty>  (1) 
-0

>  <r_i_glide_einternal>  (1) 
0

>  <r_i_glide_emodel>  (1) 
-17.568525275229206

>  <r_i_glide_emodel_strain>  (1) 
0

>  <r_i_glide_energy>  (1) 
-14.015074227400177

>  <r_i_glide_erotb>  (1) 
0

>  <r_i_glide_esite>  (1) 
0

>  <r_i_glide_evdw>  (1) 
-12.832460495181596

>  <r_i_glide_gscore>  (1) 
-3.9276767881074388

>  <r_i_glide_gscore_strain>  (1) 
0

>  <r_i_glide_hbond>  (1) 
0

>  <r_i_glide_ligand_efficiency>  (1) 
-0.65461279801790651

>  <r_i_glide_ligand_efficiency_ln>  (1) 
-1.4068822301491017

>  <r_i_glide_ligand_efficiency_sa>  (1) 
-1.1895103956098041

>  <r_i_glide_lipo>  (1) 
-0.51699503684890513

>  <r_i_glide_metal>  (1) 
-0

>  <r_i_glide_rewards>  (1) 
-2.5916666666666668

>  <r_lp_Energy>  (1) 
4.9648199999999996

>  <r_lp_tautomer_probability>  (1) 
1

>  <s_epik_cmdline>  (1) 
J2VwaWtfcHl0aG9uJywgJy1waHQnLCAnMS4wJywgJy1waCcsICc3LjQnLCAnLXRuJywgJzgnLCAnLW1hJywgJzUwMCcsICctaW1hZScsICc8aW5maWxlLm1hZT4nLCAnLW9tYWUnLCAnPG91dGZpbGUubWFlPic=

>  <s_epik_input>  (1) 
W0NIMl0xT1tDSDJdW0NIMl1PW0NIMl0x

>  <s_glide_docking_method>  (1) 
confgen

>  <s_i_glide_gridfile>  (1) 
gpcr_drd2_6luq_protein_autoprepared_prepared

>  <s_lp_Force_Field>  (1) 
S-OPLS

>  <s_lp_Variant>  (1) 
Pocket2Mol_5_num_sample_50-1

>  <s_m_source_file>  (1) 
generated__ligand_Pocket2Mol_2026-05-06_prepared.sdf

>  <GenAI_Model>  (1) 
Pocket2Mol

>  <Protein>  (1) 
generic_title2

$$$$
Pocket2Mol_8_num_sample_50
     RDKit          3D

  0  0  0  0  0  0  0  0  0  0999 V3000
M  V30 BEGIN CTAB
M  V30 COUNTS 12 12 0 0 1
M  V30 BEGIN ATOM
M  V30 1 N 11.622439 8.058328 -9.438881 0
M  V30 2 C 11.437213 7.818806 -8.046876 0
M  V30 3 C 10.089958 7.671064 -7.741714 0
M  V30 4 C 10.362378 8.033931 -9.862404 0
M  V30 5 C 9.394758 7.409647 -6.450922 0
M  V30 6 N 9.441971 7.819868 -8.940458 0
M  V30 7 H 12.285158 7.771738 -7.380554 0
M  V30 8 H 10.110100 8.183168 -10.901461 0
M  V30 9 H 10.113184 7.328671 -5.633087 0
M  V30 10 H 8.704468 8.218249 -6.215275 0
M  V30 11 H 8.831928 6.477711 -6.495202 0
M  V30 12 H 8.415777 7.769413 -9.094420 0
M  V30 END ATOM
M  V30 BEGIN BOND
M  V30 1 1 2 1
M  V30 2 2 3 2
M  V30 3 2 4 1
M  V30 4 1 5 3
M  V30 5 1 6 3
M  V30 6 1 6 4
M  V30 7 1 7 2
M  V30 8 1 8 4
M  V30 9 1 9 5
M  V30 10 1 10 5
M  V30 11 1 11 5
M  V30 12 1 12 6
M  V30 END BOND
M  V30 END CTAB
M  END
>  <i_epik_Tot_Q>  (1) 
0

>  <i_epik_Tot_abs_Q>  (1) 
0

>  <i_i_glide_confnum>  (1) 
1

>  <i_i_glide_lignum>  (1) 
9

>  <i_i_glide_posenum>  (1) 
84

>  <i_i_glide_rotatable_bonds>  (1) 
0

>  <i_lp_mmshare_version>  (1) 
72125

>  <i_m_source_file_index>  (1) 
9

>  <i_f3d_flags>  (1) 
0

>  <num_sample>  (1) 
50

>  <b_lp_Chiralities_Consistent>  (1) 
1

>  <r_epik_Charging_Adjusted_Penalty>  (1) 
0.90509379346265462

>  <r_epik_Ionization_Penalty>  (1) 
0.31828505333430857

>  <r_epik_Ionization_Penalty_Charging>  (1) 
0.31828499876078775

>  <r_epik_Ionization_Penalty_Neutral>  (1) 
5.457352079622119e-08

>  <r_epik_State_Penalty>  (1) 
0.58680879470186686

>  <r_glide_ring_energy>  (1) 
0

>  <r_i_docking_score>  (1) 
-3.9253379406552393

>  <r_i_glide_ecoul>  (1) 
-8.8821993233193535

>  <r_i_glide_eff_state_penalty>  (1) 
0.58680879470186686

>  <r_i_glide_einternal>  (1) 
0

>  <r_i_glide_emodel>  (1) 
-24.065483618253229

>  <r_i_glide_emodel_strain>  (1) 
0

>  <r_i_glide_energy>  (1) 
-18.028894377860329

>  <r_i_glide_erotb>  (1) 
0

>  <r_i_glide_esite>  (1) 
-0.14312917932640287

>  <r_i_glide_evdw>  (1) 
-9.1466950545409755

>  <r_i_glide_gscore>  (1) 
-4.5121467353571063

>  <r_i_glide_gscore_strain>  (1) 
0

>  <r_i_glide_hbond>  (1) 
-0.14661126521371276

>  <r_i_glide_ligand_efficiency>  (1) 
-0.65422299010920659

>  <r_i_glide_ligand_efficiency_ln>  (1) 
-1.4060444618965073

>  <r_i_glide_ligand_efficiency_sa>  (1) 
-1.1888020676316566

>  <r_i_glide_lipo>  (1) 
-0.18274163959203793

>  <r_i_glide_metal>  (1) 
-0

>  <r_i_glide_rewards>  (1) 
-2.25

>  <r_lp_Energy>  (1) 
2.6351399999999998

>  <r_lp_tautomer_probability>  (1) 
0.49999999999999867

>  <s_epik_cmdline>  (1) 
J2VwaWtfcHl0aG9uJywgJy1waHQnLCAnMS4wJywgJy1waCcsICc3LjQnLCAnLXRuJywgJzgnLCAnLW1hJywgJzUwMCcsICctaW1hZScsICc8aW5maWxlLm1hZT4nLCAnLW9tYWUnLCAnPG91dGZpbGUubWFlPic=

>  <s_epik_input>  (1) 
W25IXTFbY0hdbltjSF1jMVtDSDNd

>  <s_glide_docking_method>  (1) 
confgen

>  <s_i_glide_gridfile>  (1) 
gpcr_drd2_6luq_protein_autoprepared_prepared

>  <s_lp_Force_Field>  (1) 
S-OPLS

>  <s_lp_Variant>  (1) 
Pocket2Mol_8_num_sample_50-1

>  <s_m_source_file>  (1) 
generated__ligand_Pocket2Mol_2026-05-06_prepared.sdf

>  <GenAI_Model>  (1) 
Pocket2Mol

>  <Protein>  (1) 
generic_title2

$$$$
Pocket2Mol_49_num_sample_50
     RDKit          3D

  0  0  0  0  0  0  0  0  0  0999 V3000
M  V30 BEGIN CTAB
M  V30 COUNTS 11 11 0 0 1
M  V30 BEGIN ATOM
M  V30 1 O 11.409551 7.899871 -5.077246 0
M  V30 2 C 10.634713 7.040132 -5.895199 0
M  V30 3 C 9.998611 7.980595 -6.914814 0
M  V30 4 C 11.434847 9.131155 -5.715806 0
M  V30 5 O 10.997817 8.969301 -7.017360 0
M  V30 6 H 11.299987 6.330688 -6.389807 0
M  V30 7 H 9.897821 6.479644 -5.319653 0
M  V30 8 H 9.786085 7.499813 -7.870343 0
M  V30 9 H 9.075197 8.418259 -6.530163 0
M  V30 10 H 10.760041 9.812068 -5.193969 0
M  V30 11 H 12.441277 9.550862 -5.700914 0
M  V30 END ATOM
M  V30 BEGIN BOND
M  V30 1 1 2 1
M  V30 2 1 3 2
M  V30 3 1 4 1
M  V30 4 1 5 3
M  V30 5 1 5 4
M  V30 6 1 6 2
M  V30 7 1 7 2
M  V30 8 1 8 3
M  V30 9 1 9 3
M  V30 10 1 10 4
M  V30 11 1 11 4
M  V30 END BOND
M  V30 END CTAB
M  END
>  <i_epik_Tot_Q>  (1) 
0

>  <i_epik_Tot_abs_Q>  (1) 
0

>  <i_i_glide_confnum>  (1) 
3

>  <i_i_glide_lignum>  (1) 
55

>  <i_i_glide_posenum>  (1) 
137

>  <i_i_glide_rotatable_bonds>  (1) 
0

>  <i_lp_mmshare_version>  (1) 
72125

>  <i_m_source_file_index>  (1) 
50

>  <i_f3d_flags>  (1) 
0

>  <num_sample>  (1) 
50

>  <b_lp_Chiralities_Consistent>  (1) 
1

>  <r_epik_Charging_Adjusted_Penalty>  (1) 
0

>  <r_epik_Ionization_Penalty>  (1) 
7.9724310449397378e-14

>  <r_epik_Ionization_Penalty_Charging>  (1) 
0

>  <r_epik_Ionization_Penalty_Neutral>  (1) 
7.9724310449397378e-14

>  <r_epik_State_Penalty>  (1) 
-0

>  <r_glide_ring_energy>  (1) 
0.2805525668492585

>  <r_i_docking_score>  (1) 
-3.9163469405919846

>  <r_i_glide_ecoul>  (1) 
-0.72596810303371218

>  <r_i_glide_eff_state_penalty>  (1) 
-0

>  <r_i_glide_einternal>  (1) 
0

>  <r_i_glide_emodel>  (1) 
-16.10723831712399

>  <r_i_glide_emodel_strain>  (1) 
0

>  <r_i_glide_energy>  (1) 
-12.676061595537778

>  <r_i_glide_erotb>  (1) 
0

>  <r_i_glide_esite>  (1) 
0

>  <r_i_glide_evdw>  (1) 
-11.950093492504065

>  <r_i_glide_gscore>  (1) 
-3.9163469405919846

>  <r_i_glide_gscore_strain>  (1) 
0

>  <r_i_glide_hbond>  (1) 
0

>  <r_i_glide_ligand_efficiency>  (1) 
-0.78326938811839697

>  <r_i_glide_ligand_efficiency_ln>  (1) 
-1.5008392887718838

>  <r_i_glide_ligand_efficiency_sa>  (1) 
-1.3393718134506329

>  <r_i_glide_lipo>  (1) 
-0.2682803838450577

>  <r_i_glide_metal>  (1) 
-0

>  <r_i_glide_rewards>  (1) 
-2.9416666666666664

>  <r_lp_Energy>  (1) 
-12.242958999999999

>  <r_lp_tautomer_probability>  (1) 
1

>  <s_epik_Chemistry_Notes>  (1) 
This compound contains an acetal/aminal-like group ( X-CH(R)-Y where X, Y are N, S, or O) that may be acid/base labile, releasing an aldehyde.

>  <s_epik_cmdline>  (1) 
J2VwaWtfcHl0aG9uJywgJy1waHQnLCAnMS4wJywgJy1waCcsICc3LjQnLCAnLXRuJywgJzgnLCAnLW1hJywgJzUwMCcsICctaW1hZScsICc8aW5maWxlLm1hZT4nLCAnLW9tYWUnLCAnPG91dGZpbGUubWFlPic=

>  <s_epik_input>  (1) 
TzFbQ0gyXVtDSDJdT1tDSDJdMQ==

>  <s_glide_docking_method>  (1) 
confgen

>  <s_i_glide_gridfile>  (1) 
gpcr_drd2_6luq_protein_autoprepared_prepared

>  <s_lp_Force_Field>  (1) 
S-OPLS

>  <s_lp_Variant>  (1) 
Pocket2Mol_49_num_sample_50-1

>  <s_m_source_file>  (1) 
generated__ligand_Pocket2Mol_2026-05-06_prepared.sdf

>  <GenAI_Model>  (1) 
Pocket2Mol

>  <Protein>  (1) 
generic_title2

$$$$
Pocket2Mol_46_num_sample_50
     RDKit          3D

  0  0  0  0  0  0  0  0  0  0999 V3000
M  V30 BEGIN CTAB
M  V30 COUNTS 8 8 0 0 1
M  V30 BEGIN ATOM
M  V30 1 N 11.834813 8.887422 -6.961636 0
M  V30 2 C 11.431468 8.569298 -8.312824 0
M  V30 3 C 10.234835 8.112841 -8.347469 0
M  V30 4 C 9.834839 8.113093 -7.091670 0
M  V30 5 C 10.789134 8.569302 -6.309103 0
M  V30 6 H 12.106095 8.718578 -9.143802 0
M  V30 7 H 9.677797 7.785945 -9.214809 0
M  V30 8 H 8.913567 7.658146 -6.753928 0
M  V30 END ATOM
M  V30 BEGIN BOND
M  V30 1 1 2 1
M  V30 2 2 3 2
M  V30 3 1 4 3
M  V30 4 2 5 1
M  V30 5 2 5 4
M  V30 6 1 6 2
M  V30 7 1 7 3
M  V30 8 1 8 4
M  V30 END BOND
M  V30 END CTAB
M  END
>  <i_epik_Tot_Q>  (1) 
0

>  <i_epik_Tot_abs_Q>  (1) 
0

>  <i_i_glide_confnum>  (1) 
1

>  <i_i_glide_lignum>  (1) 
52

>  <i_i_glide_posenum>  (1) 
135

>  <i_i_glide_rotatable_bonds>  (1) 
0

>  <i_lp_mmshare_version>  (1) 
72125

>  <i_m_source_file_index>  (1) 
47

>  <i_f3d_flags>  (1) 
0

>  <num_sample>  (1) 
50

>  <b_lp_Chiralities_Consistent>  (1) 
1

>  <r_epik_Charging_Adjusted_Penalty>  (1) 
0

>  <r_epik_Ionization_Penalty>  (1) 
0

>  <r_epik_Ionization_Penalty_Charging>  (1) 
0

>  <r_epik_Ionization_Penalty_Neutral>  (1) 
0

>  <r_epik_State_Penalty>  (1) 
-0

>  <r_glide_ring_energy>  (1) 
0

>  <r_i_docking_score>  (1) 
-3.9015478172985034

>  <r_i_glide_ecoul>  (1) 
-1.0904220728659404

>  <r_i_glide_eff_state_penalty>  (1) 
-0

>  <r_i_glide_einternal>  (1) 
0

>  <r_i_glide_emodel>  (1) 
-17.319327371713772

>  <r_i_glide_emodel_strain>  (1) 
3.979039320256561e-13

>  <r_i_glide_energy>  (1) 
-13.787935432777157

>  <r_i_glide_erotb>  (1) 
0

>  <r_i_glide_esite>  (1) 
0

>  <r_i_glide_evdw>  (1) 
-12.697513359911216

>  <r_i_glide_gscore>  (1) 
-3.9015478172985034

>  <r_i_glide_gscore_strain>  (1) 
0

>  <r_i_glide_hbond>  (1) 
0

>  <r_i_glide_ligand_efficiency>  (1) 
-0.78030956345970071

>  <r_i_glide_ligand_efficiency_ln>  (1) 
-1.4951679052057285

>  <r_i_glide_ligand_efficiency_sa>  (1) 
-1.3343105844778818

>  <r_i_glide_lipo>  (1) 
-0.52810883837305123

>  <r_i_glide_metal>  (1) 
-0

>  <r_i_glide_rewards>  (1) 
-2.5750000000000002

>  <r_lp_Energy>  (1) 
4.860805

>  <r_lp_tautomer_probability>  (1) 
1

>  <s_epik_Chemistry_Notes>  (1) 
This compound has an imine and may undergo hydrolysis.

>  <s_epik_cmdline>  (1) 
J2VwaWtfcHl0aG9uJywgJy1waHQnLCAnMS4wJywgJy1waCcsICc3LjQnLCAnLXRuJywgJzgnLCAnLW1hJywgJzUwMCcsICctaW1hZScsICc8aW5maWxlLm1hZT4nLCAnLW9tYWUnLCAnPG91dGZpbGUubWFlPic=

>  <s_epik_input>  (1) 
TjE9Qz1bQ0hdW0NIXT1bQ0hdMQ==

>  <s_glide_docking_method>  (1) 
confgen

>  <s_i_glide_gridfile>  (1) 
gpcr_drd2_6luq_protein_autoprepared_prepared

>  <s_lp_Force_Field>  (1) 
S-OPLS

>  <s_lp_Variant>  (1) 
Pocket2Mol_46_num_sample_50-1

>  <s_m_source_file>  (1) 
generated__ligand_Pocket2Mol_2026-05-06_prepared.sdf

>  <GenAI_Model>  (1) 
Pocket2Mol

>  <Protein>  (1) 
generic_title2

$$$$
Pocket2Mol_8_num_sample_50
     RDKit          3D

  0  0  0  0  0  0  0  0  0  0999 V3000
M  V30 BEGIN CTAB
M  V30 COUNTS 13 13 0 0 1
M  V30 BEGIN ATOM
M  V30 1 N 9.441369 7.896015 -8.845773 0 CHG=1
M  V30 2 C 10.460879 8.085790 -9.740321 0
M  V30 3 C 11.618283 8.196205 -9.009210 0
M  V30 4 C 9.921681 7.885101 -7.598846 0
M  V30 5 C 13.034677 8.410011 -9.423056 0
M  V30 6 N 11.243047 8.067168 -7.695621 0
M  V30 7 H 10.293461 8.127642 -10.807697 0
M  V30 8 H 9.355608 7.755098 -6.692525 0
M  V30 9 H 13.106426 8.484859 -10.508579 0
M  V30 10 H 13.422380 9.331186 -8.987075 0
M  V30 11 H 13.656319 7.577373 -9.092539 0
M  V30 12 H 11.877493 8.104330 -6.906327 0
M  V30 13 H 8.465176 7.780590 -9.091679 0
M  V30 END ATOM
M  V30 BEGIN BOND
M  V30 1 1 2 1
M  V30 2 2 3 2
M  V30 3 2 4 1
M  V30 4 1 5 3
M  V30 5 1 6 3
M  V30 6 1 6 4
M  V30 7 1 7 2
M  V30 8 1 8 4
M  V30 9 1 9 5
M  V30 10 1 10 5
M  V30 11 1 11 5
M  V30 12 1 12 6
M  V30 13 1 13 1
M  V30 END BOND
M  V30 END CTAB
M  END
>  <i_epik_Tot_Q>  (1) 
1

>  <i_epik_Tot_abs_Q>  (1) 
1

>  <i_i_glide_confnum>  (1) 
1

>  <i_i_glide_lignum>  (1) 
10

>  <i_i_glide_posenum>  (1) 
395

>  <i_i_glide_rotatable_bonds>  (1) 
0

>  <i_lp_mmshare_version>  (1) 
72125

>  <i_m_source_file_index>  (1) 
9

>  <i_f3d_flags>  (1) 
0

>  <num_sample>  (1) 
50

>  <b_lp_Chiralities_Consistent>  (1) 
1

>  <r_epik_Charging_Adjusted_Penalty>  (1) 
0.63910500234431922

>  <r_epik_Ionization_Penalty>  (1) 
0.82018112513013652

>  <r_epik_Ionization_Penalty_Charging>  (1) 
0

>  <r_epik_Ionization_Penalty_Neutral>  (1) 
0.82018112513013652

>  <r_epik_State_Penalty>  (1) 
0.63910500234431922

>  <r_glide_ring_energy>  (1) 
0

>  <r_i_docking_score>  (1) 
-3.8983435025593334

>  <r_i_glide_ecoul>  (1) 
-8.829002900790055

>  <r_i_glide_eff_state_penalty>  (1) 
0.63910500234431922

>  <r_i_glide_einternal>  (1) 
0

>  <r_i_glide_emodel>  (1) 
-24.282352938034279

>  <r_i_glide_emodel_strain>  (1) 
0

>  <r_i_glide_energy>  (1) 
-15.674316438613634

>  <r_i_glide_erotb>  (1) 
0

>  <r_i_glide_esite>  (1) 
-0.160712466533563

>  <r_i_glide_evdw>  (1) 
-6.8453135378235794

>  <r_i_glide_gscore>  (1) 
-4.5374485049036526

>  <r_i_glide_gscore_strain>  (1) 
0

>  <r_i_glide_hbond>  (1) 
-0.20000000000000001

>  <r_i_glide_ligand_efficiency>  (1) 
-0.64972391709322219

>  <r_i_glide_ligand_efficiency_ln>  (1) 
-1.3963751338639707

>  <r_i_glide_ligand_efficiency_sa>  (1) 
-1.1806267094056562

>  <r_i_glide_lipo>  (1) 
-0.26011992636040243

>  <r_i_glide_metal>  (1) 
-0

>  <r_i_glide_rewards>  (1) 
-2.25

>  <r_lp_Energy>  (1) 
7.4764169999999996

>  <r_lp_tautomer_probability>  (1) 
1

>  <s_epik_cmdline>  (1) 
J2VwaWtfcHl0aG9uJywgJy1waHQnLCAnMS4wJywgJy1waCcsICc3LjQnLCAnLXRuJywgJzgnLCAnLW1hJywgJzUwMCcsICctaW1hZScsICc8aW5maWxlLm1hZT4nLCAnLW9tYWUnLCAnPG91dGZpbGUubWFlPic=

>  <s_epik_input>  (1) 
W25IXTFbY0hdbltjSF1jMVtDSDNd

>  <s_glide_docking_method>  (1) 
confgen

>  <s_i_glide_gridfile>  (1) 
gpcr_drd2_6luq_protein_autoprepared_prepared

>  <s_lp_Force_Field>  (1) 
S-OPLS

>  <s_lp_Variant>  (1) 
Pocket2Mol_8_num_sample_50-2

>  <s_m_source_file>  (1) 
generated__ligand_Pocket2Mol_2026-05-06_prepared.sdf

>  <GenAI_Model>  (1) 
Pocket2Mol

>  <Protein>  (1) 
generic_title2

$$$$
Pocket2Mol_8_num_sample_50
     RDKit          3D

  0  0  0  0  0  0  0  0  0  0999 V3000
M  V30 BEGIN CTAB
M  V30 COUNTS 13 13 0 0 1
M  V30 BEGIN ATOM
M  V30 1 N 7.893275 6.169151 -11.091648 0 CHG=1
M  V30 2 C 7.327156 4.987851 -11.491162 0
M  V30 3 C 8.268638 4.336462 -12.260858 0
M  V30 4 C 9.128375 6.274245 -11.573864 0
M  V30 5 C 8.239224 3.023360 -12.966470 0
M  V30 6 N 9.365916 5.168026 -12.283162 0
M  V30 7 H 6.323186 4.702366 -11.204993 0
M  V30 8 H 9.808632 7.093629 -11.416512 0
M  V30 9 H 7.339060 2.469053 -12.696269 0
M  V30 10 H 8.243759 3.173162 -14.045923 0
M  V30 11 H 9.108979 2.424129 -12.692803 0
M  V30 12 H 10.236874 4.968505 -12.766887 0
M  V30 13 H 7.434839 6.872640 -10.485691 0
M  V30 END ATOM
M  V30 BEGIN BOND
M  V30 1 1 2 1
M  V30 2 2 3 2
M  V30 3 2 4 1
M  V30 4 1 5 3
M  V30 5 1 6 3
M  V30 6 1 6 4
M  V30 7 1 7 2
M  V30 8 1 8 4
M  V30 9 1 9 5
M  V30 10 1 10 5
M  V30 11 1 11 5
M  V30 12 1 12 6
M  V30 13 1 13 1
M  V30 END BOND
M  V30 END CTAB
M  END
>  <i_epik_Tot_Q>  (1) 
1

>  <i_epik_Tot_abs_Q>  (1) 
1

>  <i_i_glide_confnum>  (1) 
1

>  <i_i_glide_lignum>  (1) 
10

>  <i_i_glide_posenum>  (1) 
245

>  <i_i_glide_rotatable_bonds>  (1) 
0

>  <i_lp_mmshare_version>  (1) 
72125

>  <i_m_source_file_index>  (1) 
9

>  <i_f3d_flags>  (1) 
0

>  <num_sample>  (1) 
50

>  <b_lp_Chiralities_Consistent>  (1) 
1

>  <r_epik_Charging_Adjusted_Penalty>  (1) 
0.63910500234431922

>  <r_epik_Ionization_Penalty>  (1) 
0.82018112513013652

>  <r_epik_Ionization_Penalty_Charging>  (1) 
0

>  <r_epik_Ionization_Penalty_Neutral>  (1) 
0.82018112513013652

>  <r_epik_State_Penalty>  (1) 
0.63910500234431922

>  <r_glide_ring_energy>  (1) 
0

>  <r_i_docking_score>  (1) 
-3.888230152805507

>  <r_i_glide_ecoul>  (1) 
-8.7954830564169697

>  <r_i_glide_eff_state_penalty>  (1) 
0.63910500234431922

>  <r_i_glide_einternal>  (1) 
0

>  <r_i_glide_emodel>  (1) 
-24.222879684260683

>  <r_i_glide_emodel_strain>  (1) 
1.274991223709776e-11

>  <r_i_glide_energy>  (1) 
-15.634029316379845

>  <r_i_glide_erotb>  (1) 
0

>  <r_i_glide_esite>  (1) 
-0.12888951458794673

>  <r_i_glide_evdw>  (1) 
-6.8385462599628761

>  <r_i_glide_gscore>  (1) 
-4.5273351551498262

>  <r_i_glide_gscore_strain>  (1) 
0

>  <r_i_glide_hbond>  (1) 
-0.1991952642947557

>  <r_i_glide_ligand_efficiency>  (1) 
-0.64803835880091787

>  <r_i_glide_ligand_efficiency_ln>  (1) 
-1.3927525618389451

>  <r_i_glide_ligand_efficiency_sa>  (1) 
-1.1775638467222909

>  <r_i_glide_lipo>  (1) 
-0.28800060480643419

>  <r_i_glide_metal>  (1) 
-0

>  <r_i_glide_rewards>  (1) 
-2.25

>  <r_lp_Energy>  (1) 
7.4764169999999996

>  <r_lp_tautomer_probability>  (1) 
1

>  <s_epik_cmdline>  (1) 
J2VwaWtfcHl0aG9uJywgJy1waHQnLCAnMS4wJywgJy1waCcsICc3LjQnLCAnLXRuJywgJzgnLCAnLW1hJywgJzUwMCcsICctaW1hZScsICc8aW5maWxlLm1hZT4nLCAnLW9tYWUnLCAnPG91dGZpbGUubWFlPic=

>  <s_epik_input>  (1) 
W25IXTFbY0hdbltjSF1jMVtDSDNd

>  <s_glide_docking_method>  (1) 
confgen

>  <s_i_glide_gridfile>  (1) 
gpcr_drd2_6luq_protein_autoprepared_prepared

>  <s_lp_Force_Field>  (1) 
S-OPLS

>  <s_lp_Variant>  (1) 
Pocket2Mol_8_num_sample_50-2

>  <s_m_source_file>  (1) 
generated__ligand_Pocket2Mol_2026-05-06_prepared.sdf

>  <GenAI_Model>  (1) 
Pocket2Mol

>  <Protein>  (1) 
generic_title2

$$$$
Pocket2Mol_5_num_sample_50
     RDKit          3D

  0  0  0  0  0  0  0  0  0  0999 V3000
M  V30 BEGIN CTAB
M  V30 COUNTS 14 14 0 0 1
M  V30 BEGIN ATOM
M  V30 1 C 10.932762 6.617378 -5.766510 0
M  V30 2 O 10.674701 6.169185 -7.090339 0
M  V30 3 C 11.038320 8.151472 -5.778561 0
M  V30 4 O 9.834839 8.698798 -6.291554 0
M  V30 5 C 9.449209 6.699294 -7.576983 0
M  V30 6 C 9.564843 8.230327 -7.602941 0
M  V30 7 H 10.145890 6.284039 -5.087040 0
M  V30 8 H 11.861662 6.168757 -5.416865 0
M  V30 9 H 11.204233 8.532442 -4.770400 0
M  V30 10 H 11.881849 8.477675 -6.388211 0
M  V30 11 H 9.256708 6.316252 -8.579348 0
M  V30 12 H 8.620042 6.381550 -6.943938 0
M  V30 13 H 10.350074 8.550874 -8.288737 0
M  V30 14 H 8.634856 8.682326 -7.943140 0
M  V30 END ATOM
M  V30 BEGIN BOND
M  V30 1 1 2 1
M  V30 2 1 3 1
M  V30 3 1 4 3
M  V30 4 1 5 2
M  V30 5 1 6 4
M  V30 6 1 6 5
M  V30 7 1 7 1
M  V30 8 1 8 1
M  V30 9 1 9 3
M  V30 10 1 10 3
M  V30 11 1 11 5
M  V30 12 1 12 5
M  V30 13 1 13 6
M  V30 14 1 14 6
M  V30 END BOND
M  V30 END CTAB
M  END
>  <i_epik_Tot_Q>  (1) 
0

>  <i_epik_Tot_abs_Q>  (1) 
0

>  <i_i_glide_confnum>  (1) 
2

>  <i_i_glide_lignum>  (1) 
6

>  <i_i_glide_posenum>  (1) 
105

>  <i_i_glide_rotatable_bonds>  (1) 
0

>  <i_lp_mmshare_version>  (1) 
72125

>  <i_m_source_file_index>  (1) 
6

>  <i_f3d_flags>  (1) 
0

>  <num_sample>  (1) 
50

>  <b_lp_Chiralities_Consistent>  (1) 
1

>  <r_epik_Charging_Adjusted_Penalty>  (1) 
0

>  <r_epik_Ionization_Penalty>  (1) 
8.3894707547109138e-13

>  <r_epik_Ionization_Penalty_Charging>  (1) 
0

>  <r_epik_Ionization_Penalty_Neutral>  (1) 
8.3894707547109138e-13

>  <r_epik_State_Penalty>  (1) 
-0

>  <r_glide_ring_energy>  (1) 
0.00013676017923054334

>  <r_i_docking_score>  (1) 
-3.8841225240132951

>  <r_i_glide_ecoul>  (1) 
-0.86813135211172665

>  <r_i_glide_eff_state_penalty>  (1) 
-0

>  <r_i_glide_einternal>  (1) 
0

>  <r_i_glide_emodel>  (1) 
-17.461984389688496

>  <r_i_glide_emodel_strain>  (1) 
0

>  <r_i_glide_energy>  (1) 
-13.947937792310018

>  <r_i_glide_erotb>  (1) 
0

>  <r_i_glide_esite>  (1) 
0

>  <r_i_glide_evdw>  (1) 
-13.079806440198292

>  <r_i_glide_gscore>  (1) 
-3.8841225240132951

>  <r_i_glide_gscore_strain>  (1) 
0

>  <r_i_glide_hbond>  (1) 
0

>  <r_i_glide_ligand_efficiency>  (1) 
-0.64735375400221584

>  <r_i_glide_ligand_efficiency_ln>  (1) 
-1.391281221332183

>  <r_i_glide_ligand_efficiency_sa>  (1) 
-1.1763198372446177

>  <r_i_glide_lipo>  (1) 
-0.52889781649263068

>  <r_i_glide_metal>  (1) 
-0

>  <r_i_glide_rewards>  (1) 
-2.5710146826939906

>  <r_lp_Energy>  (1) 
4.9648199999999996

>  <r_lp_tautomer_probability>  (1) 
1

>  <s_epik_cmdline>  (1) 
J2VwaWtfcHl0aG9uJywgJy1waHQnLCAnMS4wJywgJy1waCcsICc3LjQnLCAnLXRuJywgJzgnLCAnLW1hJywgJzUwMCcsICctaW1hZScsICc8aW5maWxlLm1hZT4nLCAnLW9tYWUnLCAnPG91dGZpbGUubWFlPic=

>  <s_epik_input>  (1) 
W0NIMl0xT1tDSDJdW0NIMl1PW0NIMl0x

>  <s_glide_docking_method>  (1) 
confgen

>  <s_i_glide_gridfile>  (1) 
gpcr_drd2_6luq_protein_autoprepared_prepared

>  <s_lp_Force_Field>  (1) 
S-OPLS

>  <s_lp_Variant>  (1) 
Pocket2Mol_5_num_sample_50-1

>  <s_m_source_file>  (1) 
generated__ligand_Pocket2Mol_2026-05-06_prepared.sdf

>  <GenAI_Model>  (1) 
Pocket2Mol

>  <Protein>  (1) 
generic_title2

$$$$
Pocket2Mol_8_num_sample_50
     RDKit          3D

  0  0  0  0  0  0  0  0  0  0999 V3000
M  V30 BEGIN CTAB
M  V30 COUNTS 12 12 0 0 1
M  V30 BEGIN ATOM
M  V30 1 N 12.494557 7.640678 -2.715169 0
M  V30 2 C 12.491632 8.949713 -3.275397 0
M  V30 3 C 11.834839 8.961748 -4.500412 0
M  V30 4 C 11.834839 6.969301 -3.650764 0
M  V30 5 C 11.559547 10.063719 -5.468408 0
M  V30 6 N 11.434839 7.666427 -4.691672 0
M  V30 7 H 12.959034 9.769299 -2.752226 0
M  V30 8 H 11.637168 5.910632 -3.561927 0
M  V30 9 H 11.040692 10.887690 -4.977289 0
M  V30 10 H 12.487110 10.448624 -5.891673 0
M  V30 11 H 10.932566 9.720248 -6.291659 0
M  V30 12 H 10.921494 7.309825 -5.486277 0
M  V30 END ATOM
M  V30 BEGIN BOND
M  V30 1 1 2 1
M  V30 2 2 3 2
M  V30 3 2 4 1
M  V30 4 1 5 3
M  V30 5 1 6 3
M  V30 6 1 6 4
M  V30 7 1 7 2
M  V30 8 1 8 4
M  V30 9 1 9 5
M  V30 10 1 10 5
M  V30 11 1 11 5
M  V30 12 1 12 6
M  V30 END BOND
M  V30 END CTAB
M  END
>  <i_epik_Tot_Q>  (1) 
0

>  <i_epik_Tot_abs_Q>  (1) 
0

>  <i_i_glide_confnum>  (1) 
1

>  <i_i_glide_lignum>  (1) 
9

>  <i_i_glide_posenum>  (1) 
380

>  <i_i_glide_rotatable_bonds>  (1) 
0

>  <i_lp_mmshare_version>  (1) 
72125

>  <i_m_source_file_index>  (1) 
9

>  <i_f3d_flags>  (1) 
0

>  <num_sample>  (1) 
50

>  <b_lp_Chiralities_Consistent>  (1) 
1

>  <r_epik_Charging_Adjusted_Penalty>  (1) 
0.90509379346265462

>  <r_epik_Ionization_Penalty>  (1) 
0.31828505333430857

>  <r_epik_Ionization_Penalty_Charging>  (1) 
0.31828499876078775

>  <r_epik_Ionization_Penalty_Neutral>  (1) 
5.457352079622119e-08

>  <r_epik_State_Penalty>  (1) 
0.58680879470186686

>  <r_glide_ring_energy>  (1) 
0

>  <r_i_docking_score>  (1) 
-3.8734246951575764

>  <r_i_glide_ecoul>  (1) 
-1.4047137252205069

>  <r_i_glide_eff_state_penalty>  (1) 
0.58680879470186686

>  <r_i_glide_einternal>  (1) 
0

>  <r_i_glide_emodel>  (1) 
-22.165295982311754

>  <r_i_glide_emodel_strain>  (1) 
0.039698283856763439

>  <r_i_glide_energy>  (1) 
-16.237857319237047

>  <r_i_glide_erotb>  (1) 
0

>  <r_i_glide_esite>  (1) 
0

>  <r_i_glide_evdw>  (1) 
-14.833143594016541

>  <r_i_glide_gscore>  (1) 
-4.4602334898594433

>  <r_i_glide_gscore_strain>  (1) 
0

>  <r_i_glide_hbond>  (1) 
0

>  <r_i_glide_ligand_efficiency>  (1) 
-0.64557078252626277

>  <r_i_glide_ligand_efficiency_ln>  (1) 
-1.387449290618368

>  <r_i_glide_ligand_efficiency_sa>  (1) 
-1.173079963059231

>  <r_i_glide_lipo>  (1) 
-0.96278354983195846

>  <r_i_glide_metal>  (1) 
-0

>  <r_i_glide_rewards>  (1) 
-2.5450857015435817

>  <r_lp_Energy>  (1) 
2.6351399999999998

>  <r_lp_tautomer_probability>  (1) 
0.49999999999999867

>  <s_epik_cmdline>  (1) 
J2VwaWtfcHl0aG9uJywgJy1waHQnLCAnMS4wJywgJy1waCcsICc3LjQnLCAnLXRuJywgJzgnLCAnLW1hJywgJzUwMCcsICctaW1hZScsICc8aW5maWxlLm1hZT4nLCAnLW9tYWUnLCAnPG91dGZpbGUubWFlPic=

>  <s_epik_input>  (1) 
W25IXTFbY0hdbltjSF1jMVtDSDNd

>  <s_glide_docking_method>  (1) 
confgen

>  <s_i_glide_gridfile>  (1) 
gpcr_drd2_6luq_protein_autoprepared_prepared

>  <s_lp_Force_Field>  (1) 
S-OPLS

>  <s_lp_Variant>  (1) 
Pocket2Mol_8_num_sample_50-1

>  <s_m_source_file>  (1) 
generated__ligand_Pocket2Mol_2026-05-06_prepared.sdf

>  <GenAI_Model>  (1) 
Pocket2Mol

>  <Protein>  (1) 
generic_title2

$$$$
Pocket2Mol_8_num_sample_50
     RDKit          3D

  0  0  0  0  0  0  0  0  0  0999 V3000
M  V30 BEGIN CTAB
M  V30 COUNTS 13 13 0 0 1
M  V30 BEGIN ATOM
M  V30 1 N 8.287705 5.068907 -12.869598 0 CHG=1
M  V30 2 C 8.956908 4.446905 -11.849924 0
M  V30 3 C 8.670676 5.152560 -10.700139 0
M  V30 4 C 7.607967 6.113507 -12.403289 0
M  V30 5 C 9.099190 4.969299 -9.284133 0
M  V30 6 N 7.834839 6.169301 -11.091667 0
M  V30 7 H 9.570572 3.572449 -12.010639 0
M  V30 8 H 6.991904 6.785671 -12.974938 0
M  V30 9 H 9.834838 4.169301 -9.206808 0
M  V30 10 H 9.545541 5.888018 -8.902597 0
M  V30 11 H 8.240774 4.716755 -8.660458 0
M  V30 12 H 7.434839 6.880820 -10.453907 0
M  V30 13 H 8.305647 4.778140 -13.839442 0
M  V30 END ATOM
M  V30 BEGIN BOND
M  V30 1 1 2 1
M  V30 2 2 3 2
M  V30 3 2 4 1
M  V30 4 1 5 3
M  V30 5 1 6 3
M  V30 6 1 6 4
M  V30 7 1 7 2
M  V30 8 1 8 4
M  V30 9 1 9 5
M  V30 10 1 10 5
M  V30 11 1 11 5
M  V30 12 1 12 6
M  V30 13 1 13 1
M  V30 END BOND
M  V30 END CTAB
M  END
>  <i_epik_Tot_Q>  (1) 
1

>  <i_epik_Tot_abs_Q>  (1) 
1

>  <i_i_glide_confnum>  (1) 
1

>  <i_i_glide_lignum>  (1) 
10

>  <i_i_glide_posenum>  (1) 
50

>  <i_i_glide_rotatable_bonds>  (1) 
0

>  <i_lp_mmshare_version>  (1) 
72125

>  <i_m_source_file_index>  (1) 
9

>  <i_f3d_flags>  (1) 
0

>  <num_sample>  (1) 
50

>  <b_lp_Chiralities_Consistent>  (1) 
1

>  <r_epik_Charging_Adjusted_Penalty>  (1) 
0.63910500234431922

>  <r_epik_Ionization_Penalty>  (1) 
0.82018112513013652

>  <r_epik_Ionization_Penalty_Charging>  (1) 
0

>  <r_epik_Ionization_Penalty_Neutral>  (1) 
0.82018112513013652

>  <r_epik_State_Penalty>  (1) 
0.63910500234431922

>  <r_glide_ring_energy>  (1) 
0

>  <r_i_docking_score>  (1) 
-3.8401920808384471

>  <r_i_glide_ecoul>  (1) 
-8.3445353358466008

>  <r_i_glide_eff_state_penalty>  (1) 
0.63910500234431922

>  <r_i_glide_einternal>  (1) 
0

>  <r_i_glide_emodel>  (1) 
-24.15602333823437

>  <r_i_glide_emodel_strain>  (1) 
0

>  <r_i_glide_energy>  (1) 
-15.658306451284393

>  <r_i_glide_erotb>  (1) 
0

>  <r_i_glide_esite>  (1) 
-0.13389219701499652

>  <r_i_glide_evdw>  (1) 
-7.3137711154377918

>  <r_i_glide_gscore>  (1) 
-4.4792970831827663

>  <r_i_glide_gscore_strain>  (1) 
0

>  <r_i_glide_hbond>  (1) 
-0.18567926660665307

>  <r_i_glide_ligand_efficiency>  (1) 
-0.64003201347307448

>  <r_i_glide_ligand_efficiency_ln>  (1) 
-1.3755454662791178

>  <r_i_glide_ligand_efficiency_sa>  (1) 
-1.1630153517537414

>  <r_i_glide_lipo>  (1) 
-0.29235676341223665

>  <r_i_glide_metal>  (1) 
-0

>  <r_i_glide_rewards>  (1) 
-2.25

>  <r_lp_Energy>  (1) 
7.4764169999999996

>  <r_lp_tautomer_probability>  (1) 
1

>  <s_epik_cmdline>  (1) 
J2VwaWtfcHl0aG9uJywgJy1waHQnLCAnMS4wJywgJy1waCcsICc3LjQnLCAnLXRuJywgJzgnLCAnLW1hJywgJzUwMCcsICctaW1hZScsICc8aW5maWxlLm1hZT4nLCAnLW9tYWUnLCAnPG91dGZpbGUubWFlPic=

>  <s_epik_input>  (1) 
W25IXTFbY0hdbltjSF1jMVtDSDNd

>  <s_glide_docking_method>  (1) 
confgen

>  <s_i_glide_gridfile>  (1) 
gpcr_drd2_6luq_protein_autoprepared_prepared

>  <s_lp_Force_Field>  (1) 
S-OPLS

>  <s_lp_Variant>  (1) 
Pocket2Mol_8_num_sample_50-2

>  <s_m_source_file>  (1) 
generated__ligand_Pocket2Mol_2026-05-06_prepared.sdf

>  <GenAI_Model>  (1) 
Pocket2Mol

>  <Protein>  (1) 
generic_title2

$$$$
Pocket2Mol_46_num_sample_50
     RDKit          3D

  0  0  0  0  0  0  0  0  0  0999 V3000
M  V30 BEGIN CTAB
M  V30 COUNTS 8 8 0 0 1
M  V30 BEGIN ATOM
M  V30 1 N 11.834596 8.612609 -7.288393 0
M  V30 2 C 10.718882 8.555854 -6.371689 0
M  V30 3 C 9.665992 8.106542 -6.945316 0
M  V30 4 C 10.032243 7.866747 -8.188108 0
M  V30 5 C 11.301710 8.169301 -8.355998 0
M  V30 6 H 10.826296 8.875422 -5.345542 0
M  V30 7 H 8.685201 7.969579 -6.510702 0
M  V30 8 H 9.336078 7.633226 -8.981603 0
M  V30 END ATOM
M  V30 BEGIN BOND
M  V30 1 1 2 1
M  V30 2 2 3 2
M  V30 3 1 4 3
M  V30 4 2 5 1
M  V30 5 2 5 4
M  V30 6 1 6 2
M  V30 7 1 7 3
M  V30 8 1 8 4
M  V30 END BOND
M  V30 END CTAB
M  END
>  <i_epik_Tot_Q>  (1) 
0

>  <i_epik_Tot_abs_Q>  (1) 
0

>  <i_i_glide_confnum>  (1) 
1

>  <i_i_glide_lignum>  (1) 
52

>  <i_i_glide_posenum>  (1) 
143

>  <i_i_glide_rotatable_bonds>  (1) 
0

>  <i_lp_mmshare_version>  (1) 
72125

>  <i_m_source_file_index>  (1) 
47

>  <i_f3d_flags>  (1) 
0

>  <num_sample>  (1) 
50

>  <b_lp_Chiralities_Consistent>  (1) 
1

>  <r_epik_Charging_Adjusted_Penalty>  (1) 
0

>  <r_epik_Ionization_Penalty>  (1) 
0

>  <r_epik_Ionization_Penalty_Charging>  (1) 
0

>  <r_epik_Ionization_Penalty_Neutral>  (1) 
0

>  <r_epik_State_Penalty>  (1) 
-0

>  <r_glide_ring_energy>  (1) 
0

>  <r_i_docking_score>  (1) 
-3.8357950014397124

>  <r_i_glide_ecoul>  (1) 
-0.9342475152545695

>  <r_i_glide_eff_state_penalty>  (1) 
-0

>  <r_i_glide_einternal>  (1) 
0

>  <r_i_glide_emodel>  (1) 
-17.018414228997852

>  <r_i_glide_emodel_strain>  (1) 
0

>  <r_i_glide_energy>  (1) 
-13.546536866008525

>  <r_i_glide_erotb>  (1) 
0

>  <r_i_glide_esite>  (1) 
0

>  <r_i_glide_evdw>  (1) 
-12.612289350753956

>  <r_i_glide_gscore>  (1) 
-3.8357950014397124

>  <r_i_glide_gscore_strain>  (1) 
0

>  <r_i_glide_hbond>  (1) 
0

>  <r_i_glide_ligand_efficiency>  (1) 
-0.76715900028794248

>  <r_i_glide_ligand_efficiency_ln>  (1) 
-1.4699698288133087

>  <r_i_glide_ligand_efficiency_sa>  (1) 
-1.3118234377689229

>  <r_i_glide_lipo>  (1) 
-0.48171007328049548

>  <r_i_glide_metal>  (1) 
-0

>  <r_i_glide_rewards>  (1) 
-2.5833333333333335

>  <r_lp_Energy>  (1) 
4.860805

>  <r_lp_tautomer_probability>  (1) 
1

>  <s_epik_Chemistry_Notes>  (1) 
This compound has an imine and may undergo hydrolysis.

>  <s_epik_cmdline>  (1) 
J2VwaWtfcHl0aG9uJywgJy1waHQnLCAnMS4wJywgJy1waCcsICc3LjQnLCAnLXRuJywgJzgnLCAnLW1hJywgJzUwMCcsICctaW1hZScsICc8aW5maWxlLm1hZT4nLCAnLW9tYWUnLCAnPG91dGZpbGUubWFlPic=

>  <s_epik_input>  (1) 
TjE9Qz1bQ0hdW0NIXT1bQ0hdMQ==

>  <s_glide_docking_method>  (1) 
confgen

>  <s_i_glide_gridfile>  (1) 
gpcr_drd2_6luq_protein_autoprepared_prepared

>  <s_lp_Force_Field>  (1) 
S-OPLS

>  <s_lp_Variant>  (1) 
Pocket2Mol_46_num_sample_50-1

>  <s_m_source_file>  (1) 
generated__ligand_Pocket2Mol_2026-05-06_prepared.sdf

>  <GenAI_Model>  (1) 
Pocket2Mol

>  <Protein>  (1) 
generic_title2

$$$$
Pocket2Mol_21_num_sample_50
     RDKit          3D

  0  0  0  0  0  0  0  0  0  0999 V3000
M  V30 BEGIN CTAB
M  V30 COUNTS 9 9 0 0 1
M  V30 BEGIN ATOM
M  V30 1 C 10.767481 8.569301 -6.301335 0
M  V30 2 O 11.860684 8.873634 -7.064480 0
M  V30 3 C 11.511611 8.568656 -8.351122 0
M  V30 4 C 9.751223 8.088788 -7.075963 0
M  V30 5 C 10.234681 8.088468 -8.408305 0
M  V30 6 H 10.879653 8.753067 -5.243252 0
M  V30 7 H 12.276615 8.753562 -9.091510 0
M  V30 8 H 8.776910 7.775661 -6.725636 0
M  V30 9 H 9.711248 7.775592 -9.301061 0
M  V30 END ATOM
M  V30 BEGIN BOND
M  V30 1 1 2 1
M  V30 2 1 3 2
M  V30 3 2 4 1
M  V30 4 2 5 3
M  V30 5 1 5 4
M  V30 6 1 6 1
M  V30 7 1 7 3
M  V30 8 1 8 4
M  V30 9 1 9 5
M  V30 END BOND
M  V30 END CTAB
M  END
>  <i_epik_Tot_Q>  (1) 
0

>  <i_epik_Tot_abs_Q>  (1) 
0

>  <i_i_glide_confnum>  (1) 
1

>  <i_i_glide_lignum>  (1) 
25

>  <i_i_glide_posenum>  (1) 
33

>  <i_i_glide_rotatable_bonds>  (1) 
0

>  <i_lp_mmshare_version>  (1) 
72125

>  <i_m_source_file_index>  (1) 
22

>  <i_f3d_flags>  (1) 
0

>  <num_sample>  (1) 
50

>  <b_lp_Chiralities_Consistent>  (1) 
1

>  <r_epik_Charging_Adjusted_Penalty>  (1) 
0

>  <r_epik_Ionization_Penalty>  (1) 
0

>  <r_epik_Ionization_Penalty_Charging>  (1) 
0

>  <r_epik_Ionization_Penalty_Neutral>  (1) 
0

>  <r_epik_State_Penalty>  (1) 
-0

>  <r_glide_ring_energy>  (1) 
0

>  <r_i_docking_score>  (1) 
-3.8351289074117698

>  <r_i_glide_ecoul>  (1) 
-0.63689889050637793

>  <r_i_glide_eff_state_penalty>  (1) 
-0

>  <r_i_glide_einternal>  (1) 
0

>  <r_i_glide_emodel>  (1) 
-14.937459700325503

>  <r_i_glide_emodel_strain>  (1) 
5.5803139886734243e-12

>  <r_i_glide_energy>  (1) 
-11.928446669576861

>  <r_i_glide_erotb>  (1) 
0

>  <r_i_glide_esite>  (1) 
0

>  <r_i_glide_evdw>  (1) 
-11.291547779070482

>  <r_i_glide_gscore>  (1) 
-3.8351289074117698

>  <r_i_glide_gscore_strain>  (1) 
0

>  <r_i_glide_hbond>  (1) 
0

>  <r_i_glide_ligand_efficiency>  (1) 
-0.76702578148235401

>  <r_i_glide_ligand_efficiency_ln>  (1) 
-1.4697145654001542

>  <r_i_glide_ligand_efficiency_sa>  (1) 
-1.3115956368157216

>  <r_i_glide_lipo>  (1) 
-0.54168335154895564

>  <r_i_glide_metal>  (1) 
-0

>  <r_i_glide_rewards>  (1) 
-2.6333333333333333

>  <r_lp_Energy>  (1) 
2.5980879999999997

>  <r_lp_tautomer_probability>  (1) 
1

>  <s_epik_cmdline>  (1) 
J2VwaWtfcHl0aG9uJywgJy1waHQnLCAnMS4wJywgJy1waCcsICc3LjQnLCAnLXRuJywgJzgnLCAnLW1hJywgJzUwMCcsICctaW1hZScsICc8aW5maWxlLm1hZT4nLCAnLW9tYWUnLCAnPG91dGZpbGUubWFlPic=

>  <s_epik_input>  (1) 
W2NIXTFvW2NIXVtjSF1bY0hdMQ==

>  <s_glide_docking_method>  (1) 
confgen

>  <s_i_glide_gridfile>  (1) 
gpcr_drd2_6luq_protein_autoprepared_prepared

>  <s_lp_Force_Field>  (1) 
S-OPLS

>  <s_lp_Variant>  (1) 
Pocket2Mol_21_num_sample_50-1

>  <s_m_source_file>  (1) 
generated__ligand_Pocket2Mol_2026-05-06_prepared.sdf

>  <GenAI_Model>  (1) 
Pocket2Mol

>  <Protein>  (1) 
generic_title2

$$$$
Pocket2Mol_8_num_sample_50
     RDKit          3D

  0  0  0  0  0  0  0  0  0  0999 V3000
M  V30 BEGIN CTAB
M  V30 COUNTS 13 13 0 0 1
M  V30 BEGIN ATOM
M  V30 1 N 9.432636 5.261717 -12.316579 0 CHG=1
M  V30 2 C 8.417978 4.346874 -12.212483 0
M  V30 3 C 7.442107 4.923911 -11.424224 0
M  V30 4 C 9.127957 6.366476 -11.636361 0
M  V30 5 C 6.116347 4.423089 -10.955046 0
M  V30 6 N 7.925675 6.169176 -11.091883 0
M  V30 7 H 8.461822 3.377523 -12.690713 0
M  V30 8 H 9.736589 7.248951 -11.539055 0
M  V30 9 H 5.643642 3.823798 -11.732772 0
M  V30 10 H 6.236585 3.803920 -10.065374 0
M  V30 11 H 5.454271 5.254398 -10.707160 0
M  V30 12 H 7.434842 6.853573 -10.489323 0
M  V30 13 H 10.295128 5.118149 -12.834009 0
M  V30 END ATOM
M  V30 BEGIN BOND
M  V30 1 1 2 1
M  V30 2 2 3 2
M  V30 3 2 4 1
M  V30 4 1 5 3
M  V30 5 1 6 3
M  V30 6 1 6 4
M  V30 7 1 7 2
M  V30 8 1 8 4
M  V30 9 1 9 5
M  V30 10 1 10 5
M  V30 11 1 11 5
M  V30 12 1 12 6
M  V30 13 1 13 1
M  V30 END BOND
M  V30 END CTAB
M  END
>  <i_epik_Tot_Q>  (1) 
1

>  <i_epik_Tot_abs_Q>  (1) 
1

>  <i_i_glide_confnum>  (1) 
1

>  <i_i_glide_lignum>  (1) 
10

>  <i_i_glide_posenum>  (1) 
349

>  <i_i_glide_rotatable_bonds>  (1) 
0

>  <i_lp_mmshare_version>  (1) 
72125

>  <i_m_source_file_index>  (1) 
9

>  <i_f3d_flags>  (1) 
0

>  <num_sample>  (1) 
50

>  <b_lp_Chiralities_Consistent>  (1) 
1

>  <r_epik_Charging_Adjusted_Penalty>  (1) 
0.63910500234431922

>  <r_epik_Ionization_Penalty>  (1) 
0.82018112513013652

>  <r_epik_Ionization_Penalty_Charging>  (1) 
0

>  <r_epik_Ionization_Penalty_Neutral>  (1) 
0.82018112513013652

>  <r_epik_State_Penalty>  (1) 
0.63910500234431922

>  <r_glide_ring_energy>  (1) 
0

>  <r_i_docking_score>  (1) 
-3.8202810258225064

>  <r_i_glide_ecoul>  (1) 
-8.8728497638987633

>  <r_i_glide_eff_state_penalty>  (1) 
0.63910500234431922

>  <r_i_glide_einternal>  (1) 
0

>  <r_i_glide_emodel>  (1) 
-24.8661630751103

>  <r_i_glide_emodel_strain>  (1) 
0.020032966683914966

>  <r_i_glide_energy>  (1) 
-16.426252605745983

>  <r_i_glide_erotb>  (1) 
0

>  <r_i_glide_esite>  (1) 
-0.12697540271151131

>  <r_i_glide_evdw>  (1) 
-7.5534028418472206

>  <r_i_glide_gscore>  (1) 
-4.4593860281668256

>  <r_i_glide_gscore_strain>  (1) 
0

>  <r_i_glide_hbond>  (1) 
-0.20000000000000001

>  <r_i_glide_ligand_efficiency>  (1) 
-0.63671350430375107

>  <r_i_glide_ligand_efficiency_ln>  (1) 
-1.3684133851541467

>  <r_i_glide_ligand_efficiency_sa>  (1) 
-1.1569852204046613

>  <r_i_glide_lipo>  (1) 
-0.17381301877813932

>  <r_i_glide_metal>  (1) 
-0

>  <r_i_glide_rewards>  (1) 
-2.25

>  <r_lp_Energy>  (1) 
7.4764169999999996

>  <r_lp_tautomer_probability>  (1) 
1

>  <s_epik_cmdline>  (1) 
J2VwaWtfcHl0aG9uJywgJy1waHQnLCAnMS4wJywgJy1waCcsICc3LjQnLCAnLXRuJywgJzgnLCAnLW1hJywgJzUwMCcsICctaW1hZScsICc8aW5maWxlLm1hZT4nLCAnLW9tYWUnLCAnPG91dGZpbGUubWFlPic=

>  <s_epik_input>  (1) 
W25IXTFbY0hdbltjSF1jMVtDSDNd

>  <s_glide_docking_method>  (1) 
confgen

>  <s_i_glide_gridfile>  (1) 
gpcr_drd2_6luq_protein_autoprepared_prepared

>  <s_lp_Force_Field>  (1) 
S-OPLS

>  <s_lp_Variant>  (1) 
Pocket2Mol_8_num_sample_50-2

>  <s_m_source_file>  (1) 
generated__ligand_Pocket2Mol_2026-05-06_prepared.sdf

>  <GenAI_Model>  (1) 
Pocket2Mol

>  <Protein>  (1) 
generic_title2

$$$$
Pocket2Mol_49_num_sample_50
     RDKit          3D

  0  0  0  0  0  0  0  0  0  0999 V3000
M  V30 BEGIN CTAB
M  V30 COUNTS 11 11 0 0 1
M  V30 BEGIN ATOM
M  V30 1 O 10.651413 6.194679 -7.094758 0
M  V30 2 C 9.434839 6.738213 -7.552849 0
M  V30 3 C 9.507485 8.169298 -7.019590 0
M  V30 4 C 10.804031 6.774508 -5.850968 0
M  V30 5 O 10.427356 8.103797 -5.943894 0
M  V30 6 H 9.338755 6.689636 -8.638283 0
M  V30 7 H 8.598426 6.197590 -7.106084 0
M  V30 8 H 9.900150 8.848004 -7.776639 0
M  V30 9 H 8.534184 8.538534 -6.694830 0
M  V30 10 H 10.151450 6.267121 -5.136095 0
M  V30 11 H 11.834839 6.682321 -5.508577 0
M  V30 END ATOM
M  V30 BEGIN BOND
M  V30 1 1 2 1
M  V30 2 1 3 2
M  V30 3 1 4 1
M  V30 4 1 5 3
M  V30 5 1 5 4
M  V30 6 1 6 2
M  V30 7 1 7 2
M  V30 8 1 8 3
M  V30 9 1 9 3
M  V30 10 1 10 4
M  V30 11 1 11 4
M  V30 END BOND
M  V30 END CTAB
M  END
>  <i_epik_Tot_Q>  (1) 
0

>  <i_epik_Tot_abs_Q>  (1) 
0

>  <i_i_glide_confnum>  (1) 
1

>  <i_i_glide_lignum>  (1) 
55

>  <i_i_glide_posenum>  (1) 
19

>  <i_i_glide_rotatable_bonds>  (1) 
0

>  <i_lp_mmshare_version>  (1) 
72125

>  <i_m_source_file_index>  (1) 
50

>  <i_f3d_flags>  (1) 
0

>  <num_sample>  (1) 
50

>  <b_lp_Chiralities_Consistent>  (1) 
1

>  <r_epik_Charging_Adjusted_Penalty>  (1) 
0

>  <r_epik_Ionization_Penalty>  (1) 
7.9724310449397378e-14

>  <r_epik_Ionization_Penalty_Charging>  (1) 
0

>  <r_epik_Ionization_Penalty_Neutral>  (1) 
7.9724310449397378e-14

>  <r_epik_State_Penalty>  (1) 
-0

>  <r_glide_ring_energy>  (1) 
0

>  <r_i_docking_score>  (1) 
-3.8088637859575045

>  <r_i_glide_ecoul>  (1) 
-1.2179741657357541

>  <r_i_glide_eff_state_penalty>  (1) 
-0

>  <r_i_glide_einternal>  (1) 
0

>  <r_i_glide_emodel>  (1) 
-16.351052819027313

>  <r_i_glide_emodel_strain>  (1) 
0.010833939463455344

>  <r_i_glide_energy>  (1) 
-13.024877817169891

>  <r_i_glide_erotb>  (1) 
0

>  <r_i_glide_esite>  (1) 
0

>  <r_i_glide_evdw>  (1) 
-11.806903651434137

>  <r_i_glide_gscore>  (1) 
-3.8088637859575045

>  <r_i_glide_gscore_strain>  (1) 
0

>  <r_i_glide_hbond>  (1) 
0

>  <r_i_glide_ligand_efficiency>  (1) 
-0.76177275719150095

>  <r_i_glide_ligand_efficiency_ln>  (1) 
-1.4596491327914263

>  <r_i_glide_ligand_efficiency_sa>  (1) 
-1.3026130916310543

>  <r_i_glide_lipo>  (1) 
0

>  <r_i_glide_metal>  (1) 
-0

>  <r_i_glide_rewards>  (1) 
-3.0358224785254349

>  <r_lp_Energy>  (1) 
-12.242958999999999

>  <r_lp_tautomer_probability>  (1) 
1

>  <s_epik_Chemistry_Notes>  (1) 
This compound contains an acetal/aminal-like group ( X-CH(R)-Y where X, Y are N, S, or O) that may be acid/base labile, releasing an aldehyde.

>  <s_epik_cmdline>  (1) 
J2VwaWtfcHl0aG9uJywgJy1waHQnLCAnMS4wJywgJy1waCcsICc3LjQnLCAnLXRuJywgJzgnLCAnLW1hJywgJzUwMCcsICctaW1hZScsICc8aW5maWxlLm1hZT4nLCAnLW9tYWUnLCAnPG91dGZpbGUubWFlPic=

>  <s_epik_input>  (1) 
TzFbQ0gyXVtDSDJdT1tDSDJdMQ==

>  <s_glide_docking_method>  (1) 
confgen

>  <s_i_glide_gridfile>  (1) 
gpcr_drd2_6luq_protein_autoprepared_prepared

>  <s_lp_Force_Field>  (1) 
S-OPLS

>  <s_lp_Variant>  (1) 
Pocket2Mol_49_num_sample_50-1

>  <s_m_source_file>  (1) 
generated__ligand_Pocket2Mol_2026-05-06_prepared.sdf

>  <GenAI_Model>  (1) 
Pocket2Mol

>  <Protein>  (1) 
generic_title2

$$$$
Pocket2Mol_10_num_sample_50
     RDKit          3D

  0  0  0  0  0  0  0  0  0  0999 V3000
M  V30 BEGIN CTAB
M  V30 COUNTS 14 13 0 0 1
M  V30 BEGIN ATOM
M  V30 1 N 9.034840 6.564822 -9.629889 0 CHG=1
M  V30 2 C 9.925593 7.475537 -10.384707 0
M  V30 3 C 8.702713 5.341586 -10.390378 0
M  V30 4 C 9.557650 6.264417 -8.277310 0
M  V30 5 H 10.893115 7.010444 -10.572937 0
M  V30 6 H 10.093126 8.400858 -9.831214 0
M  V30 7 H 9.480973 7.741238 -11.344517 0
M  V30 8 H 9.593872 4.743887 -10.578340 0
M  V30 9 H 7.987745 4.730013 -9.839672 0
M  V30 10 H 8.251631 5.597561 -11.349396 0
M  V30 11 H 10.502543 5.723622 -8.333405 0
M  V30 12 H 9.723037 7.183665 -7.713214 0
M  V30 13 H 8.847134 5.656548 -7.716234 0
M  V30 14 H 8.144569 7.076406 -9.493023 0
M  V30 END ATOM
M  V30 BEGIN BOND
M  V30 1 1 2 1
M  V30 2 1 3 1
M  V30 3 1 4 1
M  V30 4 1 5 2
M  V30 5 1 6 2
M  V30 6 1 7 2
M  V30 7 1 8 3
M  V30 8 1 9 3
M  V30 9 1 10 3
M  V30 10 1 11 4
M  V30 11 1 12 4
M  V30 12 1 13 4
M  V30 13 1 14 1
M  V30 END BOND
M  V30 END CTAB
M  END
>  <i_epik_Tot_Q>  (1) 
1

>  <i_epik_Tot_abs_Q>  (1) 
1

>  <i_i_glide_confnum>  (1) 
1

>  <i_i_glide_lignum>  (1) 
13

>  <i_i_glide_posenum>  (1) 
247

>  <i_i_glide_rotatable_bonds>  (1) 
0

>  <i_lp_mmshare_version>  (1) 
72125

>  <i_m_source_file_index>  (1) 
11

>  <i_f3d_flags>  (1) 
0

>  <num_sample>  (1) 
50

>  <b_lp_Chiralities_Consistent>  (1) 
1

>  <r_epik_Charging_Adjusted_Penalty>  (1) 
0.0093753769364623638

>  <r_epik_Ionization_Penalty>  (1) 
0.0046876884682311671

>  <r_epik_Ionization_Penalty_Charging>  (1) 
0.0046876884682311671

>  <r_epik_Ionization_Penalty_Neutral>  (1) 
0

>  <r_epik_State_Penalty>  (1) 
0.0046876884682311958

>  <r_glide_ring_energy>  (1) 
0

>  <r_i_docking_score>  (1) 
-3.7740431694371552

>  <r_i_glide_ecoul>  (1) 
-6.8353605063425293

>  <r_i_glide_eff_state_penalty>  (1) 
0.0046876884682311958

>  <r_i_glide_einternal>  (1) 
0

>  <r_i_glide_emodel>  (1) 
-17.952281721569804

>  <r_i_glide_emodel_strain>  (1) 
0

>  <r_i_glide_energy>  (1) 
-11.844948138041847

>  <r_i_glide_erotb>  (1) 
0

>  <r_i_glide_esite>  (1) 
-0.10000000000000001

>  <r_i_glide_evdw>  (1) 
-5.0095876316993166

>  <r_i_glide_gscore>  (1) 
-3.7787308579053862

>  <r_i_glide_gscore_strain>  (1) 
0

>  <r_i_glide_hbond>  (1) 
-0.15294740036904048

>  <r_i_glide_ligand_efficiency>  (1) 
-0.94351079235928881

>  <r_i_glide_ligand_efficiency_ln>  (1) 
-1.5815497161322514

>  <r_i_glide_ligand_efficiency_sa>  (1) 
-1.4977300243344844

>  <r_i_glide_lipo>  (1) 
0

>  <r_i_glide_metal>  (1) 
-0

>  <r_i_glide_rewards>  (1) 
-2.25

>  <r_lp_Energy>  (1) 
13.212527

>  <s_epik_cmdline>  (1) 
J2VwaWtfcHl0aG9uJywgJy1waHQnLCAnMS4wJywgJy1waCcsICc3LjQnLCAnLXRuJywgJzgnLCAnLW1hJywgJzUwMCcsICctaW1hZScsICc8aW5maWxlLm1hZT4nLCAnLW9tYWUnLCAnPG91dGZpbGUubWFlPic=

>  <s_epik_input>  (1) 
W0NIM11OKFtDSDNdKVtDSDNd

>  <s_glide_docking_method>  (1) 
confgen

>  <s_i_glide_gridfile>  (1) 
gpcr_drd2_6luq_protein_autoprepared_prepared

>  <s_lp_Force_Field>  (1) 
S-OPLS

>  <s_lp_Variant>  (1) 
Pocket2Mol_10_num_sample_50-1

>  <s_m_source_file>  (1) 
generated__ligand_Pocket2Mol_2026-05-06_prepared.sdf

>  <GenAI_Model>  (1) 
Pocket2Mol

>  <Protein>  (1) 
generic_title2

$$$$
Pocket2Mol_10_num_sample_50
     RDKit          3D

  0  0  0  0  0  0  0  0  0  0999 V3000
M  V30 BEGIN CTAB
M  V30 COUNTS 14 13 0 0 1
M  V30 BEGIN ATOM
M  V30 1 N 8.634839 5.769301 -9.314852 0 CHG=1
M  V30 2 C 8.302223 4.911913 -8.156023 0
M  V30 3 C 9.745580 6.701844 -9.022869 0
M  V30 4 C 8.870641 4.983086 -10.545664 0
M  V30 5 H 9.136986 4.258434 -7.898072 0
M  V30 6 H 7.434839 4.287402 -8.373639 0
M  V30 7 H 8.061839 5.519100 -7.282371 0
M  V30 8 H 10.670419 6.160069 -8.819016 0
M  V30 9 H 9.920882 7.370385 -9.866700 0
M  V30 10 H 9.513542 7.319382 -8.154230 0
M  V30 11 H 9.740878 4.334048 -10.436844 0
M  V30 12 H 8.006542 4.358986 -10.777099 0
M  V30 13 H 9.040884 5.641688 -11.398300 0
M  V30 14 H 7.820050 6.340708 -9.491645 0
M  V30 END ATOM
M  V30 BEGIN BOND
M  V30 1 1 2 1
M  V30 2 1 3 1
M  V30 3 1 4 1
M  V30 4 1 5 2
M  V30 5 1 6 2
M  V30 6 1 7 2
M  V30 7 1 8 3
M  V30 8 1 9 3
M  V30 9 1 10 3
M  V30 10 1 11 4
M  V30 11 1 12 4
M  V30 12 1 13 4
M  V30 13 1 14 1
M  V30 END BOND
M  V30 END CTAB
M  END
>  <i_epik_Tot_Q>  (1) 
1

>  <i_epik_Tot_abs_Q>  (1) 
1

>  <i_i_glide_confnum>  (1) 
1

>  <i_i_glide_lignum>  (1) 
13

>  <i_i_glide_posenum>  (1) 
382

>  <i_i_glide_rotatable_bonds>  (1) 
0

>  <i_lp_mmshare_version>  (1) 
72125

>  <i_m_source_file_index>  (1) 
11

>  <i_f3d_flags>  (1) 
0

>  <num_sample>  (1) 
50

>  <b_lp_Chiralities_Consistent>  (1) 
1

>  <r_epik_Charging_Adjusted_Penalty>  (1) 
0.0093753769364623638

>  <r_epik_Ionization_Penalty>  (1) 
0.0046876884682311671

>  <r_epik_Ionization_Penalty_Charging>  (1) 
0.0046876884682311671

>  <r_epik_Ionization_Penalty_Neutral>  (1) 
0

>  <r_epik_State_Penalty>  (1) 
0.0046876884682311958

>  <r_glide_ring_energy>  (1) 
0

>  <r_i_docking_score>  (1) 
-3.7540252183974623

>  <r_i_glide_ecoul>  (1) 
-4.9316588503162064

>  <r_i_glide_eff_state_penalty>  (1) 
0.0046876884682311958

>  <r_i_glide_einternal>  (1) 
0

>  <r_i_glide_emodel>  (1) 
-17.244528921463235

>  <r_i_glide_emodel_strain>  (1) 
0

>  <r_i_glide_energy>  (1) 
-11.1695491385248

>  <r_i_glide_erotb>  (1) 
0

>  <r_i_glide_esite>  (1) 
-0.10000000000000001

>  <r_i_glide_evdw>  (1) 
-6.237890288208594

>  <r_i_glide_gscore>  (1) 
-3.7587129068656933

>  <r_i_glide_gscore_strain>  (1) 
0

>  <r_i_glide_hbond>  (1) 
-0.20000000000000001

>  <r_i_glide_ligand_efficiency>  (1) 
-0.93850630459936557

>  <r_i_glide_ligand_efficiency_ln>  (1) 
-1.5731609978895034

>  <r_i_glide_ligand_efficiency_sa>  (1) 
-1.4897858951998204

>  <r_i_glide_lipo>  (1) 
-0.15706956490783264

>  <r_i_glide_metal>  (1) 
-0

>  <r_i_glide_rewards>  (1) 
-2.25

>  <r_lp_Energy>  (1) 
13.212527

>  <s_epik_cmdline>  (1) 
J2VwaWtfcHl0aG9uJywgJy1waHQnLCAnMS4wJywgJy1waCcsICc3LjQnLCAnLXRuJywgJzgnLCAnLW1hJywgJzUwMCcsICctaW1hZScsICc8aW5maWxlLm1hZT4nLCAnLW9tYWUnLCAnPG91dGZpbGUubWFlPic=

>  <s_epik_input>  (1) 
W0NIM11OKFtDSDNdKVtDSDNd

>  <s_glide_docking_method>  (1) 
confgen

>  <s_i_glide_gridfile>  (1) 
gpcr_drd2_6luq_protein_autoprepared_prepared

>  <s_lp_Force_Field>  (1) 
S-OPLS

>  <s_lp_Variant>  (1) 
Pocket2Mol_10_num_sample_50-1

>  <s_m_source_file>  (1) 
generated__ligand_Pocket2Mol_2026-05-06_prepared.sdf

>  <GenAI_Model>  (1) 
Pocket2Mol

>  <Protein>  (1) 
generic_title2

$$$$
Pocket2Mol_8_num_sample_50
     RDKit          3D

  0  0  0  0  0  0  0  0  0  0999 V3000
M  V30 BEGIN CTAB
M  V30 COUNTS 12 12 0 0 1
M  V30 BEGIN ATOM
M  V30 1 N 9.437265 7.789215 -8.850872 0
M  V30 2 C 10.470030 8.188441 -9.688750 0
M  V30 3 C 11.615794 8.039010 -8.932017 0
M  V30 4 C 9.976280 7.438646 -7.700900 0
M  V30 5 C 13.035907 8.319022 -9.318238 0
M  V30 6 N 11.296796 7.555010 -7.649712 0
M  V30 7 H 10.317079 8.528307 -10.696999 0
M  V30 8 H 9.392413 7.079434 -6.849264 0
M  V30 9 H 13.105039 8.686694 -10.341893 0
M  V30 10 H 13.478854 9.071071 -8.665859 0
M  V30 11 H 13.647040 7.419295 -9.248035 0
M  V30 12 H 8.447419 7.772686 -9.091698 0
M  V30 END ATOM
M  V30 BEGIN BOND
M  V30 1 1 2 1
M  V30 2 2 3 2
M  V30 3 1 4 1
M  V30 4 1 5 3
M  V30 5 1 6 3
M  V30 6 2 6 4
M  V30 7 1 7 2
M  V30 8 1 8 4
M  V30 9 1 9 5
M  V30 10 1 10 5
M  V30 11 1 11 5
M  V30 12 1 12 1
M  V30 END BOND
M  V30 END CTAB
M  END
>  <i_epik_Tot_Q>  (1) 
0

>  <i_epik_Tot_abs_Q>  (1) 
0

>  <i_i_glide_confnum>  (1) 
1

>  <i_i_glide_lignum>  (1) 
11

>  <i_i_glide_posenum>  (1) 
298

>  <i_i_glide_rotatable_bonds>  (1) 
0

>  <i_lp_mmshare_version>  (1) 
72125

>  <i_m_source_file_index>  (1) 
9

>  <i_f3d_flags>  (1) 
0

>  <num_sample>  (1) 
50

>  <b_lp_Chiralities_Consistent>  (1) 
1

>  <r_epik_Charging_Adjusted_Penalty>  (1) 
1.2833377634270211

>  <r_epik_Ionization_Penalty>  (1) 
0.5469164599317381

>  <r_epik_Ionization_Penalty_Charging>  (1) 
0.546916339904576

>  <r_epik_Ionization_Penalty_Neutral>  (1) 
1.2002716213740492e-07

>  <r_epik_State_Penalty>  (1) 
0.73642142352244522

>  <r_glide_ring_energy>  (1) 
0

>  <r_i_docking_score>  (1) 
-3.7223959189259346

>  <r_i_glide_ecoul>  (1) 
-8.1463528370443896

>  <r_i_glide_eff_state_penalty>  (1) 
0.73642142352244522

>  <r_i_glide_einternal>  (1) 
0

>  <r_i_glide_emodel>  (1) 
-21.927622427132796

>  <r_i_glide_emodel_strain>  (1) 
0

>  <r_i_glide_energy>  (1) 
-16.304755620989443

>  <r_i_glide_erotb>  (1) 
0

>  <r_i_glide_esite>  (1) 
-0.14944361329254466

>  <r_i_glide_evdw>  (1) 
-8.1584027839450535

>  <r_i_glide_gscore>  (1) 
-4.4588173424483797

>  <r_i_glide_gscore_strain>  (1) 
0

>  <r_i_glide_hbond>  (1) 
-0.15912352355277393

>  <r_i_glide_ligand_efficiency>  (1) 
-0.62039931982098906

>  <r_i_glide_ligand_efficiency_ln>  (1) 
-1.3333512288417915

>  <r_i_glide_ligand_efficiency_sa>  (1) 
-1.127340379825772

>  <r_i_glide_lipo>  (1) 
-0.2703771408491501

>  <r_i_glide_metal>  (1) 
-0

>  <r_i_glide_rewards>  (1) 
-2.25

>  <r_lp_Energy>  (1) 
3.7227389999999998

>  <r_lp_tautomer_probability>  (1) 
0.49999999999999867

>  <s_epik_cmdline>  (1) 
J2VwaWtfcHl0aG9uJywgJy1waHQnLCAnMS4wJywgJy1waCcsICc3LjQnLCAnLXRuJywgJzgnLCAnLW1hJywgJzUwMCcsICctaW1hZScsICc8aW5maWxlLm1hZT4nLCAnLW9tYWUnLCAnPG91dGZpbGUubWFlPic=

>  <s_epik_input>  (1) 
W25IXTFbY0hdbltjSF1jMVtDSDNd

>  <s_glide_docking_method>  (1) 
confgen

>  <s_i_glide_gridfile>  (1) 
gpcr_drd2_6luq_protein_autoprepared_prepared

>  <s_lp_Force_Field>  (1) 
S-OPLS

>  <s_lp_Variant>  (1) 
Pocket2Mol_8_num_sample_50-3

>  <s_m_source_file>  (1) 
generated__ligand_Pocket2Mol_2026-05-06_prepared.sdf

>  <GenAI_Model>  (1) 
Pocket2Mol

>  <Protein>  (1) 
generic_title2

$$$$
Pocket2Mol_10_num_sample_50
     RDKit          3D

  0  0  0  0  0  0  0  0  0  0999 V3000
M  V30 BEGIN CTAB
M  V30 COUNTS 14 13 0 0 1
M  V30 BEGIN ATOM
M  V30 1 N 6.902568 7.063093 -11.891667 0 CHG=1
M  V30 2 C 5.481016 7.376825 -12.136060 0
M  V30 3 C 7.205832 5.623573 -12.039462 0
M  V30 4 C 7.835951 7.930201 -12.638737 0
M  V30 5 H 5.206038 7.195366 -13.175318 0
M  V30 6 H 5.268645 8.418056 -11.891667 0
M  V30 7 H 4.850849 6.763815 -11.491653 0
M  V30 8 H 7.069173 5.297330 -13.071266 0
M  V30 9 H 8.235238 5.413565 -11.746456 0
M  V30 10 H 6.554418 5.025511 -11.400811 0
M  V30 11 H 7.670420 7.855201 -13.714216 0
M  V30 12 H 7.715399 8.969246 -12.331655 0
M  V30 13 H 8.870268 7.654255 -12.430129 0
M  V30 14 H 7.034835 7.300369 -10.898246 0
M  V30 END ATOM
M  V30 BEGIN BOND
M  V30 1 1 2 1
M  V30 2 1 3 1
M  V30 3 1 4 1
M  V30 4 1 5 2
M  V30 5 1 6 2
M  V30 6 1 7 2
M  V30 7 1 8 3
M  V30 8 1 9 3
M  V30 9 1 10 3
M  V30 10 1 11 4
M  V30 11 1 12 4
M  V30 12 1 13 4
M  V30 13 1 14 1
M  V30 END BOND
M  V30 END CTAB
M  END
>  <i_epik_Tot_Q>  (1) 
1

>  <i_epik_Tot_abs_Q>  (1) 
1

>  <i_i_glide_confnum>  (1) 
1

>  <i_i_glide_lignum>  (1) 
13

>  <i_i_glide_posenum>  (1) 
317

>  <i_i_glide_rotatable_bonds>  (1) 
0

>  <i_lp_mmshare_version>  (1) 
72125

>  <i_m_source_file_index>  (1) 
11

>  <i_f3d_flags>  (1) 
0

>  <num_sample>  (1) 
50

>  <b_lp_Chiralities_Consistent>  (1) 
1

>  <r_epik_Charging_Adjusted_Penalty>  (1) 
0.0093753769364623638

>  <r_epik_Ionization_Penalty>  (1) 
0.0046876884682311671

>  <r_epik_Ionization_Penalty_Charging>  (1) 
0.0046876884682311671

>  <r_epik_Ionization_Penalty_Neutral>  (1) 
0

>  <r_epik_State_Penalty>  (1) 
0.0046876884682311958

>  <r_glide_ring_energy>  (1) 
0

>  <r_i_docking_score>  (1) 
-3.7172250303740024

>  <r_i_glide_ecoul>  (1) 
-6.060362836319463

>  <r_i_glide_eff_state_penalty>  (1) 
0.0046876884682311958

>  <r_i_glide_einternal>  (1) 
0

>  <r_i_glide_emodel>  (1) 
-17.333030574414401

>  <r_i_glide_emodel_strain>  (1) 
0

>  <r_i_glide_energy>  (1) 
-11.317528704205744

>  <r_i_glide_erotb>  (1) 
0

>  <r_i_glide_esite>  (1) 
-0.10000000000000001

>  <r_i_glide_evdw>  (1) 
-5.2571658678862807

>  <r_i_glide_gscore>  (1) 
-3.7219127188422334

>  <r_i_glide_gscore_strain>  (1) 
0

>  <r_i_glide_hbond>  (1) 
-0.20000000000000001

>  <r_i_glide_ligand_efficiency>  (1) 
-0.92930625759350061

>  <r_i_glide_ligand_efficiency_ln>  (1) 
-1.5577395190380052

>  <r_i_glide_ligand_efficiency_sa>  (1) 
-1.4751817309045534

>  <r_i_glide_lipo>  (1) 
0

>  <r_i_glide_metal>  (1) 
-0

>  <r_i_glide_rewards>  (1) 
-2.25

>  <r_lp_Energy>  (1) 
13.212527

>  <s_epik_cmdline>  (1) 
J2VwaWtfcHl0aG9uJywgJy1waHQnLCAnMS4wJywgJy1waCcsICc3LjQnLCAnLXRuJywgJzgnLCAnLW1hJywgJzUwMCcsICctaW1hZScsICc8aW5maWxlLm1hZT4nLCAnLW9tYWUnLCAnPG91dGZpbGUubWFlPic=

>  <s_epik_input>  (1) 
W0NIM11OKFtDSDNdKVtDSDNd

>  <s_glide_docking_method>  (1) 
confgen

>  <s_i_glide_gridfile>  (1) 
gpcr_drd2_6luq_protein_autoprepared_prepared

>  <s_lp_Force_Field>  (1) 
S-OPLS

>  <s_lp_Variant>  (1) 
Pocket2Mol_10_num_sample_50-1

>  <s_m_source_file>  (1) 
generated__ligand_Pocket2Mol_2026-05-06_prepared.sdf

>  <GenAI_Model>  (1) 
Pocket2Mol

>  <Protein>  (1) 
generic_title2

$$$$
Pocket2Mol_8_num_sample_50
     RDKit          3D

  0  0  0  0  0  0  0  0  0  0999 V3000
M  V30 BEGIN CTAB
M  V30 COUNTS 12 12 0 0 1
M  V30 BEGIN ATOM
M  V30 1 N 10.928659 7.463539 -5.946448 0
M  V30 2 C 11.434839 7.270026 -4.691663 0
M  V30 3 C 11.834839 8.536138 -4.276034 0
M  V30 4 C 11.034675 8.743048 -6.226433 0
M  V30 5 C 12.452693 8.928553 -2.971738 0
M  V30 6 N 11.574260 9.506563 -5.284254 0
M  V30 7 H 11.467844 6.302394 -4.210478 0
M  V30 8 H 10.699289 9.150083 -7.168416 0
M  V30 9 H 12.575630 8.068549 -2.313399 0
M  V30 10 H 13.434839 9.370966 -3.122284 0
M  V30 11 H 11.837464 9.660134 -2.447134 0
M  V30 12 H 10.538208 6.752218 -6.549340 0
M  V30 END ATOM
M  V30 BEGIN BOND
M  V30 1 1 2 1
M  V30 2 2 3 2
M  V30 3 1 4 1
M  V30 4 1 5 3
M  V30 5 1 6 3
M  V30 6 2 6 4
M  V30 7 1 7 2
M  V30 8 1 8 4
M  V30 9 1 9 5
M  V30 10 1 10 5
M  V30 11 1 11 5
M  V30 12 1 12 1
M  V30 END BOND
M  V30 END CTAB
M  END
>  <i_epik_Tot_Q>  (1) 
0

>  <i_epik_Tot_abs_Q>  (1) 
0

>  <i_i_glide_confnum>  (1) 
1

>  <i_i_glide_lignum>  (1) 
11

>  <i_i_glide_posenum>  (1) 
343

>  <i_i_glide_rotatable_bonds>  (1) 
0

>  <i_lp_mmshare_version>  (1) 
72125

>  <i_m_source_file_index>  (1) 
9

>  <i_f3d_flags>  (1) 
0

>  <num_sample>  (1) 
50

>  <b_lp_Chiralities_Consistent>  (1) 
1

>  <r_epik_Charging_Adjusted_Penalty>  (1) 
1.2833377634270211

>  <r_epik_Ionization_Penalty>  (1) 
0.5469164599317381

>  <r_epik_Ionization_Penalty_Charging>  (1) 
0.546916339904576

>  <r_epik_Ionization_Penalty_Neutral>  (1) 
1.2002716213740492e-07

>  <r_epik_State_Penalty>  (1) 
0.73642142352244522

>  <r_glide_ring_energy>  (1) 
0

>  <r_i_docking_score>  (1) 
-3.6694007001972282

>  <r_i_glide_ecoul>  (1) 
-1.8652676072810466

>  <r_i_glide_eff_state_penalty>  (1) 
0.73642142352244522

>  <r_i_glide_einternal>  (1) 
0

>  <r_i_glide_emodel>  (1) 
-21.743272015530131

>  <r_i_glide_emodel_strain>  (1) 
0

>  <r_i_glide_energy>  (1) 
-16.18723572371108

>  <r_i_glide_erotb>  (1) 
0

>  <r_i_glide_esite>  (1) 
0

>  <r_i_glide_evdw>  (1) 
-14.321968116430034

>  <r_i_glide_gscore>  (1) 
-4.4058221237196733

>  <r_i_glide_gscore_strain>  (1) 
0

>  <r_i_glide_hbond>  (1) 
0

>  <r_i_glide_ligand_efficiency>  (1) 
-0.61156678336620474

>  <r_i_glide_ligand_efficiency_ln>  (1) 
-1.3143684979465113

>  <r_i_glide_ligand_efficiency_sa>  (1) 
-1.1112905959468427

>  <r_i_glide_lipo>  (1) 
-0.75295023084533408

>  <r_i_glide_metal>  (1) 
-0

>  <r_i_glide_rewards>  (1) 
-2.6569833459606809

>  <r_lp_Energy>  (1) 
3.7227389999999998

>  <r_lp_tautomer_probability>  (1) 
0.49999999999999867

>  <s_epik_cmdline>  (1) 
J2VwaWtfcHl0aG9uJywgJy1waHQnLCAnMS4wJywgJy1waCcsICc3LjQnLCAnLXRuJywgJzgnLCAnLW1hJywgJzUwMCcsICctaW1hZScsICc8aW5maWxlLm1hZT4nLCAnLW9tYWUnLCAnPG91dGZpbGUubWFlPic=

>  <s_epik_input>  (1) 
W25IXTFbY0hdbltjSF1jMVtDSDNd

>  <s_glide_docking_method>  (1) 
confgen

>  <s_i_glide_gridfile>  (1) 
gpcr_drd2_6luq_protein_autoprepared_prepared

>  <s_lp_Force_Field>  (1) 
S-OPLS

>  <s_lp_Variant>  (1) 
Pocket2Mol_8_num_sample_50-3

>  <s_m_source_file>  (1) 
generated__ligand_Pocket2Mol_2026-05-06_prepared.sdf

>  <GenAI_Model>  (1) 
Pocket2Mol

>  <Protein>  (1) 
generic_title2

$$$$
Pocket2Mol_8_num_sample_50
     RDKit          3D

  0  0  0  0  0  0  0  0  0  0999 V3000
M  V30 BEGIN CTAB
M  V30 COUNTS 12 12 0 0 1
M  V30 BEGIN ATOM
M  V30 1 N 11.969006 9.086652 -4.374711 0
M  V30 2 C 12.494302 8.586377 -3.148723 0
M  V30 3 C 12.234839 7.226727 -3.019009 0
M  V30 4 C 11.434867 7.983295 -4.885309 0
M  V30 5 C 12.562710 6.253123 -1.937451 0
M  V30 6 N 11.554543 6.892598 -4.159723 0
M  V30 7 H 13.011069 9.244118 -2.464519 0
M  V30 8 H 10.930181 7.981936 -5.840669 0
M  V30 9 H 13.034353 6.753106 -1.092179 0
M  V30 10 H 11.657860 5.769076 -1.570392 0
M  V30 11 H 13.244346 5.480411 -2.291976 0
M  V30 12 H 11.204589 5.974750 -4.399846 0
M  V30 END ATOM
M  V30 BEGIN BOND
M  V30 1 1 2 1
M  V30 2 2 3 2
M  V30 3 2 4 1
M  V30 4 1 5 3
M  V30 5 1 6 3
M  V30 6 1 6 4
M  V30 7 1 7 2
M  V30 8 1 8 4
M  V30 9 1 9 5
M  V30 10 1 10 5
M  V30 11 1 11 5
M  V30 12 1 12 6
M  V30 END BOND
M  V30 END CTAB
M  END
>  <i_epik_Tot_Q>  (1) 
0

>  <i_epik_Tot_abs_Q>  (1) 
0

>  <i_i_glide_confnum>  (1) 
1

>  <i_i_glide_lignum>  (1) 
9

>  <i_i_glide_posenum>  (1) 
73

>  <i_i_glide_rotatable_bonds>  (1) 
0

>  <i_lp_mmshare_version>  (1) 
72125

>  <i_m_source_file_index>  (1) 
9

>  <i_f3d_flags>  (1) 
0

>  <num_sample>  (1) 
50

>  <b_lp_Chiralities_Consistent>  (1) 
1

>  <r_epik_Charging_Adjusted_Penalty>  (1) 
0.90509379346265462

>  <r_epik_Ionization_Penalty>  (1) 
0.31828505333430857

>  <r_epik_Ionization_Penalty_Charging>  (1) 
0.31828499876078775

>  <r_epik_Ionization_Penalty_Neutral>  (1) 
5.457352079622119e-08

>  <r_epik_State_Penalty>  (1) 
0.58680879470186686

>  <r_glide_ring_energy>  (1) 
0

>  <r_i_docking_score>  (1) 
-3.6375133827614969

>  <r_i_glide_ecoul>  (1) 
-2.1938655076606848

>  <r_i_glide_eff_state_penalty>  (1) 
0.58680879470186686

>  <r_i_glide_einternal>  (1) 
0

>  <r_i_glide_emodel>  (1) 
-21.511824598710334

>  <r_i_glide_emodel_strain>  (1) 
3.4106051316484809e-13

>  <r_i_glide_energy>  (1) 
-15.860302318948143

>  <r_i_glide_erotb>  (1) 
0

>  <r_i_glide_esite>  (1) 
0

>  <r_i_glide_evdw>  (1) 
-13.666436811287459

>  <r_i_glide_gscore>  (1) 
-4.2243221774633639

>  <r_i_glide_gscore_strain>  (1) 
0

>  <r_i_glide_hbond>  (1) 
0

>  <r_i_glide_ligand_efficiency>  (1) 
-0.60625223046024945

>  <r_i_glide_ligand_efficiency_ln>  (1) 
-1.3029465549792869

>  <r_i_glide_ligand_efficiency_sa>  (1) 
-1.1016334124197356

>  <r_i_glide_lipo>  (1) 
-0.74531712135333583

>  <r_i_glide_metal>  (1) 
-0

>  <r_i_glide_rewards>  (1) 
-2.4666033893965524

>  <r_lp_Energy>  (1) 
2.6351399999999998

>  <r_lp_tautomer_probability>  (1) 
0.49999999999999867

>  <s_epik_cmdline>  (1) 
J2VwaWtfcHl0aG9uJywgJy1waHQnLCAnMS4wJywgJy1waCcsICc3LjQnLCAnLXRuJywgJzgnLCAnLW1hJywgJzUwMCcsICctaW1hZScsICc8aW5maWxlLm1hZT4nLCAnLW9tYWUnLCAnPG91dGZpbGUubWFlPic=

>  <s_epik_input>  (1) 
W25IXTFbY0hdbltjSF1jMVtDSDNd

>  <s_glide_docking_method>  (1) 
confgen

>  <s_i_glide_gridfile>  (1) 
gpcr_drd2_6luq_protein_autoprepared_prepared

>  <s_lp_Force_Field>  (1) 
S-OPLS

>  <s_lp_Variant>  (1) 
Pocket2Mol_8_num_sample_50-1

>  <s_m_source_file>  (1) 
generated__ligand_Pocket2Mol_2026-05-06_prepared.sdf

>  <GenAI_Model>  (1) 
Pocket2Mol

>  <Protein>  (1) 
generic_title2

$$$$
Pocket2Mol_8_num_sample_50
     RDKit          3D

  0  0  0  0  0  0  0  0  0  0999 V3000
M  V30 BEGIN CTAB
M  V30 COUNTS 12 12 0 0 1
M  V30 BEGIN ATOM
M  V30 1 N 12.484112 8.188442 -2.014007 0
M  V30 2 C 12.241090 6.978952 -2.601701 0
M  V30 3 C 11.834839 7.294611 -3.892698 0
M  V30 4 C 12.234821 9.121006 -2.904197 0
M  V30 5 C 11.435230 6.363872 -4.989978 0
M  V30 6 N 11.835127 8.703148 -4.095346 0
M  V30 7 H 12.364230 6.035069 -2.089186 0
M  V30 8 H 12.350462 10.167932 -2.679520 0
M  V30 9 H 11.836481 5.369735 -4.814523 0
M  V30 10 H 10.351059 6.282698 -5.069607 0
M  V30 11 H 11.827903 6.695827 -5.951846 0
M  V30 12 H 12.796625 8.340638 -1.066447 0
M  V30 END ATOM
M  V30 BEGIN BOND
M  V30 1 1 2 1
M  V30 2 2 3 2
M  V30 3 1 4 1
M  V30 4 1 5 3
M  V30 5 1 6 3
M  V30 6 2 6 4
M  V30 7 1 7 2
M  V30 8 1 8 4
M  V30 9 1 9 5
M  V30 10 1 10 5
M  V30 11 1 11 5
M  V30 12 1 12 1
M  V30 END BOND
M  V30 END CTAB
M  END
>  <i_epik_Tot_Q>  (1) 
0

>  <i_epik_Tot_abs_Q>  (1) 
0

>  <i_i_glide_confnum>  (1) 
1

>  <i_i_glide_lignum>  (1) 
11

>  <i_i_glide_posenum>  (1) 
174

>  <i_i_glide_rotatable_bonds>  (1) 
0

>  <i_lp_mmshare_version>  (1) 
72125

>  <i_m_source_file_index>  (1) 
9

>  <i_f3d_flags>  (1) 
0

>  <num_sample>  (1) 
50

>  <b_lp_Chiralities_Consistent>  (1) 
1

>  <r_epik_Charging_Adjusted_Penalty>  (1) 
1.2833377634270211

>  <r_epik_Ionization_Penalty>  (1) 
0.5469164599317381

>  <r_epik_Ionization_Penalty_Charging>  (1) 
0.546916339904576

>  <r_epik_Ionization_Penalty_Neutral>  (1) 
1.2002716213740492e-07

>  <r_epik_State_Penalty>  (1) 
0.73642142352244522

>  <r_glide_ring_energy>  (1) 
0

>  <r_i_docking_score>  (1) 
-3.6077334610010623

>  <r_i_glide_ecoul>  (1) 
-1.805406351807

>  <r_i_glide_eff_state_penalty>  (1) 
0.73642142352244522

>  <r_i_glide_einternal>  (1) 
0

>  <r_i_glide_emodel>  (1) 
-21.573958055913316

>  <r_i_glide_emodel_strain>  (1) 
0.0013871760139068101

>  <r_i_glide_energy>  (1) 
-16.097075452093662

>  <r_i_glide_erotb>  (1) 
0

>  <r_i_glide_esite>  (1) 
0

>  <r_i_glide_evdw>  (1) 
-14.291669100286663

>  <r_i_glide_gscore>  (1) 
-4.3441548845235074

>  <r_i_glide_gscore_strain>  (1) 
0

>  <r_i_glide_hbond>  (1) 
0

>  <r_i_glide_ligand_efficiency>  (1) 
-0.60128891016684372

>  <r_i_glide_ligand_efficiency_ln>  (1) 
-1.2922794749214663

>  <r_i_glide_ligand_efficiency_sa>  (1) 
-1.0926144609057664

>  <r_i_glide_lipo>  (1) 
-0.65876047673812443

>  <r_i_glide_metal>  (1) 
-0

>  <r_i_glide_rewards>  (1) 
-2.7000000000000002

>  <r_lp_Energy>  (1) 
3.7227389999999998

>  <r_lp_tautomer_probability>  (1) 
0.49999999999999867

>  <s_epik_cmdline>  (1) 
J2VwaWtfcHl0aG9uJywgJy1waHQnLCAnMS4wJywgJy1waCcsICc3LjQnLCAnLXRuJywgJzgnLCAnLW1hJywgJzUwMCcsICctaW1hZScsICc8aW5maWxlLm1hZT4nLCAnLW9tYWUnLCAnPG91dGZpbGUubWFlPic=

>  <s_epik_input>  (1) 
W25IXTFbY0hdbltjSF1jMVtDSDNd

>  <s_glide_docking_method>  (1) 
confgen

>  <s_i_glide_gridfile>  (1) 
gpcr_drd2_6luq_protein_autoprepared_prepared

>  <s_lp_Force_Field>  (1) 
S-OPLS

>  <s_lp_Variant>  (1) 
Pocket2Mol_8_num_sample_50-3

>  <s_m_source_file>  (1) 
generated__ligand_Pocket2Mol_2026-05-06_prepared.sdf

>  <GenAI_Model>  (1) 
Pocket2Mol

>  <Protein>  (1) 
generic_title2

$$$$
Pocket2Mol_10_num_sample_50
     RDKit          3D

  0  0  0  0  0  0  0  0  0  0999 V3000
M  V30 BEGIN CTAB
M  V30 COUNTS 14 13 0 0 1
M  V30 BEGIN ATOM
M  V30 1 N 9.434851 7.121807 -8.736200 0 CHG=1
M  V30 2 C 10.414278 7.503692 -9.774452 0
M  V30 3 C 9.396581 5.664072 -8.491409 0
M  V30 4 C 9.578768 7.900907 -7.487917 0
M  V30 5 H 11.432699 7.277507 -9.455999 0
M  V30 6 H 10.350595 8.570093 -9.987990 0
M  V30 7 H 10.217257 6.969065 -10.704482 0
M  V30 8 H 10.339032 5.311789 -8.070477 0
M  V30 9 H 8.593925 5.414451 -7.795752 0
M  V30 10 H 9.209601 5.120137 -9.418188 0
M  V30 11 H 10.540830 7.709746 -7.010940 0
M  V30 12 H 9.498436 8.969301 -7.690905 0
M  V30 13 H 8.786600 7.642630 -6.782798 0
M  V30 14 H 8.502373 7.369241 -9.091667 0
M  V30 END ATOM
M  V30 BEGIN BOND
M  V30 1 1 2 1
M  V30 2 1 3 1
M  V30 3 1 4 1
M  V30 4 1 5 2
M  V30 5 1 6 2
M  V30 6 1 7 2
M  V30 7 1 8 3
M  V30 8 1 9 3
M  V30 9 1 10 3
M  V30 10 1 11 4
M  V30 11 1 12 4
M  V30 12 1 13 4
M  V30 13 1 14 1
M  V30 END BOND
M  V30 END CTAB
M  END
>  <i_epik_Tot_Q>  (1) 
1

>  <i_epik_Tot_abs_Q>  (1) 
1

>  <i_i_glide_confnum>  (1) 
1

>  <i_i_glide_lignum>  (1) 
13

>  <i_i_glide_posenum>  (1) 
266

>  <i_i_glide_rotatable_bonds>  (1) 
0

>  <i_lp_mmshare_version>  (1) 
72125

>  <i_m_source_file_index>  (1) 
11

>  <i_f3d_flags>  (1) 
0

>  <num_sample>  (1) 
50

>  <b_lp_Chiralities_Consistent>  (1) 
1

>  <r_epik_Charging_Adjusted_Penalty>  (1) 
0.0093753769364623638

>  <r_epik_Ionization_Penalty>  (1) 
0.0046876884682311671

>  <r_epik_Ionization_Penalty_Charging>  (1) 
0.0046876884682311671

>  <r_epik_Ionization_Penalty_Neutral>  (1) 
0

>  <r_epik_State_Penalty>  (1) 
0.0046876884682311958

>  <r_glide_ring_energy>  (1) 
0

>  <r_i_docking_score>  (1) 
-3.5920499308403113

>  <r_i_glide_ecoul>  (1) 
-4.6571262402355451

>  <r_i_glide_eff_state_penalty>  (1) 
0.0046876884682311958

>  <r_i_glide_einternal>  (1) 
0

>  <r_i_glide_emodel>  (1) 
-17.433688851820634

>  <r_i_glide_emodel_strain>  (1) 
0

>  <r_i_glide_energy>  (1) 
-11.620499905699759

>  <r_i_glide_erotb>  (1) 
0

>  <r_i_glide_esite>  (1) 
-0.10000000000000001

>  <r_i_glide_evdw>  (1) 
-6.9633736654642133

>  <r_i_glide_gscore>  (1) 
-3.5967376193085423

>  <r_i_glide_gscore_strain>  (1) 
0

>  <r_i_glide_hbond>  (1) 
-0.20000000000000001

>  <r_i_glide_ligand_efficiency>  (1) 
-0.89801248271007783

>  <r_i_glide_ligand_efficiency_ln>  (1) 
-1.505283668840653

>  <r_i_glide_ligand_efficiency_sa>  (1) 
-1.4255059597345521

>  <r_i_glide_lipo>  (1) 
0

>  <r_i_glide_metal>  (1) 
-0

>  <r_i_glide_rewards>  (1) 
-2.25

>  <r_lp_Energy>  (1) 
13.212527

>  <s_epik_cmdline>  (1) 
J2VwaWtfcHl0aG9uJywgJy1waHQnLCAnMS4wJywgJy1waCcsICc3LjQnLCAnLXRuJywgJzgnLCAnLW1hJywgJzUwMCcsICctaW1hZScsICc8aW5maWxlLm1hZT4nLCAnLW9tYWUnLCAnPG91dGZpbGUubWFlPic=

>  <s_epik_input>  (1) 
W0NIM11OKFtDSDNdKVtDSDNd

>  <s_glide_docking_method>  (1) 
confgen

>  <s_i_glide_gridfile>  (1) 
gpcr_drd2_6luq_protein_autoprepared_prepared

>  <s_lp_Force_Field>  (1) 
S-OPLS

>  <s_lp_Variant>  (1) 
Pocket2Mol_10_num_sample_50-1

>  <s_m_source_file>  (1) 
generated__ligand_Pocket2Mol_2026-05-06_prepared.sdf

>  <GenAI_Model>  (1) 
Pocket2Mol

>  <Protein>  (1) 
generic_title2

$$$$
Pocket2Mol_8_num_sample_50
     RDKit          3D

  0  0  0  0  0  0  0  0  0  0999 V3000
M  V30 BEGIN CTAB
M  V30 COUNTS 12 12 0 0 1
M  V30 BEGIN ATOM
M  V30 1 N 12.232527 7.224432 -2.580928 0
M  V30 2 C 11.834511 7.184974 -3.887679 0
M  V30 3 C 11.833310 8.515909 -4.293830 0
M  V30 4 C 12.444904 8.482802 -2.266325 0
M  V30 5 C 11.472130 9.075166 -5.633578 0
M  V30 6 N 12.235172 9.369277 -3.229343 0
M  V30 7 H 11.590823 6.267512 -4.403842 0
M  V30 8 H 12.769204 8.778319 -1.279578 0
M  V30 9 H 11.188549 8.288627 -6.333265 0
M  V30 10 H 10.632230 9.765372 -5.554906 0
M  V30 11 H 12.309632 9.619999 -6.069091 0
M  V30 12 H 12.342623 6.430125 -1.967717 0
M  V30 END ATOM
M  V30 BEGIN BOND
M  V30 1 1 2 1
M  V30 2 2 3 2
M  V30 3 1 4 1
M  V30 4 1 5 3
M  V30 5 1 6 3
M  V30 6 2 6 4
M  V30 7 1 7 2
M  V30 8 1 8 4
M  V30 9 1 9 5
M  V30 10 1 10 5
M  V30 11 1 11 5
M  V30 12 1 12 1
M  V30 END BOND
M  V30 END CTAB
M  END
>  <i_epik_Tot_Q>  (1) 
0

>  <i_epik_Tot_abs_Q>  (1) 
0

>  <i_i_glide_confnum>  (1) 
1

>  <i_i_glide_lignum>  (1) 
11

>  <i_i_glide_posenum>  (1) 
359

>  <i_i_glide_rotatable_bonds>  (1) 
0

>  <i_lp_mmshare_version>  (1) 
72125

>  <i_m_source_file_index>  (1) 
9

>  <i_f3d_flags>  (1) 
0

>  <num_sample>  (1) 
50

>  <b_lp_Chiralities_Consistent>  (1) 
1

>  <r_epik_Charging_Adjusted_Penalty>  (1) 
1.2833377634270211

>  <r_epik_Ionization_Penalty>  (1) 
0.5469164599317381

>  <r_epik_Ionization_Penalty_Charging>  (1) 
0.546916339904576

>  <r_epik_Ionization_Penalty_Neutral>  (1) 
1.2002716213740492e-07

>  <r_epik_State_Penalty>  (1) 
0.73642142352244522

>  <r_glide_ring_energy>  (1) 
0

>  <r_i_docking_score>  (1) 
-3.5877304517915181

>  <r_i_glide_ecoul>  (1) 
-0.99726192590210394

>  <r_i_glide_eff_state_penalty>  (1) 
0.73642142352244522

>  <r_i_glide_einternal>  (1) 
0

>  <r_i_glide_emodel>  (1) 
-21.736023116007978

>  <r_i_glide_emodel_strain>  (1) 
0

>  <r_i_glide_energy>  (1) 
-16.282978468282106

>  <r_i_glide_erotb>  (1) 
0

>  <r_i_glide_esite>  (1) 
0

>  <r_i_glide_evdw>  (1) 
-15.285716542380003

>  <r_i_glide_gscore>  (1) 
-4.3241518753139632

>  <r_i_glide_gscore_strain>  (1) 
0

>  <r_i_glide_hbond>  (1) 
0

>  <r_i_glide_ligand_efficiency>  (1) 
-0.59795507529858638

>  <r_i_glide_ligand_efficiency_ln>  (1) 
-1.285114456075815

>  <r_i_glide_ligand_efficiency_sa>  (1) 
-1.0865564809135539

>  <r_i_glide_lipo>  (1) 
-0.71027675930964773

>  <r_i_glide_metal>  (1) 
-0

>  <r_i_glide_rewards>  (1) 
-2.7000000000000002

>  <r_lp_Energy>  (1) 
3.7227389999999998

>  <r_lp_tautomer_probability>  (1) 
0.49999999999999867

>  <s_epik_cmdline>  (1) 
J2VwaWtfcHl0aG9uJywgJy1waHQnLCAnMS4wJywgJy1waCcsICc3LjQnLCAnLXRuJywgJzgnLCAnLW1hJywgJzUwMCcsICctaW1hZScsICc8aW5maWxlLm1hZT4nLCAnLW9tYWUnLCAnPG91dGZpbGUubWFlPic=

>  <s_epik_input>  (1) 
W25IXTFbY0hdbltjSF1jMVtDSDNd

>  <s_glide_docking_method>  (1) 
confgen

>  <s_i_glide_gridfile>  (1) 
gpcr_drd2_6luq_protein_autoprepared_prepared

>  <s_lp_Force_Field>  (1) 
S-OPLS

>  <s_lp_Variant>  (1) 
Pocket2Mol_8_num_sample_50-3

>  <s_m_source_file>  (1) 
generated__ligand_Pocket2Mol_2026-05-06_prepared.sdf

>  <GenAI_Model>  (1) 
Pocket2Mol

>  <Protein>  (1) 
generic_title2

$$$$
Pocket2Mol_44_num_sample_50
     RDKit          3D

  0  0  0  0  0  0  0  0  0  0999 V3000
M  V30 BEGIN CTAB
M  V30 COUNTS 15 16 0 0 1
M  V30 BEGIN ATOM
M  V30 1 C 11.640473 9.124713 -5.400928 0
M  V30 2 O 10.557847 8.146148 -5.491667 0
M  V30 3 C 10.576004 7.920015 -6.804879 0
M  V30 4 C 11.522378 8.588622 -7.463334 0
M  V30 5 C 11.663968 8.456708 -8.855977 0
M  V30 6 N 10.813316 7.634204 -9.518806 0 CHG=1
M  V30 7 C 9.834839 6.934444 -8.882289 0
M  V30 8 C 9.688900 7.062024 -7.479257 0
M  V30 9 O 12.284193 9.369299 -6.691665 0
M  V30 10 H 12.384452 8.771006 -4.686120 0
M  V30 11 H 11.231238 10.066218 -5.030027 0
M  V30 12 H 12.405997 8.969335 -9.451776 0
M  V30 13 H 9.207504 6.311132 -9.505488 0
M  V30 14 H 8.917026 6.524207 -6.946253 0
M  V30 15 H 10.907271 7.538138 -10.530736 0
M  V30 END ATOM
M  V30 BEGIN BOND
M  V30 1 1 2 1
M  V30 2 1 3 2
M  V30 3 2 4 3
M  V30 4 1 5 4
M  V30 5 2 6 5
M  V30 6 1 7 6
M  V30 7 1 8 3
M  V30 8 2 8 7
M  V30 9 1 9 1
M  V30 10 1 9 4
M  V30 11 1 10 1
M  V30 12 1 11 1
M  V30 13 1 12 5
M  V30 14 1 13 7
M  V30 15 1 14 8
M  V30 16 1 15 6
M  V30 END BOND
M  V30 END CTAB
M  END
>  <i_epik_Tot_Q>  (1) 
1

>  <i_epik_Tot_abs_Q>  (1) 
1

>  <i_i_glide_confnum>  (1) 
1

>  <i_i_glide_lignum>  (1) 
50

>  <i_i_glide_posenum>  (1) 
233

>  <i_i_glide_rotatable_bonds>  (1) 
0

>  <i_lp_mmshare_version>  (1) 
72125

>  <i_m_source_file_index>  (1) 
45

>  <i_f3d_flags>  (1) 
0

>  <num_sample>  (1) 
50

>  <b_lp_Chiralities_Consistent>  (1) 
1

>  <r_epik_Charging_Adjusted_Penalty>  (1) 
2.6035637255513002

>  <r_epik_Ionization_Penalty>  (1) 
1.3017818627756499

>  <r_epik_Ionization_Penalty_Charging>  (1) 
1.3017818627756499

>  <r_epik_Ionization_Penalty_Neutral>  (1) 
0

>  <r_epik_State_Penalty>  (1) 
1.3017818627756503

>  <r_glide_ring_energy>  (1) 
0

>  <r_i_docking_score>  (1) 
-3.5722644086918587

>  <r_i_glide_ecoul>  (1) 
-2.0421084251822967

>  <r_i_glide_eff_state_penalty>  (1) 
1.3017818627756503

>  <r_i_glide_einternal>  (1) 
0

>  <r_i_glide_emodel>  (1) 
-28.250749939851513

>  <r_i_glide_emodel_strain>  (1) 
0

>  <r_i_glide_energy>  (1) 
-19.206136986923461

>  <r_i_glide_erotb>  (1) 
0

>  <r_i_glide_esite>  (1) 
-0.00021808669325892595

>  <r_i_glide_evdw>  (1) 
-17.164028561741166

>  <r_i_glide_gscore>  (1) 
-4.8740462714675088

>  <r_i_glide_gscore_strain>  (1) 
0

>  <r_i_glide_hbond>  (1) 
0

>  <r_i_glide_ligand_efficiency>  (1) 
-0.39691826763242877

>  <r_i_glide_ligand_efficiency_ln>  (1) 
-1.1173016853473912

>  <r_i_glide_ligand_efficiency_sa>  (1) 
-0.82562326757600135

>  <r_i_glide_lipo>  (1) 
-0.65266638481445949

>  <r_i_glide_metal>  (1) 
-0

>  <r_i_glide_rewards>  (1) 
-3.0566441080953881

>  <r_lp_Energy>  (1) 
25.893000999999998

>  <s_epik_Chemistry_Notes>  (1) 
This compound contains an acetal/aminal-like group ( X-CH(R)-Y where X, Y are N, S, or O) that may be acid/base labile, releasing an aldehyde.

>  <s_epik_cmdline>  (1) 
J2VwaWtfcHl0aG9uJywgJy1waHQnLCAnMS4wJywgJy1waCcsICc3LjQnLCAnLXRuJywgJzgnLCAnLW1hJywgJzUwMCcsICctaW1hZScsICc8aW5maWxlLm1hZT4nLCAnLW9tYWUnLCAnPG91dGZpbGUubWFlPic=

>  <s_epik_input>  (1) 
TzFbQ0gyXU9jKGMxMilbY0hdbltjSF1bY0hdMg==

>  <s_glide_docking_method>  (1) 
confgen

>  <s_i_glide_gridfile>  (1) 
gpcr_drd2_6luq_protein_autoprepared_prepared

>  <s_lp_Force_Field>  (1) 
S-OPLS

>  <s_lp_Variant>  (1) 
Pocket2Mol_44_num_sample_50-2

>  <s_m_source_file>  (1) 
generated__ligand_Pocket2Mol_2026-05-06_prepared.sdf

>  <GenAI_Model>  (1) 
Pocket2Mol

>  <Protein>  (1) 
generic_title2

$$$$
Pocket2Mol_8_num_sample_50
     RDKit          3D

  0  0  0  0  0  0  0  0  0  0999 V3000
M  V30 BEGIN CTAB
M  V30 COUNTS 12 12 0 0 1
M  V30 BEGIN ATOM
M  V30 1 N 9.434839 7.664550 -8.064922 0
M  V30 2 C 9.434839 6.975524 -6.885884 0
M  V30 3 C 10.723360 7.123751 -6.392150 0
M  V30 4 C 10.635143 8.169302 -8.232410 0
M  V30 5 C 11.295213 6.574001 -5.124815 0
M  V30 6 N 11.516829 7.911050 -7.275027 0
M  V30 7 H 8.564105 6.459346 -6.505177 0
M  V30 8 H 10.889259 8.763232 -9.098169 0
M  V30 9 H 10.514771 6.169302 -4.479862 0
M  V30 10 H 11.998063 5.769303 -5.335591 0
M  V30 11 H 11.824763 7.342506 -4.562063 0
M  V30 12 H 8.642705 7.769301 -8.697163 0
M  V30 END ATOM
M  V30 BEGIN BOND
M  V30 1 1 2 1
M  V30 2 2 3 2
M  V30 3 1 4 1
M  V30 4 1 5 3
M  V30 5 1 6 3
M  V30 6 2 6 4
M  V30 7 1 7 2
M  V30 8 1 8 4
M  V30 9 1 9 5
M  V30 10 1 10 5
M  V30 11 1 11 5
M  V30 12 1 12 1
M  V30 END BOND
M  V30 END CTAB
M  END
>  <i_epik_Tot_Q>  (1) 
0

>  <i_epik_Tot_abs_Q>  (1) 
0

>  <i_i_glide_confnum>  (1) 
1

>  <i_i_glide_lignum>  (1) 
11

>  <i_i_glide_posenum>  (1) 
297

>  <i_i_glide_rotatable_bonds>  (1) 
0

>  <i_lp_mmshare_version>  (1) 
72125

>  <i_m_source_file_index>  (1) 
9

>  <i_f3d_flags>  (1) 
0

>  <num_sample>  (1) 
50

>  <b_lp_Chiralities_Consistent>  (1) 
1

>  <r_epik_Charging_Adjusted_Penalty>  (1) 
1.2833377634270211

>  <r_epik_Ionization_Penalty>  (1) 
0.5469164599317381

>  <r_epik_Ionization_Penalty_Charging>  (1) 
0.546916339904576

>  <r_epik_Ionization_Penalty_Neutral>  (1) 
1.2002716213740492e-07

>  <r_epik_State_Penalty>  (1) 
0.73642142352244522

>  <r_glide_ring_energy>  (1) 
0

>  <r_i_docking_score>  (1) 
-3.5333237314553165

>  <r_i_glide_ecoul>  (1) 
-3.7394024508834298

>  <r_i_glide_eff_state_penalty>  (1) 
0.73642142352244522

>  <r_i_glide_einternal>  (1) 
0

>  <r_i_glide_emodel>  (1) 
-22.009363229742554

>  <r_i_glide_emodel_strain>  (1) 
0

>  <r_i_glide_energy>  (1) 
-16.624929094247616

>  <r_i_glide_erotb>  (1) 
0

>  <r_i_glide_esite>  (1) 
-0.10601740646814005

>  <r_i_glide_evdw>  (1) 
-12.885526643364186

>  <r_i_glide_gscore>  (1) 
-4.2697451549777616

>  <r_i_glide_gscore_strain>  (1) 
0

>  <r_i_glide_hbond>  (1) 
-0.16

>  <r_i_glide_ligand_efficiency>  (1) 
-0.58888728857588613

>  <r_i_glide_ligand_efficiency_ln>  (1) 
-1.2656261294717881

>  <r_i_glide_ligand_efficiency_sa>  (1) 
-1.0700792189283255

>  <r_i_glide_lipo>  (1) 
-0.54854104870889753

>  <r_i_glide_metal>  (1) 
-0

>  <r_i_glide_rewards>  (1) 
-2.25

>  <r_lp_Energy>  (1) 
3.7227389999999998

>  <r_lp_tautomer_probability>  (1) 
0.49999999999999867

>  <s_epik_cmdline>  (1) 
J2VwaWtfcHl0aG9uJywgJy1waHQnLCAnMS4wJywgJy1waCcsICc3LjQnLCAnLXRuJywgJzgnLCAnLW1hJywgJzUwMCcsICctaW1hZScsICc8aW5maWxlLm1hZT4nLCAnLW9tYWUnLCAnPG91dGZpbGUubWFlPic=

>  <s_epik_input>  (1) 
W25IXTFbY0hdbltjSF1jMVtDSDNd

>  <s_glide_docking_method>  (1) 
confgen

>  <s_i_glide_gridfile>  (1) 
gpcr_drd2_6luq_protein_autoprepared_prepared

>  <s_lp_Force_Field>  (1) 
S-OPLS

>  <s_lp_Variant>  (1) 
Pocket2Mol_8_num_sample_50-3

>  <s_m_source_file>  (1) 
generated__ligand_Pocket2Mol_2026-05-06_prepared.sdf

>  <GenAI_Model>  (1) 
Pocket2Mol

>  <Protein>  (1) 
generic_title2

$$$$
Pocket2Mol_8_num_sample_50
     RDKit          3D

  0  0  0  0  0  0  0  0  0  0999 V3000
M  V30 BEGIN CTAB
M  V30 COUNTS 12 12 0 0 1
M  V30 BEGIN ATOM
M  V30 1 N 11.618843 9.683386 -5.756265 0
M  V30 2 C 11.834937 8.996799 -4.559297 0
M  V30 3 C 11.434826 7.684448 -4.692336 0
M  V30 4 C 11.099233 8.769232 -6.566152 0
M  V30 5 C 11.452260 6.549544 -3.725332 0
M  V30 6 N 10.967753 7.570815 -5.991285 0
M  V30 7 H 12.258828 9.497484 -3.700997 0
M  V30 8 H 10.811991 8.974706 -7.587012 0
M  V30 9 H 11.860102 6.863282 -2.764074 0
M  V30 10 H 10.444887 6.169295 -3.554799 0
M  V30 11 H 12.066358 5.730150 -4.099427 0
M  V30 12 H 10.596186 6.739004 -6.426813 0
M  V30 END ATOM
M  V30 BEGIN BOND
M  V30 1 1 2 1
M  V30 2 2 3 2
M  V30 3 2 4 1
M  V30 4 1 5 3
M  V30 5 1 6 3
M  V30 6 1 6 4
M  V30 7 1 7 2
M  V30 8 1 8 4
M  V30 9 1 9 5
M  V30 10 1 10 5
M  V30 11 1 11 5
M  V30 12 1 12 6
M  V30 END BOND
M  V30 END CTAB
M  END
>  <i_epik_Tot_Q>  (1) 
0

>  <i_epik_Tot_abs_Q>  (1) 
0

>  <i_i_glide_confnum>  (1) 
1

>  <i_i_glide_lignum>  (1) 
9

>  <i_i_glide_posenum>  (1) 
218

>  <i_i_glide_rotatable_bonds>  (1) 
0

>  <i_lp_mmshare_version>  (1) 
72125

>  <i_m_source_file_index>  (1) 
9

>  <i_f3d_flags>  (1) 
0

>  <num_sample>  (1) 
50

>  <b_lp_Chiralities_Consistent>  (1) 
1

>  <r_epik_Charging_Adjusted_Penalty>  (1) 
0.90509379346265462

>  <r_epik_Ionization_Penalty>  (1) 
0.31828505333430857

>  <r_epik_Ionization_Penalty_Charging>  (1) 
0.31828499876078775

>  <r_epik_Ionization_Penalty_Neutral>  (1) 
5.457352079622119e-08

>  <r_epik_State_Penalty>  (1) 
0.58680879470186686

>  <r_glide_ring_energy>  (1) 
0

>  <r_i_docking_score>  (1) 
-3.5285736546378437

>  <r_i_glide_ecoul>  (1) 
-1.712526562707201

>  <r_i_glide_eff_state_penalty>  (1) 
0.58680879470186686

>  <r_i_glide_einternal>  (1) 
0

>  <r_i_glide_emodel>  (1) 
-20.829679753439478

>  <r_i_glide_emodel_strain>  (1) 
7.7001036657975419e-09

>  <r_i_glide_energy>  (1) 
-15.323902828151667

>  <r_i_glide_erotb>  (1) 
0

>  <r_i_glide_esite>  (1) 
0

>  <r_i_glide_evdw>  (1) 
-13.611376265444466

>  <r_i_glide_gscore>  (1) 
-4.1153824493397106

>  <r_i_glide_gscore_strain>  (1) 
0

>  <r_i_glide_hbond>  (1) 
0

>  <r_i_glide_ligand_efficiency>  (1) 
-0.58809560910630732

>  <r_i_glide_ligand_efficiency_ln>  (1) 
-1.2639246659790229

>  <r_i_glide_ligand_efficiency_sa>  (1) 
-1.0686406418612315

>  <r_i_glide_lipo>  (1) 
-0.54630638013472577

>  <r_i_glide_metal>  (1) 
-0

>  <r_i_glide_rewards>  (1) 
-2.6316282715266817

>  <r_lp_Energy>  (1) 
2.6351399999999998

>  <r_lp_tautomer_probability>  (1) 
0.49999999999999867

>  <s_epik_cmdline>  (1) 
J2VwaWtfcHl0aG9uJywgJy1waHQnLCAnMS4wJywgJy1waCcsICc3LjQnLCAnLXRuJywgJzgnLCAnLW1hJywgJzUwMCcsICctaW1hZScsICc8aW5maWxlLm1hZT4nLCAnLW9tYWUnLCAnPG91dGZpbGUubWFlPic=

>  <s_epik_input>  (1) 
W25IXTFbY0hdbltjSF1jMVtDSDNd

>  <s_glide_docking_method>  (1) 
confgen

>  <s_i_glide_gridfile>  (1) 
gpcr_drd2_6luq_protein_autoprepared_prepared

>  <s_lp_Force_Field>  (1) 
S-OPLS

>  <s_lp_Variant>  (1) 
Pocket2Mol_8_num_sample_50-1

>  <s_m_source_file>  (1) 
generated__ligand_Pocket2Mol_2026-05-06_prepared.sdf

>  <GenAI_Model>  (1) 
Pocket2Mol

>  <Protein>  (1) 
generic_title2

$$$$
Pocket2Mol_8_num_sample_50
     RDKit          3D

  0  0  0  0  0  0  0  0  0  0999 V3000
M  V30 BEGIN CTAB
M  V30 COUNTS 12 12 0 0 1
M  V30 BEGIN ATOM
M  V30 1 N 10.813433 8.341027 -6.386970 0
M  V30 2 C 11.553495 8.229744 -7.566272 0
M  V30 3 C 10.709194 7.990185 -8.629202 0
M  V30 4 C 9.556111 8.166201 -6.774483 0
M  V30 5 C 10.988667 7.795018 -10.080825 0
M  V30 6 N 9.434846 7.955163 -8.087769 0
M  V30 7 H 12.629094 8.330096 -7.558091 0
M  V30 8 H 8.716350 8.192155 -6.095506 0
M  V30 9 H 12.057740 7.862597 -10.284045 0
M  V30 10 H 10.644642 6.815739 -10.414185 0
M  V30 11 H 10.484438 8.554404 -10.678786 0
M  V30 12 H 8.572008 7.799427 -8.588682 0
M  V30 END ATOM
M  V30 BEGIN BOND
M  V30 1 1 2 1
M  V30 2 2 3 2
M  V30 3 2 4 1
M  V30 4 1 5 3
M  V30 5 1 6 3
M  V30 6 1 6 4
M  V30 7 1 7 2
M  V30 8 1 8 4
M  V30 9 1 9 5
M  V30 10 1 10 5
M  V30 11 1 11 5
M  V30 12 1 12 6
M  V30 END BOND
M  V30 END CTAB
M  END
>  <i_epik_Tot_Q>  (1) 
0

>  <i_epik_Tot_abs_Q>  (1) 
0

>  <i_i_glide_confnum>  (1) 
1

>  <i_i_glide_lignum>  (1) 
9

>  <i_i_glide_posenum>  (1) 
328

>  <i_i_glide_rotatable_bonds>  (1) 
0

>  <i_lp_mmshare_version>  (1) 
72125

>  <i_m_source_file_index>  (1) 
9

>  <i_f3d_flags>  (1) 
0

>  <num_sample>  (1) 
50

>  <b_lp_Chiralities_Consistent>  (1) 
1

>  <r_epik_Charging_Adjusted_Penalty>  (1) 
0.90509379346265462

>  <r_epik_Ionization_Penalty>  (1) 
0.31828505333430857

>  <r_epik_Ionization_Penalty_Charging>  (1) 
0.31828499876078775

>  <r_epik_Ionization_Penalty_Neutral>  (1) 
5.457352079622119e-08

>  <r_epik_State_Penalty>  (1) 
0.58680879470186686

>  <r_glide_ring_energy>  (1) 
0

>  <r_i_docking_score>  (1) 
-3.3920268016128037

>  <r_i_glide_ecoul>  (1) 
-3.4029378927308498

>  <r_i_glide_eff_state_penalty>  (1) 
0.58680879470186686

>  <r_i_glide_einternal>  (1) 
0

>  <r_i_glide_emodel>  (1) 
-21.110842600235291

>  <r_i_glide_emodel_strain>  (1) 
3.3956020217829064e-09

>  <r_i_glide_energy>  (1) 
-15.787745293475599

>  <r_i_glide_erotb>  (1) 
0

>  <r_i_glide_esite>  (1) 
-0.13917747027208013

>  <r_i_glide_evdw>  (1) 
-12.384807400744748

>  <r_i_glide_gscore>  (1) 
-3.9788355963146707

>  <r_i_glide_gscore_strain>  (1) 
0

>  <r_i_glide_hbond>  (1) 
-0.16

>  <r_i_glide_ligand_efficiency>  (1) 
-0.56533780026880065

>  <r_i_glide_ligand_efficiency_ln>  (1) 
-1.215013986341283

>  <r_i_glide_ligand_efficiency_sa>  (1) 
-1.0272869587748608

>  <r_i_glide_lipo>  (1) 
-0.29997707209572561

>  <r_i_glide_metal>  (1) 
-0

>  <r_i_glide_rewards>  (1) 
-2.25

>  <r_lp_Energy>  (1) 
2.6351399999999998

>  <r_lp_tautomer_probability>  (1) 
0.49999999999999867

>  <s_epik_cmdline>  (1) 
J2VwaWtfcHl0aG9uJywgJy1waHQnLCAnMS4wJywgJy1waCcsICc3LjQnLCAnLXRuJywgJzgnLCAnLW1hJywgJzUwMCcsICctaW1hZScsICc8aW5maWxlLm1hZT4nLCAnLW9tYWUnLCAnPG91dGZpbGUubWFlPic=

>  <s_epik_input>  (1) 
W25IXTFbY0hdbltjSF1jMVtDSDNd

>  <s_glide_docking_method>  (1) 
confgen

>  <s_i_glide_gridfile>  (1) 
gpcr_drd2_6luq_protein_autoprepared_prepared

>  <s_lp_Force_Field>  (1) 
S-OPLS

>  <s_lp_Variant>  (1) 
Pocket2Mol_8_num_sample_50-1

>  <s_m_source_file>  (1) 
generated__ligand_Pocket2Mol_2026-05-06_prepared.sdf

>  <GenAI_Model>  (1) 
Pocket2Mol

>  <Protein>  (1) 
generic_title2

$$$$
Pocket2Mol_48_num_sample_50
     RDKit          3D

  0  0  0  0  0  0  0  0  0  0999 V3000
M  V30 BEGIN CTAB
M  V30 COUNTS 13 12 0 0 1
M  V30 BEGIN ATOM
M  V30 1 C 11.878088 9.562417 -5.593018 0
M  V30 2 O 10.685422 9.129969 -6.222951 0
M  V30 3 C 10.790983 7.827061 -6.775295 0
M  V30 4 C 9.455777 7.453917 -7.430431 0
M  V30 5 O 9.434901 7.861450 -8.784921 0
M  V30 6 H 11.722366 10.557979 -5.175989 0
M  V30 7 H 12.163238 8.897616 -4.777122 0
M  V30 8 H 12.704051 9.621047 -6.302324 0
M  V30 9 H 10.997520 7.127746 -5.963073 0
M  V30 10 H 11.613052 7.751745 -7.488772 0
M  V30 11 H 8.627509 7.899585 -6.880266 0
M  V30 12 H 9.309724 6.373703 -7.403885 0
M  V30 13 H 8.518801 7.773909 -9.091669 0
M  V30 END ATOM
M  V30 BEGIN BOND
M  V30 1 1 2 1
M  V30 2 1 3 2
M  V30 3 1 4 3
M  V30 4 1 5 4
M  V30 5 1 6 1
M  V30 6 1 7 1
M  V30 7 1 8 1
M  V30 8 1 9 3
M  V30 9 1 10 3
M  V30 10 1 11 4
M  V30 11 1 12 4
M  V30 12 1 13 5
M  V30 END BOND
M  V30 END CTAB
M  END
>  <i_epik_Tot_Q>  (1) 
0

>  <i_epik_Tot_abs_Q>  (1) 
0

>  <i_i_glide_confnum>  (1) 
3

>  <i_i_glide_lignum>  (1) 
54

>  <i_i_glide_posenum>  (1) 
398

>  <i_i_glide_rotatable_bonds>  (1) 
3

>  <i_lp_mmshare_version>  (1) 
72125

>  <i_m_source_file_index>  (1) 
49

>  <i_f3d_flags>  (1) 
0

>  <num_sample>  (1) 
50

>  <b_lp_Chiralities_Consistent>  (1) 
1

>  <r_epik_Charging_Adjusted_Penalty>  (1) 
0

>  <r_epik_Ionization_Penalty>  (1) 
5.5888793446441707e-08

>  <r_epik_Ionization_Penalty_Charging>  (1) 
0

>  <r_epik_Ionization_Penalty_Neutral>  (1) 
5.5888793446441707e-08

>  <r_epik_State_Penalty>  (1) 
-0

>  <r_glide_ring_energy>  (1) 
0

>  <r_i_docking_score>  (1) 
-2.6383507104043078

>  <r_i_glide_ecoul>  (1) 
-7.8860280584700524

>  <r_i_glide_eff_state_penalty>  (1) 
-0

>  <r_i_glide_einternal>  (1) 
2.1129477429717833

>  <r_i_glide_emodel>  (1) 
-17.57070096821456

>  <r_i_glide_emodel_strain>  (1) 
0

>  <r_i_glide_energy>  (1) 
-15.744060174847247

>  <r_i_glide_erotb>  (1) 
1.8283304104302178

>  <r_i_glide_esite>  (1) 
0

>  <r_i_glide_evdw>  (1) 
-7.8580321163771947

>  <r_i_glide_gscore>  (1) 
-2.6383507104043078

>  <r_i_glide_gscore_strain>  (1) 
0

>  <r_i_glide_hbond>  (1) 
-0.16

>  <r_i_glide_ligand_efficiency>  (1) 
-0.5276701420808616

>  <r_i_glide_ligand_efficiency_ln>  (1) 
-1.0110800865705356

>  <r_i_glide_ligand_efficiency_sa>  (1) 
-0.90230325073774842

>  <r_i_glide_lipo>  (1) 
-0.48087530624515884

>  <r_i_glide_metal>  (1) 
-0

>  <r_i_glide_rewards>  (1) 
-2.25

>  <r_lp_Energy>  (1) 
3.749654

>  <r_lp_tautomer_probability>  (1) 
1

>  <s_epik_cmdline>  (1) 
J2VwaWtfcHl0aG9uJywgJy1waHQnLCAnMS4wJywgJy1waCcsICc3LjQnLCAnLXRuJywgJzgnLCAnLW1hJywgJzUwMCcsICctaW1hZScsICc8aW5maWxlLm1hZT4nLCAnLW9tYWUnLCAnPG91dGZpbGUubWFlPic=

>  <s_epik_input>  (1) 
W0NIM11PW0NIMl1bQ0gyXVtPSF0=

>  <s_glide_docking_method>  (1) 
confgen

>  <s_i_glide_gridfile>  (1) 
gpcr_drd2_6luq_protein_autoprepared_prepared

>  <s_lp_Force_Field>  (1) 
S-OPLS

>  <s_lp_Variant>  (1) 
Pocket2Mol_48_num_sample_50-1

>  <s_m_source_file>  (1) 
generated__ligand_Pocket2Mol_2026-05-06_prepared.sdf

>  <GenAI_Model>  (1) 
Pocket2Mol

>  <Protein>  (1) 
generic_title2

$$$$
Pocket2Mol_48_num_sample_50
     RDKit          3D

  0  0  0  0  0  0  0  0  0  0999 V3000
M  V30 BEGIN CTAB
M  V30 COUNTS 13 12 0 0 1
M  V30 BEGIN ATOM
M  V30 1 C 9.794366 8.196690 -7.137800 0
M  V30 2 O 11.004940 8.930737 -7.005086 0
M  V30 3 C 12.067521 8.462913 -7.826603 0
M  V30 4 C 11.841166 8.774274 -9.316629 0
M  V30 5 O 13.034819 8.569202 -10.044505 0
M  V30 6 H 9.060619 8.569270 -6.422658 0
M  V30 7 H 9.361808 8.303479 -8.132886 0
M  V30 8 H 9.948000 7.136236 -6.933950 0
M  V30 9 H 12.234839 7.396107 -7.669780 0
M  V30 10 H 12.972097 8.969165 -7.487958 0
M  V30 11 H 11.525957 9.808839 -9.451830 0
M  V30 12 H 11.059521 8.138343 -9.732693 0
M  V30 13 H 13.617698 9.307900 -9.891616 0
M  V30 END ATOM
M  V30 BEGIN BOND
M  V30 1 1 2 1
M  V30 2 1 3 2
M  V30 3 1 4 3
M  V30 4 1 5 4
M  V30 5 1 6 1
M  V30 6 1 7 1
M  V30 7 1 8 1
M  V30 8 1 9 3
M  V30 9 1 10 3
M  V30 10 1 11 4
M  V30 11 1 12 4
M  V30 12 1 13 5
M  V30 END BOND
M  V30 END CTAB
M  END
>  <i_epik_Tot_Q>  (1) 
0

>  <i_epik_Tot_abs_Q>  (1) 
0

>  <i_i_glide_confnum>  (1) 
1

>  <i_i_glide_lignum>  (1) 
54

>  <i_i_glide_posenum>  (1) 
338

>  <i_i_glide_rotatable_bonds>  (1) 
3

>  <i_lp_mmshare_version>  (1) 
72125

>  <i_m_source_file_index>  (1) 
49

>  <i_f3d_flags>  (1) 
0

>  <num_sample>  (1) 
50

>  <b_lp_Chiralities_Consistent>  (1) 
1

>  <r_epik_Charging_Adjusted_Penalty>  (1) 
0

>  <r_epik_Ionization_Penalty>  (1) 
5.5888793446441707e-08

>  <r_epik_Ionization_Penalty_Charging>  (1) 
0

>  <r_epik_Ionization_Penalty_Neutral>  (1) 
5.5888793446441707e-08

>  <r_epik_State_Penalty>  (1) 
-0

>  <r_glide_ring_energy>  (1) 
0

>  <r_i_docking_score>  (1) 
-2.6027120786962676

>  <r_i_glide_ecoul>  (1) 
-5.2753041693795621

>  <r_i_glide_eff_state_penalty>  (1) 
-0

>  <r_i_glide_einternal>  (1) 
1.2793801329795607

>  <r_i_glide_emodel>  (1) 
-16.937948061953247

>  <r_i_glide_emodel_strain>  (1) 
0.0026130863678639482

>  <r_i_glide_energy>  (1) 
-14.736081433709327

>  <r_i_glide_erotb>  (1) 
1.8283304104302178

>  <r_i_glide_esite>  (1) 
0

>  <r_i_glide_evdw>  (1) 
-9.4607772643297654

>  <r_i_glide_gscore>  (1) 
-2.6027120786962676

>  <r_i_glide_gscore_strain>  (1) 
0

>  <r_i_glide_hbond>  (1) 
-0.32000000000000001

>  <r_i_glide_ligand_efficiency>  (1) 
-0.52054241573925353

>  <r_i_glide_ligand_efficiency_ln>  (1) 
-0.99742249711871511

>  <r_i_glide_ligand_efficiency_sa>  (1) 
-0.89011501013910488

>  <r_i_glide_lipo>  (1) 
-0.59670800050306294

>  <r_i_glide_metal>  (1) 
-0

>  <r_i_glide_rewards>  (1) 
-2.25

>  <r_lp_Energy>  (1) 
3.749654

>  <r_lp_tautomer_probability>  (1) 
1

>  <s_epik_cmdline>  (1) 
J2VwaWtfcHl0aG9uJywgJy1waHQnLCAnMS4wJywgJy1waCcsICc3LjQnLCAnLXRuJywgJzgnLCAnLW1hJywgJzUwMCcsICctaW1hZScsICc8aW5maWxlLm1hZT4nLCAnLW9tYWUnLCAnPG91dGZpbGUubWFlPic=

>  <s_epik_input>  (1) 
W0NIM11PW0NIMl1bQ0gyXVtPSF0=

>  <s_glide_docking_method>  (1) 
confgen

>  <s_i_glide_gridfile>  (1) 
gpcr_drd2_6luq_protein_autoprepared_prepared

>  <s_lp_Force_Field>  (1) 
S-OPLS

>  <s_lp_Variant>  (1) 
Pocket2Mol_48_num_sample_50-1

>  <s_m_source_file>  (1) 
generated__ligand_Pocket2Mol_2026-05-06_prepared.sdf

>  <GenAI_Model>  (1) 
Pocket2Mol

>  <Protein>  (1) 
generic_title2

$$$$
Pocket2Mol_48_num_sample_50
     RDKit          3D

  0  0  0  0  0  0  0  0  0  0999 V3000
M  V30 BEGIN CTAB
M  V30 COUNTS 13 12 0 0 1
M  V30 BEGIN ATOM
M  V30 1 C 10.962099 6.598868 -5.218448 0
M  V30 2 O 10.736808 7.600067 -6.195656 0
M  V30 3 C 10.065674 7.099751 -7.340175 0
M  V30 4 C 10.044608 8.189478 -8.417203 0
M  V30 5 O 9.437953 7.695213 -9.591976 0
M  V30 6 H 11.478466 7.032442 -4.362071 0
M  V30 7 H 10.022231 6.173524 -4.864595 0
M  V30 8 H 11.583866 5.794363 -5.613775 0
M  V30 9 H 9.046657 6.809641 -7.079019 0
M  V30 10 H 10.577521 6.211391 -7.714705 0
M  V30 11 H 11.058984 8.516229 -8.649233 0
M  V30 12 H 9.491882 9.061226 -8.066756 0
M  V30 13 H 8.493386 7.769350 -9.498660 0
M  V30 END ATOM
M  V30 BEGIN BOND
M  V30 1 1 2 1
M  V30 2 1 3 2
M  V30 3 1 4 3
M  V30 4 1 5 4
M  V30 5 1 6 1
M  V30 6 1 7 1
M  V30 7 1 8 1
M  V30 8 1 9 3
M  V30 9 1 10 3
M  V30 10 1 11 4
M  V30 11 1 12 4
M  V30 12 1 13 5
M  V30 END BOND
M  V30 END CTAB
M  END
>  <i_epik_Tot_Q>  (1) 
0

>  <i_epik_Tot_abs_Q>  (1) 
0

>  <i_i_glide_confnum>  (1) 
1

>  <i_i_glide_lignum>  (1) 
54

>  <i_i_glide_posenum>  (1) 
243

>  <i_i_glide_rotatable_bonds>  (1) 
3

>  <i_lp_mmshare_version>  (1) 
72125

>  <i_m_source_file_index>  (1) 
49

>  <i_f3d_flags>  (1) 
0

>  <num_sample>  (1) 
50

>  <b_lp_Chiralities_Consistent>  (1) 
1

>  <r_epik_Charging_Adjusted_Penalty>  (1) 
0

>  <r_epik_Ionization_Penalty>  (1) 
5.5888793446441707e-08

>  <r_epik_Ionization_Penalty_Charging>  (1) 
0

>  <r_epik_Ionization_Penalty_Neutral>  (1) 
5.5888793446441707e-08

>  <r_epik_State_Penalty>  (1) 
-0

>  <r_glide_ring_energy>  (1) 
0

>  <r_i_docking_score>  (1) 
-2.3031613387652534

>  <r_i_glide_ecoul>  (1) 
-7.2963625234308349

>  <r_i_glide_eff_state_penalty>  (1) 
-0

>  <r_i_glide_einternal>  (1) 
0.5181525098330878

>  <r_i_glide_emodel>  (1) 
-16.517859929784215

>  <r_i_glide_emodel_strain>  (1) 
0.046519515896317087

>  <r_i_glide_energy>  (1) 
-14.306626453775882

>  <r_i_glide_erotb>  (1) 
1.8283304104302178

>  <r_i_glide_esite>  (1) 
0

>  <r_i_glide_evdw>  (1) 
-7.0102639303450474

>  <r_i_glide_gscore>  (1) 
-2.3031613387652534

>  <r_i_glide_gscore_strain>  (1) 
0

>  <r_i_glide_hbond>  (1) 
-0.16

>  <r_i_glide_ligand_efficiency>  (1) 
-0.46063226775305066

>  <r_i_glide_ligand_efficiency_ln>  (1) 
-0.88262737649000034

>  <r_i_glide_ligand_efficiency_sa>  (1) 
-0.78767009812085664

>  <r_i_glide_lipo>  (1) 
-0.27652417416359382

>  <r_i_glide_metal>  (1) 
-0

>  <r_i_glide_rewards>  (1) 
-2.25

>  <r_lp_Energy>  (1) 
3.749654

>  <r_lp_tautomer_probability>  (1) 
1

>  <s_epik_cmdline>  (1) 
J2VwaWtfcHl0aG9uJywgJy1waHQnLCAnMS4wJywgJy1waCcsICc3LjQnLCAnLXRuJywgJzgnLCAnLW1hJywgJzUwMCcsICctaW1hZScsICc8aW5maWxlLm1hZT4nLCAnLW9tYWUnLCAnPG91dGZpbGUubWFlPic=

>  <s_epik_input>  (1) 
W0NIM11PW0NIMl1bQ0gyXVtPSF0=

>  <s_glide_docking_method>  (1) 
confgen

>  <s_i_glide_gridfile>  (1) 
gpcr_drd2_6luq_protein_autoprepared_prepared

>  <s_lp_Force_Field>  (1) 
S-OPLS

>  <s_lp_Variant>  (1) 
Pocket2Mol_48_num_sample_50-1

>  <s_m_source_file>  (1) 
generated__ligand_Pocket2Mol_2026-05-06_prepared.sdf

>  <GenAI_Model>  (1) 
Pocket2Mol

>  <Protein>  (1) 
generic_title2

$$$$
Pocket2Mol_48_num_sample_50
     RDKit          3D

  0  0  0  0  0  0  0  0  0  0999 V3000
M  V30 BEGIN CTAB
M  V30 COUNTS 13 12 0 0 1
M  V30 BEGIN ATOM
M  V30 1 C 9.203856 7.291761 -6.903552 0
M  V30 2 O 10.285700 8.165552 -7.178652 0
M  V30 3 C 11.269050 7.575149 -8.013175 0
M  V30 4 C 12.319487 8.644305 -8.330217 0
M  V30 5 O 13.295803 8.169302 -9.233996 0
M  V30 6 H 8.467337 7.811637 -6.291670 0
M  V30 7 H 8.707545 6.969305 -7.819901 0
M  V30 8 H 9.537133 6.408765 -6.356758 0
M  V30 9 H 10.812522 7.213738 -8.936374 0
M  V30 10 H 11.725991 6.722782 -7.507760 0
M  V30 11 H 12.811970 8.969301 -7.413813 0
M  V30 12 H 11.834838 9.516067 -8.771350 0
M  V30 13 H 13.834842 8.907490 -9.491669 0
M  V30 END ATOM
M  V30 BEGIN BOND
M  V30 1 1 2 1
M  V30 2 1 3 2
M  V30 3 1 4 3
M  V30 4 1 5 4
M  V30 5 1 6 1
M  V30 6 1 7 1
M  V30 7 1 8 1
M  V30 8 1 9 3
M  V30 9 1 10 3
M  V30 10 1 11 4
M  V30 11 1 12 4
M  V30 12 1 13 5
M  V30 END BOND
M  V30 END CTAB
M  END
>  <i_epik_Tot_Q>  (1) 
0

>  <i_epik_Tot_abs_Q>  (1) 
0

>  <i_i_glide_confnum>  (1) 
1

>  <i_i_glide_lignum>  (1) 
54

>  <i_i_glide_posenum>  (1) 
388

>  <i_i_glide_rotatable_bonds>  (1) 
3

>  <i_lp_mmshare_version>  (1) 
72125

>  <i_m_source_file_index>  (1) 
49

>  <i_f3d_flags>  (1) 
0

>  <num_sample>  (1) 
50

>  <b_lp_Chiralities_Consistent>  (1) 
1

>  <r_epik_Charging_Adjusted_Penalty>  (1) 
0

>  <r_epik_Ionization_Penalty>  (1) 
5.5888793446441707e-08

>  <r_epik_Ionization_Penalty_Charging>  (1) 
0

>  <r_epik_Ionization_Penalty_Neutral>  (1) 
5.5888793446441707e-08

>  <r_epik_State_Penalty>  (1) 
-0

>  <r_glide_ring_energy>  (1) 
0

>  <r_i_docking_score>  (1) 
-2.2393126293193051

>  <r_i_glide_ecoul>  (1) 
-3.794789333225963

>  <r_i_glide_eff_state_penalty>  (1) 
-0

>  <r_i_glide_einternal>  (1) 
0.40831622464592432

>  <r_i_glide_emodel>  (1) 
-16.191794208952018

>  <r_i_glide_emodel_strain>  (1) 
0

>  <r_i_glide_energy>  (1) 
-13.948895129324896

>  <r_i_glide_erotb>  (1) 
1.8283304104302178

>  <r_i_glide_esite>  (1) 
0

>  <r_i_glide_evdw>  (1) 
-10.154105796098932

>  <r_i_glide_gscore>  (1) 
-2.2393126293193051

>  <r_i_glide_gscore_strain>  (1) 
0

>  <r_i_glide_hbond>  (1) 
-0.2636865834271046

>  <r_i_glide_ligand_efficiency>  (1) 
-0.44786252586386099

>  <r_i_glide_ligand_efficiency_ln>  (1) 
-0.85815899993208111

>  <r_i_glide_ligand_efficiency_sa>  (1) 
-0.76583414664507243

>  <r_i_glide_lipo>  (1) 
-0.47703276653357735

>  <r_i_glide_metal>  (1) 
-0

>  <r_i_glide_rewards>  (1) 
-2.25

>  <r_lp_Energy>  (1) 
3.749654

>  <r_lp_tautomer_probability>  (1) 
1

>  <s_epik_cmdline>  (1) 
J2VwaWtfcHl0aG9uJywgJy1waHQnLCAnMS4wJywgJy1waCcsICc3LjQnLCAnLXRuJywgJzgnLCAnLW1hJywgJzUwMCcsICctaW1hZScsICc8aW5maWxlLm1hZT4nLCAnLW9tYWUnLCAnPG91dGZpbGUubWFlPic=

>  <s_epik_input>  (1) 
W0NIM11PW0NIMl1bQ0gyXVtPSF0=

>  <s_glide_docking_method>  (1) 
confgen

>  <s_i_glide_gridfile>  (1) 
gpcr_drd2_6luq_protein_autoprepared_prepared

>  <s_lp_Force_Field>  (1) 
S-OPLS

>  <s_lp_Variant>  (1) 
Pocket2Mol_48_num_sample_50-1

>  <s_m_source_file>  (1) 
generated__ligand_Pocket2Mol_2026-05-06_prepared.sdf

>  <GenAI_Model>  (1) 
Pocket2Mol

>  <Protein>  (1) 
generic_title2

$$$$
Pocket2Mol_2_num_sample_50
     RDKit          3D

  0  0  0  0  0  0  0  0  0  0999 V3000
M  V30 BEGIN CTAB
M  V30 COUNTS 11 10 0 0 1
M  V30 BEGIN ATOM
M  V30 1 C 12.341090 8.898652 -2.929015 0
M  V30 2 O 12.072819 8.548130 -4.274733 0
M  V30 3 C 11.459309 9.424699 -5.084255 0
M  V30 4 C 11.330317 8.921745 -6.513360 0
M  V30 5 O 11.034839 10.526907 -4.742993 0
M  V30 6 H 12.838867 8.072775 -2.420358 0
M  V30 7 H 11.421098 9.125055 -2.393237 0
M  V30 8 H 12.996380 9.768343 -2.883142 0
M  V30 9 H 11.763182 7.927024 -6.618141 0
M  V30 10 H 10.280063 8.875400 -6.798715 0
M  V30 11 H 11.845472 9.597971 -7.194402 0
M  V30 END ATOM
M  V30 BEGIN BOND
M  V30 1 1 2 1
M  V30 2 1 3 2
M  V30 3 1 4 3
M  V30 4 2 5 3
M  V30 5 1 6 1
M  V30 6 1 7 1
M  V30 7 1 8 1
M  V30 8 1 9 4
M  V30 9 1 10 4
M  V30 10 1 11 4
M  V30 END BOND
M  V30 END CTAB
M  END
>  <i_epik_Tot_Q>  (1) 
0

>  <i_epik_Tot_abs_Q>  (1) 
0

>  <i_i_glide_confnum>  (1) 
1

>  <i_i_glide_lignum>  (1) 
3

>  <i_i_glide_posenum>  (1) 
200

>  <i_i_glide_rotatable_bonds>  (1) 
1

>  <i_lp_mmshare_version>  (1) 
72125

>  <i_m_source_file_index>  (1) 
3

>  <i_f3d_flags>  (1) 
0

>  <num_sample>  (1) 
50

>  <b_lp_Chiralities_Consistent>  (1) 
1

>  <r_epik_Charging_Adjusted_Penalty>  (1) 
0

>  <r_epik_Ionization_Penalty>  (1) 
0

>  <r_epik_Ionization_Penalty_Charging>  (1) 
0

>  <r_epik_Ionization_Penalty_Neutral>  (1) 
0

>  <r_epik_State_Penalty>  (1) 
-0

>  <r_glide_ring_energy>  (1) 
0

>  <r_i_docking_score>  (1) 
-2.1704930607515194

>  <r_i_glide_ecoul>  (1) 
-0.63786591206319765

>  <r_i_glide_eff_state_penalty>  (1) 
-0

>  <r_i_glide_einternal>  (1) 
0.053829142843622724

>  <r_i_glide_emodel>  (1) 
-16.171052754750413

>  <r_i_glide_emodel_strain>  (1) 
0

>  <r_i_glide_energy>  (1) 
-14.110392642351094

>  <r_i_glide_erotb>  (1) 
1.8998339649575009

>  <r_i_glide_esite>  (1) 
0

>  <r_i_glide_evdw>  (1) 
-13.472526730287896

>  <r_i_glide_gscore>  (1) 
-2.1704930607515194

>  <r_i_glide_gscore_strain>  (1) 
0

>  <r_i_glide_hbond>  (1) 
0

>  <r_i_glide_ligand_efficiency>  (1) 
-0.43409861215030388

>  <r_i_glide_ligand_efficiency_ln>  (1) 
-0.83178566939991661

>  <r_i_glide_ligand_efficiency_sa>  (1) 
-0.74229818526275615

>  <r_i_glide_lipo>  (1) 
-0.60108939519001248

>  <r_i_glide_metal>  (1) 
-0

>  <r_i_glide_rewards>  (1) 
-2.699931407195133

>  <r_lp_Energy>  (1) 
-0.092308000000000001

>  <r_lp_tautomer_probability>  (1) 
1

>  <s_epik_Chemistry_Notes>  (1) 
This compound has an ester and may undergo hydrolysis at high or low pH.

>  <s_epik_cmdline>  (1) 
J2VwaWtfcHl0aG9uJywgJy1waHQnLCAnMS4wJywgJy1waCcsICc3LjQnLCAnLXRuJywgJzgnLCAnLW1hJywgJzUwMCcsICctaW1hZScsICc8aW5maWxlLm1hZT4nLCAnLW9tYWUnLCAnPG91dGZpbGUubWFlPic=

>  <s_epik_input>  (1) 
W0NIM11PQyg9TylbQ0gzXQ==

>  <s_glide_docking_method>  (1) 
confgen

>  <s_i_glide_gridfile>  (1) 
gpcr_drd2_6luq_protein_autoprepared_prepared

>  <s_lp_Force_Field>  (1) 
S-OPLS

>  <s_lp_Variant>  (1) 
Pocket2Mol_2_num_sample_50-1

>  <s_m_source_file>  (1) 
generated__ligand_Pocket2Mol_2026-05-06_prepared.sdf

>  <GenAI_Model>  (1) 
Pocket2Mol

>  <Protein>  (1) 
generic_title2

$$$$
Pocket2Mol_48_num_sample_50
     RDKit          3D

  0  0  0  0  0  0  0  0  0  0999 V3000
M  V30 BEGIN CTAB
M  V30 COUNTS 13 12 0 0 1
M  V30 BEGIN ATOM
M  V30 1 C 10.956718 6.604026 -5.338305 0
M  V30 2 O 10.344091 7.566653 -6.183170 0
M  V30 3 C 9.254690 7.048503 -6.938940 0
M  V30 4 C 9.733663 6.302595 -8.197069 0
M  V30 5 O 8.634839 5.769299 -8.906938 0
M  V30 6 H 11.730247 7.083541 -4.738585 0
M  V30 7 H 10.229947 6.169461 -4.650680 0
M  V30 8 H 11.426784 5.801919 -5.908536 0
M  V30 9 H 8.634839 7.893114 -7.240155 0
M  V30 10 H 8.623208 6.411143 -6.317825 0
M  V30 11 H 10.400314 5.480000 -7.940144 0
M  V30 12 H 10.286740 6.976603 -8.851758 0
M  V30 13 H 8.011372 6.473981 -9.090654 0
M  V30 END ATOM
M  V30 BEGIN BOND
M  V30 1 1 2 1
M  V30 2 1 3 2
M  V30 3 1 4 3
M  V30 4 1 5 4
M  V30 5 1 6 1
M  V30 6 1 7 1
M  V30 7 1 8 1
M  V30 8 1 9 3
M  V30 9 1 10 3
M  V30 10 1 11 4
M  V30 11 1 12 4
M  V30 12 1 13 5
M  V30 END BOND
M  V30 END CTAB
M  END
>  <i_epik_Tot_Q>  (1) 
0

>  <i_epik_Tot_abs_Q>  (1) 
0

>  <i_i_glide_confnum>  (1) 
1

>  <i_i_glide_lignum>  (1) 
54

>  <i_i_glide_posenum>  (1) 
177

>  <i_i_glide_rotatable_bonds>  (1) 
3

>  <i_lp_mmshare_version>  (1) 
72125

>  <i_m_source_file_index>  (1) 
49

>  <i_f3d_flags>  (1) 
0

>  <num_sample>  (1) 
50

>  <b_lp_Chiralities_Consistent>  (1) 
1

>  <r_epik_Charging_Adjusted_Penalty>  (1) 
0

>  <r_epik_Ionization_Penalty>  (1) 
5.5888793446441707e-08

>  <r_epik_Ionization_Penalty_Charging>  (1) 
0

>  <r_epik_Ionization_Penalty_Neutral>  (1) 
5.5888793446441707e-08

>  <r_epik_State_Penalty>  (1) 
-0

>  <r_glide_ring_energy>  (1) 
0

>  <r_i_docking_score>  (1) 
-1.9770047417697267

>  <r_i_glide_ecoul>  (1) 
-4.0260446521332094

>  <r_i_glide_eff_state_penalty>  (1) 
-0

>  <r_i_glide_einternal>  (1) 
1.0055724466757523

>  <r_i_glide_emodel>  (1) 
-15.902336273938092

>  <r_i_glide_emodel_strain>  (1) 
0

>  <r_i_glide_energy>  (1) 
-14.244707909100484

>  <r_i_glide_erotb>  (1) 
1.8283304104302178

>  <r_i_glide_esite>  (1) 
0

>  <r_i_glide_evdw>  (1) 
-10.218663256967275

>  <r_i_glide_gscore>  (1) 
-1.9770047417697267

>  <r_i_glide_gscore_strain>  (1) 
0

>  <r_i_glide_hbond>  (1) 
-0.16

>  <r_i_glide_ligand_efficiency>  (1) 
-0.39540094835394535

>  <r_i_glide_ligand_efficiency_ln>  (1) 
-0.75763624508910576

>  <r_i_glide_ligand_efficiency_sa>  (1) 
-0.67612611097840147

>  <r_i_glide_lipo>  (1) 
-0.28049529153159974

>  <r_i_glide_metal>  (1) 
-0

>  <r_i_glide_rewards>  (1) 
-2.25

>  <r_lp_Energy>  (1) 
3.749654

>  <r_lp_tautomer_probability>  (1) 
1

>  <s_epik_cmdline>  (1) 
J2VwaWtfcHl0aG9uJywgJy1waHQnLCAnMS4wJywgJy1waCcsICc3LjQnLCAnLXRuJywgJzgnLCAnLW1hJywgJzUwMCcsICctaW1hZScsICc8aW5maWxlLm1hZT4nLCAnLW9tYWUnLCAnPG91dGZpbGUubWFlPic=

>  <s_epik_input>  (1) 
W0NIM11PW0NIMl1bQ0gyXVtPSF0=

>  <s_glide_docking_method>  (1) 
confgen

>  <s_i_glide_gridfile>  (1) 
gpcr_drd2_6luq_protein_autoprepared_prepared

>  <s_lp_Force_Field>  (1) 
S-OPLS

>  <s_lp_Variant>  (1) 
Pocket2Mol_48_num_sample_50-1

>  <s_m_source_file>  (1) 
generated__ligand_Pocket2Mol_2026-05-06_prepared.sdf

>  <GenAI_Model>  (1) 
Pocket2Mol

>  <Protein>  (1) 
generic_title2

$$$$
Pocket2Mol_2_num_sample_50
     RDKit          3D

  0  0  0  0  0  0  0  0  0  0999 V3000
M  V30 BEGIN CTAB
M  V30 COUNTS 11 10 0 0 1
M  V30 BEGIN ATOM
M  V30 1 C 9.434840 7.144474 -7.165286 0
M  V30 2 O 9.923189 8.148297 -6.291552 0
M  V30 3 C 11.105737 8.726248 -6.538798 0
M  V30 4 C 11.486578 9.769043 -5.495407 0
M  V30 5 O 11.835415 8.468437 -7.495829 0
M  V30 6 H 8.514973 6.721157 -6.762364 0
M  V30 7 H 10.157303 6.335101 -7.278638 0
M  V30 8 H 9.215143 7.559872 -8.149651 0
M  V30 9 H 10.634868 10.022718 -4.864983 0
M  V30 10 H 12.286860 9.389216 -4.860540 0
M  V30 11 H 11.834842 10.678751 -5.984347 0
M  V30 END ATOM
M  V30 BEGIN BOND
M  V30 1 1 2 1
M  V30 2 1 3 2
M  V30 3 1 4 3
M  V30 4 2 5 3
M  V30 5 1 6 1
M  V30 6 1 7 1
M  V30 7 1 8 1
M  V30 8 1 9 4
M  V30 9 1 10 4
M  V30 10 1 11 4
M  V30 END BOND
M  V30 END CTAB
M  END
>  <i_epik_Tot_Q>  (1) 
0

>  <i_epik_Tot_abs_Q>  (1) 
0

>  <i_i_glide_confnum>  (1) 
1

>  <i_i_glide_lignum>  (1) 
3

>  <i_i_glide_posenum>  (1) 
371

>  <i_i_glide_rotatable_bonds>  (1) 
1

>  <i_lp_mmshare_version>  (1) 
72125

>  <i_m_source_file_index>  (1) 
3

>  <i_f3d_flags>  (1) 
0

>  <num_sample>  (1) 
50

>  <b_lp_Chiralities_Consistent>  (1) 
1

>  <r_epik_Charging_Adjusted_Penalty>  (1) 
0

>  <r_epik_Ionization_Penalty>  (1) 
0

>  <r_epik_Ionization_Penalty_Charging>  (1) 
0

>  <r_epik_Ionization_Penalty_Neutral>  (1) 
0

>  <r_epik_State_Penalty>  (1) 
-0

>  <r_glide_ring_energy>  (1) 
0

>  <r_i_docking_score>  (1) 
-1.8145385404131871

>  <r_i_glide_ecoul>  (1) 
-0.64914004655933188

>  <r_i_glide_eff_state_penalty>  (1) 
-0

>  <r_i_glide_einternal>  (1) 
0.0037604901475933872

>  <r_i_glide_emodel>  (1) 
-15.49619740426618

>  <r_i_glide_emodel_strain>  (1) 
0.033977792489388481

>  <r_i_glide_energy>  (1) 
-13.786836906796248

>  <r_i_glide_erotb>  (1) 
1.8998339649575009

>  <r_i_glide_esite>  (1) 
0

>  <r_i_glide_evdw>  (1) 
-13.137696860236916

>  <r_i_glide_gscore>  (1) 
-1.8145385404131871

>  <r_i_glide_gscore_strain>  (1) 
0

>  <r_i_glide_hbond>  (1) 
0

>  <r_i_glide_ligand_efficiency>  (1) 
-0.36290770808263739

>  <r_i_glide_ligand_efficiency_ln>  (1) 
-0.69537524988305766

>  <r_i_glide_ligand_efficiency_sa>  (1) 
-0.62056345168487836

>  <r_i_glide_lipo>  (1) 
-0.33000000000000002

>  <r_i_glide_metal>  (1) 
-0

>  <r_i_glide_rewards>  (1) 
-2.6301166553749424

>  <r_lp_Energy>  (1) 
-0.092308000000000001

>  <r_lp_tautomer_probability>  (1) 
1

>  <s_epik_Chemistry_Notes>  (1) 
This compound has an ester and may undergo hydrolysis at high or low pH.

>  <s_epik_cmdline>  (1) 
J2VwaWtfcHl0aG9uJywgJy1waHQnLCAnMS4wJywgJy1waCcsICc3LjQnLCAnLXRuJywgJzgnLCAnLW1hJywgJzUwMCcsICctaW1hZScsICc8aW5maWxlLm1hZT4nLCAnLW9tYWUnLCAnPG91dGZpbGUubWFlPic=

>  <s_epik_input>  (1) 
W0NIM11PQyg9TylbQ0gzXQ==

>  <s_glide_docking_method>  (1) 
confgen

>  <s_i_glide_gridfile>  (1) 
gpcr_drd2_6luq_protein_autoprepared_prepared

>  <s_lp_Force_Field>  (1) 
S-OPLS

>  <s_lp_Variant>  (1) 
Pocket2Mol_2_num_sample_50-1

>  <s_m_source_file>  (1) 
generated__ligand_Pocket2Mol_2026-05-06_prepared.sdf

>  <GenAI_Model>  (1) 
Pocket2Mol

>  <Protein>  (1) 
generic_title2

$$$$
Pocket2Mol_2_num_sample_50
     RDKit          3D

  0  0  0  0  0  0  0  0  0  0999 V3000
M  V30 BEGIN CTAB
M  V30 COUNTS 11 10 0 0 1
M  V30 BEGIN ATOM
M  V30 1 C 9.834839 8.157620 -8.559607 0
M  V30 2 O 10.275364 7.268514 -7.547427 0
M  V30 3 C 10.664949 7.760875 -6.362714 0
M  V30 4 C 11.030802 6.672934 -5.359990 0
M  V30 5 O 10.732178 8.959342 -6.077787 0
M  V30 6 H 9.466302 7.596597 -9.420475 0
M  V30 7 H 10.649972 8.803877 -8.890891 0
M  V30 8 H 9.022597 8.787197 -8.190768 0
M  V30 9 H 11.517112 5.824334 -5.849181 0
M  V30 10 H 11.694166 7.070382 -4.591341 0
M  V30 11 H 10.125703 6.304921 -4.875973 0
M  V30 END ATOM
M  V30 BEGIN BOND
M  V30 1 1 2 1
M  V30 2 1 3 2
M  V30 3 1 4 3
M  V30 4 2 5 3
M  V30 5 1 6 1
M  V30 6 1 7 1
M  V30 7 1 8 1
M  V30 8 1 9 4
M  V30 9 1 10 4
M  V30 10 1 11 4
M  V30 END BOND
M  V30 END CTAB
M  END
>  <i_epik_Tot_Q>  (1) 
0

>  <i_epik_Tot_abs_Q>  (1) 
0

>  <i_i_glide_confnum>  (1) 
1

>  <i_i_glide_lignum>  (1) 
3

>  <i_i_glide_posenum>  (1) 
349

>  <i_i_glide_rotatable_bonds>  (1) 
1

>  <i_lp_mmshare_version>  (1) 
72125

>  <i_m_source_file_index>  (1) 
3

>  <i_f3d_flags>  (1) 
0

>  <num_sample>  (1) 
50

>  <b_lp_Chiralities_Consistent>  (1) 
1

>  <r_epik_Charging_Adjusted_Penalty>  (1) 
0

>  <r_epik_Ionization_Penalty>  (1) 
0

>  <r_epik_Ionization_Penalty_Charging>  (1) 
0

>  <r_epik_Ionization_Penalty_Neutral>  (1) 
0

>  <r_epik_State_Penalty>  (1) 
-0

>  <r_glide_ring_energy>  (1) 
0

>  <r_i_docking_score>  (1) 
-1.7389337920678534

>  <r_i_glide_ecoul>  (1) 
-1.128555012992333

>  <r_i_glide_eff_state_penalty>  (1) 
-0

>  <r_i_glide_einternal>  (1) 
0.010603655790535349

>  <r_i_glide_emodel>  (1) 
-14.933908090555128

>  <r_i_glide_emodel_strain>  (1) 
0.0034212648554499125

>  <r_i_glide_energy>  (1) 
-13.270129102186541

>  <r_i_glide_erotb>  (1) 
1.8998339649575009

>  <r_i_glide_esite>  (1) 
0

>  <r_i_glide_evdw>  (1) 
-12.141574089194208

>  <r_i_glide_gscore>  (1) 
-1.7389337920678534

>  <r_i_glide_gscore_strain>  (1) 
0

>  <r_i_glide_hbond>  (1) 
0

>  <r_i_glide_ligand_efficiency>  (1) 
-0.34778675841357065

>  <r_i_glide_ligand_efficiency_ln>  (1) 
-0.6664016736254762

>  <r_i_glide_ligand_efficiency_sa>  (1) 
-0.59470699145986528

>  <r_i_glide_lipo>  (1) 
-0.31158173365495728

>  <r_i_glide_metal>  (1) 
-0

>  <r_i_glide_rewards>  (1) 
-2.5508240669618365

>  <r_lp_Energy>  (1) 
-0.092308000000000001

>  <r_lp_tautomer_probability>  (1) 
1

>  <s_epik_Chemistry_Notes>  (1) 
This compound has an ester and may undergo hydrolysis at high or low pH.

>  <s_epik_cmdline>  (1) 
J2VwaWtfcHl0aG9uJywgJy1waHQnLCAnMS4wJywgJy1waCcsICc3LjQnLCAnLXRuJywgJzgnLCAnLW1hJywgJzUwMCcsICctaW1hZScsICc8aW5maWxlLm1hZT4nLCAnLW9tYWUnLCAnPG91dGZpbGUubWFlPic=

>  <s_epik_input>  (1) 
W0NIM11PQyg9TylbQ0gzXQ==

>  <s_glide_docking_method>  (1) 
confgen

>  <s_i_glide_gridfile>  (1) 
gpcr_drd2_6luq_protein_autoprepared_prepared

>  <s_lp_Force_Field>  (1) 
S-OPLS

>  <s_lp_Variant>  (1) 
Pocket2Mol_2_num_sample_50-1

>  <s_m_source_file>  (1) 
generated__ligand_Pocket2Mol_2026-05-06_prepared.sdf

>  <GenAI_Model>  (1) 
Pocket2Mol

>  <Protein>  (1) 
generic_title2

$$$$
Pocket2Mol_2_num_sample_50
     RDKit          3D

  0  0  0  0  0  0  0  0  0  0999 V3000
M  V30 BEGIN CTAB
M  V30 COUNTS 11 10 0 0 1
M  V30 BEGIN ATOM
M  V30 1 C 9.434899 7.122297 -7.091640 0
M  V30 2 O 10.474003 7.229477 -8.049191 0
M  V30 3 C 11.418460 8.169301 -7.893282 0
M  V30 4 C 12.434666 8.175937 -9.027740 0
M  V30 5 O 11.500228 8.963158 -6.956206 0
M  V30 6 H 8.758044 6.313859 -7.367717 0
M  V30 7 H 8.857979 8.046457 -7.038601 0
M  V30 8 H 9.838828 6.905386 -6.101938 0
M  V30 9 H 12.203112 7.406527 -9.764640 0
M  V30 10 H 12.433116 9.144587 -9.527370 0
M  V30 11 H 13.434919 7.990103 -8.636746 0
M  V30 END ATOM
M  V30 BEGIN BOND
M  V30 1 1 2 1
M  V30 2 1 3 2
M  V30 3 1 4 3
M  V30 4 2 5 3
M  V30 5 1 6 1
M  V30 6 1 7 1
M  V30 7 1 8 1
M  V30 8 1 9 4
M  V30 9 1 10 4
M  V30 10 1 11 4
M  V30 END BOND
M  V30 END CTAB
M  END
>  <i_epik_Tot_Q>  (1) 
0

>  <i_epik_Tot_abs_Q>  (1) 
0

>  <i_i_glide_confnum>  (1) 
1

>  <i_i_glide_lignum>  (1) 
3

>  <i_i_glide_posenum>  (1) 
386

>  <i_i_glide_rotatable_bonds>  (1) 
1

>  <i_lp_mmshare_version>  (1) 
72125

>  <i_m_source_file_index>  (1) 
3

>  <i_f3d_flags>  (1) 
0

>  <num_sample>  (1) 
50

>  <b_lp_Chiralities_Consistent>  (1) 
1

>  <r_epik_Charging_Adjusted_Penalty>  (1) 
0

>  <r_epik_Ionization_Penalty>  (1) 
0

>  <r_epik_Ionization_Penalty_Charging>  (1) 
0

>  <r_epik_Ionization_Penalty_Neutral>  (1) 
0

>  <r_epik_State_Penalty>  (1) 
-0

>  <r_glide_ring_energy>  (1) 
0

>  <r_i_docking_score>  (1) 
-1.6387840979836543

>  <r_i_glide_ecoul>  (1) 
-0.89171088780059515

>  <r_i_glide_eff_state_penalty>  (1) 
-0

>  <r_i_glide_einternal>  (1) 
0.010065750954800001

>  <r_i_glide_emodel>  (1) 
-14.635506012848676

>  <r_i_glide_emodel_strain>  (1) 
0

>  <r_i_glide_energy>  (1) 
-13.064360527260598

>  <r_i_glide_erotb>  (1) 
1.8998339649575009

>  <r_i_glide_esite>  (1) 
0

>  <r_i_glide_evdw>  (1) 
-12.172649639460003

>  <r_i_glide_gscore>  (1) 
-1.6387840979836543

>  <r_i_glide_gscore_strain>  (1) 
0

>  <r_i_glide_hbond>  (1) 
0

>  <r_i_glide_ligand_efficiency>  (1) 
-0.32775681959673086

>  <r_i_glide_ligand_efficiency_ln>  (1) 
-0.62802187788211672

>  <r_i_glide_ligand_efficiency_sa>  (1) 
-0.56045627786966323

>  <r_i_glide_lipo>  (1) 
-0.26673466385848521

>  <r_i_glide_metal>  (1) 
-0

>  <r_i_glide_rewards>  (1) 
-2.5294942839395804

>  <r_lp_Energy>  (1) 
-0.092308000000000001

>  <r_lp_tautomer_probability>  (1) 
1

>  <s_epik_Chemistry_Notes>  (1) 
This compound has an ester and may undergo hydrolysis at high or low pH.

>  <s_epik_cmdline>  (1) 
J2VwaWtfcHl0aG9uJywgJy1waHQnLCAnMS4wJywgJy1waCcsICc3LjQnLCAnLXRuJywgJzgnLCAnLW1hJywgJzUwMCcsICctaW1hZScsICc8aW5maWxlLm1hZT4nLCAnLW9tYWUnLCAnPG91dGZpbGUubWFlPic=

>  <s_epik_input>  (1) 
W0NIM11PQyg9TylbQ0gzXQ==

>  <s_glide_docking_method>  (1) 
confgen

>  <s_i_glide_gridfile>  (1) 
gpcr_drd2_6luq_protein_autoprepared_prepared

>  <s_lp_Force_Field>  (1) 
S-OPLS

>  <s_lp_Variant>  (1) 
Pocket2Mol_2_num_sample_50-1

>  <s_m_source_file>  (1) 
generated__ligand_Pocket2Mol_2026-05-06_prepared.sdf

>  <GenAI_Model>  (1) 
Pocket2Mol

>  <Protein>  (1) 
generic_title2

$$$$
Pocket2Mol_2_num_sample_50
     RDKit          3D

  0  0  0  0  0  0  0  0  0  0999 V3000
M  V30 BEGIN CTAB
M  V30 COUNTS 11 10 0 0 1
M  V30 BEGIN ATOM
M  V30 1 C 11.519215 9.769301 -5.458791 0
M  V30 2 O 10.634840 8.751983 -5.891667 0
M  V30 3 C 10.879156 8.111069 -7.045376 0
M  V30 4 C 9.834824 7.051718 -7.368502 0
M  V30 5 O 11.836991 8.328703 -7.788030 0
M  V30 6 H 11.172634 10.181060 -4.510915 0
M  V30 7 H 11.564731 10.580925 -6.185846 0
M  V30 8 H 12.525789 9.375205 -5.311967 0
M  V30 9 H 9.067393 7.009511 -6.594767 0
M  V30 10 H 9.346442 7.279529 -8.316358 0
M  V30 11 H 10.302035 6.070267 -7.445882 0
M  V30 END ATOM
M  V30 BEGIN BOND
M  V30 1 1 2 1
M  V30 2 1 3 2
M  V30 3 1 4 3
M  V30 4 2 5 3
M  V30 5 1 6 1
M  V30 6 1 7 1
M  V30 7 1 8 1
M  V30 8 1 9 4
M  V30 9 1 10 4
M  V30 10 1 11 4
M  V30 END BOND
M  V30 END CTAB
M  END
>  <i_epik_Tot_Q>  (1) 
0

>  <i_epik_Tot_abs_Q>  (1) 
0

>  <i_i_glide_confnum>  (1) 
2

>  <i_i_glide_lignum>  (1) 
3

>  <i_i_glide_posenum>  (1) 
126

>  <i_i_glide_rotatable_bonds>  (1) 
1

>  <i_lp_mmshare_version>  (1) 
72125

>  <i_m_source_file_index>  (1) 
3

>  <i_f3d_flags>  (1) 
0

>  <num_sample>  (1) 
50

>  <b_lp_Chiralities_Consistent>  (1) 
1

>  <r_epik_Charging_Adjusted_Penalty>  (1) 
0

>  <r_epik_Ionization_Penalty>  (1) 
0

>  <r_epik_Ionization_Penalty_Charging>  (1) 
0

>  <r_epik_Ionization_Penalty_Neutral>  (1) 
0

>  <r_epik_State_Penalty>  (1) 
-0

>  <r_glide_ring_energy>  (1) 
0

>  <r_i_docking_score>  (1) 
-1.6193662600179801

>  <r_i_glide_ecoul>  (1) 
-0.41072486599482338

>  <r_i_glide_eff_state_penalty>  (1) 
-0

>  <r_i_glide_einternal>  (1) 
0.00031684020704747518

>  <r_i_glide_emodel>  (1) 
-15.2758371663028

>  <r_i_glide_emodel_strain>  (1) 
0

>  <r_i_glide_energy>  (1) 
-13.718493252315863

>  <r_i_glide_erotb>  (1) 
1.8998339649575009

>  <r_i_glide_esite>  (1) 
0

>  <r_i_glide_evdw>  (1) 
-13.30776838632104

>  <r_i_glide_gscore>  (1) 
-1.6193662600179801

>  <r_i_glide_gscore_strain>  (1) 
0

>  <r_i_glide_hbond>  (1) 
0

>  <r_i_glide_ligand_efficiency>  (1) 
-0.32387325200359601

>  <r_i_glide_ligand_efficiency_ln>  (1) 
-0.62058049064958398

>  <r_i_glide_ligand_efficiency_sa>  (1) 
-0.55381547069810955

>  <r_i_glide_lipo>  (1) 
-0.33000000000000002

>  <r_i_glide_metal>  (1) 
-0

>  <r_i_glide_rewards>  (1) 
-2.4622030757602054

>  <r_lp_Energy>  (1) 
-0.092308000000000001

>  <r_lp_tautomer_probability>  (1) 
1

>  <s_epik_Chemistry_Notes>  (1) 
This compound has an ester and may undergo hydrolysis at high or low pH.

>  <s_epik_cmdline>  (1) 
J2VwaWtfcHl0aG9uJywgJy1waHQnLCAnMS4wJywgJy1waCcsICc3LjQnLCAnLXRuJywgJzgnLCAnLW1hJywgJzUwMCcsICctaW1hZScsICc8aW5maWxlLm1hZT4nLCAnLW9tYWUnLCAnPG91dGZpbGUubWFlPic=

>  <s_epik_input>  (1) 
W0NIM11PQyg9TylbQ0gzXQ==

>  <s_glide_docking_method>  (1) 
confgen

>  <s_i_glide_gridfile>  (1) 
gpcr_drd2_6luq_protein_autoprepared_prepared

>  <s_lp_Force_Field>  (1) 
S-OPLS

>  <s_lp_Variant>  (1) 
Pocket2Mol_2_num_sample_50-1

>  <s_m_source_file>  (1) 
generated__ligand_Pocket2Mol_2026-05-06_prepared.sdf

>  <GenAI_Model>  (1) 
Pocket2Mol

>  <Protein>  (1) 
generic_title2

$$$$
